EPH_relaxed_0001_pdb2pqr_Repair_37_r2_0001_out
     RDKit          3D

 82 86  0  0  0  0  0  0  0  0999 V2000
   -1.5490    8.6000   -2.0630 C   0  0  0  0  0  0  0  0  0  0  0  0
   -1.8790    9.0130   -0.6260 C   0  0  2  0  0  0  0  0  0  0  0  0
   -3.3840    9.2850   -0.4310 C   0  0  0  0  0  0  0  0  0  0  0  0
   -4.2110    8.0210   -0.1840 C   0  0  0  0  0  0  0  0  0  0  0  0
   -5.3140    7.8750   -1.1870 C   0  0  2  0  0  0  0  0  0  0  0  0
   -6.3570    6.9700   -0.8040 O   0  0  0  0  0  0  0  0  0  0  0  0
   -5.5840    6.5940   -1.9550 C   0  0  0  0  0  0  0  0  0  0  0  0
   -4.7440    5.3720   -1.7520 C   0  0  0  0  0  0  0  0  0  0  0  0
   -6.3410    6.6780   -3.2440 C   0  0  0  0  0  0  0  0  0  0  0  0
   -1.0720   10.2480   -0.2420 C   0  0  1  0  0  0  0  0  0  0  0  0
   -0.0570    9.9680    0.8980 C   0  0  0  0  0  0  0  0  0  0  0  0
    1.1900   10.8440    0.6120 C   0  0  0  0  0  0  0  0  0  0  0  0
    0.7270   11.8360   -0.4810 C   0  0  1  0  0  0  0  0  0  0  0  0
   -0.0380   12.9550    0.2910 C   0  0  0  0  0  0  0  0  0  0  0  0
    1.8490   12.4280   -1.3960 C   0  0  2  0  0  0  0  0  0  0  0  0
    2.9050   13.2760   -0.6660 C   0  0  0  0  0  0  0  0  0  0  0  0
    2.6000   14.7350   -0.5740 C   0  0  0  0  0  0  0  0  0  0  0  0
    1.6700   15.3860   -1.2960 C   0  0  0  0  0  0  0  0  0  0  0  0
    0.8760   14.6650   -2.3930 C   0  0  1  0  0  0  0  0  0  0  0  0
    0.8480   15.5400   -3.6730 C   0  0  0  0  0  0  0  0  0  0  0  0
    0.3270   16.9490   -3.4070 C   0  0  0  0  0  0  0  0  0  0  0  0
    1.1770   17.6550   -2.3540 C   0  0  2  0  0  0  0  0  0  0  0  0
    2.4850   17.8770   -2.8910 O   0  0  0  0  0  0  0  0  0  0  0  0
    1.2860   16.8610   -1.0220 C   0  0  0  0  0  0  0  0  0  0  0  0
   -0.0790   16.8810   -0.2920 C   0  0  0  0  0  0  0  0  0  0  0  0
    2.2830   17.6130   -0.0990 C   0  0  0  0  0  0  0  0  0  0  0  0
    1.3090   13.1640   -2.6890 C   0  0  1  0  0  0  0  0  0  0  0  0
    2.4690   13.1410   -3.7310 C   0  0  0  0  0  0  0  0  0  0  0  0
    0.1010   12.4020   -3.3510 C   0  0  0  0  0  0  0  0  0  0  0  0
   -0.9080   11.7360   -2.3960 C   0  0  0  0  0  0  0  0  0  0  0  0
   -0.1880   10.8900   -1.3410 C   0  0  2  0  0  0  0  0  0  0  0  0
    0.5740    9.7410   -2.0870 C   0  0  0  0  0  0  0  0  0  0  0  0
   -0.8624    7.7407   -2.0490 H   0  0  0  0  0  0  0  0  0  0  0  0
   -2.4754    8.3206   -2.5862 H   0  0  0  0  0  0  0  0  0  0  0  0
   -1.0721    9.4419   -2.5862 H   0  0  0  0  0  0  0  0  0  0  0  0
   -1.6080    8.1730    0.0304 H   0  0  0  0  0  0  0  0  0  0  0  0
   -3.5067    9.9546    0.4330 H   0  0  0  0  0  0  0  0  0  0  0  0
   -3.7533    9.7331   -1.3652 H   0  0  0  0  0  0  0  0  0  0  0  0
   -3.5502    7.1441   -0.2508 H   0  0  0  0  0  0  0  0  0  0  0  0
   -4.6645    8.0981    0.8152 H   0  0  0  0  0  0  0  0  0  0  0  0
   -5.1858    8.9177   -1.5130 H   0  0  0  0  0  0  0  0  0  0  0  0
   -4.6179    5.1886   -0.6748 H   0  0  0  0  0  0  0  0  0  0  0  0
   -5.2385    4.5059   -2.2160 H   0  0  0  0  0  0  0  0  0  0  0  0
   -3.7582    5.5234   -2.2160 H   0  0  0  0  0  0  0  0  0  0  0  0
   -7.4138    6.7970   -3.0321 H   0  0  0  0  0  0  0  0  0  0  0  0
   -5.9836    7.5420   -3.8235 H   0  0  0  0  0  0  0  0  0  0  0  0
   -6.1817    5.7567   -3.8235 H   0  0  0  0  0  0  0  0  0  0  0  0
   -1.8934   10.9289    0.0256 H   0  0  0  0  0  0  0  0  0  0  0  0
   -0.4951   10.2385    1.8701 H   0  0  0  0  0  0  0  0  0  0  0  0
    0.2099    8.9015    0.9360 H   0  0  0  0  0  0  0  0  0  0  0  0
    1.5023   11.3830    1.5186 H   0  0  0  0  0  0  0  0  0  0  0  0
    2.0561   10.2457    0.2928 H   0  0  0  0  0  0  0  0  0  0  0  0
    0.0718   12.7943    1.3736 H   0  0  0  0  0  0  0  0  0  0  0  0
    0.3788   13.9368    0.0219 H   0  0  0  0  0  0  0  0  0  0  0  0
   -1.1041   12.9230    0.0219 H   0  0  0  0  0  0  0  0  0  0  0  0
    2.3757   11.5254   -1.7393 H   0  0  0  0  0  0  0  0  0  0  0  0
    3.0068   12.8850    0.3571 H   0  0  0  0  0  0  0  0  0  0  0  0
    3.8256   13.1949   -1.2626 H   0  0  0  0  0  0  0  0  0  0  0  0
    3.1851   15.3274    0.1448 H   0  0  0  0  0  0  0  0  0  0  0  0
   -0.1448   14.5457   -2.0008 H   0  0  0  0  0  0  0  0  0  0  0  0
    1.8700   15.6117   -4.0736 H   0  0  0  0  0  0  0  0  0  0  0  0
    0.1649   15.0612   -4.3900 H   0  0  0  0  0  0  0  0  0  0  0  0
    0.3589   17.5272   -4.3423 H   0  0  0  0  0  0  0  0  0  0  0  0
   -0.7055   16.8771   -3.0344 H   0  0  0  0  0  0  0  0  0  0  0  0
    0.6804   18.6062   -2.1119 H   0  0  0  0  0  0  0  0  0  0  0  0
    2.8610   17.0100   -3.1180 H   0  0  0  0  0  0  0  0  0  0  0  0
    0.0867   16.8786    0.7954 H   0  0  0  0  0  0  0  0  0  0  0  0
   -0.6336   17.7874   -0.5764 H   0  0  0  0  0  0  0  0  0  0  0  0
   -0.6600   15.9913   -0.5764 H   0  0  0  0  0  0  0  0  0  0  0  0
    2.0263   17.4194    0.9530 H   0  0  0  0  0  0  0  0  0  0  0  0
    3.3053   17.2591   -0.2981 H   0  0  0  0  0  0  0  0  0  0  0  0
    2.2236   18.6932   -0.2981 H   0  0  0  0  0  0  0  0  0  0  0  0
    3.4346   13.1219   -3.2044 H   0  0  0  0  0  0  0  0  0  0  0  0
    2.3775   12.2445   -4.3618 H   0  0  0  0  0  0  0  0  0  0  0  0
    2.4131   14.0404   -4.3618 H   0  0  0  0  0  0  0  0  0  0  0  0
   -0.4521   13.1265   -3.9668 H   0  0  0  0  0  0  0  0  0  0  0  0
    0.5567   11.5727   -3.9120 H   0  0  0  0  0  0  0  0  0  0  0  0
   -1.4954   12.5172   -1.8913 H   0  0  0  0  0  0  0  0  0  0  0  0
   -1.5659   11.0788   -2.9835 H   0  0  0  0  0  0  0  0  0  0  0  0
    1.0250    9.0609   -1.3494 H   0  0  0  0  0  0  0  0  0  0  0  0
   -0.1327    9.1815   -2.7176 H   0  0  0  0  0  0  0  0  0  0  0  0
    1.3644   10.1743   -2.7176 H   0  0  0  0  0  0  0  0  0  0  0  0
  1  2  1  0
  2  3  1  0
  3  4  1  0
  4  5  1  0
  5  6  1  0
  6  7  1  0
  7  8  1  0
  7  9  1  0
  2 10  1  0
 10 11  1  0
 11 12  1  0
 12 13  1  0
 13 14  1  1
 13 15  1  0
 15 16  1  0
 16 17  1  0
 17 18  2  0
 18 19  1  0
 19 20  1  0
 20 21  1  0
 21 22  1  0
 22 23  1  0
 22 24  1  0
 24 25  1  0
 24 26  1  0
 19 27  1  0
 27 28  1  6
 27 29  1  0
 29 30  1  0
 30 31  1  0
 31 32  1  6
  7  5  1  0
 31 10  1  0
 31 13  1  0
 27 15  1  0
 24 18  1  0
  1 33  1  0
  1 34  1  0
  1 35  1  0
  2 36  1  1
  3 37  1  0
  3 38  1  0
  4 39  1  0
  4 40  1  0
  5 41  1  6
  8 42  1  0
  8 43  1  0
  8 44  1  0
  9 45  1  0
  9 46  1  0
  9 47  1  0
 10 48  1  1
 11 49  1  0
 11 50  1  0
 12 51  1  0
 12 52  1  0
 14 53  1  0
 14 54  1  0
 14 55  1  0
 15 56  1  6
 16 57  1  0
 16 58  1  0
 17 59  1  0
 19 60  1  1
 20 61  1  0
 20 62  1  0
 21 63  1  0
 21 64  1  0
 22 65  1  1
 23 66  1  0
 25 67  1  0
 25 68  1  0
 25 69  1  0
 26 70  1  0
 26 71  1  0
 26 72  1  0
 28 73  1  0
 28 74  1  0
 28 75  1  0
 29 76  1  0
 29 77  1  0
 30 78  1  0
 30 79  1  0
 32 80  1  0
 32 81  1  0
 32 82  1  0
M  END
>  <meeko>  (1) 
{"is_sidechain": [false], "intermolecular_energy": 2.731, "internal_energy": -0.839}

$$$$
EPH_relaxed_0001_pdb2pqr_Repair_37_r2_0001_out
     RDKit          3D

 82 86  0  0  0  0  0  0  0  0999 V2000
    4.2110   17.5580   -0.5710 C   0  0  0  0  0  0  0  0  0  0  0  0
    2.8480   18.1190   -0.1560 C   0  0  2  0  0  0  0  0  0  0  0  0
    2.8950   18.7930    1.2300 C   0  0  0  0  0  0  0  0  0  0  0  0
    4.2990   18.8530    1.8380 C   0  0  0  0  0  0  0  0  0  0  0  0
    4.2690   19.3350    3.2560 C   0  0  2  0  0  0  0  0  0  0  0  0
    5.3600   20.1920    3.6210 O   0  0  0  0  0  0  0  0  0  0  0  0
    5.2920   18.9280    4.3000 C   0  0  0  0  0  0  0  0  0  0  0  0
    6.4170   17.9980    3.9690 C   0  0  0  0  0  0  0  0  0  0  0  0
    4.9220   19.0400    5.7470 C   0  0  0  0  0  0  0  0  0  0  0  0
    1.8060   17.0070   -0.1590 C   0  0  1  0  0  0  0  0  0  0  0  0
    0.3780   17.5270   -0.4750 C   0  0  0  0  0  0  0  0  0  0  0  0
   -0.3320   16.4160   -1.2910 C   0  0  0  0  0  0  0  0  0  0  0  0
    0.5780   15.1750   -1.1340 C   0  0  1  0  0  0  0  0  0  0  0  0
    0.1980   14.5720    0.2550 C   0  0  0  0  0  0  0  0  0  0  0  0
    0.4890   14.1050   -2.2710 C   0  0  2  0  0  0  0  0  0  0  0  0
   -0.8870   13.4350   -2.4310 C   0  0  0  0  0  0  0  0  0  0  0  0
   -1.0880   12.1920   -1.6290 C   0  0  0  0  0  0  0  0  0  0  0  0
   -0.1130   11.4770   -1.0370 C   0  0  0  0  0  0  0  0  0  0  0  0
    1.3630   11.8500   -1.2250 C   0  0  1  0  0  0  0  0  0  0  0  0
    2.1830   10.5730   -1.5460 C   0  0  0  0  0  0  0  0  0  0  0  0
    1.9870    9.4750   -0.5050 C   0  0  0  0  0  0  0  0  0  0  0  0
    0.5140    9.0910   -0.3880 C   0  0  2  0  0  0  0  0  0  0  0  0
    0.1010    8.4710   -1.6100 O   0  0  0  0  0  0  0  0  0  0  0  0
   -0.4110   10.3000   -0.0760 C   0  0  0  0  0  0  0  0  0  0  0  0
   -0.1660   10.7820    1.3750 C   0  0  0  0  0  0  0  0  0  0  0  0
   -1.8810    9.8010   -0.1250 C   0  0  0  0  0  0  0  0  0  0  0  0
    1.6540   13.0340   -2.2450 C   0  0  1  0  0  0  0  0  0  0  0  0
    1.7730   12.4710   -3.6940 C   0  0  0  0  0  0  0  0  0  0  0  0
    3.0500   13.6760   -1.9020 C   0  0  0  0  0  0  0  0  0  0  0  0
    3.0560   14.8100   -0.8590 C   0  0  0  0  0  0  0  0  0  0  0  0
    1.9910   15.8620   -1.1860 C   0  0  2  0  0  0  0  0  0  0  0  0
    2.3590   16.5010   -2.5680 C   0  0  0  0  0  0  0  0  0  0  0  0
    4.7973   17.3167    0.3279 H   0  0  0  0  0  0  0  0  0  0  0  0
    4.0656   16.6466   -1.1695 H   0  0  0  0  0  0  0  0  0  0  0  0
    4.7493   18.3077   -1.1695 H   0  0  0  0  0  0  0  0  0  0  0  0
    2.5706   18.8908   -0.8891 H   0  0  0  0  0  0  0  0  0  0  0  0
    2.5159   19.8207    1.1294 H   0  0  0  0  0  0  0  0  0  0  0  0
    2.2780   18.1823    1.9055 H   0  0  0  0  0  0  0  0  0  0  0  0
    4.7415   17.8462    1.8131 H   0  0  0  0  0  0  0  0  0  0  0  0
    4.8981   19.5619    1.2477 H   0  0  0  0  0  0  0  0  0  0  0  0
    3.1690   19.3294    3.2591 H   0  0  0  0  0  0  0  0  0  0  0  0
    6.8694   17.6240    4.8993 H   0  0  0  0  0  0  0  0  0  0  0  0
    6.0320   17.1510    3.3822 H   0  0  0  0  0  0  0  0  0  0  0  0
    7.1765   18.5355    3.3822 H   0  0  0  0  0  0  0  0  0  0  0  0
    5.7904   18.7771    6.3689 H   0  0  0  0  0  0  0  0  0  0  0  0
    4.6121   20.0722    5.9674 H   0  0  0  0  0  0  0  0  0  0  0  0
    4.0917   18.3529    5.9674 H   0  0  0  0  0  0  0  0  0  0  0  0
    1.9440   16.6224    0.8623 H   0  0  0  0  0  0  0  0  0  0  0  0
   -0.1702   17.7201    0.4589 H   0  0  0  0  0  0  0  0  0  0  0  0
    0.4170   18.4693   -1.0412 H   0  0  0  0  0  0  0  0  0  0  0  0
   -1.3346   16.2163   -0.8848 H   0  0  0  0  0  0  0  0  0  0  0  0
   -0.4744   16.6984   -2.3445 H   0  0  0  0  0  0  0  0  0  0  0  0
    0.6007   15.2110    1.0547 H   0  0  0  0  0  0  0  0  0  0  0  0
   -0.8971   14.5189    0.3445 H   0  0  0  0  0  0  0  0  0  0  0  0
    0.6226   13.5612    0.3445 H   0  0  0  0  0  0  0  0  0  0  0  0
    0.6325   14.7115   -3.1774 H   0  0  0  0  0  0  0  0  0  0  0  0
   -1.6560   14.1617   -2.1301 H   0  0  0  0  0  0  0  0  0  0  0  0
   -0.9568   13.1312   -3.4859 H   0  0  0  0  0  0  0  0  0  0  0  0
   -2.1200   11.8297   -1.5119 H   0  0  0  0  0  0  0  0  0  0  0  0
    1.6940   12.2748   -0.2658 H   0  0  0  0  0  0  0  0  0  0  0  0
    1.8677   10.1889   -2.5273 H   0  0  0  0  0  0  0  0  0  0  0  0
    3.2475   10.8501   -1.5428 H   0  0  0  0  0  0  0  0  0  0  0  0
    2.5675    8.5892   -0.8024 H   0  0  0  0  0  0  0  0  0  0  0  0
    2.3306    9.8503    0.4702 H   0  0  0  0  0  0  0  0  0  0  0  0
    0.4198    8.3975    0.4606 H   0  0  0  0  0  0  0  0  0  0  0  0
    0.2530    7.5150   -1.5200 H   0  0  0  0  0  0  0  0  0  0  0  0
   -0.5483   10.0298    2.0807 H   0  0  0  0  0  0  0  0  0  0  0  0
    0.9128   10.9223    1.5375 H   0  0  0  0  0  0  0  0  0  0  0  0
   -0.6885   11.7363    1.5375 H   0  0  0  0  0  0  0  0  0  0  0  0
   -2.2590    9.6727    0.9000 H   0  0  0  0  0  0  0  0  0  0  0  0
   -2.5012   10.5389   -0.6549 H   0  0  0  0  0  0  0  0  0  0  0  0
   -1.9238    8.8380   -0.6549 H   0  0  0  0  0  0  0  0  0  0  0  0
    2.0003   11.3956   -3.6520 H   0  0  0  0  0  0  0  0  0  0  0  0
    0.8226   12.6244   -4.2262 H   0  0  0  0  0  0  0  0  0  0  0  0
    2.5801   12.9958   -4.2262 H   0  0  0  0  0  0  0  0  0  0  0  0
    3.7015   12.8738   -1.5251 H   0  0  0  0  0  0  0  0  0  0  0  0
    3.3891   14.1441   -2.8379 H   0  0  0  0  0  0  0  0  0  0  0  0
    2.8496   14.3859    0.1348 H   0  0  0  0  0  0  0  0  0  0  0  0
    4.0435   15.2945   -0.8735 H   0  0  0  0  0  0  0  0  0  0  0  0
    2.9018   17.4435   -2.4033 H   0  0  0  0  0  0  0  0  0  0  0  0
    2.9951   15.8059   -3.1356 H   0  0  0  0  0  0  0  0  0  0  0  0
    1.4385   16.7024   -3.1356 H   0  0  0  0  0  0  0  0  0  0  0  0
  1  2  1  0
  2  3  1  0
  3  4  1  0
  4  5  1  0
  5  6  1  0
  6  7  1  0
  7  8  1  0
  7  9  1  0
  2 10  1  0
 10 11  1  0
 11 12  1  0
 12 13  1  0
 13 14  1  1
 13 15  1  0
 15 16  1  0
 16 17  1  0
 17 18  2  0
 18 19  1  0
 19 20  1  0
 20 21  1  0
 21 22  1  0
 22 23  1  0
 22 24  1  0
 24 25  1  0
 24 26  1  0
 19 27  1  0
 27 28  1  6
 27 29  1  0
 29 30  1  0
 30 31  1  0
 31 32  1  6
  7  5  1  0
 31 10  1  0
 31 13  1  0
 27 15  1  0
 24 18  1  0
  1 33  1  0
  1 34  1  0
  1 35  1  0
  2 36  1  6
  3 37  1  0
  3 38  1  0
  4 39  1  0
  4 40  1  0
  5 41  1  1
  8 42  1  0
  8 43  1  0
  8 44  1  0
  9 45  1  0
  9 46  1  0
  9 47  1  0
 10 48  1  1
 11 49  1  0
 11 50  1  0
 12 51  1  0
 12 52  1  0
 14 53  1  0
 14 54  1  0
 14 55  1  0
 15 56  1  6
 16 57  1  0
 16 58  1  0
 17 59  1  0
 19 60  1  1
 20 61  1  0
 20 62  1  0
 21 63  1  0
 21 64  1  0
 22 65  1  1
 23 66  1  0
 25 67  1  0
 25 68  1  0
 25 69  1  0
 26 70  1  0
 26 71  1  0
 26 72  1  0
 28 73  1  0
 28 74  1  0
 28 75  1  0
 29 76  1  0
 29 77  1  0
 30 78  1  0
 30 79  1  0
 32 80  1  0
 32 81  1  0
 32 82  1  0
M  END
>  <meeko>  (2) 
{"is_sidechain": [false], "intermolecular_energy": 2.731, "internal_energy": -0.839}

$$$$
EPH_relaxed_0001_pdb2pqr_Repair_37_r2_0001_out
     RDKit          3D

 82 86  0  0  0  0  0  0  0  0999 V2000
    2.1840   18.0250   -2.4960 C   0  0  0  0  0  0  0  0  0  0  0  0
    0.6650   17.8840   -2.6350 C   0  0  2  0  0  0  0  0  0  0  0  0
   -0.0800   18.3700   -1.3760 C   0  0  0  0  0  0  0  0  0  0  0  0
    0.5870   17.9490   -0.0640 C   0  0  0  0  0  0  0  0  0  0  0  0
    1.1280   19.1290    0.6860 C   0  0  2  0  0  0  0  0  0  0  0  0
    2.0150   19.9640   -0.0700 O   0  0  0  0  0  0  0  0  0  0  0  0
    2.5910   19.2840    1.0580 C   0  0  0  0  0  0  0  0  0  0  0  0
    3.6040   18.2460    0.6900 C   0  0  0  0  0  0  0  0  0  0  0  0
    2.9480   20.1940    2.1920 C   0  0  0  0  0  0  0  0  0  0  0  0
    0.3030   16.4320   -2.9260 C   0  0  1  0  0  0  0  0  0  0  0  0
    0.3610   16.0940   -4.4400 C   0  0  0  0  0  0  0  0  0  0  0  0
    0.8580   14.6300   -4.5530 C   0  0  0  0  0  0  0  0  0  0  0  0
    0.7510   14.0700   -3.1150 C   0  0  1  0  0  0  0  0  0  0  0  0
   -0.7510   13.6800   -2.9470 C   0  0  0  0  0  0  0  0  0  0  0  0
    1.6990   12.8770   -2.7660 C   0  0  2  0  0  0  0  0  0  0  0  0
    1.4700   11.5990   -3.5910 C   0  0  0  0  0  0  0  0  0  0  0  0
    0.4970   10.6290   -3.0070 C   0  0  0  0  0  0  0  0  0  0  0  0
    0.0480   10.6390   -1.7380 C   0  0  0  0  0  0  0  0  0  0  0  0
    0.6000   11.6420   -0.7150 C   0  0  1  0  0  0  0  0  0  0  0  0
    0.9310   10.9020    0.6070 C   0  0  0  0  0  0  0  0  0  0  0  0
   -0.2550   10.1100    1.1480 C   0  0  0  0  0  0  0  0  0  0  0  0
   -0.7380    9.0850    0.1260 C   0  0  2  0  0  0  0  0  0  0  0  0
    0.2770    8.0910   -0.0460 O   0  0  0  0  0  0  0  0  0  0  0  0
   -1.0930    9.7130   -1.2510 C   0  0  0  0  0  0  0  0  0  0  0  0
   -2.3840   10.5580   -1.1210 C   0  0  0  0  0  0  0  0  0  0  0  0
   -1.4290    8.5560   -2.2310 C   0  0  0  0  0  0  0  0  0  0  0  0
    1.7970   12.5580   -1.2190 C   0  0  1  0  0  0  0  0  0  0  0  0
    3.1560   11.8250   -1.0000 C   0  0  0  0  0  0  0  0  0  0  0  0
    1.8490   13.8630   -0.3410 C   0  0  0  0  0  0  0  0  0  0  0  0
    0.9810   15.0490   -0.8050 C   0  0  0  0  0  0  0  0  0  0  0  0
    1.1950   15.3350   -2.2940 C   0  0  2  0  0  0  0  0  0  0  0  0
    2.6930   15.7520   -2.4910 C   0  0  0  0  0  0  0  0  0  0  0  0
    2.4539   18.0501   -1.4299 H   0  0  0  0  0  0  0  0  0  0  0  0
    2.6775   17.1688   -2.9791 H   0  0  0  0  0  0  0  0  0  0  0  0
    2.5114   18.9574   -2.9791 H   0  0  0  0  0  0  0  0  0  0  0  0
    0.3481   18.5218   -3.4733 H   0  0  0  0  0  0  0  0  0  0  0  0
   -0.1285   19.4686   -1.4038 H   0  0  0  0  0  0  0  0  0  0  0  0
   -1.0766   17.9048   -1.3931 H   0  0  0  0  0  0  0  0  0  0  0  0
   -0.1557   17.4366    0.5652 H   0  0  0  0  0  0  0  0  0  0  0  0
    1.4271   17.2811   -0.3051 H   0  0  0  0  0  0  0  0  0  0  0  0
    0.2039   19.2065    1.2777 H   0  0  0  0  0  0  0  0  0  0  0  0
    4.0304   17.8091    1.6051 H   0  0  0  0  0  0  0  0  0  0  0  0
    3.1204   17.4556    0.0972 H   0  0  0  0  0  0  0  0  0  0  0  0
    4.4059   18.7102    0.0972 H   0  0  0  0  0  0  0  0  0  0  0  0
    2.7485   19.6856    3.1469 H   0  0  0  0  0  0  0  0  0  0  0  0
    4.0150   20.4545    2.1312 H   0  0  0  0  0  0  0  0  0  0  0  0
    2.3428   21.1105    2.1312 H   0  0  0  0  0  0  0  0  0  0  0  0
   -0.7026   16.4008   -2.4812 H   0  0  0  0  0  0  0  0  0  0  0  0
   -0.6390   16.1902   -4.8881 H   0  0  0  0  0  0  0  0  0  0  0  0
    1.0343   16.7818   -4.9726 H   0  0  0  0  0  0  0  0  0  0  0  0
    0.2211   14.0557   -5.2419 H   0  0  0  0  0  0  0  0  0  0  0  0
    1.8817   14.5663   -4.9506 H   0  0  0  0  0  0  0  0  0  0  0  0
   -0.9958   13.6164   -1.8765 H   0  0  0  0  0  0  0  0  0  0  0  0
   -1.3836   14.4437   -3.4231 H   0  0  0  0  0  0  0  0  0  0  0  0
   -0.9321   12.7050   -3.4231 H   0  0  0  0  0  0  0  0  0  0  0  0
    2.6830   13.2591   -3.0753 H   0  0  0  0  0  0  0  0  0  0  0  0
    1.0994   11.8966   -4.5830 H   0  0  0  0  0  0  0  0  0  0  0  0
    2.4384   11.0782   -3.6206 H   0  0  0  0  0  0  0  0  0  0  0  0
    0.1145    9.8390   -3.6700 H   0  0  0  0  0  0  0  0  0  0  0  0
   -0.2023   12.3743   -0.5419 H   0  0  0  0  0  0  0  0  0  0  0  0
    1.7641   10.2076    0.4231 H   0  0  0  0  0  0  0  0  0  0  0  0
    1.1947   11.6618    1.3574 H   0  0  0  0  0  0  0  0  0  0  0  0
    0.0503    9.5867    2.0661 H   0  0  0  0  0  0  0  0  0  0  0  0
   -1.0773   10.8095    1.3593 H   0  0  0  0  0  0  0  0  0  0  0  0
   -1.6656    8.6417    0.5171 H   0  0  0  0  0  0  0  0  0  0  0  0
   -0.1660    7.2310   -0.1410 H   0  0  0  0  0  0  0  0  0  0  0  0
   -2.6169   10.7104   -0.0568 H   0  0  0  0  0  0  0  0  0  0  0  0
   -2.2343   11.5334   -1.6069 H   0  0  0  0  0  0  0  0  0  0  0  0
   -3.2180   10.0305   -1.6069 H   0  0  0  0  0  0  0  0  0  0  0  0
   -1.6908    7.6544   -1.6578 H   0  0  0  0  0  0  0  0  0  0  0  0
   -2.2796    8.8475   -2.8646 H   0  0  0  0  0  0  0  0  0  0  0  0
   -0.5546    8.3466   -2.8646 H   0  0  0  0  0  0  0  0  0  0  0  0
    3.3473   11.7218    0.0783 H   0  0  0  0  0  0  0  0  0  0  0  0
    3.1132   10.8276   -1.4619 H   0  0  0  0  0  0  0  0  0  0  0  0
    3.9660   12.4086   -1.4619 H   0  0  0  0  0  0  0  0  0  0  0  0
    1.5271   13.5929    0.6756 H   0  0  0  0  0  0  0  0  0  0  0  0
    2.8869   14.2194   -0.4171 H   0  0  0  0  0  0  0  0  0  0  0  0
   -0.0785   14.8083   -0.6334 H   0  0  0  0  0  0  0  0  0  0  0  0
    1.2708   15.9416   -0.2311 H   0  0  0  0  0  0  0  0  0  0  0  0
    3.1690   15.8845   -1.5082 H   0  0  0  0  0  0  0  0  0  0  0  0
    3.2215   14.9668   -3.0515 H   0  0  0  0  0  0  0  0  0  0  0  0
    2.7398   16.6973   -3.0515 H   0  0  0  0  0  0  0  0  0  0  0  0
  1  2  1  0
  2  3  1  0
  3  4  1  0
  4  5  1  0
  5  6  1  0
  6  7  1  0
  7  8  1  0
  7  9  1  0
  2 10  1  0
 10 11  1  0
 11 12  1  0
 12 13  1  0
 13 14  1  1
 13 15  1  0
 15 16  1  0
 16 17  1  0
 17 18  2  0
 18 19  1  0
 19 20  1  0
 20 21  1  0
 21 22  1  0
 22 23  1  0
 22 24  1  0
 24 25  1  0
 24 26  1  0
 19 27  1  0
 27 28  1  6
 27 29  1  0
 29 30  1  0
 30 31  1  0
 31 32  1  1
  7  5  1  0
 31 10  1  0
 31 13  1  0
 27 15  1  0
 24 18  1  0
  1 33  1  0
  1 34  1  0
  1 35  1  0
  2 36  1  6
  3 37  1  0
  3 38  1  0
  4 39  1  0
  4 40  1  0
  5 41  1  1
  8 42  1  0
  8 43  1  0
  8 44  1  0
  9 45  1  0
  9 46  1  0
  9 47  1  0
 10 48  1  1
 11 49  1  0
 11 50  1  0
 12 51  1  0
 12 52  1  0
 14 53  1  0
 14 54  1  0
 14 55  1  0
 15 56  1  6
 16 57  1  0
 16 58  1  0
 17 59  1  0
 19 60  1  1
 20 61  1  0
 20 62  1  0
 21 63  1  0
 21 64  1  0
 22 65  1  1
 23 66  1  0
 25 67  1  0
 25 68  1  0
 25 69  1  0
 26 70  1  0
 26 71  1  0
 26 72  1  0
 28 73  1  0
 28 74  1  0
 28 75  1  0
 29 76  1  0
 29 77  1  0
 30 78  1  0
 30 79  1  0
 32 80  1  0
 32 81  1  0
 32 82  1  0
M  END
>  <meeko>  (3) 
{"is_sidechain": [false], "intermolecular_energy": 2.731, "internal_energy": -0.839}

$$$$
EPH_relaxed_0001_pdb2pqr_Repair_37_r2_0001_out
     RDKit          3D

 82 86  0  0  0  0  0  0  0  0999 V2000
    0.4480   18.5430    0.0290 C   0  0  0  0  0  0  0  0  0  0  0  0
    1.5270   17.4760   -0.1740 C   0  0  2  0  0  0  0  0  0  0  0  0
    2.7580   18.0290   -0.9190 C   0  0  0  0  0  0  0  0  0  0  0  0
    3.9960   18.1830   -0.0310 C   0  0  0  0  0  0  0  0  0  0  0  0
    3.6360   18.6460    1.3480 C   0  0  2  0  0  0  0  0  0  0  0  0
    3.8910   20.0340    1.5990 O   0  0  0  0  0  0  0  0  0  0  0  0
    4.6590   19.0980    2.3730 C   0  0  0  0  0  0  0  0  0  0  0  0
    6.1230   19.1080    2.0620 C   0  0  0  0  0  0  0  0  0  0  0  0
    4.2850   19.0620    3.8220 C   0  0  0  0  0  0  0  0  0  0  0  0
    0.9470   16.2900   -0.9360 C   0  0  1  0  0  0  0  0  0  0  0  0
    0.7730   16.5800   -2.4510 C   0  0  0  0  0  0  0  0  0  0  0  0
    1.0600   15.2510   -3.1970 C   0  0  0  0  0  0  0  0  0  0  0  0
    1.0610   14.1730   -2.0870 C   0  0  1  0  0  0  0  0  0  0  0  0
   -0.4460   13.8540   -1.8360 C   0  0  0  0  0  0  0  0  0  0  0  0
    1.8840   12.8780   -2.3830 C   0  0  2  0  0  0  0  0  0  0  0  0
    1.3930   12.0530   -3.5850 C   0  0  0  0  0  0  0  0  0  0  0  0
    0.3830   11.0010   -3.2660 C   0  0  0  0  0  0  0  0  0  0  0  0
    0.1000   10.5360   -2.0350 C   0  0  0  0  0  0  0  0  0  0  0  0
    0.8980   11.0070   -0.8130 C   0  0  1  0  0  0  0  0  0  0  0  0
    1.2930    9.7810    0.0510 C   0  0  0  0  0  0  0  0  0  0  0  0
    0.0910    8.9230    0.4350 C   0  0  0  0  0  0  0  0  0  0  0  0
   -0.6430    8.4260   -0.8080 C   0  0  2  0  0  0  0  0  0  0  0  0
    0.2080    7.5150   -1.5120 O   0  0  0  0  0  0  0  0  0  0  0  0
   -1.0820    9.5730   -1.7610 C   0  0  0  0  0  0  0  0  0  0  0  0
   -2.2270   10.3840   -1.1050 C   0  0  0  0  0  0  0  0  0  0  0  0
   -1.6830    8.9290   -3.0390 C   0  0  0  0  0  0  0  0  0  0  0  0
    2.1310   11.9620   -1.1160 C   0  0  1  0  0  0  0  0  0  0  0  0
    3.4010   11.1110   -1.4220 C   0  0  0  0  0  0  0  0  0  0  0  0
    2.4600   12.8030    0.1740 C   0  0  0  0  0  0  0  0  0  0  0  0
    1.7000   14.1320    0.3500 C   0  0  0  0  0  0  0  0  0  0  0  0
    1.7630   14.9720   -0.9290 C   0  0  2  0  0  0  0  0  0  0  0  0
    3.2660   15.3280   -1.1950 C   0  0  0  0  0  0  0  0  0  0  0  0
    0.2874   18.7018    1.1056 H   0  0  0  0  0  0  0  0  0  0  0  0
    0.7722   19.4855   -0.4363 H   0  0  0  0  0  0  0  0  0  0  0  0
   -0.4908   18.2083   -0.4363 H   0  0  0  0  0  0  0  0  0  0  0  0
    1.8626   17.1510    0.8218 H   0  0  0  0  0  0  0  0  0  0  0  0
    3.0039   17.3416   -1.7418 H   0  0  0  0  0  0  0  0  0  0  0  0
    2.4922   19.0343   -1.2778 H   0  0  0  0  0  0  0  0  0  0  0  0
    4.5058   17.2110    0.0413 H   0  0  0  0  0  0  0  0  0  0  0  0
    4.6519   18.9398   -0.4860 H   0  0  0  0  0  0  0  0  0  0  0  0
    2.8096   17.9219    1.4005 H   0  0  0  0  0  0  0  0  0  0  0  0
    6.6971   19.1119    3.0003 H   0  0  0  0  0  0  0  0  0  0  0  0
    6.3800   18.2116    1.4786 H   0  0  0  0  0  0  0  0  0  0  0  0
    6.3678   20.0078    1.4786 H   0  0  0  0  0  0  0  0  0  0  0  0
    5.1927   19.1494    4.4372 H   0  0  0  0  0  0  0  0  0  0  0  0
    3.6077   19.8991    4.0468 H   0  0  0  0  0  0  0  0  0  0  0  0
    3.7798   18.1111    4.0468 H   0  0  0  0  0  0  0  0  0  0  0  0
    0.0082   16.1546   -0.3790 H   0  0  0  0  0  0  0  0  0  0  0  0
   -0.2541   16.9157   -2.6569 H   0  0  0  0  0  0  0  0  0  0  0  0
    1.4578   17.3746   -2.7822 H   0  0  0  0  0  0  0  0  0  0  0  0
    0.2742   15.0443   -3.9384 H   0  0  0  0  0  0  0  0  0  0  0  0
    2.0098   15.2802   -3.7511 H   0  0  0  0  0  0  0  0  0  0  0  0
   -0.6369   13.8136   -0.7534 H   0  0  0  0  0  0  0  0  0  0  0  0
   -1.0676   14.6405   -2.2888 H   0  0  0  0  0  0  0  0  0  0  0  0
   -0.6956   12.8831   -2.2888 H   0  0  0  0  0  0  0  0  0  0  0  0
    2.8625   13.2841   -2.6788 H   0  0  0  0  0  0  0  0  0  0  0  0
    0.9443   12.7457   -4.3122 H   0  0  0  0  0  0  0  0  0  0  0  0
    2.2755   11.5211   -3.9701 H   0  0  0  0  0  0  0  0  0  0  0  0
   -0.1774   10.5693   -4.1083 H   0  0  0  0  0  0  0  0  0  0  0  0
    0.2232   11.6634   -0.2439 H   0  0  0  0  0  0  0  0  0  0  0  0
    2.0006    9.1613   -0.5192 H   0  0  0  0  0  0  0  0  0  0  0  0
    1.7433   10.1593    0.9806 H   0  0  0  0  0  0  0  0  0  0  0  0
    0.4380    8.0575    1.0185 H   0  0  0  0  0  0  0  0  0  0  0  0
   -0.6018    9.5353    1.0309 H   0  0  0  0  0  0  0  0  0  0  0  0
   -1.5646    7.9295   -0.4702 H   0  0  0  0  0  0  0  0  0  0  0  0
   -0.0910    7.4890   -2.4370 H   0  0  0  0  0  0  0  0  0  0  0  0
   -2.1396   10.3221   -0.0102 H   0  0  0  0  0  0  0  0  0  0  0  0
   -2.1581   11.4358   -1.4194 H   0  0  0  0  0  0  0  0  0  0  0  0
   -3.1964    9.9700   -1.4194 H   0  0  0  0  0  0  0  0  0  0  0  0
   -2.4076    8.1526   -2.7523 H   0  0  0  0  0  0  0  0  0  0  0  0
   -2.1903    9.7018   -3.6352 H   0  0  0  0  0  0  0  0  0  0  0  0
   -0.8770    8.4762   -3.6352 H   0  0  0  0  0  0  0  0  0  0  0  0
    3.8688   10.7976   -0.4770 H   0  0  0  0  0  0  0  0  0  0  0  0
    3.1152   10.2214   -2.0024 H   0  0  0  0  0  0  0  0  0  0  0  0
    4.1151   11.7136   -2.0024 H   0  0  0  0  0  0  0  0  0  0  0  0
    2.2360   12.1734    1.0477 H   0  0  0  0  0  0  0  0  0  0  0  0
    3.5173   13.0879    0.0698 H   0  0  0  0  0  0  0  0  0  0  0  0
    0.6478   13.9163    0.5876 H   0  0  0  0  0  0  0  0  0  0  0  0
    2.1700   14.6998    1.1665 H   0  0  0  0  0  0  0  0  0  0  0  0
    3.7889   15.4519   -0.2352 H   0  0  0  0  0  0  0  0  0  0  0  0
    3.7390   14.5170   -1.7683 H   0  0  0  0  0  0  0  0  0  0  0  0
    3.3250   16.2650   -1.7683 H   0  0  0  0  0  0  0  0  0  0  0  0
  1  2  1  0
  2  3  1  0
  3  4  1  0
  4  5  1  0
  5  6  1  0
  6  7  1  0
  7  8  1  0
  7  9  1  0
  2 10  1  0
 10 11  1  0
 11 12  1  0
 12 13  1  0
 13 14  1  1
 13 15  1  0
 15 16  1  0
 16 17  1  0
 17 18  2  0
 18 19  1  0
 19 20  1  0
 20 21  1  0
 21 22  1  0
 22 23  1  0
 22 24  1  0
 24 25  1  0
 24 26  1  0
 19 27  1  0
 27 28  1  6
 27 29  1  0
 29 30  1  0
 30 31  1  0
 31 32  1  6
  7  5  1  0
 31 10  1  0
 31 13  1  0
 27 15  1  0
 24 18  1  0
  1 33  1  0
  1 34  1  0
  1 35  1  0
  2 36  1  1
  3 37  1  0
  3 38  1  0
  4 39  1  0
  4 40  1  0
  5 41  1  1
  8 42  1  0
  8 43  1  0
  8 44  1  0
  9 45  1  0
  9 46  1  0
  9 47  1  0
 10 48  1  1
 11 49  1  0
 11 50  1  0
 12 51  1  0
 12 52  1  0
 14 53  1  0
 14 54  1  0
 14 55  1  0
 15 56  1  6
 16 57  1  0
 16 58  1  0
 17 59  1  0
 19 60  1  1
 20 61  1  0
 20 62  1  0
 21 63  1  0
 21 64  1  0
 22 65  1  1
 23 66  1  0
 25 67  1  0
 25 68  1  0
 25 69  1  0
 26 70  1  0
 26 71  1  0
 26 72  1  0
 28 73  1  0
 28 74  1  0
 28 75  1  0
 29 76  1  0
 29 77  1  0
 30 78  1  0
 30 79  1  0
 32 80  1  0
 32 81  1  0
 32 82  1  0
M  END
>  <meeko>  (4) 
{"is_sidechain": [false], "intermolecular_energy": 2.731, "internal_energy": -0.839}

$$$$
EPH_relaxed_0001_pdb2pqr_Repair_37_r2_0001_out
     RDKit          3D

 82 86  0  0  0  0  0  0  0  0999 V2000
    2.1470   18.2870   -2.7800 C   0  0  0  0  0  0  0  0  0  0  0  0
    0.9860   17.7960   -1.9110 C   0  0  2  0  0  0  0  0  0  0  0  0
    1.3450   17.7940   -0.4110 C   0  0  0  0  0  0  0  0  0  0  0  0
    1.2490   19.1730    0.2470 C   0  0  0  0  0  0  0  0  0  0  0  0
   -0.0500   19.8500   -0.0730 C   0  0  2  0  0  0  0  0  0  0  0  0
   -0.8440   20.1930    1.0700 O   0  0  0  0  0  0  0  0  0  0  0  0
   -1.4060   19.2190    0.1760 C   0  0  0  0  0  0  0  0  0  0  0  0
   -1.5330   17.8500    0.7690 C   0  0  0  0  0  0  0  0  0  0  0  0
   -2.5830   19.7220   -0.6000 C   0  0  0  0  0  0  0  0  0  0  0  0
    0.5650   16.3980   -2.3470 C   0  0  1  0  0  0  0  0  0  0  0  0
    0.6250   16.2090   -3.8870 C   0  0  0  0  0  0  0  0  0  0  0  0
    1.0600   14.7430   -4.1420 C   0  0  0  0  0  0  0  0  0  0  0  0
    0.9150   14.0490   -2.7670 C   0  0  1  0  0  0  0  0  0  0  0  0
   -0.6040   13.7100   -2.6480 C   0  0  0  0  0  0  0  0  0  0  0  0
    1.8080   12.7870   -2.5330 C   0  0  2  0  0  0  0  0  0  0  0  0
    1.5340   11.6080   -3.4820 C   0  0  0  0  0  0  0  0  0  0  0  0
    0.5140   10.6280   -3.0030 C   0  0  0  0  0  0  0  0  0  0  0  0
    0.0530   10.5320   -1.7430 C   0  0  0  0  0  0  0  0  0  0  0  0
    0.6360   11.4030   -0.6220 C   0  0  1  0  0  0  0  0  0  0  0  0
    0.9220   10.5230    0.6220 C   0  0  0  0  0  0  0  0  0  0  0  0
   -0.3030    9.7330    1.0750 C   0  0  0  0  0  0  0  0  0  0  0  0
   -0.8180    8.8360   -0.0480 C   0  0  2  0  0  0  0  0  0  0  0  0
    0.1560    7.8210   -0.3110 O   0  0  0  0  0  0  0  0  0  0  0  0
   -1.1320    9.6120   -1.3580 C   0  0  0  0  0  0  0  0  0  0  0  0
   -2.3870   10.4950   -1.1520 C   0  0  0  0  0  0  0  0  0  0  0  0
   -1.5060    8.5740   -2.4500 C   0  0  0  0  0  0  0  0  0  0  0  0
    1.8760   12.3120   -1.0250 C   0  0  1  0  0  0  0  0  0  0  0  0
    3.2000   11.5030   -0.8720 C   0  0  0  0  0  0  0  0  0  0  0  0
    1.9750   13.5210   -0.0210 C   0  0  0  0  0  0  0  0  0  0  0  0
    1.1620   14.7820   -0.3700 C   0  0  0  0  0  0  0  0  0  0  0  0
    1.4040   15.2060   -1.8220 C   0  0  2  0  0  0  0  0  0  0  0  0
    2.9200   15.5740   -1.9670 C   0  0  0  0  0  0  0  0  0  0  0  0
    2.9672   18.6339   -2.1343 H   0  0  0  0  0  0  0  0  0  0  0  0
    2.5038   17.4627   -3.4150 H   0  0  0  0  0  0  0  0  0  0  0  0
    1.8041   19.1172   -3.4150 H   0  0  0  0  0  0  0  0  0  0  0  0
    0.1492   18.4962   -2.0501 H   0  0  0  0  0  0  0  0  0  0  0  0
    0.6567   17.1121    0.1098 H   0  0  0  0  0  0  0  0  0  0  0  0
    2.3941   17.4727   -0.3321 H   0  0  0  0  0  0  0  0  0  0  0  0
    1.3301   19.0542    1.3376 H   0  0  0  0  0  0  0  0  0  0  0  0
    2.0666   19.7971   -0.1430 H   0  0  0  0  0  0  0  0  0  0  0  0
    0.3902   20.3254   -0.9619 H   0  0  0  0  0  0  0  0  0  0  0  0
   -1.5262   17.9237    1.8665 H   0  0  0  0  0  0  0  0  0  0  0  0
   -2.4774   17.3932    0.4381 H   0  0  0  0  0  0  0  0  0  0  0  0
   -0.6888   17.2273    0.4381 H   0  0  0  0  0  0  0  0  0  0  0  0
   -3.3657   20.0565    0.0968 H   0  0  0  0  0  0  0  0  0  0  0  0
   -2.2712   20.5655   -1.2335 H   0  0  0  0  0  0  0  0  0  0  0  0
   -2.9771   18.9137   -1.2335 H   0  0  0  0  0  0  0  0  0  0  0  0
   -0.4458   16.3668   -1.9141 H   0  0  0  0  0  0  0  0  0  0  0  0
   -0.3650   16.3927   -4.3299 H   0  0  0  0  0  0  0  0  0  0  0  0
    1.3331   16.9159   -4.3440 H   0  0  0  0  0  0  0  0  0  0  0  0
    0.4059   14.2678   -4.8879 H   0  0  0  0  0  0  0  0  0  0  0  0
    2.0838   14.6743   -4.5384 H   0  0  0  0  0  0  0  0  0  0  0  0
   -0.8837   13.6476   -1.5860 H   0  0  0  0  0  0  0  0  0  0  0  0
   -1.1950   14.4983   -3.1371 H   0  0  0  0  0  0  0  0  0  0  0  0
   -0.8038   12.7452   -3.1371 H   0  0  0  0  0  0  0  0  0  0  0  0
    2.8102   13.1553   -2.7973 H   0  0  0  0  0  0  0  0  0  0  0  0
    1.1872   12.0178   -4.4421 H   0  0  0  0  0  0  0  0  0  0  0  0
    2.4797   11.0512   -3.5569 H   0  0  0  0  0  0  0  0  0  0  0  0
    0.1049    9.9249   -3.7435 H   0  0  0  0  0  0  0  0  0  0  0  0
   -0.1371   12.1477   -0.3818 H   0  0  0  0  0  0  0  0  0  0  0  0
    1.7267    9.8148    0.3753 H   0  0  0  0  0  0  0  0  0  0  0  0
    1.2102   11.1930    1.4455 H   0  0  0  0  0  0  0  0  0  0  0  0
   -0.0299    9.1085    1.9383 H   0  0  0  0  0  0  0  0  0  0  0  0
   -1.0970   10.4427    1.3504 H   0  0  0  0  0  0  0  0  0  0  0  0
   -1.7679    8.3966    0.2906 H   0  0  0  0  0  0  0  0  0  0  0  0
   -0.2460    7.1780   -0.9180 H   0  0  0  0  0  0  0  0  0  0  0  0
   -2.5714   10.6247   -0.0753 H   0  0  0  0  0  0  0  0  0  0  0  0
   -2.2238   11.4784   -1.6171 H   0  0  0  0  0  0  0  0  0  0  0  0
   -3.2575   10.0093   -1.6171 H   0  0  0  0  0  0  0  0  0  0  0  0
   -1.8416    7.6425   -1.9708 H   0  0  0  0  0  0  0  0  0  0  0  0
   -2.3157    8.9764   -3.0765 H   0  0  0  0  0  0  0  0  0  0  0  0
   -0.6257    8.3675   -3.0765 H   0  0  0  0  0  0  0  0  0  0  0  0
    3.4245   11.3658    0.1961 H   0  0  0  0  0  0  0  0  0  0  0  0
    3.0865   10.5198   -1.3521 H   0  0  0  0  0  0  0  0  0  0  0  0
    4.0231   12.0526   -1.3521 H   0  0  0  0  0  0  0  0  0  0  0  0
    1.6327   13.1659    0.9622 H   0  0  0  0  0  0  0  0  0  0  0  0
    3.0276   13.8385   -0.0557 H   0  0  0  0  0  0  0  0  0  0  0  0
    0.0916   14.5700   -0.2307 H   0  0  0  0  0  0  0  0  0  0  0  0
    1.4820   15.6000    0.2922 H   0  0  0  0  0  0  0  0  0  0  0  0
    3.3681   15.6828   -0.9683 H   0  0  0  0  0  0  0  0  0  0  0  0
    3.4400   14.7760   -2.5173 H   0  0  0  0  0  0  0  0  0  0  0  0
    3.0163   16.5216   -2.5173 H   0  0  0  0  0  0  0  0  0  0  0  0
  1  2  1  0
  2  3  1  0
  3  4  1  0
  4  5  1  0
  5  6  1  0
  6  7  1  0
  7  8  1  0
  7  9  1  0
  2 10  1  0
 10 11  1  0
 11 12  1  0
 12 13  1  0
 13 14  1  1
 13 15  1  0
 15 16  1  0
 16 17  1  0
 17 18  2  0
 18 19  1  0
 19 20  1  0
 20 21  1  0
 21 22  1  0
 22 23  1  0
 22 24  1  0
 24 25  1  0
 24 26  1  0
 19 27  1  0
 27 28  1  6
 27 29  1  0
 29 30  1  0
 30 31  1  0
 31 32  1  1
  7  5  1  0
 31 10  1  0
 31 13  1  0
 27 15  1  0
 24 18  1  0
  1 33  1  0
  1 34  1  0
  1 35  1  0
  2 36  1  1
  3 37  1  0
  3 38  1  0
  4 39  1  0
  4 40  1  0
  5 41  1  6
  8 42  1  0
  8 43  1  0
  8 44  1  0
  9 45  1  0
  9 46  1  0
  9 47  1  0
 10 48  1  1
 11 49  1  0
 11 50  1  0
 12 51  1  0
 12 52  1  0
 14 53  1  0
 14 54  1  0
 14 55  1  0
 15 56  1  6
 16 57  1  0
 16 58  1  0
 17 59  1  0
 19 60  1  1
 20 61  1  0
 20 62  1  0
 21 63  1  0
 21 64  1  0
 22 65  1  1
 23 66  1  0
 25 67  1  0
 25 68  1  0
 25 69  1  0
 26 70  1  0
 26 71  1  0
 26 72  1  0
 28 73  1  0
 28 74  1  0
 28 75  1  0
 29 76  1  0
 29 77  1  0
 30 78  1  0
 30 79  1  0
 32 80  1  0
 32 81  1  0
 32 82  1  0
M  END
>  <meeko>  (5) 
{"is_sidechain": [false], "intermolecular_energy": 2.731, "internal_energy": -0.839}

$$$$
EPH_relaxed_0001_pdb2pqr_Repair_37_r2_0001_out
     RDKit          3D

 82 86  0  0  0  0  0  0  0  0999 V2000
    3.8190   17.5650    0.5080 C   0  0  0  0  0  0  0  0  0  0  0  0
    2.8450   17.8990   -0.6260 C   0  0  2  0  0  0  0  0  0  0  0  0
    2.1990   19.2870   -0.4470 C   0  0  0  0  0  0  0  0  0  0  0  0
    1.2710   19.3820    0.7670 C   0  0  0  0  0  0  0  0  0  0  0  0
   -0.0160   20.0730    0.4290 C   0  0  2  0  0  0  0  0  0  0  0  0
   -0.9360   20.1940    1.5210 O   0  0  0  0  0  0  0  0  0  0  0  0
   -1.3630   19.3750    0.4200 C   0  0  0  0  0  0  0  0  0  0  0  0
   -1.4920   17.9230    0.7550 C   0  0  0  0  0  0  0  0  0  0  0  0
   -2.4750   19.9770   -0.3820 C   0  0  0  0  0  0  0  0  0  0  0  0
    1.7640   16.8290   -0.7140 C   0  0  1  0  0  0  0  0  0  0  0  0
    0.4790   17.3340   -1.4230 C   0  0  0  0  0  0  0  0  0  0  0  0
   -0.0960   16.1330   -2.2170 C   0  0  0  0  0  0  0  0  0  0  0  0
    0.6760   14.9050   -1.6800 C   0  0  1  0  0  0  0  0  0  0  0  0
   -0.0430   14.5310   -0.3460 C   0  0  0  0  0  0  0  0  0  0  0  0
    0.7800   13.6780   -2.6440 C   0  0  2  0  0  0  0  0  0  0  0  0
   -0.5630   13.0300   -3.0230 C   0  0  0  0  0  0  0  0  0  0  0  0
   -1.0160   11.9290   -2.1230 C   0  0  0  0  0  0  0  0  0  0  0  0
   -0.2460   11.2850   -1.2260 C   0  0  0  0  0  0  0  0  0  0  0  0
    1.2550   11.5840   -1.1170 C   0  0  1  0  0  0  0  0  0  0  0  0
    2.0450   10.2510   -1.0550 C   0  0  0  0  0  0  0  0  0  0  0  0
    1.5520    9.3290    0.0560 C   0  0  0  0  0  0  0  0  0  0  0  0
    0.0700    9.0080   -0.1190 C   0  0  2  0  0  0  0  0  0  0  0  0
   -0.0950    8.2220   -1.3040 O   0  0  0  0  0  0  0  0  0  0  0  0
   -0.8260   10.2760   -0.2040 C   0  0  0  0  0  0  0  0  0  0  0  0
   -0.8840   10.9650    1.1810 C   0  0  0  0  0  0  0  0  0  0  0  0
   -2.2740    9.8160   -0.5220 C   0  0  0  0  0  0  0  0  0  0  0  0
    1.8410   12.5920   -2.1980 C   0  0  1  0  0  0  0  0  0  0  0  0
    2.2490   11.8130   -3.4850 C   0  0  0  0  0  0  0  0  0  0  0  0
    3.1600   13.2390   -1.6340 C   0  0  0  0  0  0  0  0  0  0  0  0
    3.0010   14.5170   -0.7880 C   0  0  0  0  0  0  0  0  0  0  0  0
    2.1040   15.5360   -1.4980 C   0  0  2  0  0  0  0  0  0  0  0  0
    2.8130   15.9490   -2.8330 C   0  0  0  0  0  0  0  0  0  0  0  0
    3.3259   17.7341    1.4766 H   0  0  0  0  0  0  0  0  0  0  0  0
    4.1240   16.5109    0.4309 H   0  0  0  0  0  0  0  0  0  0  0  0
    4.7066   18.2101    0.4309 H   0  0  0  0  0  0  0  0  0  0  0  0
    3.4224   17.9223   -1.5620 H   0  0  0  0  0  0  0  0  0  0  0  0
    3.0009   20.0308   -0.3302 H   0  0  0  0  0  0  0  0  0  0  0  0
    1.5818   19.4717   -1.3386 H   0  0  0  0  0  0  0  0  0  0  0  0
    1.0469   18.3662    1.1247 H   0  0  0  0  0  0  0  0  0  0  0  0
    1.7819   19.9699    1.5438 H   0  0  0  0  0  0  0  0  0  0  0  0
    0.4920   20.7059   -0.3136 H   0  0  0  0  0  0  0  0  0  0  0  0
   -1.5031   17.7984    1.8479 H   0  0  0  0  0  0  0  0  0  0  0  0
   -2.4285   17.5308    0.3318 H   0  0  0  0  0  0  0  0  0  0  0  0
   -0.6393   17.3719    0.3318 H   0  0  0  0  0  0  0  0  0  0  0  0
   -3.2358   20.3889    0.2974 H   0  0  0  0  0  0  0  0  0  0  0  0
   -2.0755   20.7820   -1.0163 H   0  0  0  0  0  0  0  0  0  0  0  0
   -2.9306   19.2024   -1.0163 H   0  0  0  0  0  0  0  0  0  0  0  0
    1.6447   16.6004    0.3554 H   0  0  0  0  0  0  0  0  0  0  0  0
   -0.2527   17.6810   -0.6786 H   0  0  0  0  0  0  0  0  0  0  0  0
    0.7030   18.1782   -2.0916 H   0  0  0  0  0  0  0  0  0  0  0  0
   -1.1748   16.0253   -2.0311 H   0  0  0  0  0  0  0  0  0  0  0  0
    0.0210   16.2569   -3.3037 H   0  0  0  0  0  0  0  0  0  0  0  0
    0.5744   14.8522    0.5058 H   0  0  0  0  0  0  0  0  0  0  0  0
   -1.0195   15.0354   -0.3019 H   0  0  0  0  0  0  0  0  0  0  0  0
   -0.1906   13.4418   -0.3019 H   0  0  0  0  0  0  0  0  0  0  0  0
    1.1614   14.1359   -3.5686 H   0  0  0  0  0  0  0  0  0  0  0  0
   -1.3336   13.8149   -3.0143 H   0  0  0  0  0  0  0  0  0  0  0  0
   -0.4117   12.5721   -4.0117 H   0  0  0  0  0  0  0  0  0  0  0  0
   -2.0682   11.6173   -2.1991 H   0  0  0  0  0  0  0  0  0  0  0  0
    1.3876   12.1399   -0.1771 H   0  0  0  0  0  0  0  0  0  0  0  0
    1.9360    9.7315   -2.0185 H   0  0  0  0  0  0  0  0  0  0  0  0
    3.0963   10.4959   -0.8433 H   0  0  0  0  0  0  0  0  0  0  0  0
    2.1288    8.3927    0.0293 H   0  0  0  0  0  0  0  0  0  0  0  0
    1.6894    9.8379    1.0215 H   0  0  0  0  0  0  0  0  0  0  0  0
   -0.2549    8.4537    0.7738 H   0  0  0  0  0  0  0  0  0  0  0  0
   -1.0440    8.2020   -1.5140 H   0  0  0  0  0  0  0  0  0  0  0  0
   -0.8199   10.2036    1.9723 H   0  0  0  0  0  0  0  0  0  0  0  0
   -0.0417   11.6658    1.2774 H   0  0  0  0  0  0  0  0  0  0  0  0
   -1.8316   11.5152    1.2774 H   0  0  0  0  0  0  0  0  0  0  0  0
   -2.8185    9.6430    0.4180 H   0  0  0  0  0  0  0  0  0  0  0  0
   -2.7867   10.5955   -1.1047 H   0  0  0  0  0  0  0  0  0  0  0  0
   -2.2429    8.8835   -1.1047 H   0  0  0  0  0  0  0  0  0  0  0  0
    2.7423   10.8712   -3.2027 H   0  0  0  0  0  0  0  0  0  0  0  0
    1.3507   11.5923   -4.0803 H   0  0  0  0  0  0  0  0  0  0  0  0
    2.9420   12.4257   -4.0803 H   0  0  0  0  0  0  0  0  0  0  0  0
    3.6587   12.4851   -1.0072 H   0  0  0  0  0  0  0  0  0  0  0  0
    3.7297   13.5509   -2.5218 H   0  0  0  0  0  0  0  0  0  0  0  0
    2.5503   14.2539    0.1803 H   0  0  0  0  0  0  0  0  0  0  0  0
    3.9942   14.9663   -0.6408 H   0  0  0  0  0  0  0  0  0  0  0  0
    3.7424   16.4904   -2.6023 H   0  0  0  0  0  0  0  0  0  0  0  0
    3.0492   15.0472   -3.4169 H   0  0  0  0  0  0  0  0  0  0  0  0
    2.1451   16.5994   -3.4169 H   0  0  0  0  0  0  0  0  0  0  0  0
  1  2  1  0
  2  3  1  0
  3  4  1  0
  4  5  1  0
  5  6  1  0
  6  7  1  0
  7  8  1  0
  7  9  1  0
  2 10  1  0
 10 11  1  0
 11 12  1  0
 12 13  1  0
 13 14  1  1
 13 15  1  0
 15 16  1  0
 16 17  1  0
 17 18  2  0
 18 19  1  0
 19 20  1  0
 20 21  1  0
 21 22  1  0
 22 23  1  0
 22 24  1  0
 24 25  1  0
 24 26  1  0
 19 27  1  0
 27 28  1  6
 27 29  1  0
 29 30  1  0
 30 31  1  0
 31 32  1  6
  7  5  1  0
 31 10  1  0
 31 13  1  0
 27 15  1  0
 24 18  1  0
  1 33  1  0
  1 34  1  0
  1 35  1  0
  2 36  1  6
  3 37  1  0
  3 38  1  0
  4 39  1  0
  4 40  1  0
  5 41  1  6
  8 42  1  0
  8 43  1  0
  8 44  1  0
  9 45  1  0
  9 46  1  0
  9 47  1  0
 10 48  1  1
 11 49  1  0
 11 50  1  0
 12 51  1  0
 12 52  1  0
 14 53  1  0
 14 54  1  0
 14 55  1  0
 15 56  1  6
 16 57  1  0
 16 58  1  0
 17 59  1  0
 19 60  1  1
 20 61  1  0
 20 62  1  0
 21 63  1  0
 21 64  1  0
 22 65  1  1
 23 66  1  0
 25 67  1  0
 25 68  1  0
 25 69  1  0
 26 70  1  0
 26 71  1  0
 26 72  1  0
 28 73  1  0
 28 74  1  0
 28 75  1  0
 29 76  1  0
 29 77  1  0
 30 78  1  0
 30 79  1  0
 32 80  1  0
 32 81  1  0
 32 82  1  0
M  END
>  <meeko>  (6) 
{"is_sidechain": [false], "intermolecular_energy": 2.731, "internal_energy": -0.839}

$$$$
EPH_relaxed_0001_pdb2pqr_Repair_37_r2_0001_out
     RDKit          3D

 82 86  0  0  0  0  0  0  0  0999 V2000
    3.7800   17.3790    0.9750 C   0  0  0  0  0  0  0  0  0  0  0  0
    3.6240   16.5350   -0.2930 C   0  0  2  0  0  0  0  0  0  0  0  0
    3.5440   17.4040   -1.5640 C   0  0  0  0  0  0  0  0  0  0  0  0
    2.9560   18.7970   -1.3200 C   0  0  0  0  0  0  0  0  0  0  0  0
    1.5180   18.8720   -1.7350 C   0  0  2  0  0  0  0  0  0  0  0  0
    1.0490   20.1930   -2.0360 O   0  0  0  0  0  0  0  0  0  0  0  0
    0.4420   19.5470   -0.9050 C   0  0  0  0  0  0  0  0  0  0  0  0
    0.7580   20.1920    0.4070 C   0  0  0  0  0  0  0  0  0  0  0  0
   -0.9860   19.1560   -1.1300 C   0  0  0  0  0  0  0  0  0  0  0  0
    2.3830   15.6570   -0.1830 C   0  0  1  0  0  0  0  0  0  0  0  0
    1.0760   16.4830   -0.0510 C   0  0  0  0  0  0  0  0  0  0  0  0
   -0.0280   15.6970   -0.8040 C   0  0  0  0  0  0  0  0  0  0  0  0
    0.5890   14.3010   -1.0550 C   0  0  1  0  0  0  0  0  0  0  0  0
    0.3980   13.5300    0.2880 C   0  0  0  0  0  0  0  0  0  0  0  0
    0.0130   13.5000   -2.2680 C   0  0  2  0  0  0  0  0  0  0  0  0
   -1.4790   13.1400   -2.1630 C   0  0  0  0  0  0  0  0  0  0  0  0
   -1.7750   11.8280   -1.5150 C   0  0  0  0  0  0  0  0  0  0  0  0
   -0.8810   10.8460   -1.2940 C   0  0  0  0  0  0  0  0  0  0  0  0
    0.5630   10.9660   -1.7990 C   0  0  1  0  0  0  0  0  0  0  0  0
    0.9820    9.6420   -2.4900 C   0  0  0  0  0  0  0  0  0  0  0  0
    0.7770    8.4240   -1.5940 C   0  0  0  0  0  0  0  0  0  0  0  0
   -0.6820    8.3060   -1.1600 C   0  0  2  0  0  0  0  0  0  0  0  0
   -1.4830    8.0140   -2.3100 O   0  0  0  0  0  0  0  0  0  0  0  0
   -1.2190    9.5850   -0.4600 C   0  0  0  0  0  0  0  0  0  0  0  0
   -0.5570    9.7330    0.9330 C   0  0  0  0  0  0  0  0  0  0  0  0
   -2.7370    9.3870   -0.2010 C   0  0  0  0  0  0  0  0  0  0  0  0
    0.8820   12.2450   -2.6870 C   0  0  1  0  0  0  0  0  0  0  0  0
    0.5490   11.9520   -4.1820 C   0  0  0  0  0  0  0  0  0  0  0  0
    2.4270   12.5400   -2.6260 C   0  0  0  0  0  0  0  0  0  0  0  0
    2.9180   13.4370   -1.4730 C   0  0  0  0  0  0  0  0  0  0  0  0
    2.0740   14.7100   -1.3710 C   0  0  2  0  0  0  0  0  0  0  0  0
    2.2630   15.5180   -2.7000 C   0  0  0  0  0  0  0  0  0  0  0  0
    3.6613   16.7366    1.8600 H   0  0  0  0  0  0  0  0  0  0  0  0
    4.7786   17.8401    0.9880 H   0  0  0  0  0  0  0  0  0  0  0  0
    3.0122   18.1666    0.9880 H   0  0  0  0  0  0  0  0  0  0  0  0
    4.5201   15.9032   -0.3820 H   0  0  0  0  0  0  0  0  0  0  0  0
    4.5599   17.5217   -1.9690 H   0  0  0  0  0  0  0  0  0  0  0  0
    2.8707   16.8885   -2.2646 H   0  0  0  0  0  0  0  0  0  0  0  0
    3.0305   19.0326   -0.2481 H   0  0  0  0  0  0  0  0  0  0  0  0
    3.5251   19.5199   -1.9230 H   0  0  0  0  0  0  0  0  0  0  0  0
    1.5760   17.8765   -2.1994 H   0  0  0  0  0  0  0  0  0  0  0  0
    0.4352   19.5332    1.2266 H   0  0  0  0  0  0  0  0  0  0  0  0
    1.8421   20.3634    0.4796 H   0  0  0  0  0  0  0  0  0  0  0  0
    0.2290   21.1537    0.4796 H   0  0  0  0  0  0  0  0  0  0  0  0
   -1.4859   19.0191   -0.1598 H   0  0  0  0  0  0  0  0  0  0  0  0
   -1.4977   19.9471   -1.6977 H   0  0  0  0  0  0  0  0  0  0  0  0
   -1.0233   18.2146   -1.6977 H   0  0  0  0  0  0  0  0  0  0  0  0
    2.6516   15.0692    0.7071 H   0  0  0  0  0  0  0  0  0  0  0  0
    0.8046   16.5958    1.0090 H   0  0  0  0  0  0  0  0  0  0  0  0
    1.2014   17.4908   -0.4737 H   0  0  0  0  0  0  0  0  0  0  0  0
   -0.9355   15.6153   -0.1877 H   0  0  0  0  0  0  0  0  0  0  0  0
   -0.3302   16.1935   -1.7379 H   0  0  0  0  0  0  0  0  0  0  0  0
    0.5678   14.2153    1.1315 H   0  0  0  0  0  0  0  0  0  0  0  0
   -0.6260   13.1316    0.3396 H   0  0  0  0  0  0  0  0  0  0  0  0
    1.1176   12.6996    0.3396 H   0  0  0  0  0  0  0  0  0  0  0  0
    0.0873   14.2288   -3.0886 H   0  0  0  0  0  0  0  0  0  0  0  0
   -1.9783   13.9275   -1.5794 H   0  0  0  0  0  0  0  0  0  0  0  0
   -1.8454   13.0580   -3.1969 H   0  0  0  0  0  0  0  0  0  0  0  0
   -2.8107   11.6486   -1.1908 H   0  0  0  0  0  0  0  0  0  0  0  0
    1.1843   11.1339   -0.9070 H   0  0  0  0  0  0  0  0  0  0  0  0
    0.3801    9.5143   -3.4018 H   0  0  0  0  0  0  0  0  0  0  0  0
    2.0555    9.7105   -2.7198 H   0  0  0  0  0  0  0  0  0  0  0  0
    1.0624    7.5174   -2.1478 H   0  0  0  0  0  0  0  0  0  0  0  0
    1.4024    8.5389   -0.6964 H   0  0  0  0  0  0  0  0  0  0  0  0
   -0.7408    7.4955   -0.4186 H   0  0  0  0  0  0  0  0  0  0  0  0
   -1.2400    8.6480   -3.0060 H   0  0  0  0  0  0  0  0  0  0  0  0
   -1.3103    9.5646    1.7167 H   0  0  0  0  0  0  0  0  0  0  0  0
    0.2506    8.9932    1.0356 H   0  0  0  0  0  0  0  0  0  0  0  0
   -0.1413   10.7462    1.0356 H   0  0  0  0  0  0  0  0  0  0  0  0
   -2.9239    9.3626    0.8827 H   0  0  0  0  0  0  0  0  0  0  0  0
   -3.2974   10.2197   -0.6511 H   0  0  0  0  0  0  0  0  0  0  0  0
   -3.0651    8.4385   -0.6511 H   0  0  0  0  0  0  0  0  0  0  0  0
   -0.2757   11.2263   -4.2385 H   0  0  0  0  0  0  0  0  0  0  0  0
    0.2506   12.8858   -4.6810 H   0  0  0  0  0  0  0  0  0  0  0  0
    1.4372   11.5372   -4.6810 H   0  0  0  0  0  0  0  0  0  0  0  0
    2.9471   11.5744   -2.5411 H   0  0  0  0  0  0  0  0  0  0  0  0
    2.6489   13.1039   -3.5440 H   0  0  0  0  0  0  0  0  0  0  0  0
    2.8445   12.8799   -0.5274 H   0  0  0  0  0  0  0  0  0  0  0  0
    3.9614   13.7232   -1.6714 H   0  0  0  0  0  0  0  0  0  0  0  0
    2.5076   16.5637   -2.4617 H   0  0  0  0  0  0  0  0  0  0  0  0
    3.0816   15.0742   -3.2857 H   0  0  0  0  0  0  0  0  0  0  0  0
    1.3325   15.4834   -3.2857 H   0  0  0  0  0  0  0  0  0  0  0  0
  1  2  1  0
  2  3  1  0
  3  4  1  0
  4  5  1  0
  5  6  1  0
  6  7  1  0
  7  8  1  0
  7  9  1  0
  2 10  1  0
 10 11  1  0
 11 12  1  0
 12 13  1  0
 13 14  1  1
 13 15  1  0
 15 16  1  0
 16 17  1  0
 17 18  2  0
 18 19  1  0
 19 20  1  0
 20 21  1  0
 21 22  1  0
 22 23  1  0
 22 24  1  0
 24 25  1  0
 24 26  1  0
 19 27  1  0
 27 28  1  6
 27 29  1  0
 29 30  1  0
 30 31  1  0
 31 32  1  6
  7  5  1  0
 31 10  1  0
 31 13  1  0
 27 15  1  0
 24 18  1  0
  1 33  1  0
  1 34  1  0
  1 35  1  0
  2 36  1  6
  3 37  1  0
  3 38  1  0
  4 39  1  0
  4 40  1  0
  5 41  1  6
  8 42  1  0
  8 43  1  0
  8 44  1  0
  9 45  1  0
  9 46  1  0
  9 47  1  0
 10 48  1  1
 11 49  1  0
 11 50  1  0
 12 51  1  0
 12 52  1  0
 14 53  1  0
 14 54  1  0
 14 55  1  0
 15 56  1  6
 16 57  1  0
 16 58  1  0
 17 59  1  0
 19 60  1  1
 20 61  1  0
 20 62  1  0
 21 63  1  0
 21 64  1  0
 22 65  1  1
 23 66  1  0
 25 67  1  0
 25 68  1  0
 25 69  1  0
 26 70  1  0
 26 71  1  0
 26 72  1  0
 28 73  1  0
 28 74  1  0
 28 75  1  0
 29 76  1  0
 29 77  1  0
 30 78  1  0
 30 79  1  0
 32 80  1  0
 32 81  1  0
 32 82  1  0
M  END
>  <meeko>  (7) 
{"is_sidechain": [false], "intermolecular_energy": 2.731, "internal_energy": -0.839}

$$$$
EPH_relaxed_0001_pdb2pqr_Repair_37_r2_0001_out
     RDKit          3D

 82 86  0  0  0  0  0  0  0  0999 V2000
    0.4590    8.7940   -2.3630 C   0  0  0  0  0  0  0  0  0  0  0  0
    1.2000    9.9370   -3.0620 C   0  0  2  0  0  0  0  0  0  0  0  0
    2.7000    9.9590   -2.7050 C   0  0  0  0  0  0  0  0  0  0  0  0
    3.5820   10.5820   -3.7910 C   0  0  0  0  0  0  0  0  0  0  0  0
    4.9800   10.8140   -3.3040 C   0  0  2  0  0  0  0  0  0  0  0  0
    5.5830   12.0280   -3.7700 O   0  0  0  0  0  0  0  0  0  0  0  0
    6.1950   10.8060   -4.2140 C   0  0  0  0  0  0  0  0  0  0  0  0
    6.0670   10.5610   -5.6850 C   0  0  0  0  0  0  0  0  0  0  0  0
    7.5400   10.5520   -3.6090 C   0  0  0  0  0  0  0  0  0  0  0  0
    0.5580   11.2710   -2.7000 C   0  0  1  0  0  0  0  0  0  0  0  0
   -0.8210   11.1020   -2.0080 C   0  0  0  0  0  0  0  0  0  0  0  0
   -0.9410   12.2440   -0.9660 C   0  0  0  0  0  0  0  0  0  0  0  0
    0.2080   13.2160   -1.3190 C   0  0  1  0  0  0  0  0  0  0  0  0
   -0.3390   14.0710   -2.5050 C   0  0  0  0  0  0  0  0  0  0  0  0
    0.7340   14.1170   -0.1530 C   0  0  2  0  0  0  0  0  0  0  0  0
   -0.3000   15.0930    0.4340 C   0  0  0  0  0  0  0  0  0  0  0  0
   -0.3440   16.4390   -0.2110 C   0  0  0  0  0  0  0  0  0  0  0  0
    0.6000   16.9470   -1.0250 C   0  0  0  0  0  0  0  0  0  0  0  0
    1.9030   16.1840   -1.2940 C   0  0  1  0  0  0  0  0  0  0  0  0
    3.1080   17.1530   -1.1620 C   0  0  0  0  0  0  0  0  0  0  0  0
    2.9630   18.3890   -2.0450 C   0  0  0  0  0  0  0  0  0  0  0  0
    1.6850   19.1530   -1.7080 C   0  0  2  0  0  0  0  0  0  0  0  0
    1.8060   19.6950   -0.3900 O   0  0  0  0  0  0  0  0  0  0  0  0
    0.4050   18.2760   -1.7970 C   0  0  0  0  0  0  0  0  0  0  0  0
    0.1080   17.9370   -3.2790 C   0  0  0  0  0  0  0  0  0  0  0  0
   -0.7930   19.1270   -1.2980 C   0  0  0  0  0  0  0  0  0  0  0  0
    2.1050   14.8440   -0.4640 C   0  0  1  0  0  0  0  0  0  0  0  0
    2.7600   15.1640    0.9140 C   0  0  0  0  0  0  0  0  0  0  0  0
    3.1160   13.9120   -1.2300 C   0  0  0  0  0  0  0  0  0  0  0  0
    2.5210   12.9600   -2.2850 C   0  0  0  0  0  0  0  0  0  0  0  0
    1.3280   12.1860   -1.7150 C   0  0  2  0  0  0  0  0  0  0  0  0
    1.8520   11.3010   -0.5340 C   0  0  0  0  0  0  0  0  0  0  0  0
    0.5391    8.9176   -1.2729 H   0  0  0  0  0  0  0  0  0  0  0  0
   -0.6009    8.8102   -2.6569 H   0  0  0  0  0  0  0  0  0  0  0  0
    0.9064    7.8330   -2.6569 H   0  0  0  0  0  0  0  0  0  0  0  0
    1.1209    9.7695   -4.1463 H   0  0  0  0  0  0  0  0  0  0  0  0
    2.8281   10.5384   -1.7788 H   0  0  0  0  0  0  0  0  0  0  0  0
    3.0192    8.9123   -2.5927 H   0  0  0  0  0  0  0  0  0  0  0  0
    3.6140    9.9041   -4.6567 H   0  0  0  0  0  0  0  0  0  0  0  0
    3.1494   11.5547   -4.0679 H   0  0  0  0  0  0  0  0  0  0  0  0
    4.7621   10.2946   -2.3591 H   0  0  0  0  0  0  0  0  0  0  0  0
    5.5637    9.5976   -5.8538 H   0  0  0  0  0  0  0  0  0  0  0  0
    5.4756   11.3686   -6.1411 H   0  0  0  0  0  0  0  0  0  0  0  0
    7.0677   10.5368   -6.1411 H   0  0  0  0  0  0  0  0  0  0  0  0
    7.4576   10.5676   -2.5122 H   0  0  0  0  0  0  0  0  0  0  0  0
    7.9089    9.5683   -3.9350 H   0  0  0  0  0  0  0  0  0  0  0  0
    8.2422   11.3334   -3.9350 H   0  0  0  0  0  0  0  0  0  0  0  0
    0.5229   11.7356   -3.6964 H   0  0  0  0  0  0  0  0  0  0  0  0
   -1.6293   11.1797   -2.7500 H   0  0  0  0  0  0  0  0  0  0  0  0
   -0.9030   10.1168   -1.5257 H   0  0  0  0  0  0  0  0  0  0  0  0
   -1.9154   12.7471   -1.0517 H   0  0  0  0  0  0  0  0  0  0  0  0
   -0.8721   11.8745    0.0678 H   0  0  0  0  0  0  0  0  0  0  0  0
   -0.8921   14.9355   -2.1092 H   0  0  0  0  0  0  0  0  0  0  0  0
    0.5014   14.4240   -3.1207 H   0  0  0  0  0  0  0  0  0  0  0  0
   -1.0117   13.4559   -3.1207 H   0  0  0  0  0  0  0  0  0  0  0  0
    0.9354   13.3828    0.6410 H   0  0  0  0  0  0  0  0  0  0  0  0
   -1.2951   14.6351    0.3334 H   0  0  0  0  0  0  0  0  0  0  0  0
    0.0020   15.2652    1.4776 H   0  0  0  0  0  0  0  0  0  0  0  0
   -1.2219   17.0685   -0.0034 H   0  0  0  0  0  0  0  0  0  0  0  0
    1.8316   15.8159   -2.3281 H   0  0  0  0  0  0  0  0  0  0  0  0
    3.1879   17.4759   -0.1135 H   0  0  0  0  0  0  0  0  0  0  0  0
    4.0088   16.6127   -1.4884 H   0  0  0  0  0  0  0  0  0  0  0  0
    3.8291   19.0484   -1.8865 H   0  0  0  0  0  0  0  0  0  0  0  0
    2.9127   18.0663   -3.0954 H   0  0  0  0  0  0  0  0  0  0  0  0
    1.5708   19.9508   -2.4566 H   0  0  0  0  0  0  0  0  0  0  0  0
    1.0930   20.3460   -0.2730 H   0  0  0  0  0  0  0  0  0  0  0  0
   -0.6162   17.1104   -3.3280 H   0  0  0  0  0  0  0  0  0  0  0  0
   -0.3109   18.8218   -3.7807 H   0  0  0  0  0  0  0  0  0  0  0  0
    1.0402   17.6381   -3.7807 H   0  0  0  0  0  0  0  0  0  0  0  0
   -0.8042   19.1349   -0.1981 H   0  0  0  0  0  0  0  0  0  0  0  0
   -0.6919   20.1568   -1.6711 H   0  0  0  0  0  0  0  0  0  0  0  0
   -1.7321   18.6924   -1.6711 H   0  0  0  0  0  0  0  0  0  0  0  0
    2.0904   14.8369    1.7231 H   0  0  0  0  0  0  0  0  0  0  0  0
    3.7201   14.6335    0.9956 H   0  0  0  0  0  0  0  0  0  0  0  0
    2.9316   16.2475    0.9956 H   0  0  0  0  0  0  0  0  0  0  0  0
    3.8449   14.5595   -1.7395 H   0  0  0  0  0  0  0  0  0  0  0  0
    3.5432   13.2551   -0.4580 H   0  0  0  0  0  0  0  0  0  0  0  0
    2.1870   13.5480   -3.1526 H   0  0  0  0  0  0  0  0  0  0  0  0
    3.2963   12.2391   -2.5836 H   0  0  0  0  0  0  0  0  0  0  0  0
    1.5762   11.7668    0.4236 H   0  0  0  0  0  0  0  0  0  0  0  0
    1.4011   10.2997   -0.5980 H   0  0  0  0  0  0  0  0  0  0  0  0
    2.9468   11.2149   -0.5980 H   0  0  0  0  0  0  0  0  0  0  0  0
  1  2  1  0
  2  3  1  0
  3  4  1  0
  4  5  1  0
  5  6  1  0
  6  7  1  0
  7  8  1  0
  7  9  1  0
  2 10  1  0
 10 11  1  0
 11 12  1  0
 12 13  1  0
 13 14  1  6
 13 15  1  0
 15 16  1  0
 16 17  1  0
 17 18  2  0
 18 19  1  0
 19 20  1  0
 20 21  1  0
 21 22  1  0
 22 23  1  0
 22 24  1  0
 24 25  1  0
 24 26  1  0
 19 27  1  0
 27 28  1  1
 27 29  1  0
 29 30  1  0
 30 31  1  0
 31 32  1  1
  7  5  1  0
 31 10  1  0
 31 13  1  0
 27 15  1  0
 24 18  1  0
  1 33  1  0
  1 34  1  0
  1 35  1  0
  2 36  1  6
  3 37  1  0
  3 38  1  0
  4 39  1  0
  4 40  1  0
  5 41  1  1
  8 42  1  0
  8 43  1  0
  8 44  1  0
  9 45  1  0
  9 46  1  0
  9 47  1  0
 10 48  1  6
 11 49  1  0
 11 50  1  0
 12 51  1  0
 12 52  1  0
 14 53  1  0
 14 54  1  0
 14 55  1  0
 15 56  1  1
 16 57  1  0
 16 58  1  0
 17 59  1  0
 19 60  1  6
 20 61  1  0
 20 62  1  0
 21 63  1  0
 21 64  1  0
 22 65  1  6
 23 66  1  0
 25 67  1  0
 25 68  1  0
 25 69  1  0
 26 70  1  0
 26 71  1  0
 26 72  1  0
 28 73  1  0
 28 74  1  0
 28 75  1  0
 29 76  1  0
 29 77  1  0
 30 78  1  0
 30 79  1  0
 32 80  1  0
 32 81  1  0
 32 82  1  0
M  END
>  <meeko>  (8) 
{"is_sidechain": [false], "intermolecular_energy": 2.731, "internal_energy": -0.839}

$$$$
EPH_relaxed_0001_pdb2pqr_Repair_37_r2_0001_out
     RDKit          3D

 82 86  0  0  0  0  0  0  0  0999 V2000
    2.3790   19.2120   -1.0240 C   0  0  0  0  0  0  0  0  0  0  0  0
    2.2300   18.2080   -2.1710 C   0  0  2  0  0  0  0  0  0  0  0  0
    0.8160   18.2340   -2.7850 C   0  0  0  0  0  0  0  0  0  0  0  0
   -0.0040   19.4650   -2.3900 C   0  0  0  0  0  0  0  0  0  0  0  0
   -1.2550   19.0860   -1.6570 C   0  0  2  0  0  0  0  0  0  0  0  0
   -2.0830   20.1920   -1.2740 O   0  0  0  0  0  0  0  0  0  0  0  0
   -1.5070   19.4290   -0.2000 C   0  0  0  0  0  0  0  0  0  0  0  0
   -0.5000   20.1830    0.6090 C   0  0  0  0  0  0  0  0  0  0  0  0
   -2.5050   18.6160    0.5640 C   0  0  0  0  0  0  0  0  0  0  0  0
    2.5580   16.8040   -1.6780 C   0  0  1  0  0  0  0  0  0  0  0  0
    3.4090   16.8100   -0.3800 C   0  0  0  0  0  0  0  0  0  0  0  0
    2.9520   15.5890    0.4600 C   0  0  0  0  0  0  0  0  0  0  0  0
    2.1020   14.7410   -0.5150 C   0  0  1  0  0  0  0  0  0  0  0  0
    3.1400   13.9340   -1.3550 C   0  0  0  0  0  0  0  0  0  0  0  0
    1.0330   13.8050    0.1370 C   0  0  2  0  0  0  0  0  0  0  0  0
    1.5990   12.7070    1.0550 C   0  0  0  0  0  0  0  0  0  0  0  0
    1.9140   11.4130    0.3810 C   0  0  0  0  0  0  0  0  0  0  0  0
    1.4890   11.0430   -0.8410 C   0  0  0  0  0  0  0  0  0  0  0  0
    0.5220   11.9270   -1.6400 C   0  0  1  0  0  0  0  0  0  0  0  0
   -0.6180   11.0520   -2.2230 C   0  0  0  0  0  0  0  0  0  0  0  0
   -0.0930    9.8760   -3.0410 C   0  0  0  0  0  0  0  0  0  0  0  0
    0.8170    8.9880   -2.1960 C   0  0  2  0  0  0  0  0  0  0  0  0
    0.0330    8.3630   -1.1750 O   0  0  0  0  0  0  0  0  0  0  0  0
    1.9990    9.7630   -1.5480 C   0  0  0  0  0  0  0  0  0  0  0  0
    3.0100   10.1820   -2.6430 C   0  0  0  0  0  0  0  0  0  0  0  0
    2.7550    8.7830   -0.6110 C   0  0  0  0  0  0  0  0  0  0  0  0
   -0.0220   13.2160   -0.8850 C   0  0  1  0  0  0  0  0  0  0  0  0
   -1.2900   12.8500   -0.0550 C   0  0  0  0  0  0  0  0  0  0  0  0
   -0.4810   14.2800   -1.9510 C   0  0  0  0  0  0  0  0  0  0  0  0
    0.5950   15.2540   -2.4680 C   0  0  0  0  0  0  0  0  0  0  0  0
    1.3680   15.8850   -1.3050 C   0  0  2  0  0  0  0  0  0  0  0  0
    0.3530   16.7220   -0.4550 C   0  0  0  0  0  0  0  0  0  0  0  0
    2.3007   18.6841   -0.0621 H   0  0  0  0  0  0  0  0  0  0  0  0
    3.3601   19.7046   -1.0930 H   0  0  0  0  0  0  0  0  0  0  0  0
    1.5833   19.9683   -1.0930 H   0  0  0  0  0  0  0  0  0  0  0  0
    2.9381   18.4997   -2.9606 H   0  0  0  0  0  0  0  0  0  0  0  0
    0.9128   18.2182   -3.8806 H   0  0  0  0  0  0  0  0  0  0  0  0
    0.2813   17.3540   -2.3981 H   0  0  0  0  0  0  0  0  0  0  0  0
    0.6085   20.1080   -1.7409 H   0  0  0  0  0  0  0  0  0  0  0  0
   -0.2927   19.9943   -3.3101 H   0  0  0  0  0  0  0  0  0  0  0  0
   -1.3240   18.1405   -2.2150 H   0  0  0  0  0  0  0  0  0  0  0  0
   -0.7022   20.0316    1.6796 H   0  0  0  0  0  0  0  0  0  0  0  0
    0.5097   19.8170    0.3712 H   0  0  0  0  0  0  0  0  0  0  0  0
   -0.5669   21.2549    0.3712 H   0  0  0  0  0  0  0  0  0  0  0  0
   -2.3391   18.7512    1.6430 H   0  0  0  0  0  0  0  0  0  0  0  0
   -3.5219   18.9460    0.3052 H   0  0  0  0  0  0  0  0  0  0  0  0
   -2.3874   17.5534    0.3052 H   0  0  0  0  0  0  0  0  0  0  0  0
    3.0719   16.4118   -2.5680 H   0  0  0  0  0  0  0  0  0  0  0  0
    4.4773   16.7215   -0.6270 H   0  0  0  0  0  0  0  0  0  0  0  0
    3.2711   17.7476    0.1785 H   0  0  0  0  0  0  0  0  0  0  0  0
    3.8206   15.0162    0.8170 H   0  0  0  0  0  0  0  0  0  0  0  0
    2.3869   15.8867    1.3556 H   0  0  0  0  0  0  0  0  0  0  0  0
    3.8247   13.4016   -0.6784 H   0  0  0  0  0  0  0  0  0  0  0  0
    2.6123   13.2066   -1.9894 H   0  0  0  0  0  0  0  0  0  0  0  0
    3.7148   14.6248   -1.9894 H   0  0  0  0  0  0  0  0  0  0  0  0
    0.4876   14.4949    0.7978 H   0  0  0  0  0  0  0  0  0  0  0  0
    2.5254   13.0880    1.5095 H   0  0  0  0  0  0  0  0  0  0  0  0
    0.8086   12.4846    1.7870 H   0  0  0  0  0  0  0  0  0  0  0  0
    2.5477   10.7010    0.9301 H   0  0  0  0  0  0  0  0  0  0  0  0
    1.1131   12.3625   -2.4591 H   0  0  0  0  0  0  0  0  0  0  0  0
   -1.2228   10.6611   -1.3915 H   0  0  0  0  0  0  0  0  0  0  0  0
   -1.2151   11.6860   -2.8950 H   0  0  0  0  0  0  0  0  0  0  0  0
   -0.9441    9.2797   -3.4018 H   0  0  0  0  0  0  0  0  0  0  0  0
    0.4877   10.2688   -3.8887 H   0  0  0  0  0  0  0  0  0  0  0  0
    1.2635    8.2395   -2.8671 H   0  0  0  0  0  0  0  0  0  0  0  0
    0.6210    7.7760   -0.6710 H   0  0  0  0  0  0  0  0  0  0  0  0
    3.9271   10.5621   -2.1692 H   0  0  0  0  0  0  0  0  0  0  0  0
    3.2545    9.3111   -3.2689 H   0  0  0  0  0  0  0  0  0  0  0  0
    2.5668   10.9705   -3.2689 H   0  0  0  0  0  0  0  0  0  0  0  0
    2.5512    9.0472    0.4372 H   0  0  0  0  0  0  0  0  0  0  0  0
    2.4136    7.7551   -0.8031 H   0  0  0  0  0  0  0  0  0  0  0  0
    3.8359    8.8523   -0.8031 H   0  0  0  0  0  0  0  0  0  0  0  0
   -1.0577   12.9170    1.0181 H   0  0  0  0  0  0  0  0  0  0  0  0
   -2.1025   13.5503   -0.2988 H   0  0  0  0  0  0  0  0  0  0  0  0
   -1.6044   11.8244   -0.2988 H   0  0  0  0  0  0  0  0  0  0  0  0
   -0.8784   13.7322   -2.8182 H   0  0  0  0  0  0  0  0  0  0  0  0
   -1.2148   14.9121   -1.4294 H   0  0  0  0  0  0  0  0  0  0  0  0
    1.2981   14.7049   -3.1115 H   0  0  0  0  0  0  0  0  0  0  0  0
    0.0992   16.0554   -3.0354 H   0  0  0  0  0  0  0  0  0  0  0  0
    0.5496   16.5599    0.6151 H   0  0  0  0  0  0  0  0  0  0  0  0
    0.4697   17.7899   -0.6916 H   0  0  0  0  0  0  0  0  0  0  0  0
   -0.6731   16.4040   -0.6916 H   0  0  0  0  0  0  0  0  0  0  0  0
  1  2  1  0
  2  3  1  0
  3  4  1  0
  4  5  1  0
  5  6  1  0
  6  7  1  0
  7  8  1  0
  7  9  1  0
  2 10  1  0
 10 11  1  0
 11 12  1  0
 12 13  1  0
 13 14  1  6
 13 15  1  0
 15 16  1  0
 16 17  1  0
 17 18  2  0
 18 19  1  0
 19 20  1  0
 20 21  1  0
 21 22  1  0
 22 23  1  0
 22 24  1  0
 24 25  1  0
 24 26  1  0
 19 27  1  0
 27 28  1  1
 27 29  1  0
 29 30  1  0
 30 31  1  0
 31 32  1  1
  7  5  1  0
 31 10  1  0
 31 13  1  0
 27 15  1  0
 24 18  1  0
  1 33  1  0
  1 34  1  0
  1 35  1  0
  2 36  1  6
  3 37  1  0
  3 38  1  0
  4 39  1  0
  4 40  1  0
  5 41  1  1
  8 42  1  0
  8 43  1  0
  8 44  1  0
  9 45  1  0
  9 46  1  0
  9 47  1  0
 10 48  1  6
 11 49  1  0
 11 50  1  0
 12 51  1  0
 12 52  1  0
 14 53  1  0
 14 54  1  0
 14 55  1  0
 15 56  1  1
 16 57  1  0
 16 58  1  0
 17 59  1  0
 19 60  1  6
 20 61  1  0
 20 62  1  0
 21 63  1  0
 21 64  1  0
 22 65  1  6
 23 66  1  0
 25 67  1  0
 25 68  1  0
 25 69  1  0
 26 70  1  0
 26 71  1  0
 26 72  1  0
 28 73  1  0
 28 74  1  0
 28 75  1  0
 29 76  1  0
 29 77  1  0
 30 78  1  0
 30 79  1  0
 32 80  1  0
 32 81  1  0
 32 82  1  0
M  END
>  <meeko>  (9) 
{"is_sidechain": [false], "intermolecular_energy": 2.731, "internal_energy": -0.839}

$$$$
EPH_relaxed_0001_pdb2pqr_Repair_37_r2_0001_out
     RDKit          3D

 82 86  0  0  0  0  0  0  0  0999 V2000
    0.2350   17.7760   -2.5030 C   0  0  0  0  0  0  0  0  0  0  0  0
    0.0050   16.9050   -1.2640 C   0  0  2  0  0  0  0  0  0  0  0  0
    0.0050   17.7340    0.0360 C   0  0  0  0  0  0  0  0  0  0  0  0
    0.6230   19.1250   -0.1210 C   0  0  0  0  0  0  0  0  0  0  0  0
    1.7460   19.3460    0.8470 C   0  0  2  0  0  0  0  0  0  0  0  0
    2.7960   20.1940    0.3640 O   0  0  0  0  0  0  0  0  0  0  0  0
    3.1550   18.8280    0.6270 C   0  0  0  0  0  0  0  0  0  0  0  0
    3.5170   18.0480   -0.5980 C   0  0  0  0  0  0  0  0  0  0  0  0
    4.0490   18.6580    1.8150 C   0  0  0  0  0  0  0  0  0  0  0  0
    1.0680   15.8160   -1.1890 C   0  0  1  0  0  0  0  0  0  0  0  0
    1.2590   15.2650    0.2490 C   0  0  0  0  0  0  0  0  0  0  0  0
    1.5830   13.7560    0.1110 C   0  0  0  0  0  0  0  0  0  0  0  0
    1.8940   13.5600   -1.3920 C   0  0  1  0  0  0  0  0  0  0  0  0
    3.3760   14.0220   -1.5570 C   0  0  0  0  0  0  0  0  0  0  0  0
    1.6710   12.1210   -1.9620 C   0  0  2  0  0  0  0  0  0  0  0  0
    2.5560   11.0280   -1.3390 C   0  0  0  0  0  0  0  0  0  0  0  0
    3.8600   10.7940   -2.0280 C   0  0  0  0  0  0  0  0  0  0  0  0
    4.1830   11.2290   -3.2600 C   0  0  0  0  0  0  0  0  0  0  0  0
    3.1530   11.9550   -4.1340 C   0  0  1  0  0  0  0  0  0  0  0  0
    3.1840   11.3660   -5.5690 C   0  0  0  0  0  0  0  0  0  0  0  0
    4.5830   11.3850   -6.1780 C   0  0  0  0  0  0  0  0  0  0  0  0
    5.5660   10.6040   -5.3100 C   0  0  2  0  0  0  0  0  0  0  0  0
    5.2070    9.2190   -5.3380 O   0  0  0  0  0  0  0  0  0  0  0  0
    5.6140   11.1020   -3.8390 C   0  0  0  0  0  0  0  0  0  0  0  0
    6.2870   12.4950   -3.7820 C   0  0  0  0  0  0  0  0  0  0  0  0
    6.5360   10.1420   -3.0390 C   0  0  0  0  0  0  0  0  0  0  0  0
    1.6800   12.0420   -3.5420 C   0  0  1  0  0  0  0  0  0  0  0  0
    0.8750   10.7640   -3.9290 C   0  0  0  0  0  0  0  0  0  0  0  0
    0.9300   13.2570   -4.2070 C   0  0  0  0  0  0  0  0  0  0  0  0
    1.0940   14.6300   -3.5280 C   0  0  0  0  0  0  0  0  0  0  0  0
    0.8310   14.5320   -2.0220 C   0  0  2  0  0  0  0  0  0  0  0  0
   -0.6590   14.0900   -1.8240 C   0  0  0  0  0  0  0  0  0  0  0  0
    0.5042   18.7955   -2.1897 H   0  0  0  0  0  0  0  0  0  0  0  0
    1.0514   17.3497   -3.1045 H   0  0  0  0  0  0  0  0  0  0  0  0
   -0.6854   17.8083   -3.1045 H   0  0  0  0  0  0  0  0  0  0  0  0
   -0.9897   16.4457   -1.3620 H   0  0  0  0  0  0  0  0  0  0  0  0
   -1.0356   17.8524    0.3723 H   0  0  0  0  0  0  0  0  0  0  0  0
    0.6224   17.1885    0.7649 H   0  0  0  0  0  0  0  0  0  0  0  0
    1.0098   19.2295   -1.1454 H   0  0  0  0  0  0  0  0  0  0  0  0
   -0.1580   19.8720    0.0840 H   0  0  0  0  0  0  0  0  0  0  0  0
    1.0560   19.2683    1.7002 H   0  0  0  0  0  0  0  0  0  0  0  0
    3.9630   17.0870   -0.3023 H   0  0  0  0  0  0  0  0  0  0  0  0
    2.6123   17.8638   -1.1960 H   0  0  0  0  0  0  0  0  0  0  0  0
    4.2417   18.6200   -1.1960 H   0  0  0  0  0  0  0  0  0  0  0  0
    3.4592   18.7701    2.7367 H   0  0  0  0  0  0  0  0  0  0  0  0
    4.5047   17.6571    1.7908 H   0  0  0  0  0  0  0  0  0  0  0  0
    4.8402   19.4218    1.7908 H   0  0  0  0  0  0  0  0  0  0  0  0
    1.9285   16.3711   -1.5907 H   0  0  0  0  0  0  0  0  0  0  0  0
    2.0895   15.7866    0.7472 H   0  0  0  0  0  0  0  0  0  0  0  0
    0.3540   15.4206    0.8547 H   0  0  0  0  0  0  0  0  0  0  0  0
    2.4546   13.4880    0.7262 H   0  0  0  0  0  0  0  0  0  0  0  0
    0.7543   13.1183    0.4524 H   0  0  0  0  0  0  0  0  0  0  0  0
    3.8287   14.1631   -0.5645 H   0  0  0  0  0  0  0  0  0  0  0  0
    3.9391   13.2568   -2.1114 H   0  0  0  0  0  0  0  0  0  0  0  0
    3.4045   14.9716   -2.1114 H   0  0  0  0  0  0  0  0  0  0  0  0
    0.6448   11.8945   -1.6370 H   0  0  0  0  0  0  0  0  0  0  0  0
    2.7680   11.3144   -0.2983 H   0  0  0  0  0  0  0  0  0  0  0  0
    1.9903   10.0891   -1.4309 H   0  0  0  0  0  0  0  0  0  0  0  0
    4.6212   10.2171   -1.4823 H   0  0  0  0  0  0  0  0  0  0  0  0
    3.4634   13.0101   -4.1569 H   0  0  0  0  0  0  0  0  0  0  0  0
    2.8299   10.3253   -5.5309 H   0  0  0  0  0  0  0  0  0  0  0  0
    2.5357   11.9908   -6.2010 H   0  0  0  0  0  0  0  0  0  0  0  0
    4.5462   10.9301   -7.1788 H   0  0  0  0  0  0  0  0  0  0  0  0
    4.9239   12.4289   -6.2425 H   0  0  0  0  0  0  0  0  0  0  0  0
    6.5715   10.7618   -5.7272 H   0  0  0  0  0  0  0  0  0  0  0  0
    4.4870    9.0890   -4.6980 H   0  0  0  0  0  0  0  0  0  0  0  0
    6.4298   12.7905   -2.7321 H   0  0  0  0  0  0  0  0  0  0  0  0
    7.2634   12.4514   -4.2867 H   0  0  0  0  0  0  0  0  0  0  0  0
    5.6460   13.2328   -4.2867 H   0  0  0  0  0  0  0  0  0  0  0  0
    6.3836   10.3007   -1.9612 H   0  0  0  0  0  0  0  0  0  0  0  0
    6.2910    9.1005   -3.2946 H   0  0  0  0  0  0  0  0  0  0  0  0
    7.5865   10.3448   -3.2946 H   0  0  0  0  0  0  0  0  0  0  0  0
    0.5485   10.2457   -3.0154 H   0  0  0  0  0  0  0  0  0  0  0  0
   -0.0057   11.0510   -4.5223 H   0  0  0  0  0  0  0  0  0  0  0  0
    1.5142   10.0937   -4.5223 H   0  0  0  0  0  0  0  0  0  0  0  0
    1.2977   13.3503   -5.2395 H   0  0  0  0  0  0  0  0  0  0  0  0
   -0.1401   13.0181   -4.1187 H   0  0  0  0  0  0  0  0  0  0  0  0
    2.1198   14.9919   -3.6913 H   0  0  0  0  0  0  0  0  0  0  0  0
    0.3652   15.3274   -3.9666 H   0  0  0  0  0  0  0  0  0  0  0  0
   -0.8821   14.0238   -0.7489 H   0  0  0  0  0  0  0  0  0  0  0  0
   -1.3260   14.8290   -2.2920 H   0  0  0  0  0  0  0  0  0  0  0  0
   -0.8151   13.1069   -2.2920 H   0  0  0  0  0  0  0  0  0  0  0  0
  1  2  1  0
  2  3  1  0
  3  4  1  0
  4  5  1  0
  5  6  1  0
  6  7  1  0
  7  8  1  0
  7  9  1  0
  2 10  1  0
 10 11  1  0
 11 12  1  0
 12 13  1  0
 13 14  1  1
 13 15  1  0
 15 16  1  0
 16 17  1  0
 17 18  2  0
 18 19  1  0
 19 20  1  0
 20 21  1  0
 21 22  1  0
 22 23  1  0
 22 24  1  0
 24 25  1  0
 24 26  1  0
 19 27  1  0
 27 28  1  1
 27 29  1  0
 29 30  1  0
 30 31  1  0
 31 32  1  6
  7  5  1  0
 31 10  1  0
 31 13  1  0
 27 15  1  0
 24 18  1  0
  1 33  1  0
  1 34  1  0
  1 35  1  0
  2 36  1  6
  3 37  1  0
  3 38  1  0
  4 39  1  0
  4 40  1  0
  5 41  1  1
  8 42  1  0
  8 43  1  0
  8 44  1  0
  9 45  1  0
  9 46  1  0
  9 47  1  0
 10 48  1  6
 11 49  1  0
 11 50  1  0
 12 51  1  0
 12 52  1  0
 14 53  1  0
 14 54  1  0
 14 55  1  0
 15 56  1  1
 16 57  1  0
 16 58  1  0
 17 59  1  0
 19 60  1  6
 20 61  1  0
 20 62  1  0
 21 63  1  0
 21 64  1  0
 22 65  1  6
 23 66  1  0
 25 67  1  0
 25 68  1  0
 25 69  1  0
 26 70  1  0
 26 71  1  0
 26 72  1  0
 28 73  1  0
 28 74  1  0
 28 75  1  0
 29 76  1  0
 29 77  1  0
 30 78  1  0
 30 79  1  0
 32 80  1  0
 32 81  1  0
 32 82  1  0
M  END
>  <meeko>  (10) 
{"is_sidechain": [false], "intermolecular_energy": 2.731, "internal_energy": -0.839}

$$$$
EPH_relaxed_0001_pdb2pqr_Repair_37_r2_0001_out
     RDKit          3D

 82 86  0  0  0  0  0  0  0  0999 V2000
   -0.9140   16.3700   -5.8590 C   0  0  0  0  0  0  0  0  0  0  0  0
    0.1840   15.6750   -6.6700 C   0  0  2  0  0  0  0  0  0  0  0  0
   -0.2210   15.4750   -8.1440 C   0  0  0  0  0  0  0  0  0  0  0  0
    0.4190   16.4860   -9.1000 C   0  0  0  0  0  0  0  0  0  0  0  0
    1.8270   16.1080   -9.4450 C   0  0  2  0  0  0  0  0  0  0  0  0
    2.3180   16.6780  -10.6660 O   0  0  0  0  0  0  0  0  0  0  0  0
    2.1940   15.2470  -10.6390 C   0  0  0  0  0  0  0  0  0  0  0  0
    1.1470   14.7090  -11.5640 C   0  0  0  0  0  0  0  0  0  0  0  0
    3.5070   14.5280  -10.6270 C   0  0  0  0  0  0  0  0  0  0  0  0
    0.5260   14.3310   -6.0360 C   0  0  1  0  0  0  0  0  0  0  0  0
    1.7720   13.6670   -6.6790 C   0  0  0  0  0  0  0  0  0  0  0  0
    2.5170   12.9200   -5.5430 C   0  0  0  0  0  0  0  0  0  0  0  0
    1.5120   12.8970   -4.3680 C   0  0  1  0  0  0  0  0  0  0  0  0
    0.5480   11.7120   -4.6870 C   0  0  0  0  0  0  0  0  0  0  0  0
    2.1270   12.7710   -2.9360 C   0  0  2  0  0  0  0  0  0  0  0  0
    2.9080   11.4720   -2.6730 C   0  0  0  0  0  0  0  0  0  0  0  0
    2.1010   10.3440   -2.1200 C   0  0  0  0  0  0  0  0  0  0  0  0
    0.8730   10.4520   -1.5790 C   0  0  0  0  0  0  0  0  0  0  0  0
    0.2120   11.8240   -1.3950 C   0  0  1  0  0  0  0  0  0  0  0  0
   -0.3920   11.9200    0.0310 C   0  0  0  0  0  0  0  0  0  0  0  0
   -1.3420   10.7680    0.3430 C   0  0  0  0  0  0  0  0  0  0  0  0
   -0.6320    9.4240    0.2050 C   0  0  2  0  0  0  0  0  0  0  0  0
    0.3650    9.3220    1.2270 O   0  0  0  0  0  0  0  0  0  0  0  0
    0.0240    9.2170   -1.1880 C   0  0  0  0  0  0  0  0  0  0  0  0
   -1.0780    9.0260   -2.2590 C   0  0  0  0  0  0  0  0  0  0  0  0
    0.8250    7.8880   -1.1470 C   0  0  0  0  0  0  0  0  0  0  0  0
    1.1100   13.0820   -1.7640 C   0  0  1  0  0  0  0  0  0  0  0  0
    1.9670   13.5040   -0.5310 C   0  0  0  0  0  0  0  0  0  0  0  0
    0.1740   14.3040   -2.0930 C   0  0  0  0  0  0  0  0  0  0  0  0
   -0.3040   14.4410   -3.5510 C   0  0  0  0  0  0  0  0  0  0  0  0
    0.8710   14.3240   -4.5260 C   0  0  2  0  0  0  0  0  0  0  0  0
    1.8480   15.5160   -4.2440 C   0  0  0  0  0  0  0  0  0  0  0  0
   -0.7129   16.2427   -4.7851 H   0  0  0  0  0  0  0  0  0  0  0  0
   -0.9285   17.4421   -6.1048 H   0  0  0  0  0  0  0  0  0  0  0  0
   -1.8892   15.9243   -6.1048 H   0  0  0  0  0  0  0  0  0  0  0  0
    1.0690   16.3282   -6.6572 H   0  0  0  0  0  0  0  0  0  0  0  0
    0.0823   14.4640   -8.4535 H   0  0  0  0  0  0  0  0  0  0  0  0
   -1.3096   15.6222   -8.2015 H   0  0  0  0  0  0  0  0  0  0  0  0
   -0.1755   16.5281  -10.0245 H   0  0  0  0  0  0  0  0  0  0  0  0
    0.4397   17.4654   -8.5997 H   0  0  0  0  0  0  0  0  0  0  0  0
    2.0959   16.0458   -8.3802 H   0  0  0  0  0  0  0  0  0  0  0  0
    0.3206   14.2844  -10.9751 H   0  0  0  0  0  0  0  0  0  0  0  0
    0.7650   15.5225  -12.1983 H   0  0  0  0  0  0  0  0  0  0  0  0
    1.5860   13.9248  -12.1983 H   0  0  0  0  0  0  0  0  0  0  0  0
    3.8213   14.3559   -9.5870 H   0  0  0  0  0  0  0  0  0  0  0  0
    3.4009   13.5621  -11.1426 H   0  0  0  0  0  0  0  0  0  0  0  0
    4.2636   15.1377  -11.1426 H   0  0  0  0  0  0  0  0  0  0  0  0
   -0.4221   13.8001   -6.2071 H   0  0  0  0  0  0  0  0  0  0  0  0
    1.4622   12.9568   -7.4598 H   0  0  0  0  0  0  0  0  0  0  0  0
    2.4220   14.4194   -7.1495 H   0  0  0  0  0  0  0  0  0  0  0  0
    2.7742   11.8968   -5.8543 H   0  0  0  0  0  0  0  0  0  0  0  0
    3.4643   13.4094   -5.2726 H   0  0  0  0  0  0  0  0  0  0  0  0
    0.1877   11.2691   -3.7468 H   0  0  0  0  0  0  0  0  0  0  0  0
   -0.3083   12.0826   -5.2695 H   0  0  0  0  0  0  0  0  0  0  0  0
    1.0851   10.9490   -5.2695 H   0  0  0  0  0  0  0  0  0  0  0  0
    2.8766   13.5760   -2.9298 H   0  0  0  0  0  0  0  0  0  0  0  0
    3.3474   11.1407   -3.6255 H   0  0  0  0  0  0  0  0  0  0  0  0
    3.6560   11.7167   -1.9045 H   0  0  0  0  0  0  0  0  0  0  0  0
    2.5478    9.3395   -2.1579 H   0  0  0  0  0  0  0  0  0  0  0  0
   -0.5908   11.8781   -2.1451 H   0  0  0  0  0  0  0  0  0  0  0  0
    0.4289   11.9082    0.7631 H   0  0  0  0  0  0  0  0  0  0  0  0
   -0.9705   12.8540    0.0862 H   0  0  0  0  0  0  0  0  0  0  0  0
   -1.7124   10.8755    1.3732 H   0  0  0  0  0  0  0  0  0  0  0  0
   -2.1781   10.7987   -0.3711 H   0  0  0  0  0  0  0  0  0  0  0  0
   -1.3929    8.6369    0.3124 H   0  0  0  0  0  0  0  0  0  0  0  0
    1.2290    9.4820    0.8110 H   0  0  0  0  0  0  0  0  0  0  0  0
   -2.0457    8.8583   -1.7635 H   0  0  0  0  0  0  0  0  0  0  0  0
   -1.1389    9.9270   -2.8871 H   0  0  0  0  0  0  0  0  0  0  0  0
   -0.8322    8.1571   -2.8871 H   0  0  0  0  0  0  0  0  0  0  0  0
    1.0001    7.5975   -0.1006 H   0  0  0  0  0  0  0  0  0  0  0  0
    0.2520    7.0987   -1.6557 H   0  0  0  0  0  0  0  0  0  0  0  0
    1.7905    8.0260   -1.6557 H   0  0  0  0  0  0  0  0  0  0  0  0
    1.4330   13.2410    0.3940 H   0  0  0  0  0  0  0  0  0  0  0  0
    2.9330   12.9785   -0.5587 H   0  0  0  0  0  0  0  0  0  0  0  0
    2.1394   14.5900   -0.5587 H   0  0  0  0  0  0  0  0  0  0  0  0
   -0.7193   14.2196   -1.4566 H   0  0  0  0  0  0  0  0  0  0  0  0
    0.7901   15.1962   -1.9074 H   0  0  0  0  0  0  0  0  0  0  0  0
   -1.0319   13.6451   -3.7674 H   0  0  0  0  0  0  0  0  0  0  0  0
   -0.7671   15.4308   -3.6769 H   0  0  0  0  0  0  0  0  0  0  0  0
    1.9583   15.6506   -3.1579 H   0  0  0  0  0  0  0  0  0  0  0  0
    2.8304   15.2978   -4.6881 H   0  0  0  0  0  0  0  0  0  0  0  0
    1.4412   16.4365   -4.6881 H   0  0  0  0  0  0  0  0  0  0  0  0
  1  2  1  0
  2  3  1  0
  3  4  1  0
  4  5  1  0
  5  6  1  0
  6  7  1  0
  7  8  1  0
  7  9  1  0
  2 10  1  0
 10 11  1  0
 11 12  1  0
 12 13  1  0
 13 14  1  6
 13 15  1  0
 15 16  1  0
 16 17  1  0
 17 18  2  0
 18 19  1  0
 19 20  1  0
 20 21  1  0
 21 22  1  0
 22 23  1  0
 22 24  1  0
 24 25  1  0
 24 26  1  0
 19 27  1  0
 27 28  1  1
 27 29  1  0
 29 30  1  0
 30 31  1  0
 31 32  1  6
  7  5  1  0
 31 10  1  0
 31 13  1  0
 27 15  1  0
 24 18  1  0
  1 33  1  0
  1 34  1  0
  1 35  1  0
  2 36  1  6
  3 37  1  0
  3 38  1  0
  4 39  1  0
  4 40  1  0
  5 41  1  1
  8 42  1  0
  8 43  1  0
  8 44  1  0
  9 45  1  0
  9 46  1  0
  9 47  1  0
 10 48  1  1
 11 49  1  0
 11 50  1  0
 12 51  1  0
 12 52  1  0
 14 53  1  0
 14 54  1  0
 14 55  1  0
 15 56  1  6
 16 57  1  0
 16 58  1  0
 17 59  1  0
 19 60  1  6
 20 61  1  0
 20 62  1  0
 21 63  1  0
 21 64  1  0
 22 65  1  1
 23 66  1  0
 25 67  1  0
 25 68  1  0
 25 69  1  0
 26 70  1  0
 26 71  1  0
 26 72  1  0
 28 73  1  0
 28 74  1  0
 28 75  1  0
 29 76  1  0
 29 77  1  0
 30 78  1  0
 30 79  1  0
 32 80  1  0
 32 81  1  0
 32 82  1  0
M  END
>  <meeko>  (11) 
{"is_sidechain": [false], "intermolecular_energy": 2.731, "internal_energy": -0.839}

$$$$
EPH_relaxed_0001_pdb2pqr_Repair_37_r2_0001_out
     RDKit          3D

 82 86  0  0  0  0  0  0  0  0999 V2000
   -2.2060    7.7540   -2.3710 C   0  0  0  0  0  0  0  0  0  0  0  0
   -2.2970    8.3750   -0.9740 C   0  0  2  0  0  0  0  0  0  0  0  0
   -3.7350    8.3450   -0.4180 C   0  0  0  0  0  0  0  0  0  0  0  0
   -4.6350    7.3080   -1.0960 C   0  0  0  0  0  0  0  0  0  0  0  0
   -6.0650    7.7580   -1.1360 C   0  0  2  0  0  0  0  0  0  0  0  0
   -7.0140    6.7740   -0.7030 O   0  0  0  0  0  0  0  0  0  0  0  0
   -7.0990    7.1740   -2.0800 C   0  0  0  0  0  0  0  0  0  0  0  0
   -6.7460    6.0910   -3.0510 C   0  0  0  0  0  0  0  0  0  0  0  0
   -8.3160    7.9850   -2.3980 C   0  0  0  0  0  0  0  0  0  0  0  0
   -1.7820    9.8090   -1.0080 C   0  0  1  0  0  0  0  0  0  0  0  0
   -1.3990   10.3390    0.4000 C   0  0  0  0  0  0  0  0  0  0  0  0
   -0.1780   11.2750    0.2080 C   0  0  0  0  0  0  0  0  0  0  0  0
   -0.1060   11.5150   -1.3180 C   0  0  1  0  0  0  0  0  0  0  0  0
   -1.1630   12.6280   -1.6000 C   0  0  0  0  0  0  0  0  0  0  0  0
    1.2980   11.8930   -1.8930 C   0  0  2  0  0  0  0  0  0  0  0  0
    1.8840   13.2150   -1.3660 C   0  0  0  0  0  0  0  0  0  0  0  0
    1.5420   14.4280   -2.1660 C   0  0  0  0  0  0  0  0  0  0  0  0
    1.0360   14.4250   -3.4130 C   0  0  0  0  0  0  0  0  0  0  0  0
    0.8490   13.1120   -4.1850 C   0  0  1  0  0  0  0  0  0  0  0  0
    1.3950   13.2780   -5.6270 C   0  0  0  0  0  0  0  0  0  0  0  0
    0.7830   14.4720   -6.3510 C   0  0  0  0  0  0  0  0  0  0  0  0
    1.0390   15.7660   -5.5830 C   0  0  2  0  0  0  0  0  0  0  0  0
    2.4430   16.0450   -5.6050 O   0  0  0  0  0  0  0  0  0  0  0  0
    0.5400   15.7150   -4.1120 C   0  0  0  0  0  0  0  0  0  0  0  0
   -1.0090   15.7160   -4.0880 C   0  0  0  0  0  0  0  0  0  0  0  0
    0.9860   17.0260   -3.4100 C   0  0  0  0  0  0  0  0  0  0  0  0
    1.3990   11.8040   -3.4700 C   0  0  1  0  0  0  0  0  0  0  0  0
    2.9080   11.6070   -3.8090 C   0  0  0  0  0  0  0  0  0  0  0  0
    0.6460   10.5480   -4.0470 C   0  0  0  0  0  0  0  0  0  0  0  0
   -0.6750   10.1530   -3.3600 C   0  0  0  0  0  0  0  0  0  0  0  0
   -0.5040   10.0860   -1.8400 C   0  0  2  0  0  0  0  0  0  0  0  0
    0.5370    8.9590   -1.5250 C   0  0  0  0  0  0  0  0  0  0  0  0
   -2.0471    6.6693   -2.2804 H   0  0  0  0  0  0  0  0  0  0  0  0
   -3.1414    7.9431   -2.9180 H   0  0  0  0  0  0  0  0  0  0  0  0
   -1.3641    8.2035   -2.9180 H   0  0  0  0  0  0  0  0  0  0  0  0
   -1.6702    7.7707   -0.3018 H   0  0  0  0  0  0  0  0  0  0  0  0
   -3.6873    8.1141    0.6564 H   0  0  0  0  0  0  0  0  0  0  0  0
   -4.1770    9.3328   -0.6155 H   0  0  0  0  0  0  0  0  0  0  0  0
   -4.2823    7.1483   -2.1256 H   0  0  0  0  0  0  0  0  0  0  0  0
   -4.5843    6.3761   -0.5137 H   0  0  0  0  0  0  0  0  0  0  0  0
   -5.7704    8.7943   -0.9141 H   0  0  0  0  0  0  0  0  0  0  0  0
   -6.4510    5.1860   -2.4996 H   0  0  0  0  0  0  0  0  0  0  0  0
   -7.6177    5.8672   -3.6835 H   0  0  0  0  0  0  0  0  0  0  0  0
   -5.9098    6.4239   -3.6835 H   0  0  0  0  0  0  0  0  0  0  0  0
   -8.7975    8.3059   -1.4625 H   0  0  0  0  0  0  0  0  0  0  0  0
   -8.0244    8.8700   -2.9826 H   0  0  0  0  0  0  0  0  0  0  0  0
   -9.0205    7.3752   -2.9826 H   0  0  0  0  0  0  0  0  0  0  0  0
   -2.6474   10.3056   -1.4711 H   0  0  0  0  0  0  0  0  0  0  0  0
   -2.2400   10.8980    0.8362 H   0  0  0  0  0  0  0  0  0  0  0  0
   -1.1583    9.5103    1.0822 H   0  0  0  0  0  0  0  0  0  0  0  0
   -0.3283   12.2240    0.7436 H   0  0  0  0  0  0  0  0  0  0  0  0
    0.7496   10.8372    0.6055 H   0  0  0  0  0  0  0  0  0  0  0  0
   -1.5404   13.0254   -0.6462 H   0  0  0  0  0  0  0  0  0  0  0  0
   -0.6956   13.4400   -2.1763 H   0  0  0  0  0  0  0  0  0  0  0  0
   -1.9981   12.2031   -2.1763 H   0  0  0  0  0  0  0  0  0  0  0  0
    1.9407   11.0978   -1.4873 H   0  0  0  0  0  0  0  0  0  0  0  0
    1.5122   13.3673   -0.3420 H   0  0  0  0  0  0  0  0  0  0  0  0
    2.9772   13.1088   -1.4266 H   0  0  0  0  0  0  0  0  0  0  0  0
    1.7185   15.4070   -1.6966 H   0  0  0  0  0  0  0  0  0  0  0  0
   -0.2350   12.9277   -4.2157 H   0  0  0  0  0  0  0  0  0  0  0  0
    2.4851   13.4168   -5.5773 H   0  0  0  0  0  0  0  0  0  0  0  0
    1.1270   12.3726   -6.1913 H   0  0  0  0  0  0  0  0  0  0  0  0
    1.2303   14.5535   -7.3526 H   0  0  0  0  0  0  0  0  0  0  0  0
   -0.3035   14.3176   -6.4261 H   0  0  0  0  0  0  0  0  0  0  0  0
    0.4671   16.5631   -6.0805 H   0  0  0  0  0  0  0  0  0  0  0  0
    2.5510   17.0110   -5.5990 H   0  0  0  0  0  0  0  0  0  0  0  0
   -1.3596   15.7162   -3.0454 H   0  0  0  0  0  0  0  0  0  0  0  0
   -1.3831   16.6144   -4.6008 H   0  0  0  0  0  0  0  0  0  0  0  0
   -1.3842   14.8181   -4.6008 H   0  0  0  0  0  0  0  0  0  0  0  0
    0.9403   16.8917   -2.3192 H   0  0  0  0  0  0  0  0  0  0  0  0
    2.0171   17.2683   -3.7067 H   0  0  0  0  0  0  0  0  0  0  0  0
    0.3166   17.8469   -3.7067 H   0  0  0  0  0  0  0  0  0  0  0  0
    3.4865   11.5315   -2.8764 H   0  0  0  0  0  0  0  0  0  0  0  0
    3.0348   10.6847   -4.3949 H   0  0  0  0  0  0  0  0  0  0  0  0
    3.2674   12.4659   -4.3949 H   0  0  0  0  0  0  0  0  0  0  0  0
    0.4231   10.7508   -5.1049 H   0  0  0  0  0  0  0  0  0  0  0  0
    1.3253    9.7005   -3.8728 H   0  0  0  0  0  0  0  0  0  0  0  0
   -1.4444   10.9007   -3.6029 H   0  0  0  0  0  0  0  0  0  0  0  0
   -0.9755    9.1591   -3.7231 H   0  0  0  0  0  0  0  0  0  0  0  0
    0.6392    8.8484   -0.4354 H   0  0  0  0  0  0  0  0  0  0  0  0
    0.1917    8.0091   -1.9592 H   0  0  0  0  0  0  0  0  0  0  0  0
    1.5112    9.2280   -1.9592 H   0  0  0  0  0  0  0  0  0  0  0  0
  1  2  1  0
  2  3  1  0
  3  4  1  0
  4  5  1  0
  5  6  1  0
  6  7  1  0
  7  8  1  0
  7  9  1  0
  2 10  1  0
 10 11  1  0
 11 12  1  0
 12 13  1  0
 13 14  1  6
 13 15  1  0
 15 16  1  0
 16 17  1  0
 17 18  2  0
 18 19  1  0
 19 20  1  0
 20 21  1  0
 21 22  1  0
 22 23  1  0
 22 24  1  0
 24 25  1  0
 24 26  1  0
 19 27  1  0
 27 28  1  1
 27 29  1  0
 29 30  1  0
 30 31  1  0
 31 32  1  6
  7  5  1  0
 31 10  1  0
 31 13  1  0
 27 15  1  0
 24 18  1  0
  1 33  1  0
  1 34  1  0
  1 35  1  0
  2 36  1  1
  3 37  1  0
  3 38  1  0
  4 39  1  0
  4 40  1  0
  5 41  1  1
  8 42  1  0
  8 43  1  0
  8 44  1  0
  9 45  1  0
  9 46  1  0
  9 47  1  0
 10 48  1  6
 11 49  1  0
 11 50  1  0
 12 51  1  0
 12 52  1  0
 14 53  1  0
 14 54  1  0
 14 55  1  0
 15 56  1  1
 16 57  1  0
 16 58  1  0
 17 59  1  0
 19 60  1  6
 20 61  1  0
 20 62  1  0
 21 63  1  0
 21 64  1  0
 22 65  1  6
 23 66  1  0
 25 67  1  0
 25 68  1  0
 25 69  1  0
 26 70  1  0
 26 71  1  0
 26 72  1  0
 28 73  1  0
 28 74  1  0
 28 75  1  0
 29 76  1  0
 29 77  1  0
 30 78  1  0
 30 79  1  0
 32 80  1  0
 32 81  1  0
 32 82  1  0
M  END
>  <meeko>  (12) 
{"is_sidechain": [false], "intermolecular_energy": 2.731, "internal_energy": -0.839}

$$$$
EPH_relaxed_0001_pdb2pqr_Repair_37_r2_0001_out
     RDKit          3D

 82 86  0  0  0  0  0  0  0  0999 V2000
    0.2570    9.2640   -2.0070 C   0  0  0  0  0  0  0  0  0  0  0  0
    1.2380   10.3100   -2.5450 C   0  0  2  0  0  0  0  0  0  0  0  0
    2.6660    9.7470   -2.6870 C   0  0  0  0  0  0  0  0  0  0  0  0
    3.5190   10.4860   -3.7210 C   0  0  0  0  0  0  0  0  0  0  0  0
    4.9230   10.6900   -3.2380 C   0  0  2  0  0  0  0  0  0  0  0  0
    5.5230   11.9270   -3.6460 O   0  0  0  0  0  0  0  0  0  0  0  0
    6.1270   10.7300   -4.1600 C   0  0  0  0  0  0  0  0  0  0  0  0
    5.9830   10.5630   -5.6400 C   0  0  0  0  0  0  0  0  0  0  0  0
    7.4790   10.4420   -3.5850 C   0  0  0  0  0  0  0  0  0  0  0  0
    1.2470   11.5300   -1.6320 C   0  0  1  0  0  0  0  0  0  0  0  0
    2.3250   11.4360   -0.5190 C   0  0  0  0  0  0  0  0  0  0  0  0
    2.8510   12.8750   -0.2820 C   0  0  0  0  0  0  0  0  0  0  0  0
    1.8380   13.7860   -1.0170 C   0  0  1  0  0  0  0  0  0  0  0  0
    0.6370   13.9270   -0.0300 C   0  0  0  0  0  0  0  0  0  0  0  0
    2.3730   15.1800   -1.4790 C   0  0  2  0  0  0  0  0  0  0  0  0
    2.8290   16.1140   -0.3440 C   0  0  0  0  0  0  0  0  0  0  0  0
    1.7720   17.0140    0.2050 C   0  0  0  0  0  0  0  0  0  0  0  0
    0.5880   17.2770   -0.3790 C   0  0  0  0  0  0  0  0  0  0  0  0
    0.2540   16.7190   -1.7680 C   0  0  1  0  0  0  0  0  0  0  0  0
   -0.3470   17.8460   -2.6480 C   0  0  0  0  0  0  0  0  0  0  0  0
   -1.5430   18.5280   -1.9900 C   0  0  0  0  0  0  0  0  0  0  0  0
   -1.1560   19.1210   -0.6380 C   0  0  2  0  0  0  0  0  0  0  0  0
   -0.2340   20.1940   -0.8520 O   0  0  0  0  0  0  0  0  0  0  0  0
   -0.5300   18.0800    0.3310 C   0  0  0  0  0  0  0  0  0  0  0  0
   -1.6190   17.0840    0.8010 C   0  0  0  0  0  0  0  0  0  0  0  0
   -0.0560   18.8350    1.6020 C   0  0  0  0  0  0  0  0  0  0  0  0
    1.4250   15.9320   -2.4990 C   0  0  1  0  0  0  0  0  0  0  0  0
    2.3240   16.9310   -3.2900 C   0  0  0  0  0  0  0  0  0  0  0  0
    0.8010   14.9560   -3.5660 C   0  0  0  0  0  0  0  0  0  0  0  0
    0.4030   13.5510   -3.0740 C   0  0  0  0  0  0  0  0  0  0  0  0
    1.5450   12.9040   -2.2840 C   0  0  2  0  0  0  0  0  0  0  0  0
    2.7600   12.7280   -3.2570 C   0  0  0  0  0  0  0  0  0  0  0  0
    0.2714    9.2793   -0.9072 H   0  0  0  0  0  0  0  0  0  0  0  0
   -0.7576    9.4951   -2.3637 H   0  0  0  0  0  0  0  0  0  0  0  0
    0.5527    8.2663   -2.3637 H   0  0  0  0  0  0  0  0  0  0  0  0
    0.8965   10.5998   -3.5497 H   0  0  0  0  0  0  0  0  0  0  0  0
    3.1660    9.8180   -1.7098 H   0  0  0  0  0  0  0  0  0  0  0  0
    2.5687    8.7078   -3.0343 H   0  0  0  0  0  0  0  0  0  0  0  0
    3.5436    9.8967   -4.6495 H   0  0  0  0  0  0  0  0  0  0  0  0
    3.0687   11.4747   -3.8932 H   0  0  0  0  0  0  0  0  0  0  0  0
    4.7149   10.1209   -2.3199 H   0  0  0  0  0  0  0  0  0  0  0  0
    5.2779    9.7452   -5.8498 H   0  0  0  0  0  0  0  0  0  0  0  0
    5.6024   11.4970   -6.0791 H   0  0  0  0  0  0  0  0  0  0  0  0
    6.9628   10.3240   -6.0791 H   0  0  0  0  0  0  0  0  0  0  0  0
    7.4205   10.4545   -2.4866 H   0  0  0  0  0  0  0  0  0  0  0  0
    7.8178    9.4515   -3.9230 H   0  0  0  0  0  0  0  0  0  0  0  0
    8.1920   11.2084   -3.9230 H   0  0  0  0  0  0  0  0  0  0  0  0
    0.2072   11.5000   -1.2745 H   0  0  0  0  0  0  0  0  0  0  0  0
    1.8811   11.0380    0.4054 H   0  0  0  0  0  0  0  0  0  0  0  0
    3.1414   10.7614   -0.8163 H   0  0  0  0  0  0  0  0  0  0  0  0
    2.8744   13.1080    0.7928 H   0  0  0  0  0  0  0  0  0  0  0  0
    3.8784   13.0101   -0.6511 H   0  0  0  0  0  0  0  0  0  0  0  0
    1.0062   13.8837    1.0053 H   0  0  0  0  0  0  0  0  0  0  0  0
    0.1340   14.8904   -0.1999 H   0  0  0  0  0  0  0  0  0  0  0  0
   -0.0755   13.1063   -0.1999 H   0  0  0  0  0  0  0  0  0  0  0  0
    3.2866   14.9107   -2.0293 H   0  0  0  0  0  0  0  0  0  0  0  0
    3.2050   15.4894    0.4797 H   0  0  0  0  0  0  0  0  0  0  0  0
    3.5931   16.7735   -0.7812 H   0  0  0  0  0  0  0  0  0  0  0  0
    1.9781   17.5037    1.1682 H   0  0  0  0  0  0  0  0  0  0  0  0
   -0.4967   15.9313   -1.6069 H   0  0  0  0  0  0  0  0  0  0  0  0
    0.4311   18.6010   -2.8338 H   0  0  0  0  0  0  0  0  0  0  0  0
   -0.6980   17.3871   -3.5841 H   0  0  0  0  0  0  0  0  0  0  0  0
   -1.9043   19.3334   -2.6464 H   0  0  0  0  0  0  0  0  0  0  0  0
   -2.3320   17.7780   -1.8319 H   0  0  0  0  0  0  0  0  0  0  0  0
   -2.0790   19.4798   -0.1591 H   0  0  0  0  0  0  0  0  0  0  0  0
    0.6010   19.8070   -1.1650 H   0  0  0  0  0  0  0  0  0  0  0  0
   -1.6446   17.0606    1.9005 H   0  0  0  0  0  0  0  0  0  0  0  0
   -2.5991   17.4048    0.4182 H   0  0  0  0  0  0  0  0  0  0  0  0
   -1.3868   16.0793    0.4182 H   0  0  0  0  0  0  0  0  0  0  0  0
   -0.3955   18.2942    2.4977 H   0  0  0  0  0  0  0  0  0  0  0  0
    1.0423   18.8953    1.6044 H   0  0  0  0  0  0  0  0  0  0  0  0
   -0.4790   19.8504    1.6044 H   0  0  0  0  0  0  0  0  0  0  0  0
    2.8873   17.5569   -2.5822 H   0  0  0  0  0  0  0  0  0  0  0  0
    3.0271   16.3696   -3.9229 H   0  0  0  0  0  0  0  0  0  0  0  0
    1.6918   17.5712   -3.9229 H   0  0  0  0  0  0  0  0  0  0  0  0
   -0.1033   15.4364   -3.9677 H   0  0  0  0  0  0  0  0  0  0  0  0
    1.5997   14.7871   -4.3033 H   0  0  0  0  0  0  0  0  0  0  0  0
   -0.4817   13.6338   -2.4255 H   0  0  0  0  0  0  0  0  0  0  0  0
    0.1809   12.9223   -3.9489 H   0  0  0  0  0  0  0  0  0  0  0  0
    3.6819   12.5945   -2.6720 H   0  0  0  0  0  0  0  0  0  0  0  0
    2.5969   11.8441   -3.8911 H   0  0  0  0  0  0  0  0  0  0  0  0
    2.8544   13.6218   -3.8911 H   0  0  0  0  0  0  0  0  0  0  0  0
  1  2  1  0
  2  3  1  0
  3  4  1  0
  4  5  1  0
  5  6  1  0
  6  7  1  0
  7  8  1  0
  7  9  1  0
  2 10  1  0
 10 11  1  0
 11 12  1  0
 12 13  1  0
 13 14  1  1
 13 15  1  0
 15 16  1  0
 16 17  1  0
 17 18  2  0
 18 19  1  0
 19 20  1  0
 20 21  1  0
 21 22  1  0
 22 23  1  0
 22 24  1  0
 24 25  1  0
 24 26  1  0
 19 27  1  0
 27 28  1  6
 27 29  1  0
 29 30  1  0
 30 31  1  0
 31 32  1  6
  7  5  1  0
 31 10  1  0
 31 13  1  0
 27 15  1  0
 24 18  1  0
  1 33  1  0
  1 34  1  0
  1 35  1  0
  2 36  1  6
  3 37  1  0
  3 38  1  0
  4 39  1  0
  4 40  1  0
  5 41  1  1
  8 42  1  0
  8 43  1  0
  8 44  1  0
  9 45  1  0
  9 46  1  0
  9 47  1  0
 10 48  1  1
 11 49  1  0
 11 50  1  0
 12 51  1  0
 12 52  1  0
 14 53  1  0
 14 54  1  0
 14 55  1  0
 15 56  1  6
 16 57  1  0
 16 58  1  0
 17 59  1  0
 19 60  1  1
 20 61  1  0
 20 62  1  0
 21 63  1  0
 21 64  1  0
 22 65  1  1
 23 66  1  0
 25 67  1  0
 25 68  1  0
 25 69  1  0
 26 70  1  0
 26 71  1  0
 26 72  1  0
 28 73  1  0
 28 74  1  0
 28 75  1  0
 29 76  1  0
 29 77  1  0
 30 78  1  0
 30 79  1  0
 32 80  1  0
 32 81  1  0
 32 82  1  0
M  END
>  <meeko>  (13) 
{"is_sidechain": [false], "intermolecular_energy": 2.731, "internal_energy": -0.839}

$$$$
EPH_relaxed_0001_pdb2pqr_Repair_37_r2_0001_out
     RDKit          3D

 82 86  0  0  0  0  0  0  0  0999 V2000
   -3.8660    7.0720   -3.3040 C   0  0  0  0  0  0  0  0  0  0  0  0
   -3.9060    7.2340   -1.7810 C   0  0  2  0  0  0  0  0  0  0  0  0
   -5.3320    7.0700   -1.2180 C   0  0  0  0  0  0  0  0  0  0  0  0
   -6.4260    7.6070   -2.1450 C   0  0  0  0  0  0  0  0  0  0  0  0
   -7.7370    7.7480   -1.4320 C   0  0  2  0  0  0  0  0  0  0  0  0
   -8.1350    6.5960   -0.6770 O   0  0  0  0  0  0  0  0  0  0  0  0
   -8.9740    6.9450   -1.7890 C   0  0  0  0  0  0  0  0  0  0  0  0
   -8.9600    5.9430   -2.9010 C   0  0  0  0  0  0  0  0  0  0  0  0
  -10.3140    7.4790   -1.3890 C   0  0  0  0  0  0  0  0  0  0  0  0
   -3.3440    8.5940   -1.3880 C   0  0  1  0  0  0  0  0  0  0  0  0
   -3.9730    9.1460   -0.0810 C   0  0  0  0  0  0  0  0  0  0  0  0
   -2.8550    9.9230    0.6610 C   0  0  0  0  0  0  0  0  0  0  0  0
   -1.7270   10.0760   -0.3860 C   0  0  1  0  0  0  0  0  0  0  0  0
   -2.1590   11.2900   -1.2670 C   0  0  0  0  0  0  0  0  0  0  0  0
   -0.2800   10.2600    0.1790 C   0  0  2  0  0  0  0  0  0  0  0  0
   -0.0650   11.5280    1.0230 C   0  0  0  0  0  0  0  0  0  0  0  0
    0.3820   12.7320    0.2610 C   0  0  0  0  0  0  0  0  0  0  0  0
    0.8750   12.7270   -0.9910 C   0  0  0  0  0  0  0  0  0  0  0  0
    1.1160   11.4080   -1.7370 C   0  0  1  0  0  0  0  0  0  0  0  0
    2.5180   11.4370   -2.4000 C   0  0  0  0  0  0  0  0  0  0  0  0
    2.7170   12.6570   -3.2940 C   0  0  0  0  0  0  0  0  0  0  0  0
    2.5270   13.9490   -2.5030 C   0  0  2  0  0  0  0  0  0  0  0  0
    3.5820   14.0610   -1.5420 O   0  0  0  0  0  0  0  0  0  0  0  0
    1.1520   14.0290   -1.7820 C   0  0  0  0  0  0  0  0  0  0  0  0
    0.0260   14.2120   -2.8290 C   0  0  0  0  0  0  0  0  0  0  0  0
    1.1460   15.3120   -0.9080 C   0  0  0  0  0  0  0  0  0  0  0  0
    0.8640   10.0810   -0.8990 C   0  0  1  0  0  0  0  0  0  0  0  0
    2.1560    9.6930   -0.1170 C   0  0  0  0  0  0  0  0  0  0  0  0
    0.5720    8.8940   -1.8910 C   0  0  0  0  0  0  0  0  0  0  0  0
   -0.8940    8.6910   -2.3190 C   0  0  0  0  0  0  0  0  0  0  0  0
   -1.8240    8.6800   -1.1010 C   0  0  2  0  0  0  0  0  0  0  0  0
   -1.4270    7.4560   -0.2070 C   0  0  0  0  0  0  0  0  0  0  0  0
   -3.6093    6.0324   -3.5555 H   0  0  0  0  0  0  0  0  0  0  0  0
   -4.8519    7.3184   -3.7250 H   0  0  0  0  0  0  0  0  0  0  0  0
   -3.1080    7.7490   -3.7250 H   0  0  0  0  0  0  0  0  0  0  0  0
   -3.2854    6.4365   -1.3465 H   0  0  0  0  0  0  0  0  0  0  0  0
   -5.5167    5.9992   -1.0470 H   0  0  0  0  0  0  0  0  0  0  0  0
   -5.3804    7.6581   -0.2897 H   0  0  0  0  0  0  0  0  0  0  0  0
   -6.1191    8.5926   -2.5251 H   0  0  0  0  0  0  0  0  0  0  0  0
   -6.5592    6.8907   -2.9691 H   0  0  0  0  0  0  0  0  0  0  0  0
   -7.5720    8.8266   -1.2927 H   0  0  0  0  0  0  0  0  0  0  0  0
   -8.9458    4.9272   -2.4791 H   0  0  0  0  0  0  0  0  0  0  0  0
   -9.8600    6.0702   -3.5205 H   0  0  0  0  0  0  0  0  0  0  0  0
   -8.0639    6.0953   -3.5205 H   0  0  0  0  0  0  0  0  0  0  0  0
  -10.3848    7.5072   -0.2916 H   0  0  0  0  0  0  0  0  0  0  0  0
  -10.4385    8.4954   -1.7907 H   0  0  0  0  0  0  0  0  0  0  0  0
  -11.1034    6.8268   -1.7907 H   0  0  0  0  0  0  0  0  0  0  0  0
   -3.5884    9.1631   -2.2970 H   0  0  0  0  0  0  0  0  0  0  0  0
   -4.8091    9.8202   -0.3185 H   0  0  0  0  0  0  0  0  0  0  0  0
   -4.3671    8.3300    0.5426 H   0  0  0  0  0  0  0  0  0  0  0  0
   -3.2180   10.9086    0.9878 H   0  0  0  0  0  0  0  0  0  0  0  0
   -2.5151    9.4013    1.5678 H   0  0  0  0  0  0  0  0  0  0  0  0
   -2.4567   12.1266   -0.6178 H   0  0  0  0  0  0  0  0  0  0  0  0
   -1.3162   11.6005   -1.9020 H   0  0  0  0  0  0  0  0  0  0  0  0
   -3.0085   10.9983   -1.9020 H   0  0  0  0  0  0  0  0  0  0  0  0
   -0.1917    9.4172    0.8804 H   0  0  0  0  0  0  0  0  0  0  0  0
   -1.0165   11.7726    1.5178 H   0  0  0  0  0  0  0  0  0  0  0  0
    0.7483   11.2925    1.7252 H   0  0  0  0  0  0  0  0  0  0  0  0
    0.3014   13.7058    0.7662 H   0  0  0  0  0  0  0  0  0  0  0  0
    0.3377   11.3505   -2.5122 H   0  0  0  0  0  0  0  0  0  0  0  0
    3.2820   11.4512   -1.6088 H   0  0  0  0  0  0  0  0  0  0  0  0
    2.6069   10.5414   -3.0325 H   0  0  0  0  0  0  0  0  0  0  0  0
    3.7349   12.6361   -3.7105 H   0  0  0  0  0  0  0  0  0  0  0  0
    1.9707   12.6264   -4.1015 H   0  0  0  0  0  0  0  0  0  0  0  0
    2.5538   14.7823   -3.2206 H   0  0  0  0  0  0  0  0  0  0  0  0
    3.2030   14.4460   -0.7340 H   0  0  0  0  0  0  0  0  0  0  0  0
   -0.9328   14.3678   -2.3129 H   0  0  0  0  0  0  0  0  0  0  0  0
    0.2495   15.0856   -3.4590 H   0  0  0  0  0  0  0  0  0  0  0  0
   -0.0386   13.3126   -3.4590 H   0  0  0  0  0  0  0  0  0  0  0  0
    1.1473   15.0312    0.1555 H   0  0  0  0  0  0  0  0  0  0  0  0
    2.0414   15.9112   -1.1301 H   0  0  0  0  0  0  0  0  0  0  0  0
    0.2451   15.9028   -1.1301 H   0  0  0  0  0  0  0  0  0  0  0  0
    1.9617    9.7514    0.9641 H   0  0  0  0  0  0  0  0  0  0  0  0
    2.4506    8.6668   -0.3817 H   0  0  0  0  0  0  0  0  0  0  0  0
    2.9672   10.3872   -0.3817 H   0  0  0  0  0  0  0  0  0  0  0  0
    1.1635    9.0684   -2.8019 H   0  0  0  0  0  0  0  0  0  0  0  0
    0.8385    7.9826   -1.3357 H   0  0  0  0  0  0  0  0  0  0  0  0
   -1.1898    9.5107   -2.9903 H   0  0  0  0  0  0  0  0  0  0  0  0
   -0.9784    7.7226   -2.8338 H   0  0  0  0  0  0  0  0  0  0  0  0
   -1.5167    7.7324    0.8539 H   0  0  0  0  0  0  0  0  0  0  0  0
   -2.0971    6.6110   -0.4236 H   0  0  0  0  0  0  0  0  0  0  0  0
   -0.3885    7.1652   -0.4236 H   0  0  0  0  0  0  0  0  0  0  0  0
  1  2  1  0
  2  3  1  0
  3  4  1  0
  4  5  1  0
  5  6  1  0
  6  7  1  0
  7  8  1  0
  7  9  1  0
  2 10  1  0
 10 11  1  0
 11 12  1  0
 12 13  1  0
 13 14  1  6
 13 15  1  0
 15 16  1  0
 16 17  1  0
 17 18  2  0
 18 19  1  0
 19 20  1  0
 20 21  1  0
 21 22  1  0
 22 23  1  0
 22 24  1  0
 24 25  1  0
 24 26  1  0
 19 27  1  0
 27 28  1  1
 27 29  1  0
 29 30  1  0
 30 31  1  0
 31 32  1  1
  7  5  1  0
 31 10  1  0
 31 13  1  0
 27 15  1  0
 24 18  1  0
  1 33  1  0
  1 34  1  0
  1 35  1  0
  2 36  1  1
  3 37  1  0
  3 38  1  0
  4 39  1  0
  4 40  1  0
  5 41  1  1
  8 42  1  0
  8 43  1  0
  8 44  1  0
  9 45  1  0
  9 46  1  0
  9 47  1  0
 10 48  1  6
 11 49  1  0
 11 50  1  0
 12 51  1  0
 12 52  1  0
 14 53  1  0
 14 54  1  0
 14 55  1  0
 15 56  1  1
 16 57  1  0
 16 58  1  0
 17 59  1  0
 19 60  1  6
 20 61  1  0
 20 62  1  0
 21 63  1  0
 21 64  1  0
 22 65  1  6
 23 66  1  0
 25 67  1  0
 25 68  1  0
 25 69  1  0
 26 70  1  0
 26 71  1  0
 26 72  1  0
 28 73  1  0
 28 74  1  0
 28 75  1  0
 29 76  1  0
 29 77  1  0
 30 78  1  0
 30 79  1  0
 32 80  1  0
 32 81  1  0
 32 82  1  0
M  END
>  <meeko>  (14) 
{"is_sidechain": [false], "intermolecular_energy": 2.731, "internal_energy": -0.839}

$$$$
EPH_relaxed_0001_pdb2pqr_Repair_37_r2_0001_out
     RDKit          3D

 82 86  0  0  0  0  0  0  0  0999 V2000
    0.8860   14.9710   -2.7190 C   0  0  0  0  0  0  0  0  0  0  0  0
    1.1660   14.2800   -4.0560 C   0  0  2  0  0  0  0  0  0  0  0  0
    0.4540   14.9790   -5.2310 C   0  0  0  0  0  0  0  0  0  0  0  0
    1.0420   14.6320   -6.6020 C   0  0  0  0  0  0  0  0  0  0  0  0
    0.8200   15.7330   -7.5950 C   0  0  2  0  0  0  0  0  0  0  0  0
    0.4170   15.2910   -8.8980 O   0  0  0  0  0  0  0  0  0  0  0  0
    1.6940   15.9450   -8.8170 C   0  0  0  0  0  0  0  0  0  0  0  0
    2.8560   15.0490   -9.1110 C   0  0  0  0  0  0  0  0  0  0  0  0
    1.7190   17.3000   -9.4520 C   0  0  0  0  0  0  0  0  0  0  0  0
    0.7420   12.8180   -3.9850 C   0  0  1  0  0  0  0  0  0  0  0  0
    1.8820   11.8440   -4.3860 C   0  0  0  0  0  0  0  0  0  0  0  0
    1.7230   10.5810   -3.5020 C   0  0  0  0  0  0  0  0  0  0  0  0
    0.3210   10.7240   -2.8660 C   0  0  1  0  0  0  0  0  0  0  0  0
   -0.6710   10.2320   -3.9670 C   0  0  0  0  0  0  0  0  0  0  0  0
    0.0970    9.9750   -1.5120 C   0  0  2  0  0  0  0  0  0  0  0  0
    0.2260    8.4440   -1.5840 C   0  0  0  0  0  0  0  0  0  0  0  0
   -1.0410    7.7100   -1.8760 C   0  0  0  0  0  0  0  0  0  0  0  0
   -2.2810    8.2260   -1.7920 C   0  0  0  0  0  0  0  0  0  0  0  0
   -2.5070    9.6530   -1.2740 C   0  0  1  0  0  0  0  0  0  0  0  0
   -3.6650    9.6510   -0.2420 C   0  0  0  0  0  0  0  0  0  0  0  0
   -4.9410    9.0220   -0.7940 C   0  0  0  0  0  0  0  0  0  0  0  0
   -4.6890    7.5860   -1.2450 C   0  0  2  0  0  0  0  0  0  0  0  0
   -4.3930    6.7870   -0.0950 O   0  0  0  0  0  0  0  0  0  0  0  0
   -3.5360    7.4610   -2.2790 C   0  0  0  0  0  0  0  0  0  0  0  0
   -3.9820    8.0700   -3.6320 C   0  0  0  0  0  0  0  0  0  0  0  0
   -3.2930    5.9500   -2.5430 C   0  0  0  0  0  0  0  0  0  0  0  0
   -1.2150   10.4090   -0.7410 C   0  0  1  0  0  0  0  0  0  0  0  0
   -0.9810   10.0680    0.7630 C   0  0  0  0  0  0  0  0  0  0  0  0
   -1.4640   11.9620   -0.8100 C   0  0  0  0  0  0  0  0  0  0  0  0
   -1.1110   12.6640   -2.1360 C   0  0  0  0  0  0  0  0  0  0  0  0
    0.2940   12.2740   -2.6050 C   0  0  2  0  0  0  0  0  0  0  0  0
    1.3150   12.7750   -1.5280 C   0  0  0  0  0  0  0  0  0  0  0  0
    1.1591   14.2970   -1.8937 H   0  0  0  0  0  0  0  0  0  0  0  0
    1.4813   15.8935   -2.6513 H   0  0  0  0  0  0  0  0  0  0  0  0
   -0.1836   15.2189   -2.6513 H   0  0  0  0  0  0  0  0  0  0  0  0
    2.2485   14.3440   -4.2410 H   0  0  0  0  0  0  0  0  0  0  0  0
   -0.6049   14.6813   -5.2219 H   0  0  0  0  0  0  0  0  0  0  0  0
    0.5871   16.0617   -5.0890 H   0  0  0  0  0  0  0  0  0  0  0  0
    2.1234   14.4624   -6.4936 H   0  0  0  0  0  0  0  0  0  0  0  0
    0.5366   13.7282   -6.9732 H   0  0  0  0  0  0  0  0  0  0  0  0
    0.4851   16.4155   -6.8000 H   0  0  0  0  0  0  0  0  0  0  0  0
    3.3021   14.7051   -8.1662 H   0  0  0  0  0  0  0  0  0  0  0  0
    2.5116   14.1804   -9.6915 H   0  0  0  0  0  0  0  0  0  0  0  0
    3.6085   15.6029   -9.6915 H   0  0  0  0  0  0  0  0  0  0  0  0
    1.7332   18.0719   -8.6685 H   0  0  0  0  0  0  0  0  0  0  0  0
    2.6191   17.3954  -10.0771 H   0  0  0  0  0  0  0  0  0  0  0  0
    0.8231   17.4286  -10.0771 H   0  0  0  0  0  0  0  0  0  0  0  0
   -0.1129   12.8407   -4.6769 H   0  0  0  0  0  0  0  0  0  0  0  0
    1.7944   11.5757   -5.4492 H   0  0  0  0  0  0  0  0  0  0  0  0
    2.8682   12.3081   -4.2378 H   0  0  0  0  0  0  0  0  0  0  0  0
    1.7805    9.6688   -4.1141 H   0  0  0  0  0  0  0  0  0  0  0  0
    2.5176   10.4984   -2.7458 H   0  0  0  0  0  0  0  0  0  0  0  0
   -1.5590    9.7916   -3.4901 H   0  0  0  0  0  0  0  0  0  0  0  0
   -0.9755   11.0835   -4.5932 H   0  0  0  0  0  0  0  0  0  0  0  0
   -0.1773    9.4743   -4.5932 H   0  0  0  0  0  0  0  0  0  0  0  0
    0.9504   10.3182   -0.9086 H   0  0  0  0  0  0  0  0  0  0  0  0
    0.9498    8.2008   -2.3758 H   0  0  0  0  0  0  0  0  0  0  0  0
    0.5425    8.1180   -0.5822 H   0  0  0  0  0  0  0  0  0  0  0  0
   -0.9534    6.6583   -2.1861 H   0  0  0  0  0  0  0  0  0  0  0  0
   -2.7895   10.2546   -2.1505 H   0  0  0  0  0  0  0  0  0  0  0  0
   -3.3465    9.0822    0.6440 H   0  0  0  0  0  0  0  0  0  0  0  0
   -3.8906   10.6982    0.0081 H   0  0  0  0  0  0  0  0  0  0  0  0
   -5.7118    9.0230   -0.0092 H   0  0  0  0  0  0  0  0  0  0  0  0
   -5.2756    9.6094   -1.6617 H   0  0  0  0  0  0  0  0  0  0  0  0
   -5.6010    7.2343   -1.7495 H   0  0  0  0  0  0  0  0  0  0  0  0
   -3.9510    5.9790   -0.4040 H   0  0  0  0  0  0  0  0  0  0  0  0
   -4.6227    8.9448   -3.4469 H   0  0  0  0  0  0  0  0  0  0  0  0
   -3.0954    8.3795   -4.2048 H   0  0  0  0  0  0  0  0  0  0  0  0
   -4.5446    7.3181   -4.2048 H   0  0  0  0  0  0  0  0  0  0  0  0
   -3.2076    5.4192   -1.5833 H   0  0  0  0  0  0  0  0  0  0  0  0
   -4.1364    5.5377   -3.1163 H   0  0  0  0  0  0  0  0  0  0  0  0
   -2.3629    5.8229   -3.1163 H   0  0  0  0  0  0  0  0  0  0  0  0
   -1.4918   10.8124    1.3915 H   0  0  0  0  0  0  0  0  0  0  0  0
   -1.3836    9.0674    0.9791 H   0  0  0  0  0  0  0  0  0  0  0  0
    0.0975   10.0838    0.9791 H   0  0  0  0  0  0  0  0  0  0  0  0
   -2.5324   12.1367   -0.6150 H   0  0  0  0  0  0  0  0  0  0  0  0
   -0.7823   12.3963   -0.0639 H   0  0  0  0  0  0  0  0  0  0  0  0
   -1.8414   12.3703   -2.9043 H   0  0  0  0  0  0  0  0  0  0  0  0
   -1.1380   13.7519   -1.9753 H   0  0  0  0  0  0  0  0  0  0  0  0
    0.9138   12.5781   -0.5229 H   0  0  0  0  0  0  0  0  0  0  0  0
    2.2698   12.2430   -1.6524 H   0  0  0  0  0  0  0  0  0  0  0  0
    1.4785   13.8557   -1.6524 H   0  0  0  0  0  0  0  0  0  0  0  0
  1  2  1  0
  2  3  1  0
  3  4  1  0
  4  5  1  0
  5  6  1  0
  6  7  1  0
  7  8  1  0
  7  9  1  0
  2 10  1  0
 10 11  1  0
 11 12  1  0
 12 13  1  0
 13 14  1  6
 13 15  1  0
 15 16  1  0
 16 17  1  0
 17 18  2  0
 18 19  1  0
 19 20  1  0
 20 21  1  0
 21 22  1  0
 22 23  1  0
 22 24  1  0
 24 25  1  0
 24 26  1  0
 19 27  1  0
 27 28  1  1
 27 29  1  0
 29 30  1  0
 30 31  1  0
 31 32  1  1
  7  5  1  0
 31 10  1  0
 31 13  1  0
 27 15  1  0
 24 18  1  0
  1 33  1  0
  1 34  1  0
  1 35  1  0
  2 36  1  6
  3 37  1  0
  3 38  1  0
  4 39  1  0
  4 40  1  0
  5 41  1  1
  8 42  1  0
  8 43  1  0
  8 44  1  0
  9 45  1  0
  9 46  1  0
  9 47  1  0
 10 48  1  6
 11 49  1  0
 11 50  1  0
 12 51  1  0
 12 52  1  0
 14 53  1  0
 14 54  1  0
 14 55  1  0
 15 56  1  1
 16 57  1  0
 16 58  1  0
 17 59  1  0
 19 60  1  6
 20 61  1  0
 20 62  1  0
 21 63  1  0
 21 64  1  0
 22 65  1  6
 23 66  1  0
 25 67  1  0
 25 68  1  0
 25 69  1  0
 26 70  1  0
 26 71  1  0
 26 72  1  0
 28 73  1  0
 28 74  1  0
 28 75  1  0
 29 76  1  0
 29 77  1  0
 30 78  1  0
 30 79  1  0
 32 80  1  0
 32 81  1  0
 32 82  1  0
M  END
>  <meeko>  (15) 
{"is_sidechain": [false], "intermolecular_energy": 2.731, "internal_energy": -0.839}

$$$$
EPH_relaxed_0001_pdb2pqr_Repair_37_r2_0001_out
     RDKit          3D

 82 86  0  0  0  0  0  0  0  0999 V2000
    2.6830   18.1220   -3.6700 C   0  0  0  0  0  0  0  0  0  0  0  0
    2.1740   18.0740   -2.2270 C   0  0  2  0  0  0  0  0  0  0  0  0
    2.8620   19.1250   -1.3330 C   0  0  0  0  0  0  0  0  0  0  0  0
    3.3790   18.5610   -0.0060 C   0  0  0  0  0  0  0  0  0  0  0  0
    3.2890   19.5710    1.0980 C   0  0  2  0  0  0  0  0  0  0  0  0
    4.5330   20.1940    1.4420 O   0  0  0  0  0  0  0  0  0  0  0  0
    3.9290   19.3810    2.4600 C   0  0  0  0  0  0  0  0  0  0  0  0
    4.7050   18.1450    2.7910 C   0  0  0  0  0  0  0  0  0  0  0  0
    3.3930   20.1630    3.6180 C   0  0  0  0  0  0  0  0  0  0  0  0
    2.3830   16.6800   -1.6470 C   0  0  1  0  0  0  0  0  0  0  0  0
    2.9730   16.7120   -0.2130 C   0  0  0  0  0  0  0  0  0  0  0  0
    2.3480   15.5180    0.5550 C   0  0  0  0  0  0  0  0  0  0  0  0
    1.6860   14.6530   -0.5430 C   0  0  1  0  0  0  0  0  0  0  0  0
    2.8520   13.8140   -1.1510 C   0  0  0  0  0  0  0  0  0  0  0  0
    0.4990   13.7440   -0.0830 C   0  0  2  0  0  0  0  0  0  0  0  0
    0.8660   12.6660    0.9510 C   0  0  0  0  0  0  0  0  0  0  0  0
    1.2840   11.3510    0.3800 C   0  0  0  0  0  0  0  0  0  0  0  0
    1.0920   10.9540   -0.8910 C   0  0  0  0  0  0  0  0  0  0  0  0
    0.3070   11.8260   -1.8790 C   0  0  1  0  0  0  0  0  0  0  0  0
   -0.7150   10.9470   -2.6470 C   0  0  0  0  0  0  0  0  0  0  0  0
   -0.0610    9.7450   -3.3220 C   0  0  0  0  0  0  0  0  0  0  0  0
    0.6600    8.8710   -2.2990 C   0  0  2  0  0  0  0  0  0  0  0  0
   -0.3120    8.2800   -1.4310 O   0  0  0  0  0  0  0  0  0  0  0  0
    1.7080    9.6510   -1.4580 C   0  0  0  0  0  0  0  0  0  0  0  0
    2.9140   10.0320   -2.3520 C   0  0  0  0  0  0  0  0  0  0  0  0
    2.2600    8.6880   -0.3720 C   0  0  0  0  0  0  0  0  0  0  0  0
   -0.3520   13.1390   -1.2720 C   0  0  1  0  0  0  0  0  0  0  0  0
   -1.7590   12.8070   -0.6890 C   0  0  0  0  0  0  0  0  0  0  0  0
   -0.5850   14.1790   -2.4310 C   0  0  0  0  0  0  0  0  0  0  0  0
    0.5830   15.1290   -2.7580 C   0  0  0  0  0  0  0  0  0  0  0  0
    1.1300   15.7830   -1.4850 C   0  0  2  0  0  0  0  0  0  0  0  0
   -0.0150   16.6510   -0.8620 C   0  0  0  0  0  0  0  0  0  0  0  0
    3.7781   18.2253   -3.6693 H   0  0  0  0  0  0  0  0  0  0  0  0
    2.4026   17.1934   -4.1888 H   0  0  0  0  0  0  0  0  0  0  0  0
    2.2340   18.9818   -4.1888 H   0  0  0  0  0  0  0  0  0  0  0  0
    1.0999   18.3104   -2.2478 H   0  0  0  0  0  0  0  0  0  0  0  0
    3.7138   19.5474   -1.8862 H   0  0  0  0  0  0  0  0  0  0  0  0
    2.1041   19.8832   -1.0866 H   0  0  0  0  0  0  0  0  0  0  0  0
    2.7775   17.6811    0.2659 H   0  0  0  0  0  0  0  0  0  0  0  0
    4.4369   18.2899   -0.1375 H   0  0  0  0  0  0  0  0  0  0  0  0
    2.2682   19.8465    0.7944 H   0  0  0  0  0  0  0  0  0  0  0  0
    4.7732   18.0364    3.8835 H   0  0  0  0  0  0  0  0  0  0  0  0
    4.1955   17.2675    2.3664 H   0  0  0  0  0  0  0  0  0  0  0  0
    5.7168   18.2226    2.3664 H   0  0  0  0  0  0  0  0  0  0  0  0
    3.7154   19.6927    4.5587 H   0  0  0  0  0  0  0  0  0  0  0  0
    3.7757   21.1933    3.5732 H   0  0  0  0  0  0  0  0  0  0  0  0
    2.2940   20.1778    3.5732 H   0  0  0  0  0  0  0  0  0  0  0  0
    3.0508   16.2592   -2.4131 H   0  0  0  0  0  0  0  0  0  0  0  0
    4.0673   16.6067   -0.2512 H   0  0  0  0  0  0  0  0  0  0  0  0
    2.7455   17.6653    0.2864 H   0  0  0  0  0  0  0  0  0  0  0  0
    3.1251   14.9467    1.0839 H   0  0  0  0  0  0  0  0  0  0  0  0
    1.6282   15.8444    1.3201 H   0  0  0  0  0  0  0  0  0  0  0  0
    3.4542   13.3807   -0.3389 H   0  0  0  0  0  0  0  0  0  0  0  0
    2.4374   13.0058   -1.7715 H   0  0  0  0  0  0  0  0  0  0  0  0
    3.4866   14.4639   -1.7715 H   0  0  0  0  0  0  0  0  0  0  0  0
   -0.1523   14.4554    0.4459 H   0  0  0  0  0  0  0  0  0  0  0  0
    1.6956   13.0501    1.5628 H   0  0  0  0  0  0  0  0  0  0  0  0
   -0.0513   12.4706    1.5258 H   0  0  0  0  0  0  0  0  0  0  0  0
    1.7919   10.6473    1.0559 H   0  0  0  0  0  0  0  0  0  0  0  0
    1.0491   12.2344   -2.5807 H   0  0  0  0  0  0  0  0  0  0  0  0
   -1.4721   10.5838   -1.9364 H   0  0  0  0  0  0  0  0  0  0  0  0
   -1.1651   11.5688   -3.4349 H   0  0  0  0  0  0  0  0  0  0  0  0
   -0.8366    9.1474   -3.8233 H   0  0  0  0  0  0  0  0  0  0  0  0
    0.6752   10.1102   -4.0532 H   0  0  0  0  0  0  0  0  0  0  0  0
    1.2152    8.1011   -2.8550 H   0  0  0  0  0  0  0  0  0  0  0  0
    0.0100    8.3790   -0.5190 H   0  0  0  0  0  0  0  0  0  0  0  0
    3.7703   10.3025   -1.7168 H   0  0  0  0  0  0  0  0  0  0  0  0
    3.1847    9.1756   -2.9871 H   0  0  0  0  0  0  0  0  0  0  0  0
    2.6435   10.8885   -2.9871 H   0  0  0  0  0  0  0  0  0  0  0  0
    2.0297    9.0899    0.6257 H   0  0  0  0  0  0  0  0  0  0  0  0
    1.7915    7.6993   -0.4862 H   0  0  0  0  0  0  0  0  0  0  0  0
    3.3499    8.5926   -0.4862 H   0  0  0  0  0  0  0  0  0  0  0  0
   -1.7124   12.8180    0.4100 H   0  0  0  0  0  0  0  0  0  0  0  0
   -2.4850   13.5585   -1.0328 H   0  0  0  0  0  0  0  0  0  0  0  0
   -2.0725   11.8102   -1.0328 H   0  0  0  0  0  0  0  0  0  0  0  0
   -0.8186   13.6123   -3.3444 H   0  0  0  0  0  0  0  0  0  0  0  0
   -1.3949   14.8317   -2.0731 H   0  0  0  0  0  0  0  0  0  0  0  0
    1.3876   14.5567   -3.2429 H   0  0  0  0  0  0  0  0  0  0  0  0
    0.2152   15.9196   -3.4286 H   0  0  0  0  0  0  0  0  0  0  0  0
    0.0457   16.6050    0.2354 H   0  0  0  0  0  0  0  0  0  0  0  0
    0.0951   17.6946   -1.1919 H   0  0  0  0  0  0  0  0  0  0  0  0
   -0.9900   16.2631   -1.1919 H   0  0  0  0  0  0  0  0  0  0  0  0
  1  2  1  0
  2  3  1  0
  3  4  1  0
  4  5  1  0
  5  6  1  0
  6  7  1  0
  7  8  1  0
  7  9  1  0
  2 10  1  0
 10 11  1  0
 11 12  1  0
 12 13  1  0
 13 14  1  6
 13 15  1  0
 15 16  1  0
 16 17  1  0
 17 18  2  0
 18 19  1  0
 19 20  1  0
 20 21  1  0
 21 22  1  0
 22 23  1  0
 22 24  1  0
 24 25  1  0
 24 26  1  0
 19 27  1  0
 27 28  1  1
 27 29  1  0
 29 30  1  0
 30 31  1  0
 31 32  1  1
  7  5  1  0
 31 10  1  0
 31 13  1  0
 27 15  1  0
 24 18  1  0
  1 33  1  0
  1 34  1  0
  1 35  1  0
  2 36  1  6
  3 37  1  0
  3 38  1  0
  4 39  1  0
  4 40  1  0
  5 41  1  1
  8 42  1  0
  8 43  1  0
  8 44  1  0
  9 45  1  0
  9 46  1  0
  9 47  1  0
 10 48  1  6
 11 49  1  0
 11 50  1  0
 12 51  1  0
 12 52  1  0
 14 53  1  0
 14 54  1  0
 14 55  1  0
 15 56  1  1
 16 57  1  0
 16 58  1  0
 17 59  1  0
 19 60  1  6
 20 61  1  0
 20 62  1  0
 21 63  1  0
 21 64  1  0
 22 65  1  6
 23 66  1  0
 25 67  1  0
 25 68  1  0
 25 69  1  0
 26 70  1  0
 26 71  1  0
 26 72  1  0
 28 73  1  0
 28 74  1  0
 28 75  1  0
 29 76  1  0
 29 77  1  0
 30 78  1  0
 30 79  1  0
 32 80  1  0
 32 81  1  0
 32 82  1  0
M  END
>  <meeko>  (16) 
{"is_sidechain": [false], "intermolecular_energy": 2.731, "internal_energy": -0.839}

$$$$
EPH_relaxed_0001_pdb2pqr_Repair_37_r2_0001_out
     RDKit          3D

 82 86  0  0  0  0  0  0  0  0999 V2000
   -5.1810    6.8940   -0.1200 C   0  0  0  0  0  0  0  0  0  0  0  0
   -5.2130    7.9030   -1.2710 C   0  0  2  0  0  0  0  0  0  0  0  0
   -4.7530    9.3060   -0.8260 C   0  0  0  0  0  0  0  0  0  0  0  0
   -3.4630    9.2980   -0.0000 C   0  0  0  0  0  0  0  0  0  0  0  0
   -2.2790    8.8980   -0.8270 C   0  0  2  0  0  0  0  0  0  0  0  0
   -1.0100    9.1040   -0.1930 O   0  0  0  0  0  0  0  0  0  0  0  0
   -1.2650    9.8880   -1.3700 C   0  0  0  0  0  0  0  0  0  0  0  0
   -1.3900   11.3560   -1.1080 C   0  0  0  0  0  0  0  0  0  0  0  0
   -0.4380    9.4890   -2.5520 C   0  0  0  0  0  0  0  0  0  0  0  0
   -6.6170    7.9780   -1.8580 C   0  0  1  0  0  0  0  0  0  0  0  0
   -6.7260    7.2760   -3.2380 C   0  0  0  0  0  0  0  0  0  0  0  0
   -8.1390    6.6420   -3.3080 C   0  0  0  0  0  0  0  0  0  0  0  0
   -8.9080    7.2720   -2.1240 C   0  0  1  0  0  0  0  0  0  0  0  0
   -9.3720    8.6680   -2.6450 C   0  0  0  0  0  0  0  0  0  0  0  0
  -10.1050    6.4410   -1.5560 C   0  0  2  0  0  0  0  0  0  0  0  0
  -11.2550    6.1930   -2.5480 C   0  0  0  0  0  0  0  0  0  0  0  0
  -12.3340    7.2240   -2.5430 C   0  0  0  0  0  0  0  0  0  0  0  0
  -12.5270    8.1500   -1.5850 C   0  0  0  0  0  0  0  0  0  0  0  0
  -11.6680    8.1600   -0.3140 C   0  0  1  0  0  0  0  0  0  0  0  0
  -12.5820    8.3290    0.9270 C   0  0  0  0  0  0  0  0  0  0  0  0
  -13.4870    9.5530    0.8260 C   0  0  0  0  0  0  0  0  0  0  0  0
  -14.3670    9.4780   -0.4200 C   0  0  2  0  0  0  0  0  0  0  0  0
  -15.2870    8.3930   -0.2690 O   0  0  0  0  0  0  0  0  0  0  0  0
  -13.5560    9.2980   -1.7330 C   0  0  0  0  0  0  0  0  0  0  0  0
  -12.7860   10.6030   -2.0530 C   0  0  0  0  0  0  0  0  0  0  0  0
  -14.5670    9.0950   -2.8940 C   0  0  0  0  0  0  0  0  0  0  0  0
  -10.6450    6.9530   -0.1600 C   0  0  1  0  0  0  0  0  0  0  0  0
  -11.3530    5.7390    0.5160 C   0  0  0  0  0  0  0  0  0  0  0  0
   -9.4830    7.3860    0.8100 C   0  0  0  0  0  0  0  0  0  0  0  0
   -8.2740    8.0970    0.1710 C   0  0  0  0  0  0  0  0  0  0  0  0
   -7.7630    7.3220   -1.0470 C   0  0  2  0  0  0  0  0  0  0  0  0
   -7.2690    5.9210   -0.5510 C   0  0  0  0  0  0  0  0  0  0  0  0
   -5.1981    7.4316    0.8395 H   0  0  0  0  0  0  0  0  0  0  0  0
   -6.0587    6.2342   -0.1863 H   0  0  0  0  0  0  0  0  0  0  0  0
   -4.2633    6.2912   -0.1863 H   0  0  0  0  0  0  0  0  0  0  0  0
   -4.5075    7.5516   -2.0384 H   0  0  0  0  0  0  0  0  0  0  0  0
   -4.5861    9.9180   -1.7247 H   0  0  0  0  0  0  0  0  0  0  0  0
   -5.5450    9.7144   -0.1811 H   0  0  0  0  0  0  0  0  0  0  0  0
   -3.2917   10.3068    0.4037 H   0  0  0  0  0  0  0  0  0  0  0  0
   -3.5791    8.5640    0.8110 H   0  0  0  0  0  0  0  0  0  0  0  0
   -2.8560    8.0945   -1.3080 H   0  0  0  0  0  0  0  0  0  0  0  0
   -1.4052   11.5348   -0.0227 H   0  0  0  0  0  0  0  0  0  0  0  0
   -0.5334   11.8824   -1.5543 H   0  0  0  0  0  0  0  0  0  0  0  0
   -2.3232   11.7300   -1.5543 H   0  0  0  0  0  0  0  0  0  0  0  0
    0.5022    9.0354   -2.2053 H   0  0  0  0  0  0  0  0  0  0  0  0
   -0.9945    8.7603   -3.1597 H   0  0  0  0  0  0  0  0  0  0  0  0
   -0.2139   10.3781   -3.1597 H   0  0  0  0  0  0  0  0  0  0  0  0
   -6.7489    9.0698   -1.8810 H   0  0  0  0  0  0  0  0  0  0  0  0
   -6.5999    8.0102   -4.0473 H   0  0  0  0  0  0  0  0  0  0  0  0
   -5.9441    6.5111   -3.3544 H   0  0  0  0  0  0  0  0  0  0  0  0
   -8.6276    6.8867   -4.2627 H   0  0  0  0  0  0  0  0  0  0  0  0
   -8.1071    5.5441   -3.2479 H   0  0  0  0  0  0  0  0  0  0  0  0
   -9.5902    9.3245   -1.7898 H   0  0  0  0  0  0  0  0  0  0  0  0
   -8.5741    9.1150   -3.2562 H   0  0  0  0  0  0  0  0  0  0  0  0
  -10.2787    8.5484   -3.2562 H   0  0  0  0  0  0  0  0  0  0  0  0
   -9.6465    5.4570   -1.3782 H   0  0  0  0  0  0  0  0  0  0  0  0
  -10.8277    6.1530   -3.5608 H   0  0  0  0  0  0  0  0  0  0  0  0
  -11.7310    5.2525   -2.2335 H   0  0  0  0  0  0  0  0  0  0  0  0
  -13.0307    7.2276   -3.3942 H   0  0  0  0  0  0  0  0  0  0  0  0
  -10.9990    9.0285   -0.4049 H   0  0  0  0  0  0  0  0  0  0  0  0
  -13.2116    7.4324    1.0257 H   0  0  0  0  0  0  0  0  0  0  0  0
  -11.9319    8.4664    1.8037 H   0  0  0  0  0  0  0  0  0  0  0  0
  -14.1289    9.6011    1.7180 H   0  0  0  0  0  0  0  0  0  0  0  0
  -12.8566   10.4519    0.7578 H   0  0  0  0  0  0  0  0  0  0  0  0
  -14.8964   10.4381   -0.5088 H   0  0  0  0  0  0  0  0  0  0  0  0
  -14.8040    7.6500    0.1300 H   0  0  0  0  0  0  0  0  0  0  0  0
  -12.4948   11.0965   -1.1141 H   0  0  0  0  0  0  0  0  0  0  0  0
  -11.8846   10.3633   -2.6361 H   0  0  0  0  0  0  0  0  0  0  0  0
  -13.4317   11.2761   -2.6361 H   0  0  0  0  0  0  0  0  0  0  0  0
  -15.5660    8.8944   -2.4794 H   0  0  0  0  0  0  0  0  0  0  0  0
  -14.6024   10.0040   -3.5125 H   0  0  0  0  0  0  0  0  0  0  0  0
  -14.2488    8.2428   -3.5125 H   0  0  0  0  0  0  0  0  0  0  0  0
  -11.2930    5.8419    1.6095 H   0  0  0  0  0  0  0  0  0  0  0  0
  -12.4085    5.7119    0.2076 H   0  0  0  0  0  0  0  0  0  0  0  0
  -10.8569    4.8069    0.2076 H   0  0  0  0  0  0  0  0  0  0  0  0
   -9.9117    8.0672    1.5598 H   0  0  0  0  0  0  0  0  0  0  0  0
   -9.0823    6.4460    1.2173 H   0  0  0  0  0  0  0  0  0  0  0  0
   -8.5761    9.1062   -0.1455 H   0  0  0  0  0  0  0  0  0  0  0  0
   -7.4661    8.1526    0.9155 H   0  0  0  0  0  0  0  0  0  0  0  0
   -7.2626    5.9028    0.5488 H   0  0  0  0  0  0  0  0  0  0  0  0
   -7.9458    5.1395   -0.9267 H   0  0  0  0  0  0  0  0  0  0  0  0
   -6.2517    5.7368   -0.9267 H   0  0  0  0  0  0  0  0  0  0  0  0
  1  2  1  0
  2  3  1  0
  3  4  1  0
  4  5  1  0
  5  6  1  0
  6  7  1  0
  7  8  1  0
  7  9  1  0
  2 10  1  0
 10 11  1  0
 11 12  1  0
 12 13  1  0
 13 14  1  6
 13 15  1  0
 15 16  1  0
 16 17  1  0
 17 18  2  0
 18 19  1  0
 19 20  1  0
 20 21  1  0
 21 22  1  0
 22 23  1  0
 22 24  1  0
 24 25  1  0
 24 26  1  0
 19 27  1  0
 27 28  1  1
 27 29  1  0
 29 30  1  0
 30 31  1  0
 31 32  1  1
  7  5  1  0
 31 10  1  0
 31 13  1  0
 27 15  1  0
 24 18  1  0
  1 33  1  0
  1 34  1  0
  1 35  1  0
  2 36  1  6
  3 37  1  0
  3 38  1  0
  4 39  1  0
  4 40  1  0
  5 41  1  6
  8 42  1  0
  8 43  1  0
  8 44  1  0
  9 45  1  0
  9 46  1  0
  9 47  1  0
 10 48  1  6
 11 49  1  0
 11 50  1  0
 12 51  1  0
 12 52  1  0
 14 53  1  0
 14 54  1  0
 14 55  1  0
 15 56  1  1
 16 57  1  0
 16 58  1  0
 17 59  1  0
 19 60  1  6
 20 61  1  0
 20 62  1  0
 21 63  1  0
 21 64  1  0
 22 65  1  6
 23 66  1  0
 25 67  1  0
 25 68  1  0
 25 69  1  0
 26 70  1  0
 26 71  1  0
 26 72  1  0
 28 73  1  0
 28 74  1  0
 28 75  1  0
 29 76  1  0
 29 77  1  0
 30 78  1  0
 30 79  1  0
 32 80  1  0
 32 81  1  0
 32 82  1  0
M  END
>  <meeko>  (17) 
{"is_sidechain": [false], "intermolecular_energy": 2.731, "internal_energy": -0.839}

$$$$
EPH_relaxed_0001_pdb2pqr_Repair_37_r2_0001_out
     RDKit          3D

 82 86  0  0  0  0  0  0  0  0999 V2000
    1.2040   14.6950   -5.3510 C   0  0  0  0  0  0  0  0  0  0  0  0
    0.5450   14.3480   -4.0130 C   0  0  2  0  0  0  0  0  0  0  0  0
    1.4330   14.7300   -2.8120 C   0  0  0  0  0  0  0  0  0  0  0  0
    1.2010   16.1570   -2.3050 C   0  0  0  0  0  0  0  0  0  0  0  0
    1.9280   16.4130   -1.0200 C   0  0  2  0  0  0  0  0  0  0  0  0
    1.1800   17.1530   -0.0460 O   0  0  0  0  0  0  0  0  0  0  0  0
    2.3580   17.7950   -0.5630 C   0  0  0  0  0  0  0  0  0  0  0  0
    2.0760   19.0120   -1.3870 C   0  0  0  0  0  0  0  0  0  0  0  0
    3.4700   17.9060    0.4330 C   0  0  0  0  0  0  0  0  0  0  0  0
    0.2180   12.8600   -3.9660 C   0  0  1  0  0  0  0  0  0  0  0  0
    1.4130   11.9710   -4.4020 C   0  0  0  0  0  0  0  0  0  0  0  0
    1.3490   10.6830   -3.5410 C   0  0  0  0  0  0  0  0  0  0  0  0
   -0.0500   10.7210   -2.8840 C   0  0  1  0  0  0  0  0  0  0  0  0
   -1.0240   10.1870   -3.9800 C   0  0  0  0  0  0  0  0  0  0  0  0
   -0.2050    9.9340   -1.5420 C   0  0  2  0  0  0  0  0  0  0  0  0
    0.0230    8.4160   -1.6460 C   0  0  0  0  0  0  0  0  0  0  0  0
   -1.1980    7.6070   -1.9360 C   0  0  0  0  0  0  0  0  0  0  0  0
   -2.4680    8.0390   -1.8240 C   0  0  0  0  0  0  0  0  0  0  0  0
   -2.7780    9.4380   -1.2750 C   0  0  1  0  0  0  0  0  0  0  0  0
   -3.9180    9.3410   -0.2270 C   0  0  0  0  0  0  0  0  0  0  0  0
   -5.1580    8.6410   -0.7750 C   0  0  0  0  0  0  0  0  0  0  0  0
   -4.8210    7.2320   -1.2580 C   0  0  2  0  0  0  0  0  0  0  0  0
   -4.4560    6.4330   -0.1290 O   0  0  0  0  0  0  0  0  0  0  0  0
   -3.6770    7.2030   -2.3100 C   0  0  0  0  0  0  0  0  0  0  0  0
   -4.1820    7.8080   -3.6440 C   0  0  0  0  0  0  0  0  0  0  0  0
   -3.3400    5.7170   -2.6070 C   0  0  0  0  0  0  0  0  0  0  0  0
   -1.5300   10.2670   -0.7440 C   0  0  1  0  0  0  0  0  0  0  0  0
   -1.2520    9.9130    0.7490 C   0  0  0  0  0  0  0  0  0  0  0  0
   -1.8800   11.8010   -0.7790 C   0  0  0  0  0  0  0  0  0  0  0  0
   -1.5940   12.5500   -2.0950 C   0  0  0  0  0  0  0  0  0  0  0  0
   -0.1740   12.2610   -2.5910 C   0  0  2  0  0  0  0  0  0  0  0  0
    0.8290   12.8070   -1.5180 C   0  0  0  0  0  0  0  0  0  0  0  0
    2.1636   15.2003   -5.1670 H   0  0  0  0  0  0  0  0  0  0  0  0
    1.3794   13.7723   -5.9236 H   0  0  0  0  0  0  0  0  0  0  0  0
    0.5424   15.3617   -5.9236 H   0  0  0  0  0  0  0  0  0  0  0  0
   -0.3819   14.9355   -3.9382 H   0  0  0  0  0  0  0  0  0  0  0  0
    1.2241   14.0306   -1.9891 H   0  0  0  0  0  0  0  0  0  0  0  0
    2.4772   14.6755   -3.1535 H   0  0  0  0  0  0  0  0  0  0  0  0
    1.5584   16.8678   -3.0646 H   0  0  0  0  0  0  0  0  0  0  0  0
    0.1240   16.2851   -2.1214 H   0  0  0  0  0  0  0  0  0  0  0  0
    2.4752   15.4633   -1.1129 H   0  0  0  0  0  0  0  0  0  0  0  0
    1.8780   19.8665   -0.7232 H   0  0  0  0  0  0  0  0  0  0  0  0
    2.9463   19.2348   -2.0218 H   0  0  0  0  0  0  0  0  0  0  0  0
    1.1964   18.8293   -2.0218 H   0  0  0  0  0  0  0  0  0  0  0  0
    3.0558   17.8647    1.4512 H   0  0  0  0  0  0  0  0  0  0  0  0
    4.1749   17.0738    0.2899 H   0  0  0  0  0  0  0  0  0  0  0  0
    3.9965   18.8612    0.2899 H   0  0  0  0  0  0  0  0  0  0  0  0
   -0.6466   12.8399   -4.6457 H   0  0  0  0  0  0  0  0  0  0  0  0
    1.3276   11.7181   -5.4691 H   0  0  0  0  0  0  0  0  0  0  0  0
    2.3691   12.4956   -4.2580 H   0  0  0  0  0  0  0  0  0  0  0  0
    1.4573    9.7885   -4.1720 H   0  0  0  0  0  0  0  0  0  0  0  0
    2.1578   10.6385   -2.7968 H   0  0  0  0  0  0  0  0  0  0  0  0
   -1.8916    9.7113   -3.4993 H   0  0  0  0  0  0  0  0  0  0  0  0
   -1.3653   11.0242   -4.6066 H   0  0  0  0  0  0  0  0  0  0  0  0
   -0.5017    9.4491   -4.6066 H   0  0  0  0  0  0  0  0  0  0  0  0
    0.6327   10.3213   -0.9435 H   0  0  0  0  0  0  0  0  0  0  0  0
    0.7497    8.2357   -2.4518 H   0  0  0  0  0  0  0  0  0  0  0  0
    0.3750    8.0921   -0.6554 H   0  0  0  0  0  0  0  0  0  0  0  0
   -1.0469    6.5697   -2.2695 H   0  0  0  0  0  0  0  0  0  0  0  0
   -3.1114   10.0360   -2.1359 H   0  0  0  0  0  0  0  0  0  0  0  0
   -3.5502    8.7772    0.6430 H   0  0  0  0  0  0  0  0  0  0  0  0
   -4.2071   10.3661    0.0479 H   0  0  0  0  0  0  0  0  0  0  0  0
   -5.9161    8.5775    0.0195 H   0  0  0  0  0  0  0  0  0  0  0  0
   -5.5412    9.2218   -1.6269 H   0  0  0  0  0  0  0  0  0  0  0  0
   -5.7160    6.8307   -1.7560 H   0  0  0  0  0  0  0  0  0  0  0  0
   -4.2610    5.5380   -0.4530 H   0  0  0  0  0  0  0  0  0  0  0  0
   -4.8737    8.6367   -3.4322 H   0  0  0  0  0  0  0  0  0  0  0  0
   -3.3259    8.1840   -4.2234 H   0  0  0  0  0  0  0  0  0  0  0  0
   -4.7049    7.0329   -4.2234 H   0  0  0  0  0  0  0  0  0  0  0  0
   -3.2165    5.1725   -1.6592 H   0  0  0  0  0  0  0  0  0  0  0  0
   -4.1582    5.2641   -3.1861 H   0  0  0  0  0  0  0  0  0  0  0  0
   -2.4064    5.6614   -3.1861 H   0  0  0  0  0  0  0  0  0  0  0  0
   -1.7999   10.6107    1.3994 H   0  0  0  0  0  0  0  0  0  0  0  0
   -1.5864    8.8846    0.9504 H   0  0  0  0  0  0  0  0  0  0  0  0
   -0.1736    9.9940    0.9504 H   0  0  0  0  0  0  0  0  0  0  0  0
   -2.9544   11.9020   -0.5656 H   0  0  0  0  0  0  0  0  0  0  0  0
   -1.2160   12.2644   -0.0344 H   0  0  0  0  0  0  0  0  0  0  0  0
   -2.3155   12.2244   -2.8588 H   0  0  0  0  0  0  0  0  0  0  0  0
   -1.6893   13.6305   -1.9122 H   0  0  0  0  0  0  0  0  0  0  0  0
    0.4400   12.5952   -0.5111 H   0  0  0  0  0  0  0  0  0  0  0  0
    1.8050   12.3157   -1.6448 H   0  0  0  0  0  0  0  0  0  0  0  0
    0.9461   13.8934   -1.6448 H   0  0  0  0  0  0  0  0  0  0  0  0
  1  2  1  0
  2  3  1  0
  3  4  1  0
  4  5  1  0
  5  6  1  0
  6  7  1  0
  7  8  1  0
  7  9  1  0
  2 10  1  0
 10 11  1  0
 11 12  1  0
 12 13  1  0
 13 14  1  6
 13 15  1  0
 15 16  1  0
 16 17  1  0
 17 18  2  0
 18 19  1  0
 19 20  1  0
 20 21  1  0
 21 22  1  0
 22 23  1  0
 22 24  1  0
 24 25  1  0
 24 26  1  0
 19 27  1  0
 27 28  1  1
 27 29  1  0
 29 30  1  0
 30 31  1  0
 31 32  1  1
  7  5  1  0
 31 10  1  0
 31 13  1  0
 27 15  1  0
 24 18  1  0
  1 33  1  0
  1 34  1  0
  1 35  1  0
  2 36  1  1
  3 37  1  0
  3 38  1  0
  4 39  1  0
  4 40  1  0
  5 41  1  1
  8 42  1  0
  8 43  1  0
  8 44  1  0
  9 45  1  0
  9 46  1  0
  9 47  1  0
 10 48  1  6
 11 49  1  0
 11 50  1  0
 12 51  1  0
 12 52  1  0
 14 53  1  0
 14 54  1  0
 14 55  1  0
 15 56  1  1
 16 57  1  0
 16 58  1  0
 17 59  1  0
 19 60  1  6
 20 61  1  0
 20 62  1  0
 21 63  1  0
 21 64  1  0
 22 65  1  6
 23 66  1  0
 25 67  1  0
 25 68  1  0
 25 69  1  0
 26 70  1  0
 26 71  1  0
 26 72  1  0
 28 73  1  0
 28 74  1  0
 28 75  1  0
 29 76  1  0
 29 77  1  0
 30 78  1  0
 30 79  1  0
 32 80  1  0
 32 81  1  0
 32 82  1  0
M  END
>  <meeko>  (18) 
{"is_sidechain": [false], "intermolecular_energy": 2.731, "internal_energy": -0.839}

$$$$
EPH_relaxed_0001_pdb2pqr_Repair_37_r2_0001_out
     RDKit          3D

 82 86  0  0  0  0  0  0  0  0999 V2000
   -2.4890    7.6960   -0.0560 C   0  0  0  0  0  0  0  0  0  0  0  0
   -3.1500    9.0770   -0.0720 C   0  0  2  0  0  0  0  0  0  0  0  0
   -4.6260    9.0090   -0.5110 C   0  0  0  0  0  0  0  0  0  0  0  0
   -5.1770    7.5830   -0.6020 C   0  0  0  0  0  0  0  0  0  0  0  0
   -5.8980    7.3480   -1.8940 C   0  0  2  0  0  0  0  0  0  0  0  0
   -6.7240    8.4380   -2.3250 O   0  0  0  0  0  0  0  0  0  0  0  0
   -7.4060    7.2160   -1.9980 C   0  0  0  0  0  0  0  0  0  0  0  0
   -8.2830    7.3140   -0.7900 C   0  0  0  0  0  0  0  0  0  0  0  0
   -7.9820    6.5110   -3.1870 C   0  0  0  0  0  0  0  0  0  0  0  0
   -2.3750   10.0120   -0.9930 C   0  0  1  0  0  0  0  0  0  0  0  0
   -3.0110   11.4250   -1.0810 C   0  0  0  0  0  0  0  0  0  0  0  0
   -1.8410   12.4340   -1.2210 C   0  0  0  0  0  0  0  0  0  0  0  0
   -0.6080   11.5580   -1.5430 C   0  0  1  0  0  0  0  0  0  0  0  0
   -0.7090   11.2690   -3.0730 C   0  0  0  0  0  0  0  0  0  0  0  0
    0.7840   12.1570   -1.1590 C   0  0  2  0  0  0  0  0  0  0  0  0
    1.1580   13.4590   -1.8890 C   0  0  0  0  0  0  0  0  0  0  0  0
    1.9020   13.2810   -3.1710 C   0  0  0  0  0  0  0  0  0  0  0  0
    2.5050   12.1470   -3.5740 C   0  0  0  0  0  0  0  0  0  0  0  0
    2.5570   10.9150   -2.6600 C   0  0  1  0  0  0  0  0  0  0  0  0
    3.9960   10.3360   -2.6540 C   0  0  0  0  0  0  0  0  0  0  0  0
    4.5150   10.0430   -4.0590 C   0  0  0  0  0  0  0  0  0  0  0  0
    4.5020   11.3050   -4.9190 C   0  0  2  0  0  0  0  0  0  0  0  0
    5.4590   12.2300   -4.3940 O   0  0  0  0  0  0  0  0  0  0  0  0
    3.1060   11.9820   -4.9910 C   0  0  0  0  0  0  0  0  0  0  0  0
    2.1440   11.1030   -5.8280 C   0  0  0  0  0  0  0  0  0  0  0  0
    3.2620   13.3160   -5.7700 C   0  0  0  0  0  0  0  0  0  0  0  0
    1.9730   11.1130   -1.1960 C   0  0  1  0  0  0  0  0  0  0  0  0
    3.0820   11.6670   -0.2500 C   0  0  0  0  0  0  0  0  0  0  0  0
    1.5540    9.7100   -0.6160 C   0  0  0  0  0  0  0  0  0  0  0  0
    0.1260    9.2260   -0.9290 C   0  0  0  0  0  0  0  0  0  0  0  0
   -0.9030   10.3190   -0.6210 C   0  0  2  0  0  0  0  0  0  0  0  0
   -0.8400   10.6150    0.9160 C   0  0  0  0  0  0  0  0  0  0  0  0
   -2.3354    7.3751    0.9849 H   0  0  0  0  0  0  0  0  0  0  0  0
   -3.1385    6.9726   -0.5707 H   0  0  0  0  0  0  0  0  0  0  0  0
   -1.5182    7.7482   -0.5707 H   0  0  0  0  0  0  0  0  0  0  0  0
   -3.1296    9.4664    0.9566 H   0  0  0  0  0  0  0  0  0  0  0  0
   -5.2309    9.5691    0.2173 H   0  0  0  0  0  0  0  0  0  0  0  0
   -4.6805    9.4394   -1.5218 H   0  0  0  0  0  0  0  0  0  0  0  0
   -4.3408    6.8724   -0.5263 H   0  0  0  0  0  0  0  0  0  0  0  0
   -5.8928    7.4393    0.2208 H   0  0  0  0  0  0  0  0  0  0  0  0
   -5.0751    6.7205   -2.2669 H   0  0  0  0  0  0  0  0  0  0  0  0
   -7.6657    7.2450    0.1178 H   0  0  0  0  0  0  0  0  0  0  0  0
   -8.8143    8.2771   -0.7998 H   0  0  0  0  0  0  0  0  0  0  0  0
   -9.0138    6.4919   -0.7998 H   0  0  0  0  0  0  0  0  0  0  0  0
   -8.6440    5.7007   -2.8476 H   0  0  0  0  0  0  0  0  0  0  0  0
   -8.5581    7.2255   -3.7934 H   0  0  0  0  0  0  0  0  0  0  0  0
   -7.1670    6.0890   -3.7934 H   0  0  0  0  0  0  0  0  0  0  0  0
   -2.4128    9.4269   -1.9237 H   0  0  0  0  0  0  0  0  0  0  0  0
   -3.6730   11.4886   -1.9572 H   0  0  0  0  0  0  0  0  0  0  0  0
   -3.6156   11.6425   -0.1882 H   0  0  0  0  0  0  0  0  0  0  0  0
   -2.0365   13.1447   -2.0375 H   0  0  0  0  0  0  0  0  0  0  0  0
   -1.6988   13.0371   -0.3121 H   0  0  0  0  0  0  0  0  0  0  0  0
   -1.0682   10.2411   -3.2291 H   0  0  0  0  0  0  0  0  0  0  0  0
   -1.4128   11.9774   -3.5343 H   0  0  0  0  0  0  0  0  0  0  0  0
    0.2829   11.3848   -3.5343 H   0  0  0  0  0  0  0  0  0  0  0  0
    0.6368   12.4358   -0.1052 H   0  0  0  0  0  0  0  0  0  0  0  0
    0.2284   14.0045   -2.1086 H   0  0  0  0  0  0  0  0  0  0  0  0
    1.8384   14.0005   -1.2153 H   0  0  0  0  0  0  0  0  0  0  0  0
    1.9625   14.1498   -3.8430 H   0  0  0  0  0  0  0  0  0  0  0  0
    1.8615   10.1828   -3.0961 H   0  0  0  0  0  0  0  0  0  0  0  0
    4.6670   11.0642   -2.1750 H   0  0  0  0  0  0  0  0  0  0  0  0
    3.9707    9.3847   -2.1023 H   0  0  0  0  0  0  0  0  0  0  0  0
    5.5455    9.6644   -3.9906 H   0  0  0  0  0  0  0  0  0  0  0  0
    3.8602    9.2926   -4.5261 H   0  0  0  0  0  0  0  0  0  0  0  0
    4.7594   11.0074   -5.9462 H   0  0  0  0  0  0  0  0  0  0  0  0
    6.1490   11.7150   -3.9410 H   0  0  0  0  0  0  0  0  0  0  0  0
    1.5025   10.5168   -5.1536 H   0  0  0  0  0  0  0  0  0  0  0  0
    1.5173   11.7470   -6.4625 H   0  0  0  0  0  0  0  0  0  0  0  0
    2.7290   10.4209   -6.4625 H   0  0  0  0  0  0  0  0  0  0  0  0
    3.3593   14.1478   -5.0568 H   0  0  0  0  0  0  0  0  0  0  0  0
    4.1607   13.2683   -6.4025 H   0  0  0  0  0  0  0  0  0  0  0  0
    2.3766   13.4769   -6.4025 H   0  0  0  0  0  0  0  0  0  0  0  0
    2.7799   11.5161    0.7969 H   0  0  0  0  0  0  0  0  0  0  0  0
    4.0256   11.1344   -0.4398 H   0  0  0  0  0  0  0  0  0  0  0  0
    3.2228   12.7413   -0.4398 H   0  0  0  0  0  0  0  0  0  0  0  0
    2.2539    8.9620   -1.0168 H   0  0  0  0  0  0  0  0  0  0  0  0
    1.5832    9.8308    0.4770 H   0  0  0  0  0  0  0  0  0  0  0  0
    0.0613    8.9608   -1.9946 H   0  0  0  0  0  0  0  0  0  0  0  0
   -0.0934    8.3503   -0.3005 H   0  0  0  0  0  0  0  0  0  0  0  0
   -1.0371    9.6890    1.4761 H   0  0  0  0  0  0  0  0  0  0  0  0
    0.1591   10.9949    1.1756 H   0  0  0  0  0  0  0  0  0  0  0  0
   -1.5978   11.3689    1.1756 H   0  0  0  0  0  0  0  0  0  0  0  0
  1  2  1  0
  2  3  1  0
  3  4  1  0
  4  5  1  0
  5  6  1  0
  6  7  1  0
  7  8  1  0
  7  9  1  0
  2 10  1  0
 10 11  1  0
 11 12  1  0
 12 13  1  0
 13 14  1  6
 13 15  1  0
 15 16  1  0
 16 17  1  0
 17 18  2  0
 18 19  1  0
 19 20  1  0
 20 21  1  0
 21 22  1  0
 22 23  1  0
 22 24  1  0
 24 25  1  0
 24 26  1  0
 19 27  1  0
 27 28  1  1
 27 29  1  0
 29 30  1  0
 30 31  1  0
 31 32  1  1
  7  5  1  0
 31 10  1  0
 31 13  1  0
 27 15  1  0
 24 18  1  0
  1 33  1  0
  1 34  1  0
  1 35  1  0
  2 36  1  1
  3 37  1  0
  3 38  1  0
  4 39  1  0
  4 40  1  0
  5 41  1  6
  8 42  1  0
  8 43  1  0
  8 44  1  0
  9 45  1  0
  9 46  1  0
  9 47  1  0
 10 48  1  6
 11 49  1  0
 11 50  1  0
 12 51  1  0
 12 52  1  0
 14 53  1  0
 14 54  1  0
 14 55  1  0
 15 56  1  1
 16 57  1  0
 16 58  1  0
 17 59  1  0
 19 60  1  6
 20 61  1  0
 20 62  1  0
 21 63  1  0
 21 64  1  0
 22 65  1  6
 23 66  1  0
 25 67  1  0
 25 68  1  0
 25 69  1  0
 26 70  1  0
 26 71  1  0
 26 72  1  0
 28 73  1  0
 28 74  1  0
 28 75  1  0
 29 76  1  0
 29 77  1  0
 30 78  1  0
 30 79  1  0
 32 80  1  0
 32 81  1  0
 32 82  1  0
M  END
>  <meeko>  (19) 
{"is_sidechain": [false], "intermolecular_energy": 2.731, "internal_energy": -0.839}

$$$$
EPH_relaxed_0001_pdb2pqr_Repair_37_r2_0001_out
     RDKit          3D

 82 86  0  0  0  0  0  0  0  0999 V2000
    3.1250   14.8490   -7.5410 C   0  0  0  0  0  0  0  0  0  0  0  0
    1.6010   14.8660   -7.3980 C   0  0  2  0  0  0  0  0  0  0  0  0
    0.9690   16.1000   -8.0730 C   0  0  0  0  0  0  0  0  0  0  0  0
    1.8920   16.7910   -9.0810 C   0  0  0  0  0  0  0  0  0  0  0  0
    1.5730   16.3910  -10.4900 C   0  0  2  0  0  0  0  0  0  0  0  0
    0.9940   15.0860  -10.6250 O   0  0  0  0  0  0  0  0  0  0  0  0
    2.2870   15.2710  -11.2230 C   0  0  0  0  0  0  0  0  0  0  0  0
    3.3780   14.4810  -10.5700 C   0  0  0  0  0  0  0  0  0  0  0  0
    2.2640   15.2680  -12.7200 C   0  0  0  0  0  0  0  0  0  0  0  0
    1.2170   14.8250   -5.9240 C   0  0  1  0  0  0  0  0  0  0  0  0
   -0.0390   15.6810   -5.6100 C   0  0  0  0  0  0  0  0  0  0  0  0
   -0.8170   14.9410   -4.4920 C   0  0  0  0  0  0  0  0  0  0  0  0
    0.1720   13.8720   -3.9710 C   0  0  1  0  0  0  0  0  0  0  0  0
    1.1090   14.6380   -2.9850 C   0  0  0  0  0  0  0  0  0  0  0  0
   -0.4640   12.6110   -3.3000 C   0  0  2  0  0  0  0  0  0  0  0  0
   -1.2820   12.8910   -2.0270 C   0  0  0  0  0  0  0  0  0  0  0  0
   -0.5110   12.8360   -0.7490 C   0  0  0  0  0  0  0  0  0  0  0  0
    0.7120   12.2960   -0.5970 C   0  0  0  0  0  0  0  0  0  0  0  0
    1.4070   11.5770   -1.7600 C   0  0  1  0  0  0  0  0  0  0  0  0
    1.9950   10.2310   -1.2600 C   0  0  0  0  0  0  0  0  0  0  0  0
    2.9100   10.4060   -0.0520 C   0  0  0  0  0  0  0  0  0  0  0  0
    2.1680   11.0720    1.1040 C   0  0  2  0  0  0  0  0  0  0  0  0
    1.1550   10.1770    1.5770 O   0  0  0  0  0  0  0  0  0  0  0  0
    1.5230   12.4320    0.7160 C   0  0  0  0  0  0  0  0  0  0  0  0
    2.6330   13.4890    0.4940 C   0  0  0  0  0  0  0  0  0  0  0  0
    0.6880   12.9270    1.9270 C   0  0  0  0  0  0  0  0  0  0  0  0
    0.5460   11.4110   -3.0860 C   0  0  1  0  0  0  0  0  0  0  0  0
   -0.3140   10.1140   -3.0030 C   0  0  0  0  0  0  0  0  0  0  0  0
    1.5190   11.2220   -4.3100 C   0  0  0  0  0  0  0  0  0  0  0  0
    2.0180   12.5030   -5.0050 C   0  0  0  0  0  0  0  0  0  0  0  0
    0.8520   13.4450   -5.3230 C   0  0  2  0  0  0  0  0  0  0  0  0
   -0.0960   12.7090   -6.3300 C   0  0  0  0  0  0  0  0  0  0  0  0
    3.5869   14.8438   -6.5427 H   0  0  0  0  0  0  0  0  0  0  0  0
    3.4316   13.9474   -8.0915 H   0  0  0  0  0  0  0  0  0  0  0  0
    3.4516   15.7436   -8.0915 H   0  0  0  0  0  0  0  0  0  0  0  0
    1.2103   13.9735   -7.9087 H   0  0  0  0  0  0  0  0  0  0  0  0
    0.0580   15.7793   -8.5995 H   0  0  0  0  0  0  0  0  0  0  0  0
    0.7591   16.8295   -7.2769 H   0  0  0  0  0  0  0  0  0  0  0  0
    1.7736   17.8803   -8.9842 H   0  0  0  0  0  0  0  0  0  0  0  0
    2.9263   16.4860   -8.8639 H   0  0  0  0  0  0  0  0  0  0  0  0
    1.3616   17.4351  -10.7641 H   0  0  0  0  0  0  0  0  0  0  0  0
    3.2788   14.5528   -9.4768 H   0  0  0  0  0  0  0  0  0  0  0  0
    3.3017   13.4274  -10.8767 H   0  0  0  0  0  0  0  0  0  0  0  0
    4.3552   14.8823  -10.8767 H   0  0  0  0  0  0  0  0  0  0  0  0
    1.2301   15.1331  -13.0706 H   0  0  0  0  0  0  0  0  0  0  0  0
    2.6563   16.2249  -13.0947 H   0  0  0  0  0  0  0  0  0  0  0  0
    2.8887   14.4437  -13.0947 H   0  0  0  0  0  0  0  0  0  0  0  0
    2.1529   15.1939   -5.4790 H   0  0  0  0  0  0  0  0  0  0  0  0
    0.2611   16.6812   -5.2642 H   0  0  0  0  0  0  0  0  0  0  0  0
   -0.6632   15.8097   -6.5065 H   0  0  0  0  0  0  0  0  0  0  0  0
   -1.0962   15.6369   -3.6872 H   0  0  0  0  0  0  0  0  0  0  0  0
   -1.7548   14.4984   -4.8589 H   0  0  0  0  0  0  0  0  0  0  0  0
    0.8219   14.4033   -1.9494 H   0  0  0  0  0  0  0  0  0  0  0  0
    2.1511   14.3299   -3.1554 H   0  0  0  0  0  0  0  0  0  0  0  0
    1.0142   15.7206   -3.1554 H   0  0  0  0  0  0  0  0  0  0  0  0
   -1.1923   12.2841   -4.0568 H   0  0  0  0  0  0  0  0  0  0  0  0
   -1.7186   13.8966   -2.1177 H   0  0  0  0  0  0  0  0  0  0  0  0
   -2.0325   12.0892   -1.9647 H   0  0  0  0  0  0  0  0  0  0  0  0
   -0.9827   13.2738    0.1431 H   0  0  0  0  0  0  0  0  0  0  0  0
    2.2206   12.2418   -2.0855 H   0  0  0  0  0  0  0  0  0  0  0  0
    1.1649    9.5656   -0.9803 H   0  0  0  0  0  0  0  0  0  0  0  0
    2.5970    9.8055   -2.0764 H   0  0  0  0  0  0  0  0  0  0  0  0
    3.2699    9.4186    0.2728 H   0  0  0  0  0  0  0  0  0  0  0  0
    3.7550   11.0477   -0.3423 H   0  0  0  0  0  0  0  0  0  0  0  0
    2.9069   11.2883    1.8897 H   0  0  0  0  0  0  0  0  0  0  0  0
    1.3520    9.9760    2.5070 H   0  0  0  0  0  0  0  0  0  0  0  0
    3.0034   13.8418    1.4678 H   0  0  0  0  0  0  0  0  0  0  0  0
    3.4613   13.0376   -0.0717 H   0  0  0  0  0  0  0  0  0  0  0  0
    2.2226   14.3384   -0.0717 H   0  0  0  0  0  0  0  0  0  0  0  0
    1.1868   12.6313    2.8617 H   0  0  0  0  0  0  0  0  0  0  0  0
    0.6007   14.0229    1.8888 H   0  0  0  0  0  0  0  0  0  0  0  0
   -0.3153   12.4777    1.8888 H   0  0  0  0  0  0  0  0  0  0  0  0
   -0.4858    9.8549   -1.9479 H   0  0  0  0  0  0  0  0  0  0  0  0
   -1.2801   10.2822   -3.5013 H   0  0  0  0  0  0  0  0  0  0  0  0
    0.2169    9.2895   -3.5013 H   0  0  0  0  0  0  0  0  0  0  0  0
    2.4019   10.6724   -3.9515 H   0  0  0  0  0  0  0  0  0  0  0  0
    0.9251   10.6944   -5.0709 H   0  0  0  0  0  0  0  0  0  0  0  0
    2.7270   13.0195   -4.3413 H   0  0  0  0  0  0  0  0  0  0  0  0
    2.5085   12.2215   -5.9485 H   0  0  0  0  0  0  0  0  0  0  0  0
   -0.8444   12.1280   -5.7712 H   0  0  0  0  0  0  0  0  0  0  0  0
   -0.6054   13.4506   -6.9629 H   0  0  0  0  0  0  0  0  0  0  0  0
    0.4962   12.0317   -6.9629 H   0  0  0  0  0  0  0  0  0  0  0  0
  1  2  1  0
  2  3  1  0
  3  4  1  0
  4  5  1  0
  5  6  1  0
  6  7  1  0
  7  8  1  0
  7  9  1  0
  2 10  1  0
 10 11  1  0
 11 12  1  0
 12 13  1  0
 13 14  1  1
 13 15  1  0
 15 16  1  0
 16 17  1  0
 17 18  2  0
 18 19  1  0
 19 20  1  0
 20 21  1  0
 21 22  1  0
 22 23  1  0
 22 24  1  0
 24 25  1  0
 24 26  1  0
 19 27  1  0
 27 28  1  1
 27 29  1  0
 29 30  1  0
 30 31  1  0
 31 32  1  6
  7  5  1  0
 31 10  1  0
 31 13  1  0
 27 15  1  0
 24 18  1  0
  1 33  1  0
  1 34  1  0
  1 35  1  0
  2 36  1  6
  3 37  1  0
  3 38  1  0
  4 39  1  0
  4 40  1  0
  5 41  1  6
  8 42  1  0
  8 43  1  0
  8 44  1  0
  9 45  1  0
  9 46  1  0
  9 47  1  0
 10 48  1  1
 11 49  1  0
 11 50  1  0
 12 51  1  0
 12 52  1  0
 14 53  1  0
 14 54  1  0
 14 55  1  0
 15 56  1  6
 16 57  1  0
 16 58  1  0
 17 59  1  0
 19 60  1  6
 20 61  1  0
 20 62  1  0
 21 63  1  0
 21 64  1  0
 22 65  1  1
 23 66  1  0
 25 67  1  0
 25 68  1  0
 25 69  1  0
 26 70  1  0
 26 71  1  0
 26 72  1  0
 28 73  1  0
 28 74  1  0
 28 75  1  0
 29 76  1  0
 29 77  1  0
 30 78  1  0
 30 79  1  0
 32 80  1  0
 32 81  1  0
 32 82  1  0
M  END
>  <meeko>  (20) 
{"is_sidechain": [false], "intermolecular_energy": 2.731, "internal_energy": -0.839}

$$$$
