EPH_relaxed_0001_pdb2pqr_Repair_283_r2_0001_out
     RDKit          3D

 82 86  0  0  0  0  0  0  0  0999 V2000
   -1.7190    8.5860   -1.8710 C   0  0  0  0  0  0  0  0  0  0  0  0
   -2.1000    9.1060   -0.4820 C   0  0  2  0  0  0  0  0  0  0  0  0
   -3.5950    9.4720   -0.3890 C   0  0  0  0  0  0  0  0  0  0  0  0
   -4.5160    8.2610   -0.2210 C   0  0  0  0  0  0  0  0  0  0  0  0
   -5.2160    7.9140   -1.5000 C   0  0  2  0  0  0  0  0  0  0  0  0
   -6.3510    8.7360   -1.8030 O   0  0  0  0  0  0  0  0  0  0  0  0
   -6.6220    7.3460   -1.5570 C   0  0  0  0  0  0  0  0  0  0  0  0
   -7.4120    7.0920   -0.3120 C   0  0  0  0  0  0  0  0  0  0  0  0
   -7.0370    6.5880   -2.7790 C   0  0  0  0  0  0  0  0  0  0  0  0
   -1.2440   10.3160   -0.1280 C   0  0  1  0  0  0  0  0  0  0  0  0
   -0.2230   10.0150    1.0010 C   0  0  0  0  0  0  0  0  0  0  0  0
    1.0500   10.8420    0.6850 C   0  0  0  0  0  0  0  0  0  0  0  0
    0.6060   11.8350   -0.4150 C   0  0  1  0  0  0  0  0  0  0  0  0
   -0.1070   12.9920    0.3520 C   0  0  0  0  0  0  0  0  0  0  0  0
    1.7340   12.3750   -1.3540 C   0  0  2  0  0  0  0  0  0  0  0  0
    2.8310   13.1940   -0.6530 C   0  0  0  0  0  0  0  0  0  0  0  0
    2.5790   14.6640   -0.5760 C   0  0  0  0  0  0  0  0  0  0  0  0
    1.6620   15.3380   -1.2940 C   0  0  0  0  0  0  0  0  0  0  0  0
    0.8270   14.6310   -2.3690 C   0  0  1  0  0  0  0  0  0  0  0  0
    0.8100   15.4890   -3.6610 C   0  0  0  0  0  0  0  0  0  0  0  0
    0.3440   16.9190   -3.4070 C   0  0  0  0  0  0  0  0  0  0  0  0
    1.2350   17.6090   -2.3760 C   0  0  2  0  0  0  0  0  0  0  0  0
    2.5410   17.7760   -2.9350 O   0  0  0  0  0  0  0  0  0  0  0  0
    1.3360   16.8300   -1.0350 C   0  0  0  0  0  0  0  0  0  0  0  0
   -0.0170   16.9080   -0.2850 C   0  0  0  0  0  0  0  0  0  0  0  0
    2.3730   17.5570   -0.1370 C   0  0  0  0  0  0  0  0  0  0  0  0
    1.2010   13.1120   -2.6490 C   0  0  1  0  0  0  0  0  0  0  0  0
    2.3430   13.0330   -3.7080 C   0  0  0  0  0  0  0  0  0  0  0  0
   -0.0430   12.3840   -3.2830 C   0  0  0  0  0  0  0  0  0  0  0  0
   -1.0600   11.7680   -2.3040 C   0  0  0  0  0  0  0  0  0  0  0  0
   -0.3550   10.9110   -1.2480 C   0  0  2  0  0  0  0  0  0  0  0  0
    0.3540    9.7260   -1.9890 C   0  0  0  0  0  0  0  0  0  0  0  0
   -1.0718    7.7027   -1.7670 H   0  0  0  0  0  0  0  0  0  0  0  0
   -2.6303    8.3101   -2.4219 H   0  0  0  0  0  0  0  0  0  0  0  0
   -1.1813    9.3717   -2.4219 H   0  0  0  0  0  0  0  0  0  0  0  0
   -1.9137    8.2954    0.2379 H   0  0  0  0  0  0  0  0  0  0  0  0
   -3.7363   10.1382    0.4749 H   0  0  0  0  0  0  0  0  0  0  0  0
   -3.8676    9.9536   -1.3396 H   0  0  0  0  0  0  0  0  0  0  0  0
   -3.9148    7.3982    0.1016 H   0  0  0  0  0  0  0  0  0  0  0  0
   -5.2794    8.5129    0.5298 H   0  0  0  0  0  0  0  0  0  0  0  0
   -4.2699    7.5884   -1.9571 H   0  0  0  0  0  0  0  0  0  0  0  0
   -6.7841    7.2939    0.5683 H   0  0  0  0  0  0  0  0  0  0  0  0
   -8.2913    7.7527   -0.2945 H   0  0  0  0  0  0  0  0  0  0  0  0
   -7.7415    6.0426   -0.2945 H   0  0  0  0  0  0  0  0  0  0  0  0
   -7.5453    5.6596   -2.4796 H   0  0  0  0  0  0  0  0  0  0  0  0
   -7.7232    7.2050   -3.3778 H   0  0  0  0  0  0  0  0  0  0  0  0
   -6.1476    6.3423   -3.3778 H   0  0  0  0  0  0  0  0  0  0  0  0
   -2.0364   11.0299    0.1414 H   0  0  0  0  0  0  0  0  0  0  0  0
   -0.6367   10.3139    1.9754 H   0  0  0  0  0  0  0  0  0  0  0  0
    0.0063    8.9403    1.0500 H   0  0  0  0  0  0  0  0  0  0  0  0
    1.3946   11.3817    1.5794 H   0  0  0  0  0  0  0  0  0  0  0  0
    1.8896   10.2090    0.3619 H   0  0  0  0  0  0  0  0  0  0  0  0
   -0.0071   12.8299    1.4354 H   0  0  0  0  0  0  0  0  0  0  0  0
    0.3564   13.9520    0.0806 H   0  0  0  0  0  0  0  0  0  0  0  0
   -1.1729   13.0096    0.0806 H   0  0  0  0  0  0  0  0  0  0  0  0
    2.2230   11.4492   -1.6913 H   0  0  0  0  0  0  0  0  0  0  0  0
    2.9360   12.8130    0.3735 H   0  0  0  0  0  0  0  0  0  0  0  0
    3.7382   13.0724   -1.2631 H   0  0  0  0  0  0  0  0  0  0  0  0
    3.1948   15.2446    0.1267 H   0  0  0  0  0  0  0  0  0  0  0  0
   -0.1914   14.5538   -1.9605 H   0  0  0  0  0  0  0  0  0  0  0  0
    1.8274   15.5185   -4.0782 H   0  0  0  0  0  0  0  0  0  0  0  0
    0.0990   15.0253   -4.3606 H   0  0  0  0  0  0  0  0  0  0  0  0
    0.3822   17.4830   -4.3507 H   0  0  0  0  0  0  0  0  0  0  0  0
   -0.6845   16.8890   -3.0179 H   0  0  0  0  0  0  0  0  0  0  0  0
    0.7764   18.5806   -2.1402 H   0  0  0  0  0  0  0  0  0  0  0  0
    2.5020   18.5240   -3.5560 H   0  0  0  0  0  0  0  0  0  0  0  0
    0.1641   16.8976    0.7999 H   0  0  0  0  0  0  0  0  0  0  0  0
   -0.5363   17.8376   -0.5612 H   0  0  0  0  0  0  0  0  0  0  0  0
   -0.6396   16.0443   -0.5612 H   0  0  0  0  0  0  0  0  0  0  0  0
    2.1267   17.3843    0.9211 H   0  0  0  0  0  0  0  0  0  0  0  0
    3.3791   17.1655   -0.3479 H   0  0  0  0  0  0  0  0  0  0  0  0
    2.3479   18.6363   -0.3479 H   0  0  0  0  0  0  0  0  0  0  0  0
    3.3141   12.9658   -3.1957 H   0  0  0  0  0  0  0  0  0  0  0  0
    2.1982   12.1427   -4.3376 H   0  0  0  0  0  0  0  0  0  0  0  0
    2.3222   13.9347   -4.3376 H   0  0  0  0  0  0  0  0  0  0  0  0
   -0.5793   13.1189   -3.9013 H   0  0  0  0  0  0  0  0  0  0  0  0
    0.3746   11.5315   -3.8387 H   0  0  0  0  0  0  0  0  0  0  0  0
   -1.6112   12.5766   -1.8017 H   0  0  0  0  0  0  0  0  0  0  0  0
   -1.7499   11.1269   -2.8724 H   0  0  0  0  0  0  0  0  0  0  0  0
    0.7717    9.0279   -1.2485 H   0  0  0  0  0  0  0  0  0  0  0  0
   -0.3767    9.1980   -2.6193 H   0  0  0  0  0  0  0  0  0  0  0  0
    1.1647   10.1203   -2.6193 H   0  0  0  0  0  0  0  0  0  0  0  0
  1  2  1  0
  2  3  1  0
  3  4  1  0
  4  5  1  0
  5  6  1  0
  6  7  1  0
  7  8  1  0
  7  9  1  0
  2 10  1  0
 10 11  1  0
 11 12  1  0
 12 13  1  0
 13 14  1  1
 13 15  1  0
 15 16  1  0
 16 17  1  0
 17 18  2  0
 18 19  1  0
 19 20  1  0
 20 21  1  0
 21 22  1  0
 22 23  1  0
 22 24  1  0
 24 25  1  0
 24 26  1  0
 19 27  1  0
 27 28  1  6
 27 29  1  0
 29 30  1  0
 30 31  1  0
 31 32  1  6
  7  5  1  0
 31 10  1  0
 31 13  1  0
 27 15  1  0
 24 18  1  0
  1 33  1  0
  1 34  1  0
  1 35  1  0
  2 36  1  1
  3 37  1  0
  3 38  1  0
  4 39  1  0
  4 40  1  0
  5 41  1  6
  8 42  1  0
  8 43  1  0
  8 44  1  0
  9 45  1  0
  9 46  1  0
  9 47  1  0
 10 48  1  1
 11 49  1  0
 11 50  1  0
 12 51  1  0
 12 52  1  0
 14 53  1  0
 14 54  1  0
 14 55  1  0
 15 56  1  6
 16 57  1  0
 16 58  1  0
 17 59  1  0
 19 60  1  1
 20 61  1  0
 20 62  1  0
 21 63  1  0
 21 64  1  0
 22 65  1  1
 23 66  1  0
 25 67  1  0
 25 68  1  0
 25 69  1  0
 26 70  1  0
 26 71  1  0
 26 72  1  0
 28 73  1  0
 28 74  1  0
 28 75  1  0
 29 76  1  0
 29 77  1  0
 30 78  1  0
 30 79  1  0
 32 80  1  0
 32 81  1  0
 32 82  1  0
M  END
>  <meeko>  (1) 
{"is_sidechain": [false], "intermolecular_energy": 2.731, "internal_energy": -0.839}

$$$$
EPH_relaxed_0001_pdb2pqr_Repair_283_r2_0001_out
     RDKit          3D

 82 86  0  0  0  0  0  0  0  0999 V2000
    4.2030   17.5770   -0.6940 C   0  0  0  0  0  0  0  0  0  0  0  0
    2.8440   18.1440   -0.2730 C   0  0  2  0  0  0  0  0  0  0  0  0
    2.9060   18.8430    1.0990 C   0  0  0  0  0  0  0  0  0  0  0  0
    4.2590   18.7020    1.8010 C   0  0  0  0  0  0  0  0  0  0  0  0
    4.2240   19.2630    3.1910 C   0  0  2  0  0  0  0  0  0  0  0  0
    5.2750   20.1930    3.4870 O   0  0  0  0  0  0  0  0  0  0  0  0
    5.2810   18.9680    4.2390 C   0  0  0  0  0  0  0  0  0  0  0  0
    6.4470   18.0780    3.9420 C   0  0  0  0  0  0  0  0  0  0  0  0
    4.9260   19.1450    5.6820 C   0  0  0  0  0  0  0  0  0  0  0  0
    1.8030   17.0310   -0.2440 C   0  0  1  0  0  0  0  0  0  0  0  0
    0.3720   17.5430   -0.5610 C   0  0  0  0  0  0  0  0  0  0  0  0
   -0.3430   16.4140   -1.3470 C   0  0  0  0  0  0  0  0  0  0  0  0
    0.5690   15.1770   -1.1700 C   0  0  1  0  0  0  0  0  0  0  0  0
    0.2000   14.6050    0.2350 C   0  0  0  0  0  0  0  0  0  0  0  0
    0.4730   14.0830   -2.2820 C   0  0  2  0  0  0  0  0  0  0  0  0
   -0.9040   13.4090   -2.4170 C   0  0  0  0  0  0  0  0  0  0  0  0
   -1.0980   12.1830   -1.5870 C   0  0  0  0  0  0  0  0  0  0  0  0
   -0.1180   11.4820   -0.9870 C   0  0  0  0  0  0  0  0  0  0  0  0
    1.3560   11.8520   -1.1940 C   0  0  1  0  0  0  0  0  0  0  0  0
    2.1750   10.5690   -1.4930 C   0  0  0  0  0  0  0  0  0  0  0  0
    1.9880    9.4940   -0.4270 C   0  0  0  0  0  0  0  0  0  0  0  0
    0.5170    9.1110   -0.2900 C   0  0  2  0  0  0  0  0  0  0  0  0
    0.0950    8.4650   -1.4950 O   0  0  0  0  0  0  0  0  0  0  0  0
   -0.4080   10.3260    0.0020 C   0  0  0  0  0  0  0  0  0  0  0  0
   -0.1520   10.8410    1.4400 C   0  0  0  0  0  0  0  0  0  0  0  0
   -1.8770    9.8250   -0.0250 C   0  0  0  0  0  0  0  0  0  0  0  0
    1.6390   13.0140   -2.2420 C   0  0  1  0  0  0  0  0  0  0  0  0
    1.7480   12.4190   -3.6790 C   0  0  0  0  0  0  0  0  0  0  0  0
    3.0370   13.6640   -1.9230 C   0  0  0  0  0  0  0  0  0  0  0  0
    3.0490   14.8210   -0.9050 C   0  0  0  0  0  0  0  0  0  0  0  0
    1.9810   15.8640   -1.2470 C   0  0  2  0  0  0  0  0  0  0  0  0
    2.3380   16.4730   -2.6460 C   0  0  0  0  0  0  0  0  0  0  0  0
    4.7915   17.3315    0.2023 H   0  0  0  0  0  0  0  0  0  0  0  0
    4.0510   16.6672   -1.2934 H   0  0  0  0  0  0  0  0  0  0  0  0
    4.7426   18.3250   -1.2934 H   0  0  0  0  0  0  0  0  0  0  0  0
    2.5573   18.9022   -1.0166 H   0  0  0  0  0  0  0  0  0  0  0  0
    2.7005   19.9137    0.9528 H   0  0  0  0  0  0  0  0  0  0  0  0
    2.1580   18.3560    1.7419 H   0  0  0  0  0  0  0  0  0  0  0  0
    4.5239   17.6357    1.8536 H   0  0  0  0  0  0  0  0  0  0  0  0
    5.0057   19.2657    1.2225 H   0  0  0  0  0  0  0  0  0  0  0  0
    3.1259   19.2026    3.2137 H   0  0  0  0  0  0  0  0  0  0  0  0
    6.8963   17.7351    4.8857 H   0  0  0  0  0  0  0  0  0  0  0  0
    6.1059   17.2085    3.3610 H   0  0  0  0  0  0  0  0  0  0  0  0
    7.1958   18.6363    3.3610 H   0  0  0  0  0  0  0  0  0  0  0  0
    5.7339   18.7422    6.3104 H   0  0  0  0  0  0  0  0  0  0  0  0
    4.7923   20.2152    5.8981 H   0  0  0  0  0  0  0  0  0  0  0  0
    3.9908   18.6077    5.8981 H   0  0  0  0  0  0  0  0  0  0  0  0
    1.9493   16.6689    0.7843 H   0  0  0  0  0  0  0  0  0  0  0  0
   -0.1695   17.7562    0.3725 H   0  0  0  0  0  0  0  0  0  0  0  0
    0.4061   18.4726   -1.1481 H   0  0  0  0  0  0  0  0  0  0  0  0
   -1.3423   16.2226   -0.9290 H   0  0  0  0  0  0  0  0  0  0  0  0
   -0.4933   16.6733   -2.4054 H   0  0  0  0  0  0  0  0  0  0  0  0
    0.6193   15.2550    1.0172 H   0  0  0  0  0  0  0  0  0  0  0  0
   -0.8944   14.5654    0.3389 H   0  0  0  0  0  0  0  0  0  0  0  0
    0.6151   13.5916    0.3389 H   0  0  0  0  0  0  0  0  0  0  0  0
    0.6098   14.6695   -3.2025 H   0  0  0  0  0  0  0  0  0  0  0  0
   -1.6711   14.1416   -2.1257 H   0  0  0  0  0  0  0  0  0  0  0  0
   -0.9818   13.0828   -3.4646 H   0  0  0  0  0  0  0  0  0  0  0  0
   -2.1287   11.8223   -1.4547 H   0  0  0  0  0  0  0  0  0  0  0  0
    1.6931   12.2981   -0.2467 H   0  0  0  0  0  0  0  0  0  0  0  0
    1.8529   10.1632   -2.4633 H   0  0  0  0  0  0  0  0  0  0  0  0
    3.2392   10.8471   -1.5037 H   0  0  0  0  0  0  0  0  0  0  0  0
    2.5672    8.6025   -0.7094 H   0  0  0  0  0  0  0  0  0  0  0  0
    2.3384    9.8912    0.5371 H   0  0  0  0  0  0  0  0  0  0  0  0
    0.4311    8.4361    0.5744 H   0  0  0  0  0  0  0  0  0  0  0  0
    0.8890    8.2860   -2.0270 H   0  0  0  0  0  0  0  0  0  0  0  0
   -0.5200   10.1006    2.1656 H   0  0  0  0  0  0  0  0  0  0  0  0
    0.9272   10.9943    1.5879 H   0  0  0  0  0  0  0  0  0  0  0  0
   -0.6813   11.7939    1.5879 H   0  0  0  0  0  0  0  0  0  0  0  0
   -2.2411    9.7008    1.0056 H   0  0  0  0  0  0  0  0  0  0  0  0
   -2.5054   10.5596   -0.5498 H   0  0  0  0  0  0  0  0  0  0  0  0
   -1.9255    8.8595   -0.5498 H   0  0  0  0  0  0  0  0  0  0  0  0
    1.9459   11.3389   -3.6146 H   0  0  0  0  0  0  0  0  0  0  0  0
    0.8041   12.5873   -4.2181 H   0  0  0  0  0  0  0  0  0  0  0  0
    2.5710   12.9110   -4.2181 H   0  0  0  0  0  0  0  0  0  0  0  0
    3.6917   12.8707   -1.5330 H   0  0  0  0  0  0  0  0  0  0  0  0
    3.3697   14.1113   -2.8713 H   0  0  0  0  0  0  0  0  0  0  0  0
    2.8503   14.4186    0.0993 H   0  0  0  0  0  0  0  0  0  0  0  0
    4.0357   15.3061   -0.9374 H   0  0  0  0  0  0  0  0  0  0  0  0
    2.8898   17.4143   -2.5061 H   0  0  0  0  0  0  0  0  0  0  0  0
    2.9622   15.7619   -3.2070 H   0  0  0  0  0  0  0  0  0  0  0  0
    1.4126   16.6703   -3.2070 H   0  0  0  0  0  0  0  0  0  0  0  0
  1  2  1  0
  2  3  1  0
  3  4  1  0
  4  5  1  0
  5  6  1  0
  6  7  1  0
  7  8  1  0
  7  9  1  0
  2 10  1  0
 10 11  1  0
 11 12  1  0
 12 13  1  0
 13 14  1  1
 13 15  1  0
 15 16  1  0
 16 17  1  0
 17 18  2  0
 18 19  1  0
 19 20  1  0
 20 21  1  0
 21 22  1  0
 22 23  1  0
 22 24  1  0
 24 25  1  0
 24 26  1  0
 19 27  1  0
 27 28  1  6
 27 29  1  0
 29 30  1  0
 30 31  1  0
 31 32  1  6
  7  5  1  0
 31 10  1  0
 31 13  1  0
 27 15  1  0
 24 18  1  0
  1 33  1  0
  1 34  1  0
  1 35  1  0
  2 36  1  6
  3 37  1  0
  3 38  1  0
  4 39  1  0
  4 40  1  0
  5 41  1  1
  8 42  1  0
  8 43  1  0
  8 44  1  0
  9 45  1  0
  9 46  1  0
  9 47  1  0
 10 48  1  1
 11 49  1  0
 11 50  1  0
 12 51  1  0
 12 52  1  0
 14 53  1  0
 14 54  1  0
 14 55  1  0
 15 56  1  6
 16 57  1  0
 16 58  1  0
 17 59  1  0
 19 60  1  1
 20 61  1  0
 20 62  1  0
 21 63  1  0
 21 64  1  0
 22 65  1  1
 23 66  1  0
 25 67  1  0
 25 68  1  0
 25 69  1  0
 26 70  1  0
 26 71  1  0
 26 72  1  0
 28 73  1  0
 28 74  1  0
 28 75  1  0
 29 76  1  0
 29 77  1  0
 30 78  1  0
 30 79  1  0
 32 80  1  0
 32 81  1  0
 32 82  1  0
M  END
>  <meeko>  (2) 
{"is_sidechain": [false], "intermolecular_energy": 2.731, "internal_energy": -0.839}

$$$$
EPH_relaxed_0001_pdb2pqr_Repair_283_r2_0001_out
     RDKit          3D

 82 86  0  0  0  0  0  0  0  0999 V2000
    2.5610   18.0090   -2.4960 C   0  0  0  0  0  0  0  0  0  0  0  0
    1.2170   17.6780   -1.8400 C   0  0  2  0  0  0  0  0  0  0  0  0
    1.2920   17.7400   -0.3010 C   0  0  0  0  0  0  0  0  0  0  0  0
    0.9120   19.1040    0.2800 C   0  0  0  0  0  0  0  0  0  0  0  0
   -0.5520   19.1850    0.5920 C   0  0  2  0  0  0  0  0  0  0  0  0
   -1.3760   18.2880   -0.1620 O   0  0  0  0  0  0  0  0  0  0  0  0
   -1.5910   19.6900   -0.3910 C   0  0  0  0  0  0  0  0  0  0  0  0
   -1.2090   20.1480   -1.7640 C   0  0  0  0  0  0  0  0  0  0  0  0
   -2.8960   20.1940    0.1420 C   0  0  0  0  0  0  0  0  0  0  0  0
    0.7480   16.2970   -2.2840 C   0  0  1  0  0  0  0  0  0  0  0  0
    0.8450   16.0990   -3.8200 C   0  0  0  0  0  0  0  0  0  0  0  0
    1.2220   14.6140   -4.0560 C   0  0  0  0  0  0  0  0  0  0  0  0
    1.0060   13.9330   -2.6840 C   0  0  1  0  0  0  0  0  0  0  0  0
   -0.5290   13.6620   -2.6080 C   0  0  0  0  0  0  0  0  0  0  0  0
    1.8360   12.6350   -2.4190 C   0  0  2  0  0  0  0  0  0  0  0  0
    1.5370   11.4640   -3.3710 C   0  0  0  0  0  0  0  0  0  0  0  0
    0.4620   10.5320   -2.9190 C   0  0  0  0  0  0  0  0  0  0  0  0
   -0.0400   10.4630   -1.6720 C   0  0  0  0  0  0  0  0  0  0  0  0
    0.5480   11.3130   -0.5380 C   0  0  1  0  0  0  0  0  0  0  0  0
    0.7580   10.4270    0.7180 C   0  0  0  0  0  0  0  0  0  0  0  0
   -0.5130    9.6950    1.1360 C   0  0  0  0  0  0  0  0  0  0  0  0
   -1.0340    8.8150    0.0030 C   0  0  2  0  0  0  0  0  0  0  0  0
   -0.0980    7.7580   -0.2280 O   0  0  0  0  0  0  0  0  0  0  0  0
   -1.2740    9.5980   -1.3190 C   0  0  0  0  0  0  0  0  0  0  0  0
   -2.4950   10.5370   -1.1530 C   0  0  0  0  0  0  0  0  0  0  0  0
   -1.6620    8.5710   -2.4170 C   0  0  0  0  0  0  0  0  0  0  0  0
    1.8380   12.1650   -0.9080 C   0  0  1  0  0  0  0  0  0  0  0  0
    3.1210   11.3000   -0.7120 C   0  0  0  0  0  0  0  0  0  0  0  0
    1.9610   13.3730    0.0950 C   0  0  0  0  0  0  0  0  0  0  0  0
    1.2150   14.6680   -0.2830 C   0  0  0  0  0  0  0  0  0  0  0  0
    1.5180   15.0720   -1.7290 C   0  0  2  0  0  0  0  0  0  0  0  0
    3.0520   15.3730   -1.8310 C   0  0  0  0  0  0  0  0  0  0  0  0
    3.3140   18.1944   -1.7159 H   0  0  0  0  0  0  0  0  0  0  0  0
    2.8819   17.1630   -3.1216 H   0  0  0  0  0  0  0  0  0  0  0  0
    2.4523   18.9072   -3.1216 H   0  0  0  0  0  0  0  0  0  0  0  0
    0.4926   18.4388   -2.1662 H   0  0  0  0  0  0  0  0  0  0  0  0
    0.6068   16.9843    0.1106 H   0  0  0  0  0  0  0  0  0  0  0  0
    2.3397   17.5532   -0.0229 H   0  0  0  0  0  0  0  0  0  0  0  0
    1.4834   19.2691    1.2053 H   0  0  0  0  0  0  0  0  0  0  0  0
    1.1460   19.8737   -0.4702 H   0  0  0  0  0  0  0  0  0  0  0  0
   -0.3374   19.4478    1.6384 H   0  0  0  0  0  0  0  0  0  0  0  0
   -0.5062   20.9907   -1.6871 H   0  0  0  0  0  0  0  0  0  0  0  0
   -0.7303   19.3197   -2.3069 H   0  0  0  0  0  0  0  0  0  0  0  0
   -2.1098   20.4702   -2.3069 H   0  0  0  0  0  0  0  0  0  0  0  0
   -2.8712   20.1844    1.2417 H   0  0  0  0  0  0  0  0  0  0  0  0
   -3.0643   21.2218   -0.2120 H   0  0  0  0  0  0  0  0  0  0  0  0
   -3.7114   19.5461   -0.2120 H   0  0  0  0  0  0  0  0  0  0  0  0
   -0.2758   16.3115   -1.8819 H   0  0  0  0  0  0  0  0  0  0  0  0
   -0.1223   16.3241   -4.2929 H   0  0  0  0  0  0  0  0  0  0  0  0
    1.5965   16.7720   -4.2585 H   0  0  0  0  0  0  0  0  0  0  0  0
    0.5699   14.1645   -4.8194 H   0  0  0  0  0  0  0  0  0  0  0  0
    2.2533   14.4987   -4.4209 H   0  0  0  0  0  0  0  0  0  0  0  0
   -0.8399   13.6071   -1.5543 H   0  0  0  0  0  0  0  0  0  0  0  0
   -1.0707   14.4784   -3.1081 H   0  0  0  0  0  0  0  0  0  0  0  0
   -0.7584   12.7095   -3.1081 H   0  0  0  0  0  0  0  0  0  0  0  0
    2.8609   12.9575   -2.6548 H   0  0  0  0  0  0  0  0  0  0  0  0
    1.2363   11.8840   -4.3422 H   0  0  0  0  0  0  0  0  0  0  0  0
    2.4590   10.8657   -3.4156 H   0  0  0  0  0  0  0  0  0  0  0  0
    0.0448    9.8433   -3.6685 H   0  0  0  0  0  0  0  0  0  0  0  0
   -0.1978   12.0925   -0.3234 H   0  0  0  0  0  0  0  0  0  0  0  0
    1.5376    9.6827    0.4982 H   0  0  0  0  0  0  0  0  0  0  0  0
    1.0513   11.0874    1.5474 H   0  0  0  0  0  0  0  0  0  0  0  0
   -0.2940    9.0641    2.0101 H   0  0  0  0  0  0  0  0  0  0  0  0
   -1.2825   10.4412    1.3829 H   0  0  0  0  0  0  0  0  0  0  0  0
   -2.0113    8.4186    0.3158 H   0  0  0  0  0  0  0  0  0  0  0  0
    0.4320    7.6530    0.5800 H   0  0  0  0  0  0  0  0  0  0  0  0
   -2.6959   10.6915   -0.0826 H   0  0  0  0  0  0  0  0  0  0  0  0
   -2.2805   11.5051   -1.6293 H   0  0  0  0  0  0  0  0  0  0  0  0
   -3.3756   10.0812   -1.6293 H   0  0  0  0  0  0  0  0  0  0  0  0
   -2.0128    7.6424   -1.9430 H   0  0  0  0  0  0  0  0  0  0  0  0
   -2.4642    8.9889   -3.0429 H   0  0  0  0  0  0  0  0  0  0  0  0
   -0.7838    8.3541   -3.0429 H   0  0  0  0  0  0  0  0  0  0  0  0
    3.3146   11.1695    0.3629 H   0  0  0  0  0  0  0  0  0  0  0  0
    2.9746   10.3155   -1.1804 H   0  0  0  0  0  0  0  0  0  0  0  0
    3.9787   11.8049   -1.1804 H   0  0  0  0  0  0  0  0  0  0  0  0
    1.5741   13.0380    1.0687 H   0  0  0  0  0  0  0  0  0  0  0  0
    3.0273   13.6432    0.0914 H   0  0  0  0  0  0  0  0  0  0  0  0
    0.1326   14.5048   -0.1741 H   0  0  0  0  0  0  0  0  0  0  0  0
    1.5515   15.4747    0.3848 H   0  0  0  0  0  0  0  0  0  0  0  0
    3.4773   15.4565   -0.8200 H   0  0  0  0  0  0  0  0  0  0  0  0
    3.5508   14.5556   -2.3723 H   0  0  0  0  0  0  0  0  0  0  0  0
    3.2050   16.3183   -2.3723 H   0  0  0  0  0  0  0  0  0  0  0  0
  1  2  1  0
  2  3  1  0
  3  4  1  0
  4  5  1  0
  5  6  1  0
  6  7  1  0
  7  8  1  0
  7  9  1  0
  2 10  1  0
 10 11  1  0
 11 12  1  0
 12 13  1  0
 13 14  1  1
 13 15  1  0
 15 16  1  0
 16 17  1  0
 17 18  2  0
 18 19  1  0
 19 20  1  0
 20 21  1  0
 21 22  1  0
 22 23  1  0
 22 24  1  0
 24 25  1  0
 24 26  1  0
 19 27  1  0
 27 28  1  6
 27 29  1  0
 29 30  1  0
 30 31  1  0
 31 32  1  1
  7  5  1  0
 31 10  1  0
 31 13  1  0
 27 15  1  0
 24 18  1  0
  1 33  1  0
  1 34  1  0
  1 35  1  0
  2 36  1  6
  3 37  1  0
  3 38  1  0
  4 39  1  0
  4 40  1  0
  5 41  1  1
  8 42  1  0
  8 43  1  0
  8 44  1  0
  9 45  1  0
  9 46  1  0
  9 47  1  0
 10 48  1  1
 11 49  1  0
 11 50  1  0
 12 51  1  0
 12 52  1  0
 14 53  1  0
 14 54  1  0
 14 55  1  0
 15 56  1  6
 16 57  1  0
 16 58  1  0
 17 59  1  0
 19 60  1  1
 20 61  1  0
 20 62  1  0
 21 63  1  0
 21 64  1  0
 22 65  1  1
 23 66  1  0
 25 67  1  0
 25 68  1  0
 25 69  1  0
 26 70  1  0
 26 71  1  0
 26 72  1  0
 28 73  1  0
 28 74  1  0
 28 75  1  0
 29 76  1  0
 29 77  1  0
 30 78  1  0
 30 79  1  0
 32 80  1  0
 32 81  1  0
 32 82  1  0
M  END
>  <meeko>  (3) 
{"is_sidechain": [false], "intermolecular_energy": 2.731, "internal_energy": -0.839}

$$$$
EPH_relaxed_0001_pdb2pqr_Repair_283_r2_0001_out
     RDKit          3D

 82 86  0  0  0  0  0  0  0  0999 V2000
   -3.4070    9.3200    0.5490 C   0  0  0  0  0  0  0  0  0  0  0  0
   -2.5790    9.6840   -0.6870 C   0  0  2  0  0  0  0  0  0  0  0  0
   -1.9050    8.4500   -1.3190 C   0  0  0  0  0  0  0  0  0  0  0  0
   -2.8180    7.6680   -2.2680 C   0  0  0  0  0  0  0  0  0  0  0  0
   -4.2560    7.7560   -1.8520 C   0  0  2  0  0  0  0  0  0  0  0  0
   -4.7960    6.5470   -1.3040 O   0  0  0  0  0  0  0  0  0  0  0  0
   -5.3740    6.9960   -2.5400 C   0  0  0  0  0  0  0  0  0  0  0  0
   -5.1030    6.0930   -3.7020 C   0  0  0  0  0  0  0  0  0  0  0  0
   -6.7750    7.5030   -2.4010 C   0  0  0  0  0  0  0  0  0  0  0  0
   -1.5250   10.7220   -0.3190 C   0  0  1  0  0  0  0  0  0  0  0  0
   -0.4320   10.1540    0.6250 C   0  0  0  0  0  0  0  0  0  0  0  0
    0.8990   10.8460    0.2350 C   0  0  0  0  0  0  0  0  0  0  0  0
    0.4750   12.0180   -0.6820 C   0  0  1  0  0  0  0  0  0  0  0  0
    0.0270   13.1500    0.2950 C   0  0  0  0  0  0  0  0  0  0  0  0
    1.5510   12.5250   -1.6970 C   0  0  2  0  0  0  0  0  0  0  0  0
    2.8270   13.1030   -1.0620 C   0  0  0  0  0  0  0  0  0  0  0  0
    2.7960   14.5710   -0.7920 C   0  0  0  0  0  0  0  0  0  0  0  0
    1.9070   15.4420   -1.3040 C   0  0  0  0  0  0  0  0  0  0  0  0
    0.8600   14.9870   -2.3300 C   0  0  1  0  0  0  0  0  0  0  0  0
    0.8150   15.9970   -3.5060 C   0  0  0  0  0  0  0  0  0  0  0  0
    0.5880   17.4310   -3.0390 C   0  0  0  0  0  0  0  0  0  0  0  0
    1.6810   17.8660   -2.0660 C   0  0  2  0  0  0  0  0  0  0  0  0
    2.9240   17.9370   -2.7710 O   0  0  0  0  0  0  0  0  0  0  0  0
    1.8270   16.9180   -0.8430 C   0  0  0  0  0  0  0  0  0  0  0  0
    0.5950   17.0720    0.0840 C   0  0  0  0  0  0  0  0  0  0  0  0
    3.0540   17.3900   -0.0170 C   0  0  0  0  0  0  0  0  0  0  0  0
    0.9810   13.4810   -2.8220 C   0  0  1  0  0  0  0  0  0  0  0  0
    1.9690   13.3920   -4.0250 C   0  0  0  0  0  0  0  0  0  0  0  0
   -0.4190   13.0020   -3.3610 C   0  0  0  0  0  0  0  0  0  0  0  0
   -1.3920   12.4010   -2.3290 C   0  0  0  0  0  0  0  0  0  0  0  0
   -0.6970   11.3360   -1.4760 C   0  0  2  0  0  0  0  0  0  0  0  0
   -0.2550   10.1730   -2.4290 C   0  0  0  0  0  0  0  0  0  0  0  0
   -2.8391    9.5697    1.4573 H   0  0  0  0  0  0  0  0  0  0  0  0
   -4.3498    9.8867    0.5387 H   0  0  0  0  0  0  0  0  0  0  0  0
   -3.6269    8.2422    0.5387 H   0  0  0  0  0  0  0  0  0  0  0  0
   -3.2681   10.1026   -1.4352 H   0  0  0  0  0  0  0  0  0  0  0  0
   -1.0237    8.7871   -1.8843 H   0  0  0  0  0  0  0  0  0  0  0  0
   -1.6407    7.7709   -0.4950 H   0  0  0  0  0  0  0  0  0  0  0  0
   -2.7145    8.0802   -3.2826 H   0  0  0  0  0  0  0  0  0  0  0  0
   -2.5169    6.6104   -2.2397 H   0  0  0  0  0  0  0  0  0  0  0  0
   -4.1388    8.8175   -1.5883 H   0  0  0  0  0  0  0  0  0  0  0  0
   -4.8051    5.1004   -3.3333 H   0  0  0  0  0  0  0  0  0  0  0  0
   -6.0126    5.9992   -4.3134 H   0  0  0  0  0  0  0  0  0  0  0  0
   -4.2921    6.5156   -4.3134 H   0  0  0  0  0  0  0  0  0  0  0  0
   -7.0277    7.5944   -1.3343 H   0  0  0  0  0  0  0  0  0  0  0  0
   -6.8580    8.4882   -2.8832 H   0  0  0  0  0  0  0  0  0  0  0  0
   -7.4692    6.7991   -2.8832 H   0  0  0  0  0  0  0  0  0  0  0  0
   -2.1714   11.4907    0.1296 H   0  0  0  0  0  0  0  0  0  0  0  0
   -0.6825   10.3777    1.6725 H   0  0  0  0  0  0  0  0  0  0  0  0
   -0.3531    9.0613    0.5257 H   0  0  0  0  0  0  0  0  0  0  0  0
    1.4185   11.2208    1.1292 H   0  0  0  0  0  0  0  0  0  0  0  0
    1.5969   10.1573   -0.2637 H   0  0  0  0  0  0  0  0  0  0  0  0
    0.1606   12.8123    1.3333 H   0  0  0  0  0  0  0  0  0  0  0  0
    0.6375   14.0482    0.1201 H   0  0  0  0  0  0  0  0  0  0  0  0
   -1.0328   13.3872    0.1201 H   0  0  0  0  0  0  0  0  0  0  0  0
    1.8613   11.5947   -2.1952 H   0  0  0  0  0  0  0  0  0  0  0  0
    2.9958   12.5851   -0.1063 H   0  0  0  0  0  0  0  0  0  0  0  0
    3.6307   12.9454   -1.7963 H   0  0  0  0  0  0  0  0  0  0  0  0
    3.5651   14.9750   -0.1173 H   0  0  0  0  0  0  0  0  0  0  0  0
   -0.1047   14.9871   -1.8015 H   0  0  0  0  0  0  0  0  0  0  0  0
    1.7713   15.9500   -4.0476 H   0  0  0  0  0  0  0  0  0  0  0  0
   -0.0310   15.7190   -4.1518 H   0  0  0  0  0  0  0  0  0  0  0  0
    0.5961   18.0998   -3.9123 H   0  0  0  0  0  0  0  0  0  0  0  0
   -0.3826   17.4837   -2.5240 H   0  0  0  0  0  0  0  0  0  0  0  0
    1.3938   18.8498   -1.6665 H   0  0  0  0  0  0  0  0  0  0  0  0
    3.6360   17.7630   -2.1310 H   0  0  0  0  0  0  0  0  0  0  0  0
    0.9191   17.0315    1.1344 H   0  0  0  0  0  0  0  0  0  0  0  0
    0.1070   18.0381   -0.1121 H   0  0  0  0  0  0  0  0  0  0  0  0
   -0.1158   16.2557   -0.1121 H   0  0  0  0  0  0  0  0  0  0  0  0
    2.8288   17.3034    1.0562 H   0  0  0  0  0  0  0  0  0  0  0  0
    3.9237   16.7623   -0.2610 H   0  0  0  0  0  0  0  0  0  0  0  0
    3.2788   18.4388   -0.2610 H   0  0  0  0  0  0  0  0  0  0  0  0
    2.9982   13.2993   -3.6481 H   0  0  0  0  0  0  0  0  0  0  0  0
    1.7223   12.5124   -4.6378 H   0  0  0  0  0  0  0  0  0  0  0  0
    1.8835   14.3015   -4.6378 H   0  0  0  0  0  0  0  0  0  0  0  0
   -0.9144   13.8709   -3.8187 H   0  0  0  0  0  0  0  0  0  0  0  0
   -0.1937   12.1803   -4.0568 H   0  0  0  0  0  0  0  0  0  0  0  0
   -1.7612   13.2030   -1.6729 H   0  0  0  0  0  0  0  0  0  0  0  0
   -2.2271   11.9291   -2.8675 H   0  0  0  0  0  0  0  0  0  0  0  0
    0.0725    9.3114   -1.8286 H   0  0  0  0  0  0  0  0  0  0  0  0
   -1.1032    9.8766   -3.0636 H   0  0  0  0  0  0  0  0  0  0  0  0
    0.5759   10.5147   -3.0636 H   0  0  0  0  0  0  0  0  0  0  0  0
  1  2  1  0
  2  3  1  0
  3  4  1  0
  4  5  1  0
  5  6  1  0
  6  7  1  0
  7  8  1  0
  7  9  1  0
  2 10  1  0
 10 11  1  0
 11 12  1  0
 12 13  1  0
 13 14  1  1
 13 15  1  0
 15 16  1  0
 16 17  1  0
 17 18  2  0
 18 19  1  0
 19 20  1  0
 20 21  1  0
 21 22  1  0
 22 23  1  0
 22 24  1  0
 24 25  1  0
 24 26  1  0
 19 27  1  0
 27 28  1  6
 27 29  1  0
 29 30  1  0
 30 31  1  0
 31 32  1  6
  7  5  1  0
 31 10  1  0
 31 13  1  0
 27 15  1  0
 24 18  1  0
  1 33  1  0
  1 34  1  0
  1 35  1  0
  2 36  1  6
  3 37  1  0
  3 38  1  0
  4 39  1  0
  4 40  1  0
  5 41  1  1
  8 42  1  0
  8 43  1  0
  8 44  1  0
  9 45  1  0
  9 46  1  0
  9 47  1  0
 10 48  1  1
 11 49  1  0
 11 50  1  0
 12 51  1  0
 12 52  1  0
 14 53  1  0
 14 54  1  0
 14 55  1  0
 15 56  1  6
 16 57  1  0
 16 58  1  0
 17 59  1  0
 19 60  1  1
 20 61  1  0
 20 62  1  0
 21 63  1  0
 21 64  1  0
 22 65  1  1
 23 66  1  0
 25 67  1  0
 25 68  1  0
 25 69  1  0
 26 70  1  0
 26 71  1  0
 26 72  1  0
 28 73  1  0
 28 74  1  0
 28 75  1  0
 29 76  1  0
 29 77  1  0
 30 78  1  0
 30 79  1  0
 32 80  1  0
 32 81  1  0
 32 82  1  0
M  END
>  <meeko>  (4) 
{"is_sidechain": [false], "intermolecular_energy": 2.731, "internal_energy": -0.839}

$$$$
EPH_relaxed_0001_pdb2pqr_Repair_283_r2_0001_out
     RDKit          3D

 82 86  0  0  0  0  0  0  0  0999 V2000
    2.1780   17.9890   -2.8030 C   0  0  0  0  0  0  0  0  0  0  0  0
    0.8360   17.6410   -2.1540 C   0  0  2  0  0  0  0  0  0  0  0  0
    0.8810   17.7730   -0.6190 C   0  0  0  0  0  0  0  0  0  0  0  0
    2.2790   18.0660   -0.0670 C   0  0  0  0  0  0  0  0  0  0  0  0
    2.2560   19.1750    0.9410 C   0  0  2  0  0  0  0  0  0  0  0  0
    3.2410   20.1950    0.7330 O   0  0  0  0  0  0  0  0  0  0  0  0
    3.3730   19.4230    1.9370 C   0  0  0  0  0  0  0  0  0  0  0  0
    4.5920   18.5560    1.9750 C   0  0  0  0  0  0  0  0  0  0  0  0
    3.0630   20.1930    3.1830 C   0  0  0  0  0  0  0  0  0  0  0  0
    0.4210   16.2270   -2.5440 C   0  0  1  0  0  0  0  0  0  0  0  0
    0.4790   15.9890   -4.0760 C   0  0  0  0  0  0  0  0  0  0  0  0
    0.9210   14.5180   -4.2840 C   0  0  0  0  0  0  0  0  0  0  0  0
    0.7820   13.8680   -2.8880 C   0  0  1  0  0  0  0  0  0  0  0  0
   -0.7350   13.5250   -2.7540 C   0  0  0  0  0  0  0  0  0  0  0  0
    1.6830   12.6190   -2.6140 C   0  0  2  0  0  0  0  0  0  0  0  0
    1.4120   11.4080   -3.5230 C   0  0  0  0  0  0  0  0  0  0  0  0
    0.3990   10.4390   -3.0110 C   0  0  0  0  0  0  0  0  0  0  0  0
   -0.0590   10.3820   -1.7460 C   0  0  0  0  0  0  0  0  0  0  0  0
    0.5220   11.2920   -0.6560 C   0  0  1  0  0  0  0  0  0  0  0  0
    0.8150   10.4550    0.6160 C   0  0  0  0  0  0  0  0  0  0  0  0
   -0.4040    9.6740    1.0960 C   0  0  0  0  0  0  0  0  0  0  0  0
   -0.9170    8.7380    0.0050 C   0  0  2  0  0  0  0  0  0  0  0  0
    0.0620    7.7200   -0.2270 O   0  0  0  0  0  0  0  0  0  0  0  0
   -1.2380    9.4690   -1.3280 C   0  0  0  0  0  0  0  0  0  0  0  0
   -2.4970   10.3520   -1.1480 C   0  0  0  0  0  0  0  0  0  0  0  0
   -1.6090    8.3930   -2.3850 C   0  0  0  0  0  0  0  0  0  0  0  0
    1.7560   12.1940   -1.0920 C   0  0  1  0  0  0  0  0  0  0  0  0
    3.0850   11.3980   -0.9150 C   0  0  0  0  0  0  0  0  0  0  0  0
    1.8510   13.4360   -0.1280 C   0  0  0  0  0  0  0  0  0  0  0  0
    1.0310   14.6810   -0.5160 C   0  0  0  0  0  0  0  0  0  0  0  0
    1.2670   15.0580   -1.9820 C   0  0  2  0  0  0  0  0  0  0  0  0
    2.7810   15.4290   -2.1420 C   0  0  0  0  0  0  0  0  0  0  0  0
    2.9251   18.1827   -2.0192 H   0  0  0  0  0  0  0  0  0  0  0  0
    2.5121   17.1478   -3.4281 H   0  0  0  0  0  0  0  0  0  0  0  0
    2.0612   18.8866   -3.4281 H   0  0  0  0  0  0  0  0  0  0  0  0
    0.0926   18.3620   -2.5248 H   0  0  0  0  0  0  0  0  0  0  0  0
    0.2111   18.5931   -0.3212 H   0  0  0  0  0  0  0  0  0  0  0  0
    0.5681   16.8037   -0.2037 H   0  0  0  0  0  0  0  0  0  0  0  0
    2.6708   17.1567    0.4123 H   0  0  0  0  0  0  0  0  0  0  0  0
    2.9200   18.3775   -0.9049 H   0  0  0  0  0  0  0  0  0  0  0  0
    1.1676   19.0727    1.0628 H   0  0  0  0  0  0  0  0  0  0  0  0
    4.8692   18.3588    3.0211 H   0  0  0  0  0  0  0  0  0  0  0  0
    4.3809   17.6040    1.4659 H   0  0  0  0  0  0  0  0  0  0  0  0
    5.4220   19.0678    1.4659 H   0  0  0  0  0  0  0  0  0  0  0  0
    3.3094   19.5809    4.0631 H   0  0  0  0  0  0  0  0  0  0  0  0
    3.6591   21.1173    3.2007 H   0  0  0  0  0  0  0  0  0  0  0  0
    1.9927   20.4465    3.2007 H   0  0  0  0  0  0  0  0  0  0  0  0
   -0.5890   16.2042   -2.1089 H   0  0  0  0  0  0  0  0  0  0  0  0
   -0.5128   16.1532   -4.5226 H   0  0  0  0  0  0  0  0  0  0  0  0
    1.1824   16.6844   -4.5572 H   0  0  0  0  0  0  0  0  0  0  0  0
    0.2681   14.0157   -5.0130 H   0  0  0  0  0  0  0  0  0  0  0  0
    1.9446   14.4419   -4.6796 H   0  0  0  0  0  0  0  0  0  0  0  0
   -1.0045   13.4641   -1.6893 H   0  0  0  0  0  0  0  0  0  0  0  0
   -1.3328   14.3106   -3.2392 H   0  0  0  0  0  0  0  0  0  0  0  0
   -0.9367   12.5586   -3.2392 H   0  0  0  0  0  0  0  0  0  0  0  0
    2.6830   12.9836   -2.8917 H   0  0  0  0  0  0  0  0  0  0  0  0
    1.0607   11.7847   -4.4949 H   0  0  0  0  0  0  0  0  0  0  0  0
    2.3603   10.8537   -3.5812 H   0  0  0  0  0  0  0  0  0  0  0  0
   -0.0078    9.7100   -3.7273 H   0  0  0  0  0  0  0  0  0  0  0  0
   -0.2543   12.0403   -0.4384 H   0  0  0  0  0  0  0  0  0  0  0  0
    1.6235    9.7437    0.3915 H   0  0  0  0  0  0  0  0  0  0  0  0
    1.1006   11.1532    1.4166 H   0  0  0  0  0  0  0  0  0  0  0  0
   -0.1259    9.0795    1.9787 H   0  0  0  0  0  0  0  0  0  0  0  0
   -1.2013   10.3885    1.3488 H   0  0  0  0  0  0  0  0  0  0  0  0
   -1.8636    8.3046    0.3601 H   0  0  0  0  0  0  0  0  0  0  0  0
    0.2620    7.3040    0.6290 H   0  0  0  0  0  0  0  0  0  0  0  0
   -2.6964   10.4919   -0.0753 H   0  0  0  0  0  0  0  0  0  0  0  0
   -2.3288   11.3311   -1.6204 H   0  0  0  0  0  0  0  0  0  0  0  0
   -3.3602    9.8604   -1.6204 H   0  0  0  0  0  0  0  0  0  0  0  0
   -1.9266    7.4718   -1.8746 H   0  0  0  0  0  0  0  0  0  0  0  0
   -2.4306    8.7654   -3.0145 H   0  0  0  0  0  0  0  0  0  0  0  0
   -0.7325    8.1798   -3.0145 H   0  0  0  0  0  0  0  0  0  0  0  0
    3.2965   11.2713    0.1570 H   0  0  0  0  0  0  0  0  0  0  0  0
    2.9865   10.4101   -1.3886 H   0  0  0  0  0  0  0  0  0  0  0  0
    3.9095   11.9511   -1.3886 H   0  0  0  0  0  0  0  0  0  0  0  0
    1.5126   13.1115    0.8671 H   0  0  0  0  0  0  0  0  0  0  0  0
    2.9019   13.7574   -0.1755 H   0  0  0  0  0  0  0  0  0  0  0  0
   -0.0379   14.4687   -0.3666 H   0  0  0  0  0  0  0  0  0  0  0  0
    1.3488   15.5219    0.1179 H   0  0  0  0  0  0  0  0  0  0  0  0
    3.2381   15.5410   -1.1478 H   0  0  0  0  0  0  0  0  0  0  0  0
    3.2976   14.6309   -2.6953 H   0  0  0  0  0  0  0  0  0  0  0  0
    2.8701   16.3755   -2.6953 H   0  0  0  0  0  0  0  0  0  0  0  0
  1  2  1  0
  2  3  1  0
  3  4  1  0
  4  5  1  0
  5  6  1  0
  6  7  1  0
  7  8  1  0
  7  9  1  0
  2 10  1  0
 10 11  1  0
 11 12  1  0
 12 13  1  0
 13 14  1  1
 13 15  1  0
 15 16  1  0
 16 17  1  0
 17 18  2  0
 18 19  1  0
 19 20  1  0
 20 21  1  0
 21 22  1  0
 22 23  1  0
 22 24  1  0
 24 25  1  0
 24 26  1  0
 19 27  1  0
 27 28  1  6
 27 29  1  0
 29 30  1  0
 30 31  1  0
 31 32  1  1
  7  5  1  0
 31 10  1  0
 31 13  1  0
 27 15  1  0
 24 18  1  0
  1 33  1  0
  1 34  1  0
  1 35  1  0
  2 36  1  6
  3 37  1  0
  3 38  1  0
  4 39  1  0
  4 40  1  0
  5 41  1  1
  8 42  1  0
  8 43  1  0
  8 44  1  0
  9 45  1  0
  9 46  1  0
  9 47  1  0
 10 48  1  1
 11 49  1  0
 11 50  1  0
 12 51  1  0
 12 52  1  0
 14 53  1  0
 14 54  1  0
 14 55  1  0
 15 56  1  6
 16 57  1  0
 16 58  1  0
 17 59  1  0
 19 60  1  1
 20 61  1  0
 20 62  1  0
 21 63  1  0
 21 64  1  0
 22 65  1  1
 23 66  1  0
 25 67  1  0
 25 68  1  0
 25 69  1  0
 26 70  1  0
 26 71  1  0
 26 72  1  0
 28 73  1  0
 28 74  1  0
 28 75  1  0
 29 76  1  0
 29 77  1  0
 30 78  1  0
 30 79  1  0
 32 80  1  0
 32 81  1  0
 32 82  1  0
M  END
>  <meeko>  (5) 
{"is_sidechain": [false], "intermolecular_energy": 2.731, "internal_energy": -0.839}

$$$$
EPH_relaxed_0001_pdb2pqr_Repair_283_r2_0001_out
     RDKit          3D

 82 86  0  0  0  0  0  0  0  0999 V2000
    3.9040   17.8800    0.3290 C   0  0  0  0  0  0  0  0  0  0  0  0
    2.6480   18.4210   -0.3600 C   0  0  2  0  0  0  0  0  0  0  0  0
    1.9900   19.5600    0.4430 C   0  0  0  0  0  0  0  0  0  0  0  0
    0.6530   19.1710    1.0810 C   0  0  0  0  0  0  0  0  0  0  0  0
   -0.4920   19.9210    0.4700 C   0  0  2  0  0  0  0  0  0  0  0  0
   -1.5780   20.1890    1.3660 O   0  0  0  0  0  0  0  0  0  0  0  0
   -1.8690   19.3200    0.2590 C   0  0  0  0  0  0  0  0  0  0  0  0
   -2.1730   17.9090    0.6560 C   0  0  0  0  0  0  0  0  0  0  0  0
   -2.7680   19.9330   -0.7680 C   0  0  0  0  0  0  0  0  0  0  0  0
    1.6480   17.2920   -0.5780 C   0  0  1  0  0  0  0  0  0  0  0  0
    0.4370   17.7250   -1.4470 C   0  0  0  0  0  0  0  0  0  0  0  0
    0.0340   16.4950   -2.3000 C   0  0  0  0  0  0  0  0  0  0  0  0
    0.8000   15.3120   -1.6620 C   0  0  1  0  0  0  0  0  0  0  0  0
   -0.0610   14.8960   -0.4280 C   0  0  0  0  0  0  0  0  0  0  0  0
    1.0930   14.0940   -2.5980 C   0  0  2  0  0  0  0  0  0  0  0  0
   -0.1540   13.3730   -3.1400 C   0  0  0  0  0  0  0  0  0  0  0  0
   -0.6550   12.2460   -2.2990 C   0  0  0  0  0  0  0  0  0  0  0  0
    0.0300   11.6450   -1.3080 C   0  0  0  0  0  0  0  0  0  0  0  0
    1.4860   12.0270   -1.0130 C   0  0  1  0  0  0  0  0  0  0  0  0
    2.3360   10.7400   -0.8440 C   0  0  0  0  0  0  0  0  0  0  0  0
    1.7580    9.7910    0.2010 C   0  0  0  0  0  0  0  0  0  0  0  0
    0.3300    9.3880   -0.1580 C   0  0  2  0  0  0  0  0  0  0  0  0
    0.3610    8.5960   -1.3490 O   0  0  0  0  0  0  0  0  0  0  0  0
   -0.6170   10.6030   -0.3620 C   0  0  0  0  0  0  0  0  0  0  0  0
   -0.8880   11.2870    1.0010 C   0  0  0  0  0  0  0  0  0  0  0  0
   -1.9860   10.0640   -0.8580 C   0  0  0  0  0  0  0  0  0  0  0  0
    2.1470   13.0680   -2.0160 C   0  0  1  0  0  0  0  0  0  0  0  0
    2.7570   12.3150   -3.2380 C   0  0  0  0  0  0  0  0  0  0  0  0
    3.3470   13.7880   -1.2940 C   0  0  0  0  0  0  0  0  0  0  0  0
    3.0110   15.0530   -0.4820 C   0  0  0  0  0  0  0  0  0  0  0  0
    2.1560   16.0220   -1.3060 C   0  0  2  0  0  0  0  0  0  0  0  0
    3.0040   16.4750   -2.5430 C   0  0  0  0  0  0  0  0  0  0  0  0
    3.7762   17.9351    1.4202 H   0  0  0  0  0  0  0  0  0  0  0  0
    4.0637   16.8333    0.0309 H   0  0  0  0  0  0  0  0  0  0  0  0
    4.7743   18.4830    0.0309 H   0  0  0  0  0  0  0  0  0  0  0  0
    2.9562   18.8372   -1.3304 H   0  0  0  0  0  0  0  0  0  0  0  0
    2.6808   19.8650    1.2429 H   0  0  0  0  0  0  0  0  0  0  0  0
    1.7827   20.3751   -0.2660 H   0  0  0  0  0  0  0  0  0  0  0  0
    0.4899   18.0927    0.9375 H   0  0  0  0  0  0  0  0  0  0  0  0
    0.6969   19.4242    2.1506 H   0  0  0  0  0  0  0  0  0  0  0  0
    0.1899   20.4577   -0.2060 H   0  0  0  0  0  0  0  0  0  0  0  0
   -2.1895   17.8323    1.7532 H   0  0  0  0  0  0  0  0  0  0  0  0
   -3.1544   17.6181    0.2533 H   0  0  0  0  0  0  0  0  0  0  0  0
   -1.3984   17.2398    0.2533 H   0  0  0  0  0  0  0  0  0  0  0  0
   -3.5764   20.4843   -0.2655 H   0  0  0  0  0  0  0  0  0  0  0  0
   -2.1883   20.6248   -1.3968 H   0  0  0  0  0  0  0  0  0  0  0  0
   -3.2002   19.1407   -1.3968 H   0  0  0  0  0  0  0  0  0  0  0  0
    1.4073   17.0556    0.4690 H   0  0  0  0  0  0  0  0  0  0  0  0
   -0.4011   18.0301   -0.8031 H   0  0  0  0  0  0  0  0  0  0  0  0
    0.6971   18.5808   -2.0873 H   0  0  0  0  0  0  0  0  0  0  0  0
   -1.0519   16.3267   -2.2505 H   0  0  0  0  0  0  0  0  0  0  0  0
    0.2791   16.6262   -3.3643 H   0  0  0  0  0  0  0  0  0  0  0  0
    0.4749   15.1549    0.4971 H   0  0  0  0  0  0  0  0  0  0  0  0
   -1.0230   15.4287   -0.4558 H   0  0  0  0  0  0  0  0  0  0  0  0
   -0.2416   13.8113   -0.4558 H   0  0  0  0  0  0  0  0  0  0  0  0
    1.5629   14.5737   -3.4693 H   0  0  0  0  0  0  0  0  0  0  0  0
   -0.9619   14.1138   -3.2318 H   0  0  0  0  0  0  0  0  0  0  0  0
    0.1457   12.9267   -4.0997 H   0  0  0  0  0  0  0  0  0  0  0  0
   -1.6696   11.8753   -2.5065 H   0  0  0  0  0  0  0  0  0  0  0  0
    1.4668   12.5879   -0.0670 H   0  0  0  0  0  0  0  0  0  0  0  0
    2.3792   10.2164   -1.8104 H   0  0  0  0  0  0  0  0  0  0  0  0
    3.3369   11.0430   -0.5029 H   0  0  0  0  0  0  0  0  0  0  0  0
    2.3844    8.8883    0.2531 H   0  0  0  0  0  0  0  0  0  0  0  0
    1.7435   10.3059    1.1729 H   0  0  0  0  0  0  0  0  0  0  0  0
   -0.0744    8.8153    0.6896 H   0  0  0  0  0  0  0  0  0  0  0  0
   -0.5420    8.5700   -1.7080 H   0  0  0  0  0  0  0  0  0  0  0  0
   -0.6160   10.6005    1.8163 H   0  0  0  0  0  0  0  0  0  0  0  0
   -0.2852   12.2040    1.0774 H   0  0  0  0  0  0  0  0  0  0  0  0
   -1.9552   11.5423    1.0774 H   0  0  0  0  0  0  0  0  0  0  0  0
   -2.6176    9.8153    0.0076 H   0  0  0  0  0  0  0  0  0  0  0  0
   -2.4842   10.8331   -1.4665 H   0  0  0  0  0  0  0  0  0  0  0  0
   -1.8261    9.1617   -1.4665 H   0  0  0  0  0  0  0  0  0  0  0  0
    3.4119   11.5066   -2.8809 H   0  0  0  0  0  0  0  0  0  0  0  0
    1.9468   11.8883   -3.8475 H   0  0  0  0  0  0  0  0  0  0  0  0
    3.3425   13.0190   -3.8475 H   0  0  0  0  0  0  0  0  0  0  0  0
    3.8047   13.0624   -0.6055 H   0  0  0  0  0  0  0  0  0  0  0  0
    4.0055   14.1330   -2.1048 H   0  0  0  0  0  0  0  0  0  0  0  0
    2.4561   14.7633    0.4225 H   0  0  0  0  0  0  0  0  0  0  0  0
    3.9509   15.5567   -0.2120 H   0  0  0  0  0  0  0  0  0  0  0  0
    3.9247   16.9669   -2.1961 H   0  0  0  0  0  0  0  0  0  0  0  0
    3.2645   15.5959   -3.1507 H   0  0  0  0  0  0  0  0  0  0  0  0
    2.4181   17.1803   -3.1507 H   0  0  0  0  0  0  0  0  0  0  0  0
  1  2  1  0
  2  3  1  0
  3  4  1  0
  4  5  1  0
  5  6  1  0
  6  7  1  0
  7  8  1  0
  7  9  1  0
  2 10  1  0
 10 11  1  0
 11 12  1  0
 12 13  1  0
 13 14  1  1
 13 15  1  0
 15 16  1  0
 16 17  1  0
 17 18  2  0
 18 19  1  0
 19 20  1  0
 20 21  1  0
 21 22  1  0
 22 23  1  0
 22 24  1  0
 24 25  1  0
 24 26  1  0
 19 27  1  0
 27 28  1  6
 27 29  1  0
 29 30  1  0
 30 31  1  0
 31 32  1  6
  7  5  1  0
 31 10  1  0
 31 13  1  0
 27 15  1  0
 24 18  1  0
  1 33  1  0
  1 34  1  0
  1 35  1  0
  2 36  1  6
  3 37  1  0
  3 38  1  0
  4 39  1  0
  4 40  1  0
  5 41  1  6
  8 42  1  0
  8 43  1  0
  8 44  1  0
  9 45  1  0
  9 46  1  0
  9 47  1  0
 10 48  1  1
 11 49  1  0
 11 50  1  0
 12 51  1  0
 12 52  1  0
 14 53  1  0
 14 54  1  0
 14 55  1  0
 15 56  1  6
 16 57  1  0
 16 58  1  0
 17 59  1  0
 19 60  1  1
 20 61  1  0
 20 62  1  0
 21 63  1  0
 21 64  1  0
 22 65  1  1
 23 66  1  0
 25 67  1  0
 25 68  1  0
 25 69  1  0
 26 70  1  0
 26 71  1  0
 26 72  1  0
 28 73  1  0
 28 74  1  0
 28 75  1  0
 29 76  1  0
 29 77  1  0
 30 78  1  0
 30 79  1  0
 32 80  1  0
 32 81  1  0
 32 82  1  0
M  END
>  <meeko>  (6) 
{"is_sidechain": [false], "intermolecular_energy": 2.731, "internal_energy": -0.839}

$$$$
EPH_relaxed_0001_pdb2pqr_Repair_283_r2_0001_out
     RDKit          3D

 82 86  0  0  0  0  0  0  0  0999 V2000
    3.3730   17.7180    0.3620 C   0  0  0  0  0  0  0  0  0  0  0  0
    3.1100   16.8940   -0.9020 C   0  0  2  0  0  0  0  0  0  0  0  0
    2.7060   17.7780   -2.0980 C   0  0  0  0  0  0  0  0  0  0  0  0
    2.0430   19.0970   -1.6920 C   0  0  0  0  0  0  0  0  0  0  0  0
    0.5560   18.9560   -1.5690 C   0  0  2  0  0  0  0  0  0  0  0  0
   -0.1700   20.1900   -1.6390 O   0  0  0  0  0  0  0  0  0  0  0  0
   -0.2400   19.4830   -0.3900 C   0  0  0  0  0  0  0  0  0  0  0  0
    0.4270   20.1910    0.7480 C   0  0  0  0  0  0  0  0  0  0  0  0
   -1.5840   18.8860   -0.1100 C   0  0  0  0  0  0  0  0  0  0  0  0
    2.0270   15.8570   -0.6300 C   0  0  1  0  0  0  0  0  0  0  0  0
    0.6360   16.4980   -0.3790 C   0  0  0  0  0  0  0  0  0  0  0  0
   -0.4170   15.5330   -0.9820 C   0  0  0  0  0  0  0  0  0  0  0  0
    0.3640   14.2270   -1.2590 C   0  0  1  0  0  0  0  0  0  0  0  0
    0.4280   13.4980    0.1200 C   0  0  0  0  0  0  0  0  0  0  0  0
   -0.2150   13.2990   -2.3760 C   0  0  2  0  0  0  0  0  0  0  0  0
   -1.6210   12.7400   -2.0970 C   0  0  0  0  0  0  0  0  0  0  0  0
   -1.6550   11.4300   -1.3820 C   0  0  0  0  0  0  0  0  0  0  0  0
   -0.6120   10.5930   -1.2320 C   0  0  0  0  0  0  0  0  0  0  0  0
    0.7390   10.8910   -1.8960 C   0  0  1  0  0  0  0  0  0  0  0  0
    1.2680    9.6080   -2.5900 C   0  0  0  0  0  0  0  0  0  0  0  0
    1.3350    8.4150   -1.6410 C   0  0  0  0  0  0  0  0  0  0  0  0
   -0.0370    8.1140   -1.0460 C   0  0  2  0  0  0  0  0  0  0  0  0
   -0.9040    7.6630   -2.0910 O   0  0  0  0  0  0  0  0  0  0  0  0
   -0.6760    9.3370   -0.3290 C   0  0  0  0  0  0  0  0  0  0  0  0
    0.1000    9.6370    0.9780 C   0  0  0  0  0  0  0  0  0  0  0  0
   -2.1140    8.9400    0.1020 C   0  0  0  0  0  0  0  0  0  0  0  0
    0.7760   12.1610   -2.8510 C   0  0  1  0  0  0  0  0  0  0  0  0
    0.3340   11.7570   -4.2910 C   0  0  0  0  0  0  0  0  0  0  0  0
    2.2610   12.6710   -2.9690 C   0  0  0  0  0  0  0  0  0  0  0  0
    2.7370   13.6780   -1.9050 C   0  0  0  0  0  0  0  0  0  0  0  0
    1.7340   14.8250   -1.7480 C   0  0  2  0  0  0  0  0  0  0  0  0
    1.6650   15.5900   -3.1130 C   0  0  0  0  0  0  0  0  0  0  0  0
    3.1757   17.0999    1.2503 H   0  0  0  0  0  0  0  0  0  0  0  0
    4.4217   18.0499    0.3718 H   0  0  0  0  0  0  0  0  0  0  0  0
    2.7105   18.5960    0.3718 H   0  0  0  0  0  0  0  0  0  0  0  0
    4.0497   16.3883   -1.1691 H   0  0  0  0  0  0  0  0  0  0  0  0
    3.6102   18.0086   -2.6805 H   0  0  0  0  0  0  0  0  0  0  0  0
    1.9647   17.2115   -2.6806 H   0  0  0  0  0  0  0  0  0  0  0  0
    2.4519   19.4178   -0.7225 H   0  0  0  0  0  0  0  0  0  0  0  0
    2.2530   19.8411   -2.4745 H   0  0  0  0  0  0  0  0  0  0  0  0
    0.5855   17.9710   -2.0578 H   0  0  0  0  0  0  0  0  0  0  0  0
    0.0498   19.7906    1.7006 H   0  0  0  0  0  0  0  0  0  0  0  0
    1.5144   20.0354    0.6898 H   0  0  0  0  0  0  0  0  0  0  0  0
    0.2069   21.2672    0.6898 H   0  0  0  0  0  0  0  0  0  0  0  0
   -1.7359   18.8185    0.9774 H   0  0  0  0  0  0  0  0  0  0  0  0
   -2.3664   19.5212   -0.5508 H   0  0  0  0  0  0  0  0  0  0  0  0
   -1.6372   17.8796   -0.5508 H   0  0  0  0  0  0  0  0  0  0  0  0
    2.4693   15.3524    0.2416 H   0  0  0  0  0  0  0  0  0  0  0  0
    0.4642   16.6193    0.7007 H   0  0  0  0  0  0  0  0  0  0  0  0
    0.5705   17.4934   -0.8426 H   0  0  0  0  0  0  0  0  0  0  0  0
   -1.2333   15.3531   -0.2670 H   0  0  0  0  0  0  0  0  0  0  0  0
   -0.8841   15.9404   -1.8907 H   0  0  0  0  0  0  0  0  0  0  0  0
    0.3629   14.2394    0.9300 H   0  0  0  0  0  0  0  0  0  0  0  0
   -0.4116   12.7919    0.2008 H   0  0  0  0  0  0  0  0  0  0  0  0
    1.3778   12.9490    0.2008 H   0  0  0  0  0  0  0  0  0  0  0  0
   -0.3327   13.9931   -3.2212 H   0  0  0  0  0  0  0  0  0  0  0  0
   -2.1642   13.4755   -1.4854 H   0  0  0  0  0  0  0  0  0  0  0  0
   -2.0790   12.5620   -3.0811 H   0  0  0  0  0  0  0  0  0  0  0  0
   -2.6143   11.1227   -0.9401 H   0  0  0  0  0  0  0  0  0  0  0  0
    1.4203   11.1841   -1.0837 H   0  0  0  0  0  0  0  0  0  0  0  0
    0.5977    9.3570   -3.4253 H   0  0  0  0  0  0  0  0  0  0  0  0
    2.2903    9.8146   -2.9395 H   0  0  0  0  0  0  0  0  0  0  0  0
    1.6882    7.5332   -2.1957 H   0  0  0  0  0  0  0  0  0  0  0  0
    2.0278    8.6567   -0.8215 H   0  0  0  0  0  0  0  0  0  0  0  0
    0.0996    7.3368   -0.2796 H   0  0  0  0  0  0  0  0  0  0  0  0
   -0.8630    6.6920   -2.1080 H   0  0  0  0  0  0  0  0  0  0  0  0
   -0.5324    9.3925    1.8442 H   0  0  0  0  0  0  0  0  0  0  0  0
    1.0155    9.0280    1.0089 H   0  0  0  0  0  0  0  0  0  0  0  0
    0.3678   10.7035    1.0089 H   0  0  0  0  0  0  0  0  0  0  0  0
   -2.1761    8.9229    1.2001 H   0  0  0  0  0  0  0  0  0  0  0  0
   -2.8313    9.6737   -0.2944 H   0  0  0  0  0  0  0  0  0  0  0  0
   -2.3533    7.9422   -0.2944 H   0  0  0  0  0  0  0  0  0  0  0  0
   -0.4767   11.0160   -4.2313 H   0  0  0  0  0  0  0  0  0  0  0  0
   -0.0225   12.6480   -4.8287 H   0  0  0  0  0  0  0  0  0  0  0  0
    1.1894   11.3221   -4.8287 H   0  0  0  0  0  0  0  0  0  0  0  0
    2.9200   11.7920   -2.9134 H   0  0  0  0  0  0  0  0  0  0  0  0
    2.3019   13.2189   -3.9220 H   0  0  0  0  0  0  0  0  0  0  0  0
    2.8441   13.1592   -0.9410 H   0  0  0  0  0  0  0  0  0  0  0  0
    3.7020   14.0974   -2.2259 H   0  0  0  0  0  0  0  0  0  0  0  0
    1.5677   16.6693   -2.9240 H   0  0  0  0  0  0  0  0  0  0  0  0
    2.5840   15.3997   -3.6868 H   0  0  0  0  0  0  0  0  0  0  0  0
    0.7949   15.2383   -3.6868 H   0  0  0  0  0  0  0  0  0  0  0  0
  1  2  1  0
  2  3  1  0
  3  4  1  0
  4  5  1  0
  5  6  1  0
  6  7  1  0
  7  8  1  0
  7  9  1  0
  2 10  1  0
 10 11  1  0
 11 12  1  0
 12 13  1  0
 13 14  1  1
 13 15  1  0
 15 16  1  0
 16 17  1  0
 17 18  2  0
 18 19  1  0
 19 20  1  0
 20 21  1  0
 21 22  1  0
 22 23  1  0
 22 24  1  0
 24 25  1  0
 24 26  1  0
 19 27  1  0
 27 28  1  6
 27 29  1  0
 29 30  1  0
 30 31  1  0
 31 32  1  6
  7  5  1  0
 31 10  1  0
 31 13  1  0
 27 15  1  0
 24 18  1  0
  1 33  1  0
  1 34  1  0
  1 35  1  0
  2 36  1  6
  3 37  1  0
  3 38  1  0
  4 39  1  0
  4 40  1  0
  5 41  1  6
  8 42  1  0
  8 43  1  0
  8 44  1  0
  9 45  1  0
  9 46  1  0
  9 47  1  0
 10 48  1  1
 11 49  1  0
 11 50  1  0
 12 51  1  0
 12 52  1  0
 14 53  1  0
 14 54  1  0
 14 55  1  0
 15 56  1  6
 16 57  1  0
 16 58  1  0
 17 59  1  0
 19 60  1  1
 20 61  1  0
 20 62  1  0
 21 63  1  0
 21 64  1  0
 22 65  1  1
 23 66  1  0
 25 67  1  0
 25 68  1  0
 25 69  1  0
 26 70  1  0
 26 71  1  0
 26 72  1  0
 28 73  1  0
 28 74  1  0
 28 75  1  0
 29 76  1  0
 29 77  1  0
 30 78  1  0
 30 79  1  0
 32 80  1  0
 32 81  1  0
 32 82  1  0
M  END
>  <meeko>  (7) 
{"is_sidechain": [false], "intermolecular_energy": 2.731, "internal_energy": -0.839}

$$$$
EPH_relaxed_0001_pdb2pqr_Repair_283_r2_0001_out
     RDKit          3D

 82 86  0  0  0  0  0  0  0  0999 V2000
   -5.3020    5.7180   -1.5760 C   0  0  0  0  0  0  0  0  0  0  0  0
   -5.5080    7.2180   -1.7990 C   0  0  2  0  0  0  0  0  0  0  0  0
   -5.2040    8.0410   -0.5310 C   0  0  0  0  0  0  0  0  0  0  0  0
   -4.2100    9.1830   -0.7620 C   0  0  0  0  0  0  0  0  0  0  0  0
   -2.8320    8.8190   -0.2990 C   0  0  2  0  0  0  0  0  0  0  0  0
   -2.3100    9.6550    0.7420 O   0  0  0  0  0  0  0  0  0  0  0  0
   -1.6170    9.7020   -0.5160 C   0  0  0  0  0  0  0  0  0  0  0  0
   -1.7230   11.0170   -1.2210 C   0  0  0  0  0  0  0  0  0  0  0  0
   -0.2590    9.0720   -0.4800 C   0  0  0  0  0  0  0  0  0  0  0  0
   -6.9360    7.4830   -2.2630 C   0  0  1  0  0  0  0  0  0  0  0  0
   -7.2630    6.7930   -3.6130 C   0  0  0  0  0  0  0  0  0  0  0  0
   -8.7510    6.3620   -3.5460 C   0  0  0  0  0  0  0  0  0  0  0  0
   -9.3160    7.1020   -2.3120 C   0  0  1  0  0  0  0  0  0  0  0  0
   -9.6270    8.5460   -2.8180 C   0  0  0  0  0  0  0  0  0  0  0  0
  -10.5610    6.4510   -1.6250 C   0  0  2  0  0  0  0  0  0  0  0  0
  -11.8180    6.3580   -2.5070 C   0  0  0  0  0  0  0  0  0  0  0  0
  -12.7400    7.5300   -2.4280 C   0  0  0  0  0  0  0  0  0  0  0  0
  -12.7170    8.4810   -1.4760 C   0  0  0  0  0  0  0  0  0  0  0  0
  -11.7540    8.3810   -0.2860 C   0  0  1  0  0  0  0  0  0  0  0  0
  -12.5210    8.6850    1.0280 C   0  0  0  0  0  0  0  0  0  0  0  0
  -13.2530   10.0220    0.9810 C   0  0  0  0  0  0  0  0  0  0  0  0
  -14.2430   10.0620   -0.1800 C   0  0  2  0  0  0  0  0  0  0  0  0
  -15.2870    9.1170    0.0720 O   0  0  0  0  0  0  0  0  0  0  0  0
  -13.5860    9.7600   -1.5560 C   0  0  0  0  0  0  0  0  0  0  0  0
  -12.6740   10.9430   -1.9680 C   0  0  0  0  0  0  0  0  0  0  0  0
  -14.7150    9.6920   -2.6200 C   0  0  0  0  0  0  0  0  0  0  0  0
  -10.8980    7.0440   -0.1980 C   0  0  1  0  0  0  0  0  0  0  0  0
  -11.7030    5.9460    0.5620 C   0  0  0  0  0  0  0  0  0  0  0  0
   -9.6050    7.3180    0.6580 C   0  0  0  0  0  0  0  0  0  0  0  0
   -8.3710    7.8480   -0.0980 C   0  0  0  0  0  0  0  0  0  0  0  0
   -8.0840    7.0000   -1.3410 C   0  0  2  0  0  0  0  0  0  0  0  0
   -7.7460    5.5470   -0.8620 C   0  0  0  0  0  0  0  0  0  0  0  0
   -5.2732    5.5083   -0.4966 H   0  0  0  0  0  0  0  0  0  0  0  0
   -6.1322    5.1616   -2.0356 H   0  0  0  0  0  0  0  0  0  0  0  0
   -4.3526    5.4060   -2.0356 H   0  0  0  0  0  0  0  0  0  0  0  0
   -4.7990    7.5375   -2.5770 H   0  0  0  0  0  0  0  0  0  0  0  0
   -6.1468    8.4706   -0.1615 H   0  0  0  0  0  0  0  0  0  0  0  0
   -4.7426    7.3550    0.1946 H   0  0  0  0  0  0  0  0  0  0  0  0
   -4.1757    9.4141   -1.8369 H   0  0  0  0  0  0  0  0  0  0  0  0
   -4.5479   10.0548   -0.1826 H   0  0  0  0  0  0  0  0  0  0  0  0
   -3.0174    7.7547   -0.5063 H   0  0  0  0  0  0  0  0  0  0  0  0
   -1.7883   11.8266   -0.4791 H   0  0  0  0  0  0  0  0  0  0  0  0
   -0.8341   11.1679   -1.8512 H   0  0  0  0  0  0  0  0  0  0  0  0
   -2.6246   11.0236   -1.8512 H   0  0  0  0  0  0  0  0  0  0  0  0
    0.0509    8.9282    0.5656 H   0  0  0  0  0  0  0  0  0  0  0  0
   -0.2931    8.0978   -0.9896 H   0  0  0  0  0  0  0  0  0  0  0  0
    0.4628    9.7272   -0.9896 H   0  0  0  0  0  0  0  0  0  0  0  0
   -6.9182    8.5823   -2.2971 H   0  0  0  0  0  0  0  0  0  0  0  0
   -7.1094    7.4962   -4.4448 H   0  0  0  0  0  0  0  0  0  0  0  0
   -6.6078    5.9258   -3.7823 H   0  0  0  0  0  0  0  0  0  0  0  0
   -9.2847    6.6654   -4.4588 H   0  0  0  0  0  0  0  0  0  0  0  0
   -8.8662    5.2709   -3.4670 H   0  0  0  0  0  0  0  0  0  0  0  0
   -9.7708    9.2137   -1.9557 H   0  0  0  0  0  0  0  0  0  0  0  0
   -8.7866    8.9099   -3.4274 H   0  0  0  0  0  0  0  0  0  0  0  0
  -10.5427    8.5317   -3.4274 H   0  0  0  0  0  0  0  0  0  0  0  0
  -10.2289    5.4141   -1.4684 H   0  0  0  0  0  0  0  0  0  0  0  0
  -11.4927    6.2511   -3.5524 H   0  0  0  0  0  0  0  0  0  0  0  0
  -12.3892    5.4954   -2.1333 H   0  0  0  0  0  0  0  0  0  0  0  0
  -13.5029    7.6240   -3.2149 H   0  0  0  0  0  0  0  0  0  0  0  0
  -10.9826    9.1472   -0.4532 H   0  0  0  0  0  0  0  0  0  0  0  0
  -13.2570    7.8857    1.1998 H   0  0  0  0  0  0  0  0  0  0  0  0
  -11.7826    8.7367    1.8417 H   0  0  0  0  0  0  0  0  0  0  0  0
  -13.7992   10.1667    1.9248 H   0  0  0  0  0  0  0  0  0  0  0  0
  -12.5123   10.8227    0.8383 H   0  0  0  0  0  0  0  0  0  0  0  0
  -14.6399   11.0861   -0.2400 H   0  0  0  0  0  0  0  0  0  0  0  0
  -14.8830    8.2330    0.1070 H   0  0  0  0  0  0  0  0  0  0  0  0
  -12.2898   11.4413   -1.0657 H   0  0  0  0  0  0  0  0  0  0  0  0
  -11.8311   10.5654   -2.5654 H   0  0  0  0  0  0  0  0  0  0  0  0
  -13.2537   11.6621   -2.5654 H   0  0  0  0  0  0  0  0  0  0  0  0
  -15.6909    9.6332   -2.1159 H   0  0  0  0  0  0  0  0  0  0  0  0
  -14.6809   10.5938   -3.2489 H   0  0  0  0  0  0  0  0  0  0  0  0
  -14.5729    8.8008   -3.2489 H   0  0  0  0  0  0  0  0  0  0  0  0
  -11.5934    6.0955    1.6463 H   0  0  0  0  0  0  0  0  0  0  0  0
  -12.7661    6.0150    0.2879 H   0  0  0  0  0  0  0  0  0  0  0  0
  -11.3174    4.9529    0.2879 H   0  0  0  0  0  0  0  0  0  0  0  0
   -9.8666    8.0582    1.4285 H   0  0  0  0  0  0  0  0  0  0  0  0
   -9.3036    6.3344    1.0474 H   0  0  0  0  0  0  0  0  0  0  0  0
   -8.5569    8.8874   -0.4065 H   0  0  0  0  0  0  0  0  0  0  0  0
   -7.4999    7.7952    0.5716 H   0  0  0  0  0  0  0  0  0  0  0  0
   -7.7387    5.5158    0.2375 H   0  0  0  0  0  0  0  0  0  0  0  0
   -8.5058    4.8491   -1.2436 H   0  0  0  0  0  0  0  0  0  0  0  0
   -6.7562    5.2561   -1.2436 H   0  0  0  0  0  0  0  0  0  0  0  0
  1  2  1  0
  2  3  1  0
  3  4  1  0
  4  5  1  0
  5  6  1  0
  6  7  1  0
  7  8  1  0
  7  9  1  0
  2 10  1  0
 10 11  1  0
 11 12  1  0
 12 13  1  0
 13 14  1  6
 13 15  1  0
 15 16  1  0
 16 17  1  0
 17 18  2  0
 18 19  1  0
 19 20  1  0
 20 21  1  0
 21 22  1  0
 22 23  1  0
 22 24  1  0
 24 25  1  0
 24 26  1  0
 19 27  1  0
 27 28  1  1
 27 29  1  0
 29 30  1  0
 30 31  1  0
 31 32  1  1
  7  5  1  0
 31 10  1  0
 31 13  1  0
 27 15  1  0
 24 18  1  0
  1 33  1  0
  1 34  1  0
  1 35  1  0
  2 36  1  6
  3 37  1  0
  3 38  1  0
  4 39  1  0
  4 40  1  0
  5 41  1  1
  8 42  1  0
  8 43  1  0
  8 44  1  0
  9 45  1  0
  9 46  1  0
  9 47  1  0
 10 48  1  6
 11 49  1  0
 11 50  1  0
 12 51  1  0
 12 52  1  0
 14 53  1  0
 14 54  1  0
 14 55  1  0
 15 56  1  1
 16 57  1  0
 16 58  1  0
 17 59  1  0
 19 60  1  6
 20 61  1  0
 20 62  1  0
 21 63  1  0
 21 64  1  0
 22 65  1  6
 23 66  1  0
 25 67  1  0
 25 68  1  0
 25 69  1  0
 26 70  1  0
 26 71  1  0
 26 72  1  0
 28 73  1  0
 28 74  1  0
 28 75  1  0
 29 76  1  0
 29 77  1  0
 30 78  1  0
 30 79  1  0
 32 80  1  0
 32 81  1  0
 32 82  1  0
M  END
>  <meeko>  (8) 
{"is_sidechain": [false], "intermolecular_energy": 2.731, "internal_energy": -0.839}

$$$$
EPH_relaxed_0001_pdb2pqr_Repair_283_r2_0001_out
     RDKit          3D

 82 86  0  0  0  0  0  0  0  0999 V2000
    0.0390   10.4300   -3.6860 C   0  0  0  0  0  0  0  0  0  0  0  0
    1.0760   10.2320   -2.5770 C   0  0  2  0  0  0  0  0  0  0  0  0
    0.7830    8.9820   -1.7240 C   0  0  0  0  0  0  0  0  0  0  0  0
    0.1310    9.2950   -0.3750 C   0  0  0  0  0  0  0  0  0  0  0  0
   -1.2870    8.8140   -0.3200 C   0  0  2  0  0  0  0  0  0  0  0  0
   -1.9680    8.8100   -1.5820 O   0  0  0  0  0  0  0  0  0  0  0  0
   -2.4850    9.7070   -0.5860 C   0  0  0  0  0  0  0  0  0  0  0  0
   -2.3180   11.1550   -0.9260 C   0  0  0  0  0  0  0  0  0  0  0  0
   -3.8170    9.2990   -0.0400 C   0  0  0  0  0  0  0  0  0  0  0  0
    1.1280   11.4690   -1.6870 C   0  0  1  0  0  0  0  0  0  0  0  0
    2.2000   11.3570   -0.5700 C   0  0  0  0  0  0  0  0  0  0  0  0
    2.7760   12.7800   -0.3590 C   0  0  0  0  0  0  0  0  0  0  0  0
    1.7990   13.7130   -1.1120 C   0  0  1  0  0  0  0  0  0  0  0  0
    0.6020   13.9160   -0.1320 C   0  0  0  0  0  0  0  0  0  0  0  0
    2.3850   15.0780   -1.5990 C   0  0  2  0  0  0  0  0  0  0  0  0
    2.8720   16.0150   -0.4810 C   0  0  0  0  0  0  0  0  0  0  0  0
    1.8480   16.9630    0.0490 C   0  0  0  0  0  0  0  0  0  0  0  0
    0.6750   17.2580   -0.5430 C   0  0  0  0  0  0  0  0  0  0  0  0
    0.3230   16.6860   -1.9230 C   0  0  1  0  0  0  0  0  0  0  0  0
   -0.2350   17.8180   -2.8250 C   0  0  0  0  0  0  0  0  0  0  0  0
   -1.4060   18.5550   -2.1830 C   0  0  0  0  0  0  0  0  0  0  0  0
   -1.0000   19.1590   -0.8410 C   0  0  2  0  0  0  0  0  0  0  0  0
   -0.0400   20.1940   -1.0730 O   0  0  0  0  0  0  0  0  0  0  0  0
   -0.4140   18.1140    0.1490 C   0  0  0  0  0  0  0  0  0  0  0  0
   -1.5400   17.1680    0.6340 C   0  0  0  0  0  0  0  0  0  0  0  0
    0.0840   18.8750    1.4070 C   0  0  0  0  0  0  0  0  0  0  0  0
    1.4670   15.8440   -2.6360 C   0  0  1  0  0  0  0  0  0  0  0  0
    2.4030   16.7950   -3.4430 C   0  0  0  0  0  0  0  0  0  0  0  0
    0.8100   14.8720   -3.6860 C   0  0  0  0  0  0  0  0  0  0  0  0
    0.3610   13.4920   -3.1690 C   0  0  0  0  0  0  0  0  0  0  0  0
    1.4760   12.8180   -2.3640 C   0  0  2  0  0  0  0  0  0  0  0  0
    2.6870   12.5810   -3.3300 C   0  0  0  0  0  0  0  0  0  0  0  0
   -0.9472   10.6183   -3.2365 H   0  0  0  0  0  0  0  0  0  0  0  0
    0.3280   11.2892   -4.3091 H   0  0  0  0  0  0  0  0  0  0  0  0
   -0.0089    9.5248   -4.3091 H   0  0  0  0  0  0  0  0  0  0  0  0
    2.0522   10.0801   -3.0606 H   0  0  0  0  0  0  0  0  0  0  0  0
    0.1077    8.3250   -2.2917 H   0  0  0  0  0  0  0  0  0  0  0  0
    1.7511    8.5057   -1.5097 H   0  0  0  0  0  0  0  0  0  0  0  0
    0.7061    8.8011    0.4221 H   0  0  0  0  0  0  0  0  0  0  0  0
    0.1282   10.3867   -0.2405 H   0  0  0  0  0  0  0  0  0  0  0  0
   -1.0466    8.1283    0.5059 H   0  0  0  0  0  0  0  0  0  0  0  0
   -2.2501   11.7438    0.0007 H   0  0  0  0  0  0  0  0  0  0  0  0
   -1.3984   11.2898   -1.5143 H   0  0  0  0  0  0  0  0  0  0  0  0
   -3.1828   11.4956   -1.5143 H   0  0  0  0  0  0  0  0  0  0  0  0
   -3.7816    9.3099    1.0594 H   0  0  0  0  0  0  0  0  0  0  0  0
   -4.5874   10.0024   -0.3890 H   0  0  0  0  0  0  0  0  0  0  0  0
   -4.0613    8.2848   -0.3890 H   0  0  0  0  0  0  0  0  0  0  0  0
    0.0872   11.4838   -1.3313 H   0  0  0  0  0  0  0  0  0  0  0  0
    1.7407   10.9924    0.3607 H   0  0  0  0  0  0  0  0  0  0  0  0
    2.9922   10.6481   -0.8525 H   0  0  0  0  0  0  0  0  0  0  0  0
    2.8060   13.0318    0.7114 H   0  0  0  0  0  0  0  0  0  0  0  0
    3.8079   12.8710   -0.7290 H   0  0  0  0  0  0  0  0  0  0  0  0
    0.9629   13.8548    0.9053 H   0  0  0  0  0  0  0  0  0  0  0  0
    0.1498   14.9037   -0.3052 H   0  0  0  0  0  0  0  0  0  0  0  0
   -0.1506   13.1327   -0.3052 H   0  0  0  0  0  0  0  0  0  0  0  0
    3.2893   14.7661   -2.1421 H   0  0  0  0  0  0  0  0  0  0  0  0
    3.2235   15.3924    0.3550 H   0  0  0  0  0  0  0  0  0  0  0  0
    3.6602   16.6382   -0.9287 H   0  0  0  0  0  0  0  0  0  0  0  0
    2.0703   17.4627    1.0034 H   0  0  0  0  0  0  0  0  0  0  0  0
   -0.4561   15.9290   -1.7500 H   0  0  0  0  0  0  0  0  0  0  0  0
    0.5705   18.5406   -3.0226 H   0  0  0  0  0  0  0  0  0  0  0  0
   -0.6009   17.3550   -3.7533 H   0  0  0  0  0  0  0  0  0  0  0  0
   -1.7366   19.3605   -2.8552 H   0  0  0  0  0  0  0  0  0  0  0  0
   -2.2220   17.8373   -2.0128 H   0  0  0  0  0  0  0  0  0  0  0  0
   -1.9100   19.5599   -0.3707 H   0  0  0  0  0  0  0  0  0  0  0  0
   -0.2680   20.9420   -0.4950 H   0  0  0  0  0  0  0  0  0  0  0  0
   -1.5579   17.1529    1.7338 H   0  0  0  0  0  0  0  0  0  0  0  0
   -2.5087   17.5272    0.2564 H   0  0  0  0  0  0  0  0  0  0  0  0
   -1.3532   16.1519    0.2564 H   0  0  0  0  0  0  0  0  0  0  0  0
   -0.2586   18.3515    2.3117 H   0  0  0  0  0  0  0  0  0  0  0  0
    1.1833   18.9146    1.4003 H   0  0  0  0  0  0  0  0  0  0  0  0
   -0.3198   19.8982    1.4003 H   0  0  0  0  0  0  0  0  0  0  0  0
    2.9996   17.4011   -2.7453 H   0  0  0  0  0  0  0  0  0  0  0  0
    3.0750   16.1973   -4.0765 H   0  0  0  0  0  0  0  0  0  0  0  0
    1.7947   17.4574   -4.0765 H   0  0  0  0  0  0  0  0  0  0  0  0
   -0.0758   15.3772   -4.0984 H   0  0  0  0  0  0  0  0  0  0  0  0
    1.6031   14.6609   -4.4185 H   0  0  0  0  0  0  0  0  0  0  0  0
   -0.5215   13.6190   -2.5247 H   0  0  0  0  0  0  0  0  0  0  0  0
    0.1190   12.8558   -4.0331 H   0  0  0  0  0  0  0  0  0  0  0  0
    3.5977   12.4028   -2.7394 H   0  0  0  0  0  0  0  0  0  0  0  0
    2.4842   11.7055   -3.9643 H   0  0  0  0  0  0  0  0  0  0  0  0
    2.8292   13.4684   -3.9643 H   0  0  0  0  0  0  0  0  0  0  0  0
  1  2  1  0
  2  3  1  0
  3  4  1  0
  4  5  1  0
  5  6  1  0
  6  7  1  0
  7  8  1  0
  7  9  1  0
  2 10  1  0
 10 11  1  0
 11 12  1  0
 12 13  1  0
 13 14  1  1
 13 15  1  0
 15 16  1  0
 16 17  1  0
 17 18  2  0
 18 19  1  0
 19 20  1  0
 20 21  1  0
 21 22  1  0
 22 23  1  0
 22 24  1  0
 24 25  1  0
 24 26  1  0
 19 27  1  0
 27 28  1  6
 27 29  1  0
 29 30  1  0
 30 31  1  0
 31 32  1  6
  7  5  1  0
 31 10  1  0
 31 13  1  0
 27 15  1  0
 24 18  1  0
  1 33  1  0
  1 34  1  0
  1 35  1  0
  2 36  1  6
  3 37  1  0
  3 38  1  0
  4 39  1  0
  4 40  1  0
  5 41  1  1
  8 42  1  0
  8 43  1  0
  8 44  1  0
  9 45  1  0
  9 46  1  0
  9 47  1  0
 10 48  1  1
 11 49  1  0
 11 50  1  0
 12 51  1  0
 12 52  1  0
 14 53  1  0
 14 54  1  0
 14 55  1  0
 15 56  1  6
 16 57  1  0
 16 58  1  0
 17 59  1  0
 19 60  1  1
 20 61  1  0
 20 62  1  0
 21 63  1  0
 21 64  1  0
 22 65  1  1
 23 66  1  0
 25 67  1  0
 25 68  1  0
 25 69  1  0
 26 70  1  0
 26 71  1  0
 26 72  1  0
 28 73  1  0
 28 74  1  0
 28 75  1  0
 29 76  1  0
 29 77  1  0
 30 78  1  0
 30 79  1  0
 32 80  1  0
 32 81  1  0
 32 82  1  0
M  END
>  <meeko>  (9) 
{"is_sidechain": [false], "intermolecular_energy": 2.731, "internal_energy": -0.839}

$$$$
EPH_relaxed_0001_pdb2pqr_Repair_283_r2_0001_out
     RDKit          3D

 82 86  0  0  0  0  0  0  0  0999 V2000
    0.4370    8.8700   -2.4800 C   0  0  0  0  0  0  0  0  0  0  0  0
    1.1950   10.0270   -3.1380 C   0  0  2  0  0  0  0  0  0  0  0  0
    2.6880   10.0370   -2.7540 C   0  0  0  0  0  0  0  0  0  0  0  0
    3.6000   10.6090   -3.8430 C   0  0  0  0  0  0  0  0  0  0  0  0
    4.9950   10.8240   -3.3410 C   0  0  2  0  0  0  0  0  0  0  0  0
    5.6070   12.0440   -3.7780 O   0  0  0  0  0  0  0  0  0  0  0  0
    6.2170   10.8280   -4.2400 C   0  0  0  0  0  0  0  0  0  0  0  0
    6.0990   10.6120   -5.7170 C   0  0  0  0  0  0  0  0  0  0  0  0
    7.5560   10.5550   -3.6300 C   0  0  0  0  0  0  0  0  0  0  0  0
    0.5500   11.3540   -2.7550 C   0  0  1  0  0  0  0  0  0  0  0  0
   -0.8240   11.1720   -2.0570 C   0  0  0  0  0  0  0  0  0  0  0  0
   -0.9420   12.3000   -1.0000 C   0  0  0  0  0  0  0  0  0  0  0  0
    0.2020   13.2810   -1.3480 C   0  0  1  0  0  0  0  0  0  0  0  0
   -0.3560   14.1480   -2.5200 C   0  0  0  0  0  0  0  0  0  0  0  0
    0.7310   14.1690   -0.1750 C   0  0  2  0  0  0  0  0  0  0  0  0
   -0.3030   15.1350    0.4310 C   0  0  0  0  0  0  0  0  0  0  0  0
   -0.3550   16.4880   -0.1970 C   0  0  0  0  0  0  0  0  0  0  0  0
    0.5820   17.0100   -1.0110 C   0  0  0  0  0  0  0  0  0  0  0  0
    1.8860   16.2540   -1.2960 C   0  0  1  0  0  0  0  0  0  0  0  0
    3.0880   17.2260   -1.1600 C   0  0  0  0  0  0  0  0  0  0  0  0
    2.9330   18.4720   -2.0260 C   0  0  0  0  0  0  0  0  0  0  0  0
    1.6550   19.2280   -1.6730 C   0  0  2  0  0  0  0  0  0  0  0  0
    1.7820   19.7540   -0.3480 O   0  0  0  0  0  0  0  0  0  0  0  0
    0.3780   18.3470   -1.7650 C   0  0  0  0  0  0  0  0  0  0  0  0
    0.0730   18.0260   -3.2490 C   0  0  0  0  0  0  0  0  0  0  0  0
   -0.8210   19.1880   -1.2480 C   0  0  0  0  0  0  0  0  0  0  0  0
    2.0970   14.9050   -0.4840 C   0  0  1  0  0  0  0  0  0  0  0  0
    2.7600   15.2110    0.8940 C   0  0  0  0  0  0  0  0  0  0  0  0
    3.1070   13.9860   -1.2680 C   0  0  0  0  0  0  0  0  0  0  0  0
    2.5090   13.0450   -2.3320 C   0  0  0  0  0  0  0  0  0  0  0  0
    1.3220   12.2610   -1.7640 C   0  0  2  0  0  0  0  0  0  0  0  0
    1.8570   11.3620   -0.5970 C   0  0  0  0  0  0  0  0  0  0  0  0
    0.4997    8.9657   -1.3860 H   0  0  0  0  0  0  0  0  0  0  0  0
   -0.6178    8.8989   -2.7907 H   0  0  0  0  0  0  0  0  0  0  0  0
    0.8847    7.9145   -2.7907 H   0  0  0  0  0  0  0  0  0  0  0  0
    1.1359    9.8845   -4.2271 H   0  0  0  0  0  0  0  0  0  0  0  0
    2.8088   10.6449   -1.8453 H   0  0  0  0  0  0  0  0  0  0  0  0
    2.9876    8.9897   -2.6013 H   0  0  0  0  0  0  0  0  0  0  0  0
    3.6298    9.9060   -4.6885 H   0  0  0  0  0  0  0  0  0  0  0  0
    3.1936   11.5827   -4.1540 H   0  0  0  0  0  0  0  0  0  0  0  0
    4.7671   10.2866   -2.4086 H   0  0  0  0  0  0  0  0  0  0  0  0
    5.5797    9.6614   -5.9082 H   0  0  0  0  0  0  0  0  0  0  0  0
    5.5271   11.4386   -6.1639 H   0  0  0  0  0  0  0  0  0  0  0  0
    7.1035   10.5774   -6.1639 H   0  0  0  0  0  0  0  0  0  0  0  0
    7.4699   10.5726   -2.5335 H   0  0  0  0  0  0  0  0  0  0  0  0
    7.9118    9.5658   -3.9541 H   0  0  0  0  0  0  0  0  0  0  0  0
    8.2706   11.3259   -3.9541 H   0  0  0  0  0  0  0  0  0  0  0  0
    0.5075   11.8298   -3.7459 H   0  0  0  0  0  0  0  0  0  0  0  0
   -1.6369   11.2563   -2.7932 H   0  0  0  0  0  0  0  0  0  0  0  0
   -0.8996   10.1806   -1.5865 H   0  0  0  0  0  0  0  0  0  0  0  0
   -1.9188   12.8006   -1.0735 H   0  0  0  0  0  0  0  0  0  0  0  0
   -0.8657   11.9178    0.0286 H   0  0  0  0  0  0  0  0  0  0  0  0
   -0.9085   15.0064   -2.1103 H   0  0  0  0  0  0  0  0  0  0  0  0
    0.4789   14.5103   -3.1378 H   0  0  0  0  0  0  0  0  0  0  0  0
   -1.0316   13.5382   -3.1378 H   0  0  0  0  0  0  0  0  0  0  0  0
    0.9390   13.4247    0.6078 H   0  0  0  0  0  0  0  0  0  0  0  0
   -1.2973   14.6753    0.3310 H   0  0  0  0  0  0  0  0  0  0  0  0
    0.0049   15.2952    1.4748 H   0  0  0  0  0  0  0  0  0  0  0  0
   -1.2336   17.1118    0.0240 H   0  0  0  0  0  0  0  0  0  0  0  0
    1.8102   15.8969   -2.3336 H   0  0  0  0  0  0  0  0  0  0  0  0
    3.1736   17.5360   -0.1081 H   0  0  0  0  0  0  0  0  0  0  0  0
    3.9885   16.6932   -1.4994 H   0  0  0  0  0  0  0  0  0  0  0  0
    3.7978   19.1323   -1.8643 H   0  0  0  0  0  0  0  0  0  0  0  0
    2.8768   18.1616   -3.0798 H   0  0  0  0  0  0  0  0  0  0  0  0
    1.5337   20.0348   -2.4108 H   0  0  0  0  0  0  0  0  0  0  0  0
    0.8860   19.9380   -0.0180 H   0  0  0  0  0  0  0  0  0  0  0  0
   -0.6837   17.2296   -3.3038 H   0  0  0  0  0  0  0  0  0  0  0  0
   -0.3081   18.9289   -3.7486 H   0  0  0  0  0  0  0  0  0  0  0  0
    0.9942   17.6916   -3.7486 H   0  0  0  0  0  0  0  0  0  0  0  0
   -0.8214   19.1883   -0.1480 H   0  0  0  0  0  0  0  0  0  0  0  0
   -0.7296   20.2210   -1.6149 H   0  0  0  0  0  0  0  0  0  0  0  0
   -1.7611   18.7504   -1.6149 H   0  0  0  0  0  0  0  0  0  0  0  0
    2.0838   14.8989    1.7036 H   0  0  0  0  0  0  0  0  0  0  0  0
    3.7083   14.6595    0.9752 H   0  0  0  0  0  0  0  0  0  0  0  0
    2.9555   16.2904    0.9752 H   0  0  0  0  0  0  0  0  0  0  0  0
    3.8306   14.6425   -1.7734 H   0  0  0  0  0  0  0  0  0  0  0  0
    3.5408   13.3208   -0.5069 H   0  0  0  0  0  0  0  0  0  0  0  0
    2.1682   13.6425   -3.1904 H   0  0  0  0  0  0  0  0  0  0  0  0
    3.2846   12.3304   -2.6446 H   0  0  0  0  0  0  0  0  0  0  0  0
    1.5872   11.8153    0.3683 H   0  0  0  0  0  0  0  0  0  0  0  0
    1.4078   10.3606   -0.6701 H   0  0  0  0  0  0  0  0  0  0  0  0
    2.9514   11.2792   -0.6701 H   0  0  0  0  0  0  0  0  0  0  0  0
  1  2  1  0
  2  3  1  0
  3  4  1  0
  4  5  1  0
  5  6  1  0
  6  7  1  0
  7  8  1  0
  7  9  1  0
  2 10  1  0
 10 11  1  0
 11 12  1  0
 12 13  1  0
 13 14  1  6
 13 15  1  0
 15 16  1  0
 16 17  1  0
 17 18  2  0
 18 19  1  0
 19 20  1  0
 20 21  1  0
 21 22  1  0
 22 23  1  0
 22 24  1  0
 24 25  1  0
 24 26  1  0
 19 27  1  0
 27 28  1  1
 27 29  1  0
 29 30  1  0
 30 31  1  0
 31 32  1  1
  7  5  1  0
 31 10  1  0
 31 13  1  0
 27 15  1  0
 24 18  1  0
  1 33  1  0
  1 34  1  0
  1 35  1  0
  2 36  1  6
  3 37  1  0
  3 38  1  0
  4 39  1  0
  4 40  1  0
  5 41  1  1
  8 42  1  0
  8 43  1  0
  8 44  1  0
  9 45  1  0
  9 46  1  0
  9 47  1  0
 10 48  1  6
 11 49  1  0
 11 50  1  0
 12 51  1  0
 12 52  1  0
 14 53  1  0
 14 54  1  0
 14 55  1  0
 15 56  1  1
 16 57  1  0
 16 58  1  0
 17 59  1  0
 19 60  1  6
 20 61  1  0
 20 62  1  0
 21 63  1  0
 21 64  1  0
 22 65  1  6
 23 66  1  0
 25 67  1  0
 25 68  1  0
 25 69  1  0
 26 70  1  0
 26 71  1  0
 26 72  1  0
 28 73  1  0
 28 74  1  0
 28 75  1  0
 29 76  1  0
 29 77  1  0
 30 78  1  0
 30 79  1  0
 32 80  1  0
 32 81  1  0
 32 82  1  0
M  END
>  <meeko>  (10) 
{"is_sidechain": [false], "intermolecular_energy": 2.731, "internal_energy": -0.839}

$$$$
EPH_relaxed_0001_pdb2pqr_Repair_283_r2_0001_out
     RDKit          3D

 82 86  0  0  0  0  0  0  0  0999 V2000
   -4.9490    8.9030   -0.2070 C   0  0  0  0  0  0  0  0  0  0  0  0
   -5.2230    7.7440   -1.1700 C   0  0  2  0  0  0  0  0  0  0  0  0
   -4.1810    7.6730   -2.3040 C   0  0  0  0  0  0  0  0  0  0  0  0
   -2.7340    7.6110   -1.8070 C   0  0  0  0  0  0  0  0  0  0  0  0
   -1.9500    8.8160   -2.2320 C   0  0  2  0  0  0  0  0  0  0  0  0
   -0.5890    8.8340   -1.7820 O   0  0  0  0  0  0  0  0  0  0  0  0
   -1.4410    9.8680   -1.2650 C   0  0  0  0  0  0  0  0  0  0  0  0
   -1.6980    9.7650    0.2060 C   0  0  0  0  0  0  0  0  0  0  0  0
   -1.1230   11.2320   -1.7930 C   0  0  0  0  0  0  0  0  0  0  0  0
   -6.6230    7.8780   -1.7580 C   0  0  1  0  0  0  0  0  0  0  0  0
   -6.7460    7.2280   -3.1620 C   0  0  0  0  0  0  0  0  0  0  0  0
   -8.1750    6.6350   -3.2580 C   0  0  0  0  0  0  0  0  0  0  0  0
   -8.9310    7.2440   -2.0540 C   0  0  1  0  0  0  0  0  0  0  0  0
   -9.3550    8.6700   -2.5260 C   0  0  0  0  0  0  0  0  0  0  0  0
  -10.1520    6.4260   -1.5190 C   0  0  2  0  0  0  0  0  0  0  0  0
  -11.3050    6.2450   -2.5210 C   0  0  0  0  0  0  0  0  0  0  0  0
  -12.3560    7.3040   -2.4820 C   0  0  0  0  0  0  0  0  0  0  0  0
  -12.5270    8.2000   -1.4930 C   0  0  0  0  0  0  0  0  0  0  0  0
  -11.6720    8.1420   -0.2200 C   0  0  1  0  0  0  0  0  0  0  0  0
  -12.5850    8.2910    1.0250 C   0  0  0  0  0  0  0  0  0  0  0  0
  -13.4570    9.5420    0.9640 C   0  0  0  0  0  0  0  0  0  0  0  0
  -14.3340    9.5360   -0.2850 C   0  0  2  0  0  0  0  0  0  0  0  0
  -15.2840    8.4710   -0.1750 O   0  0  0  0  0  0  0  0  0  0  0  0
  -13.5240    9.3800   -1.6020 C   0  0  0  0  0  0  0  0  0  0  0  0
  -12.7180   10.6740   -1.8730 C   0  0  0  0  0  0  0  0  0  0  0  0
  -14.5360    9.2460   -2.7720 C   0  0  0  0  0  0  0  0  0  0  0  0
  -10.6830    6.9030   -0.1060 C   0  0  1  0  0  0  0  0  0  0  0  0
  -11.4250    5.6860    0.5250 C   0  0  0  0  0  0  0  0  0  0  0  0
   -9.5120    7.2690    0.8810 C   0  0  0  0  0  0  0  0  0  0  0  0
   -8.2820    7.9690    0.2710 C   0  0  0  0  0  0  0  0  0  0  0  0
   -7.7890    7.2250   -0.9740 C   0  0  2  0  0  0  0  0  0  0  0  0
   -7.3340    5.7940   -0.5260 C   0  0  0  0  0  0  0  0  0  0  0  0
   -5.0334    8.5459    0.8300 H   0  0  0  0  0  0  0  0  0  0  0  0
   -3.9343    9.2911   -0.3797 H   0  0  0  0  0  0  0  0  0  0  0  0
   -5.6824    9.7044   -0.3797 H   0  0  0  0  0  0  0  0  0  0  0  0
   -5.1486    6.8099   -0.5939 H   0  0  0  0  0  0  0  0  0  0  0  0
   -4.3811    6.7728   -2.9037 H   0  0  0  0  0  0  0  0  0  0  0  0
   -4.2803    8.5984   -2.8903 H   0  0  0  0  0  0  0  0  0  0  0  0
   -2.7364    7.5565   -0.7084 H   0  0  0  0  0  0  0  0  0  0  0  0
   -2.2588    6.7207   -2.2447 H   0  0  0  0  0  0  0  0  0  0  0  0
   -2.5263    8.8899   -3.1660 H   0  0  0  0  0  0  0  0  0  0  0  0
   -0.8149   10.1189    0.7582 H   0  0  0  0  0  0  0  0  0  0  0  0
   -2.5681   10.3839    0.4704 H   0  0  0  0  0  0  0  0  0  0  0  0
   -1.8999    8.7165    0.4704 H   0  0  0  0  0  0  0  0  0  0  0  0
   -0.9620   11.9224   -0.9519 H   0  0  0  0  0  0  0  0  0  0  0  0
   -0.2119   11.1841   -2.4076 H   0  0  0  0  0  0  0  0  0  0  0  0
   -1.9613   11.5919   -2.4076 H   0  0  0  0  0  0  0  0  0  0  0  0
   -6.7252    8.9731   -1.7428 H   0  0  0  0  0  0  0  0  0  0  0  0
   -6.5975    7.9865   -3.9447 H   0  0  0  0  0  0  0  0  0  0  0  0
   -5.9845    6.4469   -3.3031 H   0  0  0  0  0  0  0  0  0  0  0  0
   -8.6536    6.9261   -4.2047 H   0  0  0  0  0  0  0  0  0  0  0  0
   -8.1729    5.5352   -3.2366 H   0  0  0  0  0  0  0  0  0  0  0  0
   -9.5440    9.3056   -1.6484 H   0  0  0  0  0  0  0  0  0  0  0  0
   -8.5490    9.1107   -3.1312 H   0  0  0  0  0  0  0  0  0  0  0  0
  -10.2708    8.5987   -3.1312 H   0  0  0  0  0  0  0  0  0  0  0  0
   -9.7206    5.4243   -1.3760 H   0  0  0  0  0  0  0  0  0  0  0  0
  -10.8758    6.2293   -3.5337 H   0  0  0  0  0  0  0  0  0  0  0  0
  -11.8073    5.3074   -2.2406 H   0  0  0  0  0  0  0  0  0  0  0  0
  -13.0496    7.3564   -3.3341 H   0  0  0  0  0  0  0  0  0  0  0  0
  -10.9802    8.9952   -0.2793 H   0  0  0  0  0  0  0  0  0  0  0  0
  -13.2383    7.4085    1.0910 H   0  0  0  0  0  0  0  0  0  0  0  0
  -11.9346    8.3797    1.9077 H   0  0  0  0  0  0  0  0  0  0  0  0
  -14.1006    9.5759    1.8554 H   0  0  0  0  0  0  0  0  0  0  0  0
  -12.8018   10.4249    0.9284 H   0  0  0  0  0  0  0  0  0  0  0  0
  -14.8364   10.5130   -0.3405 H   0  0  0  0  0  0  0  0  0  0  0  0
  -15.8060    8.4570   -0.9950 H   0  0  0  0  0  0  0  0  0  0  0  0
  -12.4312   11.1345   -0.9161 H   0  0  0  0  0  0  0  0  0  0  0  0
  -11.8128   10.4285   -2.4477 H   0  0  0  0  0  0  0  0  0  0  0  0
  -13.3375   11.3782   -2.4477 H   0  0  0  0  0  0  0  0  0  0  0  0
  -15.5497    9.1118   -2.3665 H   0  0  0  0  0  0  0  0  0  0  0  0
  -14.5055   10.1560   -3.3892 H   0  0  0  0  0  0  0  0  0  0  0  0
  -14.2697    8.3753   -3.3892 H   0  0  0  0  0  0  0  0  0  0  0  0
  -11.3810    5.7582    1.6217 H   0  0  0  0  0  0  0  0  0  0  0  0
  -12.4757    5.6881    0.1993 H   0  0  0  0  0  0  0  0  0  0  0  0
  -10.9420    4.7530    0.1993 H   0  0  0  0  0  0  0  0  0  0  0  0
   -9.9241    7.9342    1.6541 H   0  0  0  0  0  0  0  0  0  0  0  0
   -9.1382    6.3042    1.2544 H   0  0  0  0  0  0  0  0  0  0  0  0
   -8.5551    8.9972   -0.0088 H   0  0  0  0  0  0  0  0  0  0  0  0
   -7.4751    7.9748    1.0186 H   0  0  0  0  0  0  0  0  0  0  0  0
   -7.3174    5.7417    0.5726 H   0  0  0  0  0  0  0  0  0  0  0  0
   -8.0385    5.0457   -0.9181 H   0  0  0  0  0  0  0  0  0  0  0  0
   -6.3267    5.5900   -0.9181 H   0  0  0  0  0  0  0  0  0  0  0  0
  1  2  1  0
  2  3  1  0
  3  4  1  0
  4  5  1  0
  5  6  1  0
  6  7  1  0
  7  8  1  0
  7  9  1  0
  2 10  1  0
 10 11  1  0
 11 12  1  0
 12 13  1  0
 13 14  1  6
 13 15  1  0
 15 16  1  0
 16 17  1  0
 17 18  2  0
 18 19  1  0
 19 20  1  0
 20 21  1  0
 21 22  1  0
 22 23  1  0
 22 24  1  0
 24 25  1  0
 24 26  1  0
 19 27  1  0
 27 28  1  1
 27 29  1  0
 29 30  1  0
 30 31  1  0
 31 32  1  1
  7  5  1  0
 31 10  1  0
 31 13  1  0
 27 15  1  0
 24 18  1  0
  1 33  1  0
  1 34  1  0
  1 35  1  0
  2 36  1  1
  3 37  1  0
  3 38  1  0
  4 39  1  0
  4 40  1  0
  5 41  1  6
  8 42  1  0
  8 43  1  0
  8 44  1  0
  9 45  1  0
  9 46  1  0
  9 47  1  0
 10 48  1  6
 11 49  1  0
 11 50  1  0
 12 51  1  0
 12 52  1  0
 14 53  1  0
 14 54  1  0
 14 55  1  0
 15 56  1  1
 16 57  1  0
 16 58  1  0
 17 59  1  0
 19 60  1  6
 20 61  1  0
 20 62  1  0
 21 63  1  0
 21 64  1  0
 22 65  1  6
 23 66  1  0
 25 67  1  0
 25 68  1  0
 25 69  1  0
 26 70  1  0
 26 71  1  0
 26 72  1  0
 28 73  1  0
 28 74  1  0
 28 75  1  0
 29 76  1  0
 29 77  1  0
 30 78  1  0
 30 79  1  0
 32 80  1  0
 32 81  1  0
 32 82  1  0
M  END
>  <meeko>  (11) 
{"is_sidechain": [false], "intermolecular_energy": 2.731, "internal_energy": -0.839}

$$$$
EPH_relaxed_0001_pdb2pqr_Repair_283_r2_0001_out
     RDKit          3D

 82 86  0  0  0  0  0  0  0  0999 V2000
    0.1350   17.7800   -2.5730 C   0  0  0  0  0  0  0  0  0  0  0  0
   -0.1250   16.8760   -1.3650 C   0  0  2  0  0  0  0  0  0  0  0  0
   -0.1990   17.6730   -0.0480 C   0  0  0  0  0  0  0  0  0  0  0  0
    0.4090   19.0750   -0.1410 C   0  0  0  0  0  0  0  0  0  0  0  0
    1.5710   19.2380    0.7900 C   0  0  2  0  0  0  0  0  0  0  0  0
    2.5510   20.1940    0.3640 O   0  0  0  0  0  0  0  0  0  0  0  0
    2.9890   18.8280    0.4390 C   0  0  0  0  0  0  0  0  0  0  0  0
    3.3190   18.2210   -0.8890 C   0  0  0  0  0  0  0  0  0  0  0  0
    3.9550   18.5650    1.5520 C   0  0  0  0  0  0  0  0  0  0  0  0
    0.9630   15.8120   -1.2700 C   0  0  1  0  0  0  0  0  0  0  0  0
    1.1660   15.2940    0.1790 C   0  0  0  0  0  0  0  0  0  0  0  0
    1.5230   13.7890    0.0700 C   0  0  0  0  0  0  0  0  0  0  0  0
    1.8380   13.5710   -1.4290 C   0  0  1  0  0  0  0  0  0  0  0  0
    3.3100   14.0610   -1.6040 C   0  0  0  0  0  0  0  0  0  0  0  0
    1.6460   12.1170   -1.9710 C   0  0  2  0  0  0  0  0  0  0  0  0
    2.5550   11.0550   -1.3270 C   0  0  0  0  0  0  0  0  0  0  0  0
    3.8640   10.8370   -2.0120 C   0  0  0  0  0  0  0  0  0  0  0  0
    4.1770   11.2540   -3.2530 C   0  0  0  0  0  0  0  0  0  0  0  0
    3.1300   11.9400   -4.1400 C   0  0  1  0  0  0  0  0  0  0  0  0
    3.1740   11.3250   -5.5630 C   0  0  0  0  0  0  0  0  0  0  0  0
    4.5720   11.3620   -6.1740 C   0  0  0  0  0  0  0  0  0  0  0  0
    5.5730   10.6200   -5.2920 C   0  0  2  0  0  0  0  0  0  0  0  0
    5.2440    9.2270   -5.2930 O   0  0  0  0  0  0  0  0  0  0  0  0
    5.6100   11.1470   -3.8300 C   0  0  0  0  0  0  0  0  0  0  0  0
    6.2520   12.5560   -3.8010 C   0  0  0  0  0  0  0  0  0  0  0  0
    6.5530   10.2240   -3.0130 C   0  0  0  0  0  0  0  0  0  0  0  0
    1.6560   12.0070   -3.5490 C   0  0  1  0  0  0  0  0  0  0  0  0
    0.8790   10.7040   -3.9100 C   0  0  0  0  0  0  0  0  0  0  0  0
    0.8800   13.1910   -4.2370 C   0  0  0  0  0  0  0  0  0  0  0  0
    1.0140   14.5810   -3.5850 C   0  0  0  0  0  0  0  0  0  0  0  0
    0.7540   14.5060   -2.0770 C   0  0  2  0  0  0  0  0  0  0  0  0
   -0.7260   14.0360   -1.8690 C   0  0  0  0  0  0  0  0  0  0  0  0
    0.4234   18.7829   -2.2251 H   0  0  0  0  0  0  0  0  0  0  0  0
    0.9473   17.3551   -3.1809 H   0  0  0  0  0  0  0  0  0  0  0  0
   -0.7790   17.8516   -3.1809 H   0  0  0  0  0  0  0  0  0  0  0  0
   -1.1034   16.3961   -1.5147 H   0  0  0  0  0  0  0  0  0  0  0  0
   -1.2563   17.7715    0.2391 H   0  0  0  0  0  0  0  0  0  0  0  0
    0.3888   17.1170    0.6972 H   0  0  0  0  0  0  0  0  0  0  0  0
    0.7514   19.2474   -1.1720 H   0  0  0  0  0  0  0  0  0  0  0  0
   -0.3640   19.8036    0.1447 H   0  0  0  0  0  0  0  0  0  0  0  0
    0.9339   19.0204    1.6599 H   0  0  0  0  0  0  0  0  0  0  0  0
    3.8393   17.2640   -0.7356 H   0  0  0  0  0  0  0  0  0  0  0  0
    2.3910   18.0475   -1.4536 H   0  0  0  0  0  0  0  0  0  0  0  0
    3.9692   18.9055   -1.4536 H   0  0  0  0  0  0  0  0  0  0  0  0
    3.4476   18.7031    2.5182 H   0  0  0  0  0  0  0  0  0  0  0  0
    4.3277   17.5327    1.4778 H   0  0  0  0  0  0  0  0  0  0  0  0
    4.7995   19.2659    1.4778 H   0  0  0  0  0  0  0  0  0  0  0  0
    1.8108   16.3776   -1.6839 H   0  0  0  0  0  0  0  0  0  0  0  0
    1.9850   15.8433    0.6664 H   0  0  0  0  0  0  0  0  0  0  0  0
    0.2581   15.4419    0.7822 H   0  0  0  0  0  0  0  0  0  0  0  0
    2.4003   13.5520    0.6898 H   0  0  0  0  0  0  0  0  0  0  0  0
    0.7085   13.1400    0.4241 H   0  0  0  0  0  0  0  0  0  0  0  0
    3.7660   14.2128   -0.6145 H   0  0  0  0  0  0  0  0  0  0  0  0
    3.8842   13.3056   -2.1604 H   0  0  0  0  0  0  0  0  0  0  0  0
    3.3169   15.0099   -2.1604 H   0  0  0  0  0  0  0  0  0  0  0  0
    0.6248   11.8753   -1.6411 H   0  0  0  0  0  0  0  0  0  0  0  0
    2.7604   11.3656   -0.2919 H   0  0  0  0  0  0  0  0  0  0  0  0
    2.0101   10.1023   -1.4006 H   0  0  0  0  0  0  0  0  0  0  0  0
    4.6383   10.2890   -1.4550 H   0  0  0  0  0  0  0  0  0  0  0  0
    3.4166   13.0011   -4.1829 H   0  0  0  0  0  0  0  0  0  0  0  0
    2.8423   10.2778   -5.5049 H   0  0  0  0  0  0  0  0  0  0  0  0
    2.5128   11.9243   -6.2061 H   0  0  0  0  0  0  0  0  0  0  0  0
    4.5442   10.8864   -7.1655 H   0  0  0  0  0  0  0  0  0  0  0  0
    4.8900   12.4116   -6.2595 H   0  0  0  0  0  0  0  0  0  0  0  0
    6.5746   10.7922   -5.7128 H   0  0  0  0  0  0  0  0  0  0  0  0
    5.5820    8.8450   -4.4650 H   0  0  0  0  0  0  0  0  0  0  0  0
    6.3960   12.8719   -2.7572 H   0  0  0  0  0  0  0  0  0  0  0  0
    7.2253   12.5260   -4.3126 H   0  0  0  0  0  0  0  0  0  0  0  0
    5.5907   13.2708   -4.3126 H   0  0  0  0  0  0  0  0  0  0  0  0
    6.3856   10.3878   -1.9382 H   0  0  0  0  0  0  0  0  0  0  0  0
    6.3426    9.1731   -3.2609 H   0  0  0  0  0  0  0  0  0  0  0  0
    7.5991   10.4568   -3.2609 H   0  0  0  0  0  0  0  0  0  0  0  0
    0.5733   10.1914   -2.9860 H   0  0  0  0  0  0  0  0  0  0  0  0
   -0.0136   10.9607   -4.4993 H   0  0  0  0  0  0  0  0  0  0  0  0
    1.5292   10.0407   -4.4993 H   0  0  0  0  0  0  0  0  0  0  0  0
    1.2454   13.2719   -5.2714 H   0  0  0  0  0  0  0  0  0  0  0  0
   -0.1846   12.9305   -4.1434 H   0  0  0  0  0  0  0  0  0  0  0  0
    2.0314   14.9624   -3.7563 H   0  0  0  0  0  0  0  0  0  0  0  0
    0.2699   15.2537   -4.0365 H   0  0  0  0  0  0  0  0  0  0  0  0
   -0.9411   13.9677   -0.7924 H   0  0  0  0  0  0  0  0  0  0  0  0
   -1.4098   14.7612   -2.3343 H   0  0  0  0  0  0  0  0  0  0  0  0
   -0.8661   13.0491   -2.3343 H   0  0  0  0  0  0  0  0  0  0  0  0
  1  2  1  0
  2  3  1  0
  3  4  1  0
  4  5  1  0
  5  6  1  0
  6  7  1  0
  7  8  1  0
  7  9  1  0
  2 10  1  0
 10 11  1  0
 11 12  1  0
 12 13  1  0
 13 14  1  1
 13 15  1  0
 15 16  1  0
 16 17  1  0
 17 18  2  0
 18 19  1  0
 19 20  1  0
 20 21  1  0
 21 22  1  0
 22 23  1  0
 22 24  1  0
 24 25  1  0
 24 26  1  0
 19 27  1  0
 27 28  1  1
 27 29  1  0
 29 30  1  0
 30 31  1  0
 31 32  1  6
  7  5  1  0
 31 10  1  0
 31 13  1  0
 27 15  1  0
 24 18  1  0
  1 33  1  0
  1 34  1  0
  1 35  1  0
  2 36  1  6
  3 37  1  0
  3 38  1  0
  4 39  1  0
  4 40  1  0
  5 41  1  1
  8 42  1  0
  8 43  1  0
  8 44  1  0
  9 45  1  0
  9 46  1  0
  9 47  1  0
 10 48  1  6
 11 49  1  0
 11 50  1  0
 12 51  1  0
 12 52  1  0
 14 53  1  0
 14 54  1  0
 14 55  1  0
 15 56  1  1
 16 57  1  0
 16 58  1  0
 17 59  1  0
 19 60  1  6
 20 61  1  0
 20 62  1  0
 21 63  1  0
 21 64  1  0
 22 65  1  6
 23 66  1  0
 25 67  1  0
 25 68  1  0
 25 69  1  0
 26 70  1  0
 26 71  1  0
 26 72  1  0
 28 73  1  0
 28 74  1  0
 28 75  1  0
 29 76  1  0
 29 77  1  0
 30 78  1  0
 30 79  1  0
 32 80  1  0
 32 81  1  0
 32 82  1  0
M  END
>  <meeko>  (12) 
{"is_sidechain": [false], "intermolecular_energy": 2.731, "internal_energy": -0.839}

$$$$
EPH_relaxed_0001_pdb2pqr_Repair_283_r2_0001_out
     RDKit          3D

 82 86  0  0  0  0  0  0  0  0999 V2000
   -0.8790   16.3570   -5.8420 C   0  0  0  0  0  0  0  0  0  0  0  0
    0.2140   15.6600   -6.6560 C   0  0  2  0  0  0  0  0  0  0  0  0
   -0.1870   15.4810   -8.1340 C   0  0  0  0  0  0  0  0  0  0  0  0
    0.4560   16.5040   -9.0750 C   0  0  0  0  0  0  0  0  0  0  0  0
    1.8540   16.1130   -9.4460 C   0  0  2  0  0  0  0  0  0  0  0  0
    2.3250   16.6730  -10.6780 O   0  0  0  0  0  0  0  0  0  0  0  0
    2.1900   15.2430  -10.6420 C   0  0  0  0  0  0  0  0  0  0  0  0
    1.1220   14.7090  -11.5440 C   0  0  0  0  0  0  0  0  0  0  0  0
    3.4980   14.5140  -10.6520 C   0  0  0  0  0  0  0  0  0  0  0  0
    0.5390   14.3050   -6.0370 C   0  0  1  0  0  0  0  0  0  0  0  0
    1.7970   13.6470   -6.6650 C   0  0  0  0  0  0  0  0  0  0  0  0
    2.5160   12.8800   -5.5260 C   0  0  0  0  0  0  0  0  0  0  0  0
    1.4880   12.8430   -4.3710 C   0  0  1  0  0  0  0  0  0  0  0  0
    0.5270   11.6660   -4.7270 C   0  0  0  0  0  0  0  0  0  0  0  0
    2.0740   12.6930   -2.9290 C   0  0  2  0  0  0  0  0  0  0  0  0
    2.8450   11.3870   -2.6700 C   0  0  0  0  0  0  0  0  0  0  0  0
    2.0240   10.2540   -2.1510 C   0  0  0  0  0  0  0  0  0  0  0  0
    0.7850   10.3580   -1.6340 C   0  0  0  0  0  0  0  0  0  0  0  0
    0.1250   11.7290   -1.4420 C   0  0  1  0  0  0  0  0  0  0  0  0
   -0.5070   11.8050   -0.0270 C   0  0  0  0  0  0  0  0  0  0  0  0
   -1.4670   10.6510    0.2480 C   0  0  0  0  0  0  0  0  0  0  0  0
   -0.7580    9.3070    0.1040 C   0  0  2  0  0  0  0  0  0  0  0  0
    0.2180    9.1870    1.1440 O   0  0  0  0  0  0  0  0  0  0  0  0
   -0.0750    9.1200   -1.2790 C   0  0  0  0  0  0  0  0  0  0  0  0
   -1.1550    8.9480   -2.3750 C   0  0  0  0  0  0  0  0  0  0  0  0
    0.7210    7.7870   -1.2420 C   0  0  0  0  0  0  0  0  0  0  0  0
    1.0340   12.9890   -1.7730 C   0  0  1  0  0  0  0  0  0  0  0  0
    1.8670   13.3890   -0.5170 C   0  0  0  0  0  0  0  0  0  0  0  0
    0.1080   14.2190   -2.1020 C   0  0  0  0  0  0  0  0  0  0  0  0
   -0.3400   14.3800   -3.5670 C   0  0  0  0  0  0  0  0  0  0  0  0
    0.8540   14.2740   -4.5200 C   0  0  2  0  0  0  0  0  0  0  0  0
    1.8280   15.4590   -4.2000 C   0  0  0  0  0  0  0  0  0  0  0  0
   -0.6758   16.2274   -4.7687 H   0  0  0  0  0  0  0  0  0  0  0  0
   -0.8904   17.4295   -6.0862 H   0  0  0  0  0  0  0  0  0  0  0  0
   -1.8562   15.9150   -6.0862 H   0  0  0  0  0  0  0  0  0  0  0  0
    1.1056   16.3038   -6.6316 H   0  0  0  0  0  0  0  0  0  0  0  0
    0.1162   14.4740   -8.4565 H   0  0  0  0  0  0  0  0  0  0  0  0
   -1.2752   15.6306   -8.1920 H   0  0  0  0  0  0  0  0  0  0  0  0
   -0.1491   16.5757   -9.9908 H   0  0  0  0  0  0  0  0  0  0  0  0
    0.4973   17.4715   -8.5533 H   0  0  0  0  0  0  0  0  0  0  0  0
    2.1436   16.0539   -8.3864 H   0  0  0  0  0  0  0  0  0  0  0  0
    0.3012   14.2986  -10.9375 H   0  0  0  0  0  0  0  0  0  0  0  0
    0.7382   15.5213  -12.1788 H   0  0  0  0  0  0  0  0  0  0  0  0
    1.5415   13.9146  -12.1788 H   0  0  0  0  0  0  0  0  0  0  0  0
    3.8243   14.3321   -9.6174 H   0  0  0  0  0  0  0  0  0  0  0  0
    3.3780   13.5527  -11.1730 H   0  0  0  0  0  0  0  0  0  0  0  0
    4.2525   15.1217  -11.1730 H   0  0  0  0  0  0  0  0  0  0  0  0
   -0.4067   13.7795   -6.2360 H   0  0  0  0  0  0  0  0  0  0  0  0
    1.5015   12.9502   -7.4632 H   0  0  0  0  0  0  0  0  0  0  0  0
    2.4587   14.4047   -7.1100 H   0  0  0  0  0  0  0  0  0  0  0  0
    2.7754   11.8606   -5.8478 H   0  0  0  0  0  0  0  0  0  0  0  0
    3.4594   13.3617   -5.2295 H   0  0  0  0  0  0  0  0  0  0  0  0
    0.1516   11.2062   -3.8009 H   0  0  0  0  0  0  0  0  0  0  0  0
   -0.3197   12.0491   -5.3155 H   0  0  0  0  0  0  0  0  0  0  0  0
    1.0717   10.9131   -5.3155 H   0  0  0  0  0  0  0  0  0  0  0  0
    2.8261   13.4951   -2.8957 H   0  0  0  0  0  0  0  0  0  0  0  0
    3.3025   11.0687   -3.6183 H   0  0  0  0  0  0  0  0  0  0  0  0
    3.5778   11.6174   -1.8826 H   0  0  0  0  0  0  0  0  0  0  0  0
    2.4686    9.2488   -2.1945 H   0  0  0  0  0  0  0  0  0  0  0  0
   -0.6624   11.7975   -2.2071 H   0  0  0  0  0  0  0  0  0  0  0  0
    0.2991   11.7790    0.7211 H   0  0  0  0  0  0  0  0  0  0  0  0
   -1.0835   12.7400    0.0313 H   0  0  0  0  0  0  0  0  0  0  0  0
   -1.8581   10.7440    1.2719 H   0  0  0  0  0  0  0  0  0  0  0  0
   -2.2883   10.6953   -0.4824 H   0  0  0  0  0  0  0  0  0  0  0  0
   -1.5224    8.5201    0.1844 H   0  0  0  0  0  0  0  0  0  0  0  0
    0.7130    8.3650    0.9890 H   0  0  0  0  0  0  0  0  0  0  0  0
   -2.1358    8.7918   -1.9020 H   0  0  0  0  0  0  0  0  0  0  0  0
   -1.1895    9.8520   -3.0008 H   0  0  0  0  0  0  0  0  0  0  0  0
   -0.9070    8.0780   -3.0008 H   0  0  0  0  0  0  0  0  0  0  0  0
    0.8963    7.4935   -0.1965 H   0  0  0  0  0  0  0  0  0  0  0  0
    0.1441    7.0012   -1.7517 H   0  0  0  0  0  0  0  0  0  0  0  0
    1.6864    7.9221   -1.7517 H   0  0  0  0  0  0  0  0  0  0  0  0
    1.3098   13.1215    0.3929 H   0  0  0  0  0  0  0  0  0  0  0  0
    2.8282   12.8542   -0.5289 H   0  0  0  0  0  0  0  0  0  0  0  0
    2.0506   14.4735   -0.5289 H   0  0  0  0  0  0  0  0  0  0  0  0
   -0.7982   14.1275   -1.4852 H   0  0  0  0  0  0  0  0  0  0  0  0
    0.7227   15.1063   -1.8902 H   0  0  0  0  0  0  0  0  0  0  0  0
   -1.0658   13.5900   -3.8102 H   0  0  0  0  0  0  0  0  0  0  0  0
   -0.7974   15.3732   -3.6868 H   0  0  0  0  0  0  0  0  0  0  0  0
    1.9214   15.5727   -3.1099 H   0  0  0  0  0  0  0  0  0  0  0  0
    2.8170   15.2478   -4.6327 H   0  0  0  0  0  0  0  0  0  0  0  0
    1.4293   16.3884   -4.6327 H   0  0  0  0  0  0  0  0  0  0  0  0
  1  2  1  0
  2  3  1  0
  3  4  1  0
  4  5  1  0
  5  6  1  0
  6  7  1  0
  7  8  1  0
  7  9  1  0
  2 10  1  0
 10 11  1  0
 11 12  1  0
 12 13  1  0
 13 14  1  6
 13 15  1  0
 15 16  1  0
 16 17  1  0
 17 18  2  0
 18 19  1  0
 19 20  1  0
 20 21  1  0
 21 22  1  0
 22 23  1  0
 22 24  1  0
 24 25  1  0
 24 26  1  0
 19 27  1  0
 27 28  1  1
 27 29  1  0
 29 30  1  0
 30 31  1  0
 31 32  1  1
  7  5  1  0
 31 10  1  0
 31 13  1  0
 27 15  1  0
 24 18  1  0
  1 33  1  0
  1 34  1  0
  1 35  1  0
  2 36  1  6
  3 37  1  0
  3 38  1  0
  4 39  1  0
  4 40  1  0
  5 41  1  1
  8 42  1  0
  8 43  1  0
  8 44  1  0
  9 45  1  0
  9 46  1  0
  9 47  1  0
 10 48  1  1
 11 49  1  0
 11 50  1  0
 12 51  1  0
 12 52  1  0
 14 53  1  0
 14 54  1  0
 14 55  1  0
 15 56  1  6
 16 57  1  0
 16 58  1  0
 17 59  1  0
 19 60  1  6
 20 61  1  0
 20 62  1  0
 21 63  1  0
 21 64  1  0
 22 65  1  1
 23 66  1  0
 25 67  1  0
 25 68  1  0
 25 69  1  0
 26 70  1  0
 26 71  1  0
 26 72  1  0
 28 73  1  0
 28 74  1  0
 28 75  1  0
 29 76  1  0
 29 77  1  0
 30 78  1  0
 30 79  1  0
 32 80  1  0
 32 81  1  0
 32 82  1  0
M  END
>  <meeko>  (13) 
{"is_sidechain": [false], "intermolecular_energy": 2.731, "internal_energy": -0.839}

$$$$
EPH_relaxed_0001_pdb2pqr_Repair_283_r2_0001_out
     RDKit          3D

 82 86  0  0  0  0  0  0  0  0999 V2000
   -3.7140    7.2160   -3.4310 C   0  0  0  0  0  0  0  0  0  0  0  0
   -3.7380    7.2830   -1.9020 C   0  0  2  0  0  0  0  0  0  0  0  0
   -5.1520    7.0530   -1.3330 C   0  0  0  0  0  0  0  0  0  0  0  0
   -6.2720    7.2940   -2.3490 C   0  0  0  0  0  0  0  0  0  0  0  0
   -7.5970    7.4930   -1.6770 C   0  0  2  0  0  0  0  0  0  0  0  0
   -8.1710    6.3030   -1.1230 O   0  0  0  0  0  0  0  0  0  0  0  0
   -8.8960    6.9130   -2.2030 C   0  0  0  0  0  0  0  0  0  0  0  0
   -8.9350    6.0890   -3.4520 C   0  0  0  0  0  0  0  0  0  0  0  0
  -10.1850    7.5470   -1.7810 C   0  0  0  0  0  0  0  0  0  0  0  0
   -3.2000    8.6290   -1.4320 C   0  0  1  0  0  0  0  0  0  0  0  0
   -3.8180    9.0820   -0.0820 C   0  0  0  0  0  0  0  0  0  0  0  0
   -2.7050    9.8370    0.6880 C   0  0  0  0  0  0  0  0  0  0  0  0
   -1.6000   10.0830   -0.3650 C   0  0  1  0  0  0  0  0  0  0  0  0
   -2.0760   11.3390   -1.1600 C   0  0  0  0  0  0  0  0  0  0  0  0
   -0.1480   10.2660    0.1870 C   0  0  2  0  0  0  0  0  0  0  0  0
    0.0520   11.4840    1.1050 C   0  0  0  0  0  0  0  0  0  0  0  0
    0.4580   12.7440    0.4140 C   0  0  0  0  0  0  0  0  0  0  0  0
    0.9280   12.8290   -0.8440 C   0  0  0  0  0  0  0  0  0  0  0  0
    1.1860   11.5660   -1.6760 C   0  0  1  0  0  0  0  0  0  0  0  0
    2.5750   11.6710   -2.3590 C   0  0  0  0  0  0  0  0  0  0  0  0
    2.7300   12.9500   -3.1760 C   0  0  0  0  0  0  0  0  0  0  0  0
    2.5240   14.1840   -2.3020 C   0  0  2  0  0  0  0  0  0  0  0  0
    3.5930   14.2600   -1.3540 O   0  0  0  0  0  0  0  0  0  0  0  0
    1.1620   14.1850   -1.5550 C   0  0  0  0  0  0  0  0  0  0  0  0
    0.0120   14.4060   -2.5690 C   0  0  0  0  0  0  0  0  0  0  0  0
    1.1410   15.4100   -0.6020 C   0  0  0  0  0  0  0  0  0  0  0  0
    0.9800   10.1840   -0.9190 C   0  0  1  0  0  0  0  0  0  0  0  0
    2.2950    9.7780   -0.1850 C   0  0  0  0  0  0  0  0  0  0  0  0
    0.6980    9.0550   -1.9800 C   0  0  0  0  0  0  0  0  0  0  0  0
   -0.7700    8.8430   -2.3950 C   0  0  0  0  0  0  0  0  0  0  0  0
   -1.6770    8.7330   -1.1660 C   0  0  2  0  0  0  0  0  0  0  0  0
   -1.2360    7.4650   -0.3580 C   0  0  0  0  0  0  0  0  0  0  0  0
   -3.3589    6.2247   -3.7490 H   0  0  0  0  0  0  0  0  0  0  0  0
   -4.7285    7.3847   -3.8214 H   0  0  0  0  0  0  0  0  0  0  0  0
   -3.0374    7.9905   -3.8214 H   0  0  0  0  0  0  0  0  0  0  0  0
   -3.0950    6.4739   -1.5253 H   0  0  0  0  0  0  0  0  0  0  0  0
   -5.2199    6.0128   -0.9818 H   0  0  0  0  0  0  0  0  0  0  0  0
   -5.2935    7.7809   -0.5205 H   0  0  0  0  0  0  0  0  0  0  0  0
   -6.0323    8.1920   -2.9374 H   0  0  0  0  0  0  0  0  0  0  0  0
   -6.3452    6.4070   -2.9954 H   0  0  0  0  0  0  0  0  0  0  0  0
   -7.3149    8.5104   -1.3682 H   0  0  0  0  0  0  0  0  0  0  0  0
   -8.9855    5.0227   -3.1864 H   0  0  0  0  0  0  0  0  0  0  0  0
   -9.8212    6.3618   -4.0437 H   0  0  0  0  0  0  0  0  0  0  0  0
   -8.0270    6.2769   -4.0437 H   0  0  0  0  0  0  0  0  0  0  0  0
  -10.2384    7.5733   -0.6826 H   0  0  0  0  0  0  0  0  0  0  0  0
  -10.2354    8.5727   -2.1752 H   0  0  0  0  0  0  0  0  0  0  0  0
  -11.0282    6.9608   -2.1752 H   0  0  0  0  0  0  0  0  0  0  0  0
   -3.4739    9.2489   -2.2984 H   0  0  0  0  0  0  0  0  0  0  0  0
   -4.6737    9.7494   -0.2620 H   0  0  0  0  0  0  0  0  0  0  0  0
   -4.1820    8.2192    0.4951 H   0  0  0  0  0  0  0  0  0  0  0  0
   -3.0846   10.7910    1.0827 H   0  0  0  0  0  0  0  0  0  0  0  0
   -2.3366    9.2671    1.5537 H   0  0  0  0  0  0  0  0  0  0  0  0
   -2.3750   12.1280   -0.4543 H   0  0  0  0  0  0  0  0  0  0  0  0
   -1.2544   11.7054   -1.7930 H   0  0  0  0  0  0  0  0  0  0  0  0
   -2.9341   11.0688   -1.7930 H   0  0  0  0  0  0  0  0  0  0  0  0
   -0.0272    9.3833    0.8321 H   0  0  0  0  0  0  0  0  0  0  0  0
   -0.8964   11.6741    1.6289 H   0  0  0  0  0  0  0  0  0  0  0  0
    0.8828   11.2247    1.7777 H   0  0  0  0  0  0  0  0  0  0  0  0
    0.3650   13.6819    0.9813 H   0  0  0  0  0  0  0  0  0  0  0  0
    0.3959   11.5379   -2.4408 H   0  0  0  0  0  0  0  0  0  0  0  0
    3.3526   11.6530   -1.5812 H   0  0  0  0  0  0  0  0  0  0  0  0
    2.6729   10.8200   -3.0491 H   0  0  0  0  0  0  0  0  0  0  0  0
    3.7407   12.9803   -3.6090 H   0  0  0  0  0  0  0  0  0  0  0  0
    1.9704   12.9526   -3.9716 H   0  0  0  0  0  0  0  0  0  0  0  0
    2.5178   15.0614   -2.9654 H   0  0  0  0  0  0  0  0  0  0  0  0
    4.3760   13.8490   -1.7580 H   0  0  0  0  0  0  0  0  0  0  0  0
   -0.9269   14.5864   -2.0250 H   0  0  0  0  0  0  0  0  0  0  0  0
    0.2426   15.2763   -3.2010 H   0  0  0  0  0  0  0  0  0  0  0  0
   -0.0964   13.5122   -3.2010 H   0  0  0  0  0  0  0  0  0  0  0  0
    1.1470   15.0627    0.4417 H   0  0  0  0  0  0  0  0  0  0  0  0
    2.0286   16.0331   -0.7862 H   0  0  0  0  0  0  0  0  0  0  0  0
    0.2326   16.0023   -0.7862 H   0  0  0  0  0  0  0  0  0  0  0  0
    2.1378    9.8265    0.9026 H   0  0  0  0  0  0  0  0  0  0  0  0
    2.5723    8.7524   -0.4700 H   0  0  0  0  0  0  0  0  0  0  0  0
    3.1023   10.4687   -0.4700 H   0  0  0  0  0  0  0  0  0  0  0  0
    1.2682    9.3016   -2.8878 H   0  0  0  0  0  0  0  0  0  0  0  0
    0.9965    8.1172   -1.4886 H   0  0  0  0  0  0  0  0  0  0  0  0
   -1.0972    9.6954   -3.0084 H   0  0  0  0  0  0  0  0  0  0  0  0
   -0.8407    7.9066   -2.9678 H   0  0  0  0  0  0  0  0  0  0  0  0
   -1.3085    7.6734    0.7196 H   0  0  0  0  0  0  0  0  0  0  0  0
   -1.8933    6.6207   -0.6132 H   0  0  0  0  0  0  0  0  0  0  0  0
   -0.1967    7.2108   -0.6132 H   0  0  0  0  0  0  0  0  0  0  0  0
  1  2  1  0
  2  3  1  0
  3  4  1  0
  4  5  1  0
  5  6  1  0
  6  7  1  0
  7  8  1  0
  7  9  1  0
  2 10  1  0
 10 11  1  0
 11 12  1  0
 12 13  1  0
 13 14  1  6
 13 15  1  0
 15 16  1  0
 16 17  1  0
 17 18  2  0
 18 19  1  0
 19 20  1  0
 20 21  1  0
 21 22  1  0
 22 23  1  0
 22 24  1  0
 24 25  1  0
 24 26  1  0
 19 27  1  0
 27 28  1  1
 27 29  1  0
 29 30  1  0
 30 31  1  0
 31 32  1  1
  7  5  1  0
 31 10  1  0
 31 13  1  0
 27 15  1  0
 24 18  1  0
  1 33  1  0
  1 34  1  0
  1 35  1  0
  2 36  1  1
  3 37  1  0
  3 38  1  0
  4 39  1  0
  4 40  1  0
  5 41  1  1
  8 42  1  0
  8 43  1  0
  8 44  1  0
  9 45  1  0
  9 46  1  0
  9 47  1  0
 10 48  1  6
 11 49  1  0
 11 50  1  0
 12 51  1  0
 12 52  1  0
 14 53  1  0
 14 54  1  0
 14 55  1  0
 15 56  1  1
 16 57  1  0
 16 58  1  0
 17 59  1  0
 19 60  1  6
 20 61  1  0
 20 62  1  0
 21 63  1  0
 21 64  1  0
 22 65  1  6
 23 66  1  0
 25 67  1  0
 25 68  1  0
 25 69  1  0
 26 70  1  0
 26 71  1  0
 26 72  1  0
 28 73  1  0
 28 74  1  0
 28 75  1  0
 29 76  1  0
 29 77  1  0
 30 78  1  0
 30 79  1  0
 32 80  1  0
 32 81  1  0
 32 82  1  0
M  END
>  <meeko>  (14) 
{"is_sidechain": [false], "intermolecular_energy": 2.731, "internal_energy": -0.839}

$$$$
EPH_relaxed_0001_pdb2pqr_Repair_283_r2_0001_out
     RDKit          3D

 82 86  0  0  0  0  0  0  0  0999 V2000
    3.5500   18.5430   -2.6750 C   0  0  0  0  0  0  0  0  0  0  0  0
    2.2100   17.8070   -2.7680 C   0  0  2  0  0  0  0  0  0  0  0  0
    1.0360   18.6750   -2.2720 C   0  0  0  0  0  0  0  0  0  0  0  0
    1.3600   19.4920   -1.0180 C   0  0  0  0  0  0  0  0  0  0  0  0
    0.1480   20.1950   -0.4850 C   0  0  2  0  0  0  0  0  0  0  0  0
    0.0360   20.1930    0.9440 O   0  0  0  0  0  0  0  0  0  0  0  0
   -0.9860   19.4820    0.2270 C   0  0  0  0  0  0  0  0  0  0  0  0
   -0.9640   18.0010    0.4430 C   0  0  0  0  0  0  0  0  0  0  0  0
   -2.3280   20.1430    0.2750 C   0  0  0  0  0  0  0  0  0  0  0  0
    2.2720   16.5100   -1.9700 C   0  0  1  0  0  0  0  0  0  0  0  0
    2.4910   16.7530   -0.4520 C   0  0  0  0  0  0  0  0  0  0  0  0
    1.6990   15.6500    0.2960 C   0  0  0  0  0  0  0  0  0  0  0  0
    1.3290   14.6240   -0.8010 C   0  0  1  0  0  0  0  0  0  0  0  0
    2.6110   13.7540   -0.9860 C   0  0  0  0  0  0  0  0  0  0  0  0
    0.0680   13.7420   -0.5250 C   0  0  2  0  0  0  0  0  0  0  0  0
    0.1700   12.8230    0.7050 C   0  0  0  0  0  0  0  0  0  0  0  0
    0.7190   11.4610    0.4400 C   0  0  0  0  0  0  0  0  0  0  0  0
    0.8470   10.8920   -0.7730 C   0  0  0  0  0  0  0  0  0  0  0  0
    0.3280   11.5970   -2.0330 C   0  0  1  0  0  0  0  0  0  0  0  0
   -0.4710   10.5880   -2.8990 C   0  0  0  0  0  0  0  0  0  0  0  0
    0.3300    9.3320   -3.2230 C   0  0  0  0  0  0  0  0  0  0  0  0
    0.7790    8.6270   -1.9450 C   0  0  2  0  0  0  0  0  0  0  0  0
   -0.3750    8.1220   -1.2670 O   0  0  0  0  0  0  0  0  0  0  0  0
    1.5860    9.5480   -0.9880 C   0  0  0  0  0  0  0  0  0  0  0  0
    2.9750    9.8500   -1.6050 C   0  0  0  0  0  0  0  0  0  0  0  0
    1.8560    8.7580    0.3210 C   0  0  0  0  0  0  0  0  0  0  0  0
   -0.4630   12.9550   -1.7910 C   0  0  1  0  0  0  0  0  0  0  0  0
   -1.9700   12.6530   -1.5290 C   0  0  0  0  0  0  0  0  0  0  0  0
   -0.4060   13.8230   -3.1030 C   0  0  0  0  0  0  0  0  0  0  0  0
    0.8050   14.7630   -3.2620 C   0  0  0  0  0  0  0  0  0  0  0  0
    1.0200   15.5980   -1.9960 C   0  0  2  0  0  0  0  0  0  0  0  0
   -0.2450   16.5000   -1.7960 C   0  0  0  0  0  0  0  0  0  0  0  0
    3.8156   18.6889   -1.6176 H   0  0  0  0  0  0  0  0  0  0  0  0
    4.3308   17.9471   -3.1703 H   0  0  0  0  0  0  0  0  0  0  0  0
    3.4660   19.5216   -3.1703 H   0  0  0  0  0  0  0  0  0  0  0  0
    2.0294   17.5815   -3.8294 H   0  0  0  0  0  0  0  0  0  0  0  0
    0.7546   19.3706   -3.0763 H   0  0  0  0  0  0  0  0  0  0  0  0
    0.2192   17.9882   -2.0055 H   0  0  0  0  0  0  0  0  0  0  0  0
    1.7494   18.8157   -0.2428 H   0  0  0  0  0  0  0  0  0  0  0  0
    2.1064   20.2534   -1.2885 H   0  0  0  0  0  0  0  0  0  0  0  0
    0.1610   20.9057   -1.3245 H   0  0  0  0  0  0  0  0  0  0  0  0
   -0.9608   17.7879    1.5221 H   0  0  0  0  0  0  0  0  0  0  0  0
   -1.8555   17.5500   -0.0172 H   0  0  0  0  0  0  0  0  0  0  0  0
   -0.0595   17.5767   -0.0172 H   0  0  0  0  0  0  0  0  0  0  0  0
   -2.6269   20.2902    1.3233 H   0  0  0  0  0  0  0  0  0  0  0  0
   -2.2748   21.1180   -0.2315 H   0  0  0  0  0  0  0  0  0  0  0  0
   -3.0685   19.5066   -0.2315 H   0  0  0  0  0  0  0  0  0  0  0  0
    3.1079   16.0154   -2.4863 H   0  0  0  0  0  0  0  0  0  0  0  0
    3.5612   16.6828   -0.2076 H   0  0  0  0  0  0  0  0  0  0  0  0
    2.1457   17.7553   -0.1585 H   0  0  0  0  0  0  0  0  0  0  0  0
    2.3232   15.1816    1.0712 H   0  0  0  0  0  0  0  0  0  0  0  0
    0.8123   16.0490    0.8104 H   0  0  0  0  0  0  0  0  0  0  0  0
    3.0140   13.4805    0.0003 H   0  0  0  0  0  0  0  0  0  0  0  0
    2.3571   12.8409   -1.5444 H   0  0  0  0  0  0  0  0  0  0  0  0
    3.3657   14.3273   -1.5444 H   0  0  0  0  0  0  0  0  0  0  0  0
   -0.6941   14.4943   -0.2736 H   0  0  0  0  0  0  0  0  0  0  0  0
    0.8212   13.3142    1.4430 H   0  0  0  0  0  0  0  0  0  0  0  0
   -0.8608   12.6719    1.0580 H   0  0  0  0  0  0  0  0  0  0  0  0
    1.0468   10.8723    1.3095 H   0  0  0  0  0  0  0  0  0  0  0  0
    1.2193   11.9353   -2.5818 H   0  0  0  0  0  0  0  0  0  0  0  0
   -1.3792   10.2955   -2.3516 H   0  0  0  0  0  0  0  0  0  0  0  0
   -0.7134   11.0838   -3.8505 H   0  0  0  0  0  0  0  0  0  0  0  0
   -0.2977    8.6463   -3.8110 H   0  0  0  0  0  0  0  0  0  0  0  0
    1.2228    9.6227   -3.7961 H   0  0  0  0  0  0  0  0  0  0  0  0
    1.4555    7.8111   -2.2392 H   0  0  0  0  0  0  0  0  0  0  0  0
   -0.9120    7.6390   -1.9190 H   0  0  0  0  0  0  0  0  0  0  0  0
    3.7072   10.0092   -0.7997 H   0  0  0  0  0  0  0  0  0  0  0  0
    3.2927    9.0000   -2.2267 H   0  0  0  0  0  0  0  0  0  0  0  0
    2.9111   10.7552   -2.2267 H   0  0  0  0  0  0  0  0  0  0  0  0
    1.6370    9.3988    1.1878 H   0  0  0  0  0  0  0  0  0  0  0  0
    1.2113    7.8673    0.3513 H   0  0  0  0  0  0  0  0  0  0  0  0
    2.9110    8.4482    0.3513 H   0  0  0  0  0  0  0  0  0  0  0  0
   -2.1535   12.6162   -0.4450 H   0  0  0  0  0  0  0  0  0  0  0  0
   -2.5863   13.4455   -1.9786 H   0  0  0  0  0  0  0  0  0  0  0  0
   -2.2334   11.6842   -1.9786 H   0  0  0  0  0  0  0  0  0  0  0  0
   -0.4059   13.1324   -3.9592 H   0  0  0  0  0  0  0  0  0  0  0  0
   -1.2808   14.4875   -3.0469 H   0  0  0  0  0  0  0  0  0  0  0  0
    1.7054   14.1608   -3.4533 H   0  0  0  0  0  0  0  0  0  0  0  0
    0.6121   15.4446   -4.1035 H   0  0  0  0  0  0  0  0  0  0  0  0
   -0.4333   16.6343   -0.7206 H   0  0  0  0  0  0  0  0  0  0  0  0
   -0.0736   17.4809   -2.2635 H   0  0  0  0  0  0  0  0  0  0  0  0
   -1.1164   16.0183   -2.2635 H   0  0  0  0  0  0  0  0  0  0  0  0
  1  2  1  0
  2  3  1  0
  3  4  1  0
  4  5  1  0
  5  6  1  0
  6  7  1  0
  7  8  1  0
  7  9  1  0
  2 10  1  0
 10 11  1  0
 11 12  1  0
 12 13  1  0
 13 14  1  6
 13 15  1  0
 15 16  1  0
 16 17  1  0
 17 18  2  0
 18 19  1  0
 19 20  1  0
 20 21  1  0
 21 22  1  0
 22 23  1  0
 22 24  1  0
 24 25  1  0
 24 26  1  0
 19 27  1  0
 27 28  1  1
 27 29  1  0
 29 30  1  0
 30 31  1  0
 31 32  1  1
  7  5  1  0
 31 10  1  0
 31 13  1  0
 27 15  1  0
 24 18  1  0
  1 33  1  0
  1 34  1  0
  1 35  1  0
  2 36  1  6
  3 37  1  0
  3 38  1  0
  4 39  1  0
  4 40  1  0
  5 41  1  6
  8 42  1  0
  8 43  1  0
  8 44  1  0
  9 45  1  0
  9 46  1  0
  9 47  1  0
 10 48  1  6
 11 49  1  0
 11 50  1  0
 12 51  1  0
 12 52  1  0
 14 53  1  0
 14 54  1  0
 14 55  1  0
 15 56  1  1
 16 57  1  0
 16 58  1  0
 17 59  1  0
 19 60  1  6
 20 61  1  0
 20 62  1  0
 21 63  1  0
 21 64  1  0
 22 65  1  6
 23 66  1  0
 25 67  1  0
 25 68  1  0
 25 69  1  0
 26 70  1  0
 26 71  1  0
 26 72  1  0
 28 73  1  0
 28 74  1  0
 28 75  1  0
 29 76  1  0
 29 77  1  0
 30 78  1  0
 30 79  1  0
 32 80  1  0
 32 81  1  0
 32 82  1  0
M  END
>  <meeko>  (15) 
{"is_sidechain": [false], "intermolecular_energy": 2.731, "internal_energy": -0.839}

$$$$
EPH_relaxed_0001_pdb2pqr_Repair_283_r2_0001_out
     RDKit          3D

 82 86  0  0  0  0  0  0  0  0999 V2000
    0.1720    9.3280   -2.3480 C   0  0  0  0  0  0  0  0  0  0  0  0
    1.1850   10.3710   -2.8280 C   0  0  2  0  0  0  0  0  0  0  0  0
    2.6050    9.7840   -2.9590 C   0  0  0  0  0  0  0  0  0  0  0  0
    3.5240   10.5960   -3.8760 C   0  0  0  0  0  0  0  0  0  0  0  0
    4.9060   10.7190   -3.3070 C   0  0  2  0  0  0  0  0  0  0  0  0
    5.5950   11.9240   -3.6640 O   0  0  0  0  0  0  0  0  0  0  0  0
    6.1640   10.7000   -4.1550 C   0  0  0  0  0  0  0  0  0  0  0  0
    6.1010   10.5520   -5.6430 C   0  0  0  0  0  0  0  0  0  0  0  0
    7.4610   10.3340   -3.5020 C   0  0  0  0  0  0  0  0  0  0  0  0
    1.1990   11.5600   -1.8750 C   0  0  1  0  0  0  0  0  0  0  0  0
    2.2800   11.4270   -0.7700 C   0  0  0  0  0  0  0  0  0  0  0  0
    2.8080   12.8570   -0.4860 C   0  0  0  0  0  0  0  0  0  0  0  0
    1.7950   13.7930   -1.1850 C   0  0  1  0  0  0  0  0  0  0  0  0
    0.5970   13.9020   -0.1910 C   0  0  0  0  0  0  0  0  0  0  0  0
    2.3290   15.2020   -1.6020 C   0  0  2  0  0  0  0  0  0  0  0  0
    2.7900   16.0960   -0.4370 C   0  0  0  0  0  0  0  0  0  0  0  0
    1.7360   16.9780    0.1450 C   0  0  0  0  0  0  0  0  0  0  0  0
    0.5500   17.2620   -0.4250 C   0  0  0  0  0  0  0  0  0  0  0  0
    0.2110   16.7510   -1.8320 C   0  0  1  0  0  0  0  0  0  0  0  0
   -0.3920   17.9080   -2.6710 C   0  0  0  0  0  0  0  0  0  0  0  0
   -1.5840   18.5690   -1.9860 C   0  0  0  0  0  0  0  0  0  0  0  0
   -1.1920   19.1150   -0.6160 C   0  0  2  0  0  0  0  0  0  0  0  0
   -0.2700   20.1940   -0.7960 O   0  0  0  0  0  0  0  0  0  0  0  0
   -0.5640   18.0410    0.3150 C   0  0  0  0  0  0  0  0  0  0  0  0
   -1.6540   17.0310    0.7540 C   0  0  0  0  0  0  0  0  0  0  0  0
   -0.0850   18.7520    1.6100 C   0  0  0  0  0  0  0  0  0  0  0  0
    1.3790   15.9890   -2.5930 C   0  0  1  0  0  0  0  0  0  0  0  0
    2.2770   17.0130   -3.3520 C   0  0  0  0  0  0  0  0  0  0  0  0
    0.7500   15.0500   -3.6900 C   0  0  0  0  0  0  0  0  0  0  0  0
    0.3530   13.6300   -3.2450 C   0  0  0  0  0  0  0  0  0  0  0  0
    1.4960   12.9550   -2.4810 C   0  0  2  0  0  0  0  0  0  0  0  0
    2.7080   12.8110   -3.4630 C   0  0  0  0  0  0  0  0  0  0  0  0
    0.1559    9.3115   -1.2482 H   0  0  0  0  0  0  0  0  0  0  0  0
   -0.8281    9.5874   -2.7255 H   0  0  0  0  0  0  0  0  0  0  0  0
    0.4604    8.3359   -2.7255 H   0  0  0  0  0  0  0  0  0  0  0  0
    0.8704   10.7011   -3.8290 H   0  0  0  0  0  0  0  0  0  0  0  0
    3.0589    9.7460   -1.9577 H   0  0  0  0  0  0  0  0  0  0  0  0
    2.5003    8.7863   -3.4102 H   0  0  0  0  0  0  0  0  0  0  0  0
    3.5842   10.0960   -4.8540 H   0  0  0  0  0  0  0  0  0  0  0  0
    3.1027   11.6072   -3.9760 H   0  0  0  0  0  0  0  0  0  0  0  0
    4.6125   10.1549   -2.4094 H   0  0  0  0  0  0  0  0  0  0  0  0
    5.6817    9.5670   -5.8961 H   0  0  0  0  0  0  0  0  0  0  0  0
    5.4611   11.3419   -6.0633 H   0  0  0  0  0  0  0  0  0  0  0  0
    7.1139   10.6383   -6.0633 H   0  0  0  0  0  0  0  0  0  0  0  0
    7.3433   10.3672   -2.4088 H   0  0  0  0  0  0  0  0  0  0  0  0
    7.7523    9.3186   -3.8088 H   0  0  0  0  0  0  0  0  0  0  0  0
    8.2401   11.0474   -3.8088 H   0  0  0  0  0  0  0  0  0  0  0  0
    0.1602   11.5196   -1.5155 H   0  0  0  0  0  0  0  0  0  0  0  0
    1.8388   10.9981    0.1418 H   0  0  0  0  0  0  0  0  0  0  0  0
    3.0947   10.7621   -1.0926 H   0  0  0  0  0  0  0  0  0  0  0  0
    2.8352   13.0531    0.5960 H   0  0  0  0  0  0  0  0  0  0  0  0
    3.8341   13.0035   -0.8543 H   0  0  0  0  0  0  0  0  0  0  0  0
    0.9734   13.8678    0.8420 H   0  0  0  0  0  0  0  0  0  0  0  0
    0.0679   14.8520   -0.3572 H   0  0  0  0  0  0  0  0  0  0  0  0
   -0.0948   13.0631   -0.3572 H   0  0  0  0  0  0  0  0  0  0  0  0
    3.2398   14.9511   -2.1654 H   0  0  0  0  0  0  0  0  0  0  0  0
    3.1673   15.4431    0.3639 H   0  0  0  0  0  0  0  0  0  0  0  0
    3.5542   16.7688   -0.8534 H   0  0  0  0  0  0  0  0  0  0  0  0
    1.9463   17.4350    1.1232 H   0  0  0  0  0  0  0  0  0  0  0  0
   -0.5395   15.9584   -1.6955 H   0  0  0  0  0  0  0  0  0  0  0  0
    0.3865   18.6678   -2.8343 H   0  0  0  0  0  0  0  0  0  0  0  0
   -0.7475   17.4813   -3.6205 H   0  0  0  0  0  0  0  0  0  0  0  0
   -1.9461   19.3969   -2.6133 H   0  0  0  0  0  0  0  0  0  0  0  0
   -2.3735   17.8151   -1.8507 H   0  0  0  0  0  0  0  0  0  0  0  0
   -2.1132   19.4579   -0.1222 H   0  0  0  0  0  0  0  0  0  0  0  0
    0.2230   20.3020    0.0340 H   0  0  0  0  0  0  0  0  0  0  0  0
   -1.6964   16.9917    1.8525 H   0  0  0  0  0  0  0  0  0  0  0  0
   -2.6301   17.3509    0.3606 H   0  0  0  0  0  0  0  0  0  0  0  0
   -1.4093   16.0333    0.3606 H   0  0  0  0  0  0  0  0  0  0  0  0
   -0.4551   18.2027    2.4882 H   0  0  0  0  0  0  0  0  0  0  0  0
    1.0146   18.7766    1.6295 H   0  0  0  0  0  0  0  0  0  0  0  0
   -0.4752   19.7803    1.6295 H   0  0  0  0  0  0  0  0  0  0  0  0
    2.8210   17.6334   -2.6246 H   0  0  0  0  0  0  0  0  0  0  0  0
    2.9970   16.4718   -3.9835 H   0  0  0  0  0  0  0  0  0  0  0  0
    1.6465   17.6562   -3.9835 H   0  0  0  0  0  0  0  0  0  0  0  0
   -0.1556   15.5444   -4.0715 H   0  0  0  0  0  0  0  0  0  0  0  0
    1.5458   14.9057   -4.4355 H   0  0  0  0  0  0  0  0  0  0  0  0
   -0.5297   13.6913   -2.5915 H   0  0  0  0  0  0  0  0  0  0  0  0
    0.1285   13.0319   -4.1404 H   0  0  0  0  0  0  0  0  0  0  0  0
    3.6373   12.7006   -2.8848 H   0  0  0  0  0  0  0  0  0  0  0  0
    2.5629   11.9238   -4.0969 H   0  0  0  0  0  0  0  0  0  0  0  0
    2.7749   13.7075   -4.0969 H   0  0  0  0  0  0  0  0  0  0  0  0
  1  2  1  0
  2  3  1  0
  3  4  1  0
  4  5  1  0
  5  6  1  0
  6  7  1  0
  7  8  1  0
  7  9  1  0
  2 10  1  0
 10 11  1  0
 11 12  1  0
 12 13  1  0
 13 14  1  1
 13 15  1  0
 15 16  1  0
 16 17  1  0
 17 18  2  0
 18 19  1  0
 19 20  1  0
 20 21  1  0
 21 22  1  0
 22 23  1  0
 22 24  1  0
 24 25  1  0
 24 26  1  0
 19 27  1  0
 27 28  1  6
 27 29  1  0
 29 30  1  0
 30 31  1  0
 31 32  1  6
  7  5  1  0
 31 10  1  0
 31 13  1  0
 27 15  1  0
 24 18  1  0
  1 33  1  0
  1 34  1  0
  1 35  1  0
  2 36  1  6
  3 37  1  0
  3 38  1  0
  4 39  1  0
  4 40  1  0
  5 41  1  1
  8 42  1  0
  8 43  1  0
  8 44  1  0
  9 45  1  0
  9 46  1  0
  9 47  1  0
 10 48  1  1
 11 49  1  0
 11 50  1  0
 12 51  1  0
 12 52  1  0
 14 53  1  0
 14 54  1  0
 14 55  1  0
 15 56  1  6
 16 57  1  0
 16 58  1  0
 17 59  1  0
 19 60  1  1
 20 61  1  0
 20 62  1  0
 21 63  1  0
 21 64  1  0
 22 65  1  1
 23 66  1  0
 25 67  1  0
 25 68  1  0
 25 69  1  0
 26 70  1  0
 26 71  1  0
 26 72  1  0
 28 73  1  0
 28 74  1  0
 28 75  1  0
 29 76  1  0
 29 77  1  0
 30 78  1  0
 30 79  1  0
 32 80  1  0
 32 81  1  0
 32 82  1  0
M  END
>  <meeko>  (16) 
{"is_sidechain": [false], "intermolecular_energy": 2.731, "internal_energy": -0.839}

$$$$
EPH_relaxed_0001_pdb2pqr_Repair_283_r2_0001_out
     RDKit          3D

 82 86  0  0  0  0  0  0  0  0999 V2000
   -2.1360    7.8580   -2.0490 C   0  0  0  0  0  0  0  0  0  0  0  0
   -2.1400    8.5060   -0.6620 C   0  0  2  0  0  0  0  0  0  0  0  0
   -3.5440    8.5070   -0.0250 C   0  0  0  0  0  0  0  0  0  0  0  0
   -4.6770    8.7170   -1.0330 C   0  0  0  0  0  0  0  0  0  0  0  0
   -5.7890    7.7340   -0.8300 C   0  0  2  0  0  0  0  0  0  0  0  0
   -5.3770    6.3610   -0.7990 O   0  0  0  0  0  0  0  0  0  0  0  0
   -6.2320    6.7410   -1.8890 C   0  0  0  0  0  0  0  0  0  0  0  0
   -5.5710    6.6830   -3.2300 C   0  0  0  0  0  0  0  0  0  0  0  0
   -7.6120    6.1680   -1.8000 C   0  0  0  0  0  0  0  0  0  0  0  0
   -1.6070    9.9310   -0.7520 C   0  0  1  0  0  0  0  0  0  0  0  0
   -1.1320   10.4800    0.6190 C   0  0  0  0  0  0  0  0  0  0  0  0
    0.0880   11.3940    0.3370 C   0  0  0  0  0  0  0  0  0  0  0  0
    0.0700   11.6060   -1.1950 C   0  0  1  0  0  0  0  0  0  0  0  0
   -0.9870   12.7300   -1.4320 C   0  0  0  0  0  0  0  0  0  0  0  0
    1.4410   11.9540   -1.8610 C   0  0  2  0  0  0  0  0  0  0  0  0
    2.0770   13.2750   -1.3950 C   0  0  0  0  0  0  0  0  0  0  0  0
    1.7030   14.4790   -2.1930 C   0  0  0  0  0  0  0  0  0  0  0  0
    1.1210   14.4630   -3.4070 C   0  0  0  0  0  0  0  0  0  0  0  0
    0.8690   13.1400   -4.1420 C   0  0  1  0  0  0  0  0  0  0  0  0
    1.3280   13.2730   -5.6180 C   0  0  0  0  0  0  0  0  0  0  0  0
    0.6890   14.4640   -6.3250 C   0  0  0  0  0  0  0  0  0  0  0  0
    1.0100   15.7670   -5.5970 C   0  0  2  0  0  0  0  0  0  0  0  0
    2.4130   16.0240   -5.7100 O   0  0  0  0  0  0  0  0  0  0  0  0
    0.6010   15.7480   -4.0980 C   0  0  0  0  0  0  0  0  0  0  0  0
   -0.9430   15.7730   -3.9790 C   0  0  0  0  0  0  0  0  0  0  0  0
    1.1070   17.0640   -3.4480 C   0  0  0  0  0  0  0  0  0  0  0  0
    1.4440   11.8360   -3.4390 C   0  0  1  0  0  0  0  0  0  0  0  0
    2.9260   11.6100   -3.8660 C   0  0  0  0  0  0  0  0  0  0  0  0
    0.6390   10.5810   -3.9470 C   0  0  0  0  0  0  0  0  0  0  0  0
   -0.6430   10.2190   -3.1740 C   0  0  0  0  0  0  0  0  0  0  0  0
   -0.3800   10.1750   -1.6650 C   0  0  2  0  0  0  0  0  0  0  0  0
    0.6630    9.0380   -1.3940 C   0  0  0  0  0  0  0  0  0  0  0  0
   -2.1292    6.7632   -1.9422 H   0  0  0  0  0  0  0  0  0  0  0  0
   -3.0361    8.1670   -2.6007 H   0  0  0  0  0  0  0  0  0  0  0  0
   -1.2398    8.1781   -2.6007 H   0  0  0  0  0  0  0  0  0  0  0  0
   -1.4849    7.9048   -0.0144 H   0  0  0  0  0  0  0  0  0  0  0  0
   -3.6991    7.5397    0.4752 H   0  0  0  0  0  0  0  0  0  0  0  0
   -3.5777    9.3529    0.6774 H   0  0  0  0  0  0  0  0  0  0  0  0
   -5.0755    9.7354   -0.9143 H   0  0  0  0  0  0  0  0  0  0  0  0
   -4.2686    8.5686   -2.0435 H   0  0  0  0  0  0  0  0  0  0  0  0
   -6.3469    8.4566   -0.2163 H   0  0  0  0  0  0  0  0  0  0  0  0
   -4.4830    6.5875   -3.0987 H   0  0  0  0  0  0  0  0  0  0  0  0
   -5.9505    5.8147   -3.7886 H   0  0  0  0  0  0  0  0  0  0  0  0
   -5.7935    7.6041   -3.7886 H   0  0  0  0  0  0  0  0  0  0  0  0
   -7.8931    6.0513   -0.7429 H   0  0  0  0  0  0  0  0  0  0  0  0
   -8.3229    6.8453   -2.2958 H   0  0  0  0  0  0  0  0  0  0  0  0
   -7.6341    5.1863   -2.2958 H   0  0  0  0  0  0  0  0  0  0  0  0
   -2.4926   10.4320   -1.1699 H   0  0  0  0  0  0  0  0  0  0  0  0
   -1.9372   11.0592    1.0946 H   0  0  0  0  0  0  0  0  0  0  0  0
   -0.8617    9.6599    1.3004 H   0  0  0  0  0  0  0  0  0  0  0  0
   -0.0162   12.3543    0.8633 H   0  0  0  0  0  0  0  0  0  0  0  0
    1.0319   10.9497    0.6858 H   0  0  0  0  0  0  0  0  0  0  0  0
   -1.3431   13.1087   -0.4626 H   0  0  0  0  0  0  0  0  0  0  0  0
   -0.5271   13.5519   -2.0002 H   0  0  0  0  0  0  0  0  0  0  0  0
   -1.8356   12.3214   -2.0002 H   0  0  0  0  0  0  0  0  0  0  0  0
    2.0963   11.1568   -1.4801 H   0  0  0  0  0  0  0  0  0  0  0  0
    1.7720   13.4499   -0.3527 H   0  0  0  0  0  0  0  0  0  0  0  0
    3.1627   13.1513   -1.5217 H   0  0  0  0  0  0  0  0  0  0  0  0
    1.9212   15.4629   -1.7522 H   0  0  0  0  0  0  0  0  0  0  0  0
   -0.2173   12.9716   -4.1024 H   0  0  0  0  0  0  0  0  0  0  0  0
    2.4209   13.3964   -5.6375 H   0  0  0  0  0  0  0  0  0  0  0  0
    1.0135   12.3621   -6.1485 H   0  0  0  0  0  0  0  0  0  0  0  0
    1.0750   14.5217   -7.3534 H   0  0  0  0  0  0  0  0  0  0  0  0
   -0.4021   14.3247   -6.3310 H   0  0  0  0  0  0  0  0  0  0  0  0
    0.4204   16.5647   -6.0724 H   0  0  0  0  0  0  0  0  0  0  0  0
    2.5260   16.7900   -6.2970 H   0  0  0  0  0  0  0  0  0  0  0  0
   -1.2289   15.7776   -2.9168 H   0  0  0  0  0  0  0  0  0  0  0  0
   -1.3338   16.6776   -4.4678 H   0  0  0  0  0  0  0  0  0  0  0  0
   -1.3629   14.8815   -4.4678 H   0  0  0  0  0  0  0  0  0  0  0  0
    1.0707   16.9695   -2.3527 H   0  0  0  0  0  0  0  0  0  0  0  0
    2.1427   17.2551   -3.7654 H   0  0  0  0  0  0  0  0  0  0  0  0
    0.4661   17.8998   -3.7654 H   0  0  0  0  0  0  0  0  0  0  0  0
    3.5555   11.5140   -2.9690 H   0  0  0  0  0  0  0  0  0  0  0  0
    2.9988   10.6904   -4.4652 H   0  0  0  0  0  0  0  0  0  0  0  0
    3.2696   12.4661   -4.4652 H   0  0  0  0  0  0  0  0  0  0  0  0
    0.3551   10.7688   -4.9930 H   0  0  0  0  0  0  0  0  0  0  0  0
    1.3153    9.7261   -3.7993 H   0  0  0  0  0  0  0  0  0  0  0  0
   -1.4146   10.9747   -3.3829 H   0  0  0  0  0  0  0  0  0  0  0  0
   -0.9800    9.2240   -3.5003 H   0  0  0  0  0  0  0  0  0  0  0  0
    0.7858    8.9041   -0.3091 H   0  0  0  0  0  0  0  0  0  0  0  0
    0.3059    8.0986   -1.8413 H   0  0  0  0  0  0  0  0  0  0  0  0
    1.6296    9.3129   -1.8413 H   0  0  0  0  0  0  0  0  0  0  0  0
  1  2  1  0
  2  3  1  0
  3  4  1  0
  4  5  1  0
  5  6  1  0
  6  7  1  0
  7  8  1  0
  7  9  1  0
  2 10  1  0
 10 11  1  0
 11 12  1  0
 12 13  1  0
 13 14  1  1
 13 15  1  0
 15 16  1  0
 16 17  1  0
 17 18  2  0
 18 19  1  0
 19 20  1  0
 20 21  1  0
 21 22  1  0
 22 23  1  0
 22 24  1  0
 24 25  1  0
 24 26  1  0
 19 27  1  0
 27 28  1  6
 27 29  1  0
 29 30  1  0
 30 31  1  0
 31 32  1  6
  7  5  1  0
 31 10  1  0
 31 13  1  0
 27 15  1  0
 24 18  1  0
  1 33  1  0
  1 34  1  0
  1 35  1  0
  2 36  1  1
  3 37  1  0
  3 38  1  0
  4 39  1  0
  4 40  1  0
  5 41  1  1
  8 42  1  0
  8 43  1  0
  8 44  1  0
  9 45  1  0
  9 46  1  0
  9 47  1  0
 10 48  1  6
 11 49  1  0
 11 50  1  0
 12 51  1  0
 12 52  1  0
 14 53  1  0
 14 54  1  0
 14 55  1  0
 15 56  1  1
 16 57  1  0
 16 58  1  0
 17 59  1  0
 19 60  1  6
 20 61  1  0
 20 62  1  0
 21 63  1  0
 21 64  1  0
 22 65  1  6
 23 66  1  0
 25 67  1  0
 25 68  1  0
 25 69  1  0
 26 70  1  0
 26 71  1  0
 26 72  1  0
 28 73  1  0
 28 74  1  0
 28 75  1  0
 29 76  1  0
 29 77  1  0
 30 78  1  0
 30 79  1  0
 32 80  1  0
 32 81  1  0
 32 82  1  0
M  END
>  <meeko>  (17) 
{"is_sidechain": [false], "intermolecular_energy": 2.731, "internal_energy": -0.839}

$$$$
EPH_relaxed_0001_pdb2pqr_Repair_283_r2_0001_out
     RDKit          3D

 82 86  0  0  0  0  0  0  0  0999 V2000
    2.1230   10.9490   -5.1340 C   0  0  0  0  0  0  0  0  0  0  0  0
    1.3930   10.7750   -3.7990 C   0  0  2  0  0  0  0  0  0  0  0  0
    0.2540    9.7400   -3.8910 C   0  0  0  0  0  0  0  0  0  0  0  0
    0.2870    8.6890   -2.7790 C   0  0  0  0  0  0  0  0  0  0  0  0
   -0.2590    9.2270   -1.4910 C   0  0  2  0  0  0  0  0  0  0  0  0
   -0.5730    8.2300   -0.5100 O   0  0  0  0  0  0  0  0  0  0  0  0
   -1.6820    8.9880   -1.0200 C   0  0  0  0  0  0  0  0  0  0  0  0
   -2.6470    8.1830   -1.8320 C   0  0  0  0  0  0  0  0  0  0  0  0
   -2.2740    9.9350   -0.0230 C   0  0  0  0  0  0  0  0  0  0  0  0
    0.8420   12.1160   -3.3300 C   0  0  1  0  0  0  0  0  0  0  0  0
   -0.6630   12.0470   -2.9590 C   0  0  0  0  0  0  0  0  0  0  0  0
   -0.8760   13.0180   -1.7690 C   0  0  0  0  0  0  0  0  0  0  0  0
    0.4240   13.8540   -1.7110 C   0  0  1  0  0  0  0  0  0  0  0  0
    0.2430   14.9530   -2.8040 C   0  0  0  0  0  0  0  0  0  0  0  0
    0.7850   14.4750   -0.3220 C   0  0  2  0  0  0  0  0  0  0  0  0
   -0.2350   15.4900    0.2240 C   0  0  0  0  0  0  0  0  0  0  0  0
    0.0120   16.9110   -0.1610 C   0  0  0  0  0  0  0  0  0  0  0  0
    1.1590   17.3950   -0.6720 C   0  0  0  0  0  0  0  0  0  0  0  0
    2.3950   16.4990   -0.8190 C   0  0  1  0  0  0  0  0  0  0  0  0
    3.6440   17.2480   -0.2840 C   0  0  0  0  0  0  0  0  0  0  0  0
    3.8320   18.6140   -0.9380 C   0  0  0  0  0  0  0  0  0  0  0  0
    2.6060   19.4960   -0.7200 C   0  0  2  0  0  0  0  0  0  0  0  0
    2.5010   19.8030    0.6740 O   0  0  0  0  0  0  0  0  0  0  0  0
    1.2840   18.8410   -1.2110 C   0  0  0  0  0  0  0  0  0  0  0  0
    1.2760   18.7850   -2.7590 C   0  0  0  0  0  0  0  0  0  0  0  0
    0.1100   19.7720   -0.8050 C   0  0  0  0  0  0  0  0  0  0  0  0
    2.2630   15.0310   -0.2250 C   0  0  1  0  0  0  0  0  0  0  0  0
    2.6390   15.0340    1.2880 C   0  0  0  0  0  0  0  0  0  0  0  0
    3.3040   14.0910   -0.9400 C   0  0  0  0  0  0  0  0  0  0  0  0
    2.8460   13.4130   -2.2450 C   0  0  0  0  0  0  0  0  0  0  0  0
    1.4800   12.7450   -2.0660 C   0  0  2  0  0  0  0  0  0  0  0  0
    1.6360   11.6190   -0.9880 C   0  0  0  0  0  0  0  0  0  0  0  0
    3.1772   11.2003   -4.9454 H   0  0  0  0  0  0  0  0  0  0  0  0
    2.0663   10.0122   -5.7077 H   0  0  0  0  0  0  0  0  0  0  0  0
    1.6498   11.7595   -5.7077 H   0  0  0  0  0  0  0  0  0  0  0  0
    2.1236   10.3974   -3.0685 H   0  0  0  0  0  0  0  0  0  0  0  0
   -0.7060   10.2741   -3.8357 H   0  0  0  0  0  0  0  0  0  0  0  0
    0.3820    9.2047   -4.8434 H   0  0  0  0  0  0  0  0  0  0  0  0
   -0.3174    7.8236   -3.0885 H   0  0  0  0  0  0  0  0  0  0  0  0
    1.3349    8.3989   -2.6125 H   0  0  0  0  0  0  0  0  0  0  0  0
    0.3403   10.1437   -1.5933 H   0  0  0  0  0  0  0  0  0  0  0  0
   -3.3157    7.6252   -1.1599 H   0  0  0  0  0  0  0  0  0  0  0  0
   -3.2427    8.8557   -2.4665 H   0  0  0  0  0  0  0  0  0  0  0  0
   -2.0921    7.4763   -2.4665 H   0  0  0  0  0  0  0  0  0  0  0  0
   -2.0529    9.5813    0.9948 H   0  0  0  0  0  0  0  0  0  0  0  0
   -1.8405   10.9359   -0.1656 H   0  0  0  0  0  0  0  0  0  0  0  0
   -3.3636    9.9837   -0.1656 H   0  0  0  0  0  0  0  0  0  0  0  0
    1.0744   12.7290   -4.2133 H   0  0  0  0  0  0  0  0  0  0  0  0
   -1.2789   12.3574   -3.8159 H   0  0  0  0  0  0  0  0  0  0  0  0
   -0.9564   11.0217   -2.6893 H   0  0  0  0  0  0  0  0  0  0  0  0
   -1.7469   13.6659   -1.9474 H   0  0  0  0  0  0  0  0  0  0  0  0
   -1.0727   12.4862   -0.8264 H   0  0  0  0  0  0  0  0  0  0  0  0
    0.0824   15.9280   -2.3206 H   0  0  0  0  0  0  0  0  0  0  0  0
    1.1457   14.9988   -3.4309 H   0  0  0  0  0  0  0  0  0  0  0  0
   -0.6267   14.7069   -3.4309 H   0  0  0  0  0  0  0  0  0  0  0  0
    0.7274   13.6043    0.3478 H   0  0  0  0  0  0  0  0  0  0  0  0
   -1.2304   15.2051   -0.1475 H   0  0  0  0  0  0  0  0  0  0  0  0
   -0.1465   15.4514    1.3198 H   0  0  0  0  0  0  0  0  0  0  0  0
   -0.8137   17.6229   -0.0146 H   0  0  0  0  0  0  0  0  0  0  0  0
    2.5061   16.3095   -1.8968 H   0  0  0  0  0  0  0  0  0  0  0  0
    3.5326   17.3890    0.8012 H   0  0  0  0  0  0  0  0  0  0  0  0
    4.5274   16.6383   -0.5245 H   0  0  0  0  0  0  0  0  0  0  0  0
    4.7121   19.1057   -0.4981 H   0  0  0  0  0  0  0  0  0  0  0  0
    3.9728   18.4693   -2.0193 H   0  0  0  0  0  0  0  0  0  0  0  0
    2.7456   20.4080   -1.3189 H   0  0  0  0  0  0  0  0  0  0  0  0
    3.2870   19.4390    1.1150 H   0  0  0  0  0  0  0  0  0  0  0  0
    1.1275   17.7458   -3.0875 H   0  0  0  0  0  0  0  0  0  0  0  0
    0.4583   19.4118   -3.1444 H   0  0  0  0  0  0  0  0  0  0  0  0
    2.2365   19.1577   -3.1444 H   0  0  0  0  0  0  0  0  0  0  0  0
    0.0452   19.8234    0.2919 H   0  0  0  0  0  0  0  0  0  0  0  0
    0.2845   20.7799   -1.2096 H   0  0  0  0  0  0  0  0  0  0  0  0
   -0.8316   19.3724   -1.2096 H   0  0  0  0  0  0  0  0  0  0  0  0
    1.7210   15.0267    1.8940 H   0  0  0  0  0  0  0  0  0  0  0  0
    3.2378   14.1406    1.5188 H   0  0  0  0  0  0  0  0  0  0  0  0
    3.2235   15.9368    1.5188 H   0  0  0  0  0  0  0  0  0  0  0  0
    4.1929   14.6956   -1.1733 H   0  0  0  0  0  0  0  0  0  0  0  0
    3.4797   13.2663   -0.2336 H   0  0  0  0  0  0  0  0  0  0  0  0
    2.7743   14.1714   -3.0385 H   0  0  0  0  0  0  0  0  0  0  0  0
    3.5811   12.6407   -2.5154 H   0  0  0  0  0  0  0  0  0  0  0  0
    1.5746   12.0623    0.0168 H   0  0  0  0  0  0  0  0  0  0  0  0
    0.8318   10.8788   -1.1120 H   0  0  0  0  0  0  0  0  0  0  0  0
    2.6111   11.1253   -1.1120 H   0  0  0  0  0  0  0  0  0  0  0  0
  1  2  1  0
  2  3  1  0
  3  4  1  0
  4  5  1  0
  5  6  1  0
  6  7  1  0
  7  8  1  0
  7  9  1  0
  2 10  1  0
 10 11  1  0
 11 12  1  0
 12 13  1  0
 13 14  1  6
 13 15  1  0
 15 16  1  0
 16 17  1  0
 17 18  2  0
 18 19  1  0
 19 20  1  0
 20 21  1  0
 21 22  1  0
 22 23  1  0
 22 24  1  0
 24 25  1  0
 24 26  1  0
 19 27  1  0
 27 28  1  1
 27 29  1  0
 29 30  1  0
 30 31  1  0
 31 32  1  1
  7  5  1  0
 31 10  1  0
 31 13  1  0
 27 15  1  0
 24 18  1  0
  1 33  1  0
  1 34  1  0
  1 35  1  0
  2 36  1  1
  3 37  1  0
  3 38  1  0
  4 39  1  0
  4 40  1  0
  5 41  1  1
  8 42  1  0
  8 43  1  0
  8 44  1  0
  9 45  1  0
  9 46  1  0
  9 47  1  0
 10 48  1  6
 11 49  1  0
 11 50  1  0
 12 51  1  0
 12 52  1  0
 14 53  1  0
 14 54  1  0
 14 55  1  0
 15 56  1  1
 16 57  1  0
 16 58  1  0
 17 59  1  0
 19 60  1  6
 20 61  1  0
 20 62  1  0
 21 63  1  0
 21 64  1  0
 22 65  1  6
 23 66  1  0
 25 67  1  0
 25 68  1  0
 25 69  1  0
 26 70  1  0
 26 71  1  0
 26 72  1  0
 28 73  1  0
 28 74  1  0
 28 75  1  0
 29 76  1  0
 29 77  1  0
 30 78  1  0
 30 79  1  0
 32 80  1  0
 32 81  1  0
 32 82  1  0
M  END
>  <meeko>  (18) 
{"is_sidechain": [false], "intermolecular_energy": 2.731, "internal_energy": -0.839}

$$$$
EPH_relaxed_0001_pdb2pqr_Repair_283_r2_0001_out
     RDKit          3D

 82 86  0  0  0  0  0  0  0  0999 V2000
    0.9500   14.8840   -2.6320 C   0  0  0  0  0  0  0  0  0  0  0  0
    1.2040   14.2090   -3.9830 C   0  0  2  0  0  0  0  0  0  0  0  0
    0.4970   14.9420   -5.1400 C   0  0  0  0  0  0  0  0  0  0  0  0
    1.0650   14.6040   -6.5220 C   0  0  0  0  0  0  0  0  0  0  0  0
    0.8350   15.7140   -7.5020 C   0  0  2  0  0  0  0  0  0  0  0  0
    0.3860   15.2880   -8.7950 O   0  0  0  0  0  0  0  0  0  0  0  0
    1.6770   15.9170   -8.7480 C   0  0  0  0  0  0  0  0  0  0  0  0
    2.8120   15.0010   -9.0800 C   0  0  0  0  0  0  0  0  0  0  0  0
    1.7080   17.2750   -9.3770 C   0  0  0  0  0  0  0  0  0  0  0  0
    0.7480   12.7560   -3.9310 C   0  0  1  0  0  0  0  0  0  0  0  0
    1.8770   11.7620   -4.3160 C   0  0  0  0  0  0  0  0  0  0  0  0
    1.6740   10.4960   -3.4450 C   0  0  0  0  0  0  0  0  0  0  0  0
    0.2620   10.6630   -2.8370 C   0  0  1  0  0  0  0  0  0  0  0  0
   -0.7170   10.1990   -3.9610 C   0  0  0  0  0  0  0  0  0  0  0  0
   -0.0060    9.9100   -1.4930 C   0  0  2  0  0  0  0  0  0  0  0  0
    0.0940    8.3770   -1.5730 C   0  0  0  0  0  0  0  0  0  0  0  0
   -1.1810    7.6710   -1.8960 C   0  0  0  0  0  0  0  0  0  0  0  0
   -2.4120    8.2120   -1.8340 C   0  0  0  0  0  0  0  0  0  0  0  0
   -2.6200    9.6390   -1.3100 C   0  0  1  0  0  0  0  0  0  0  0  0
   -3.7990    9.6540   -0.3020 C   0  0  0  0  0  0  0  0  0  0  0  0
   -5.0750    9.0550   -0.8850 C   0  0  0  0  0  0  0  0  0  0  0  0
   -4.8440    7.6170   -1.3410 C   0  0  2  0  0  0  0  0  0  0  0  0
   -4.5870    6.8050   -0.1910 O   0  0  0  0  0  0  0  0  0  0  0  0
   -3.6720    7.4760   -2.3530 C   0  0  0  0  0  0  0  0  0  0  0  0
   -4.0770    8.1030   -3.7100 C   0  0  0  0  0  0  0  0  0  0  0  0
   -3.4540    5.9630   -2.6220 C   0  0  0  0  0  0  0  0  0  0  0  0
   -1.3240   10.3660   -0.7450 C   0  0  1  0  0  0  0  0  0  0  0  0
   -1.1280   10.0090    0.7600 C   0  0  0  0  0  0  0  0  0  0  0  0
   -1.5400   11.9240   -0.8090 C   0  0  0  0  0  0  0  0  0  0  0  0
   -1.1450   12.6270   -2.1210 C   0  0  0  0  0  0  0  0  0  0  0  0
    0.2610   12.2110   -2.5650 C   0  0  2  0  0  0  0  0  0  0  0  0
    1.2700   12.6840   -1.4640 C   0  0  0  0  0  0  0  0  0  0  0  0
    1.2114   14.1893   -1.8201 H   0  0  0  0  0  0  0  0  0  0  0  0
    1.5687   15.7901   -2.5527 H   0  0  0  0  0  0  0  0  0  0  0  0
   -0.1125   15.1574   -2.5527 H   0  0  0  0  0  0  0  0  0  0  0  0
    2.2859   14.2526   -4.1770 H   0  0  0  0  0  0  0  0  0  0  0  0
   -0.5681   14.6674   -5.1257 H   0  0  0  0  0  0  0  0  0  0  0  0
    0.6551   16.0191   -4.9823 H   0  0  0  0  0  0  0  0  0  0  0  0
    2.1470   14.4284   -6.4296 H   0  0  0  0  0  0  0  0  0  0  0  0
    0.5504   13.7058   -6.8941 H   0  0  0  0  0  0  0  0  0  0  0  0
    0.5362   16.3976   -6.6937 H   0  0  0  0  0  0  0  0  0  0  0  0
    3.2693   14.6319   -8.1502 H   0  0  0  0  0  0  0  0  0  0  0  0
    2.4366   14.1498   -9.6670 H   0  0  0  0  0  0  0  0  0  0  0  0
    3.5647   15.5477   -9.6670 H   0  0  0  0  0  0  0  0  0  0  0  0
    1.7255   18.0433   -8.5900 H   0  0  0  0  0  0  0  0  0  0  0  0
    2.6085   17.3693  -10.0016 H   0  0  0  0  0  0  0  0  0  0  0  0
    0.8127   17.4103  -10.0016 H   0  0  0  0  0  0  0  0  0  0  0  0
   -0.0927   12.8013   -4.6390 H   0  0  0  0  0  0  0  0  0  0  0  0
    1.8064   11.5032   -5.3828 H   0  0  0  0  0  0  0  0  0  0  0  0
    2.8690   12.2050   -4.1440 H   0  0  0  0  0  0  0  0  0  0  0  0
    1.7258    9.5873   -4.0627 H   0  0  0  0  0  0  0  0  0  0  0  0
    2.4508   10.3917   -2.6732 H   0  0  0  0  0  0  0  0  0  0  0  0
   -1.6217    9.7702   -3.5053 H   0  0  0  0  0  0  0  0  0  0  0  0
   -0.9942   11.0615   -4.5849 H   0  0  0  0  0  0  0  0  0  0  0  0
   -0.2249    9.4383   -4.5849 H   0  0  0  0  0  0  0  0  0  0  0  0
    0.8411   10.2322   -0.8697 H   0  0  0  0  0  0  0  0  0  0  0  0
    0.8290    8.1245   -2.3514 H   0  0  0  0  0  0  0  0  0  0  0  0
    0.3834    8.0380   -0.5674 H   0  0  0  0  0  0  0  0  0  0  0  0
   -1.1084    6.6197   -2.2114 H   0  0  0  0  0  0  0  0  0  0  0  0
   -2.8723   10.2517   -2.1881 H   0  0  0  0  0  0  0  0  0  0  0  0
   -3.5107    9.0730    0.5864 H   0  0  0  0  0  0  0  0  0  0  0  0
   -4.0084   10.7038   -0.0489 H   0  0  0  0  0  0  0  0  0  0  0  0
   -5.8620    9.0669   -0.1165 H   0  0  0  0  0  0  0  0  0  0  0  0
   -5.3783    9.6549   -1.7557 H   0  0  0  0  0  0  0  0  0  0  0  0
   -5.7527    7.2868   -1.8657 H   0  0  0  0  0  0  0  0  0  0  0  0
   -4.4090    5.9010   -0.5030 H   0  0  0  0  0  0  0  0  0  0  0  0
   -4.6659    9.0147   -3.5314 H   0  0  0  0  0  0  0  0  0  0  0  0
   -3.1719    8.3571   -4.2812 H   0  0  0  0  0  0  0  0  0  0  0  0
   -4.6808    7.3825   -4.2812 H   0  0  0  0  0  0  0  0  0  0  0  0
   -3.3769    5.4277   -1.6642 H   0  0  0  0  0  0  0  0  0  0  0  0
   -4.3043    5.5664   -3.1962 H   0  0  0  0  0  0  0  0  0  0  0  0
   -2.5264    5.8226   -3.1962 H   0  0  0  0  0  0  0  0  0  0  0  0
   -1.5637   10.8026    1.3848 H   0  0  0  0  0  0  0  0  0  0  0  0
   -1.6283    9.0540    0.9785 H   0  0  0  0  0  0  0  0  0  0  0  0
   -0.0537    9.9185    0.9785 H   0  0  0  0  0  0  0  0  0  0  0  0
   -2.6086   12.1191   -0.6357 H   0  0  0  0  0  0  0  0  0  0  0  0
   -0.8655   12.3394   -0.0458 H   0  0  0  0  0  0  0  0  0  0  0  0
   -1.8656   12.3545   -2.9062 H   0  0  0  0  0  0  0  0  0  0  0  0
   -1.1519   13.7139   -1.9520 H   0  0  0  0  0  0  0  0  0  0  0  0
    0.8462   12.4853   -0.4686 H   0  0  0  0  0  0  0  0  0  0  0  0
    2.2174   12.1362   -1.5752 H   0  0  0  0  0  0  0  0  0  0  0  0
    1.4549   13.7626   -1.5752 H   0  0  0  0  0  0  0  0  0  0  0  0
  1  2  1  0
  2  3  1  0
  3  4  1  0
  4  5  1  0
  5  6  1  0
  6  7  1  0
  7  8  1  0
  7  9  1  0
  2 10  1  0
 10 11  1  0
 11 12  1  0
 12 13  1  0
 13 14  1  6
 13 15  1  0
 15 16  1  0
 16 17  1  0
 17 18  2  0
 18 19  1  0
 19 20  1  0
 20 21  1  0
 21 22  1  0
 22 23  1  0
 22 24  1  0
 24 25  1  0
 24 26  1  0
 19 27  1  0
 27 28  1  1
 27 29  1  0
 29 30  1  0
 30 31  1  0
 31 32  1  1
  7  5  1  0
 31 10  1  0
 31 13  1  0
 27 15  1  0
 24 18  1  0
  1 33  1  0
  1 34  1  0
  1 35  1  0
  2 36  1  6
  3 37  1  0
  3 38  1  0
  4 39  1  0
  4 40  1  0
  5 41  1  1
  8 42  1  0
  8 43  1  0
  8 44  1  0
  9 45  1  0
  9 46  1  0
  9 47  1  0
 10 48  1  6
 11 49  1  0
 11 50  1  0
 12 51  1  0
 12 52  1  0
 14 53  1  0
 14 54  1  0
 14 55  1  0
 15 56  1  1
 16 57  1  0
 16 58  1  0
 17 59  1  0
 19 60  1  6
 20 61  1  0
 20 62  1  0
 21 63  1  0
 21 64  1  0
 22 65  1  6
 23 66  1  0
 25 67  1  0
 25 68  1  0
 25 69  1  0
 26 70  1  0
 26 71  1  0
 26 72  1  0
 28 73  1  0
 28 74  1  0
 28 75  1  0
 29 76  1  0
 29 77  1  0
 30 78  1  0
 30 79  1  0
 32 80  1  0
 32 81  1  0
 32 82  1  0
M  END
>  <meeko>  (19) 
{"is_sidechain": [false], "intermolecular_energy": 2.731, "internal_energy": -0.839}

$$$$
EPH_relaxed_0001_pdb2pqr_Repair_283_r2_0001_out
     RDKit          3D

 82 86  0  0  0  0  0  0  0  0999 V2000
    1.2000   19.0230   -2.5100 C   0  0  0  0  0  0  0  0  0  0  0  0
    0.7680   18.0820   -1.3820 C   0  0  2  0  0  0  0  0  0  0  0  0
    1.3910   18.4750   -0.0270 C   0  0  0  0  0  0  0  0  0  0  0  0
    2.7300   19.2060   -0.1550 C   0  0  0  0  0  0  0  0  0  0  0  0
    3.1030   19.9060    1.1170 C   0  0  2  0  0  0  0  0  0  0  0  0
    4.5020   20.1860    1.2590 O   0  0  0  0  0  0  0  0  0  0  0  0
    3.9400   19.2670    2.2100 C   0  0  0  0  0  0  0  0  0  0  0  0
    4.4540   17.8680    2.0810 C   0  0  0  0  0  0  0  0  0  0  0  0
    3.8460   19.8190    3.5980 C   0  0  0  0  0  0  0  0  0  0  0  0
    1.1420   16.6460   -1.7300 C   0  0  1  0  0  0  0  0  0  0  0  0
    2.6320   16.4990   -2.1400 C   0  0  0  0  0  0  0  0  0  0  0  0
    3.1050   15.1190   -1.6180 C   0  0  0  0  0  0  0  0  0  0  0  0
    1.8030   14.3830   -1.2240 C   0  0  1  0  0  0  0  0  0  0  0  0
    1.2370   13.8220   -2.5660 C   0  0  0  0  0  0  0  0  0  0  0  0
    1.9420   13.2620   -0.1430 C   0  0  2  0  0  0  0  0  0  0  0  0
    2.8330   12.0740   -0.5470 C   0  0  0  0  0  0  0  0  0  0  0  0
    2.1250   10.9460   -1.2210 C   0  0  0  0  0  0  0  0  0  0  0  0
    0.7920   10.7580   -1.2390 C   0  0  0  0  0  0  0  0  0  0  0  0
   -0.1440   11.6830   -0.4510 C   0  0  1  0  0  0  0  0  0  0  0  0
   -1.1770   10.8290    0.3310 C   0  0  0  0  0  0  0  0  0  0  0  0
   -1.9360    9.8600   -0.5690 C   0  0  0  0  0  0  0  0  0  0  0  0
   -0.9750    8.9190   -1.2910 C   0  0  2  0  0  0  0  0  0  0  0  0
   -0.3550    8.0640   -0.3260 O   0  0  0  0  0  0  0  0  0  0  0  0
    0.1170    9.6670   -2.1060 C   0  0  0  0  0  0  0  0  0  0  0  0
   -0.5280   10.3520   -3.3350 C   0  0  0  0  0  0  0  0  0  0  0  0
    1.1030    8.6060   -2.6670 C   0  0  0  0  0  0  0  0  0  0  0  0
    0.5650   12.7720    0.4640 C   0  0  1  0  0  0  0  0  0  0  0  0
    0.8870   12.1640    1.8630 C   0  0  0  0  0  0  0  0  0  0  0  0
   -0.4340   13.9620    0.7160 C   0  0  0  0  0  0  0  0  0  0  0  0
   -0.4400   15.0970   -0.3250 C   0  0  0  0  0  0  0  0  0  0  0  0
    0.9840   15.5800   -0.6170 C   0  0  2  0  0  0  0  0  0  0  0  0
    1.5710   16.1700    0.7100 C   0  0  0  0  0  0  0  0  0  0  0  0
    1.6222   19.9427   -2.0788 H   0  0  0  0  0  0  0  0  0  0  0  0
    1.9603   18.5264   -3.1308 H   0  0  0  0  0  0  0  0  0  0  0  0
    0.3278   19.2759   -3.1308 H   0  0  0  0  0  0  0  0  0  0  0  0
   -0.3240   18.1673   -1.2807 H   0  0  0  0  0  0  0  0  0  0  0  0
    0.6855   19.1325    0.5021 H   0  0  0  0  0  0  0  0  0  0  0  0
    1.5853   17.5411    0.5208 H   0  0  0  0  0  0  0  0  0  0  0  0
    3.5134   18.4744   -0.4023 H   0  0  0  0  0  0  0  0  0  0  0  0
    2.6333   19.9628   -0.9474 H   0  0  0  0  0  0  0  0  0  0  0  0
    2.1361   20.4299    1.1392 H   0  0  0  0  0  0  0  0  0  0  0  0
    4.6108   17.4412    3.0826 H   0  0  0  0  0  0  0  0  0  0  0  0
    3.7215   17.2573    1.5328 H   0  0  0  0  0  0  0  0  0  0  0  0
    5.4076   17.8768    1.5328 H   0  0  0  0  0  0  0  0  0  0  0  0
    3.9844   19.0061    4.3260 H   0  0  0  0  0  0  0  0  0  0  0  0
    4.6276   20.5791    3.7440 H   0  0  0  0  0  0  0  0  0  0  0  0
    2.8568   20.2775    3.7440 H   0  0  0  0  0  0  0  0  0  0  0  0
    0.4182   16.4577   -2.5367 H   0  0  0  0  0  0  0  0  0  0  0  0
    2.7299   16.5438   -3.2347 H   0  0  0  0  0  0  0  0  0  0  0  0
    3.2404   17.3114   -1.7160 H   0  0  0  0  0  0  0  0  0  0  0  0
    3.6391   14.5681   -2.4062 H   0  0  0  0  0  0  0  0  0  0  0  0
    3.8043   15.2100   -0.7738 H   0  0  0  0  0  0  0  0  0  0  0  0
    0.4707   13.0625   -2.3517 H   0  0  0  0  0  0  0  0  0  0  0  0
    0.7884   14.6420   -3.1460 H   0  0  0  0  0  0  0  0  0  0  0  0
    2.0530   13.3662   -3.1460 H   0  0  0  0  0  0  0  0  0  0  0  0
    2.4805   13.7786    0.6652 H   0  0  0  0  0  0  0  0  0  0  0  0
    3.6072   12.4478   -1.2332 H   0  0  0  0  0  0  0  0  0  0  0  0
    3.2360   11.6634    0.3905 H   0  0  0  0  0  0  0  0  0  0  0  0
    2.7449   10.2055   -1.7477 H   0  0  0  0  0  0  0  0  0  0  0  0
   -0.6605   12.3021   -1.1993 H   0  0  0  0  0  0  0  0  0  0  0  0
   -0.6457   10.2516    1.1019 H   0  0  0  0  0  0  0  0  0  0  0  0
   -1.9114   11.5173    0.7748 H   0  0  0  0  0  0  0  0  0  0  0  0
   -2.6284    9.2656    0.0451 H   0  0  0  0  0  0  0  0  0  0  0  0
   -2.4903   10.4405   -1.3212 H   0  0  0  0  0  0  0  0  0  0  0  0
   -1.5638    8.3376   -2.0157 H   0  0  0  0  0  0  0  0  0  0  0  0
    0.1420    8.6280    0.2900 H   0  0  0  0  0  0  0  0  0  0  0  0
   -1.2453   11.1138   -2.9957 H   0  0  0  0  0  0  0  0  0  0  0  0
    0.2554   10.8302   -3.9414 H   0  0  0  0  0  0  0  0  0  0  0  0
   -1.0524    9.5988   -3.9414 H   0  0  0  0  0  0  0  0  0  0  0  0
    1.5907    8.0812   -1.8323 H   0  0  0  0  0  0  0  0  0  0  0  0
    0.5504    7.8813   -3.2830 H   0  0  0  0  0  0  0  0  0  0  0  0
    1.8662    9.1041   -3.2830 H   0  0  0  0  0  0  0  0  0  0  0  0
    0.5272   12.8434    2.6497 H   0  0  0  0  0  0  0  0  0  0  0  0
    0.3868   11.1894    1.9632 H   0  0  0  0  0  0  0  0  0  0  0  0
    1.9742   12.0301    1.9632 H   0  0  0  0  0  0  0  0  0  0  0  0
   -1.4496   13.5411    0.7551 H   0  0  0  0  0  0  0  0  0  0  0  0
   -0.0926   14.4310    1.6506 H   0  0  0  0  0  0  0  0  0  0  0  0
   -0.8932   14.7282   -1.2570 H   0  0  0  0  0  0  0  0  0  0  0  0
   -1.0207   15.9398    0.0780 H   0  0  0  0  0  0  0  0  0  0  0  0
    1.0887   15.6853    1.5717 H   0  0  0  0  0  0  0  0  0  0  0  0
    2.6549   15.9861    0.7451 H   0  0  0  0  0  0  0  0  0  0  0  0
    1.3815   17.2530    0.7451 H   0  0  0  0  0  0  0  0  0  0  0  0
  1  2  1  0
  2  3  1  0
  3  4  1  0
  4  5  1  0
  5  6  1  0
  6  7  1  0
  7  8  1  0
  7  9  1  0
  2 10  1  0
 10 11  1  0
 11 12  1  0
 12 13  1  0
 13 14  1  6
 13 15  1  0
 15 16  1  0
 16 17  1  0
 17 18  2  0
 18 19  1  0
 19 20  1  0
 20 21  1  0
 21 22  1  0
 22 23  1  0
 22 24  1  0
 24 25  1  0
 24 26  1  0
 19 27  1  0
 27 28  1  1
 27 29  1  0
 29 30  1  0
 30 31  1  0
 31 32  1  1
  7  5  1  0
 31 10  1  0
 31 13  1  0
 27 15  1  0
 24 18  1  0
  1 33  1  0
  1 34  1  0
  1 35  1  0
  2 36  1  1
  3 37  1  0
  3 38  1  0
  4 39  1  0
  4 40  1  0
  5 41  1  1
  8 42  1  0
  8 43  1  0
  8 44  1  0
  9 45  1  0
  9 46  1  0
  9 47  1  0
 10 48  1  6
 11 49  1  0
 11 50  1  0
 12 51  1  0
 12 52  1  0
 14 53  1  0
 14 54  1  0
 14 55  1  0
 15 56  1  1
 16 57  1  0
 16 58  1  0
 17 59  1  0
 19 60  1  6
 20 61  1  0
 20 62  1  0
 21 63  1  0
 21 64  1  0
 22 65  1  6
 23 66  1  0
 25 67  1  0
 25 68  1  0
 25 69  1  0
 26 70  1  0
 26 71  1  0
 26 72  1  0
 28 73  1  0
 28 74  1  0
 28 75  1  0
 29 76  1  0
 29 77  1  0
 30 78  1  0
 30 79  1  0
 32 80  1  0
 32 81  1  0
 32 82  1  0
M  END
>  <meeko>  (20) 
{"is_sidechain": [false], "intermolecular_energy": 2.731, "internal_energy": -0.839}

$$$$
