EPH_relaxed_0001_pdb2pqr_Repair_206_r2_0001_out
     RDKit          3D

 82 86  0  0  0  0  0  0  0  0999 V2000
   -1.5580    8.4850   -1.7440 C   0  0  0  0  0  0  0  0  0  0  0  0
   -1.9710    9.1080   -0.4080 C   0  0  2  0  0  0  0  0  0  0  0  0
   -3.4530    9.5340   -0.4000 C   0  0  0  0  0  0  0  0  0  0  0  0
   -4.4300    8.3620   -0.2710 C   0  0  0  0  0  0  0  0  0  0  0  0
   -5.0900    8.0440   -1.5790 C   0  0  2  0  0  0  0  0  0  0  0  0
   -6.3360    8.7170   -1.8000 O   0  0  0  0  0  0  0  0  0  0  0  0
   -6.3980    7.2850   -1.6930 C   0  0  0  0  0  0  0  0  0  0  0  0
   -7.1250    6.7960   -0.4800 C   0  0  0  0  0  0  0  0  0  0  0  0
   -6.7170    6.5980   -2.9840 C   0  0  0  0  0  0  0  0  0  0  0  0
   -1.0830   10.3070   -0.0970 C   0  0  1  0  0  0  0  0  0  0  0  0
    0.0390    9.9710    0.9210 C   0  0  0  0  0  0  0  0  0  0  0  0
    1.2790   10.8080    0.5130 C   0  0  0  0  0  0  0  0  0  0  0  0
    0.7370   11.8350   -0.5090 C   0  0  1  0  0  0  0  0  0  0  0  0
    0.1010   12.9670    0.3580 C   0  0  0  0  0  0  0  0  0  0  0  0
    1.7730   12.4040   -1.5310 C   0  0  2  0  0  0  0  0  0  0  0  0
    2.9330   13.2010   -0.9100 C   0  0  0  0  0  0  0  0  0  0  0  0
    2.6930   14.6680   -0.7640 C   0  0  0  0  0  0  0  0  0  0  0  0
    1.7150   15.3650   -1.3720 C   0  0  0  0  0  0  0  0  0  0  0  0
    0.7810   14.6910   -2.3850 C   0  0  1  0  0  0  0  0  0  0  0  0
    0.6470   15.5890   -3.6420 C   0  0  0  0  0  0  0  0  0  0  0  0
    0.2100   17.0110   -3.3020 C   0  0  0  0  0  0  0  0  0  0  0  0
    1.1940   17.6680   -2.3370 C   0  0  2  0  0  0  0  0  0  0  0  0
    2.4430   17.8530   -3.0100 O   0  0  0  0  0  0  0  0  0  0  0  0
    1.4180   16.8470   -1.0370 C   0  0  0  0  0  0  0  0  0  0  0  0
    0.1410   16.9010   -0.1610 C   0  0  0  0  0  0  0  0  0  0  0  0
    2.5360   17.5460   -0.2170 C   0  0  0  0  0  0  0  0  0  0  0  0
    1.1240   13.1820   -2.7470 C   0  0  1  0  0  0  0  0  0  0  0  0
    2.1620   13.1360   -3.9100 C   0  0  0  0  0  0  0  0  0  0  0  0
   -0.1760   12.4740   -3.2850 C   0  0  0  0  0  0  0  0  0  0  0  0
   -1.0990   11.8260   -2.2350 C   0  0  0  0  0  0  0  0  0  0  0  0
   -0.3000   10.9370   -1.2770 C   0  0  2  0  0  0  0  0  0  0  0  0
    0.3330    9.7760   -2.1170 C   0  0  0  0  0  0  0  0  0  0  0  0
   -0.9590    7.5814   -1.5576 H   0  0  0  0  0  0  0  0  0  0  0  0
   -2.4577    8.2167   -2.3172 H   0  0  0  0  0  0  0  0  0  0  0  0
   -0.9605    9.2092   -2.3172 H   0  0  0  0  0  0  0  0  0  0  0  0
   -1.8438    8.3398    0.3690 H   0  0  0  0  0  0  0  0  0  0  0  0
   -3.6139   10.2152    0.4486 H   0  0  0  0  0  0  0  0  0  0  0  0
   -3.6543   10.0150   -1.3686 H   0  0  0  0  0  0  0  0  0  0  0  0
   -3.8791    7.4751    0.0753 H   0  0  0  0  0  0  0  0  0  0  0  0
   -5.2126    8.6454    0.4481 H   0  0  0  0  0  0  0  0  0  0  0  0
   -4.1130    7.9069   -2.0655 H   0  0  0  0  0  0  0  0  0  0  0  0
   -6.6056    7.1454    0.4245 H   0  0  0  0  0  0  0  0  0  0  0  0
   -8.1532    7.1868   -0.4864 H   0  0  0  0  0  0  0  0  0  0  0  0
   -7.1507    5.6963   -0.4864 H   0  0  0  0  0  0  0  0  0  0  0  0
   -7.1719    5.6184   -2.7754 H   0  0  0  0  0  0  0  0  0  0  0  0
   -7.4214    7.2136   -3.5627 H   0  0  0  0  0  0  0  0  0  0  0  0
   -5.7922    6.4571   -3.5627 H   0  0  0  0  0  0  0  0  0  0  0  0
   -1.8450   11.0114    0.2681 H   0  0  0  0  0  0  0  0  0  0  0  0
   -0.2805   10.2389    1.9389 H   0  0  0  0  0  0  0  0  0  0  0  0
    0.2691    8.8954    0.9143 H   0  0  0  0  0  0  0  0  0  0  0  0
    1.7073   11.3194    1.3877 H   0  0  0  0  0  0  0  0  0  0  0  0
    2.0828   10.1856    0.0929 H   0  0  0  0  0  0  0  0  0  0  0  0
    0.2337   12.7308    1.4241 H   0  0  0  0  0  0  0  0  0  0  0  0
    0.5936   13.9238    0.1304 H   0  0  0  0  0  0  0  0  0  0  0  0
   -0.9724   13.0440    0.1304 H   0  0  0  0  0  0  0  0  0  0  0  0
    2.2252   11.4890   -1.9413 H   0  0  0  0  0  0  0  0  0  0  0  0
    3.1322   12.7880    0.0899 H   0  0  0  0  0  0  0  0  0  0  0  0
    3.7791   13.0988   -1.6055 H   0  0  0  0  0  0  0  0  0  0  0  0
    3.3731   15.2261   -0.1037 H   0  0  0  0  0  0  0  0  0  0  0  0
   -0.1948   14.5998   -1.8854 H   0  0  0  0  0  0  0  0  0  0  0  0
    1.6216   15.6317   -4.1502 H   0  0  0  0  0  0  0  0  0  0  0  0
   -0.1271   15.1472   -4.2867 H   0  0  0  0  0  0  0  0  0  0  0  0
    0.1627   17.6041   -4.2272 H   0  0  0  0  0  0  0  0  0  0  0  0
   -0.7785   16.9691   -2.8212 H   0  0  0  0  0  0  0  0  0  0  0  0
    0.7613   18.6311   -2.0284 H   0  0  0  0  0  0  0  0  0  0  0  0
    2.3610   17.4640   -3.8970 H   0  0  0  0  0  0  0  0  0  0  0  0
    0.4246   16.8890    0.9017 H   0  0  0  0  0  0  0  0  0  0  0  0
   -0.4161   17.8235   -0.3814 H   0  0  0  0  0  0  0  0  0  0  0  0
   -0.4920   16.0288   -0.3814 H   0  0  0  0  0  0  0  0  0  0  0  0
    2.3356   17.4207    0.8573 H   0  0  0  0  0  0  0  0  0  0  0  0
    3.5083   17.0947   -0.4637 H   0  0  0  0  0  0  0  0  0  0  0  0
    2.5561   18.6178   -0.4637 H   0  0  0  0  0  0  0  0  0  0  0  0
    3.1787   13.0909   -3.4925 H   0  0  0  0  0  0  0  0  0  0  0  0
    1.9800   12.2450   -4.5289 H   0  0  0  0  0  0  0  0  0  0  0  0
    2.0595   14.0396   -4.5289 H   0  0  0  0  0  0  0  0  0  0  0  0
   -0.7659   13.2282   -3.8265 H   0  0  0  0  0  0  0  0  0  0  0  0
    0.1857   11.6400   -3.9044 H   0  0  0  0  0  0  0  0  0  0  0  0
   -1.5996   12.6177   -1.6583 H   0  0  0  0  0  0  0  0  0  0  0  0
   -1.8401   11.2025   -2.7565 H   0  0  0  0  0  0  0  0  0  0  0  0
    0.7473    9.0160   -1.4382 H   0  0  0  0  0  0  0  0  0  0  0  0
   -0.4405    9.3184   -2.7513 H   0  0  0  0  0  0  0  0  0  0  0  0
    1.1366   10.1783   -2.7513 H   0  0  0  0  0  0  0  0  0  0  0  0
  1  2  1  0
  2  3  1  0
  3  4  1  0
  4  5  1  0
  5  6  1  0
  6  7  1  0
  7  8  1  0
  7  9  1  0
  2 10  1  0
 10 11  1  0
 11 12  1  0
 12 13  1  0
 13 14  1  1
 13 15  1  0
 15 16  1  0
 16 17  1  0
 17 18  2  0
 18 19  1  0
 19 20  1  0
 20 21  1  0
 21 22  1  0
 22 23  1  0
 22 24  1  0
 24 25  1  0
 24 26  1  0
 19 27  1  0
 27 28  1  6
 27 29  1  0
 29 30  1  0
 30 31  1  0
 31 32  1  6
  7  5  1  0
 31 10  1  0
 31 13  1  0
 27 15  1  0
 24 18  1  0
  1 33  1  0
  1 34  1  0
  1 35  1  0
  2 36  1  1
  3 37  1  0
  3 38  1  0
  4 39  1  0
  4 40  1  0
  5 41  1  6
  8 42  1  0
  8 43  1  0
  8 44  1  0
  9 45  1  0
  9 46  1  0
  9 47  1  0
 10 48  1  1
 11 49  1  0
 11 50  1  0
 12 51  1  0
 12 52  1  0
 14 53  1  0
 14 54  1  0
 14 55  1  0
 15 56  1  6
 16 57  1  0
 16 58  1  0
 17 59  1  0
 19 60  1  1
 20 61  1  0
 20 62  1  0
 21 63  1  0
 21 64  1  0
 22 65  1  1
 23 66  1  0
 25 67  1  0
 25 68  1  0
 25 69  1  0
 26 70  1  0
 26 71  1  0
 26 72  1  0
 28 73  1  0
 28 74  1  0
 28 75  1  0
 29 76  1  0
 29 77  1  0
 30 78  1  0
 30 79  1  0
 32 80  1  0
 32 81  1  0
 32 82  1  0
M  END
>  <meeko>  (1) 
{"is_sidechain": [false], "intermolecular_energy": 2.731, "internal_energy": -0.839}

$$$$
EPH_relaxed_0001_pdb2pqr_Repair_206_r2_0001_out
     RDKit          3D

 82 86  0  0  0  0  0  0  0  0999 V2000
    1.9680   18.5710   -2.3500 C   0  0  0  0  0  0  0  0  0  0  0  0
    0.8260   17.9800   -1.5190 C   0  0  2  0  0  0  0  0  0  0  0  0
    1.1740   17.9160   -0.0180 C   0  0  0  0  0  0  0  0  0  0  0  0
    1.4690   19.2840    0.6040 C   0  0  0  0  0  0  0  0  0  0  0  0
    2.9310   19.4640    0.8790 C   0  0  2  0  0  0  0  0  0  0  0  0
    3.5690   18.3350    1.4900 O   0  0  0  0  0  0  0  0  0  0  0  0
    3.5170   19.5370    2.2760 C   0  0  0  0  0  0  0  0  0  0  0  0
    2.6510   19.4320    3.4920 C   0  0  0  0  0  0  0  0  0  0  0  0
    4.8490   20.1940    2.4600 C   0  0  0  0  0  0  0  0  0  0  0  0
    0.4750   16.5890   -2.0320 C   0  0  1  0  0  0  0  0  0  0  0  0
    0.6660   16.4520   -3.5660 C   0  0  0  0  0  0  0  0  0  0  0  0
    1.1550   15.0050   -3.8290 C   0  0  0  0  0  0  0  0  0  0  0  0
    0.9120   14.2630   -2.4940 C   0  0  1  0  0  0  0  0  0  0  0  0
   -0.6030   13.8890   -2.5120 C   0  0  0  0  0  0  0  0  0  0  0  0
    1.8120   13.0130   -2.2250 C   0  0  2  0  0  0  0  0  0  0  0  0
    1.6440   11.8590   -3.2290 C   0  0  0  0  0  0  0  0  0  0  0  0
    0.6110   10.8440   -2.8680 C   0  0  0  0  0  0  0  0  0  0  0  0
    0.0490   10.6980   -1.6540 C   0  0  0  0  0  0  0  0  0  0  0  0
    0.5170   11.5430   -0.4620 C   0  0  1  0  0  0  0  0  0  0  0  0
    0.7190   10.6290    0.7740 C   0  0  0  0  0  0  0  0  0  0  0  0
   -0.5200    9.8000    1.0980 C   0  0  0  0  0  0  0  0  0  0  0  0
   -0.9200    8.9300   -0.0910 C   0  0  2  0  0  0  0  0  0  0  0  0
    0.0960    7.9440   -0.3030 O   0  0  0  0  0  0  0  0  0  0  0  0
   -1.1420    9.7410   -1.3970 C   0  0  0  0  0  0  0  0  0  0  0  0
   -2.4300   10.5920   -1.2700 C   0  0  0  0  0  0  0  0  0  0  0  0
   -1.4010    8.7320   -2.5480 C   0  0  0  0  0  0  0  0  0  0  0  0
    1.7650   12.4900   -0.7320 C   0  0  1  0  0  0  0  0  0  0  0  0
    3.0900   11.7040   -0.4940 C   0  0  0  0  0  0  0  0  0  0  0  0
    1.7530   13.6670    0.3140 C   0  0  0  0  0  0  0  0  0  0  0  0
    0.9430   14.9230   -0.0620 C   0  0  0  0  0  0  0  0  0  0  0  0
    1.2950   15.3980   -1.4760 C   0  0  2  0  0  0  0  0  0  0  0  0
    2.8080   15.8020   -1.4820 C   0  0  0  0  0  0  0  0  0  0  0  0
    2.7414   18.9713   -1.6780 H   0  0  0  0  0  0  0  0  0  0  0  0
    2.4043   17.7855   -2.9845 H   0  0  0  0  0  0  0  0  0  0  0  0
    1.5787   19.3808   -2.9845 H   0  0  0  0  0  0  0  0  0  0  0  0
   -0.0425   18.6461   -1.6289 H   0  0  0  0  0  0  0  0  0  0  0  0
    0.3239   17.4673    0.5168 H   0  0  0  0  0  0  0  0  0  0  0  0
    2.0914   17.3162    0.0742 H   0  0  0  0  0  0  0  0  0  0  0  0
    1.1374   20.0702   -0.0902 H   0  0  0  0  0  0  0  0  0  0  0  0
    0.9295   19.3494    1.5604 H   0  0  0  0  0  0  0  0  0  0  0  0
    3.0401   20.1143   -0.0015 H   0  0  0  0  0  0  0  0  0  0  0  0
    3.2754   19.5077    4.3945 H   0  0  0  0  0  0  0  0  0  0  0  0
    1.9124   20.2472    3.4877 H   0  0  0  0  0  0  0  0  0  0  0  0
    2.1287   18.4639    3.4877 H   0  0  0  0  0  0  0  0  0  0  0  0
    5.0610   20.2986    3.5343 H   0  0  0  0  0  0  0  0  0  0  0  0
    5.6298   19.5777    1.9905 H   0  0  0  0  0  0  0  0  0  0  0  0
    4.8352   21.1887    1.9905 H   0  0  0  0  0  0  0  0  0  0  0  0
   -0.5672   16.5230   -1.6863 H   0  0  0  0  0  0  0  0  0  0  0  0
   -0.2882   16.6292   -4.0837 H   0  0  0  0  0  0  0  0  0  0  0  0
    1.3924   17.1883   -3.9406 H   0  0  0  0  0  0  0  0  0  0  0  0
    0.5769   14.5413   -4.6419 H   0  0  0  0  0  0  0  0  0  0  0  0
    2.2097   14.9708   -4.1395 H   0  0  0  0  0  0  0  0  0  0  0  0
   -0.9706   13.7983   -1.4792 H   0  0  0  0  0  0  0  0  0  0  0  0
   -1.1684   14.6745   -3.0347 H   0  0  0  0  0  0  0  0  0  0  0  0
   -0.7379   12.9306   -3.0347 H   0  0  0  0  0  0  0  0  0  0  0  0
    2.8236   13.4108   -2.3933 H   0  0  0  0  0  0  0  0  0  0  0  0
    1.3689   12.2925   -4.2019 H   0  0  0  0  0  0  0  0  0  0  0  0
    2.6050   11.3238   -3.2404 H   0  0  0  0  0  0  0  0  0  0  0  0
    0.2812   10.1572   -3.6614 H   0  0  0  0  0  0  0  0  0  0  0  0
   -0.2904   12.2634   -0.2641 H   0  0  0  0  0  0  0  0  0  0  0  0
    1.5577    9.9460    0.5740 H   0  0  0  0  0  0  0  0  0  0  0  0
    0.9220   11.2776    1.6389 H   0  0  0  0  0  0  0  0  0  0  0  0
   -0.3048    9.1531    1.9613 H   0  0  0  0  0  0  0  0  0  0  0  0
   -1.3502   10.4841    1.3278 H   0  0  0  0  0  0  0  0  0  0  0  0
   -1.8844    8.4608    0.1534 H   0  0  0  0  0  0  0  0  0  0  0  0
    0.8310    8.3750   -0.7700 H   0  0  0  0  0  0  0  0  0  0  0  0
   -2.6639   10.7466   -0.2063 H   0  0  0  0  0  0  0  0  0  0  0  0
   -2.2753   11.5662   -1.7567 H   0  0  0  0  0  0  0  0  0  0  0  0
   -3.2655   10.0675   -1.7567 H   0  0  0  0  0  0  0  0  0  0  0  0
   -1.6534    7.7489   -2.1239 H   0  0  0  0  0  0  0  0  0  0  0  0
   -2.2365    9.0894   -3.1678 H   0  0  0  0  0  0  0  0  0  0  0  0
   -0.4966    8.6428   -3.1678 H   0  0  0  0  0  0  0  0  0  0  0  0
    3.2655   11.5999    0.5869 H   0  0  0  0  0  0  0  0  0  0  0  0
    3.0115   10.7063   -0.9505 H   0  0  0  0  0  0  0  0  0  0  0  0
    3.9280   12.2512   -0.9505 H   0  0  0  0  0  0  0  0  0  0  0  0
    1.3386   13.2728    1.2536 H   0  0  0  0  0  0  0  0  0  0  0  0
    2.7974   14.0065    0.3771 H   0  0  0  0  0  0  0  0  0  0  0  0
   -0.1302   14.6857   -0.0186 H   0  0  0  0  0  0  0  0  0  0  0  0
    1.1883   15.7253    0.6494 H   0  0  0  0  0  0  0  0  0  0  0  0
    3.1661   15.8976   -0.4463 H   0  0  0  0  0  0  0  0  0  0  0  0
    3.3920   15.0283   -2.0019 H   0  0  0  0  0  0  0  0  0  0  0  0
    2.9286   16.7638   -2.0019 H   0  0  0  0  0  0  0  0  0  0  0  0
  1  2  1  0
  2  3  1  0
  3  4  1  0
  4  5  1  0
  5  6  1  0
  6  7  1  0
  7  8  1  0
  7  9  1  0
  2 10  1  0
 10 11  1  0
 11 12  1  0
 12 13  1  0
 13 14  1  1
 13 15  1  0
 15 16  1  0
 16 17  1  0
 17 18  2  0
 18 19  1  0
 19 20  1  0
 20 21  1  0
 21 22  1  0
 22 23  1  0
 22 24  1  0
 24 25  1  0
 24 26  1  0
 19 27  1  0
 27 28  1  1
 27 29  1  0
 29 30  1  0
 30 31  1  0
 31 32  1  1
  7  5  1  0
 31 10  1  0
 31 13  1  0
 27 15  1  0
 24 18  1  0
  1 33  1  0
  1 34  1  0
  1 35  1  0
  2 36  1  1
  3 37  1  0
  3 38  1  0
  4 39  1  0
  4 40  1  0
  5 41  1  6
  8 42  1  0
  8 43  1  0
  8 44  1  0
  9 45  1  0
  9 46  1  0
  9 47  1  0
 10 48  1  6
 11 49  1  0
 11 50  1  0
 12 51  1  0
 12 52  1  0
 14 53  1  0
 14 54  1  0
 14 55  1  0
 15 56  1  6
 16 57  1  0
 16 58  1  0
 17 59  1  0
 19 60  1  1
 20 61  1  0
 20 62  1  0
 21 63  1  0
 21 64  1  0
 22 65  1  1
 23 66  1  0
 25 67  1  0
 25 68  1  0
 25 69  1  0
 26 70  1  0
 26 71  1  0
 26 72  1  0
 28 73  1  0
 28 74  1  0
 28 75  1  0
 29 76  1  0
 29 77  1  0
 30 78  1  0
 30 79  1  0
 32 80  1  0
 32 81  1  0
 32 82  1  0
M  END
>  <meeko>  (2) 
{"is_sidechain": [false], "intermolecular_energy": 2.731, "internal_energy": -0.839}

$$$$
EPH_relaxed_0001_pdb2pqr_Repair_206_r2_0001_out
     RDKit          3D

 82 86  0  0  0  0  0  0  0  0999 V2000
    2.1290   18.3920   -2.6630 C   0  0  0  0  0  0  0  0  0  0  0  0
    1.1550   17.7710   -1.6580 C   0  0  2  0  0  0  0  0  0  0  0  0
    1.7650   17.6670   -0.2460 C   0  0  0  0  0  0  0  0  0  0  0  0
    1.2090   18.6970    0.7420 C   0  0  0  0  0  0  0  0  0  0  0  0
    0.1930   19.5910    0.0980 C   0  0  2  0  0  0  0  0  0  0  0  0
   -0.7360   20.1940    1.0070 O   0  0  0  0  0  0  0  0  0  0  0  0
   -1.2900   19.2750    0.0520 C   0  0  0  0  0  0  0  0  0  0  0  0
   -1.8410   18.0240    0.6600 C   0  0  0  0  0  0  0  0  0  0  0  0
   -2.1300   19.9320   -0.9990 C   0  0  0  0  0  0  0  0  0  0  0  0
    0.7200   16.3920   -2.1400 C   0  0  1  0  0  0  0  0  0  0  0  0
    0.8820   16.2170   -3.6740 C   0  0  0  0  0  0  0  0  0  0  0  0
    1.2860   14.7390   -3.9150 C   0  0  0  0  0  0  0  0  0  0  0  0
    1.0210   14.0370   -2.5630 C   0  0  1  0  0  0  0  0  0  0  0  0
   -0.5130   13.7480   -2.5550 C   0  0  0  0  0  0  0  0  0  0  0  0
    1.8530   12.7440   -2.2810 C   0  0  2  0  0  0  0  0  0  0  0  0
    1.6080   11.5830   -3.2610 C   0  0  0  0  0  0  0  0  0  0  0  0
    0.5250   10.6340   -2.8670 C   0  0  0  0  0  0  0  0  0  0  0  0
   -0.0280   10.5420   -1.6430 C   0  0  0  0  0  0  0  0  0  0  0  0
    0.5030   11.3820   -0.4740 C   0  0  1  0  0  0  0  0  0  0  0  0
    0.6710   10.4800    0.7770 C   0  0  0  0  0  0  0  0  0  0  0  0
   -0.6090    9.7280    1.1320 C   0  0  0  0  0  0  0  0  0  0  0  0
   -1.0720    8.8600   -0.0350 C   0  0  2  0  0  0  0  0  0  0  0  0
   -0.1160    7.8150   -0.2410 O   0  0  0  0  0  0  0  0  0  0  0  0
   -1.2660    9.6580   -1.3540 C   0  0  0  0  0  0  0  0  0  0  0  0
   -2.5030   10.5820   -1.2270 C   0  0  0  0  0  0  0  0  0  0  0  0
   -1.5960    8.6440   -2.4820 C   0  0  0  0  0  0  0  0  0  0  0  0
    1.7970   12.2520   -0.7780 C   0  0  1  0  0  0  0  0  0  0  0  0
    3.0800   11.3980   -0.5410 C   0  0  0  0  0  0  0  0  0  0  0  0
    1.8650   13.4470    0.2460 C   0  0  0  0  0  0  0  0  0  0  0  0
    1.1220   14.7390   -0.1450 C   0  0  0  0  0  0  0  0  0  0  0  0
    1.4790   15.1670   -1.5710 C   0  0  2  0  0  0  0  0  0  0  0  0
    3.0130   15.4860   -1.6040 C   0  0  0  0  0  0  0  0  0  0  0  0
    2.9362   18.9067   -2.1213 H   0  0  0  0  0  0  0  0  0  0  0  0
    2.5581   17.6004   -3.2949 H   0  0  0  0  0  0  0  0  0  0  0  0
    1.5924   19.1150   -3.2949 H   0  0  0  0  0  0  0  0  0  0  0  0
    0.2804   18.4349   -1.5916 H   0  0  0  0  0  0  0  0  0  0  0  0
    1.5588   16.6610    0.1482 H   0  0  0  0  0  0  0  0  0  0  0  0
    2.8423   17.8658   -0.3456 H   0  0  0  0  0  0  0  0  0  0  0  0
    0.7359   18.1664    1.5814 H   0  0  0  0  0  0  0  0  0  0  0  0
    2.0438   19.3225    1.0911 H   0  0  0  0  0  0  0  0  0  0  0  0
    0.9101   19.8814   -0.6839 H   0  0  0  0  0  0  0  0  0  0  0  0
   -1.8062   18.1031    1.7566 H   0  0  0  0  0  0  0  0  0  0  0  0
   -2.8829   17.8866    0.3352 H   0  0  0  0  0  0  0  0  0  0  0  0
   -1.2390   17.1625    0.3352 H   0  0  0  0  0  0  0  0  0  0  0  0
   -2.9091   20.5414   -0.5177 H   0  0  0  0  0  0  0  0  0  0  0  0
   -1.4957   20.5761   -1.6257 H   0  0  0  0  0  0  0  0  0  0  0  0
   -2.6023   19.1612   -1.6257 H   0  0  0  0  0  0  0  0  0  0  0  0
   -0.3194   16.3904   -1.7800 H   0  0  0  0  0  0  0  0  0  0  0  0
   -0.0678   16.4380   -4.1830 H   0  0  0  0  0  0  0  0  0  0  0  0
    1.6428   16.9046   -4.0720 H   0  0  0  0  0  0  0  0  0  0  0  0
    0.6715   14.2933   -4.7110 H   0  0  0  0  0  0  0  0  0  0  0  0
    2.3327   14.6400   -4.2384 H   0  0  0  0  0  0  0  0  0  0  0  0
   -0.8681   13.6811   -1.5160 H   0  0  0  0  0  0  0  0  0  0  0  0
   -1.0422   14.5622   -3.0717 H   0  0  0  0  0  0  0  0  0  0  0  0
   -0.7097   12.7970   -3.0717 H   0  0  0  0  0  0  0  0  0  0  0  0
    2.8829   13.0815   -2.4689 H   0  0  0  0  0  0  0  0  0  0  0  0
    1.3441   12.0131   -4.2384 H   0  0  0  0  0  0  0  0  0  0  0  0
    2.5376   10.9951   -3.2750 H   0  0  0  0  0  0  0  0  0  0  0  0
    0.1467    9.9520   -3.6427 H   0  0  0  0  0  0  0  0  0  0  0  0
   -0.2596   12.1506   -0.2798 H   0  0  0  0  0  0  0  0  0  0  0  0
    1.4672    9.7473    0.5791 H   0  0  0  0  0  0  0  0  0  0  0  0
    0.9226   11.1312    1.6271 H   0  0  0  0  0  0  0  0  0  0  0  0
   -0.4194    9.0863    2.0051 H   0  0  0  0  0  0  0  0  0  0  0  0
   -1.3965   10.4618    1.3584 H   0  0  0  0  0  0  0  0  0  0  0  0
   -2.0575    8.4500    0.2308 H   0  0  0  0  0  0  0  0  0  0  0  0
   -0.3390    7.3730   -1.0770 H   0  0  0  0  0  0  0  0  0  0  0  0
   -2.7277   10.7498   -0.1633 H   0  0  0  0  0  0  0  0  0  0  0  0
   -2.2923   11.5457   -1.7137 H   0  0  0  0  0  0  0  0  0  0  0  0
   -3.3673   10.1066   -1.7137 H   0  0  0  0  0  0  0  0  0  0  0  0
   -1.9072    7.6878   -2.0360 H   0  0  0  0  0  0  0  0  0  0  0  0
   -2.4114    9.0407   -3.1047 H   0  0  0  0  0  0  0  0  0  0  0  0
   -0.7033    8.4849   -3.1047 H   0  0  0  0  0  0  0  0  0  0  0  0
    3.2505   11.2845    0.5398 H   0  0  0  0  0  0  0  0  0  0  0  0
    2.9496   10.4059   -0.9978 H   0  0  0  0  0  0  0  0  0  0  0  0
    3.9450   11.9012   -0.9978 H   0  0  0  0  0  0  0  0  0  0  0  0
    1.4413   13.0943    1.1979 H   0  0  0  0  0  0  0  0  0  0  0  0
    2.9276   13.7279    0.2909 H   0  0  0  0  0  0  0  0  0  0  0  0
    0.0379   14.5634   -0.0829 H   0  0  0  0  0  0  0  0  0  0  0  0
    1.4229   15.5394    0.5469 H   0  0  0  0  0  0  0  0  0  0  0  0
    3.3933   15.5651   -0.5749 H   0  0  0  0  0  0  0  0  0  0  0  0
    3.5441   14.6791   -2.1302 H   0  0  0  0  0  0  0  0  0  0  0  0
    3.1784   16.4377   -2.1302 H   0  0  0  0  0  0  0  0  0  0  0  0
  1  2  1  0
  2  3  1  0
  3  4  1  0
  4  5  1  0
  5  6  1  0
  6  7  1  0
  7  8  1  0
  7  9  1  0
  2 10  1  0
 10 11  1  0
 11 12  1  0
 12 13  1  0
 13 14  1  1
 13 15  1  0
 15 16  1  0
 16 17  1  0
 17 18  2  0
 18 19  1  0
 19 20  1  0
 20 21  1  0
 21 22  1  0
 22 23  1  0
 22 24  1  0
 24 25  1  0
 24 26  1  0
 19 27  1  0
 27 28  1  1
 27 29  1  0
 29 30  1  0
 30 31  1  0
 31 32  1  1
  7  5  1  0
 31 10  1  0
 31 13  1  0
 27 15  1  0
 24 18  1  0
  1 33  1  0
  1 34  1  0
  1 35  1  0
  2 36  1  1
  3 37  1  0
  3 38  1  0
  4 39  1  0
  4 40  1  0
  5 41  1  6
  8 42  1  0
  8 43  1  0
  8 44  1  0
  9 45  1  0
  9 46  1  0
  9 47  1  0
 10 48  1  6
 11 49  1  0
 11 50  1  0
 12 51  1  0
 12 52  1  0
 14 53  1  0
 14 54  1  0
 14 55  1  0
 15 56  1  6
 16 57  1  0
 16 58  1  0
 17 59  1  0
 19 60  1  1
 20 61  1  0
 20 62  1  0
 21 63  1  0
 21 64  1  0
 22 65  1  1
 23 66  1  0
 25 67  1  0
 25 68  1  0
 25 69  1  0
 26 70  1  0
 26 71  1  0
 26 72  1  0
 28 73  1  0
 28 74  1  0
 28 75  1  0
 29 76  1  0
 29 77  1  0
 30 78  1  0
 30 79  1  0
 32 80  1  0
 32 81  1  0
 32 82  1  0
M  END
>  <meeko>  (3) 
{"is_sidechain": [false], "intermolecular_energy": 2.731, "internal_energy": -0.839}

$$$$
EPH_relaxed_0001_pdb2pqr_Repair_206_r2_0001_out
     RDKit          3D

 82 86  0  0  0  0  0  0  0  0999 V2000
   -3.2360    9.3520    0.2530 C   0  0  0  0  0  0  0  0  0  0  0  0
   -2.2480    9.5460   -0.9000 C   0  0  2  0  0  0  0  0  0  0  0  0
   -1.5490    8.2300   -1.2950 C   0  0  0  0  0  0  0  0  0  0  0  0
   -2.4100    7.3150   -2.1700 C   0  0  0  0  0  0  0  0  0  0  0  0
   -3.8330    7.7810   -2.2290 C   0  0  2  0  0  0  0  0  0  0  0  0
   -4.6650    7.2990   -1.1660 O   0  0  0  0  0  0  0  0  0  0  0  0
   -5.0070    6.8560   -2.4890 C   0  0  0  0  0  0  0  0  0  0  0  0
   -4.8100    5.3890   -2.7100 C   0  0  0  0  0  0  0  0  0  0  0  0
   -6.2800    7.4450   -3.0120 C   0  0  0  0  0  0  0  0  0  0  0  0
   -1.2080   10.5950   -0.5230 C   0  0  1  0  0  0  0  0  0  0  0  0
   -0.0360   10.0030    0.3050 C   0  0  0  0  0  0  0  0  0  0  0  0
    1.2420   10.7730   -0.1150 C   0  0  0  0  0  0  0  0  0  0  0  0
    0.7190   11.9910   -0.9130 C   0  0  1  0  0  0  0  0  0  0  0  0
    0.2970   13.0300    0.1730 C   0  0  0  0  0  0  0  0  0  0  0  0
    1.7070   12.6110   -1.9530 C   0  0  2  0  0  0  0  0  0  0  0  0
    3.0020   13.1920   -1.3580 C   0  0  0  0  0  0  0  0  0  0  0  0
    2.9390   14.6340   -0.9780 C   0  0  0  0  0  0  0  0  0  0  0  0
    1.9880   15.5040   -1.3660 C   0  0  0  0  0  0  0  0  0  0  0  0
    0.8930   15.0840   -2.3550 C   0  0  1  0  0  0  0  0  0  0  0  0
    0.7360   16.1740   -3.4480 C   0  0  0  0  0  0  0  0  0  0  0  0
    0.4920   17.5610   -2.8600 C   0  0  0  0  0  0  0  0  0  0  0  0
    1.6310   17.9670   -1.9290 C   0  0  2  0  0  0  0  0  0  0  0  0
    2.8220   18.1360   -2.7040 O   0  0  0  0  0  0  0  0  0  0  0  0
    1.8880   16.9390   -0.7920 C   0  0  0  0  0  0  0  0  0  0  0  0
    0.7160   16.9770    0.2200 C   0  0  0  0  0  0  0  0  0  0  0  0
    3.1500   17.3960   -0.0110 C   0  0  0  0  0  0  0  0  0  0  0  0
    1.0320   13.6230   -2.9650 C   0  0  1  0  0  0  0  0  0  0  0  0
    1.9420   13.6600   -4.2310 C   0  0  0  0  0  0  0  0  0  0  0  0
   -0.3830   13.1310   -3.4490 C   0  0  0  0  0  0  0  0  0  0  0  0
   -1.2650   12.4190   -2.4060 C   0  0  0  0  0  0  0  0  0  0  0  0
   -0.4790   11.3230   -1.6800 C   0  0  2  0  0  0  0  0  0  0  0  0
   -0.0610   10.2510   -2.7430 C   0  0  0  0  0  0  0  0  0  0  0  0
   -2.7061    9.4560    1.2113 H   0  0  0  0  0  0  0  0  0  0  0  0
   -4.0290   10.1116    0.1881 H   0  0  0  0  0  0  0  0  0  0  0  0
   -3.6829    8.3490    0.1881 H   0  0  0  0  0  0  0  0  0  0  0  0
   -2.8229    9.8888   -1.7729 H   0  0  0  0  0  0  0  0  0  0  0  0
   -0.6310    8.4768   -1.8485 H   0  0  0  0  0  0  0  0  0  0  0  0
   -1.3426    7.6831   -0.3632 H   0  0  0  0  0  0  0  0  0  0  0  0
   -1.9962    7.3041   -3.1891 H   0  0  0  0  0  0  0  0  0  0  0  0
   -2.3976    6.3078   -1.7280 H   0  0  0  0  0  0  0  0  0  0  0  0
   -3.5269    8.7317   -2.6900 H   0  0  0  0  0  0  0  0  0  0  0  0
   -4.7414    4.8778   -1.7384 H   0  0  0  0  0  0  0  0  0  0  0  0
   -5.6621    4.9859   -3.2770 H   0  0  0  0  0  0  0  0  0  0  0  0
   -3.8818    5.2250   -3.2770 H   0  0  0  0  0  0  0  0  0  0  0  0
   -6.9206    7.7414   -2.1684 H   0  0  0  0  0  0  0  0  0  0  0  0
   -6.0502    8.3283   -3.6260 H   0  0  0  0  0  0  0  0  0  0  0  0
   -6.8045    6.6981   -3.6260 H   0  0  0  0  0  0  0  0  0  0  0  0
   -1.8499   11.3033    0.0213 H   0  0  0  0  0  0  0  0  0  0  0  0
   -0.2246   10.1399    1.3800 H   0  0  0  0  0  0  0  0  0  0  0  0
    0.0737    8.9244    0.1190 H   0  0  0  0  0  0  0  0  0  0  0  0
    1.8059   11.1019    0.7704 H   0  0  0  0  0  0  0  0  0  0  0  0
    1.9288   10.1501   -0.7069 H   0  0  0  0  0  0  0  0  0  0  0  0
    0.4694   12.6056    1.1731 H   0  0  0  0  0  0  0  0  0  0  0  0
    0.8943   13.9462    0.0556 H   0  0  0  0  0  0  0  0  0  0  0  0
   -0.7700   13.2703    0.0556 H   0  0  0  0  0  0  0  0  0  0  0  0
    2.0151   11.7317   -2.5378 H   0  0  0  0  0  0  0  0  0  0  0  0
    3.2509   12.6135   -0.4561 H   0  0  0  0  0  0  0  0  0  0  0  0
    3.7603   13.1196   -2.1515 H   0  0  0  0  0  0  0  0  0  0  0  0
    3.7371   15.0182   -0.3258 H   0  0  0  0  0  0  0  0  0  0  0  0
   -0.0340   15.0085   -1.7676 H   0  0  0  0  0  0  0  0  0  0  0  0
    1.6553   16.2034   -4.0513 H   0  0  0  0  0  0  0  0  0  0  0  0
   -0.1405   15.9111   -4.0585 H   0  0  0  0  0  0  0  0  0  0  0  0
    0.4189   18.2915   -3.6792 H   0  0  0  0  0  0  0  0  0  0  0  0
   -0.4430   17.5373   -2.2811 H   0  0  0  0  0  0  0  0  0  0  0  0
    1.3388   18.9082   -1.4405 H   0  0  0  0  0  0  0  0  0  0  0  0
    3.5120   18.4770   -2.1110 H   0  0  0  0  0  0  0  0  0  0  0  0
    1.1158   16.9640    1.2447 H   0  0  0  0  0  0  0  0  0  0  0  0
    0.1290   17.8946    0.0670 H   0  0  0  0  0  0  0  0  0  0  0  0
    0.0708   16.0993    0.0670 H   0  0  0  0  0  0  0  0  0  0  0  0
    2.9576   17.3263    1.0698 H   0  0  0  0  0  0  0  0  0  0  0  0
    3.9990   16.7482   -0.2748 H   0  0  0  0  0  0  0  0  0  0  0  0
    3.3874   18.4372   -0.2748 H   0  0  0  0  0  0  0  0  0  0  0  0
    2.9971   13.7029   -3.9230 H   0  0  0  0  0  0  0  0  0  0  0  0
    1.7718   12.7542   -4.8315 H   0  0  0  0  0  0  0  0  0  0  0  0
    1.6989   14.5490   -4.8315 H   0  0  0  0  0  0  0  0  0  0  0  0
   -0.9366   14.0113   -3.8077 H   0  0  0  0  0  0  0  0  0  0  0  0
   -0.1763   12.3717   -4.2176 H   0  0  0  0  0  0  0  0  0  0  0  0
   -1.6182   13.1562   -1.6699 H   0  0  0  0  0  0  0  0  0  0  0  0
   -2.1166   11.9548   -2.9250 H   0  0  0  0  0  0  0  0  0  0  0  0
    0.2925    9.3444   -2.2301 H   0  0  0  0  0  0  0  0  0  0  0  0
   -0.9278   10.0016   -3.3727 H   0  0  0  0  0  0  0  0  0  0  0  0
    0.7458   10.6542   -3.3727 H   0  0  0  0  0  0  0  0  0  0  0  0
  1  2  1  0
  2  3  1  0
  3  4  1  0
  4  5  1  0
  5  6  1  0
  6  7  1  0
  7  8  1  0
  7  9  1  0
  2 10  1  0
 10 11  1  0
 11 12  1  0
 12 13  1  0
 13 14  1  1
 13 15  1  0
 15 16  1  0
 16 17  1  0
 17 18  2  0
 18 19  1  0
 19 20  1  0
 20 21  1  0
 21 22  1  0
 22 23  1  0
 22 24  1  0
 24 25  1  0
 24 26  1  0
 19 27  1  0
 27 28  1  6
 27 29  1  0
 29 30  1  0
 30 31  1  0
 31 32  1  6
  7  5  1  0
 31 10  1  0
 31 13  1  0
 27 15  1  0
 24 18  1  0
  1 33  1  0
  1 34  1  0
  1 35  1  0
  2 36  1  6
  3 37  1  0
  3 38  1  0
  4 39  1  0
  4 40  1  0
  5 41  1  6
  8 42  1  0
  8 43  1  0
  8 44  1  0
  9 45  1  0
  9 46  1  0
  9 47  1  0
 10 48  1  1
 11 49  1  0
 11 50  1  0
 12 51  1  0
 12 52  1  0
 14 53  1  0
 14 54  1  0
 14 55  1  0
 15 56  1  6
 16 57  1  0
 16 58  1  0
 17 59  1  0
 19 60  1  1
 20 61  1  0
 20 62  1  0
 21 63  1  0
 21 64  1  0
 22 65  1  1
 23 66  1  0
 25 67  1  0
 25 68  1  0
 25 69  1  0
 26 70  1  0
 26 71  1  0
 26 72  1  0
 28 73  1  0
 28 74  1  0
 28 75  1  0
 29 76  1  0
 29 77  1  0
 30 78  1  0
 30 79  1  0
 32 80  1  0
 32 81  1  0
 32 82  1  0
M  END
>  <meeko>  (4) 
{"is_sidechain": [false], "intermolecular_energy": 2.731, "internal_energy": -0.839}

$$$$
EPH_relaxed_0001_pdb2pqr_Repair_206_r2_0001_out
     RDKit          3D

 82 86  0  0  0  0  0  0  0  0999 V2000
    0.0260   19.5220   -2.1480 C   0  0  0  0  0  0  0  0  0  0  0  0
   -0.1310   18.4900   -1.0280 C   0  0  2  0  0  0  0  0  0  0  0  0
    0.6450   18.8910    0.2430 C   0  0  0  0  0  0  0  0  0  0  0  0
    1.5220   20.1340    0.0630 C   0  0  0  0  0  0  0  0  0  0  0  0
    2.9050   19.9190    0.5990 C   0  0  2  0  0  0  0  0  0  0  0  0
    3.0790   18.7020    1.3360 O   0  0  0  0  0  0  0  0  0  0  0  0
    3.2380   19.9210    2.0790 C   0  0  0  0  0  0  0  0  0  0  0  0
    2.1830   20.1440    3.1160 C   0  0  0  0  0  0  0  0  0  0  0  0
    4.6500   20.1940    2.4940 C   0  0  0  0  0  0  0  0  0  0  0  0
    0.3350   17.1220   -1.5120 C   0  0  1  0  0  0  0  0  0  0  0  0
    1.6620   17.1920   -2.3140 C   0  0  0  0  0  0  0  0  0  0  0  0
    2.4510   15.8990   -1.9860 C   0  0  0  0  0  0  0  0  0  0  0  0
    1.4230   14.9830   -1.2800 C   0  0  1  0  0  0  0  0  0  0  0  0
    0.6000   14.3370   -2.4380 C   0  0  0  0  0  0  0  0  0  0  0  0
    2.0090   13.9010   -0.3150 C   0  0  2  0  0  0  0  0  0  0  0  0
    2.9170   12.8540   -0.9840 C   0  0  0  0  0  0  0  0  0  0  0  0
    2.2200   11.6300   -1.4800 C   0  0  0  0  0  0  0  0  0  0  0  0
    0.9730   11.2500   -1.1440 C   0  0  0  0  0  0  0  0  0  0  0  0
    0.1650   12.0330   -0.1010 C   0  0  1  0  0  0  0  0  0  0  0  0
   -0.4840   11.0420    0.9010 C   0  0  0  0  0  0  0  0  0  0  0  0
   -1.3140    9.9670    0.2070 C   0  0  0  0  0  0  0  0  0  0  0  0
   -0.4620    9.1720   -0.7790 C   0  0  2  0  0  0  0  0  0  0  0  0
    0.5130    8.4230   -0.0460 O   0  0  0  0  0  0  0  0  0  0  0  0
    0.2500   10.0660   -1.8320 C   0  0  0  0  0  0  0  0  0  0  0  0
   -0.7960   10.6420   -2.8180 C   0  0  0  0  0  0  0  0  0  0  0  0
    1.1860    9.1570   -2.6750 C   0  0  0  0  0  0  0  0  0  0  0  0
    0.9340   13.2190    0.6240 C   0  0  1  0  0  0  0  0  0  0  0  0
    1.7070   12.6730    1.8630 C   0  0  0  0  0  0  0  0  0  0  0  0
   -0.1180   14.2520    1.1770 C   0  0  0  0  0  0  0  0  0  0  0  0
   -0.5680   15.3680    0.2150 C   0  0  0  0  0  0  0  0  0  0  0  0
    0.6390   16.0520   -0.4350 C   0  0  2  0  0  0  0  0  0  0  0  0
    1.4750   16.7290    0.7040 C   0  0  0  0  0  0  0  0  0  0  0  0
    0.1777   20.5192   -1.7091 H   0  0  0  0  0  0  0  0  0  0  0  0
    0.8945   19.2591   -2.7698 H   0  0  0  0  0  0  0  0  0  0  0  0
   -0.8814   19.5292   -2.7698 H   0  0  0  0  0  0  0  0  0  0  0  0
   -1.1981   18.4473   -0.7646 H   0  0  0  0  0  0  0  0  0  0  0  0
   -0.0813   19.0916    1.0444 H   0  0  0  0  0  0  0  0  0  0  0  0
    1.3179   18.0554    0.4856 H   0  0  0  0  0  0  0  0  0  0  0  0
    1.5881   20.3715   -1.0090 H   0  0  0  0  0  0  0  0  0  0  0  0
    1.0623   20.9620    0.6225 H   0  0  0  0  0  0  0  0  0  0  0  0
    3.3450   20.4515   -0.2571 H   0  0  0  0  0  0  0  0  0  0  0  0
    2.6278   20.0500    4.1177 H   0  0  0  0  0  0  0  0  0  0  0  0
    1.7585   21.1517    2.9964 H   0  0  0  0  0  0  0  0  0  0  0  0
    1.3870   19.3943    2.9964 H   0  0  0  0  0  0  0  0  0  0  0  0
    4.7136   20.2063    3.5921 H   0  0  0  0  0  0  0  0  0  0  0  0
    5.3075   19.4064    2.0974 H   0  0  0  0  0  0  0  0  0  0  0  0
    4.9665   21.1700    2.0974 H   0  0  0  0  0  0  0  0  0  0  0  0
   -0.5465   16.8245   -2.0990 H   0  0  0  0  0  0  0  0  0  0  0  0
    1.4507   17.2436   -3.3923 H   0  0  0  0  0  0  0  0  0  0  0  0
    2.2406   18.0874   -2.0430 H   0  0  0  0  0  0  0  0  0  0  0  0
    2.8234   15.4271   -2.9072 H   0  0  0  0  0  0  0  0  0  0  0  0
    3.3334   16.0963   -1.3595 H   0  0  0  0  0  0  0  0  0  0  0  0
   -0.1987   13.7101   -2.0148 H   0  0  0  0  0  0  0  0  0  0  0  0
    0.1547   15.1293   -3.0577 H   0  0  0  0  0  0  0  0  0  0  0  0
    1.2639   13.7163   -3.0577 H   0  0  0  0  0  0  0  0  0  0  0  0
    2.6674   14.4960    0.3349 H   0  0  0  0  0  0  0  0  0  0  0  0
    3.4143   13.3327   -1.8405 H   0  0  0  0  0  0  0  0  0  0  0  0
    3.6142   12.5128   -0.2046 H   0  0  0  0  0  0  0  0  0  0  0  0
    2.7721   10.9844   -2.1789 H   0  0  0  0  0  0  0  0  0  0  0  0
   -0.6188   12.5655   -0.6598 H   0  0  0  0  0  0  0  0  0  0  0  0
    0.3135   10.5528    1.4795 H   0  0  0  0  0  0  0  0  0  0  0  0
   -1.1600   11.6184    1.5497 H   0  0  0  0  0  0  0  0  0  0  0  0
   -1.7216    9.2817    0.9648 H   0  0  0  0  0  0  0  0  0  0  0  0
   -2.1287   10.4557   -0.3474 H   0  0  0  0  0  0  0  0  0  0  0  0
   -1.1371    8.5066   -1.3371 H   0  0  0  0  0  0  0  0  0  0  0  0
    0.1750    8.3050    0.8580 H   0  0  0  0  0  0  0  0  0  0  0  0
   -1.6221   11.0969   -2.2518 H   0  0  0  0  0  0  0  0  0  0  0  0
   -0.3212   11.4059   -3.4513 H   0  0  0  0  0  0  0  0  0  0  0  0
   -1.1877    9.8324   -3.4513 H   0  0  0  0  0  0  0  0  0  0  0  0
    1.8107    8.5503   -2.0029 H   0  0  0  0  0  0  0  0  0  0  0  0
    0.5793    8.4942   -3.3095 H   0  0  0  0  0  0  0  0  0  0  0  0
    1.8308    9.7828   -3.3095 H   0  0  0  0  0  0  0  0  0  0  0  0
    1.2156   13.0201    2.7839 H   0  0  0  0  0  0  0  0  0  0  0  0
    1.7072   11.5732    1.8396 H   0  0  0  0  0  0  0  0  0  0  0  0
    2.7436   13.0404    1.8396 H   0  0  0  0  0  0  0  0  0  0  0  0
   -1.0141   13.6875    1.4742 H   0  0  0  0  0  0  0  0  0  0  0  0
    0.3941   14.7712    2.0005 H   0  0  0  0  0  0  0  0  0  0  0  0
   -1.2008   14.9313   -0.5717 H   0  0  0  0  0  0  0  0  0  0  0  0
   -1.1301   16.1197    0.7886 H   0  0  0  0  0  0  0  0  0  0  0  0
    1.0847   16.4129    1.6827 H   0  0  0  0  0  0  0  0  0  0  0  0
    2.5289   16.4267    0.6145 H   0  0  0  0  0  0  0  0  0  0  0  0
    1.3984   17.8227    0.6145 H   0  0  0  0  0  0  0  0  0  0  0  0
  1  2  1  0
  2  3  1  0
  3  4  1  0
  4  5  1  0
  5  6  1  0
  6  7  1  0
  7  8  1  0
  7  9  1  0
  2 10  1  0
 10 11  1  0
 11 12  1  0
 12 13  1  0
 13 14  1  6
 13 15  1  0
 15 16  1  0
 16 17  1  0
 17 18  2  0
 18 19  1  0
 19 20  1  0
 20 21  1  0
 21 22  1  0
 22 23  1  0
 22 24  1  0
 24 25  1  0
 24 26  1  0
 19 27  1  0
 27 28  1  1
 27 29  1  0
 29 30  1  0
 30 31  1  0
 31 32  1  1
  7  5  1  0
 31 10  1  0
 31 13  1  0
 27 15  1  0
 24 18  1  0
  1 33  1  0
  1 34  1  0
  1 35  1  0
  2 36  1  1
  3 37  1  0
  3 38  1  0
  4 39  1  0
  4 40  1  0
  5 41  1  6
  8 42  1  0
  8 43  1  0
  8 44  1  0
  9 45  1  0
  9 46  1  0
  9 47  1  0
 10 48  1  6
 11 49  1  0
 11 50  1  0
 12 51  1  0
 12 52  1  0
 14 53  1  0
 14 54  1  0
 14 55  1  0
 15 56  1  1
 16 57  1  0
 16 58  1  0
 17 59  1  0
 19 60  1  6
 20 61  1  0
 20 62  1  0
 21 63  1  0
 21 64  1  0
 22 65  1  6
 23 66  1  0
 25 67  1  0
 25 68  1  0
 25 69  1  0
 26 70  1  0
 26 71  1  0
 26 72  1  0
 28 73  1  0
 28 74  1  0
 28 75  1  0
 29 76  1  0
 29 77  1  0
 30 78  1  0
 30 79  1  0
 32 80  1  0
 32 81  1  0
 32 82  1  0
M  END
>  <meeko>  (5) 
{"is_sidechain": [false], "intermolecular_energy": 2.731, "internal_energy": -0.839}

$$$$
EPH_relaxed_0001_pdb2pqr_Repair_206_r2_0001_out
     RDKit          3D

 82 86  0  0  0  0  0  0  0  0999 V2000
    0.0410   10.6860   -3.9450 C   0  0  0  0  0  0  0  0  0  0  0  0
    1.1140   10.3960   -2.8920 C   0  0  2  0  0  0  0  0  0  0  0  0
    0.8350    9.0900   -2.1220 C   0  0  0  0  0  0  0  0  0  0  0  0
    0.3620    9.3130   -0.6830 C   0  0  0  0  0  0  0  0  0  0  0  0
   -1.0480    8.8440   -0.4840 C   0  0  2  0  0  0  0  0  0  0  0  0
   -1.8550    8.8550   -1.6680 O   0  0  0  0  0  0  0  0  0  0  0  0
   -2.2580    9.7500   -0.6190 C   0  0  0  0  0  0  0  0  0  0  0  0
   -2.1140   11.1980   -0.9660 C   0  0  0  0  0  0  0  0  0  0  0  0
   -3.5310    9.3490    0.0600 C   0  0  0  0  0  0  0  0  0  0  0  0
    1.2140   11.5640   -1.9170 C   0  0  1  0  0  0  0  0  0  0  0  0
    2.3680   11.3910   -0.8930 C   0  0  0  0  0  0  0  0  0  0  0  0
    2.9380   12.8060   -0.6180 C   0  0  0  0  0  0  0  0  0  0  0  0
    1.8940   13.7720   -1.2250 C   0  0  1  0  0  0  0  0  0  0  0  0
    0.7700   13.8780   -0.1480 C   0  0  0  0  0  0  0  0  0  0  0  0
    2.4220   15.1810   -1.6490 C   0  0  2  0  0  0  0  0  0  0  0  0
    2.9780   16.0420   -0.5020 C   0  0  0  0  0  0  0  0  0  0  0  0
    1.9820   16.9280    0.1710 C   0  0  0  0  0  0  0  0  0  0  0  0
    0.7650   17.2430   -0.3090 C   0  0  0  0  0  0  0  0  0  0  0  0
    0.3190   16.7680   -1.6990 C   0  0  1  0  0  0  0  0  0  0  0  0
   -0.3200   17.9520   -2.4700 C   0  0  0  0  0  0  0  0  0  0  0  0
   -1.4510   18.6160   -1.6900 C   0  0  0  0  0  0  0  0  0  0  0  0
   -0.9560   19.1260   -0.3390 C   0  0  2  0  0  0  0  0  0  0  0  0
   -0.0300   20.1940   -0.5620 O   0  0  0  0  0  0  0  0  0  0  0  0
   -0.2820   18.0220    0.5230 C   0  0  0  0  0  0  0  0  0  0  0  0
   -1.3550   17.0200    1.0160 C   0  0  0  0  0  0  0  0  0  0  0  0
    0.2980   18.6980    1.7950 C   0  0  0  0  0  0  0  0  0  0  0  0
    1.4180   16.0040   -2.5550 C   0  0  1  0  0  0  0  0  0  0  0  0
    2.2790   17.0300   -3.3540 C   0  0  0  0  0  0  0  0  0  0  0  0
    0.6990   15.0990   -3.6250 C   0  0  0  0  0  0  0  0  0  0  0  0
    0.3100   13.6760   -3.1820 C   0  0  0  0  0  0  0  0  0  0  0  0
    1.4920   12.9670   -2.5140 C   0  0  2  0  0  0  0  0  0  0  0  0
    2.6300   12.8260   -3.5820 C   0  0  0  0  0  0  0  0  0  0  0  0
   -0.9045   10.9415   -3.4443 H   0  0  0  0  0  0  0  0  0  0  0  0
    0.3626   11.5294   -4.5736 H   0  0  0  0  0  0  0  0  0  0  0  0
   -0.1060    9.7954   -4.5736 H   0  0  0  0  0  0  0  0  0  0  0  0
    2.0703   10.2692   -3.4206 H   0  0  0  0  0  0  0  0  0  0  0  0
    0.0569    8.5289   -2.6603 H   0  0  0  0  0  0  0  0  0  0  0  0
    1.7861    8.5403   -2.0662 H   0  0  0  0  0  0  0  0  0  0  0  0
    1.0221    8.7575   -0.0006 H   0  0  0  0  0  0  0  0  0  0  0  0
    0.3972   10.3923   -0.4738 H   0  0  0  0  0  0  0  0  0  0  0  0
   -0.7304    8.1503    0.3084 H   0  0  0  0  0  0  0  0  0  0  0  0
   -2.0549   11.7923   -0.0422 H   0  0  0  0  0  0  0  0  0  0  0  0
   -1.1969   11.3443   -1.5555 H   0  0  0  0  0  0  0  0  0  0  0  0
   -2.9843   11.5221   -1.5555 H   0  0  0  0  0  0  0  0  0  0  0  0
   -3.3942    9.3921    1.1506 H   0  0  0  0  0  0  0  0  0  0  0  0
   -4.3368   10.0368   -0.2359 H   0  0  0  0  0  0  0  0  0  0  0  0
   -3.7971    8.3235   -0.2359 H   0  0  0  0  0  0  0  0  0  0  0  0
    0.2024   11.5312   -1.4861 H   0  0  0  0  0  0  0  0  0  0  0  0
    1.9846   10.9494    0.0387 H   0  0  0  0  0  0  0  0  0  0  0  0
    3.1470   10.7209   -1.2855 H   0  0  0  0  0  0  0  0  0  0  0  0
    3.0442   12.9785    0.4632 H   0  0  0  0  0  0  0  0  0  0  0  0
    3.9381   12.9449   -1.0545 H   0  0  0  0  0  0  0  0  0  0  0  0
    1.2186   13.8357    0.8555 H   0  0  0  0  0  0  0  0  0  0  0  0
    0.2338   14.8307   -0.2701 H   0  0  0  0  0  0  0  0  0  0  0  0
    0.0652   13.0423   -0.2701 H   0  0  0  0  0  0  0  0  0  0  0  0
    3.2874   14.9282   -2.2792 H   0  0  0  0  0  0  0  0  0  0  0  0
    3.3993   15.3663    0.2569 H   0  0  0  0  0  0  0  0  0  0  0  0
    3.7224   16.7117   -0.9574 H   0  0  0  0  0  0  0  0  0  0  0  0
    2.2674   17.3598    1.1416 H   0  0  0  0  0  0  0  0  0  0  0  0
   -0.4346   15.9855   -1.5265 H   0  0  0  0  0  0  0  0  0  0  0  0
    0.4582   18.7031   -2.6708 H   0  0  0  0  0  0  0  0  0  0  0  0
   -0.7468   17.5522   -3.4017 H   0  0  0  0  0  0  0  0  0  0  0  0
   -1.8418   19.4628   -2.2733 H   0  0  0  0  0  0  0  0  0  0  0  0
   -2.2417   17.8714   -1.5159 H   0  0  0  0  0  0  0  0  0  0  0  0
   -1.8343   19.4720    0.2256 H   0  0  0  0  0  0  0  0  0  0  0  0
    0.8250   19.9260   -0.1860 H   0  0  0  0  0  0  0  0  0  0  0  0
   -1.3677   17.0081    2.1159 H   0  0  0  0  0  0  0  0  0  0  0  0
   -2.3427   17.3265    0.6412 H   0  0  0  0  0  0  0  0  0  0  0  0
   -1.1167   16.0137    0.6412 H   0  0  0  0  0  0  0  0  0  0  0  0
   -0.1182   18.2129    2.6902 H   0  0  0  0  0  0  0  0  0  0  0  0
    1.3932   18.5952    1.7979 H   0  0  0  0  0  0  0  0  0  0  0  0
    0.0299   19.7648    1.7979 H   0  0  0  0  0  0  0  0  0  0  0  0
    2.8230   17.6782   -2.6512 H   0  0  0  0  0  0  0  0  0  0  0  0
    2.9986   16.4904   -3.9872 H   0  0  0  0  0  0  0  0  0  0  0  0
    1.6227   17.6451   -3.9872 H   0  0  0  0  0  0  0  0  0  0  0  0
   -0.2223   15.6154   -3.9326 H   0  0  0  0  0  0  0  0  0  0  0  0
    1.4385   14.9588   -4.4272 H   0  0  0  0  0  0  0  0  0  0  0  0
   -0.5237   13.7371   -2.4670 H   0  0  0  0  0  0  0  0  0  0  0  0
    0.0133   13.1007   -4.0714 H   0  0  0  0  0  0  0  0  0  0  0  0
    3.5977   12.7061   -3.0730 H   0  0  0  0  0  0  0  0  0  0  0  0
    2.4351   11.9451   -4.2114 H   0  0  0  0  0  0  0  0  0  0  0  0
    2.6560   13.7278   -4.2114 H   0  0  0  0  0  0  0  0  0  0  0  0
  1  2  1  0
  2  3  1  0
  3  4  1  0
  4  5  1  0
  5  6  1  0
  6  7  1  0
  7  8  1  0
  7  9  1  0
  2 10  1  0
 10 11  1  0
 11 12  1  0
 12 13  1  0
 13 14  1  1
 13 15  1  0
 15 16  1  0
 16 17  1  0
 17 18  2  0
 18 19  1  0
 19 20  1  0
 20 21  1  0
 21 22  1  0
 22 23  1  0
 22 24  1  0
 24 25  1  0
 24 26  1  0
 19 27  1  0
 27 28  1  6
 27 29  1  0
 29 30  1  0
 30 31  1  0
 31 32  1  6
  7  5  1  0
 31 10  1  0
 31 13  1  0
 27 15  1  0
 24 18  1  0
  1 33  1  0
  1 34  1  0
  1 35  1  0
  2 36  1  6
  3 37  1  0
  3 38  1  0
  4 39  1  0
  4 40  1  0
  5 41  1  1
  8 42  1  0
  8 43  1  0
  8 44  1  0
  9 45  1  0
  9 46  1  0
  9 47  1  0
 10 48  1  1
 11 49  1  0
 11 50  1  0
 12 51  1  0
 12 52  1  0
 14 53  1  0
 14 54  1  0
 14 55  1  0
 15 56  1  6
 16 57  1  0
 16 58  1  0
 17 59  1  0
 19 60  1  1
 20 61  1  0
 20 62  1  0
 21 63  1  0
 21 64  1  0
 22 65  1  1
 23 66  1  0
 25 67  1  0
 25 68  1  0
 25 69  1  0
 26 70  1  0
 26 71  1  0
 26 72  1  0
 28 73  1  0
 28 74  1  0
 28 75  1  0
 29 76  1  0
 29 77  1  0
 30 78  1  0
 30 79  1  0
 32 80  1  0
 32 81  1  0
 32 82  1  0
M  END
>  <meeko>  (6) 
{"is_sidechain": [false], "intermolecular_energy": 2.731, "internal_energy": -0.839}

$$$$
EPH_relaxed_0001_pdb2pqr_Repair_206_r2_0001_out
     RDKit          3D

 82 86  0  0  0  0  0  0  0  0999 V2000
   -5.1500    5.8610   -1.8530 C   0  0  0  0  0  0  0  0  0  0  0  0
   -5.4750    7.3570   -1.8330 C   0  0  2  0  0  0  0  0  0  0  0  0
   -5.2580    7.9800   -0.4400 C   0  0  0  0  0  0  0  0  0  0  0  0
   -4.2130    9.0990   -0.4210 C   0  0  0  0  0  0  0  0  0  0  0  0
   -2.8450    8.5860   -0.7590 C   0  0  2  0  0  0  0  0  0  0  0  0
   -1.8300    8.9140    0.1980 O   0  0  0  0  0  0  0  0  0  0  0  0
   -1.6770    9.4870   -1.1110 C   0  0  0  0  0  0  0  0  0  0  0  0
   -1.8220   10.9760   -1.1430 C   0  0  0  0  0  0  0  0  0  0  0  0
   -0.5380    8.9100   -1.8920 C   0  0  0  0  0  0  0  0  0  0  0  0
   -6.9120    7.5830   -2.2870 C   0  0  1  0  0  0  0  0  0  0  0  0
   -7.2310    6.8800   -3.6330 C   0  0  0  0  0  0  0  0  0  0  0  0
   -8.7060    6.4090   -3.5540 C   0  0  0  0  0  0  0  0  0  0  0  0
   -9.2820    7.1380   -2.3170 C   0  0  1  0  0  0  0  0  0  0  0  0
   -9.6360    8.5710   -2.8250 C   0  0  0  0  0  0  0  0  0  0  0  0
  -10.5030    6.4550   -1.6200 C   0  0  2  0  0  0  0  0  0  0  0  0
  -11.7650    6.3260   -2.4920 C   0  0  0  0  0  0  0  0  0  0  0  0
  -12.7170    7.4730   -2.4100 C   0  0  0  0  0  0  0  0  0  0  0  0
  -12.7120    8.4270   -1.4600 C   0  0  0  0  0  0  0  0  0  0  0  0
  -11.7380    8.3550   -0.2770 C   0  0  1  0  0  0  0  0  0  0  0  0
  -12.5030    8.6430    1.0420 C   0  0  0  0  0  0  0  0  0  0  0  0
  -13.2720    9.9600    0.9970 C   0  0  0  0  0  0  0  0  0  0  0  0
  -14.2710    9.9700   -0.1570 C   0  0  2  0  0  0  0  0  0  0  0  0
  -15.2870    8.9970    0.1050 O   0  0  0  0  0  0  0  0  0  0  0  0
  -13.6160    9.6820   -1.5370 C   0  0  0  0  0  0  0  0  0  0  0  0
  -12.7390   10.8870   -1.9580 C   0  0  0  0  0  0  0  0  0  0  0  0
  -14.7500    9.5800   -2.5920 C   0  0  0  0  0  0  0  0  0  0  0  0
  -10.8460    7.0430   -0.1910 C   0  0  1  0  0  0  0  0  0  0  0  0
  -11.6160    5.9250    0.5770 C   0  0  0  0  0  0  0  0  0  0  0  0
   -9.5540    7.3530    0.6530 C   0  0  0  0  0  0  0  0  0  0  0  0
   -8.3410    7.9140   -0.1130 C   0  0  0  0  0  0  0  0  0  0  0  0
   -8.0400    7.0710   -1.3560 C   0  0  2  0  0  0  0  0  0  0  0  0
   -7.6600    5.6290   -0.8750 C   0  0  0  0  0  0  0  0  0  0  0  0
   -5.0693    5.4895   -0.8208 H   0  0  0  0  0  0  0  0  0  0  0  0
   -5.9513    5.3187   -2.3763 H   0  0  0  0  0  0  0  0  0  0  0  0
   -4.1959    5.7000   -2.3763 H   0  0  0  0  0  0  0  0  0  0  0  0
   -4.7831    7.8550   -2.5282 H   0  0  0  0  0  0  0  0  0  0  0  0
   -6.2159    8.3937   -0.0918 H   0  0  0  0  0  0  0  0  0  0  0  0
   -4.8831    7.1795    0.2148 H   0  0  0  0  0  0  0  0  0  0  0  0
   -4.4981    9.8656   -1.1566 H   0  0  0  0  0  0  0  0  0  0  0  0
   -4.1800    9.5203    0.5946 H   0  0  0  0  0  0  0  0  0  0  0  0
   -3.2733    7.7048   -1.2590 H   0  0  0  0  0  0  0  0  0  0  0  0
   -1.8597   11.3629   -0.1140 H   0  0  0  0  0  0  0  0  0  0  0  0
   -0.9625   11.4169   -1.6693 H   0  0  0  0  0  0  0  0  0  0  0  0
   -2.7504   11.2428   -1.6693 H   0  0  0  0  0  0  0  0  0  0  0  0
    0.2238    8.5241   -1.1986 H   0  0  0  0  0  0  0  0  0  0  0  0
   -0.9062    8.0897   -2.5257 H   0  0  0  0  0  0  0  0  0  0  0  0
   -0.0945    9.6921   -2.5257 H   0  0  0  0  0  0  0  0  0  0  0  0
   -6.9232    8.6823   -2.3239 H   0  0  0  0  0  0  0  0  0  0  0  0
   -7.1027    7.5846   -4.4679 H   0  0  0  0  0  0  0  0  0  0  0  0
   -6.5540    6.0301   -3.8045 H   0  0  0  0  0  0  0  0  0  0  0  0
   -9.2543    6.6950   -4.4637 H   0  0  0  0  0  0  0  0  0  0  0  0
   -8.7911    5.3154   -3.4712 H   0  0  0  0  0  0  0  0  0  0  0  0
   -9.8001    9.2352   -1.9637 H   0  0  0  0  0  0  0  0  0  0  0  0
   -8.8067    8.9592   -3.4346 H   0  0  0  0  0  0  0  0  0  0  0  0
  -10.5506    8.5284   -3.4346 H   0  0  0  0  0  0  0  0  0  0  0  0
  -10.1411    5.4279   -1.4647 H   0  0  0  0  0  0  0  0  0  0  0  0
  -11.4453    6.2239   -3.5396 H   0  0  0  0  0  0  0  0  0  0  0  0
  -12.3103    5.4502   -2.1103 H   0  0  0  0  0  0  0  0  0  0  0  0
  -13.4876    7.5448   -3.1917 H   0  0  0  0  0  0  0  0  0  0  0  0
  -10.9881    9.1403   -0.4530 H   0  0  0  0  0  0  0  0  0  0  0  0
  -13.2156    7.8246    1.2222 H   0  0  0  0  0  0  0  0  0  0  0  0
  -11.7597    8.7179    1.8494 H   0  0  0  0  0  0  0  0  0  0  0  0
  -13.8152   10.0921    1.9444 H   0  0  0  0  0  0  0  0  0  0  0  0
  -12.5545   10.7802    0.8470 H   0  0  0  0  0  0  0  0  0  0  0  0
  -14.6960   10.9828   -0.2167 H   0  0  0  0  0  0  0  0  0  0  0  0
  -14.8650    8.1220    0.1040 H   0  0  0  0  0  0  0  0  0  0  0  0
  -12.3655   11.4002   -1.0596 H   0  0  0  0  0  0  0  0  0  0  0  0
  -11.8881   10.5298   -2.5567 H   0  0  0  0  0  0  0  0  0  0  0  0
  -13.3405   11.5868   -2.5567 H   0  0  0  0  0  0  0  0  0  0  0  0
  -15.7199    9.4928   -2.0805 H   0  0  0  0  0  0  0  0  0  0  0  0
  -14.7473   10.4820   -3.2216 H   0  0  0  0  0  0  0  0  0  0  0  0
  -14.5864    8.6929   -3.2216 H   0  0  0  0  0  0  0  0  0  0  0  0
  -11.5074    6.0827    1.6602 H   0  0  0  0  0  0  0  0  0  0  0  0
  -12.6815    5.9613    0.3062 H   0  0  0  0  0  0  0  0  0  0  0  0
  -11.2022    4.9424    0.3062 H   0  0  0  0  0  0  0  0  0  0  0  0
   -9.8289    8.0874    1.4244 H   0  0  0  0  0  0  0  0  0  0  0  0
   -9.2233    6.3782    1.0408 H   0  0  0  0  0  0  0  0  0  0  0  0
   -8.5573    8.9471   -0.4226 H   0  0  0  0  0  0  0  0  0  0  0  0
   -7.4639    7.8865    0.5503 H   0  0  0  0  0  0  0  0  0  0  0  0
   -7.6522    5.5994    0.2246 H   0  0  0  0  0  0  0  0  0  0  0  0
   -8.3990    4.9088   -1.2559 H   0  0  0  0  0  0  0  0  0  0  0  0
   -6.6620    5.3665   -1.2559 H   0  0  0  0  0  0  0  0  0  0  0  0
  1  2  1  0
  2  3  1  0
  3  4  1  0
  4  5  1  0
  5  6  1  0
  6  7  1  0
  7  8  1  0
  7  9  1  0
  2 10  1  0
 10 11  1  0
 11 12  1  0
 12 13  1  0
 13 14  1  6
 13 15  1  0
 15 16  1  0
 16 17  1  0
 17 18  2  0
 18 19  1  0
 19 20  1  0
 20 21  1  0
 21 22  1  0
 22 23  1  0
 22 24  1  0
 24 25  1  0
 24 26  1  0
 19 27  1  0
 27 28  1  1
 27 29  1  0
 29 30  1  0
 30 31  1  0
 31 32  1  1
  7  5  1  0
 31 10  1  0
 31 13  1  0
 27 15  1  0
 24 18  1  0
  1 33  1  0
  1 34  1  0
  1 35  1  0
  2 36  1  6
  3 37  1  0
  3 38  1  0
  4 39  1  0
  4 40  1  0
  5 41  1  6
  8 42  1  0
  8 43  1  0
  8 44  1  0
  9 45  1  0
  9 46  1  0
  9 47  1  0
 10 48  1  6
 11 49  1  0
 11 50  1  0
 12 51  1  0
 12 52  1  0
 14 53  1  0
 14 54  1  0
 14 55  1  0
 15 56  1  1
 16 57  1  0
 16 58  1  0
 17 59  1  0
 19 60  1  6
 20 61  1  0
 20 62  1  0
 21 63  1  0
 21 64  1  0
 22 65  1  6
 23 66  1  0
 25 67  1  0
 25 68  1  0
 25 69  1  0
 26 70  1  0
 26 71  1  0
 26 72  1  0
 28 73  1  0
 28 74  1  0
 28 75  1  0
 29 76  1  0
 29 77  1  0
 30 78  1  0
 30 79  1  0
 32 80  1  0
 32 81  1  0
 32 82  1  0
M  END
>  <meeko>  (7) 
{"is_sidechain": [false], "intermolecular_energy": 2.731, "internal_energy": -0.839}

$$$$
EPH_relaxed_0001_pdb2pqr_Repair_206_r2_0001_out
     RDKit          3D

 82 86  0  0  0  0  0  0  0  0999 V2000
    0.0880    8.8550   -2.3250 C   0  0  0  0  0  0  0  0  0  0  0  0
    0.8460   10.0060   -2.9930 C   0  0  2  0  0  0  0  0  0  0  0  0
    2.3540    9.9700   -2.6760 C   0  0  0  0  0  0  0  0  0  0  0  0
    3.2350   10.4900   -3.8150 C   0  0  0  0  0  0  0  0  0  0  0  0
    4.6280   10.7870   -3.3470 C   0  0  2  0  0  0  0  0  0  0  0  0
    5.1920   11.9950   -3.8740 O   0  0  0  0  0  0  0  0  0  0  0  0
    5.8380   10.7720   -4.2620 C   0  0  0  0  0  0  0  0  0  0  0  0
    5.7120   10.4520   -5.7180 C   0  0  0  0  0  0  0  0  0  0  0  0
    7.1930   10.5870   -3.6530 C   0  0  0  0  0  0  0  0  0  0  0  0
    0.2540   11.3410   -2.5570 C   0  0  1  0  0  0  0  0  0  0  0  0
   -1.0370   11.1740   -1.7110 C   0  0  0  0  0  0  0  0  0  0  0  0
   -1.0330   12.3140   -0.6600 C   0  0  0  0  0  0  0  0  0  0  0  0
    0.0710   13.2840   -1.1410 C   0  0  1  0  0  0  0  0  0  0  0  0
   -0.6070   14.1430   -2.2550 C   0  0  0  0  0  0  0  0  0  0  0  0
    0.7300   14.1810   -0.0420 C   0  0  2  0  0  0  0  0  0  0  0  0
   -0.2270   15.1590    0.6620 C   0  0  0  0  0  0  0  0  0  0  0  0
   -0.3400   16.5060    0.0290 C   0  0  0  0  0  0  0  0  0  0  0  0
    0.5050   17.0140   -0.8870 C   0  0  0  0  0  0  0  0  0  0  0  0
    1.7660   16.2470   -1.3050 C   0  0  1  0  0  0  0  0  0  0  0  0
    2.9810   17.2120   -1.3110 C   0  0  0  0  0  0  0  0  0  0  0  0
    2.7390   18.4510   -2.1690 C   0  0  0  0  0  0  0  0  0  0  0  0
    1.5110   19.2180   -1.6860 C   0  0  2  0  0  0  0  0  0  0  0  0
    1.7850   19.7570   -0.3890 O   0  0  0  0  0  0  0  0  0  0  0  0
    0.2270   18.3440   -1.6290 C   0  0  0  0  0  0  0  0  0  0  0  0
   -0.2400   18.0100   -3.0670 C   0  0  0  0  0  0  0  0  0  0  0  0
   -0.9040   19.1980   -0.9930 C   0  0  0  0  0  0  0  0  0  0  0  0
    2.0580   14.9040   -0.5060 C   0  0  1  0  0  0  0  0  0  0  0  0
    2.8690   15.2200    0.7880 C   0  0  0  0  0  0  0  0  0  0  0  0
    2.9720   13.9710   -1.3860 C   0  0  0  0  0  0  0  0  0  0  0  0
    2.2560   13.0230   -2.3680 C   0  0  0  0  0  0  0  0  0  0  0  0
    1.1340   12.2520   -1.6660 C   0  0  2  0  0  0  0  0  0  0  0  0
    1.7880   11.3620   -0.5540 C   0  0  0  0  0  0  0  0  0  0  0  0
    0.1553    8.9572   -1.2318 H   0  0  0  0  0  0  0  0  0  0  0  0
   -0.9680    8.8845   -2.6317 H   0  0  0  0  0  0  0  0  0  0  0  0
    0.5322    7.8966   -2.6317 H   0  0  0  0  0  0  0  0  0  0  0  0
    0.7346    9.8875   -4.0809 H   0  0  0  0  0  0  0  0  0  0  0  0
    2.5365   10.5892   -1.7854 H   0  0  0  0  0  0  0  0  0  0  0  0
    2.6239    8.9156   -2.5166 H   0  0  0  0  0  0  0  0  0  0  0  0
    3.2799    9.7282   -4.6073 H   0  0  0  0  0  0  0  0  0  0  0  0
    2.7930   11.4244   -4.1913 H   0  0  0  0  0  0  0  0  0  0  0  0
    4.4300   10.3072   -2.3772 H   0  0  0  0  0  0  0  0  0  0  0  0
    5.3113    9.4344   -5.8364 H   0  0  0  0  0  0  0  0  0  0  0  0
    5.0303   11.1722   -6.1941 H   0  0  0  0  0  0  0  0  0  0  0  0
    6.7017   10.5141   -6.1941 H   0  0  0  0  0  0  0  0  0  0  0  0
    7.1069   10.5988   -2.5564 H   0  0  0  0  0  0  0  0  0  0  0  0
    7.6124    9.6233   -3.9775 H   0  0  0  0  0  0  0  0  0  0  0  0
    7.8554   11.4030   -3.9775 H   0  0  0  0  0  0  0  0  0  0  0  0
    0.1062   11.8077   -3.5421 H   0  0  0  0  0  0  0  0  0  0  0  0
   -1.9251   11.2554   -2.3549 H   0  0  0  0  0  0  0  0  0  0  0  0
   -1.0658   10.1879   -1.2243 H   0  0  0  0  0  0  0  0  0  0  0  0
   -2.0093   12.8200   -0.6322 H   0  0  0  0  0  0  0  0  0  0  0  0
   -0.8468   11.9420    0.3583 H   0  0  0  0  0  0  0  0  0  0  0  0
   -1.2246   14.9254   -1.7898 H   0  0  0  0  0  0  0  0  0  0  0  0
    0.1680   14.6108   -2.8800 H   0  0  0  0  0  0  0  0  0  0  0  0
   -1.2420   13.4979   -2.8800 H   0  0  0  0  0  0  0  0  0  0  0  0
    1.0189   13.4443    0.7221 H   0  0  0  0  0  0  0  0  0  0  0  0
   -1.2286   14.7044    0.6753 H   0  0  0  0  0  0  0  0  0  0  0  0
    0.1931   15.3278    1.6645 H   0  0  0  0  0  0  0  0  0  0  0  0
   -1.1862   17.1374    0.3376 H   0  0  0  0  0  0  0  0  0  0  0  0
    1.5747   15.8807   -2.3244 H   0  0  0  0  0  0  0  0  0  0  0  0
    3.1824   17.5320   -0.2780 H   0  0  0  0  0  0  0  0  0  0  0  0
    3.8364   16.6699   -1.7404 H   0  0  0  0  0  0  0  0  0  0  0  0
    3.6197   19.1074   -2.1098 H   0  0  0  0  0  0  0  0  0  0  0  0
    2.5669   18.1308   -3.2072 H   0  0  0  0  0  0  0  0  0  0  0  0
    1.3134   20.0182   -2.4145 H   0  0  0  0  0  0  0  0  0  0  0  0
    0.9610   20.1500   -0.0540 H   0  0  0  0  0  0  0  0  0  0  0  0
   -1.1340   17.3706   -3.0230 H   0  0  0  0  0  0  0  0  0  0  0  0
   -0.4814   18.9416   -3.5998 H   0  0  0  0  0  0  0  0  0  0  0  0
    0.5636   17.4805   -3.5998 H   0  0  0  0  0  0  0  0  0  0  0  0
   -0.8321   19.1437    0.1033 H   0  0  0  0  0  0  0  0  0  0  0  0
   -0.7992   20.2443   -1.3160 H   0  0  0  0  0  0  0  0  0  0  0  0
   -1.8816   18.8108   -1.3160 H   0  0  0  0  0  0  0  0  0  0  0  0
    2.2579   14.9819    1.6711 H   0  0  0  0  0  0  0  0  0  0  0  0
    3.7867   14.6136    0.8028 H   0  0  0  0  0  0  0  0  0  0  0  0
    3.1345   16.2874    0.8028 H   0  0  0  0  0  0  0  0  0  0  0  0
    3.6391   14.6179   -1.9746 H   0  0  0  0  0  0  0  0  0  0  0  0
    3.4837   13.3110   -0.6700 H   0  0  0  0  0  0  0  0  0  0  0  0
    1.8266   13.6141   -3.1903 H   0  0  0  0  0  0  0  0  0  0  0  0
    2.9892   12.3002   -2.7554 H   0  0  0  0  0  0  0  0  0  0  0  0
    1.5053   11.7467    0.4370 H   0  0  0  0  0  0  0  0  0  0  0  0
    1.4351   10.3255   -0.6593 H   0  0  0  0  0  0  0  0  0  0  0  0
    2.8826   11.3891   -0.6593 H   0  0  0  0  0  0  0  0  0  0  0  0
  1  2  1  0
  2  3  1  0
  3  4  1  0
  4  5  1  0
  5  6  1  0
  6  7  1  0
  7  8  1  0
  7  9  1  0
  2 10  1  0
 10 11  1  0
 11 12  1  0
 12 13  1  0
 13 14  1  6
 13 15  1  0
 15 16  1  0
 16 17  1  0
 17 18  2  0
 18 19  1  0
 19 20  1  0
 20 21  1  0
 21 22  1  0
 22 23  1  0
 22 24  1  0
 24 25  1  0
 24 26  1  0
 19 27  1  0
 27 28  1  1
 27 29  1  0
 29 30  1  0
 30 31  1  0
 31 32  1  1
  7  5  1  0
 31 10  1  0
 31 13  1  0
 27 15  1  0
 24 18  1  0
  1 33  1  0
  1 34  1  0
  1 35  1  0
  2 36  1  6
  3 37  1  0
  3 38  1  0
  4 39  1  0
  4 40  1  0
  5 41  1  1
  8 42  1  0
  8 43  1  0
  8 44  1  0
  9 45  1  0
  9 46  1  0
  9 47  1  0
 10 48  1  6
 11 49  1  0
 11 50  1  0
 12 51  1  0
 12 52  1  0
 14 53  1  0
 14 54  1  0
 14 55  1  0
 15 56  1  1
 16 57  1  0
 16 58  1  0
 17 59  1  0
 19 60  1  6
 20 61  1  0
 20 62  1  0
 21 63  1  0
 21 64  1  0
 22 65  1  6
 23 66  1  0
 25 67  1  0
 25 68  1  0
 25 69  1  0
 26 70  1  0
 26 71  1  0
 26 72  1  0
 28 73  1  0
 28 74  1  0
 28 75  1  0
 29 76  1  0
 29 77  1  0
 30 78  1  0
 30 79  1  0
 32 80  1  0
 32 81  1  0
 32 82  1  0
M  END
>  <meeko>  (8) 
{"is_sidechain": [false], "intermolecular_energy": 2.731, "internal_energy": -0.839}

$$$$
EPH_relaxed_0001_pdb2pqr_Repair_206_r2_0001_out
     RDKit          3D

 82 86  0  0  0  0  0  0  0  0999 V2000
    0.0350    9.5420   -2.4390 C   0  0  0  0  0  0  0  0  0  0  0  0
    1.1470   10.5050   -2.8640 C   0  0  2  0  0  0  0  0  0  0  0  0
    2.5110    9.7960   -2.9930 C   0  0  0  0  0  0  0  0  0  0  0  0
    3.4780   10.4940   -3.9530 C   0  0  0  0  0  0  0  0  0  0  0  0
    4.8520   10.6150   -3.3650 C   0  0  2  0  0  0  0  0  0  0  0  0
    5.4820   11.8850   -3.5730 O   0  0  0  0  0  0  0  0  0  0  0  0
    6.1100   10.7560   -4.2010 C   0  0  0  0  0  0  0  0  0  0  0  0
    6.0540   10.7830   -5.6970 C   0  0  0  0  0  0  0  0  0  0  0  0
    7.4220   10.3770   -3.5890 C   0  0  0  0  0  0  0  0  0  0  0  0
    1.2490   11.6530   -1.8660 C   0  0  1  0  0  0  0  0  0  0  0  0
    2.4550   11.5010   -0.9020 C   0  0  0  0  0  0  0  0  0  0  0  0
    2.9840   12.9310   -0.6180 C   0  0  0  0  0  0  0  0  0  0  0  0
    1.8770   13.8690   -1.1520 C   0  0  1  0  0  0  0  0  0  0  0  0
    0.8020   13.9060   -0.0210 C   0  0  0  0  0  0  0  0  0  0  0  0
    2.3300   15.3070   -1.5650 C   0  0  2  0  0  0  0  0  0  0  0  0
    2.9060   16.1630   -0.4240 C   0  0  0  0  0  0  0  0  0  0  0  0
    1.9110   16.9930    0.3170 C   0  0  0  0  0  0  0  0  0  0  0  0
    0.6610   17.2710   -0.0980 C   0  0  0  0  0  0  0  0  0  0  0  0
    0.1680   16.8110   -1.4770 C   0  0  1  0  0  0  0  0  0  0  0  0
   -0.5520   17.9860   -2.1880 C   0  0  0  0  0  0  0  0  0  0  0  0
   -1.6690   18.5870   -1.3400 C   0  0  0  0  0  0  0  0  0  0  0  0
   -1.1300   19.0860   -0.0010 C   0  0  2  0  0  0  0  0  0  0  0  0
   -0.2570   20.1940   -0.2400 O   0  0  0  0  0  0  0  0  0  0  0  0
   -0.3750   17.9890    0.8010 C   0  0  0  0  0  0  0  0  0  0  0  0
   -1.3840   16.9350    1.3190 C   0  0  0  0  0  0  0  0  0  0  0  0
    0.2390   18.6580    2.0610 C   0  0  0  0  0  0  0  0  0  0  0  0
    1.2530   16.1100   -2.4030 C   0  0  1  0  0  0  0  0  0  0  0  0
    2.0350   17.1880   -3.2150 C   0  0  0  0  0  0  0  0  0  0  0  0
    0.5190   15.2030   -3.4600 C   0  0  0  0  0  0  0  0  0  0  0  0
    0.2060   13.7560   -3.0350 C   0  0  0  0  0  0  0  0  0  0  0  0
    1.4440   13.0780   -2.4410 C   0  0  2  0  0  0  0  0  0  0  0  0
    2.5350   13.0070   -3.5630 C   0  0  0  0  0  0  0  0  0  0  0  0
   -0.0137    9.4998   -1.3409 H   0  0  0  0  0  0  0  0  0  0  0  0
   -0.9281    9.8961   -2.8354 H   0  0  0  0  0  0  0  0  0  0  0  0
    0.2479    8.5382   -2.8354 H   0  0  0  0  0  0  0  0  0  0  0  0
    0.8838   10.8977   -3.8572 H   0  0  0  0  0  0  0  0  0  0  0  0
    2.9776    9.7565   -1.9976 H   0  0  0  0  0  0  0  0  0  0  0  0
    2.3157    8.7947   -3.4044 H   0  0  0  0  0  0  0  0  0  0  0  0
    3.5387    9.9114   -4.8841 H   0  0  0  0  0  0  0  0  0  0  0  0
    3.0972   11.5077   -4.1466 H   0  0  0  0  0  0  0  0  0  0  0  0
    4.5854    9.9356   -2.5420 H   0  0  0  0  0  0  0  0  0  0  0  0
    5.1069   11.2396   -6.0203 H   0  0  0  0  0  0  0  0  0  0  0  0
    6.8970   11.3736   -6.0849 H   0  0  0  0  0  0  0  0  0  0  0  0
    6.1169    9.7556   -6.0849 H   0  0  0  0  0  0  0  0  0  0  0  0
    7.3360   10.4018   -2.4926 H   0  0  0  0  0  0  0  0  0  0  0  0
    7.6979    9.3624   -3.9123 H   0  0  0  0  0  0  0  0  0  0  0  0
    8.1964   11.0882   -3.9123 H   0  0  0  0  0  0  0  0  0  0  0  0
    0.2614   11.5715   -1.3884 H   0  0  0  0  0  0  0  0  0  0  0  0
    2.1330   11.0232    0.0350 H   0  0  0  0  0  0  0  0  0  0  0  0
    3.2393   10.8710   -1.3470 H   0  0  0  0  0  0  0  0  0  0  0  0
    3.1342   13.0824    0.4611 H   0  0  0  0  0  0  0  0  0  0  0  0
    3.9567   13.1188   -1.0962 H   0  0  0  0  0  0  0  0  0  0  0  0
    1.3005   13.8888    0.9594 H   0  0  0  0  0  0  0  0  0  0  0  0
    0.2048   14.8252   -0.1127 H   0  0  0  0  0  0  0  0  0  0  0  0
    0.1430   13.0300   -0.1127 H   0  0  0  0  0  0  0  0  0  0  0  0
    3.1740   15.1034   -2.2405 H   0  0  0  0  0  0  0  0  0  0  0  0
    3.3888   15.4871    0.2972 H   0  0  0  0  0  0  0  0  0  0  0  0
    3.6007   16.8724   -0.8975 H   0  0  0  0  0  0  0  0  0  0  0  0
    2.2258   17.4129    1.2837 H   0  0  0  0  0  0  0  0  0  0  0  0
   -0.5457   15.9956   -1.2881 H   0  0  0  0  0  0  0  0  0  0  0  0
    0.1864   18.7715   -2.4065 H   0  0  0  0  0  0  0  0  0  0  0  0
   -1.0072   17.5908   -3.1081 H   0  0  0  0  0  0  0  0  0  0  0  0
   -2.1194   19.4306   -1.8836 H   0  0  0  0  0  0  0  0  0  0  0  0
   -2.4212   17.8079   -1.1471 H   0  0  0  0  0  0  0  0  0  0  0  0
   -1.9928   19.3856    0.6121 H   0  0  0  0  0  0  0  0  0  0  0  0
    0.4360   19.8960   -0.8530 H   0  0  0  0  0  0  0  0  0  0  0  0
   -1.3830   16.9360    2.4190 H   0  0  0  0  0  0  0  0  0  0  0  0
   -2.3917   17.1812    0.9530 H   0  0  0  0  0  0  0  0  0  0  0  0
   -1.0941   15.9390    0.9530 H   0  0  0  0  0  0  0  0  0  0  0  0
   -0.1850   18.1961    2.9648 H   0  0  0  0  0  0  0  0  0  0  0  0
    1.3301   18.5186    2.0553 H   0  0  0  0  0  0  0  0  0  0  0  0
    0.0067   19.7332    2.0553 H   0  0  0  0  0  0  0  0  0  0  0  0
    2.5358   17.8784   -2.5204 H   0  0  0  0  0  0  0  0  0  0  0  0
    2.7873   16.6955   -3.8486 H   0  0  0  0  0  0  0  0  0  0  0  0
    1.3333   17.7503   -3.8486 H   0  0  0  0  0  0  0  0  0  0  0  0
   -0.4349   15.6899   -3.7111 H   0  0  0  0  0  0  0  0  0  0  0  0
    1.2241   15.1105   -4.2992 H   0  0  0  0  0  0  0  0  0  0  0  0
   -0.5944   13.7679   -2.2805 H   0  0  0  0  0  0  0  0  0  0  0  0
   -0.1104   13.1905   -3.9239 H   0  0  0  0  0  0  0  0  0  0  0  0
    3.5316   12.9421   -3.1018 H   0  0  0  0  0  0  0  0  0  0  0  0
    2.3614   12.1183   -4.1875 H   0  0  0  0  0  0  0  0  0  0  0  0
    2.4781   13.9107   -4.1875 H   0  0  0  0  0  0  0  0  0  0  0  0
  1  2  1  0
  2  3  1  0
  3  4  1  0
  4  5  1  0
  5  6  1  0
  6  7  1  0
  7  8  1  0
  7  9  1  0
  2 10  1  0
 10 11  1  0
 11 12  1  0
 12 13  1  0
 13 14  1  1
 13 15  1  0
 15 16  1  0
 16 17  1  0
 17 18  2  0
 18 19  1  0
 19 20  1  0
 20 21  1  0
 21 22  1  0
 22 23  1  0
 22 24  1  0
 24 25  1  0
 24 26  1  0
 19 27  1  0
 27 28  1  6
 27 29  1  0
 29 30  1  0
 30 31  1  0
 31 32  1  6
  7  5  1  0
 31 10  1  0
 31 13  1  0
 27 15  1  0
 24 18  1  0
  1 33  1  0
  1 34  1  0
  1 35  1  0
  2 36  1  6
  3 37  1  0
  3 38  1  0
  4 39  1  0
  4 40  1  0
  5 41  1  1
  8 42  1  0
  8 43  1  0
  8 44  1  0
  9 45  1  0
  9 46  1  0
  9 47  1  0
 10 48  1  1
 11 49  1  0
 11 50  1  0
 12 51  1  0
 12 52  1  0
 14 53  1  0
 14 54  1  0
 14 55  1  0
 15 56  1  6
 16 57  1  0
 16 58  1  0
 17 59  1  0
 19 60  1  1
 20 61  1  0
 20 62  1  0
 21 63  1  0
 21 64  1  0
 22 65  1  1
 23 66  1  0
 25 67  1  0
 25 68  1  0
 25 69  1  0
 26 70  1  0
 26 71  1  0
 26 72  1  0
 28 73  1  0
 28 74  1  0
 28 75  1  0
 29 76  1  0
 29 77  1  0
 30 78  1  0
 30 79  1  0
 32 80  1  0
 32 81  1  0
 32 82  1  0
M  END
>  <meeko>  (9) 
{"is_sidechain": [false], "intermolecular_energy": 2.731, "internal_energy": -0.839}

$$$$
EPH_relaxed_0001_pdb2pqr_Repair_206_r2_0001_out
     RDKit          3D

 82 86  0  0  0  0  0  0  0  0999 V2000
   -3.5410    7.3980   -3.6410 C   0  0  0  0  0  0  0  0  0  0  0  0
   -3.4860    7.3180   -2.1120 C   0  0  2  0  0  0  0  0  0  0  0  0
   -4.8440    6.9140   -1.5030 C   0  0  0  0  0  0  0  0  0  0  0  0
   -6.0180    7.0450   -2.4770 C   0  0  0  0  0  0  0  0  0  0  0  0
   -7.3060    7.3120   -1.7580 C   0  0  2  0  0  0  0  0  0  0  0  0
   -7.9210    6.1530   -1.1800 O   0  0  0  0  0  0  0  0  0  0  0  0
   -8.6520    6.7980   -2.2350 C   0  0  0  0  0  0  0  0  0  0  0  0
   -8.7770    5.9760   -3.4790 C   0  0  0  0  0  0  0  0  0  0  0  0
   -9.8910    7.4980   -1.7700 C   0  0  0  0  0  0  0  0  0  0  0  0
   -3.0340    8.6550   -1.5370 C   0  0  1  0  0  0  0  0  0  0  0  0
   -3.7170    8.9840   -0.1830 C   0  0  0  0  0  0  0  0  0  0  0  0
   -2.6690    9.7410    0.6730 C   0  0  0  0  0  0  0  0  0  0  0  0
   -1.5460   10.1120   -0.3230 C   0  0  1  0  0  0  0  0  0  0  0  0
   -2.0620   11.3930   -1.0500 C   0  0  0  0  0  0  0  0  0  0  0  0
   -0.1230   10.3300    0.2890 C   0  0  2  0  0  0  0  0  0  0  0  0
   -0.0150   11.4920    1.2920 C   0  0  0  0  0  0  0  0  0  0  0  0
    0.3450   12.8140    0.6990 C   0  0  0  0  0  0  0  0  0  0  0  0
    0.8500   13.0070   -0.5340 C   0  0  0  0  0  0  0  0  0  0  0  0
    1.1990   11.8170   -1.4370 C   0  0  1  0  0  0  0  0  0  0  0  0
    2.6010   12.0360   -2.0630 C   0  0  0  0  0  0  0  0  0  0  0  0
    2.7150   13.3730   -2.7890 C   0  0  0  0  0  0  0  0  0  0  0  0
    2.4180   14.5340   -1.8440 C   0  0  2  0  0  0  0  0  0  0  0  0
    3.4510   14.6000   -0.8560 O   0  0  0  0  0  0  0  0  0  0  0  0
    1.0340   14.4170   -1.1460 C   0  0  0  0  0  0  0  0  0  0  0  0
   -0.0930   14.6480   -2.1830 C   0  0  0  0  0  0  0  0  0  0  0  0
    0.9200   15.5730   -0.1160 C   0  0  0  0  0  0  0  0  0  0  0  0
    1.0420   10.3780   -0.7800 C   0  0  1  0  0  0  0  0  0  0  0  0
    2.3520    9.9910   -0.0280 C   0  0  0  0  0  0  0  0  0  0  0  0
    0.8520    9.3100   -1.9210 C   0  0  0  0  0  0  0  0  0  0  0  0
   -0.5900    9.0540   -2.4000 C   0  0  0  0  0  0  0  0  0  0  0  0
   -1.5280    8.8160   -1.2120 C   0  0  2  0  0  0  0  0  0  0  0  0
   -1.0460    7.5210   -0.4740 C   0  0  0  0  0  0  0  0  0  0  0  0
   -4.1405    8.2700   -3.9412 H   0  0  0  0  0  0  0  0  0  0  0  0
   -2.5209    7.4995   -4.0398 H   0  0  0  0  0  0  0  0  0  0  0  0
   -4.0011    6.4819   -4.0398 H   0  0  0  0  0  0  0  0  0  0  0  0
   -2.7595    6.5356   -1.8474 H   0  0  0  0  0  0  0  0  0  0  0  0
   -4.7798    5.8659   -1.1753 H   0  0  0  0  0  0  0  0  0  0  0  0
   -5.0400    7.6031   -0.6683 H   0  0  0  0  0  0  0  0  0  0  0  0
   -5.8166    7.8763   -3.1687 H   0  0  0  0  0  0  0  0  0  0  0  0
   -6.1195    6.0951   -3.0223 H   0  0  0  0  0  0  0  0  0  0  0  0
   -6.9608    8.3138   -1.4626 H   0  0  0  0  0  0  0  0  0  0  0  0
   -8.9373    4.9221   -3.2076 H   0  0  0  0  0  0  0  0  0  0  0  0
   -9.6308    6.3358   -4.0720 H   0  0  0  0  0  0  0  0  0  0  0  0
   -7.8549    6.0658   -4.0720 H   0  0  0  0  0  0  0  0  0  0  0  0
   -9.9140    7.5110   -0.6703 H   0  0  0  0  0  0  0  0  0  0  0  0
   -9.8929    8.5306   -2.1490 H   0  0  0  0  0  0  0  0  0  0  0  0
  -10.7765    6.9667   -2.1490 H   0  0  0  0  0  0  0  0  0  0  0  0
   -3.3121    9.3179   -2.3696 H   0  0  0  0  0  0  0  0  0  0  0  0
   -4.6006    9.6180   -0.3484 H   0  0  0  0  0  0  0  0  0  0  0  0
   -4.0534    8.0672    0.3233 H   0  0  0  0  0  0  0  0  0  0  0  0
   -3.1100   10.6463    1.1157 H   0  0  0  0  0  0  0  0  0  0  0  0
   -2.2985    9.1336    1.5119 H   0  0  0  0  0  0  0  0  0  0  0  0
   -2.3637   12.1421   -0.3031 H   0  0  0  0  0  0  0  0  0  0  0  0
   -1.2599   11.8055   -1.6797 H   0  0  0  0  0  0  0  0  0  0  0  0
   -2.9261   11.1343   -1.6797 H   0  0  0  0  0  0  0  0  0  0  0  0
    0.0232    9.4128    0.8784 H   0  0  0  0  0  0  0  0  0  0  0  0
   -0.9874   11.5985    1.7950 H   0  0  0  0  0  0  0  0  0  0  0  0
    0.8072   11.2301    1.9742 H   0  0  0  0  0  0  0  0  0  0  0  0
    0.1840   13.7059    1.3223 H   0  0  0  0  0  0  0  0  0  0  0  0
    0.4350   11.8015   -2.2283 H   0  0  0  0  0  0  0  0  0  0  0  0
    3.3538   12.0046   -1.2616 H   0  0  0  0  0  0  0  0  0  0  0  0
    2.7644   11.2390   -2.8033 H   0  0  0  0  0  0  0  0  0  0  0  0
    3.7359   13.4823   -3.1838 H   0  0  0  0  0  0  0  0  0  0  0  0
    1.9816   13.3911   -3.6086 H   0  0  0  0  0  0  0  0  0  0  0  0
    2.3876   15.4523   -2.4489 H   0  0  0  0  0  0  0  0  0  0  0  0
    3.7200   15.5310   -0.7740 H   0  0  0  0  0  0  0  0  0  0  0  0
   -1.0400   14.8421   -1.6582 H   0  0  0  0  0  0  0  0  0  0  0  0
    0.1607   15.5128   -2.8137 H   0  0  0  0  0  0  0  0  0  0  0  0
   -0.2000   13.7531   -2.8137 H   0  0  0  0  0  0  0  0  0  0  0  0
    0.9606   15.1613    0.9032 H   0  0  0  0  0  0  0  0  0  0  0  0
    1.7531   16.2765   -0.2607 H   0  0  0  0  0  0  0  0  0  0  0  0
   -0.0345   16.1002   -0.2607 H   0  0  0  0  0  0  0  0  0  0  0  0
    2.1804   10.0417    1.0573 H   0  0  0  0  0  0  0  0  0  0  0  0
    2.6454    8.9678   -0.3054 H   0  0  0  0  0  0  0  0  0  0  0  0
    3.1543   10.6905   -0.3054 H   0  0  0  0  0  0  0  0  0  0  0  0
    1.4370    9.6443   -2.7905 H   0  0  0  0  0  0  0  0  0  0  0  0
    1.1827    8.3574   -1.4815 H   0  0  0  0  0  0  0  0  0  0  0  0
   -0.9417    9.9288   -2.9666 H   0  0  0  0  0  0  0  0  0  0  0  0
   -0.5944    8.1564   -3.0359 H   0  0  0  0  0  0  0  0  0  0  0  0
   -1.1036    7.6758    0.6135 H   0  0  0  0  0  0  0  0  0  0  0  0
   -1.6897    6.6756   -0.7587 H   0  0  0  0  0  0  0  0  0  0  0  0
   -0.0062    7.3022   -0.7587 H   0  0  0  0  0  0  0  0  0  0  0  0
  1  2  1  0
  2  3  1  0
  3  4  1  0
  4  5  1  0
  5  6  1  0
  6  7  1  0
  7  8  1  0
  7  9  1  0
  2 10  1  0
 10 11  1  0
 11 12  1  0
 12 13  1  0
 13 14  1  6
 13 15  1  0
 15 16  1  0
 16 17  1  0
 17 18  2  0
 18 19  1  0
 19 20  1  0
 20 21  1  0
 21 22  1  0
 22 23  1  0
 22 24  1  0
 24 25  1  0
 24 26  1  0
 19 27  1  0
 27 28  1  1
 27 29  1  0
 29 30  1  0
 30 31  1  0
 31 32  1  1
  7  5  1  0
 31 10  1  0
 31 13  1  0
 27 15  1  0
 24 18  1  0
  1 33  1  0
  1 34  1  0
  1 35  1  0
  2 36  1  6
  3 37  1  0
  3 38  1  0
  4 39  1  0
  4 40  1  0
  5 41  1  1
  8 42  1  0
  8 43  1  0
  8 44  1  0
  9 45  1  0
  9 46  1  0
  9 47  1  0
 10 48  1  6
 11 49  1  0
 11 50  1  0
 12 51  1  0
 12 52  1  0
 14 53  1  0
 14 54  1  0
 14 55  1  0
 15 56  1  1
 16 57  1  0
 16 58  1  0
 17 59  1  0
 19 60  1  6
 20 61  1  0
 20 62  1  0
 21 63  1  0
 21 64  1  0
 22 65  1  6
 23 66  1  0
 25 67  1  0
 25 68  1  0
 25 69  1  0
 26 70  1  0
 26 71  1  0
 26 72  1  0
 28 73  1  0
 28 74  1  0
 28 75  1  0
 29 76  1  0
 29 77  1  0
 30 78  1  0
 30 79  1  0
 32 80  1  0
 32 81  1  0
 32 82  1  0
M  END
>  <meeko>  (10) 
{"is_sidechain": [false], "intermolecular_energy": 2.731, "internal_energy": -0.839}

$$$$
EPH_relaxed_0001_pdb2pqr_Repair_206_r2_0001_out
     RDKit          3D

 82 86  0  0  0  0  0  0  0  0999 V2000
   -0.8550   16.3550   -5.8400 C   0  0  0  0  0  0  0  0  0  0  0  0
    0.2310   15.6510   -6.6580 C   0  0  2  0  0  0  0  0  0  0  0  0
   -0.1790   15.4700   -8.1330 C   0  0  0  0  0  0  0  0  0  0  0  0
    0.4580   16.4910   -9.0800 C   0  0  0  0  0  0  0  0  0  0  0  0
    1.8600   16.1070   -9.4460 C   0  0  2  0  0  0  0  0  0  0  0  0
    2.3300   16.6670  -10.6800 O   0  0  0  0  0  0  0  0  0  0  0  0
    2.2030   15.2360  -10.6400 C   0  0  0  0  0  0  0  0  0  0  0  0
    1.1400   14.6950  -11.5430 C   0  0  0  0  0  0  0  0  0  0  0  0
    3.5150   14.5150  -10.6460 C   0  0  0  0  0  0  0  0  0  0  0  0
    0.5540   14.2970   -6.0370 C   0  0  1  0  0  0  0  0  0  0  0  0
    1.8240   13.6470   -6.6500 C   0  0  0  0  0  0  0  0  0  0  0  0
    2.5310   12.8810   -5.5020 C   0  0  0  0  0  0  0  0  0  0  0  0
    1.4880   12.8360   -4.3610 C   0  0  1  0  0  0  0  0  0  0  0  0
    0.5380   11.6550   -4.7330 C   0  0  0  0  0  0  0  0  0  0  0  0
    2.0560   12.6870   -2.9120 C   0  0  2  0  0  0  0  0  0  0  0  0
    2.8300   11.3840   -2.6450 C   0  0  0  0  0  0  0  0  0  0  0  0
    2.0070   10.2460   -2.1390 C   0  0  0  0  0  0  0  0  0  0  0  0
    0.7620   10.3430   -1.6380 C   0  0  0  0  0  0  0  0  0  0  0  0
    0.0920   11.7100   -1.4530 C   0  0  1  0  0  0  0  0  0  0  0  0
   -0.5590   11.7810   -0.0460 C   0  0  0  0  0  0  0  0  0  0  0  0
   -1.5160   10.6220    0.2140 C   0  0  0  0  0  0  0  0  0  0  0  0
   -0.8000    9.2810    0.0770 C   0  0  2  0  0  0  0  0  0  0  0  0
    0.1630    9.1640    1.1290 O   0  0  0  0  0  0  0  0  0  0  0  0
   -0.0970    9.1000   -1.2970 C   0  0  0  0  0  0  0  0  0  0  0  0
   -1.1620    8.9250   -2.4070 C   0  0  0  0  0  0  0  0  0  0  0  0
    0.7050    7.7710   -1.2520 C   0  0  0  0  0  0  0  0  0  0  0  0
    0.9990   12.9760   -1.7700 C   0  0  1  0  0  0  0  0  0  0  0  0
    1.8130   13.3770   -0.5020 C   0  0  0  0  0  0  0  0  0  0  0  0
    0.0720   14.2020   -2.1090 C   0  0  0  0  0  0  0  0  0  0  0  0
   -0.3580   14.3630   -3.5790 C   0  0  0  0  0  0  0  0  0  0  0  0
    0.8500   14.2640   -4.5170 C   0  0  2  0  0  0  0  0  0  0  0  0
    1.8140   15.4530   -4.1820 C   0  0  0  0  0  0  0  0  0  0  0  0
   -0.6501   16.2222   -4.7674 H   0  0  0  0  0  0  0  0  0  0  0  0
   -0.8590   17.4279   -6.0824 H   0  0  0  0  0  0  0  0  0  0  0  0
   -1.8361   15.9207   -6.0824 H   0  0  0  0  0  0  0  0  0  0  0  0
    1.1256   16.2908   -6.6403 H   0  0  0  0  0  0  0  0  0  0  0  0
    0.1220   14.4624   -8.4557 H   0  0  0  0  0  0  0  0  0  0  0  0
   -1.2675   15.6202   -8.1843 H   0  0  0  0  0  0  0  0  0  0  0  0
   -0.1461   16.5520   -9.9973 H   0  0  0  0  0  0  0  0  0  0  0  0
    0.4914   17.4625   -8.5652 H   0  0  0  0  0  0  0  0  0  0  0  0
    2.1483   16.0522   -8.3859 H   0  0  0  0  0  0  0  0  0  0  0  0
    0.3216   14.2785  -10.9375 H   0  0  0  0  0  0  0  0  0  0  0  0
    0.7510   15.5048  -12.1778 H   0  0  0  0  0  0  0  0  0  0  0  0
    1.5658   13.9039  -12.1778 H   0  0  0  0  0  0  0  0  0  0  0  0
    3.8400   14.3364   -9.6104 H   0  0  0  0  0  0  0  0  0  0  0  0
    3.4020   13.5523  -11.1660 H   0  0  0  0  0  0  0  0  0  0  0  0
    4.2671   15.1265  -11.1660 H   0  0  0  0  0  0  0  0  0  0  0  0
   -0.3868   13.7677   -6.2485 H   0  0  0  0  0  0  0  0  0  0  0  0
    1.5431   12.9505   -7.4538 H   0  0  0  0  0  0  0  0  0  0  0  0
    2.4877   14.4088   -7.0848 H   0  0  0  0  0  0  0  0  0  0  0  0
    2.8000   11.8636   -5.8223 H   0  0  0  0  0  0  0  0  0  0  0  0
    3.4675   13.3673   -5.1915 H   0  0  0  0  0  0  0  0  0  0  0  0
    0.1599   11.1849   -3.8132 H   0  0  0  0  0  0  0  0  0  0  0  0
   -0.3076   12.0368   -5.3240 H   0  0  0  0  0  0  0  0  0  0  0  0
    1.0921   10.9109   -5.3240 H   0  0  0  0  0  0  0  0  0  0  0  0
    2.8039   13.4924   -2.8671 H   0  0  0  0  0  0  0  0  0  0  0  0
    3.3018   11.0696   -3.5877 H   0  0  0  0  0  0  0  0  0  0  0  0
    3.5512   11.6163   -1.8476 H   0  0  0  0  0  0  0  0  0  0  0  0
    2.4566    9.2429   -2.1791 H   0  0  0  0  0  0  0  0  0  0  0  0
   -0.6855   11.7749   -2.2284 H   0  0  0  0  0  0  0  0  0  0  0  0
    0.2372   11.7580    0.7126 H   0  0  0  0  0  0  0  0  0  0  0  0
   -1.1408   12.7131    0.0064 H   0  0  0  0  0  0  0  0  0  0  0  0
   -1.9209   10.7113    1.2329 H   0  0  0  0  0  0  0  0  0  0  0  0
   -2.3272   10.6638   -0.5277 H   0  0  0  0  0  0  0  0  0  0  0  0
   -1.5622    8.4908    0.1458 H   0  0  0  0  0  0  0  0  0  0  0  0
   -0.3220    9.1520    1.9720 H   0  0  0  0  0  0  0  0  0  0  0  0
   -2.1479    8.7630   -1.9469 H   0  0  0  0  0  0  0  0  0  0  0  0
   -1.1930    9.8301   -3.0314 H   0  0  0  0  0  0  0  0  0  0  0  0
   -0.9017    8.0576   -3.0314 H   0  0  0  0  0  0  0  0  0  0  0  0
    0.8788    7.4829   -0.2047 H   0  0  0  0  0  0  0  0  0  0  0  0
    0.1332    6.9803   -1.7597 H   0  0  0  0  0  0  0  0  0  0  0  0
    1.6711    7.9084   -1.7597 H   0  0  0  0  0  0  0  0  0  0  0  0
    1.2479   13.0986    0.3997 H   0  0  0  0  0  0  0  0  0  0  0  0
    2.7796   12.8520   -0.5056 H   0  0  0  0  0  0  0  0  0  0  0  0
    1.9858   14.4633   -0.5056 H   0  0  0  0  0  0  0  0  0  0  0  0
   -0.8415   14.1056   -1.5039 H   0  0  0  0  0  0  0  0  0  0  0  0
    0.6800   15.0917   -1.8883 H   0  0  0  0  0  0  0  0  0  0  0  0
   -1.0768   13.5699   -3.8328 H   0  0  0  0  0  0  0  0  0  0  0  0
   -0.8189   15.3540   -3.7035 H   0  0  0  0  0  0  0  0  0  0  0  0
    1.8999   15.5590   -3.0905 H   0  0  0  0  0  0  0  0  0  0  0  0
    2.8071   15.2517   -4.6102 H   0  0  0  0  0  0  0  0  0  0  0  0
    1.4117   16.3830   -4.6102 H   0  0  0  0  0  0  0  0  0  0  0  0
  1  2  1  0
  2  3  1  0
  3  4  1  0
  4  5  1  0
  5  6  1  0
  6  7  1  0
  7  8  1  0
  7  9  1  0
  2 10  1  0
 10 11  1  0
 11 12  1  0
 12 13  1  0
 13 14  1  6
 13 15  1  0
 15 16  1  0
 16 17  1  0
 17 18  2  0
 18 19  1  0
 19 20  1  0
 20 21  1  0
 21 22  1  0
 22 23  1  0
 22 24  1  0
 24 25  1  0
 24 26  1  0
 19 27  1  0
 27 28  1  1
 27 29  1  0
 29 30  1  0
 30 31  1  0
 31 32  1  1
  7  5  1  0
 31 10  1  0
 31 13  1  0
 27 15  1  0
 24 18  1  0
  1 33  1  0
  1 34  1  0
  1 35  1  0
  2 36  1  6
  3 37  1  0
  3 38  1  0
  4 39  1  0
  4 40  1  0
  5 41  1  1
  8 42  1  0
  8 43  1  0
  8 44  1  0
  9 45  1  0
  9 46  1  0
  9 47  1  0
 10 48  1  1
 11 49  1  0
 11 50  1  0
 12 51  1  0
 12 52  1  0
 14 53  1  0
 14 54  1  0
 14 55  1  0
 15 56  1  6
 16 57  1  0
 16 58  1  0
 17 59  1  0
 19 60  1  6
 20 61  1  0
 20 62  1  0
 21 63  1  0
 21 64  1  0
 22 65  1  1
 23 66  1  0
 25 67  1  0
 25 68  1  0
 25 69  1  0
 26 70  1  0
 26 71  1  0
 26 72  1  0
 28 73  1  0
 28 74  1  0
 28 75  1  0
 29 76  1  0
 29 77  1  0
 30 78  1  0
 30 79  1  0
 32 80  1  0
 32 81  1  0
 32 82  1  0
M  END
>  <meeko>  (11) 
{"is_sidechain": [false], "intermolecular_energy": 2.731, "internal_energy": -0.839}

$$$$
EPH_relaxed_0001_pdb2pqr_Repair_206_r2_0001_out
     RDKit          3D

 82 86  0  0  0  0  0  0  0  0999 V2000
   -1.9140    7.7630   -1.9950 C   0  0  0  0  0  0  0  0  0  0  0  0
   -2.2320    8.5120   -0.6980 C   0  0  2  0  0  0  0  0  0  0  0  0
   -3.7440    8.5340   -0.3960 C   0  0  0  0  0  0  0  0  0  0  0  0
   -4.5830    7.7300   -1.3930 C   0  0  0  0  0  0  0  0  0  0  0  0
   -5.7580    7.0780   -0.7300 C   0  0  2  0  0  0  0  0  0  0  0  0
   -6.3820    6.0430   -1.5010 O   0  0  0  0  0  0  0  0  0  0  0  0
   -7.1820    7.2070   -1.2380 C   0  0  0  0  0  0  0  0  0  0  0  0
   -7.5060    8.0120   -2.4570 C   0  0  0  0  0  0  0  0  0  0  0  0
   -8.3080    6.9620   -0.2820 C   0  0  0  0  0  0  0  0  0  0  0  0
   -1.6960    9.9370   -0.7770 C   0  0  1  0  0  0  0  0  0  0  0  0
   -1.2530   10.4860    0.6060 C   0  0  0  0  0  0  0  0  0  0  0  0
   -0.0260   11.3990    0.3530 C   0  0  0  0  0  0  0  0  0  0  0  0
   -0.0070   11.6100   -1.1790 C   0  0  1  0  0  0  0  0  0  0  0  0
   -1.0570   12.7360   -1.4420 C   0  0  0  0  0  0  0  0  0  0  0  0
    1.3800   11.9560   -1.8120 C   0  0  2  0  0  0  0  0  0  0  0  0
    2.0060   13.2770   -1.3310 C   0  0  0  0  0  0  0  0  0  0  0  0
    1.6520   14.4820   -2.1390 C   0  0  0  0  0  0  0  0  0  0  0  0
    1.1000   14.4660   -3.3660 C   0  0  0  0  0  0  0  0  0  0  0  0
    0.8650   13.1430   -4.1070 C   0  0  1  0  0  0  0  0  0  0  0  0
    1.3600   13.2740   -5.5710 C   0  0  0  0  0  0  0  0  0  0  0  0
    0.7390   14.4660   -6.2940 C   0  0  0  0  0  0  0  0  0  0  0  0
    1.0440   15.7690   -5.5590 C   0  0  2  0  0  0  0  0  0  0  0  0
    2.4490   16.0240   -5.6380 O   0  0  0  0  0  0  0  0  0  0  0  0
    0.5980   15.7510   -4.0700 C   0  0  0  0  0  0  0  0  0  0  0  0
   -0.9480   15.7770   -3.9890 C   0  0  0  0  0  0  0  0  0  0  0  0
    1.0900   17.0660   -3.4080 C   0  0  0  0  0  0  0  0  0  0  0  0
    1.4210   11.8380   -3.3890 C   0  0  1  0  0  0  0  0  0  0  0  0
    2.9130   11.6110   -3.7810 C   0  0  0  0  0  0  0  0  0  0  0  0
    0.6280   10.5840   -3.9160 C   0  0  0  0  0  0  0  0  0  0  0  0
   -0.6730   10.2230   -3.1740 C   0  0  0  0  0  0  0  0  0  0  0  0
   -0.4470   10.1800   -1.6600 C   0  0  2  0  0  0  0  0  0  0  0  0
    0.5880    9.0410   -1.3630 C   0  0  0  0  0  0  0  0  0  0  0  0
   -1.4945    6.7750   -1.7544 H   0  0  0  0  0  0  0  0  0  0  0  0
   -2.8362    7.6370   -2.5812 H   0  0  0  0  0  0  0  0  0  0  0  0
   -1.1828    8.3390   -2.5812 H   0  0  0  0  0  0  0  0  0  0  0  0
   -1.7389    7.9738    0.1249 H   0  0  0  0  0  0  0  0  0  0  0  0
   -3.9035    8.1157    0.6088 H   0  0  0  0  0  0  0  0  0  0  0  0
   -4.0715    9.5814   -0.4716 H   0  0  0  0  0  0  0  0  0  0  0  0
   -4.9479    8.4071   -2.1793 H   0  0  0  0  0  0  0  0  0  0  0  0
   -3.9467    6.9394   -1.8174 H   0  0  0  0  0  0  0  0  0  0  0  0
   -5.3123    7.2306    0.2640 H   0  0  0  0  0  0  0  0  0  0  0  0
   -7.9009    8.9930   -2.1543 H   0  0  0  0  0  0  0  0  0  0  0  0
   -6.5945    8.1527   -3.0564 H   0  0  0  0  0  0  0  0  0  0  0  0
   -8.2609    7.4820   -3.0564 H   0  0  0  0  0  0  0  0  0  0  0  0
   -7.9367    7.0428    0.7503 H   0  0  0  0  0  0  0  0  0  0  0  0
   -9.0982    7.7092   -0.4470 H   0  0  0  0  0  0  0  0  0  0  0  0
   -8.7163    5.9540   -0.4470 H   0  0  0  0  0  0  0  0  0  0  0  0
   -2.5706   10.4383   -1.2172 H   0  0  0  0  0  0  0  0  0  0  0  0
   -2.0688   11.0658    1.0623 H   0  0  0  0  0  0  0  0  0  0  0  0
   -0.9996    9.6657    1.2937 H   0  0  0  0  0  0  0  0  0  0  0  0
   -0.1422   12.3597    0.8760 H   0  0  0  0  0  0  0  0  0  0  0  0
    0.9089   10.9544    0.7248 H   0  0  0  0  0  0  0  0  0  0  0  0
   -1.4226   13.1280   -0.4815 H   0  0  0  0  0  0  0  0  0  0  0  0
   -0.5871   13.5490   -2.0149 H   0  0  0  0  0  0  0  0  0  0  0  0
   -1.9008   12.3239   -2.0149 H   0  0  0  0  0  0  0  0  0  0  0  0
    2.0249   11.1579   -1.4155 H   0  0  0  0  0  0  0  0  0  0  0  0
    1.6762   13.4526   -0.2964 H   0  0  0  0  0  0  0  0  0  0  0  0
    3.0943   13.1523   -1.4312 H   0  0  0  0  0  0  0  0  0  0  0  0
    1.8601   15.4659   -1.6934 H   0  0  0  0  0  0  0  0  0  0  0  0
   -0.2223   12.9766   -4.0945 H   0  0  0  0  0  0  0  0  0  0  0  0
    2.4532   13.3962   -5.5641 H   0  0  0  0  0  0  0  0  0  0  0  0
    1.0580   12.3630   -6.1085 H   0  0  0  0  0  0  0  0  0  0  0  0
    1.1495   14.5228   -7.3129 H   0  0  0  0  0  0  0  0  0  0  0  0
   -0.3518   14.3279   -6.3261 H   0  0  0  0  0  0  0  0  0  0  0  0
    0.4675   16.5676   -6.0489 H   0  0  0  0  0  0  0  0  0  0  0  0
    2.8390   15.3490   -6.2190 H   0  0  0  0  0  0  0  0  0  0  0  0
   -1.2599   15.7822   -2.9341 H   0  0  0  0  0  0  0  0  0  0  0  0
   -1.3261   16.6816   -4.4877 H   0  0  0  0  0  0  0  0  0  0  0  0
   -1.3563   14.8856   -4.4877 H   0  0  0  0  0  0  0  0  0  0  0  0
    1.0512   16.9624   -2.3136 H   0  0  0  0  0  0  0  0  0  0  0  0
    2.1249   17.2690   -3.7207 H   0  0  0  0  0  0  0  0  0  0  0  0
    0.4425   17.8985   -3.7207 H   0  0  0  0  0  0  0  0  0  0  0  0
    3.5216   11.5184   -2.8694 H   0  0  0  0  0  0  0  0  0  0  0  0
    2.9999   10.6893   -4.3751 H   0  0  0  0  0  0  0  0  0  0  0  0
    3.2701   12.4652   -4.3751 H   0  0  0  0  0  0  0  0  0  0  0  0
    0.3697   10.7718   -4.9686 H   0  0  0  0  0  0  0  0  0  0  0  0
    1.2999    9.7286   -3.7519 H   0  0  0  0  0  0  0  0  0  0  0  0
   -1.4389   10.9789   -3.4021 H   0  0  0  0  0  0  0  0  0  0  0  0
   -1.0024    9.2280   -3.5077 H   0  0  0  0  0  0  0  0  0  0  0  0
    0.6980    8.9200   -0.2752 H   0  0  0  0  0  0  0  0  0  0  0  0
    0.2315    8.0978   -1.8027 H   0  0  0  0  0  0  0  0  0  0  0  0
    1.5609    9.3058   -1.8027 H   0  0  0  0  0  0  0  0  0  0  0  0
  1  2  1  0
  2  3  1  0
  3  4  1  0
  4  5  1  0
  5  6  1  0
  6  7  1  0
  7  8  1  0
  7  9  1  0
  2 10  1  0
 10 11  1  0
 11 12  1  0
 12 13  1  0
 13 14  1  1
 13 15  1  0
 15 16  1  0
 16 17  1  0
 17 18  2  0
 18 19  1  0
 19 20  1  0
 20 21  1  0
 21 22  1  0
 22 23  1  0
 22 24  1  0
 24 25  1  0
 24 26  1  0
 19 27  1  0
 27 28  1  6
 27 29  1  0
 29 30  1  0
 30 31  1  0
 31 32  1  6
  7  5  1  0
 31 10  1  0
 31 13  1  0
 27 15  1  0
 24 18  1  0
  1 33  1  0
  1 34  1  0
  1 35  1  0
  2 36  1  1
  3 37  1  0
  3 38  1  0
  4 39  1  0
  4 40  1  0
  5 41  1  1
  8 42  1  0
  8 43  1  0
  8 44  1  0
  9 45  1  0
  9 46  1  0
  9 47  1  0
 10 48  1  6
 11 49  1  0
 11 50  1  0
 12 51  1  0
 12 52  1  0
 14 53  1  0
 14 54  1  0
 14 55  1  0
 15 56  1  1
 16 57  1  0
 16 58  1  0
 17 59  1  0
 19 60  1  6
 20 61  1  0
 20 62  1  0
 21 63  1  0
 21 64  1  0
 22 65  1  6
 23 66  1  0
 25 67  1  0
 25 68  1  0
 25 69  1  0
 26 70  1  0
 26 71  1  0
 26 72  1  0
 28 73  1  0
 28 74  1  0
 28 75  1  0
 29 76  1  0
 29 77  1  0
 30 78  1  0
 30 79  1  0
 32 80  1  0
 32 81  1  0
 32 82  1  0
M  END
>  <meeko>  (12) 
{"is_sidechain": [false], "intermolecular_energy": 2.731, "internal_energy": -0.839}

$$$$
EPH_relaxed_0001_pdb2pqr_Repair_206_r2_0001_out
     RDKit          3D

 82 86  0  0  0  0  0  0  0  0999 V2000
    3.6180    9.9820   -0.0550 C   0  0  0  0  0  0  0  0  0  0  0  0
    2.3380   10.3280   -0.8200 C   0  0  2  0  0  0  0  0  0  0  0  0
    2.1110    9.3930   -2.0250 C   0  0  0  0  0  0  0  0  0  0  0  0
    0.6520    8.9660   -2.2080 C   0  0  0  0  0  0  0  0  0  0  0  0
   -0.1690    9.2630   -0.9900 C   0  0  2  0  0  0  0  0  0  0  0  0
   -0.5660    8.1080   -0.2390 O   0  0  0  0  0  0  0  0  0  0  0  0
   -1.6260    8.8660   -0.8450 C   0  0  0  0  0  0  0  0  0  0  0  0
   -2.3480    8.1380   -1.9360 C   0  0  0  0  0  0  0  0  0  0  0  0
   -2.4760    9.6070    0.1390 C   0  0  0  0  0  0  0  0  0  0  0  0
    2.3860   11.7770   -1.2880 C   0  0  1  0  0  0  0  0  0  0  0  0
    2.3340   11.9090   -2.8330 C   0  0  0  0  0  0  0  0  0  0  0  0
    1.5330   13.1990   -3.1450 C   0  0  0  0  0  0  0  0  0  0  0  0
    1.4400   13.9380   -1.7890 C   0  0  1  0  0  0  0  0  0  0  0  0
    2.8080   14.6730   -1.6370 C   0  0  0  0  0  0  0  0  0  0  0  0
    0.2350   14.9200   -1.6190 C   0  0  2  0  0  0  0  0  0  0  0  0
    0.2190   16.1090   -2.5960 C   0  0  0  0  0  0  0  0  0  0  0  0
    0.9240   17.3350   -2.1190 C   0  0  0  0  0  0  0  0  0  0  0  0
    1.2980   17.5790   -0.8490 C   0  0  0  0  0  0  0  0  0  0  0  0
    0.9280   16.6090    0.2800 C   0  0  1  0  0  0  0  0  0  0  0  0
    0.3740   17.4080    1.4890 C   0  0  0  0  0  0  0  0  0  0  0  0
    1.3280   18.5060    1.9510 C   0  0  0  0  0  0  0  0  0  0  0  0
    1.6250   19.4830    0.8170 C   0  0  2  0  0  0  0  0  0  0  0  0
    0.4260   20.1940    0.4950 O   0  0  0  0  0  0  0  0  0  0  0  0
    2.1800   18.7900   -0.4590 C   0  0  0  0  0  0  0  0  0  0  0  0
    3.6170   18.2790   -0.1900 C   0  0  0  0  0  0  0  0  0  0  0  0
    2.3040   19.8660   -1.5710 C   0  0  0  0  0  0  0  0  0  0  0  0
   -0.0100   15.3930   -0.1290 C   0  0  1  0  0  0  0  0  0  0  0  0
   -1.5060   15.8220   -0.0390 C   0  0  0  0  0  0  0  0  0  0  0  0
    0.1800   14.2240    0.9090 C   0  0  0  0  0  0  0  0  0  0  0  0
    1.3110   13.2180    0.6220 C   0  0  0  0  0  0  0  0  0  0  0  0
    1.2430   12.7140   -0.8230 C   0  0  2  0  0  0  0  0  0  0  0  0
   -0.1140   11.9500   -1.0000 C   0  0  0  0  0  0  0  0  0  0  0  0
    3.4243   10.0344    1.0265 H   0  0  0  0  0  0  0  0  0  0  0  0
    3.9404    8.9645   -0.3209 H   0  0  0  0  0  0  0  0  0  0  0  0
    4.4091   10.6985   -0.3209 H   0  0  0  0  0  0  0  0  0  0  0  0
    1.4932   10.1888   -0.1294 H   0  0  0  0  0  0  0  0  0  0  0  0
    2.4364    9.9161   -2.9363 H   0  0  0  0  0  0  0  0  0  0  0  0
    2.6917    8.4783   -1.8353 H   0  0  0  0  0  0  0  0  0  0  0  0
    0.2267    9.5080   -3.0655 H   0  0  0  0  0  0  0  0  0  0  0  0
    0.6314    7.8796   -2.3791 H   0  0  0  0  0  0  0  0  0  0  0  0
    0.3526   10.2204   -0.8437 H   0  0  0  0  0  0  0  0  0  0  0  0
   -3.0570    7.4231   -1.4930 H   0  0  0  0  0  0  0  0  0  0  0  0
   -2.8964    8.8605   -2.5583 H   0  0  0  0  0  0  0  0  0  0  0  0
   -1.6210    7.5956   -2.5583 H   0  0  0  0  0  0  0  0  0  0  0  0
   -2.1703    9.3405    1.1615 H   0  0  0  0  0  0  0  0  0  0  0  0
   -2.3511   10.6896   -0.0106 H   0  0  0  0  0  0  0  0  0  0  0  0
   -3.5314    9.3356   -0.0106 H   0  0  0  0  0  0  0  0  0  0  0  0
    3.3362   12.0863   -0.8281 H   0  0  0  0  0  0  0  0  0  0  0  0
    3.3525   11.9876   -3.2409 H   0  0  0  0  0  0  0  0  0  0  0  0
    1.8577   11.0284   -3.2888 H   0  0  0  0  0  0  0  0  0  0  0  0
    2.0621   13.8147   -3.8873 H   0  0  0  0  0  0  0  0  0  0  0  0
    0.5422   12.9822   -3.5708 H   0  0  0  0  0  0  0  0  0  0  0  0
    3.0405   14.7979   -0.5691 H   0  0  0  0  0  0  0  0  0  0  0  0
    3.5990   14.0784   -2.1174 H   0  0  0  0  0  0  0  0  0  0  0  0
    2.7489   15.6608   -2.1174 H   0  0  0  0  0  0  0  0  0  0  0  0
   -0.6230   14.2914   -1.8997 H   0  0  0  0  0  0  0  0  0  0  0  0
    0.6958   15.7855   -3.5330 H   0  0  0  0  0  0  0  0  0  0  0  0
   -0.8374   16.3918   -2.7143 H   0  0  0  0  0  0  0  0  0  0  0  0
    1.1579   18.1048   -2.8691 H   0  0  0  0  0  0  0  0  0  0  0  0
    1.8626   16.1029    0.5635 H   0  0  0  0  0  0  0  0  0  0  0  0
   -0.5812   17.8699    1.1987 H   0  0  0  0  0  0  0  0  0  0  0  0
    0.2456   16.7038    2.3242 H   0  0  0  0  0  0  0  0  0  0  0  0
    0.8686   19.0537    2.7870 H   0  0  0  0  0  0  0  0  0  0  0  0
    2.2722   18.0398    2.2692 H   0  0  0  0  0  0  0  0  0  0  0  0
    2.4105   20.1678    1.1690 H   0  0  0  0  0  0  0  0  0  0  0  0
    0.1140   20.6280    1.3070 H   0  0  0  0  0  0  0  0  0  0  0  0
    3.7875   18.2184    0.8950 H   0  0  0  0  0  0  0  0  0  0  0  0
    3.7412   17.2816   -0.6370 H   0  0  0  0  0  0  0  0  0  0  0  0
    4.3430   18.9741   -0.6370 H   0  0  0  0  0  0  0  0  0  0  0  0
    2.4183   20.8582   -1.1100 H   0  0  0  0  0  0  0  0  0  0  0  0
    3.1830   19.6483   -2.1955 H   0  0  0  0  0  0  0  0  0  0  0  0
    1.3985   19.8540   -2.1955 H   0  0  0  0  0  0  0  0  0  0  0  0
   -1.8003   15.9064    1.0175 H   0  0  0  0  0  0  0  0  0  0  0  0
   -1.6391   16.7945   -0.5355 H   0  0  0  0  0  0  0  0  0  0  0  0
   -2.1342   15.0678   -0.5355 H   0  0  0  0  0  0  0  0  0  0  0  0
    0.3804   14.6793    1.8901 H   0  0  0  0  0  0  0  0  0  0  0  0
   -0.7486   13.6368    0.8547 H   0  0  0  0  0  0  0  0  0  0  0  0
    2.2808   13.7105    0.7861 H   0  0  0  0  0  0  0  0  0  0  0  0
    1.1961   12.3586    1.2989 H   0  0  0  0  0  0  0  0  0  0  0  0
   -0.5335   11.7138   -0.0110 H   0  0  0  0  0  0  0  0  0  0  0  0
   -0.8211   12.5826   -1.5566 H   0  0  0  0  0  0  0  0  0  0  0  0
    0.0602   11.0174   -1.5566 H   0  0  0  0  0  0  0  0  0  0  0  0
  1  2  1  0
  2  3  1  0
  3  4  1  0
  4  5  1  0
  5  6  1  0
  6  7  1  0
  7  8  1  0
  7  9  1  0
  2 10  1  0
 10 11  1  0
 11 12  1  0
 12 13  1  0
 13 14  1  1
 13 15  1  0
 15 16  1  0
 16 17  1  0
 17 18  2  0
 18 19  1  0
 19 20  1  0
 20 21  1  0
 21 22  1  0
 22 23  1  0
 22 24  1  0
 24 25  1  0
 24 26  1  0
 19 27  1  0
 27 28  1  6
 27 29  1  0
 29 30  1  0
 30 31  1  0
 31 32  1  6
  7  5  1  0
 31 10  1  0
 31 13  1  0
 27 15  1  0
 24 18  1  0
  1 33  1  0
  1 34  1  0
  1 35  1  0
  2 36  1  1
  3 37  1  0
  3 38  1  0
  4 39  1  0
  4 40  1  0
  5 41  1  1
  8 42  1  0
  8 43  1  0
  8 44  1  0
  9 45  1  0
  9 46  1  0
  9 47  1  0
 10 48  1  1
 11 49  1  0
 11 50  1  0
 12 51  1  0
 12 52  1  0
 14 53  1  0
 14 54  1  0
 14 55  1  0
 15 56  1  6
 16 57  1  0
 16 58  1  0
 17 59  1  0
 19 60  1  1
 20 61  1  0
 20 62  1  0
 21 63  1  0
 21 64  1  0
 22 65  1  1
 23 66  1  0
 25 67  1  0
 25 68  1  0
 25 69  1  0
 26 70  1  0
 26 71  1  0
 26 72  1  0
 28 73  1  0
 28 74  1  0
 28 75  1  0
 29 76  1  0
 29 77  1  0
 30 78  1  0
 30 79  1  0
 32 80  1  0
 32 81  1  0
 32 82  1  0
M  END
>  <meeko>  (13) 
{"is_sidechain": [false], "intermolecular_energy": 2.731, "internal_energy": -0.839}

$$$$
EPH_relaxed_0001_pdb2pqr_Repair_206_r2_0001_out
     RDKit          3D

 82 86  0  0  0  0  0  0  0  0999 V2000
   -0.2740    9.3410   -4.1950 C   0  0  0  0  0  0  0  0  0  0  0  0
   -0.0460    9.4600   -2.6850 C   0  0  2  0  0  0  0  0  0  0  0  0
   -0.8300    8.3950   -1.8930 C   0  0  0  0  0  0  0  0  0  0  0  0
   -2.3470    8.4790   -2.0820 C   0  0  0  0  0  0  0  0  0  0  0  0
   -2.8960    7.2380   -2.7180 C   0  0  2  0  0  0  0  0  0  0  0  0
   -3.9420    7.4660   -3.6710 O   0  0  0  0  0  0  0  0  0  0  0  0
   -4.3100    6.7370   -2.4890 C   0  0  0  0  0  0  0  0  0  0  0  0
   -5.2620    7.4670   -1.5940 C   0  0  0  0  0  0  0  0  0  0  0  0
   -4.6060    5.2910   -2.7400 C   0  0  0  0  0  0  0  0  0  0  0  0
   -0.4370   10.8550   -2.2100 C   0  0  1  0  0  0  0  0  0  0  0  0
   -1.5480   10.8270   -1.1270 C   0  0  0  0  0  0  0  0  0  0  0  0
   -1.2520   11.9960   -0.1520 C   0  0  0  0  0  0  0  0  0  0  0  0
   -0.1900   12.8520   -0.8810 C   0  0  1  0  0  0  0  0  0  0  0  0
   -1.0010   13.7290   -1.8860 C   0  0  0  0  0  0  0  0  0  0  0  0
    0.7370   13.7240    0.0280 C   0  0  2  0  0  0  0  0  0  0  0  0
    0.0140   14.8030    0.8530 C   0  0  0  0  0  0  0  0  0  0  0  0
   -0.1150   16.1340    0.1880 C   0  0  0  0  0  0  0  0  0  0  0  0
    0.5740   16.5370   -0.8960 C   0  0  0  0  0  0  0  0  0  0  0  0
    1.6670   15.6510   -1.5080 C   0  0  1  0  0  0  0  0  0  0  0  0
    2.9290   16.5080   -1.7920 C   0  0  0  0  0  0  0  0  0  0  0  0
    2.6240   17.7340   -2.6470 C   0  0  0  0  0  0  0  0  0  0  0  0
    1.5750   18.6190   -1.9770 C   0  0  2  0  0  0  0  0  0  0  0  0
    2.1360   19.1740   -0.7840 O   0  0  0  0  0  0  0  0  0  0  0  0
    0.2620   17.8610   -1.6350 C   0  0  0  0  0  0  0  0  0  0  0  0
   -0.4980   17.5210   -2.9400 C   0  0  0  0  0  0  0  0  0  0  0  0
   -0.6530   18.8290   -0.8380 C   0  0  0  0  0  0  0  0  0  0  0  0
    2.0030   14.3150   -0.7150 C   0  0  1  0  0  0  0  0  0  0  0  0
    3.0700   14.6030    0.3840 C   0  0  0  0  0  0  0  0  0  0  0  0
    2.6530   13.2790   -1.7060 C   0  0  0  0  0  0  0  0  0  0  0  0
    1.6900   12.3640   -2.4870 C   0  0  0  0  0  0  0  0  0  0  0  0
    0.6680   11.7160   -1.5470 C   0  0  2  0  0  0  0  0  0  0  0  0
    1.4530   10.8100   -0.5390 C   0  0  0  0  0  0  0  0  0  0  0  0
   -1.2349    8.8395   -4.3823 H   0  0  0  0  0  0  0  0  0  0  0  0
   -0.2910   10.3453   -4.6435 H   0  0  0  0  0  0  0  0  0  0  0  0
    0.5402    8.7528   -4.6435 H   0  0  0  0  0  0  0  0  0  0  0  0
    1.0242    9.2886   -2.4971 H   0  0  0  0  0  0  0  0  0  0  0  0
   -0.4938    7.4006   -2.2218 H   0  0  0  0  0  0  0  0  0  0  0  0
   -0.6289    8.5752   -0.8267 H   0  0  0  0  0  0  0  0  0  0  0  0
   -2.8216    8.6157   -1.0991 H   0  0  0  0  0  0  0  0  0  0  0  0
   -2.5633    9.3290   -2.7459 H   0  0  0  0  0  0  0  0  0  0  0  0
   -1.9168    6.7413   -2.6503 H   0  0  0  0  0  0  0  0  0  0  0  0
   -5.0031    7.2685   -0.5435 H   0  0  0  0  0  0  0  0  0  0  0  0
   -5.1948    8.5472   -1.7904 H   0  0  0  0  0  0  0  0  0  0  0  0
   -6.2878    7.1218   -1.7904 H   0  0  0  0  0  0  0  0  0  0  0  0
   -4.7134    4.7665   -1.7791 H   0  0  0  0  0  0  0  0  0  0  0  0
   -5.5410    5.2021   -3.3127 H   0  0  0  0  0  0  0  0  0  0  0  0
   -3.7812    4.8419   -3.3127 H   0  0  0  0  0  0  0  0  0  0  0  0
   -0.7360   11.3003   -3.1704 H   0  0  0  0  0  0  0  0  0  0  0  0
   -2.5350   10.9633   -1.5932 H   0  0  0  0  0  0  0  0  0  0  0  0
   -1.5583    9.8634   -0.5966 H   0  0  0  0  0  0  0  0  0  0  0  0
   -2.1621   12.5842    0.0368 H   0  0  0  0  0  0  0  0  0  0  0  0
   -0.9016   11.6427    0.8290 H   0  0  0  0  0  0  0  0  0  0  0  0
   -1.6448   14.4252   -1.3285 H   0  0  0  0  0  0  0  0  0  0  0  0
   -0.3054   14.2997   -2.5188 H   0  0  0  0  0  0  0  0  0  0  0  0
   -1.6242   13.0801   -2.5188 H   0  0  0  0  0  0  0  0  0  0  0  0
    1.1095   12.9903    0.7580 H   0  0  0  0  0  0  0  0  0  0  0  0
   -0.9981   14.4365    1.0794 H   0  0  0  0  0  0  0  0  0  0  0  0
    0.6328   14.9681    1.7473 H   0  0  0  0  0  0  0  0  0  0  0  0
   -0.8339   16.8453    0.6206 H   0  0  0  0  0  0  0  0  0  0  0  0
    1.2540   15.2685   -2.4531 H   0  0  0  0  0  0  0  0  0  0  0  0
    3.3507   16.8432   -0.8329 H   0  0  0  0  0  0  0  0  0  0  0  0
    3.6397   15.8806   -2.3499 H   0  0  0  0  0  0  0  0  0  0  0  0
    3.5480   18.3141   -2.7872 H   0  0  0  0  0  0  0  0  0  0  0  0
    2.2309   17.3965   -3.6174 H   0  0  0  0  0  0  0  0  0  0  0  0
    1.3026   19.4088   -2.6926 H   0  0  0  0  0  0  0  0  0  0  0  0
    2.4880   18.4390   -0.2540 H   0  0  0  0  0  0  0  0  0  0  0  0
   -1.4761   17.0834   -2.6913 H   0  0  0  0  0  0  0  0  0  0  0  0
   -0.6458   18.4388   -3.5280 H   0  0  0  0  0  0  0  0  0  0  0  0
    0.0878   16.7991   -3.5280 H   0  0  0  0  0  0  0  0  0  0  0  0
   -0.5033   18.6707    0.2402 H   0  0  0  0  0  0  0  0  0  0  0  0
   -0.3993   19.8681   -1.0947 H   0  0  0  0  0  0  0  0  0  0  0  0
   -1.7047   18.6342   -1.0947 H   0  0  0  0  0  0  0  0  0  0  0  0
    2.6150   14.4802    1.3779 H   0  0  0  0  0  0  0  0  0  0  0  0
    3.9081   13.8989    0.2749 H   0  0  0  0  0  0  0  0  0  0  0  0
    3.4400   15.6331    0.2749 H   0  0  0  0  0  0  0  0  0  0  0  0
    3.2420   13.8468   -2.4414 H   0  0  0  0  0  0  0  0  0  0  0  0
    3.2397   12.6011   -1.0686 H   0  0  0  0  0  0  0  0  0  0  0  0
    1.1572   12.9619   -3.2411 H   0  0  0  0  0  0  0  0  0  0  0  0
    2.2759   11.5687   -2.9709 H   0  0  0  0  0  0  0  0  0  0  0  0
    1.1997   11.1023    0.4907 H   0  0  0  0  0  0  0  0  0  0  0  0
    1.1765    9.7575   -0.6999 H   0  0  0  0  0  0  0  0  0  0  0  0
    2.5341   10.9338   -0.6999 H   0  0  0  0  0  0  0  0  0  0  0  0
  1  2  1  0
  2  3  1  0
  3  4  1  0
  4  5  1  0
  5  6  1  0
  6  7  1  0
  7  8  1  0
  7  9  1  0
  2 10  1  0
 10 11  1  0
 11 12  1  0
 12 13  1  0
 13 14  1  6
 13 15  1  0
 15 16  1  0
 16 17  1  0
 17 18  2  0
 18 19  1  0
 19 20  1  0
 20 21  1  0
 21 22  1  0
 22 23  1  0
 22 24  1  0
 24 25  1  0
 24 26  1  0
 19 27  1  0
 27 28  1  1
 27 29  1  0
 29 30  1  0
 30 31  1  0
 31 32  1  1
  7  5  1  0
 31 10  1  0
 31 13  1  0
 27 15  1  0
 24 18  1  0
  1 33  1  0
  1 34  1  0
  1 35  1  0
  2 36  1  6
  3 37  1  0
  3 38  1  0
  4 39  1  0
  4 40  1  0
  5 41  1  6
  8 42  1  0
  8 43  1  0
  8 44  1  0
  9 45  1  0
  9 46  1  0
  9 47  1  0
 10 48  1  6
 11 49  1  0
 11 50  1  0
 12 51  1  0
 12 52  1  0
 14 53  1  0
 14 54  1  0
 14 55  1  0
 15 56  1  1
 16 57  1  0
 16 58  1  0
 17 59  1  0
 19 60  1  6
 20 61  1  0
 20 62  1  0
 21 63  1  0
 21 64  1  0
 22 65  1  6
 23 66  1  0
 25 67  1  0
 25 68  1  0
 25 69  1  0
 26 70  1  0
 26 71  1  0
 26 72  1  0
 28 73  1  0
 28 74  1  0
 28 75  1  0
 29 76  1  0
 29 77  1  0
 30 78  1  0
 30 79  1  0
 32 80  1  0
 32 81  1  0
 32 82  1  0
M  END
>  <meeko>  (14) 
{"is_sidechain": [false], "intermolecular_energy": 2.731, "internal_energy": -0.839}

$$$$
EPH_relaxed_0001_pdb2pqr_Repair_206_r2_0001_out
     RDKit          3D

 82 86  0  0  0  0  0  0  0  0999 V2000
   -0.3660   16.7620   -0.2810 C   0  0  0  0  0  0  0  0  0  0  0  0
   -0.6300   15.4300    0.4270 C   0  0  2  0  0  0  0  0  0  0  0  0
   -0.8130   15.6070    1.9470 C   0  0  0  0  0  0  0  0  0  0  0  0
   -1.0750   14.2950    2.6920 C   0  0  0  0  0  0  0  0  0  0  0  0
   -0.6900   14.3930    4.1380 C   0  0  2  0  0  0  0  0  0  0  0  0
    0.0500   13.2710    4.6370 O   0  0  0  0  0  0  0  0  0  0  0  0
   -1.2480   13.4820    5.2150 C   0  0  0  0  0  0  0  0  0  0  0  0
   -2.2390   12.4070    4.8920 C   0  0  0  0  0  0  0  0  0  0  0  0
   -1.2070   13.9470    6.6370 C   0  0  0  0  0  0  0  0  0  0  0  0
    0.5110   14.4590    0.1490 C   0  0  1  0  0  0  0  0  0  0  0  0
    0.7540   13.4720    1.3220 C   0  0  0  0  0  0  0  0  0  0  0  0
    1.1860   12.1240    0.6890 C   0  0  0  0  0  0  0  0  0  0  0  0
    1.4970   12.4670   -0.7860 C   0  0  1  0  0  0  0  0  0  0  0  0
    2.9400   13.0620   -0.7630 C   0  0  0  0  0  0  0  0  0  0  0  0
    1.3740   11.2920   -1.8100 C   0  0  2  0  0  0  0  0  0  0  0  0
    2.3420   10.1190   -1.5770 C   0  0  0  0  0  0  0  0  0  0  0  0
    3.6540   10.2240   -2.2820 C   0  0  0  0  0  0  0  0  0  0  0  0
    3.9330   11.0700   -3.2910 C   0  0  0  0  0  0  0  0  0  0  0  0
    2.8440   11.9720   -3.8880 C   0  0  1  0  0  0  0  0  0  0  0  0
    2.9060   11.9030   -5.4360 C   0  0  0  0  0  0  0  0  0  0  0  0
    4.2940   12.2260   -5.9810 C   0  0  0  0  0  0  0  0  0  0  0  0
    5.3400   11.2710   -5.4100 C   0  0  2  0  0  0  0  0  0  0  0  0
    5.0820    9.9540   -5.9080 O   0  0  0  0  0  0  0  0  0  0  0  0
    5.3640   11.2470   -3.8560 C   0  0  0  0  0  0  0  0  0  0  0  0
    5.9340   12.5860   -3.3240 C   0  0  0  0  0  0  0  0  0  0  0  0
    6.3610   10.1430   -3.4110 C   0  0  0  0  0  0  0  0  0  0  0  0
    1.3750   11.7490   -3.3250 C   0  0  1  0  0  0  0  0  0  0  0  0
    0.6620   10.6210   -4.1310 C   0  0  0  0  0  0  0  0  0  0  0  0
    0.5320   13.0590   -3.5550 C   0  0  0  0  0  0  0  0  0  0  0  0
    0.6020   14.1320   -2.4510 C   0  0  0  0  0  0  0  0  0  0  0  0
    0.3610   13.5150   -1.0710 C   0  0  2  0  0  0  0  0  0  0  0  0
   -1.0920   12.9270   -1.0560 C   0  0  0  0  0  0  0  0  0  0  0  0
   -0.2096   17.5512    0.4691 H   0  0  0  0  0  0  0  0  0  0  0  0
    0.5316   16.6711   -0.9103 H   0  0  0  0  0  0  0  0  0  0  0  0
   -1.2304   17.0204   -0.9103 H   0  0  0  0  0  0  0  0  0  0  0  0
   -1.5703   15.0229    0.0268 H   0  0  0  0  0  0  0  0  0  0  0  0
    0.1009   16.0623    2.3562 H   0  0  0  0  0  0  0  0  0  0  0  0
   -1.6994   16.2420    2.0925 H   0  0  0  0  0  0  0  0  0  0  0  0
   -2.1460   14.0538    2.6236 H   0  0  0  0  0  0  0  0  0  0  0  0
   -0.4637   13.5079    2.2265 H   0  0  0  0  0  0  0  0  0  0  0  0
   -0.6081   15.4877    4.0672 H   0  0  0  0  0  0  0  0  0  0  0  0
   -2.6333   11.9793    5.8256 H   0  0  0  0  0  0  0  0  0  0  0  0
   -3.0662   12.8348    4.3066 H   0  0  0  0  0  0  0  0  0  0  0  0
   -1.7455   11.6172    4.3066 H   0  0  0  0  0  0  0  0  0  0  0  0
   -1.2835   13.0794    7.3088 H   0  0  0  0  0  0  0  0  0  0  0  0
   -0.2590   14.4728    6.8236 H   0  0  0  0  0  0  0  0  0  0  0  0
   -2.0484   14.6306    6.8236 H   0  0  0  0  0  0  0  0  0  0  0  0
    1.3250   15.1770   -0.0294 H   0  0  0  0  0  0  0  0  0  0  0  0
    1.5487   13.8536    1.9799 H   0  0  0  0  0  0  0  0  0  0  0  0
   -0.1542   13.3499    1.9305 H   0  0  0  0  0  0  0  0  0  0  0  0
    2.0802   11.7277    1.1923 H   0  0  0  0  0  0  0  0  0  0  0  0
    0.4086   11.3514    0.7824 H   0  0  0  0  0  0  0  0  0  0  0  0
    3.2648   13.1959    0.2794 H   0  0  0  0  0  0  0  0  0  0  0  0
    3.6284   12.3743   -1.2761 H   0  0  0  0  0  0  0  0  0  0  0  0
    2.9436   14.0350   -1.2761 H   0  0  0  0  0  0  0  0  0  0  0  0
    0.3696   10.8979   -1.5959 H   0  0  0  0  0  0  0  0  0  0  0  0
    2.5410   10.0521   -0.4972 H   0  0  0  0  0  0  0  0  0  0  0  0
    1.8455    9.2286   -1.9900 H   0  0  0  0  0  0  0  0  0  0  0  0
    4.4601    9.5538   -1.9489 H   0  0  0  0  0  0  0  0  0  0  0  0
    3.0754   12.9932   -3.5510 H   0  0  0  0  0  0  0  0  0  0  0  0
    2.6295   10.8872   -5.7550 H   0  0  0  0  0  0  0  0  0  0  0  0
    2.2084   12.6557   -5.8319 H   0  0  0  0  0  0  0  0  0  0  0  0
    4.2812   12.1325   -7.0769 H   0  0  0  0  0  0  0  0  0  0  0  0
    4.5572   13.2524   -5.6858 H   0  0  0  0  0  0  0  0  0  0  0  0
    6.3277   11.6315   -5.7331 H   0  0  0  0  0  0  0  0  0  0  0  0
    5.8790    9.6570   -6.3790 H   0  0  0  0  0  0  0  0  0  0  0  0
    5.9294   12.5752   -2.2241 H   0  0  0  0  0  0  0  0  0  0  0  0
    6.9650   12.7149   -3.6851 H   0  0  0  0  0  0  0  0  0  0  0  0
    5.3122   13.4185   -3.6851 H   0  0  0  0  0  0  0  0  0  0  0  0
    6.3972   10.1029   -2.3123 H   0  0  0  0  0  0  0  0  0  0  0  0
    6.0295    9.1700   -3.8027 H   0  0  0  0  0  0  0  0  0  0  0  0
    7.3626   10.3740   -3.8027 H   0  0  0  0  0  0  0  0  0  0  0  0
    0.2078    9.9025   -3.4328 H   0  0  0  0  0  0  0  0  0  0  0  0
   -0.1217   11.0622   -4.7644 H   0  0  0  0  0  0  0  0  0  0  0  0
    1.3967   10.1024   -4.7644 H   0  0  0  0  0  0  0  0  0  0  0  0
    0.8820   13.5202   -4.4903 H   0  0  0  0  0  0  0  0  0  0  0  0
   -0.5169   12.7280   -3.5692 H   0  0  0  0  0  0  0  0  0  0  0  0
    1.5972   14.6003   -2.4669 H   0  0  0  0  0  0  0  0  0  0  0  0
   -0.1797   14.8822   -2.6411 H   0  0  0  0  0  0  0  0  0  0  0  0
   -1.4227   12.7932   -0.0154 H   0  0  0  0  0  0  0  0  0  0  0  0
   -1.7734   13.6202   -1.5710 H   0  0  0  0  0  0  0  0  0  0  0  0
   -1.0996   11.9550   -1.5710 H   0  0  0  0  0  0  0  0  0  0  0  0
  1  2  1  0
  2  3  1  0
  3  4  1  0
  4  5  1  0
  5  6  1  0
  6  7  1  0
  7  8  1  0
  7  9  1  0
  2 10  1  0
 10 11  1  0
 11 12  1  0
 12 13  1  0
 13 14  1  1
 13 15  1  0
 15 16  1  0
 16 17  1  0
 17 18  2  0
 18 19  1  0
 19 20  1  0
 20 21  1  0
 21 22  1  0
 22 23  1  0
 22 24  1  0
 24 25  1  0
 24 26  1  0
 19 27  1  0
 27 28  1  6
 27 29  1  0
 29 30  1  0
 30 31  1  0
 31 32  1  6
  7  5  1  0
 31 10  1  0
 31 13  1  0
 27 15  1  0
 24 18  1  0
  1 33  1  0
  1 34  1  0
  1 35  1  0
  2 36  1  6
  3 37  1  0
  3 38  1  0
  4 39  1  0
  4 40  1  0
  5 41  1  1
  8 42  1  0
  8 43  1  0
  8 44  1  0
  9 45  1  0
  9 46  1  0
  9 47  1  0
 10 48  1  6
 11 49  1  0
 11 50  1  0
 12 51  1  0
 12 52  1  0
 14 53  1  0
 14 54  1  0
 14 55  1  0
 15 56  1  1
 16 57  1  0
 16 58  1  0
 17 59  1  0
 19 60  1  6
 20 61  1  0
 20 62  1  0
 21 63  1  0
 21 64  1  0
 22 65  1  6
 23 66  1  0
 25 67  1  0
 25 68  1  0
 25 69  1  0
 26 70  1  0
 26 71  1  0
 26 72  1  0
 28 73  1  0
 28 74  1  0
 28 75  1  0
 29 76  1  0
 29 77  1  0
 30 78  1  0
 30 79  1  0
 32 80  1  0
 32 81  1  0
 32 82  1  0
M  END
>  <meeko>  (15) 
{"is_sidechain": [false], "intermolecular_energy": 2.731, "internal_energy": -0.839}

$$$$
EPH_relaxed_0001_pdb2pqr_Repair_206_r2_0001_out
     RDKit          3D

 82 86  0  0  0  0  0  0  0  0999 V2000
    2.3370   10.2800   -0.4930 C   0  0  0  0  0  0  0  0  0  0  0  0
    1.9630   10.4910   -1.9630 C   0  0  2  0  0  0  0  0  0  0  0  0
    2.9210    9.7500   -2.9180 C   0  0  0  0  0  0  0  0  0  0  0  0
    3.7610   10.6840   -3.7940 C   0  0  0  0  0  0  0  0  0  0  0  0
    5.1620   10.8160   -3.2780 C   0  0  2  0  0  0  0  0  0  0  0  0
    5.8260   12.0300   -3.6530 O   0  0  0  0  0  0  0  0  0  0  0  0
    6.3870   10.8140   -4.1740 C   0  0  0  0  0  0  0  0  0  0  0  0
    6.2670   10.6760   -5.6590 C   0  0  0  0  0  0  0  0  0  0  0  0
    7.7110   10.4560   -3.5750 C   0  0  0  0  0  0  0  0  0  0  0  0
    1.9520   11.9800   -2.2880 C   0  0  1  0  0  0  0  0  0  0  0  0
    1.5510   12.2670   -3.7600 C   0  0  0  0  0  0  0  0  0  0  0  0
    0.7440   13.5910   -3.7540 C   0  0  0  0  0  0  0  0  0  0  0  0
    0.9880   14.1890   -2.3490 C   0  0  1  0  0  0  0  0  0  0  0  0
    2.3790   14.8910   -2.4480 C   0  0  0  0  0  0  0  0  0  0  0  0
   -0.1120   15.1620   -1.8120 C   0  0  2  0  0  0  0  0  0  0  0  0
   -0.3110   16.4430   -2.6400 C   0  0  0  0  0  0  0  0  0  0  0  0
    0.5250   17.6080   -2.2240 C   0  0  0  0  0  0  0  0  0  0  0  0
    1.1870   17.7180   -1.0570 C   0  0  0  0  0  0  0  0  0  0  0  0
    1.0540   16.6430    0.0290 C   0  0  1  0  0  0  0  0  0  0  0  0
    0.8180   17.3230    1.4030 C   0  0  0  0  0  0  0  0  0  0  0  0
    1.8880   18.3580    1.7350 C   0  0  0  0  0  0  0  0  0  0  0  0
    1.9510   19.4420    0.6620 C   0  0  2  0  0  0  0  0  0  0  0  0
    0.7340   20.1940    0.6960 O   0  0  0  0  0  0  0  0  0  0  0  0
    2.1750   18.8750   -0.7680 C   0  0  0  0  0  0  0  0  0  0  0  0
    3.6180   18.3240   -0.8890 C   0  0  0  0  0  0  0  0  0  0  0  0
    2.0770   20.0570   -1.7700 C   0  0  0  0  0  0  0  0  0  0  0  0
    0.0070   15.4850   -0.2670 C   0  0  1  0  0  0  0  0  0  0  0  0
   -1.4140   15.9180    0.2080 C   0  0  0  0  0  0  0  0  0  0  0  0
    0.3910   14.2160    0.5820 C   0  0  0  0  0  0  0  0  0  0  0  0
    1.3910   13.2320   -0.0530 C   0  0  0  0  0  0  0  0  0  0  0  0
    0.9770   12.8760   -1.4850 C   0  0  2  0  0  0  0  0  0  0  0  0
   -0.4090   12.1490   -1.4150 C   0  0  0  0  0  0  0  0  0  0  0  0
    1.5595   10.7186    0.1498 H   0  0  0  0  0  0  0  0  0  0  0  0
    2.4187    9.2027   -0.2864 H   0  0  0  0  0  0  0  0  0  0  0  0
    3.3014   10.7671   -0.2864 H   0  0  0  0  0  0  0  0  0  0  0  0
    0.9575   10.0706   -2.1123 H   0  0  0  0  0  0  0  0  0  0  0  0
    3.6031    9.1323   -2.3154 H   0  0  0  0  0  0  0  0  0  0  0  0
    2.2977    9.1480   -3.5955 H   0  0  0  0  0  0  0  0  0  0  0  0
    3.7942   10.2798   -4.8165 H   0  0  0  0  0  0  0  0  0  0  0  0
    3.2946   11.6801   -3.7791 H   0  0  0  0  0  0  0  0  0  0  0  0
    4.9083   10.2434   -2.3737 H   0  0  0  0  0  0  0  0  0  0  0  0
    5.5622    9.8655   -5.8962 H   0  0  0  0  0  0  0  0  0  0  0  0
    5.8976   11.6199   -6.0863 H   0  0  0  0  0  0  0  0  0  0  0  0
    7.2530   10.4412   -6.0863 H   0  0  0  0  0  0  0  0  0  0  0  0
    7.6347   10.4766   -2.4778 H   0  0  0  0  0  0  0  0  0  0  0  0
    8.0013    9.4471   -3.9035 H   0  0  0  0  0  0  0  0  0  0  0  0
    8.4701   11.1811   -3.9035 H   0  0  0  0  0  0  0  0  0  0  0  0
    2.9918   12.2321   -2.0325 H   0  0  0  0  0  0  0  0  0  0  0  0
    2.4508   12.3747   -4.3836 H   0  0  0  0  0  0  0  0  0  0  0  0
    0.9530   11.4420   -4.1744 H   0  0  0  0  0  0  0  0  0  0  0  0
    1.1105   14.2729   -4.5355 H   0  0  0  0  0  0  0  0  0  0  0  0
   -0.3246   13.4296   -3.9593 H   0  0  0  0  0  0  0  0  0  0  0  0
    2.7644   15.0855   -1.4362 H   0  0  0  0  0  0  0  0  0  0  0  0
    3.0810   14.2392   -2.9888 H   0  0  0  0  0  0  0  0  0  0  0  0
    2.2717   15.8429   -2.9888 H   0  0  0  0  0  0  0  0  0  0  0  0
   -1.0322   14.5744   -1.9457 H   0  0  0  0  0  0  0  0  0  0  0  0
   -0.0723   16.2105   -3.6883 H   0  0  0  0  0  0  0  0  0  0  0  0
   -1.3563   16.7473   -2.4830 H   0  0  0  0  0  0  0  0  0  0  0  0
    0.6069   18.4471   -2.9306 H   0  0  0  0  0  0  0  0  0  0  0  0
    2.0110   16.1007    0.0402 H   0  0  0  0  0  0  0  0  0  0  0  0
   -0.1621   17.8222    1.3857 H   0  0  0  0  0  0  0  0  0  0  0  0
    0.8601   16.5401    2.1745 H   0  0  0  0  0  0  0  0  0  0  0  0
    1.6506   18.8233    2.7031 H   0  0  0  0  0  0  0  0  0  0  0  0
    2.8636   17.8519    1.7801 H   0  0  0  0  0  0  0  0  0  0  0  0
    2.8188   20.0796    0.8863 H   0  0  0  0  0  0  0  0  0  0  0  0
    0.0620   19.6480    1.1370 H   0  0  0  0  0  0  0  0  0  0  0  0
    4.0352   18.1647    0.1163 H   0  0  0  0  0  0  0  0  0  0  0  0
    3.6013   17.3690   -1.4346 H   0  0  0  0  0  0  0  0  0  0  0  0
    4.2421   19.0471   -1.4346 H   0  0  0  0  0  0  0  0  0  0  0  0
    1.9986   21.0031   -1.2144 H   0  0  0  0  0  0  0  0  0  0  0  0
    2.9766   20.0768   -2.4027 H   0  0  0  0  0  0  0  0  0  0  0  0
    1.1864   19.9284   -2.4027 H   0  0  0  0  0  0  0  0  0  0  0  0
   -1.4459   15.9277    1.3075 H   0  0  0  0  0  0  0  0  0  0  0  0
   -1.6374   16.9250   -0.1742 H   0  0  0  0  0  0  0  0  0  0  0  0
   -2.1610   15.2067   -0.1742 H   0  0  0  0  0  0  0  0  0  0  0  0
    0.8265   14.5684    1.5287 H   0  0  0  0  0  0  0  0  0  0  0  0
   -0.5444   13.6471    0.6882 H   0  0  0  0  0  0  0  0  0  0  0  0
    2.3887   13.6949   -0.0715 H   0  0  0  0  0  0  0  0  0  0  0  0
    1.4049   12.3103    0.5472 H   0  0  0  0  0  0  0  0  0  0  0  0
   -0.6923   12.0004   -0.3626 H   0  0  0  0  0  0  0  0  0  0  0  0
   -1.1711   12.7635   -1.9166 H   0  0  0  0  0  0  0  0  0  0  0  0
   -0.3367   11.1727   -1.9166 H   0  0  0  0  0  0  0  0  0  0  0  0
  1  2  1  0
  2  3  1  0
  3  4  1  0
  4  5  1  0
  5  6  1  0
  6  7  1  0
  7  8  1  0
  7  9  1  0
  2 10  1  0
 10 11  1  0
 11 12  1  0
 12 13  1  0
 13 14  1  6
 13 15  1  0
 15 16  1  0
 16 17  1  0
 17 18  2  0
 18 19  1  0
 19 20  1  0
 20 21  1  0
 21 22  1  0
 22 23  1  0
 22 24  1  0
 24 25  1  0
 24 26  1  0
 19 27  1  0
 27 28  1  1
 27 29  1  0
 29 30  1  0
 30 31  1  0
 31 32  1  1
  7  5  1  0
 31 10  1  0
 31 13  1  0
 27 15  1  0
 24 18  1  0
  1 33  1  0
  1 34  1  0
  1 35  1  0
  2 36  1  1
  3 37  1  0
  3 38  1  0
  4 39  1  0
  4 40  1  0
  5 41  1  1
  8 42  1  0
  8 43  1  0
  8 44  1  0
  9 45  1  0
  9 46  1  0
  9 47  1  0
 10 48  1  6
 11 49  1  0
 11 50  1  0
 12 51  1  0
 12 52  1  0
 14 53  1  0
 14 54  1  0
 14 55  1  0
 15 56  1  1
 16 57  1  0
 16 58  1  0
 17 59  1  0
 19 60  1  1
 20 61  1  0
 20 62  1  0
 21 63  1  0
 21 64  1  0
 22 65  1  1
 23 66  1  0
 25 67  1  0
 25 68  1  0
 25 69  1  0
 26 70  1  0
 26 71  1  0
 26 72  1  0
 28 73  1  0
 28 74  1  0
 28 75  1  0
 29 76  1  0
 29 77  1  0
 30 78  1  0
 30 79  1  0
 32 80  1  0
 32 81  1  0
 32 82  1  0
M  END
>  <meeko>  (16) 
{"is_sidechain": [false], "intermolecular_energy": 2.731, "internal_energy": -0.839}

$$$$
EPH_relaxed_0001_pdb2pqr_Repair_206_r2_0001_out
     RDKit          3D

 82 86  0  0  0  0  0  0  0  0999 V2000
    0.2370   10.0500   -4.5220 C   0  0  0  0  0  0  0  0  0  0  0  0
    1.2080   10.8150   -3.6180 C   0  0  2  0  0  0  0  0  0  0  0  0
    1.7370    9.9410   -2.4630 C   0  0  0  0  0  0  0  0  0  0  0  0
    0.7920    8.8030   -2.0690 C   0  0  0  0  0  0  0  0  0  0  0  0
   -0.0620    9.1740   -0.8950 C   0  0  2  0  0  0  0  0  0  0  0  0
   -0.5690    8.0600   -0.1480 O   0  0  0  0  0  0  0  0  0  0  0  0
   -1.5480    8.8750   -0.8130 C   0  0  0  0  0  0  0  0  0  0  0  0
   -2.2650    8.1770   -1.9260 C   0  0  0  0  0  0  0  0  0  0  0  0
   -2.3910    9.6870    0.1190 C   0  0  0  0  0  0  0  0  0  0  0  0
    0.5270   12.0590   -3.0590 C   0  0  1  0  0  0  0  0  0  0  0  0
   -0.8010   11.7350   -2.3240 C   0  0  0  0  0  0  0  0  0  0  0  0
   -0.9140   12.7330   -1.1430 C   0  0  0  0  0  0  0  0  0  0  0  0
    0.1680   13.8010   -1.4310 C   0  0  1  0  0  0  0  0  0  0  0  0
   -0.4860   14.7630   -2.4710 C   0  0  0  0  0  0  0  0  0  0  0  0
    0.7170   14.5790   -0.1910 C   0  0  2  0  0  0  0  0  0  0  0  0
   -0.3250   15.4210    0.5660 C   0  0  0  0  0  0  0  0  0  0  0  0
   -0.4680   16.8310    0.0970 C   0  0  0  0  0  0  0  0  0  0  0  0
    0.4030   17.4840   -0.6950 C   0  0  0  0  0  0  0  0  0  0  0  0
    1.7230   16.8290   -1.1230 C   0  0  1  0  0  0  0  0  0  0  0  0
    2.8860   17.8370   -0.9340 C   0  0  0  0  0  0  0  0  0  0  0  0
    2.6350   19.1620   -1.6470 C   0  0  0  0  0  0  0  0  0  0  0  0
    1.3440   19.8100   -1.1530 C   0  0  2  0  0  0  0  0  0  0  0  0
    1.5160   20.1930    0.2150 O   0  0  0  0  0  0  0  0  0  0  0  0
    0.1030   18.8840   -1.2840 C   0  0  0  0  0  0  0  0  0  0  0  0
   -0.2630   18.7140   -2.7790 C   0  0  0  0  0  0  0  0  0  0  0  0
   -1.1020   19.6040   -0.6220 C   0  0  0  0  0  0  0  0  0  0  0  0
    2.0330   15.4100   -0.4780 C   0  0  1  0  0  0  0  0  0  0  0  0
    2.7510   15.5940    0.8940 C   0  0  0  0  0  0  0  0  0  0  0  0
    3.0410   14.6330   -1.4060 C   0  0  0  0  0  0  0  0  0  0  0  0
    2.4300   13.7860   -2.5390 C   0  0  0  0  0  0  0  0  0  0  0  0
    1.3090   12.8880   -2.0090 C   0  0  2  0  0  0  0  0  0  0  0  0
    1.9400   11.8930   -0.9760 C   0  0  0  0  0  0  0  0  0  0  0  0
   -0.4764    9.4880   -3.9013 H   0  0  0  0  0  0  0  0  0  0  0  0
   -0.3109   10.7618   -5.1570 H   0  0  0  0  0  0  0  0  0  0  0  0
    0.8008    9.3508   -5.1570 H   0  0  0  0  0  0  0  0  0  0  0  0
    2.0716   11.1080   -4.2331 H   0  0  0  0  0  0  0  0  0  0  0  0
    2.6981    9.5033   -2.7709 H   0  0  0  0  0  0  0  0  0  0  0  0
    1.8357   10.5953   -1.5843 H   0  0  0  0  0  0  0  0  0  0  0  0
    0.1406    8.5683   -2.9238 H   0  0  0  0  0  0  0  0  0  0  0  0
    1.4022    7.9320   -1.7879 H   0  0  0  0  0  0  0  0  0  0  0  0
    0.5145   10.0975   -0.7374 H   0  0  0  0  0  0  0  0  0  0  0  0
   -2.9933    7.4680   -1.5053 H   0  0  0  0  0  0  0  0  0  0  0  0
   -2.7909    8.9185   -2.5454 H   0  0  0  0  0  0  0  0  0  0  0  0
   -1.5378    7.6314   -2.5454 H   0  0  0  0  0  0  0  0  0  0  0  0
   -2.1323    9.4378    1.1587 H   0  0  0  0  0  0  0  0  0  0  0  0
   -2.2072   10.7569   -0.0583 H   0  0  0  0  0  0  0  0  0  0  0  0
   -3.4533    9.4632   -0.0583 H   0  0  0  0  0  0  0  0  0  0  0  0
    0.4138   12.6385   -3.9871 H   0  0  0  0  0  0  0  0  0  0  0  0
   -1.6530   11.8602   -3.0085 H   0  0  0  0  0  0  0  0  0  0  0  0
   -0.8099   10.6954   -1.9646 H   0  0  0  0  0  0  0  0  0  0  0  0
   -1.9139   13.1906   -1.1154 H   0  0  0  0  0  0  0  0  0  0  0  0
   -0.7694   12.2444   -0.1681 H   0  0  0  0  0  0  0  0  0  0  0  0
   -1.0283   15.5607   -1.9422 H   0  0  0  0  0  0  0  0  0  0  0  0
    0.2974   15.2082   -3.1020 H   0  0  0  0  0  0  0  0  0  0  0  0
   -1.1881   14.1983   -3.1020 H   0  0  0  0  0  0  0  0  0  0  0  0
    0.9961   13.7642    0.4932 H   0  0  0  0  0  0  0  0  0  0  0  0
   -1.3023   14.9271    0.4610 H   0  0  0  0  0  0  0  0  0  0  0  0
    0.0291   15.4806    1.6057 H   0  0  0  0  0  0  0  0  0  0  0  0
   -1.3606   17.3831    0.4264 H   0  0  0  0  0  0  0  0  0  0  0  0
    1.6108   16.5856   -2.1898 H   0  0  0  0  0  0  0  0  0  0  0  0
    3.0108   18.0335    0.1411 H   0  0  0  0  0  0  0  0  0  0  0  0
    3.7901   17.3888   -1.3719 H   0  0  0  0  0  0  0  0  0  0  0  0
    3.4772   19.8418   -1.4508 H   0  0  0  0  0  0  0  0  0  0  0  0
    2.5409   18.9685   -2.7257 H   0  0  0  0  0  0  0  0  0  0  0  0
    1.1496   20.6852   -1.7903 H   0  0  0  0  0  0  0  0  0  0  0  0
    2.1260   19.5570    0.6250 H   0  0  0  0  0  0  0  0  0  0  0  0
   -1.2577   18.2520   -2.8627 H   0  0  0  0  0  0  0  0  0  0  0  0
   -0.2740   19.6992   -3.2681 H   0  0  0  0  0  0  0  0  0  0  0  0
    0.4827   18.0701   -3.2681 H   0  0  0  0  0  0  0  0  0  0  0  0
   -1.0069   19.5472    0.4724 H   0  0  0  0  0  0  0  0  0  0  0  0
   -1.1159   20.6586   -0.9346 H   0  0  0  0  0  0  0  0  0  0  0  0
   -2.0372   19.1166   -0.9346 H   0  0  0  0  0  0  0  0  0  0  0  0
    2.0359   15.4108    1.7095 H   0  0  0  0  0  0  0  0  0  0  0  0
    3.5847   14.8805    0.9701 H   0  0  0  0  0  0  0  0  0  0  0  0
    3.1388   16.6206    0.9701 H   0  0  0  0  0  0  0  0  0  0  0  0
    3.7081   15.3756   -1.8682 H   0  0  0  0  0  0  0  0  0  0  0  0
    3.5429   13.9109   -0.7451 H   0  0  0  0  0  0  0  0  0  0  0  0
    2.0202   14.4566   -3.3087 H   0  0  0  0  0  0  0  0  0  0  0  0
    3.2188   13.1480   -2.9642 H   0  0  0  0  0  0  0  0  0  0  0  0
    1.7215   12.2376    0.0455 H   0  0  0  0  0  0  0  0  0  0  0  0
    1.5123   10.8905   -1.1242 H   0  0  0  0  0  0  0  0  0  0  0  0
    3.0292   11.8525   -1.1242 H   0  0  0  0  0  0  0  0  0  0  0  0
  1  2  1  0
  2  3  1  0
  3  4  1  0
  4  5  1  0
  5  6  1  0
  6  7  1  0
  7  8  1  0
  7  9  1  0
  2 10  1  0
 10 11  1  0
 11 12  1  0
 12 13  1  0
 13 14  1  6
 13 15  1  0
 15 16  1  0
 16 17  1  0
 17 18  2  0
 18 19  1  0
 19 20  1  0
 20 21  1  0
 21 22  1  0
 22 23  1  0
 22 24  1  0
 24 25  1  0
 24 26  1  0
 19 27  1  0
 27 28  1  1
 27 29  1  0
 29 30  1  0
 30 31  1  0
 31 32  1  1
  7  5  1  0
 31 10  1  0
 31 13  1  0
 27 15  1  0
 24 18  1  0
  1 33  1  0
  1 34  1  0
  1 35  1  0
  2 36  1  6
  3 37  1  0
  3 38  1  0
  4 39  1  0
  4 40  1  0
  5 41  1  1
  8 42  1  0
  8 43  1  0
  8 44  1  0
  9 45  1  0
  9 46  1  0
  9 47  1  0
 10 48  1  6
 11 49  1  0
 11 50  1  0
 12 51  1  0
 12 52  1  0
 14 53  1  0
 14 54  1  0
 14 55  1  0
 15 56  1  1
 16 57  1  0
 16 58  1  0
 17 59  1  0
 19 60  1  6
 20 61  1  0
 20 62  1  0
 21 63  1  0
 21 64  1  0
 22 65  1  6
 23 66  1  0
 25 67  1  0
 25 68  1  0
 25 69  1  0
 26 70  1  0
 26 71  1  0
 26 72  1  0
 28 73  1  0
 28 74  1  0
 28 75  1  0
 29 76  1  0
 29 77  1  0
 30 78  1  0
 30 79  1  0
 32 80  1  0
 32 81  1  0
 32 82  1  0
M  END
>  <meeko>  (17) 
{"is_sidechain": [false], "intermolecular_energy": 2.731, "internal_energy": -0.839}

$$$$
EPH_relaxed_0001_pdb2pqr_Repair_206_r2_0001_out
     RDKit          3D

 82 86  0  0  0  0  0  0  0  0999 V2000
   -0.2270   19.6520    0.4420 C   0  0  0  0  0  0  0  0  0  0  0  0
    0.9010   18.8170    1.0570 C   0  0  2  0  0  0  0  0  0  0  0  0
    2.2540   19.0660    0.3610 C   0  0  0  0  0  0  0  0  0  0  0  0
    3.0730   20.1950    0.9940 C   0  0  0  0  0  0  0  0  0  0  0  0
    4.2230   19.6630    1.7950 C   0  0  2  0  0  0  0  0  0  0  0  0
    4.0450   18.3270    2.2830 O   0  0  0  0  0  0  0  0  0  0  0  0
    4.1380   19.3580    3.2790 C   0  0  0  0  0  0  0  0  0  0  0  0
    2.8740   19.5750    4.0500 C   0  0  0  0  0  0  0  0  0  0  0  0
    5.4060   19.3150    4.0730 C   0  0  0  0  0  0  0  0  0  0  0  0
    0.5460   17.3360    0.9910 C   0  0  1  0  0  0  0  0  0  0  0  0
   -0.9100   17.0500    1.4460 C   0  0  0  0  0  0  0  0  0  0  0  0
   -1.4280   15.8770    0.5740 C   0  0  0  0  0  0  0  0  0  0  0  0
   -0.1630   15.3130   -0.1130 C   0  0  1  0  0  0  0  0  0  0  0  0
    0.4980   14.3900    0.9590 C   0  0  0  0  0  0  0  0  0  0  0  0
   -0.3880   14.5590   -1.4640 C   0  0  2  0  0  0  0  0  0  0  0  0
   -1.2530   13.2900   -1.3670 C   0  0  0  0  0  0  0  0  0  0  0  0
   -0.5020   12.0250   -1.1100 C   0  0  0  0  0  0  0  0  0  0  0  0
    0.8270   11.8630   -1.2440 C   0  0  0  0  0  0  0  0  0  0  0  0
    1.7070   12.9950   -1.7890 C   0  0  1  0  0  0  0  0  0  0  0  0
    2.6750   12.4280   -2.8610 C   0  0  0  0  0  0  0  0  0  0  0  0
    3.4940   11.2490   -2.3460 C   0  0  0  0  0  0  0  0  0  0  0  0
    2.5840   10.1210   -1.8670 C   0  0  2  0  0  0  0  0  0  0  0  0
    1.8890    9.5790   -2.9940 O   0  0  0  0  0  0  0  0  0  0  0  0
    1.5580   10.5750   -0.7910 C   0  0  0  0  0  0  0  0  0  0  0  0
    2.2970   10.8780    0.5370 C   0  0  0  0  0  0  0  0  0  0  0  0
    0.6120    9.3800   -0.4980 C   0  0  0  0  0  0  0  0  0  0  0  0
    0.9380   14.2930   -2.2870 C   0  0  1  0  0  0  0  0  0  0  0  0
    0.5100   14.1200   -3.7760 C   0  0  0  0  0  0  0  0  0  0  0  0
    1.9220   15.5210   -2.2480 C   0  0  0  0  0  0  0  0  0  0  0  0
    2.0110   16.2980   -0.9200 C   0  0  0  0  0  0  0  0  0  0  0  0
    0.6150   16.6490   -0.3960 C   0  0  2  0  0  0  0  0  0  0  0  0
   -0.0650   17.5950   -1.4430 C   0  0  0  0  0  0  0  0  0  0  0  0
   -0.8315   20.0995    1.2447 H   0  0  0  0  0  0  0  0  0  0  0  0
    0.2047   20.4499   -0.1801 H   0  0  0  0  0  0  0  0  0  0  0  0
   -0.8640   19.0061   -0.1801 H   0  0  0  0  0  0  0  0  0  0  0  0
    1.0082   19.1276    2.1068 H   0  0  0  0  0  0  0  0  0  0  0  0
    2.8449   18.1394    0.4087 H   0  0  0  0  0  0  0  0  0  0  0  0
    2.0328   19.3697   -0.6728 H   0  0  0  0  0  0  0  0  0  0  0  0
    3.4640   20.8428    0.1956 H   0  0  0  0  0  0  0  0  0  0  0  0
    2.4145   20.7585    1.6714 H   0  0  0  0  0  0  0  0  0  0  0  0
    4.9391   20.2512    1.2023 H   0  0  0  0  0  0  0  0  0  0  0  0
    3.0909   19.5378    5.1278 H   0  0  0  0  0  0  0  0  0  0  0  0
    2.4529   20.5586    3.7945 H   0  0  0  0  0  0  0  0  0  0  0  0
    2.1490   18.7882    3.7945 H   0  0  0  0  0  0  0  0  0  0  0  0
    5.1668   19.3231    5.1466 H   0  0  0  0  0  0  0  0  0  0  0  0
    5.9611   18.3975    3.8280 H   0  0  0  0  0  0  0  0  0  0  0  0
    6.0220   20.1928    3.8280 H   0  0  0  0  0  0  0  0  0  0  0  0
    1.3266   16.9298    1.6511 H   0  0  0  0  0  0  0  0  0  0  0  0
   -0.9263   16.7679    2.5091 H   0  0  0  0  0  0  0  0  0  0  0  0
   -1.5437   17.9412    1.3267 H   0  0  0  0  0  0  0  0  0  0  0  0
   -1.9049   15.1087    1.2003 H   0  0  0  0  0  0  0  0  0  0  0  0
   -2.1876   16.2013   -0.1525 H   0  0  0  0  0  0  0  0  0  0  0  0
    0.2387   14.7521    1.9648 H   0  0  0  0  0  0  0  0  0  0  0  0
    0.1303   13.3609    0.8337 H   0  0  0  0  0  0  0  0  0  0  0  0
    1.5907   14.4067    0.8337 H   0  0  0  0  0  0  0  0  0  0  0  0
   -0.9824   15.2824   -2.0413 H   0  0  0  0  0  0  0  0  0  0  0  0
   -1.9726   13.4308   -0.5470 H   0  0  0  0  0  0  0  0  0  0  0  0
   -1.7267   13.1682   -2.3523 H   0  0  0  0  0  0  0  0  0  0  0  0
   -1.0850   11.1513   -0.7833 H   0  0  0  0  0  0  0  0  0  0  0  0
    2.2809   13.3739   -0.9305 H   0  0  0  0  0  0  0  0  0  0  0  0
    2.0851   12.0954   -3.7279 H   0  0  0  0  0  0  0  0  0  0  0  0
    3.3782   13.2292   -3.1324 H   0  0  0  0  0  0  0  0  0  0  0  0
    4.1353   10.8743   -3.1574 H   0  0  0  0  0  0  0  0  0  0  0  0
    4.1064   11.5903   -1.4984 H   0  0  0  0  0  0  0  0  0  0  0  0
    3.2230    9.3627   -1.3910 H   0  0  0  0  0  0  0  0  0  0  0  0
    2.5210    9.0350   -3.4960 H   0  0  0  0  0  0  0  0  0  0  0  0
    1.6496   10.6125    1.3857 H   0  0  0  0  0  0  0  0  0  0  0  0
    3.2237   10.2873    0.5840 H   0  0  0  0  0  0  0  0  0  0  0  0
    2.5423   11.9493    0.5840 H   0  0  0  0  0  0  0  0  0  0  0  0
    0.5100    9.2512    0.5897 H   0  0  0  0  0  0  0  0  0  0  0  0
   -0.3765    9.5784   -0.9380 H   0  0  0  0  0  0  0  0  0  0  0  0
    1.0319    8.4635   -0.9380 H   0  0  0  0  0  0  0  0  0  0  0  0
   -0.5091   13.7081   -3.8191 H   0  0  0  0  0  0  0  0  0  0  0  0
    0.5319   15.0976   -4.2798 H   0  0  0  0  0  0  0  0  0  0  0  0
    1.2051   13.4322   -4.2798 H   0  0  0  0  0  0  0  0  0  0  0  0
    2.9296   15.1477   -2.4833 H   0  0  0  0  0  0  0  0  0  0  0  0
    1.5151   16.2392   -2.9751 H   0  0  0  0  0  0  0  0  0  0  0  0
    2.5299   15.6779   -0.1743 H   0  0  0  0  0  0  0  0  0  0  0  0
    2.5647   17.2320   -1.0963 H   0  0  0  0  0  0  0  0  0  0  0  0
   -0.6288   18.3793   -0.9167 H   0  0  0  0  0  0  0  0  0  0  0  0
    0.7074   18.0592   -2.0738 H   0  0  0  0  0  0  0  0  0  0  0  0
   -0.7512   17.0108   -2.0738 H   0  0  0  0  0  0  0  0  0  0  0  0
  1  2  1  0
  2  3  1  0
  3  4  1  0
  4  5  1  0
  5  6  1  0
  6  7  1  0
  7  8  1  0
  7  9  1  0
  2 10  1  0
 10 11  1  0
 11 12  1  0
 12 13  1  0
 13 14  1  1
 13 15  1  0
 15 16  1  0
 16 17  1  0
 17 18  2  0
 18 19  1  0
 19 20  1  0
 20 21  1  0
 21 22  1  0
 22 23  1  0
 22 24  1  0
 24 25  1  0
 24 26  1  0
 19 27  1  0
 27 28  1  6
 27 29  1  0
 29 30  1  0
 30 31  1  0
 31 32  1  6
  7  5  1  0
 31 10  1  0
 31 13  1  0
 27 15  1  0
 24 18  1  0
  1 33  1  0
  1 34  1  0
  1 35  1  0
  2 36  1  1
  3 37  1  0
  3 38  1  0
  4 39  1  0
  4 40  1  0
  5 41  1  1
  8 42  1  0
  8 43  1  0
  8 44  1  0
  9 45  1  0
  9 46  1  0
  9 47  1  0
 10 48  1  1
 11 49  1  0
 11 50  1  0
 12 51  1  0
 12 52  1  0
 14 53  1  0
 14 54  1  0
 14 55  1  0
 15 56  1  6
 16 57  1  0
 16 58  1  0
 17 59  1  0
 19 60  1  1
 20 61  1  0
 20 62  1  0
 21 63  1  0
 21 64  1  0
 22 65  1  1
 23 66  1  0
 25 67  1  0
 25 68  1  0
 25 69  1  0
 26 70  1  0
 26 71  1  0
 26 72  1  0
 28 73  1  0
 28 74  1  0
 28 75  1  0
 29 76  1  0
 29 77  1  0
 30 78  1  0
 30 79  1  0
 32 80  1  0
 32 81  1  0
 32 82  1  0
M  END
>  <meeko>  (18) 
{"is_sidechain": [false], "intermolecular_energy": 2.731, "internal_energy": -0.839}

$$$$
