EPH_relaxed_0001_pdb2pqr_Repair_151_r2_0001_out
     RDKit          3D

 82 86  0  0  0  0  0  0  0  0999 V2000
   -1.6880    8.5770   -1.8510 C   0  0  0  0  0  0  0  0  0  0  0  0
   -2.0770    9.1190   -0.4720 C   0  0  2  0  0  0  0  0  0  0  0  0
   -3.5680    9.5030   -0.3980 C   0  0  0  0  0  0  0  0  0  0  0  0
   -4.5060    8.3030   -0.2420 C   0  0  0  0  0  0  0  0  0  0  0  0
   -5.1850    7.9580   -1.5320 C   0  0  2  0  0  0  0  0  0  0  0  0
   -6.3640    8.7240   -1.8120 O   0  0  0  0  0  0  0  0  0  0  0  0
   -6.5570    7.3140   -1.6100 C   0  0  0  0  0  0  0  0  0  0  0  0
   -7.3320    6.9780   -0.3740 C   0  0  0  0  0  0  0  0  0  0  0  0
   -6.9300    6.5720   -2.8550 C   0  0  0  0  0  0  0  0  0  0  0  0
   -1.2110   10.3240   -0.1250 C   0  0  1  0  0  0  0  0  0  0  0  0
   -0.1790   10.0160    0.9930 C   0  0  0  0  0  0  0  0  0  0  0  0
    1.0950   10.8360    0.6650 C   0  0  0  0  0  0  0  0  0  0  0  0
    0.6460   11.8330   -0.4290 C   0  0  1  0  0  0  0  0  0  0  0  0
   -0.0540   12.9920    0.3480 C   0  0  0  0  0  0  0  0  0  0  0  0
    1.7660   12.3680   -1.3780 C   0  0  2  0  0  0  0  0  0  0  0  0
    2.8750   13.1800   -0.6860 C   0  0  0  0  0  0  0  0  0  0  0  0
    2.6320   14.6510   -0.6050 C   0  0  0  0  0  0  0  0  0  0  0  0
    1.7120   15.3320   -1.3130 C   0  0  0  0  0  0  0  0  0  0  0  0
    0.8610   14.6310   -2.3800 C   0  0  1  0  0  0  0  0  0  0  0  0
    0.8370   15.4910   -3.6700 C   0  0  0  0  0  0  0  0  0  0  0  0
    0.3810   16.9230   -3.4100 C   0  0  0  0  0  0  0  0  0  0  0  0
    1.2850   17.6060   -2.3870 C   0  0  2  0  0  0  0  0  0  0  0  0
    2.5870   17.7680   -2.9590 O   0  0  0  0  0  0  0  0  0  0  0  0
    1.3960   16.8250   -1.0480 C   0  0  0  0  0  0  0  0  0  0  0  0
    0.0510   16.9090   -0.2840 C   0  0  0  0  0  0  0  0  0  0  0  0
    2.4460   17.5450   -0.1600 C   0  0  0  0  0  0  0  0  0  0  0  0
    1.2250   13.1100   -2.6670 C   0  0  1  0  0  0  0  0  0  0  0  0
    2.3560   13.0260   -3.7370 C   0  0  0  0  0  0  0  0  0  0  0  0
   -0.0300   12.3900   -3.2890 C   0  0  0  0  0  0  0  0  0  0  0  0
   -1.0400   11.7780   -2.3000 C   0  0  0  0  0  0  0  0  0  0  0  0
   -0.3290   10.9150   -1.2530 C   0  0  2  0  0  0  0  0  0  0  0  0
    0.3650    9.7280   -2.0030 C   0  0  0  0  0  0  0  0  0  0  0  0
   -1.0505    7.6888   -1.7294 H   0  0  0  0  0  0  0  0  0  0  0  0
   -2.5967    8.3028   -2.4069 H   0  0  0  0  0  0  0  0  0  0  0  0
   -1.1374    9.3502   -2.4069 H   0  0  0  0  0  0  0  0  0  0  0  0
   -1.9070    8.3153    0.2596 H   0  0  0  0  0  0  0  0  0  0  0  0
   -3.7122   10.1708    0.4641 H   0  0  0  0  0  0  0  0  0  0  0  0
   -3.8226    9.9879   -1.3519 H   0  0  0  0  0  0  0  0  0  0  0  0
   -3.9209    7.4350    0.0960 H   0  0  0  0  0  0  0  0  0  0  0  0
   -5.2807    8.5671    0.4929 H   0  0  0  0  0  0  0  0  0  0  0  0
   -4.2218    7.7006   -1.9968 H   0  0  0  0  0  0  0  0  0  0  0  0
   -6.7362    7.2363    0.5139 H   0  0  0  0  0  0  0  0  0  0  0  0
   -8.2719    7.5494   -0.3639 H   0  0  0  0  0  0  0  0  0  0  0  0
   -7.5573    5.9014   -0.3639 H   0  0  0  0  0  0  0  0  0  0  0  0
   -7.4089    5.6194   -2.5845 H   0  0  0  0  0  0  0  0  0  0  0  0
   -7.6301    7.1790   -3.4478 H   0  0  0  0  0  0  0  0  0  0  0  0
   -6.0252    6.3722   -3.4478 H   0  0  0  0  0  0  0  0  0  0  0  0
   -1.9972   11.0413    0.1532 H   0  0  0  0  0  0  0  0  0  0  0  0
   -0.5807   10.3159    1.9722 H   0  0  0  0  0  0  0  0  0  0  0  0
    0.0449    8.9400    1.0378 H   0  0  0  0  0  0  0  0  0  0  0  0
    1.4518   11.3725    1.5566 H   0  0  0  0  0  0  0  0  0  0  0  0
    1.9274   10.1985    0.3323 H   0  0  0  0  0  0  0  0  0  0  0  0
    0.0485   12.8224    1.4300 H   0  0  0  0  0  0  0  0  0  0  0  0
    0.4170   13.9495    0.0807 H   0  0  0  0  0  0  0  0  0  0  0  0
   -1.1207   13.0208    0.0807 H   0  0  0  0  0  0  0  0  0  0  0  0
    2.2456   11.4399   -1.7223 H   0  0  0  0  0  0  0  0  0  0  0  0
    2.9875   12.7971    0.3390 H   0  0  0  0  0  0  0  0  0  0  0  0
    3.7758   13.0538   -1.3046 H   0  0  0  0  0  0  0  0  0  0  0  0
    3.2580   15.2269    0.0925 H   0  0  0  0  0  0  0  0  0  0  0  0
   -0.1536   14.5584   -1.9612 H   0  0  0  0  0  0  0  0  0  0  0  0
    1.8508   15.5157   -4.0962 H   0  0  0  0  0  0  0  0  0  0  0  0
    0.1171   15.0322   -4.3637 H   0  0  0  0  0  0  0  0  0  0  0  0
    0.4135   17.4881   -4.3532 H   0  0  0  0  0  0  0  0  0  0  0  0
   -0.6441   16.8983   -3.0117 H   0  0  0  0  0  0  0  0  0  0  0  0
    0.8328   18.5791   -2.1449 H   0  0  0  0  0  0  0  0  0  0  0  0
    3.1600   17.0750   -2.5870 H   0  0  0  0  0  0  0  0  0  0  0  0
    0.2431   16.8970    0.7990 H   0  0  0  0  0  0  0  0  0  0  0  0
   -0.4666   17.8412   -0.5543 H   0  0  0  0  0  0  0  0  0  0  0  0
   -0.5786   16.0484   -0.5543 H   0  0  0  0  0  0  0  0  0  0  0  0
    2.2047   17.3795    0.9004 H   0  0  0  0  0  0  0  0  0  0  0  0
    3.4466   17.1421   -0.3755 H   0  0  0  0  0  0  0  0  0  0  0  0
    2.4308   18.6236   -0.3755 H   0  0  0  0  0  0  0  0  0  0  0  0
    3.3317   12.9535   -3.2343 H   0  0  0  0  0  0  0  0  0  0  0  0
    2.2006   12.1369   -4.3658 H   0  0  0  0  0  0  0  0  0  0  0  0
    2.3336   13.9283   -4.3658 H   0  0  0  0  0  0  0  0  0  0  0  0
   -0.5687   13.1290   -3.9003 H   0  0  0  0  0  0  0  0  0  0  0  0
    0.3768   11.5361   -3.8506 H   0  0  0  0  0  0  0  0  0  0  0  0
   -1.5811   12.5889   -1.7905 H   0  0  0  0  0  0  0  0  0  0  0  0
   -1.7395   11.1418   -2.8621 H   0  0  0  0  0  0  0  0  0  0  0  0
    0.7781    9.0214   -1.2681 H   0  0  0  0  0  0  0  0  0  0  0  0
   -0.3732    9.2112   -2.6338 H   0  0  0  0  0  0  0  0  0  0  0  0
    1.1775   10.1178   -2.6338 H   0  0  0  0  0  0  0  0  0  0  0  0
  1  2  1  0
  2  3  1  0
  3  4  1  0
  4  5  1  0
  5  6  1  0
  6  7  1  0
  7  8  1  0
  7  9  1  0
  2 10  1  0
 10 11  1  0
 11 12  1  0
 12 13  1  0
 13 14  1  1
 13 15  1  0
 15 16  1  0
 16 17  1  0
 17 18  2  0
 18 19  1  0
 19 20  1  0
 20 21  1  0
 21 22  1  0
 22 23  1  0
 22 24  1  0
 24 25  1  0
 24 26  1  0
 19 27  1  0
 27 28  1  6
 27 29  1  0
 29 30  1  0
 30 31  1  0
 31 32  1  6
  7  5  1  0
 31 10  1  0
 31 13  1  0
 27 15  1  0
 24 18  1  0
  1 33  1  0
  1 34  1  0
  1 35  1  0
  2 36  1  1
  3 37  1  0
  3 38  1  0
  4 39  1  0
  4 40  1  0
  5 41  1  6
  8 42  1  0
  8 43  1  0
  8 44  1  0
  9 45  1  0
  9 46  1  0
  9 47  1  0
 10 48  1  1
 11 49  1  0
 11 50  1  0
 12 51  1  0
 12 52  1  0
 14 53  1  0
 14 54  1  0
 14 55  1  0
 15 56  1  6
 16 57  1  0
 16 58  1  0
 17 59  1  0
 19 60  1  1
 20 61  1  0
 20 62  1  0
 21 63  1  0
 21 64  1  0
 22 65  1  1
 23 66  1  0
 25 67  1  0
 25 68  1  0
 25 69  1  0
 26 70  1  0
 26 71  1  0
 26 72  1  0
 28 73  1  0
 28 74  1  0
 28 75  1  0
 29 76  1  0
 29 77  1  0
 30 78  1  0
 30 79  1  0
 32 80  1  0
 32 81  1  0
 32 82  1  0
M  END
>  <meeko>  (1) 
{"is_sidechain": [false], "intermolecular_energy": 2.731, "internal_energy": -0.839}

$$$$
EPH_relaxed_0001_pdb2pqr_Repair_151_r2_0001_out
     RDKit          3D

 82 86  0  0  0  0  0  0  0  0999 V2000
    4.3500   17.3490   -0.6140 C   0  0  0  0  0  0  0  0  0  0  0  0
    2.9820   17.9700   -0.3170 C   0  0  2  0  0  0  0  0  0  0  0  0
    2.9830   18.7770    0.9970 C   0  0  0  0  0  0  0  0  0  0  0  0
    4.2790   18.6410    1.8010 C   0  0  0  0  0  0  0  0  0  0  0  0
    4.1360   19.2060    3.1820 C   0  0  2  0  0  0  0  0  0  0  0  0
    5.1230   20.1850    3.5330 O   0  0  0  0  0  0  0  0  0  0  0  0
    5.1410   18.9650    4.2930 C   0  0  0  0  0  0  0  0  0  0  0  0
    6.3620   18.1280    4.0720 C   0  0  0  0  0  0  0  0  0  0  0  0
    4.6930   19.1310    5.7110 C   0  0  0  0  0  0  0  0  0  0  0  0
    1.9180   16.8800   -0.2580 C   0  0  1  0  0  0  0  0  0  0  0  0
    0.4840   17.4330   -0.4690 C   0  0  0  0  0  0  0  0  0  0  0  0
   -0.3060   16.3460   -1.2430 C   0  0  0  0  0  0  0  0  0  0  0  0
    0.5860   15.0850   -1.1620 C   0  0  1  0  0  0  0  0  0  0  0  0
    0.2910   14.4750    0.2440 C   0  0  0  0  0  0  0  0  0  0  0  0
    0.3950   14.0300   -2.3000 C   0  0  2  0  0  0  0  0  0  0  0  0
   -1.0030   13.3910   -2.3700 C   0  0  0  0  0  0  0  0  0  0  0  0
   -1.1750   12.1430   -1.5680 C   0  0  0  0  0  0  0  0  0  0  0  0
   -0.1770   11.4010   -1.0520 C   0  0  0  0  0  0  0  0  0  0  0  0
    1.2900   11.7450   -1.3400 C   0  0  1  0  0  0  0  0  0  0  0  0
    2.0580   10.4550   -1.7300 C   0  0  0  0  0  0  0  0  0  0  0  0
    1.9110    9.3500   -0.6880 C   0  0  0  0  0  0  0  0  0  0  0  0
    0.4420    8.9960   -0.4720 C   0  0  2  0  0  0  0  0  0  0  0  0
   -0.0680    8.3980   -1.6680 O   0  0  0  0  0  0  0  0  0  0  0  0
   -0.4330   10.2200   -0.0840 C   0  0  0  0  0  0  0  0  0  0  0  0
   -0.0760   10.6820    1.3510 C   0  0  0  0  0  0  0  0  0  0  0  0
   -1.9130    9.7530   -0.0350 C   0  0  0  0  0  0  0  0  0  0  0  0
    1.5350   12.9340   -2.3660 C   0  0  1  0  0  0  0  0  0  0  0  0
    1.5410   12.3850   -3.8260 C   0  0  0  0  0  0  0  0  0  0  0  0
    2.9650   13.5430   -2.1150 C   0  0  0  0  0  0  0  0  0  0  0  0
    3.0680   14.6650   -1.0640 C   0  0  0  0  0  0  0  0  0  0  0  0
    2.0060   15.7420   -1.3060 C   0  0  2  0  0  0  0  0  0  0  0  0
    2.2910   16.3890   -2.7050 C   0  0  0  0  0  0  0  0  0  0  0  0
    4.8607   17.1172    0.3323 H   0  0  0  0  0  0  0  0  0  0  0  0
    4.2147   16.4241   -1.1938 H   0  0  0  0  0  0  0  0  0  0  0  0
    4.9572   18.0597   -1.1938 H   0  0  0  0  0  0  0  0  0  0  0  0
    2.7523   18.6700   -1.1338 H   0  0  0  0  0  0  0  0  0  0  0  0
    2.8358   19.8393    0.7524 H   0  0  0  0  0  0  0  0  0  0  0  0
    2.1726   18.3745    1.6224 H   0  0  0  0  0  0  0  0  0  0  0  0
    4.5413   17.5754    1.8771 H   0  0  0  0  0  0  0  0  0  0  0  0
    5.0669   19.2044    1.2797 H   0  0  0  0  0  0  0  0  0  0  0  0
    3.0424   19.0948    3.1399 H   0  0  0  0  0  0  0  0  0  0  0  0
    6.7874   17.8364    5.0436 H   0  0  0  0  0  0  0  0  0  0  0  0
    6.0901   17.2254    3.5050 H   0  0  0  0  0  0  0  0  0  0  0  0
    7.1058   18.7070    3.5050 H   0  0  0  0  0  0  0  0  0  0  0  0
    5.5048   18.8302    6.3896 H   0  0  0  0  0  0  0  0  0  0  0  0
    4.4345   20.1846    5.8929 H   0  0  0  0  0  0  0  0  0  0  0  0
    3.8104   18.5002    5.8929 H   0  0  0  0  0  0  0  0  0  0  0  0
    2.1184   16.4817    0.7476 H   0  0  0  0  0  0  0  0  0  0  0  0
    0.0067   17.6283    0.5026 H   0  0  0  0  0  0  0  0  0  0  0  0
    0.5045   18.3797   -1.0287 H   0  0  0  0  0  0  0  0  0  0  0  0
   -1.2815   16.1630   -0.7687 H   0  0  0  0  0  0  0  0  0  0  0  0
   -0.5166   16.6425   -2.2811 H   0  0  0  0  0  0  0  0  0  0  0  0
    0.6284   15.1728    1.0245 H   0  0  0  0  0  0  0  0  0  0  0  0
   -0.7902   14.3022    0.3492 H   0  0  0  0  0  0  0  0  0  0  0  0
    0.8269   13.5201    0.3492 H   0  0  0  0  0  0  0  0  0  0  0  0
    0.4887   14.6437   -3.2081 H   0  0  0  0  0  0  0  0  0  0  0  0
   -1.7331   14.1303   -2.0089 H   0  0  0  0  0  0  0  0  0  0  0  0
   -1.1526   13.1007   -3.4204 H   0  0  0  0  0  0  0  0  0  0  0  0
   -2.2040   11.8011   -1.3832 H   0  0  0  0  0  0  0  0  0  0  0  0
    1.6960   12.1521   -0.4022 H   0  0  0  0  0  0  0  0  0  0  0  0
    1.6670   10.0884   -2.6906 H   0  0  0  0  0  0  0  0  0  0  0  0
    3.1259   10.7096   -1.7989 H   0  0  0  0  0  0  0  0  0  0  0  0
    2.4499    8.4554   -1.0334 H   0  0  0  0  0  0  0  0  0  0  0  0
    2.3298    9.7074    0.2643 H   0  0  0  0  0  0  0  0  0  0  0  0
    0.3921    8.2956    0.3747 H   0  0  0  0  0  0  0  0  0  0  0  0
   -0.0640    7.4340   -1.5400 H   0  0  0  0  0  0  0  0  0  0  0  0
   -0.5789   10.0312    2.0815 H   0  0  0  0  0  0  0  0  0  0  0  0
    1.0129   10.6222    1.4952 H   0  0  0  0  0  0  0  0  0  0  0  0
   -0.4085   11.7206    1.4952 H   0  0  0  0  0  0  0  0  0  0  0  0
   -2.2313    9.6526    1.0131 H   0  0  0  0  0  0  0  0  0  0  0  0
   -2.5484   10.4943   -0.5417 H   0  0  0  0  0  0  0  0  0  0  0  0
   -2.0078    8.7813   -0.5417 H   0  0  0  0  0  0  0  0  0  0  0  0
    1.5530   11.2853   -3.8042 H   0  0  0  0  0  0  0  0  0  0  0  0
    0.6390   12.7315   -4.3517 H   0  0  0  0  0  0  0  0  0  0  0  0
    2.4352   12.7511   -4.3517 H   0  0  0  0  0  0  0  0  0  0  0  0
    3.6237   12.7233   -1.7922 H   0  0  0  0  0  0  0  0  0  0  0  0
    3.2482   14.0144   -3.0677 H   0  0  0  0  0  0  0  0  0  0  0  0
    2.9221   14.2343   -0.0624 H   0  0  0  0  0  0  0  0  0  0  0  0
    4.0623   15.1289   -1.1425 H   0  0  0  0  0  0  0  0  0  0  0  0
    2.7308   17.3874   -2.5645 H   0  0  0  0  0  0  0  0  0  0  0  0
    2.9930   15.7548   -3.2661 H   0  0  0  0  0  0  0  0  0  0  0  0
    1.3492   16.4789   -3.2661 H   0  0  0  0  0  0  0  0  0  0  0  0
  1  2  1  0
  2  3  1  0
  3  4  1  0
  4  5  1  0
  5  6  1  0
  6  7  1  0
  7  8  1  0
  7  9  1  0
  2 10  1  0
 10 11  1  0
 11 12  1  0
 12 13  1  0
 13 14  1  1
 13 15  1  0
 15 16  1  0
 16 17  1  0
 17 18  2  0
 18 19  1  0
 19 20  1  0
 20 21  1  0
 21 22  1  0
 22 23  1  0
 22 24  1  0
 24 25  1  0
 24 26  1  0
 19 27  1  0
 27 28  1  6
 27 29  1  0
 29 30  1  0
 30 31  1  0
 31 32  1  6
  7  5  1  0
 31 10  1  0
 31 13  1  0
 27 15  1  0
 24 18  1  0
  1 33  1  0
  1 34  1  0
  1 35  1  0
  2 36  1  6
  3 37  1  0
  3 38  1  0
  4 39  1  0
  4 40  1  0
  5 41  1  1
  8 42  1  0
  8 43  1  0
  8 44  1  0
  9 45  1  0
  9 46  1  0
  9 47  1  0
 10 48  1  1
 11 49  1  0
 11 50  1  0
 12 51  1  0
 12 52  1  0
 14 53  1  0
 14 54  1  0
 14 55  1  0
 15 56  1  6
 16 57  1  0
 16 58  1  0
 17 59  1  0
 19 60  1  1
 20 61  1  0
 20 62  1  0
 21 63  1  0
 21 64  1  0
 22 65  1  1
 23 66  1  0
 25 67  1  0
 25 68  1  0
 25 69  1  0
 26 70  1  0
 26 71  1  0
 26 72  1  0
 28 73  1  0
 28 74  1  0
 28 75  1  0
 29 76  1  0
 29 77  1  0
 30 78  1  0
 30 79  1  0
 32 80  1  0
 32 81  1  0
 32 82  1  0
M  END
>  <meeko>  (2) 
{"is_sidechain": [false], "intermolecular_energy": 2.731, "internal_energy": -0.839}

$$$$
EPH_relaxed_0001_pdb2pqr_Repair_151_r2_0001_out
     RDKit          3D

 82 86  0  0  0  0  0  0  0  0999 V2000
    2.4530   18.0710   -2.6230 C   0  0  0  0  0  0  0  0  0  0  0  0
    1.1420   17.6800   -1.9350 C   0  0  2  0  0  0  0  0  0  0  0  0
    1.2520   17.7390   -0.3980 C   0  0  0  0  0  0  0  0  0  0  0  0
    0.8940   19.1050    0.1930 C   0  0  0  0  0  0  0  0  0  0  0  0
   -0.5610   19.1960    0.5390 C   0  0  2  0  0  0  0  0  0  0  0  0
   -1.4040   18.2790   -0.1710 O   0  0  0  0  0  0  0  0  0  0  0  0
   -1.6240   19.6740   -0.4320 C   0  0  0  0  0  0  0  0  0  0  0  0
   -1.2750   20.0950   -1.8260 C   0  0  0  0  0  0  0  0  0  0  0  0
   -2.9150   20.1940    0.1190 C   0  0  0  0  0  0  0  0  0  0  0  0
    0.7210   16.2820   -2.3740 C   0  0  1  0  0  0  0  0  0  0  0  0
    0.9060   16.0540   -3.8980 C   0  0  0  0  0  0  0  0  0  0  0  0
    1.3210   14.5710   -4.0810 C   0  0  0  0  0  0  0  0  0  0  0  0
    1.0400   13.9160   -2.7090 C   0  0  1  0  0  0  0  0  0  0  0  0
   -0.4920   13.6180   -2.7120 C   0  0  0  0  0  0  0  0  0  0  0  0
    1.8750   12.6380   -2.3700 C   0  0  2  0  0  0  0  0  0  0  0  0
    1.6500   11.4420   -3.3120 C   0  0  0  0  0  0  0  0  0  0  0  0
    0.5670   10.5010   -2.9000 C   0  0  0  0  0  0  0  0  0  0  0  0
   -0.0020   10.4490   -1.6810 C   0  0  0  0  0  0  0  0  0  0  0  0
    0.5070   11.3330   -0.5350 C   0  0  1  0  0  0  0  0  0  0  0  0
    0.6620   10.4770    0.7490 C   0  0  0  0  0  0  0  0  0  0  0  0
   -0.6170    9.7300    1.1130 C   0  0  0  0  0  0  0  0  0  0  0  0
   -1.0600    8.8190   -0.0280 C   0  0  2  0  0  0  0  0  0  0  0  0
   -0.0960    7.7730   -0.1840 O   0  0  0  0  0  0  0  0  0  0  0  0
   -1.2400    9.5690   -1.3780 C   0  0  0  0  0  0  0  0  0  0  0  0
   -2.4830   10.4890   -1.3000 C   0  0  0  0  0  0  0  0  0  0  0  0
   -1.5490    8.5140   -2.4730 C   0  0  0  0  0  0  0  0  0  0  0  0
    1.8020   12.1990   -0.8510 C   0  0  1  0  0  0  0  0  0  0  0  0
    3.0850   11.3610   -0.5670 C   0  0  0  0  0  0  0  0  0  0  0  0
    1.8480   13.4300    0.1300 C   0  0  0  0  0  0  0  0  0  0  0  0
    1.1040   14.7030   -0.3160 C   0  0  0  0  0  0  0  0  0  0  0  0
    1.4790   15.0830   -1.7520 C   0  0  2  0  0  0  0  0  0  0  0  0
    3.0110   15.4090   -1.7750 C   0  0  0  0  0  0  0  0  0  0  0  0
    3.2134   18.2978   -1.8612 H   0  0  0  0  0  0  0  0  0  0  0  0
    2.8004   17.2374   -3.2510 H   0  0  0  0  0  0  0  0  0  0  0  0
    2.2870   18.9587   -3.2510 H   0  0  0  0  0  0  0  0  0  0  0  0
    0.3783   18.4109   -2.2393 H   0  0  0  0  0  0  0  0  0  0  0  0
    0.5712   16.9872    0.0279 H   0  0  0  0  0  0  0  0  0  0  0  0
    2.3044   17.5447   -0.1435 H   0  0  0  0  0  0  0  0  0  0  0  0
    1.4878   19.2654    1.1049 H   0  0  0  0  0  0  0  0  0  0  0  0
    1.1152   19.8736   -0.5622 H   0  0  0  0  0  0  0  0  0  0  0  0
   -0.3208   19.4873    1.5722 H   0  0  0  0  0  0  0  0  0  0  0  0
   -0.5734   20.9414   -1.7886 H   0  0  0  0  0  0  0  0  0  0  0  0
   -0.8062   19.2532   -2.3567 H   0  0  0  0  0  0  0  0  0  0  0  0
   -2.1891   20.3996   -2.3567 H   0  0  0  0  0  0  0  0  0  0  0  0
   -2.8771   20.1787    1.2182 H   0  0  0  0  0  0  0  0  0  0  0  0
   -3.0727   21.2258   -0.2282 H   0  0  0  0  0  0  0  0  0  0  0  0
   -3.7439   19.5596   -0.2282 H   0  0  0  0  0  0  0  0  0  0  0  0
   -0.3234   16.2868   -2.0288 H   0  0  0  0  0  0  0  0  0  0  0  0
   -0.0375   16.2516   -4.4279 H   0  0  0  0  0  0  0  0  0  0  0  0
    1.6690   16.7314   -4.3091 H   0  0  0  0  0  0  0  0  0  0  0  0
    0.7204   14.0940   -4.8695 H   0  0  0  0  0  0  0  0  0  0  0  0
    2.3727   14.4664   -4.3859 H   0  0  0  0  0  0  0  0  0  0  0  0
   -0.8539   13.5476   -1.6756 H   0  0  0  0  0  0  0  0  0  0  0  0
   -1.0224   14.4298   -3.2312 H   0  0  0  0  0  0  0  0  0  0  0  0
   -0.6795   12.6666   -3.2312 H   0  0  0  0  0  0  0  0  0  0  0  0
    2.9056   12.9747   -2.5556 H   0  0  0  0  0  0  0  0  0  0  0  0
    1.3974   11.8361   -4.3074 H   0  0  0  0  0  0  0  0  0  0  0  0
    2.5830   10.8596   -3.2926 H   0  0  0  0  0  0  0  0  0  0  0  0
    0.2031    9.7900   -3.6563 H   0  0  0  0  0  0  0  0  0  0  0  0
   -0.2627   12.1033   -0.3794 H   0  0  0  0  0  0  0  0  0  0  0  0
    1.4653    9.7429    0.5883 H   0  0  0  0  0  0  0  0  0  0  0  0
    0.8970   11.1599    1.5787 H   0  0  0  0  0  0  0  0  0  0  0  0
   -0.4349    9.1204    2.0104 H   0  0  0  0  0  0  0  0  0  0  0  0
   -1.4117   10.4664    1.3030 H   0  0  0  0  0  0  0  0  0  0  0  0
   -2.0470    8.4135    0.2390 H   0  0  0  0  0  0  0  0  0  0  0  0
   -0.0700    7.5340   -1.1260 H   0  0  0  0  0  0  0  0  0  0  0  0
   -2.7354   10.6758   -0.2458 H   0  0  0  0  0  0  0  0  0  0  0  0
   -2.2640   11.4443   -1.7994 H   0  0  0  0  0  0  0  0  0  0  0  0
   -3.3327   10.0005   -1.7994 H   0  0  0  0  0  0  0  0  0  0  0  0
   -1.8277    7.5623   -1.9970 H   0  0  0  0  0  0  0  0  0  0  0  0
   -2.3811    8.8683   -3.0992 H   0  0  0  0  0  0  0  0  0  0  0  0
   -0.6572    8.3634   -3.0992 H   0  0  0  0  0  0  0  0  0  0  0  0
    3.2286   11.2672    0.5195 H   0  0  0  0  0  0  0  0  0  0  0  0
    2.9748   10.3602   -1.0100 H   0  0  0  0  0  0  0  0  0  0  0  0
    3.9571   11.8641   -1.0100 H   0  0  0  0  0  0  0  0  0  0  0  0
    1.4126   13.1086    1.0876 H   0  0  0  0  0  0  0  0  0  0  0  0
    2.9082   13.7190    0.1789 H   0  0  0  0  0  0  0  0  0  0  0  0
    0.0200   14.5235   -0.2627 H   0  0  0  0  0  0  0  0  0  0  0  0
    1.3910   15.5289    0.3515 H   0  0  0  0  0  0  0  0  0  0  0  0
    3.3845   15.4885   -0.7434 H   0  0  0  0  0  0  0  0  0  0  0  0
    3.5491   14.6052   -2.2989 H   0  0  0  0  0  0  0  0  0  0  0  0
    3.1752   16.3622   -2.2989 H   0  0  0  0  0  0  0  0  0  0  0  0
  1  2  1  0
  2  3  1  0
  3  4  1  0
  4  5  1  0
  5  6  1  0
  6  7  1  0
  7  8  1  0
  7  9  1  0
  2 10  1  0
 10 11  1  0
 11 12  1  0
 12 13  1  0
 13 14  1  6
 13 15  1  0
 15 16  1  0
 16 17  1  0
 17 18  2  0
 18 19  1  0
 19 20  1  0
 20 21  1  0
 21 22  1  0
 22 23  1  0
 22 24  1  0
 24 25  1  0
 24 26  1  0
 19 27  1  0
 27 28  1  1
 27 29  1  0
 29 30  1  0
 30 31  1  0
 31 32  1  1
  7  5  1  0
 31 10  1  0
 31 13  1  0
 27 15  1  0
 24 18  1  0
  1 33  1  0
  1 34  1  0
  1 35  1  0
  2 36  1  6
  3 37  1  0
  3 38  1  0
  4 39  1  0
  4 40  1  0
  5 41  1  1
  8 42  1  0
  8 43  1  0
  8 44  1  0
  9 45  1  0
  9 46  1  0
  9 47  1  0
 10 48  1  6
 11 49  1  0
 11 50  1  0
 12 51  1  0
 12 52  1  0
 14 53  1  0
 14 54  1  0
 14 55  1  0
 15 56  1  6
 16 57  1  0
 16 58  1  0
 17 59  1  0
 19 60  1  1
 20 61  1  0
 20 62  1  0
 21 63  1  0
 21 64  1  0
 22 65  1  1
 23 66  1  0
 25 67  1  0
 25 68  1  0
 25 69  1  0
 26 70  1  0
 26 71  1  0
 26 72  1  0
 28 73  1  0
 28 74  1  0
 28 75  1  0
 29 76  1  0
 29 77  1  0
 30 78  1  0
 30 79  1  0
 32 80  1  0
 32 81  1  0
 32 82  1  0
M  END
>  <meeko>  (3) 
{"is_sidechain": [false], "intermolecular_energy": 2.731, "internal_energy": -0.839}

$$$$
EPH_relaxed_0001_pdb2pqr_Repair_151_r2_0001_out
     RDKit          3D

 82 86  0  0  0  0  0  0  0  0999 V2000
    2.2890   17.9670   -2.5750 C   0  0  0  0  0  0  0  0  0  0  0  0
    0.7660   17.8320   -2.6500 C   0  0  2  0  0  0  0  0  0  0  0  0
    0.0750   18.3140   -1.3580 C   0  0  0  0  0  0  0  0  0  0  0  0
    0.8090   17.9040   -0.0790 C   0  0  0  0  0  0  0  0  0  0  0  0
    1.3270   19.0960    0.6700 C   0  0  2  0  0  0  0  0  0  0  0  0
    2.2300   19.9240   -0.0740 O   0  0  0  0  0  0  0  0  0  0  0  0
    2.7790   19.2620    1.0770 C   0  0  0  0  0  0  0  0  0  0  0  0
    3.8050   18.2230    0.7490 C   0  0  0  0  0  0  0  0  0  0  0  0
    3.1030   20.1880    2.2070 C   0  0  0  0  0  0  0  0  0  0  0  0
    0.3850   16.3840   -2.9340 C   0  0  1  0  0  0  0  0  0  0  0  0
    0.4650   16.0300   -4.4430 C   0  0  0  0  0  0  0  0  0  0  0  0
    0.9410   14.5580   -4.5330 C   0  0  0  0  0  0  0  0  0  0  0  0
    0.8000   14.0140   -3.0920 C   0  0  1  0  0  0  0  0  0  0  0  0
   -0.7110   13.6490   -2.9470 C   0  0  0  0  0  0  0  0  0  0  0  0
    1.7230   12.8100   -2.7150 C   0  0  2  0  0  0  0  0  0  0  0  0
    1.4890   11.5270   -3.5310 C   0  0  0  0  0  0  0  0  0  0  0  0
    0.4900   10.5780   -2.9560 C   0  0  0  0  0  0  0  0  0  0  0  0
    0.0190   10.6080   -1.6950 C   0  0  0  0  0  0  0  0  0  0  0  0
    0.5680   11.6110   -0.6730 C   0  0  1  0  0  0  0  0  0  0  0  0
    0.8640   10.8800    0.6630 C   0  0  0  0  0  0  0  0  0  0  0  0
   -0.3440   10.1120    1.1900 C   0  0  0  0  0  0  0  0  0  0  0  0
   -0.8250    9.0840    0.1690 C   0  0  2  0  0  0  0  0  0  0  0  0
    0.1780    8.0730    0.0250 O   0  0  0  0  0  0  0  0  0  0  0  0
   -1.1450    9.7040   -1.2200 C   0  0  0  0  0  0  0  0  0  0  0  0
   -2.4250   10.5700   -1.1210 C   0  0  0  0  0  0  0  0  0  0  0  0
   -1.4820    8.5430   -2.1940 C   0  0  0  0  0  0  0  0  0  0  0  0
    1.7880   12.5040   -1.1640 C   0  0  1  0  0  0  0  0  0  0  0  0
    3.1310   11.7530   -0.9140 C   0  0  0  0  0  0  0  0  0  0  0  0
    1.8460   13.8170   -0.2970 C   0  0  0  0  0  0  0  0  0  0  0  0
    1.0050   15.0110   -0.7880 C   0  0  0  0  0  0  0  0  0  0  0  0
    1.2490   15.2790   -2.2760 C   0  0  2  0  0  0  0  0  0  0  0  0
    2.7560   15.6710   -2.4490 C   0  0  0  0  0  0  0  0  0  0  0  0
    2.6032   17.9948   -1.5212 H   0  0  0  0  0  0  0  0  0  0  0  0
    2.7584   17.1069   -3.0750 H   0  0  0  0  0  0  0  0  0  0  0  0
    2.5998   18.8962   -3.0750 H   0  0  0  0  0  0  0  0  0  0  0  0
    0.4179   18.4761   -3.4709 H   0  0  0  0  0  0  0  0  0  0  0  0
    0.0127   19.4119   -1.3861 H   0  0  0  0  0  0  0  0  0  0  0  0
   -0.9164   17.8385   -1.3266 H   0  0  0  0  0  0  0  0  0  0  0  0
    0.1137   17.3503    0.5691 H   0  0  0  0  0  0  0  0  0  0  0  0
    1.6676   17.2775   -0.3623 H   0  0  0  0  0  0  0  0  0  0  0  0
    0.3880   19.1773    1.2372 H   0  0  0  0  0  0  0  0  0  0  0  0
    4.2161   17.8067    1.6805 H   0  0  0  0  0  0  0  0  0  0  0  0
    3.3375   17.4182    0.1627 H   0  0  0  0  0  0  0  0  0  0  0  0
    4.6156   18.6804    0.1627 H   0  0  0  0  0  0  0  0  0  0  0  0
    2.9238   19.6757    3.1638 H   0  0  0  0  0  0  0  0  0  0  0  0
    4.1595   20.4879    2.1439 H   0  0  0  0  0  0  0  0  0  0  0  0
    2.4640   21.0811    2.1439 H   0  0  0  0  0  0  0  0  0  0  0  0
   -0.6290   16.3736   -2.5077 H   0  0  0  0  0  0  0  0  0  0  0  0
   -0.5251   16.1370   -4.9101 H   0  0  0  0  0  0  0  0  0  0  0  0
    1.1585   16.7020   -4.9698 H   0  0  0  0  0  0  0  0  0  0  0  0
    0.3075   13.9867   -5.2275 H   0  0  0  0  0  0  0  0  0  0  0  0
    1.9704   14.4747   -4.9116 H   0  0  0  0  0  0  0  0  0  0  0  0
   -0.9722   13.5859   -1.8803 H   0  0  0  0  0  0  0  0  0  0  0  0
   -1.3236   14.4250   -3.4292 H   0  0  0  0  0  0  0  0  0  0  0  0
   -0.9018   12.6789   -3.4292 H   0  0  0  0  0  0  0  0  0  0  0  0
    2.7177   13.1747   -3.0109 H   0  0  0  0  0  0  0  0  0  0  0  0
    1.1418   11.8201   -4.5328 H   0  0  0  0  0  0  0  0  0  0  0  0
    2.4495   10.9908   -3.5366 H   0  0  0  0  0  0  0  0  0  0  0  0
    0.1065    9.7879   -3.6183 H   0  0  0  0  0  0  0  0  0  0  0  0
   -0.2264   12.3567   -0.5219 H   0  0  0  0  0  0  0  0  0  0  0  0
    1.6895   10.1711    0.5016 H   0  0  0  0  0  0  0  0  0  0  0  0
    1.1261   11.6435    1.4103 H   0  0  0  0  0  0  0  0  0  0  0  0
   -0.0636    9.5932    2.1185 H   0  0  0  0  0  0  0  0  0  0  0  0
   -1.1588   10.8263    1.3795 H   0  0  0  0  0  0  0  0  0  0  0  0
   -1.7663    8.6587    0.5472 H   0  0  0  0  0  0  0  0  0  0  0  0
    0.7670    8.3440   -0.7000 H   0  0  0  0  0  0  0  0  0  0  0  0
   -2.6732   10.7379   -0.0626 H   0  0  0  0  0  0  0  0  0  0  0  0
   -2.2522   11.5375   -1.6150 H   0  0  0  0  0  0  0  0  0  0  0  0
   -3.2588   10.0497   -1.6150 H   0  0  0  0  0  0  0  0  0  0  0  0
   -1.7430    7.6439   -1.6164 H   0  0  0  0  0  0  0  0  0  0  0  0
   -2.3334    8.8316   -2.8278 H   0  0  0  0  0  0  0  0  0  0  0  0
   -0.6084    8.3309   -2.8278 H   0  0  0  0  0  0  0  0  0  0  0  0
    3.3017   11.6575    0.1685 H   0  0  0  0  0  0  0  0  0  0  0  0
    3.0811   10.7519   -1.3670 H   0  0  0  0  0  0  0  0  0  0  0  0
    3.9578   12.3197   -1.3670 H   0  0  0  0  0  0  0  0  0  0  0  0
    1.5023   13.5622    0.7164 H   0  0  0  0  0  0  0  0  0  0  0  0
    2.8906   14.1562   -0.3576 H   0  0  0  0  0  0  0  0  0  0  0  0
   -0.0610   14.7883   -0.6326 H   0  0  0  0  0  0  0  0  0  0  0  0
    1.2989   15.9047   -0.2181 H   0  0  0  0  0  0  0  0  0  0  0  0
    3.2195   15.7916   -1.4587 H   0  0  0  0  0  0  0  0  0  0  0  0
    3.2794   14.8791   -3.0049 H   0  0  0  0  0  0  0  0  0  0  0  0
    2.8272   16.6175   -3.0049 H   0  0  0  0  0  0  0  0  0  0  0  0
  1  2  1  0
  2  3  1  0
  3  4  1  0
  4  5  1  0
  5  6  1  0
  6  7  1  0
  7  8  1  0
  7  9  1  0
  2 10  1  0
 10 11  1  0
 11 12  1  0
 12 13  1  0
 13 14  1  1
 13 15  1  0
 15 16  1  0
 16 17  1  0
 17 18  2  0
 18 19  1  0
 19 20  1  0
 20 21  1  0
 21 22  1  0
 22 23  1  0
 22 24  1  0
 24 25  1  0
 24 26  1  0
 19 27  1  0
 27 28  1  6
 27 29  1  0
 29 30  1  0
 30 31  1  0
 31 32  1  1
  7  5  1  0
 31 10  1  0
 31 13  1  0
 27 15  1  0
 24 18  1  0
  1 33  1  0
  1 34  1  0
  1 35  1  0
  2 36  1  6
  3 37  1  0
  3 38  1  0
  4 39  1  0
  4 40  1  0
  5 41  1  1
  8 42  1  0
  8 43  1  0
  8 44  1  0
  9 45  1  0
  9 46  1  0
  9 47  1  0
 10 48  1  1
 11 49  1  0
 11 50  1  0
 12 51  1  0
 12 52  1  0
 14 53  1  0
 14 54  1  0
 14 55  1  0
 15 56  1  6
 16 57  1  0
 16 58  1  0
 17 59  1  0
 19 60  1  1
 20 61  1  0
 20 62  1  0
 21 63  1  0
 21 64  1  0
 22 65  1  1
 23 66  1  0
 25 67  1  0
 25 68  1  0
 25 69  1  0
 26 70  1  0
 26 71  1  0
 26 72  1  0
 28 73  1  0
 28 74  1  0
 28 75  1  0
 29 76  1  0
 29 77  1  0
 30 78  1  0
 30 79  1  0
 32 80  1  0
 32 81  1  0
 32 82  1  0
M  END
>  <meeko>  (4) 
{"is_sidechain": [false], "intermolecular_energy": 2.731, "internal_energy": -0.839}

$$$$
EPH_relaxed_0001_pdb2pqr_Repair_151_r2_0001_out
     RDKit          3D

 82 86  0  0  0  0  0  0  0  0999 V2000
    3.6370   17.9420    0.6810 C   0  0  0  0  0  0  0  0  0  0  0  0
    2.7120   18.2790   -0.4920 C   0  0  2  0  0  0  0  0  0  0  0  0
    1.9820   19.6220   -0.2880 C   0  0  0  0  0  0  0  0  0  0  0  0
    0.9780   19.6080    0.8670 C   0  0  0  0  0  0  0  0  0  0  0  0
   -0.3440   20.1860    0.4600 C   0  0  2  0  0  0  0  0  0  0  0  0
   -1.3380   20.1940    1.4930 O   0  0  0  0  0  0  0  0  0  0  0  0
   -1.6170   19.3680    0.3510 C   0  0  0  0  0  0  0  0  0  0  0  0
   -1.6300   17.9010    0.6490 C   0  0  0  0  0  0  0  0  0  0  0  0
   -2.7280   19.8840   -0.5090 C   0  0  0  0  0  0  0  0  0  0  0  0
    1.6960   17.1600   -0.6910 C   0  0  1  0  0  0  0  0  0  0  0  0
    0.4950   17.5930   -1.5730 C   0  0  0  0  0  0  0  0  0  0  0  0
    0.0780   16.3520   -2.4030 C   0  0  0  0  0  0  0  0  0  0  0  0
    0.8240   15.1710   -1.7390 C   0  0  1  0  0  0  0  0  0  0  0  0
   -0.0460   14.7920   -0.5000 C   0  0  0  0  0  0  0  0  0  0  0  0
    1.1040   13.9310   -2.6500 C   0  0  2  0  0  0  0  0  0  0  0  0
   -0.1510   13.2160   -3.1820 C   0  0  0  0  0  0  0  0  0  0  0  0
   -0.6710   12.1140   -2.3200 C   0  0  0  0  0  0  0  0  0  0  0  0
    0.0020   11.5230   -1.3150 C   0  0  0  0  0  0  0  0  0  0  0  0
    1.4620   11.8910   -1.0210 C   0  0  1  0  0  0  0  0  0  0  0  0
    2.2930   10.5960   -0.8240 C   0  0  0  0  0  0  0  0  0  0  0  0
    1.6980    9.6760    0.2380 C   0  0  0  0  0  0  0  0  0  0  0  0
    0.2660    9.2850   -0.1180 C   0  0  2  0  0  0  0  0  0  0  0  0
    0.2900    8.4690   -1.2940 O   0  0  0  0  0  0  0  0  0  0  0  0
   -0.6630   10.5100   -0.3510 C   0  0  0  0  0  0  0  0  0  0  0  0
   -0.9300   11.2240    0.9970 C   0  0  0  0  0  0  0  0  0  0  0  0
   -2.0380    9.9800   -0.8410 C   0  0  0  0  0  0  0  0  0  0  0  0
    2.1410   12.9020   -2.0430 C   0  0  1  0  0  0  0  0  0  0  0  0
    2.7450   12.1160   -3.2460 C   0  0  0  0  0  0  0  0  0  0  0  0
    3.3480   13.6190   -1.3300 C   0  0  0  0  0  0  0  0  0  0  0  0
    3.0270   14.9050   -0.5450 C   0  0  0  0  0  0  0  0  0  0  0  0
    2.1890   15.8690   -1.3910 C   0  0  2  0  0  0  0  0  0  0  0  0
    3.0480   16.2850   -2.6340 C   0  0  0  0  0  0  0  0  0  0  0  0
    3.1121   18.1332    1.6286 H   0  0  0  0  0  0  0  0  0  0  0  0
    3.9242   16.8815    0.6285 H   0  0  0  0  0  0  0  0  0  0  0  0
    4.5391   18.5692    0.6285 H   0  0  0  0  0  0  0  0  0  0  0  0
    3.3391   18.3764   -1.3905 H   0  0  0  0  0  0  0  0  0  0  0  0
    2.7341   20.3986   -0.0848 H   0  0  0  0  0  0  0  0  0  0  0  0
    1.4113   19.8202   -1.2073 H   0  0  0  0  0  0  0  0  0  0  0  0
    0.8269   18.5691    1.1953 H   0  0  0  0  0  0  0  0  0  0  0  0
    1.3850   20.2240    1.6824 H   0  0  0  0  0  0  0  0  0  0  0  0
    0.1481   20.8812   -0.2360 H   0  0  0  0  0  0  0  0  0  0  0  0
   -1.6314   17.7481    1.7383 H   0  0  0  0  0  0  0  0  0  0  0  0
   -2.5322   17.4464    0.2138 H   0  0  0  0  0  0  0  0  0  0  0  0
   -0.7360   17.4305    0.2138 H   0  0  0  0  0  0  0  0  0  0  0  0
   -3.5406   20.2614    0.1291 H   0  0  0  0  0  0  0  0  0  0  0  0
   -2.3516   20.6995   -1.1441 H   0  0  0  0  0  0  0  0  0  0  0  0
   -3.1083   19.0703   -1.1441 H   0  0  0  0  0  0  0  0  0  0  0  0
    1.4472   16.9479    0.3593 H   0  0  0  0  0  0  0  0  0  0  0  0
   -0.3411   17.9227   -0.9388 H   0  0  0  0  0  0  0  0  0  0  0  0
    0.7695   18.4323   -2.2289 H   0  0  0  0  0  0  0  0  0  0  0  0
   -1.0104   16.2003   -2.3549 H   0  0  0  0  0  0  0  0  0  0  0  0
    0.3296   16.4586   -3.4685 H   0  0  0  0  0  0  0  0  0  0  0  0
    0.5044   15.0318    0.4217 H   0  0  0  0  0  0  0  0  0  0  0  0
   -0.9865   15.3619   -0.5242 H   0  0  0  0  0  0  0  0  0  0  0  0
   -0.2691   13.7151   -0.5242 H   0  0  0  0  0  0  0  0  0  0  0  0
    1.5837   14.3870   -3.5286 H   0  0  0  0  0  0  0  0  0  0  0  0
   -0.9481   13.9659   -3.2926 H   0  0  0  0  0  0  0  0  0  0  0  0
    0.1463   12.7455   -4.1308 H   0  0  0  0  0  0  0  0  0  0  0  0
   -1.6905   11.7543   -2.5231 H   0  0  0  0  0  0  0  0  0  0  0  0
    1.4474   12.4707   -0.0863 H   0  0  0  0  0  0  0  0  0  0  0  0
    2.3317   10.0528   -1.7798 H   0  0  0  0  0  0  0  0  0  0  0  0
    3.2972   10.8914   -0.4858 H   0  0  0  0  0  0  0  0  0  0  0  0
    2.3119    8.7662    0.3108 H   0  0  0  0  0  0  0  0  0  0  0  0
    1.6869   10.2109    1.1991 H   0  0  0  0  0  0  0  0  0  0  0  0
   -0.1491    8.7346    0.7392 H   0  0  0  0  0  0  0  0  0  0  0  0
   -0.3750    8.8210   -1.9100 H   0  0  0  0  0  0  0  0  0  0  0  0
   -0.6770   10.5475    1.8267 H   0  0  0  0  0  0  0  0  0  0  0  0
   -0.3101   12.1304    1.0609 H   0  0  0  0  0  0  0  0  0  0  0  0
   -1.9926   11.5012    1.0609 H   0  0  0  0  0  0  0  0  0  0  0  0
   -2.6680    9.7372    0.0274 H   0  0  0  0  0  0  0  0  0  0  0  0
   -2.5330   10.7518   -1.4488 H   0  0  0  0  0  0  0  0  0  0  0  0
   -1.8870    9.0757   -1.4488 H   0  0  0  0  0  0  0  0  0  0  0  0
    3.3748   11.2965   -2.8695 H   0  0  0  0  0  0  0  0  0  0  0  0
    1.9311   11.7012   -3.8587 H   0  0  0  0  0  0  0  0  0  0  0  0
    3.3554   12.7957   -3.8587 H   0  0  0  0  0  0  0  0  0  0  0  0
    3.7921   12.9009   -0.6249 H   0  0  0  0  0  0  0  0  0  0  0  0
    4.0148   13.9381   -2.1445 H   0  0  0  0  0  0  0  0  0  0  0  0
    2.4650   14.6415    0.3631 H   0  0  0  0  0  0  0  0  0  0  0  0
    3.9731   15.4008   -0.2819 H   0  0  0  0  0  0  0  0  0  0  0  0
    3.9893   16.7409   -2.2932 H   0  0  0  0  0  0  0  0  0  0  0  0
    3.2703   15.3947   -3.2406 H   0  0  0  0  0  0  0  0  0  0  0  0
    2.4873   17.0114   -3.2406 H   0  0  0  0  0  0  0  0  0  0  0  0
  1  2  1  0
  2  3  1  0
  3  4  1  0
  4  5  1  0
  5  6  1  0
  6  7  1  0
  7  8  1  0
  7  9  1  0
  2 10  1  0
 10 11  1  0
 11 12  1  0
 12 13  1  0
 13 14  1  1
 13 15  1  0
 15 16  1  0
 16 17  1  0
 17 18  2  0
 18 19  1  0
 19 20  1  0
 20 21  1  0
 21 22  1  0
 22 23  1  0
 22 24  1  0
 24 25  1  0
 24 26  1  0
 19 27  1  0
 27 28  1  6
 27 29  1  0
 29 30  1  0
 30 31  1  0
 31 32  1  6
  7  5  1  0
 31 10  1  0
 31 13  1  0
 27 15  1  0
 24 18  1  0
  1 33  1  0
  1 34  1  0
  1 35  1  0
  2 36  1  6
  3 37  1  0
  3 38  1  0
  4 39  1  0
  4 40  1  0
  5 41  1  6
  8 42  1  0
  8 43  1  0
  8 44  1  0
  9 45  1  0
  9 46  1  0
  9 47  1  0
 10 48  1  1
 11 49  1  0
 11 50  1  0
 12 51  1  0
 12 52  1  0
 14 53  1  0
 14 54  1  0
 14 55  1  0
 15 56  1  6
 16 57  1  0
 16 58  1  0
 17 59  1  0
 19 60  1  1
 20 61  1  0
 20 62  1  0
 21 63  1  0
 21 64  1  0
 22 65  1  1
 23 66  1  0
 25 67  1  0
 25 68  1  0
 25 69  1  0
 26 70  1  0
 26 71  1  0
 26 72  1  0
 28 73  1  0
 28 74  1  0
 28 75  1  0
 29 76  1  0
 29 77  1  0
 30 78  1  0
 30 79  1  0
 32 80  1  0
 32 81  1  0
 32 82  1  0
M  END
>  <meeko>  (5) 
{"is_sidechain": [false], "intermolecular_energy": 2.731, "internal_energy": -0.839}

$$$$
EPH_relaxed_0001_pdb2pqr_Repair_151_r2_0001_out
     RDKit          3D

 82 86  0  0  0  0  0  0  0  0999 V2000
   -5.1470    5.8560   -1.8330 C   0  0  0  0  0  0  0  0  0  0  0  0
   -5.4650    7.3540   -1.8350 C   0  0  2  0  0  0  0  0  0  0  0  0
   -5.2490    7.9950   -0.4490 C   0  0  0  0  0  0  0  0  0  0  0  0
   -4.2030    9.1140   -0.4460 C   0  0  0  0  0  0  0  0  0  0  0  0
   -2.8320    8.5930   -0.7540 C   0  0  2  0  0  0  0  0  0  0  0  0
   -1.8290    8.9420    0.2090 O   0  0  0  0  0  0  0  0  0  0  0  0
   -1.6580    9.4850   -1.1100 C   0  0  0  0  0  0  0  0  0  0  0  0
   -1.8020   10.9730   -1.1780 C   0  0  0  0  0  0  0  0  0  0  0  0
   -0.5100    8.8900   -1.8640 C   0  0  0  0  0  0  0  0  0  0  0  0
   -6.9010    7.5790   -2.2950 C   0  0  1  0  0  0  0  0  0  0  0  0
   -7.2130    6.8780   -3.6440 C   0  0  0  0  0  0  0  0  0  0  0  0
   -8.6880    6.4070   -3.5720 C   0  0  0  0  0  0  0  0  0  0  0  0
   -9.2700    7.1340   -2.3370 C   0  0  1  0  0  0  0  0  0  0  0  0
   -9.6220    8.5670   -2.8440 C   0  0  0  0  0  0  0  0  0  0  0  0
  -10.4950    6.4500   -1.6460 C   0  0  2  0  0  0  0  0  0  0  0  0
  -11.7520    6.3210   -2.5240 C   0  0  0  0  0  0  0  0  0  0  0  0
  -12.7050    7.4680   -2.4450 C   0  0  0  0  0  0  0  0  0  0  0  0
  -12.7040    8.4210   -1.4940 C   0  0  0  0  0  0  0  0  0  0  0  0
  -11.7360    8.3480   -0.3060 C   0  0  1  0  0  0  0  0  0  0  0  0
  -12.5080    8.6340    1.0090 C   0  0  0  0  0  0  0  0  0  0  0  0
  -13.2760    9.9510    0.9620 C   0  0  0  0  0  0  0  0  0  0  0  0
  -14.2700    9.9620   -0.1960 C   0  0  2  0  0  0  0  0  0  0  0  0
  -15.2870    8.9890    0.0600 O   0  0  0  0  0  0  0  0  0  0  0  0
  -13.6080    9.6760   -1.5740 C   0  0  0  0  0  0  0  0  0  0  0  0
  -12.7300   10.8820   -1.9900 C   0  0  0  0  0  0  0  0  0  0  0  0
  -14.7380    9.5750   -2.6340 C   0  0  0  0  0  0  0  0  0  0  0  0
  -10.8440    7.0360   -0.2180 C   0  0  1  0  0  0  0  0  0  0  0  0
  -11.6170    5.9180    0.5450 C   0  0  0  0  0  0  0  0  0  0  0  0
   -9.5560    7.3460    0.6330 C   0  0  0  0  0  0  0  0  0  0  0  0
   -8.3400    7.9080   -0.1270 C   0  0  0  0  0  0  0  0  0  0  0  0
   -8.0330    7.0660   -1.3700 C   0  0  2  0  0  0  0  0  0  0  0  0
   -7.6540    5.6240   -0.8890 C   0  0  0  0  0  0  0  0  0  0  0  0
   -5.0711    5.4987   -0.7954 H   0  0  0  0  0  0  0  0  0  0  0  0
   -5.9493    5.3102   -2.3511 H   0  0  0  0  0  0  0  0  0  0  0  0
   -4.1922    5.6832   -2.3511 H   0  0  0  0  0  0  0  0  0  0  0  0
   -4.7695    7.8397   -2.5353 H   0  0  0  0  0  0  0  0  0  0  0  0
   -6.2069    8.4137   -0.1066 H   0  0  0  0  0  0  0  0  0  0  0  0
   -4.8757    7.2034    0.2174 H   0  0  0  0  0  0  0  0  0  0  0  0
   -4.4788    9.8616   -1.2043 H   0  0  0  0  0  0  0  0  0  0  0  0
   -4.1820    9.5606    0.5590 H   0  0  0  0  0  0  0  0  0  0  0  0
   -3.2546    7.7012   -1.2399 H   0  0  0  0  0  0  0  0  0  0  0  0
   -1.8418   11.3845   -0.1586 H   0  0  0  0  0  0  0  0  0  0  0  0
   -0.9410   11.4006   -1.7127 H   0  0  0  0  0  0  0  0  0  0  0  0
   -2.7290   11.2276   -1.7127 H   0  0  0  0  0  0  0  0  0  0  0  0
    0.2350    8.5039   -1.1528 H   0  0  0  0  0  0  0  0  0  0  0  0
   -0.8740    8.0670   -2.4967 H   0  0  0  0  0  0  0  0  0  0  0  0
   -0.0474    9.6618   -2.4967 H   0  0  0  0  0  0  0  0  0  0  0  0
   -6.9130    8.6784   -2.3299 H   0  0  0  0  0  0  0  0  0  0  0  0
   -7.0809    7.5839   -4.4772 H   0  0  0  0  0  0  0  0  0  0  0  0
   -6.5349    6.0288   -3.8141 H   0  0  0  0  0  0  0  0  0  0  0  0
   -9.2322    6.6941   -4.4838 H   0  0  0  0  0  0  0  0  0  0  0  0
   -8.7731    5.3133   -3.4907 H   0  0  0  0  0  0  0  0  0  0  0  0
   -9.7851    9.2310   -1.9823 H   0  0  0  0  0  0  0  0  0  0  0  0
   -8.7923    8.9544   -3.4536 H   0  0  0  0  0  0  0  0  0  0  0  0
  -10.5367    8.5259   -3.4536 H   0  0  0  0  0  0  0  0  0  0  0  0
  -10.1342    5.4227   -1.4897 H   0  0  0  0  0  0  0  0  0  0  0  0
  -11.4272    6.2203   -3.5701 H   0  0  0  0  0  0  0  0  0  0  0  0
  -12.2986    5.4443   -2.1464 H   0  0  0  0  0  0  0  0  0  0  0  0
  -13.4723    7.5403   -3.2298 H   0  0  0  0  0  0  0  0  0  0  0  0
  -10.9854    9.1338   -0.4762 H   0  0  0  0  0  0  0  0  0  0  0  0
  -13.2219    7.8156    1.1839 H   0  0  0  0  0  0  0  0  0  0  0  0
  -11.7692    8.7072    1.8206 H   0  0  0  0  0  0  0  0  0  0  0  0
  -13.8231   10.0826    1.9072 H   0  0  0  0  0  0  0  0  0  0  0  0
  -12.5577   10.7712    0.8158 H   0  0  0  0  0  0  0  0  0  0  0  0
  -14.6955   10.9746   -0.2561 H   0  0  0  0  0  0  0  0  0  0  0  0
  -15.1420    8.2440   -0.5480 H   0  0  0  0  0  0  0  0  0  0  0  0
  -12.3582   11.3928   -1.0895 H   0  0  0  0  0  0  0  0  0  0  0  0
  -11.8780   10.5263   -2.5880 H   0  0  0  0  0  0  0  0  0  0  0  0
  -13.3302   11.5835   -2.5880 H   0  0  0  0  0  0  0  0  0  0  0  0
  -15.7101    9.4881   -2.1265 H   0  0  0  0  0  0  0  0  0  0  0  0
  -14.7322   10.4772   -3.2632 H   0  0  0  0  0  0  0  0  0  0  0  0
  -14.5723    8.6881   -3.2632 H   0  0  0  0  0  0  0  0  0  0  0  0
  -11.5101    6.0726    1.6288 H   0  0  0  0  0  0  0  0  0  0  0  0
  -12.6820    5.9570    0.2723 H   0  0  0  0  0  0  0  0  0  0  0  0
  -11.2044    4.9354    0.2723 H   0  0  0  0  0  0  0  0  0  0  0  0
   -9.8350    8.0798    1.4036 H   0  0  0  0  0  0  0  0  0  0  0  0
   -9.2267    6.3713    1.0222 H   0  0  0  0  0  0  0  0  0  0  0  0
   -8.5553    8.9414   -0.4365 H   0  0  0  0  0  0  0  0  0  0  0  0
   -7.4659    7.8801    0.5402 H   0  0  0  0  0  0  0  0  0  0  0  0
   -7.6462    5.5945    0.2106 H   0  0  0  0  0  0  0  0  0  0  0  0
   -8.3935    4.9042   -1.2699 H   0  0  0  0  0  0  0  0  0  0  0  0
   -6.6562    5.3608   -1.2699 H   0  0  0  0  0  0  0  0  0  0  0  0
  1  2  1  0
  2  3  1  0
  3  4  1  0
  4  5  1  0
  5  6  1  0
  6  7  1  0
  7  8  1  0
  7  9  1  0
  2 10  1  0
 10 11  1  0
 11 12  1  0
 12 13  1  0
 13 14  1  6
 13 15  1  0
 15 16  1  0
 16 17  1  0
 17 18  2  0
 18 19  1  0
 19 20  1  0
 20 21  1  0
 21 22  1  0
 22 23  1  0
 22 24  1  0
 24 25  1  0
 24 26  1  0
 19 27  1  0
 27 28  1  1
 27 29  1  0
 29 30  1  0
 30 31  1  0
 31 32  1  1
  7  5  1  0
 31 10  1  0
 31 13  1  0
 27 15  1  0
 24 18  1  0
  1 33  1  0
  1 34  1  0
  1 35  1  0
  2 36  1  6
  3 37  1  0
  3 38  1  0
  4 39  1  0
  4 40  1  0
  5 41  1  6
  8 42  1  0
  8 43  1  0
  8 44  1  0
  9 45  1  0
  9 46  1  0
  9 47  1  0
 10 48  1  6
 11 49  1  0
 11 50  1  0
 12 51  1  0
 12 52  1  0
 14 53  1  0
 14 54  1  0
 14 55  1  0
 15 56  1  1
 16 57  1  0
 16 58  1  0
 17 59  1  0
 19 60  1  6
 20 61  1  0
 20 62  1  0
 21 63  1  0
 21 64  1  0
 22 65  1  6
 23 66  1  0
 25 67  1  0
 25 68  1  0
 25 69  1  0
 26 70  1  0
 26 71  1  0
 26 72  1  0
 28 73  1  0
 28 74  1  0
 28 75  1  0
 29 76  1  0
 29 77  1  0
 30 78  1  0
 30 79  1  0
 32 80  1  0
 32 81  1  0
 32 82  1  0
M  END
>  <meeko>  (6) 
{"is_sidechain": [false], "intermolecular_energy": 2.731, "internal_energy": -0.839}

$$$$
EPH_relaxed_0001_pdb2pqr_Repair_151_r2_0001_out
     RDKit          3D

 82 86  0  0  0  0  0  0  0  0999 V2000
    1.4800   19.6720   -2.1080 C   0  0  0  0  0  0  0  0  0  0  0  0
    1.4730   19.4370   -0.5940 C   0  0  2  0  0  0  0  0  0  0  0  0
    2.8300   19.7810    0.0530 C   0  0  0  0  0  0  0  0  0  0  0  0
    2.9020   19.4460    1.5450 C   0  0  0  0  0  0  0  0  0  0  0  0
    4.3110   19.4920    2.0560 C   0  0  2  0  0  0  0  0  0  0  0  0
    4.6820   18.3840    2.8870 O   0  0  0  0  0  0  0  0  0  0  0  0
    4.6640   19.6740    3.5200 C   0  0  0  0  0  0  0  0  0  0  0  0
    3.6040   19.8240    4.5660 C   0  0  0  0  0  0  0  0  0  0  0  0
    6.0240   20.1940    3.8680 C   0  0  0  0  0  0  0  0  0  0  0  0
    1.1050   17.9890   -0.2940 C   0  0  1  0  0  0  0  0  0  0  0  0
   -0.2370   17.8610    0.4740 C   0  0  0  0  0  0  0  0  0  0  0  0
   -0.9200   16.5640   -0.0320 C   0  0  0  0  0  0  0  0  0  0  0  0
    0.1870   15.8210   -0.8170 C   0  0  1  0  0  0  0  0  0  0  0  0
    1.0370   15.0990    0.2740 C   0  0  0  0  0  0  0  0  0  0  0  0
   -0.2980   14.8280   -1.9230 C   0  0  2  0  0  0  0  0  0  0  0  0
   -1.1340   13.6410   -1.4120 C   0  0  0  0  0  0  0  0  0  0  0  0
   -0.3550   12.4200   -1.0530 C   0  0  0  0  0  0  0  0  0  0  0  0
    0.9230   12.1770   -1.4000 C   0  0  0  0  0  0  0  0  0  0  0  0
    1.6870   13.1410   -2.3160 C   0  0  1  0  0  0  0  0  0  0  0  0
    2.4260   12.3340   -3.4160 C   0  0  0  0  0  0  0  0  0  0  0  0
    3.3230   11.2440   -2.8380 C   0  0  0  0  0  0  0  0  0  0  0  0
    2.5170   10.2720   -1.9800 C   0  0  2  0  0  0  0  0  0  0  0  0
    1.6160    9.5510   -2.8250 O   0  0  0  0  0  0  0  0  0  0  0  0
    1.7210   10.9730   -0.8430 C   0  0  0  0  0  0  0  0  0  0  0  0
    2.7040   11.4970    0.2330 C   0  0  0  0  0  0  0  0  0  0  0  0
    0.8430    9.9000   -0.1440 C   0  0  0  0  0  0  0  0  0  0  0  0
    0.8420   14.3500   -2.9100 C   0  0  1  0  0  0  0  0  0  0  0  0
    0.1340   13.9070   -4.2270 C   0  0  0  0  0  0  0  0  0  0  0  0
    1.8220   15.5180   -3.3040 C   0  0  0  0  0  0  0  0  0  0  0  0
    2.1690   16.5350   -2.2000 C   0  0  0  0  0  0  0  0  0  0  0  0
    0.9020   17.0420   -1.5030 C   0  0  2  0  0  0  0  0  0  0  0  0
    0.0370   17.7930   -2.5720 C   0  0  0  0  0  0  0  0  0  0  0  0
    1.5122   20.7526   -2.3112 H   0  0  0  0  0  0  0  0  0  0  0  0
    2.3642   19.1893   -2.5499 H   0  0  0  0  0  0  0  0  0  0  0  0
    0.5687   19.2428   -2.5499 H   0  0  0  0  0  0  0  0  0  0  0  0
    0.7194   20.1095   -0.1583 H   0  0  0  0  0  0  0  0  0  0  0  0
    3.6167   19.2159   -0.4683 H   0  0  0  0  0  0  0  0  0  0  0  0
    2.9640   20.8689   -0.0394 H   0  0  0  0  0  0  0  0  0  0  0  0
    2.2962   20.1746    2.1037 H   0  0  0  0  0  0  0  0  0  0  0  0
    2.5191   18.4245    1.6861 H   0  0  0  0  0  0  0  0  0  0  0  0
    4.6498   20.0087    1.1459 H   0  0  0  0  0  0  0  0  0  0  0  0
    4.0620   19.7592    5.5640 H   0  0  0  0  0  0  0  0  0  0  0  0
    3.1114   20.8008    4.4514 H   0  0  0  0  0  0  0  0  0  0  0  0
    2.8597   19.0222    4.4514 H   0  0  0  0  0  0  0  0  0  0  0  0
    6.1319   20.2353    4.9619 H   0  0  0  0  0  0  0  0  0  0  0  0
    6.7905   19.5255    3.4489 H   0  0  0  0  0  0  0  0  0  0  0  0
    6.1489   21.2033    3.4489 H   0  0  0  0  0  0  0  0  0  0  0  0
    1.9960   17.6862    0.2756 H   0  0  0  0  0  0  0  0  0  0  0  0
   -0.0494   17.7931    1.5558 H   0  0  0  0  0  0  0  0  0  0  0  0
   -0.8771   18.7384    0.2996 H   0  0  0  0  0  0  0  0  0  0  0  0
   -1.2718   15.9550    0.8138 H   0  0  0  0  0  0  0  0  0  0  0  0
   -1.8035   16.7727   -0.6531 H   0  0  0  0  0  0  0  0  0  0  0  0
    0.6840   15.3988    1.2718 H   0  0  0  0  0  0  0  0  0  0  0  0
    0.9317   14.0100    0.1597 H   0  0  0  0  0  0  0  0  0  0  0  0
    2.0946   15.3791    0.1597 H   0  0  0  0  0  0  0  0  0  0  0  0
   -0.9891   15.4491   -2.5117 H   0  0  0  0  0  0  0  0  0  0  0  0
   -1.6806   13.9709   -0.5162 H   0  0  0  0  0  0  0  0  0  0  0  0
   -1.7895   13.3493   -2.2458 H   0  0  0  0  0  0  0  0  0  0  0  0
   -0.8684   11.6534   -0.4540 H   0  0  0  0  0  0  0  0  0  0  0  0
    2.4184   13.6544   -1.6745 H   0  0  0  0  0  0  0  0  0  0  0  0
    1.6779   11.8643   -4.0715 H   0  0  0  0  0  0  0  0  0  0  0  0
    3.0670   13.0349   -3.9708 H   0  0  0  0  0  0  0  0  0  0  0  0
    3.7940   10.6901   -3.6635 H   0  0  0  0  0  0  0  0  0  0  0  0
    4.0888   11.7179   -2.2064 H   0  0  0  0  0  0  0  0  0  0  0  0
    3.2308    9.5936   -1.4898 H   0  0  0  0  0  0  0  0  0  0  0  0
    0.7980    9.4000   -2.3210 H   0  0  0  0  0  0  0  0  0  0  0  0
    2.3009   11.2821    1.2337 H   0  0  0  0  0  0  0  0  0  0  0  0
    3.6771   10.9980    0.1148 H   0  0  0  0  0  0  0  0  0  0  0  0
    2.8321   12.5831    0.1148 H   0  0  0  0  0  0  0  0  0  0  0  0
    0.9313   10.0079    0.9471 H   0  0  0  0  0  0  0  0  0  0  0  0
   -0.2073   10.0347   -0.4420 H   0  0  0  0  0  0  0  0  0  0  0  0
    1.1829    8.8972   -0.4420 H   0  0  0  0  0  0  0  0  0  0  0  0
   -0.7749   13.3383   -3.9812 H   0  0  0  0  0  0  0  0  0  0  0  0
   -0.1376   14.7965   -4.8144 H   0  0  0  0  0  0  0  0  0  0  0  0
    0.8152   13.2737   -4.8144 H   0  0  0  0  0  0  0  0  0  0  0  0
    2.7634   15.0621   -3.6445 H   0  0  0  0  0  0  0  0  0  0  0  0
    1.2867   16.0969   -4.0710 H   0  0  0  0  0  0  0  0  0  0  0  0
    2.8195   16.0511   -1.4566 H   0  0  0  0  0  0  0  0  0  0  0  0
    2.6821   17.3917   -2.6612 H   0  0  0  0  0  0  0  0  0  0  0  0
   -0.6997   18.4326   -2.0639 H   0  0  0  0  0  0  0  0  0  0  0  0
    0.6905   18.4150   -3.2013 H   0  0  0  0  0  0  0  0  0  0  0  0
   -0.4871   17.0586   -3.2013 H   0  0  0  0  0  0  0  0  0  0  0  0
  1  2  1  0
  2  3  1  0
  3  4  1  0
  4  5  1  0
  5  6  1  0
  6  7  1  0
  7  8  1  0
  7  9  1  0
  2 10  1  0
 10 11  1  0
 11 12  1  0
 12 13  1  0
 13 14  1  1
 13 15  1  0
 15 16  1  0
 16 17  1  0
 17 18  2  0
 18 19  1  0
 19 20  1  0
 20 21  1  0
 21 22  1  0
 22 23  1  0
 22 24  1  0
 24 25  1  0
 24 26  1  0
 19 27  1  0
 27 28  1  6
 27 29  1  0
 29 30  1  0
 30 31  1  0
 31 32  1  6
  7  5  1  0
 31 10  1  0
 31 13  1  0
 27 15  1  0
 24 18  1  0
  1 33  1  0
  1 34  1  0
  1 35  1  0
  2 36  1  1
  3 37  1  0
  3 38  1  0
  4 39  1  0
  4 40  1  0
  5 41  1  6
  8 42  1  0
  8 43  1  0
  8 44  1  0
  9 45  1  0
  9 46  1  0
  9 47  1  0
 10 48  1  1
 11 49  1  0
 11 50  1  0
 12 51  1  0
 12 52  1  0
 14 53  1  0
 14 54  1  0
 14 55  1  0
 15 56  1  6
 16 57  1  0
 16 58  1  0
 17 59  1  0
 19 60  1  1
 20 61  1  0
 20 62  1  0
 21 63  1  0
 21 64  1  0
 22 65  1  1
 23 66  1  0
 25 67  1  0
 25 68  1  0
 25 69  1  0
 26 70  1  0
 26 71  1  0
 26 72  1  0
 28 73  1  0
 28 74  1  0
 28 75  1  0
 29 76  1  0
 29 77  1  0
 30 78  1  0
 30 79  1  0
 32 80  1  0
 32 81  1  0
 32 82  1  0
M  END
>  <meeko>  (7) 
{"is_sidechain": [false], "intermolecular_energy": 2.731, "internal_energy": -0.839}

$$$$
EPH_relaxed_0001_pdb2pqr_Repair_151_r2_0001_out
     RDKit          3D

 82 86  0  0  0  0  0  0  0  0999 V2000
   -2.1590    7.8760   -2.1350 C   0  0  0  0  0  0  0  0  0  0  0  0
   -2.0970    8.4730   -0.7270 C   0  0  2  0  0  0  0  0  0  0  0  0
   -3.4650    8.4300   -0.0170 C   0  0  0  0  0  0  0  0  0  0  0  0
   -4.6580    8.5160   -0.9730 C   0  0  0  0  0  0  0  0  0  0  0  0
   -5.4810    7.2640   -0.9480 C   0  0  2  0  0  0  0  0  0  0  0  0
   -5.5650    6.5780   -2.2040 O   0  0  0  0  0  0  0  0  0  0  0  0
   -6.7960    7.1120   -1.6890 C   0  0  0  0  0  0  0  0  0  0  0  0
   -7.3640    8.2290   -2.5070 C   0  0  0  0  0  0  0  0  0  0  0  0
   -7.7610    6.0650   -1.2270 C   0  0  0  0  0  0  0  0  0  0  0  0
   -1.5890    9.9080   -0.7920 C   0  0  1  0  0  0  0  0  0  0  0  0
   -1.1610   10.4540    0.5960 C   0  0  0  0  0  0  0  0  0  0  0  0
    0.0490   11.3930    0.3540 C   0  0  0  0  0  0  0  0  0  0  0  0
    0.0680   11.6170   -1.1770 C   0  0  1  0  0  0  0  0  0  0  0  0
   -1.0030   12.7240   -1.4330 C   0  0  0  0  0  0  0  0  0  0  0  0
    1.4500   11.9950   -1.8020 C   0  0  2  0  0  0  0  0  0  0  0  0
    2.0480   13.3240   -1.3090 C   0  0  0  0  0  0  0  0  0  0  0  0
    1.6730   14.5280   -2.1090 C   0  0  0  0  0  0  0  0  0  0  0  0
    1.1250   14.5110   -3.3380 C   0  0  0  0  0  0  0  0  0  0  0  0
    0.9170   13.1900   -4.0890 C   0  0  1  0  0  0  0  0  0  0  0  0
    1.4130   13.3430   -5.5510 C   0  0  0  0  0  0  0  0  0  0  0  0
    0.7710   14.5280   -6.2660 C   0  0  0  0  0  0  0  0  0  0  0  0
    1.0490   15.8300   -5.5200 C   0  0  2  0  0  0  0  0  0  0  0  0
    2.4490   16.1140   -5.5930 O   0  0  0  0  0  0  0  0  0  0  0  0
    0.6000   15.7920   -4.0320 C   0  0  0  0  0  0  0  0  0  0  0  0
   -0.9470   15.7870   -3.9550 C   0  0  0  0  0  0  0  0  0  0  0  0
    1.0640   17.1120   -3.3590 C   0  0  0  0  0  0  0  0  0  0  0  0
    1.4970   11.8910   -3.3810 C   0  0  1  0  0  0  0  0  0  0  0  0
    2.9940   11.6960   -3.7700 C   0  0  0  0  0  0  0  0  0  0  0  0
    0.7300   10.6260   -3.9200 C   0  0  0  0  0  0  0  0  0  0  0  0
   -0.5660   10.2330   -3.1840 C   0  0  0  0  0  0  0  0  0  0  0  0
   -0.3420   10.1820   -1.6700 C   0  0  2  0  0  0  0  0  0  0  0  0
    0.7140    9.0620   -1.3790 C   0  0  0  0  0  0  0  0  0  0  0  0
   -2.2724    6.7841   -2.0656 H   0  0  0  0  0  0  0  0  0  0  0  0
   -3.0179    8.3002   -2.6756 H   0  0  0  0  0  0  0  0  0  0  0  0
   -1.2312    8.1147   -2.6756 H   0  0  0  0  0  0  0  0  0  0  0  0
   -1.4000    7.8586   -0.1382 H   0  0  0  0  0  0  0  0  0  0  0  0
   -3.5361    7.4858    0.5429 H   0  0  0  0  0  0  0  0  0  0  0  0
   -3.5145    9.3118    0.6388 H   0  0  0  0  0  0  0  0  0  0  0  0
   -5.2917    9.3649   -0.6765 H   0  0  0  0  0  0  0  0  0  0  0  0
   -4.2701    8.6505   -1.9935 H   0  0  0  0  0  0  0  0  0  0  0  0
   -5.1965    7.0698    0.0967 H   0  0  0  0  0  0  0  0  0  0  0  0
   -7.7601    9.0080   -1.8390 H   0  0  0  0  0  0  0  0  0  0  0  0
   -6.5741    8.6571   -3.1416 H   0  0  0  0  0  0  0  0  0  0  0  0
   -8.1753    7.8429   -3.1416 H   0  0  0  0  0  0  0  0  0  0  0  0
   -7.7804    6.0439   -0.1274 H   0  0  0  0  0  0  0  0  0  0  0  0
   -8.7663    6.2996   -1.6071 H   0  0  0  0  0  0  0  0  0  0  0  0
   -7.4454    5.0822   -1.6071 H   0  0  0  0  0  0  0  0  0  0  0  0
   -2.4721   10.3963   -1.2299 H   0  0  0  0  0  0  0  0  0  0  0  0
   -1.9893   11.0141    1.0545 H   0  0  0  0  0  0  0  0  0  0  0  0
   -0.8937    9.6332    1.2778 H   0  0  0  0  0  0  0  0  0  0  0  0
   -0.0873   12.3469    0.8845 H   0  0  0  0  0  0  0  0  0  0  0  0
    0.9914   10.9636    0.7249 H   0  0  0  0  0  0  0  0  0  0  0  0
   -1.3727   13.1062   -0.4701 H   0  0  0  0  0  0  0  0  0  0  0  0
   -0.5499   13.5474   -2.0046 H   0  0  0  0  0  0  0  0  0  0  0  0
   -1.8409   12.2984   -2.0046 H   0  0  0  0  0  0  0  0  0  0  0  0
    2.1096   11.2071   -1.4095 H   0  0  0  0  0  0  0  0  0  0  0  0
    1.7113   13.4851   -0.2743 H   0  0  0  0  0  0  0  0  0  0  0  0
    3.1389   13.2216   -1.4065 H   0  0  0  0  0  0  0  0  0  0  0  0
    1.8606   15.5123   -1.6552 H   0  0  0  0  0  0  0  0  0  0  0  0
   -0.1667   13.0018   -4.0795 H   0  0  0  0  0  0  0  0  0  0  0  0
    2.5035   13.4865   -5.5401 H   0  0  0  0  0  0  0  0  0  0  0  0
    1.1299   12.4308   -6.0966 H   0  0  0  0  0  0  0  0  0  0  0  0
    1.1828   14.6009   -7.2834 H   0  0  0  0  0  0  0  0  0  0  0  0
   -0.3169   14.3692   -6.3023 H   0  0  0  0  0  0  0  0  0  0  0  0
    0.4579   16.6204   -6.0056 H   0  0  0  0  0  0  0  0  0  0  0  0
    2.5640   16.8850   -6.1740 H   0  0  0  0  0  0  0  0  0  0  0  0
   -1.2617   15.7860   -2.9010 H   0  0  0  0  0  0  0  0  0  0  0  0
   -1.3419   16.6839   -4.4547 H   0  0  0  0  0  0  0  0  0  0  0  0
   -1.3361   14.8876   -4.4547 H   0  0  0  0  0  0  0  0  0  0  0  0
    1.0245   16.9996   -2.2655 H   0  0  0  0  0  0  0  0  0  0  0  0
    2.0954   17.3379   -3.6674 H   0  0  0  0  0  0  0  0  0  0  0  0
    0.4008   17.9336   -3.6674 H   0  0  0  0  0  0  0  0  0  0  0  0
    3.6027   11.6167   -2.8572 H   0  0  0  0  0  0  0  0  0  0  0  0
    3.1018   10.7762   -4.3636 H   0  0  0  0  0  0  0  0  0  0  0  0
    3.3338   12.5575   -4.3636 H   0  0  0  0  0  0  0  0  0  0  0  0
    0.4705   10.8173   -4.9717 H   0  0  0  0  0  0  0  0  0  0  0  0
    1.4182    9.7828   -3.7610 H   0  0  0  0  0  0  0  0  0  0  0  0
   -1.3462   10.9755   -3.4076 H   0  0  0  0  0  0  0  0  0  0  0  0
   -0.8753    9.2346   -3.5268 H   0  0  0  0  0  0  0  0  0  0  0  0
    0.8290    8.9400   -0.2918 H   0  0  0  0  0  0  0  0  0  0  0  0
    0.3738    8.1136   -1.8204 H   0  0  0  0  0  0  0  0  0  0  0  0
    1.6807    9.3459   -1.8204 H   0  0  0  0  0  0  0  0  0  0  0  0
  1  2  1  0
  2  3  1  0
  3  4  1  0
  4  5  1  0
  5  6  1  0
  6  7  1  0
  7  8  1  0
  7  9  1  0
  2 10  1  0
 10 11  1  0
 11 12  1  0
 12 13  1  0
 13 14  1  1
 13 15  1  0
 15 16  1  0
 16 17  1  0
 17 18  2  0
 18 19  1  0
 19 20  1  0
 20 21  1  0
 21 22  1  0
 22 23  1  0
 22 24  1  0
 24 25  1  0
 24 26  1  0
 19 27  1  0
 27 28  1  1
 27 29  1  0
 29 30  1  0
 30 31  1  0
 31 32  1  6
  7  5  1  0
 31 10  1  0
 31 13  1  0
 27 15  1  0
 24 18  1  0
  1 33  1  0
  1 34  1  0
  1 35  1  0
  2 36  1  1
  3 37  1  0
  3 38  1  0
  4 39  1  0
  4 40  1  0
  5 41  1  1
  8 42  1  0
  8 43  1  0
  8 44  1  0
  9 45  1  0
  9 46  1  0
  9 47  1  0
 10 48  1  6
 11 49  1  0
 11 50  1  0
 12 51  1  0
 12 52  1  0
 14 53  1  0
 14 54  1  0
 14 55  1  0
 15 56  1  1
 16 57  1  0
 16 58  1  0
 17 59  1  0
 19 60  1  6
 20 61  1  0
 20 62  1  0
 21 63  1  0
 21 64  1  0
 22 65  1  6
 23 66  1  0
 25 67  1  0
 25 68  1  0
 25 69  1  0
 26 70  1  0
 26 71  1  0
 26 72  1  0
 28 73  1  0
 28 74  1  0
 28 75  1  0
 29 76  1  0
 29 77  1  0
 30 78  1  0
 30 79  1  0
 32 80  1  0
 32 81  1  0
 32 82  1  0
M  END
>  <meeko>  (8) 
{"is_sidechain": [false], "intermolecular_energy": 2.731, "internal_energy": -0.839}

$$$$
EPH_relaxed_0001_pdb2pqr_Repair_151_r2_0001_out
     RDKit          3D

 82 86  0  0  0  0  0  0  0  0999 V2000
   -3.7140    7.2200   -3.4240 C   0  0  0  0  0  0  0  0  0  0  0  0
   -3.7380    7.2930   -1.8950 C   0  0  2  0  0  0  0  0  0  0  0  0
   -5.1520    7.0660   -1.3250 C   0  0  0  0  0  0  0  0  0  0  0  0
   -6.2710    7.2940   -2.3450 C   0  0  0  0  0  0  0  0  0  0  0  0
   -7.5970    7.4940   -1.6770 C   0  0  2  0  0  0  0  0  0  0  0  0
   -8.1700    6.3070   -1.1140 O   0  0  0  0  0  0  0  0  0  0  0  0
   -8.8950    6.9060   -2.2000 C   0  0  0  0  0  0  0  0  0  0  0  0
   -8.9290    6.0730   -3.4420 C   0  0  0  0  0  0  0  0  0  0  0  0
  -10.1860    7.5400   -1.7860 C   0  0  0  0  0  0  0  0  0  0  0  0
   -3.1990    8.6410   -1.4300 C   0  0  1  0  0  0  0  0  0  0  0  0
   -3.8140    9.0970   -0.0800 C   0  0  0  0  0  0  0  0  0  0  0  0
   -2.7000    9.8560    0.6850 C   0  0  0  0  0  0  0  0  0  0  0  0
   -1.5970   10.1000   -0.3710 C   0  0  1  0  0  0  0  0  0  0  0  0
   -2.0760   11.3530   -1.1690 C   0  0  0  0  0  0  0  0  0  0  0  0
   -0.1440   10.2850    0.1760 C   0  0  2  0  0  0  0  0  0  0  0  0
    0.0580   11.5060    1.0900 C   0  0  0  0  0  0  0  0  0  0  0  0
    0.4610   12.7640    0.3950 C   0  0  0  0  0  0  0  0  0  0  0  0
    0.9280   12.8460   -0.8650 C   0  0  0  0  0  0  0  0  0  0  0  0
    1.1850   11.5810   -1.6940 C   0  0  1  0  0  0  0  0  0  0  0  0
    2.5720   11.6840   -2.3810 C   0  0  0  0  0  0  0  0  0  0  0  0
    2.7240   12.9600   -3.2020 C   0  0  0  0  0  0  0  0  0  0  0  0
    2.5200   14.1970   -2.3310 C   0  0  2  0  0  0  0  0  0  0  0  0
    3.5910   14.2770   -1.3850 O   0  0  0  0  0  0  0  0  0  0  0  0
    1.1590   14.2000   -1.5800 C   0  0  0  0  0  0  0  0  0  0  0  0
    0.0060   14.4170   -2.5920 C   0  0  0  0  0  0  0  0  0  0  0  0
    1.1390   15.4280   -0.6310 C   0  0  0  0  0  0  0  0  0  0  0  0
    0.9820   10.2000   -0.9330 C   0  0  1  0  0  0  0  0  0  0  0  0
    2.2980    9.7980   -0.2000 C   0  0  0  0  0  0  0  0  0  0  0  0
    0.6970    9.0680   -1.9890 C   0  0  0  0  0  0  0  0  0  0  0  0
   -0.7720    8.8540   -2.4000 C   0  0  0  0  0  0  0  0  0  0  0  0
   -1.6760    8.7470   -1.1680 C   0  0  2  0  0  0  0  0  0  0  0  0
   -1.2320    7.4820   -0.3570 C   0  0  0  0  0  0  0  0  0  0  0  0
   -3.3848    6.2185   -3.7381 H   0  0  0  0  0  0  0  0  0  0  0  0
   -4.7232    7.4140   -3.8162 H   0  0  0  0  0  0  0  0  0  0  0  0
   -3.0168    7.9750   -3.8162 H   0  0  0  0  0  0  0  0  0  0  0  0
   -3.0955    6.4849   -1.5153 H   0  0  0  0  0  0  0  0  0  0  0  0
   -5.2181    6.0294   -0.9629 H   0  0  0  0  0  0  0  0  0  0  0  0
   -5.2960    7.8019   -0.5201 H   0  0  0  0  0  0  0  0  0  0  0  0
   -6.0336    8.1876   -2.9409 H   0  0  0  0  0  0  0  0  0  0  0  0
   -6.3399    6.4012   -2.9839 H   0  0  0  0  0  0  0  0  0  0  0  0
   -7.3173    8.5144   -1.3762 H   0  0  0  0  0  0  0  0  0  0  0  0
   -8.9725    5.0084   -3.1684 H   0  0  0  0  0  0  0  0  0  0  0  0
   -9.8172    6.3356   -4.0354 H   0  0  0  0  0  0  0  0  0  0  0  0
   -8.0224    6.2624   -4.0354 H   0  0  0  0  0  0  0  0  0  0  0  0
  -10.2448    7.5689   -0.6880 H   0  0  0  0  0  0  0  0  0  0  0  0
  -10.2351    8.5647   -2.1829 H   0  0  0  0  0  0  0  0  0  0  0  0
  -11.0269    6.9524   -2.1829 H   0  0  0  0  0  0  0  0  0  0  0  0
   -3.4749    9.2582   -2.2977 H   0  0  0  0  0  0  0  0  0  0  0  0
   -4.6711    9.7626   -0.2598 H   0  0  0  0  0  0  0  0  0  0  0  0
   -4.1752    8.2354    0.5006 H   0  0  0  0  0  0  0  0  0  0  0  0
   -3.0799   10.8109    1.0772 H   0  0  0  0  0  0  0  0  0  0  0  0
   -2.3291    9.2892    1.5517 H   0  0  0  0  0  0  0  0  0  0  0  0
   -2.3779   12.1426   -0.4652 H   0  0  0  0  0  0  0  0  0  0  0  0
   -1.2549   11.7204   -1.8021 H   0  0  0  0  0  0  0  0  0  0  0  0
   -2.9328   11.0790   -1.8021 H   0  0  0  0  0  0  0  0  0  0  0  0
   -0.0213    9.4039    0.8230 H   0  0  0  0  0  0  0  0  0  0  0  0
   -0.8890   11.6969    1.6161 H   0  0  0  0  0  0  0  0  0  0  0  0
    0.8911   11.2490    1.7607 H   0  0  0  0  0  0  0  0  0  0  0  0
    0.3686   13.7033    0.9600 H   0  0  0  0  0  0  0  0  0  0  0  0
    0.3926   11.5515   -2.4564 H   0  0  0  0  0  0  0  0  0  0  0  0
    3.3518   11.6687   -1.6053 H   0  0  0  0  0  0  0  0  0  0  0  0
    2.6685   10.8308   -3.0686 H   0  0  0  0  0  0  0  0  0  0  0  0
    3.7334   12.9893   -3.6381 H   0  0  0  0  0  0  0  0  0  0  0  0
    1.9620   12.9598   -3.9953 H   0  0  0  0  0  0  0  0  0  0  0  0
    2.5126   15.0718   -2.9978 H   0  0  0  0  0  0  0  0  0  0  0  0
    3.7160   13.3910   -1.0070 H   0  0  0  0  0  0  0  0  0  0  0  0
   -0.9326   14.5936   -2.0462 H   0  0  0  0  0  0  0  0  0  0  0  0
    0.2321   15.2884   -3.2241 H   0  0  0  0  0  0  0  0  0  0  0  0
   -0.1001   13.5231   -3.2241 H   0  0  0  0  0  0  0  0  0  0  0  0
    1.1446   15.0841    0.4138 H   0  0  0  0  0  0  0  0  0  0  0  0
    2.0271   16.0497   -0.8171 H   0  0  0  0  0  0  0  0  0  0  0  0
    0.2311   16.0205   -0.8171 H   0  0  0  0  0  0  0  0  0  0  0  0
    2.1412    9.8459    0.8877 H   0  0  0  0  0  0  0  0  0  0  0  0
    2.5783    8.7733   -0.4853 H   0  0  0  0  0  0  0  0  0  0  0  0
    3.1030   10.4912   -0.4853 H   0  0  0  0  0  0  0  0  0  0  0  0
    1.2649    9.3116   -2.8991 H   0  0  0  0  0  0  0  0  0  0  0  0
    0.9964    8.1320   -1.4947 H   0  0  0  0  0  0  0  0  0  0  0  0
   -1.1011    9.7045   -3.0151 H   0  0  0  0  0  0  0  0  0  0  0  0
   -0.8436    7.9160   -2.9701 H   0  0  0  0  0  0  0  0  0  0  0  0
   -1.3059    7.6925    0.7201 H   0  0  0  0  0  0  0  0  0  0  0  0
   -1.8867    6.6353   -0.6109 H   0  0  0  0  0  0  0  0  0  0  0  0
   -0.1918    7.2302   -0.6109 H   0  0  0  0  0  0  0  0  0  0  0  0
  1  2  1  0
  2  3  1  0
  3  4  1  0
  4  5  1  0
  5  6  1  0
  6  7  1  0
  7  8  1  0
  7  9  1  0
  2 10  1  0
 10 11  1  0
 11 12  1  0
 12 13  1  0
 13 14  1  6
 13 15  1  0
 15 16  1  0
 16 17  1  0
 17 18  2  0
 18 19  1  0
 19 20  1  0
 20 21  1  0
 21 22  1  0
 22 23  1  0
 22 24  1  0
 24 25  1  0
 24 26  1  0
 19 27  1  0
 27 28  1  1
 27 29  1  0
 29 30  1  0
 30 31  1  0
 31 32  1  1
  7  5  1  0
 31 10  1  0
 31 13  1  0
 27 15  1  0
 24 18  1  0
  1 33  1  0
  1 34  1  0
  1 35  1  0
  2 36  1  1
  3 37  1  0
  3 38  1  0
  4 39  1  0
  4 40  1  0
  5 41  1  1
  8 42  1  0
  8 43  1  0
  8 44  1  0
  9 45  1  0
  9 46  1  0
  9 47  1  0
 10 48  1  6
 11 49  1  0
 11 50  1  0
 12 51  1  0
 12 52  1  0
 14 53  1  0
 14 54  1  0
 14 55  1  0
 15 56  1  1
 16 57  1  0
 16 58  1  0
 17 59  1  0
 19 60  1  6
 20 61  1  0
 20 62  1  0
 21 63  1  0
 21 64  1  0
 22 65  1  6
 23 66  1  0
 25 67  1  0
 25 68  1  0
 25 69  1  0
 26 70  1  0
 26 71  1  0
 26 72  1  0
 28 73  1  0
 28 74  1  0
 28 75  1  0
 29 76  1  0
 29 77  1  0
 30 78  1  0
 30 79  1  0
 32 80  1  0
 32 81  1  0
 32 82  1  0
M  END
>  <meeko>  (9) 
{"is_sidechain": [false], "intermolecular_energy": 2.731, "internal_energy": -0.839}

$$$$
EPH_relaxed_0001_pdb2pqr_Repair_151_r2_0001_out
     RDKit          3D

 82 86  0  0  0  0  0  0  0  0999 V2000
   -0.8310   16.3250   -5.8490 C   0  0  0  0  0  0  0  0  0  0  0  0
    0.2730   15.6110   -6.6340 C   0  0  2  0  0  0  0  0  0  0  0  0
   -0.1050   15.4100   -8.1150 C   0  0  0  0  0  0  0  0  0  0  0  0
    0.4720   16.4800   -9.0470 C   0  0  0  0  0  0  0  0  0  0  0  0
    1.8470   16.1190   -9.5210 C   0  0  2  0  0  0  0  0  0  0  0  0
    2.2270   16.7160  -10.7680 O   0  0  0  0  0  0  0  0  0  0  0  0
    2.1140   15.2840  -10.7590 C   0  0  0  0  0  0  0  0  0  0  0  0
    0.9940   14.7570  -11.6010 C   0  0  0  0  0  0  0  0  0  0  0  0
    3.4270   14.5750  -10.8750 C   0  0  0  0  0  0  0  0  0  0  0  0
    0.5820   14.2650   -5.9890 C   0  0  1  0  0  0  0  0  0  0  0  0
    1.8110   13.5650   -6.6270 C   0  0  0  0  0  0  0  0  0  0  0  0
    2.5390   12.8100   -5.4840 C   0  0  0  0  0  0  0  0  0  0  0  0
    1.5350   12.8230   -4.3070 C   0  0  1  0  0  0  0  0  0  0  0  0
    0.5420   11.6590   -4.6140 C   0  0  0  0  0  0  0  0  0  0  0  0
    2.1490   12.6950   -2.8750 C   0  0  2  0  0  0  0  0  0  0  0  0
    2.8980   11.3790   -2.6010 C   0  0  0  0  0  0  0  0  0  0  0  0
    2.0640   10.2770   -2.0360 C   0  0  0  0  0  0  0  0  0  0  0  0
    0.8400   10.4200   -1.4960 C   0  0  0  0  0  0  0  0  0  0  0  0
    0.2130   11.8100   -1.3240 C   0  0  1  0  0  0  0  0  0  0  0  0
   -0.3870   11.9340    0.1020 C   0  0  0  0  0  0  0  0  0  0  0  0
   -1.3640   10.8090    0.4260 C   0  0  0  0  0  0  0  0  0  0  0  0
   -0.6880    9.4460    0.3000 C   0  0  2  0  0  0  0  0  0  0  0  0
    0.3080    9.3290    1.3210 O   0  0  0  0  0  0  0  0  0  0  0  0
   -0.0380    9.2100   -1.0920 C   0  0  0  0  0  0  0  0  0  0  0  0
   -1.1460    9.0360   -2.1600 C   0  0  0  0  0  0  0  0  0  0  0  0
    0.7290    7.8620   -1.0390 C   0  0  0  0  0  0  0  0  0  0  0  0
    1.1410   13.0420   -1.7050 C   0  0  1  0  0  0  0  0  0  0  0  0
    2.0100   13.4540   -0.4770 C   0  0  0  0  0  0  0  0  0  0  0  0
    0.2350   14.2830   -2.0440 C   0  0  0  0  0  0  0  0  0  0  0  0
   -0.2410   14.4180   -3.5030 C   0  0  0  0  0  0  0  0  0  0  0  0
    0.9290   14.2630   -4.4790 C   0  0  2  0  0  0  0  0  0  0  0  0
    1.9350   15.4340   -4.2090 C   0  0  0  0  0  0  0  0  0  0  0  0
   -0.6489   16.2072   -4.7706 H   0  0  0  0  0  0  0  0  0  0  0  0
   -0.8308   17.3945   -6.1063 H   0  0  0  0  0  0  0  0  0  0  0  0
   -1.8063   15.8862   -6.1063 H   0  0  0  0  0  0  0  0  0  0  0  0
    1.1668   16.2516   -6.6049 H   0  0  0  0  0  0  0  0  0  0  0  0
    0.2699   14.4280   -8.4392 H   0  0  0  0  0  0  0  0  0  0  0  0
   -1.2006   15.4827   -8.1805 H   0  0  0  0  0  0  0  0  0  0  0  0
   -0.1892   16.5869   -9.9195 H   0  0  0  0  0  0  0  0  0  0  0  0
    0.5395   17.4235   -8.4856 H   0  0  0  0  0  0  0  0  0  0  0  0
    2.2075   16.0382   -8.4849 H   0  0  0  0  0  0  0  0  0  0  0  0
    0.1919   14.3796  -10.9497 H   0  0  0  0  0  0  0  0  0  0  0  0
    0.6012   15.5648  -12.2360 H   0  0  0  0  0  0  0  0  0  0  0  0
    1.3660   13.9394  -12.2360 H   0  0  0  0  0  0  0  0  0  0  0  0
    3.8194   14.3631   -9.8694 H   0  0  0  0  0  0  0  0  0  0  0  0
    3.2866   13.6301  -11.4204 H   0  0  0  0  0  0  0  0  0  0  0  0
    4.1400   15.2107  -11.4204 H   0  0  0  0  0  0  0  0  0  0  0  0
   -0.3790   13.7561   -6.1547 H   0  0  0  0  0  0  0  0  0  0  0  0
    1.4833   12.8555   -7.4011 H   0  0  0  0  0  0  0  0  0  0  0  0
    2.4786   14.2970   -7.1049 H   0  0  0  0  0  0  0  0  0  0  0  0
    2.7702   11.7778   -5.7859 H   0  0  0  0  0  0  0  0  0  0  0  0
    3.4985   13.2783   -5.2193 H   0  0  0  0  0  0  0  0  0  0  0  0
    0.1763   11.2303   -3.6693 H   0  0  0  0  0  0  0  0  0  0  0  0
   -0.3084   12.0460   -5.1945 H   0  0  0  0  0  0  0  0  0  0  0  0
    1.0582   10.8802   -5.1945 H   0  0  0  0  0  0  0  0  0  0  0  0
    2.9188   13.4808   -2.8768 H   0  0  0  0  0  0  0  0  0  0  0  0
    3.3271   11.0278   -3.5510 H   0  0  0  0  0  0  0  0  0  0  0  0
    3.6535   11.6120   -1.8362 H   0  0  0  0  0  0  0  0  0  0  0  0
    2.4863    9.2616   -2.0636 H   0  0  0  0  0  0  0  0  0  0  0  0
   -0.5889   11.8768   -2.0740 H   0  0  0  0  0  0  0  0  0  0  0  0
    0.4343   11.9091    0.8333 H   0  0  0  0  0  0  0  0  0  0  0  0
   -0.9427   12.8822    0.1488 H   0  0  0  0  0  0  0  0  0  0  0  0
   -1.7300   10.9355    1.4556 H   0  0  0  0  0  0  0  0  0  0  0  0
   -2.1999   10.8536   -0.2876 H   0  0  0  0  0  0  0  0  0  0  0  0
   -1.4685    8.6796    0.4158 H   0  0  0  0  0  0  0  0  0  0  0  0
    0.9650    8.6800    1.0190 H   0  0  0  0  0  0  0  0  0  0  0  0
   -2.1148    8.8839   -1.6618 H   0  0  0  0  0  0  0  0  0  0  0  0
   -1.1944    9.9376   -2.7884 H   0  0  0  0  0  0  0  0  0  0  0  0
   -0.9157    8.1630   -2.7884 H   0  0  0  0  0  0  0  0  0  0  0  0
    0.8927    7.5743    0.0100 H   0  0  0  0  0  0  0  0  0  0  0  0
    0.1384    7.0839   -1.5447 H   0  0  0  0  0  0  0  0  0  0  0  0
    1.6996    7.9723   -1.5447 H   0  0  0  0  0  0  0  0  0  0  0  0
    1.4765   13.2011    0.4511 H   0  0  0  0  0  0  0  0  0  0  0  0
    2.9679   12.9142   -0.5080 H   0  0  0  0  0  0  0  0  0  0  0  0
    2.1984   14.5373   -0.5080 H   0  0  0  0  0  0  0  0  0  0  0  0
   -0.6594   14.2262   -1.4061 H   0  0  0  0  0  0  0  0  0  0  0  0
    0.8726   15.1617   -1.8669 H   0  0  0  0  0  0  0  0  0  0  0  0
   -0.9886   13.6383   -3.7110 H   0  0  0  0  0  0  0  0  0  0  0  0
   -0.6792   15.4180   -3.6374 H   0  0  0  0  0  0  0  0  0  0  0  0
    2.0539   15.5724   -3.1242 H   0  0  0  0  0  0  0  0  0  0  0  0
    2.9098   15.1905   -4.6566 H   0  0  0  0  0  0  0  0  0  0  0  0
    1.5473   16.3610   -4.6566 H   0  0  0  0  0  0  0  0  0  0  0  0
  1  2  1  0
  2  3  1  0
  3  4  1  0
  4  5  1  0
  5  6  1  0
  6  7  1  0
  7  8  1  0
  7  9  1  0
  2 10  1  0
 10 11  1  0
 11 12  1  0
 12 13  1  0
 13 14  1  6
 13 15  1  0
 15 16  1  0
 16 17  1  0
 17 18  2  0
 18 19  1  0
 19 20  1  0
 20 21  1  0
 21 22  1  0
 22 23  1  0
 22 24  1  0
 24 25  1  0
 24 26  1  0
 19 27  1  0
 27 28  1  1
 27 29  1  0
 29 30  1  0
 30 31  1  0
 31 32  1  6
  7  5  1  0
 31 10  1  0
 31 13  1  0
 27 15  1  0
 24 18  1  0
  1 33  1  0
  1 34  1  0
  1 35  1  0
  2 36  1  6
  3 37  1  0
  3 38  1  0
  4 39  1  0
  4 40  1  0
  5 41  1  1
  8 42  1  0
  8 43  1  0
  8 44  1  0
  9 45  1  0
  9 46  1  0
  9 47  1  0
 10 48  1  1
 11 49  1  0
 11 50  1  0
 12 51  1  0
 12 52  1  0
 14 53  1  0
 14 54  1  0
 14 55  1  0
 15 56  1  6
 16 57  1  0
 16 58  1  0
 17 59  1  0
 19 60  1  6
 20 61  1  0
 20 62  1  0
 21 63  1  0
 21 64  1  0
 22 65  1  1
 23 66  1  0
 25 67  1  0
 25 68  1  0
 25 69  1  0
 26 70  1  0
 26 71  1  0
 26 72  1  0
 28 73  1  0
 28 74  1  0
 28 75  1  0
 29 76  1  0
 29 77  1  0
 30 78  1  0
 30 79  1  0
 32 80  1  0
 32 81  1  0
 32 82  1  0
M  END
>  <meeko>  (10) 
{"is_sidechain": [false], "intermolecular_energy": 2.731, "internal_energy": -0.839}

$$$$
EPH_relaxed_0001_pdb2pqr_Repair_151_r2_0001_out
     RDKit          3D

 82 86  0  0  0  0  0  0  0  0999 V2000
    3.1670   18.7990   -1.1530 C   0  0  0  0  0  0  0  0  0  0  0  0
    2.7820   17.7450   -2.1950 C   0  0  2  0  0  0  0  0  0  0  0  0
    1.3740   17.9900   -2.7750 C   0  0  0  0  0  0  0  0  0  0  0  0
    0.7200   19.2820   -2.2780 C   0  0  0  0  0  0  0  0  0  0  0  0
   -0.6300   19.0240   -1.6800 C   0  0  2  0  0  0  0  0  0  0  0  0
   -1.3040   20.1940   -1.1980 O   0  0  0  0  0  0  0  0  0  0  0  0
   -0.9430   19.2170   -0.2080 C   0  0  0  0  0  0  0  0  0  0  0  0
    0.1000   19.6840    0.7570 C   0  0  0  0  0  0  0  0  0  0  0  0
   -2.1150   18.4890    0.3750 C   0  0  0  0  0  0  0  0  0  0  0  0
    2.8560   16.3530   -1.5790 C   0  0  1  0  0  0  0  0  0  0  0  0
    3.4460   16.3660   -0.1430 C   0  0  0  0  0  0  0  0  0  0  0  0
    2.7100   15.2580    0.6530 C   0  0  0  0  0  0  0  0  0  0  0  0
    1.9670   14.4320   -0.4230 C   0  0  1  0  0  0  0  0  0  0  0  0
    3.0490   13.4690   -1.0060 C   0  0  0  0  0  0  0  0  0  0  0  0
    0.6990   13.6530    0.0570 C   0  0  2  0  0  0  0  0  0  0  0  0
    0.9610   12.5720    1.1200 C   0  0  0  0  0  0  0  0  0  0  0  0
    1.2510   11.2090    0.5860 C   0  0  0  0  0  0  0  0  0  0  0  0
    1.0230   10.7980   -0.6750 C   0  0  0  0  0  0  0  0  0  0  0  0
    0.3250   11.7150   -1.6880 C   0  0  1  0  0  0  0  0  0  0  0  0
   -0.7760   10.9180   -2.4360 C   0  0  0  0  0  0  0  0  0  0  0  0
   -0.2400    9.6410   -3.0770 C   0  0  0  0  0  0  0  0  0  0  0  0
    0.3940    8.7290   -2.0290 C   0  0  2  0  0  0  0  0  0  0  0  0
   -0.6310    8.2580   -1.1480 O   0  0  0  0  0  0  0  0  0  0  0  0
    1.5110    9.4280   -1.2050 C   0  0  0  0  0  0  0  0  0  0  0  0
    2.7490    9.6680   -2.1050 C   0  0  0  0  0  0  0  0  0  0  0  0
    1.9680    8.4460   -0.0920 C   0  0  0  0  0  0  0  0  0  0  0  0
   -0.2050   13.1010   -1.1180 C   0  0  1  0  0  0  0  0  0  0  0  0
   -1.6380   12.9210   -0.5310 C   0  0  0  0  0  0  0  0  0  0  0  0
   -0.3370   14.1270   -2.3050 C   0  0  0  0  0  0  0  0  0  0  0  0
    0.9160   14.9520   -2.6530 C   0  0  0  0  0  0  0  0  0  0  0  0
    1.5230   15.5840   -1.3960 C   0  0  2  0  0  0  0  0  0  0  0  0
    0.4660   16.5750   -0.8000 C   0  0  0  0  0  0  0  0  0  0  0  0
    3.0171   18.3885   -0.1435 H   0  0  0  0  0  0  0  0  0  0  0  0
    4.2239   19.0747   -1.2835 H   0  0  0  0  0  0  0  0  0  0  0  0
    2.5366   19.6910   -1.2835 H   0  0  0  0  0  0  0  0  0  0  0  0
    3.4998   17.8226   -3.0249 H   0  0  0  0  0  0  0  0  0  0  0  0
    1.4538   18.0404   -3.8709 H   0  0  0  0  0  0  0  0  0  0  0  0
    0.7383   17.1578   -2.4384 H   0  0  0  0  0  0  0  0  0  0  0  0
    1.3670   19.7385   -1.5145 H   0  0  0  0  0  0  0  0  0  0  0  0
    0.5915   19.9550   -3.1385 H   0  0  0  0  0  0  0  0  0  0  0  0
   -0.7995   18.1809   -2.3659 H   0  0  0  0  0  0  0  0  0  0  0  0
   -0.2550   19.5250    1.7859 H   0  0  0  0  0  0  0  0  0  0  0  0
    1.0281   19.1155    0.5974 H   0  0  0  0  0  0  0  0  0  0  0  0
    0.2940   20.7549    0.5974 H   0  0  0  0  0  0  0  0  0  0  0  0
   -2.0590   18.5238    1.4730 H   0  0  0  0  0  0  0  0  0  0  0  0
   -3.0473   18.9672    0.0401 H   0  0  0  0  0  0  0  0  0  0  0  0
   -2.0995   17.4413    0.0401 H   0  0  0  0  0  0  0  0  0  0  0  0
    3.4799   15.8508   -2.3330 H   0  0  0  0  0  0  0  0  0  0  0  0
    4.5253   16.1560   -0.1750 H   0  0  0  0  0  0  0  0  0  0  0  0
    3.3101   17.3493    0.3309 H   0  0  0  0  0  0  0  0  0  0  0  0
    3.4291   14.6285    1.1977 H   0  0  0  0  0  0  0  0  0  0  0  0
    2.0250   15.6718    1.4077 H   0  0  0  0  0  0  0  0  0  0  0  0
    3.5923   12.9854   -0.1808 H   0  0  0  0  0  0  0  0  0  0  0  0
    2.5613   12.7007   -1.6240 H   0  0  0  0  0  0  0  0  0  0  0  0
    3.7556   14.0425   -1.6240 H   0  0  0  0  0  0  0  0  0  0  0  0
    0.1185   14.4370    0.5654 H   0  0  0  0  0  0  0  0  0  0  0  0
    1.8235   12.8910    1.7236 H   0  0  0  0  0  0  0  0  0  0  0  0
    0.0288   12.4805    1.6968 H   0  0  0  0  0  0  0  0  0  0  0  0
    1.6883   10.4782    1.2822 H   0  0  0  0  0  0  0  0  0  0  0  0
    1.1032   12.0318   -2.3980 H   0  0  0  0  0  0  0  0  0  0  0  0
   -1.5651   10.6482   -1.7186 H   0  0  0  0  0  0  0  0  0  0  0  0
   -1.1635   11.5590   -3.2416 H   0  0  0  0  0  0  0  0  0  0  0  0
   -1.0693    9.1073   -3.5643 H   0  0  0  0  0  0  0  0  0  0  0  0
    0.5281    9.9144   -3.8154 H   0  0  0  0  0  0  0  0  0  0  0  0
    0.8732    7.8950   -2.5627 H   0  0  0  0  0  0  0  0  0  0  0  0
   -0.3820    7.3630   -0.8600 H   0  0  0  0  0  0  0  0  0  0  0  0
    3.6334    9.8395   -1.4738 H   0  0  0  0  0  0  0  0  0  0  0  0
    2.9172    8.7857   -2.7401 H   0  0  0  0  0  0  0  0  0  0  0  0
    2.5753   10.5492   -2.7401 H   0  0  0  0  0  0  0  0  0  0  0  0
    1.7623    8.8880    0.8941 H   0  0  0  0  0  0  0  0  0  0  0  0
    1.4184    7.4983   -0.1909 H   0  0  0  0  0  0  0  0  0  0  0  0
    3.0470    8.2562   -0.1909 H   0  0  0  0  0  0  0  0  0  0  0  0
   -1.5876   12.9273    0.5678 H   0  0  0  0  0  0  0  0  0  0  0  0
   -2.2807   13.7455   -0.8733 H   0  0  0  0  0  0  0  0  0  0  0  0
   -2.0568   11.9632   -0.8733 H   0  0  0  0  0  0  0  0  0  0  0  0
   -0.6228   13.5609   -3.2038 H   0  0  0  0  0  0  0  0  0  0  0  0
   -1.0814   14.8631   -1.9674 H   0  0  0  0  0  0  0  0  0  0  0  0
    1.6623   14.2930   -3.1207 H   0  0  0  0  0  0  0  0  0  0  0  0
    0.6254   15.7564   -3.3447 H   0  0  0  0  0  0  0  0  0  0  0  0
    0.5064   16.5371    0.2986 H   0  0  0  0  0  0  0  0  0  0  0  0
    0.6890   17.5971   -1.1401 H   0  0  0  0  0  0  0  0  0  0  0  0
   -0.5396   16.2866   -1.1401 H   0  0  0  0  0  0  0  0  0  0  0  0
  1  2  1  0
  2  3  1  0
  3  4  1  0
  4  5  1  0
  5  6  1  0
  6  7  1  0
  7  8  1  0
  7  9  1  0
  2 10  1  0
 10 11  1  0
 11 12  1  0
 12 13  1  0
 13 14  1  6
 13 15  1  0
 15 16  1  0
 16 17  1  0
 17 18  2  0
 18 19  1  0
 19 20  1  0
 20 21  1  0
 21 22  1  0
 22 23  1  0
 22 24  1  0
 24 25  1  0
 24 26  1  0
 19 27  1  0
 27 28  1  1
 27 29  1  0
 29 30  1  0
 30 31  1  0
 31 32  1  1
  7  5  1  0
 31 10  1  0
 31 13  1  0
 27 15  1  0
 24 18  1  0
  1 33  1  0
  1 34  1  0
  1 35  1  0
  2 36  1  6
  3 37  1  0
  3 38  1  0
  4 39  1  0
  4 40  1  0
  5 41  1  6
  8 42  1  0
  8 43  1  0
  8 44  1  0
  9 45  1  0
  9 46  1  0
  9 47  1  0
 10 48  1  6
 11 49  1  0
 11 50  1  0
 12 51  1  0
 12 52  1  0
 14 53  1  0
 14 54  1  0
 14 55  1  0
 15 56  1  1
 16 57  1  0
 16 58  1  0
 17 59  1  0
 19 60  1  6
 20 61  1  0
 20 62  1  0
 21 63  1  0
 21 64  1  0
 22 65  1  6
 23 66  1  0
 25 67  1  0
 25 68  1  0
 25 69  1  0
 26 70  1  0
 26 71  1  0
 26 72  1  0
 28 73  1  0
 28 74  1  0
 28 75  1  0
 29 76  1  0
 29 77  1  0
 30 78  1  0
 30 79  1  0
 32 80  1  0
 32 81  1  0
 32 82  1  0
M  END
>  <meeko>  (11) 
{"is_sidechain": [false], "intermolecular_energy": 2.731, "internal_energy": -0.839}

$$$$
EPH_relaxed_0001_pdb2pqr_Repair_151_r2_0001_out
     RDKit          3D

 82 86  0  0  0  0  0  0  0  0999 V2000
    0.9990   20.1720   -0.8030 C   0  0  0  0  0  0  0  0  0  0  0  0
    0.5970   19.6540   -2.1870 C   0  0  2  0  0  0  0  0  0  0  0  0
   -0.9320   19.5260   -2.3370 C   0  0  0  0  0  0  0  0  0  0  0  0
   -1.7200   20.1940   -1.2080 C   0  0  0  0  0  0  0  0  0  0  0  0
   -2.4270   19.1860   -0.3530 C   0  0  2  0  0  0  0  0  0  0  0  0
   -2.8570   19.6790    0.9230 O   0  0  0  0  0  0  0  0  0  0  0  0
   -1.8590   18.6460    0.9460 C   0  0  0  0  0  0  0  0  0  0  0  0
   -0.5290   19.0960    1.4630 C   0  0  0  0  0  0  0  0  0  0  0  0
   -2.3640   17.3320    1.4560 C   0  0  0  0  0  0  0  0  0  0  0  0
    1.2620   18.3080   -2.4510 C   0  0  1  0  0  0  0  0  0  0  0  0
    2.8090   18.4070   -2.5120 C   0  0  0  0  0  0  0  0  0  0  0  0
    3.3660   17.0940   -1.9050 C   0  0  0  0  0  0  0  0  0  0  0  0
    2.1410   16.1520   -1.8230 C   0  0  1  0  0  0  0  0  0  0  0  0
    1.9860   15.5700   -3.2630 C   0  0  0  0  0  0  0  0  0  0  0  0
    2.2110   15.0210   -0.7470 C   0  0  2  0  0  0  0  0  0  0  0  0
    3.3460   14.0000   -0.9450 C   0  0  0  0  0  0  0  0  0  0  0  0
    2.9930   12.8070   -1.7700 C   0  0  0  0  0  0  0  0  0  0  0  0
    1.7450   12.4200   -2.0930 C   0  0  0  0  0  0  0  0  0  0  0  0
    0.5220   13.1570   -1.5310 C   0  0  1  0  0  0  0  0  0  0  0  0
   -0.5110   12.1240   -1.0100 C   0  0  0  0  0  0  0  0  0  0  0  0
   -0.8870   11.0890   -2.0670 C   0  0  0  0  0  0  0  0  0  0  0  0
    0.3470   10.3370   -2.5580 C   0  0  2  0  0  0  0  0  0  0  0  0
    0.8630    9.5460   -1.4820 O   0  0  0  0  0  0  0  0  0  0  0  0
    1.4620   11.2760   -3.0970 C   0  0  0  0  0  0  0  0  0  0  0  0
    1.0080   11.9070   -4.4370 C   0  0  0  0  0  0  0  0  0  0  0  0
    2.7030   10.4030   -3.4270 C   0  0  0  0  0  0  0  0  0  0  0  0
    0.8290   14.3010   -0.4720 C   0  0  1  0  0  0  0  0  0  0  0  0
    0.9210   13.6900    0.9600 C   0  0  0  0  0  0  0  0  0  0  0  0
   -0.3770   15.3130   -0.4450 C   0  0  0  0  0  0  0  0  0  0  0  0
   -0.3290   16.4780   -1.4530 C   0  0  0  0  0  0  0  0  0  0  0  0
    1.0290   17.1840   -1.4100 C   0  0  2  0  0  0  0  0  0  0  0  0
    1.2040   17.8000    0.0200 C   0  0  0  0  0  0  0  0  0  0  0  0
    0.5206   19.5556   -0.0276 H   0  0  0  0  0  0  0  0  0  0  0  0
    2.0921   20.1156   -0.6937 H   0  0  0  0  0  0  0  0  0  0  0  0
    0.6730   21.2169   -0.6937 H   0  0  0  0  0  0  0  0  0  0  0  0
    0.9404   20.3897   -2.9291 H   0  0  0  0  0  0  0  0  0  0  0  0
   -1.2275   19.9912   -3.2890 H   0  0  0  0  0  0  0  0  0  0  0  0
   -1.1692   18.4524   -2.3024 H   0  0  0  0  0  0  0  0  0  0  0  0
   -1.0241   20.7691   -0.5795 H   0  0  0  0  0  0  0  0  0  0  0  0
   -2.4774   20.8509   -1.6607 H   0  0  0  0  0  0  0  0  0  0  0  0
   -2.8400   18.6867   -1.2419 H   0  0  0  0  0  0  0  0  0  0  0  0
   -0.5425   19.0914    2.5629 H   0  0  0  0  0  0  0  0  0  0  0  0
    0.2545   18.4129    1.1031 H   0  0  0  0  0  0  0  0  0  0  0  0
   -0.3212   20.1145    1.1031 H   0  0  0  0  0  0  0  0  0  0  0  0
   -2.3609   17.3400    2.5560 H   0  0  0  0  0  0  0  0  0  0  0  0
   -3.3894   17.1675    1.0934 H   0  0  0  0  0  0  0  0  0  0  0  0
   -1.7127   16.5231    1.0934 H   0  0  0  0  0  0  0  0  0  0  0  0
    0.7769   18.0463   -3.4029 H   0  0  0  0  0  0  0  0  0  0  0  0
    3.1409   18.5125   -3.5554 H   0  0  0  0  0  0  0  0  0  0  0  0
    3.1707   19.2839   -1.9550 H   0  0  0  0  0  0  0  0  0  0  0  0
    4.1432   16.6649   -2.5545 H   0  0  0  0  0  0  0  0  0  0  0  0
    3.8356   17.2544   -0.9233 H   0  0  0  0  0  0  0  0  0  0  0  0
    1.7034   14.5087   -3.2011 H   0  0  0  0  0  0  0  0  0  0  0  0
    1.2048   16.1267   -3.8014 H   0  0  0  0  0  0  0  0  0  0  0  0
    2.9406   15.6644   -3.8014 H   0  0  0  0  0  0  0  0  0  0  0  0
    2.4674   15.5801    0.1650 H   0  0  0  0  0  0  0  0  0  0  0  0
    4.1855   14.5155   -1.4344 H   0  0  0  0  0  0  0  0  0  0  0  0
    3.5888   13.6164    0.0569 H   0  0  0  0  0  0  0  0  0  0  0  0
    3.8237   12.1917   -2.1460 H   0  0  0  0  0  0  0  0  0  0  0  0
    0.0932   13.7209   -2.3725 H   0  0  0  0  0  0  0  0  0  0  0  0
   -0.0810   11.6020   -0.1424 H   0  0  0  0  0  0  0  0  0  0  0  0
   -1.4252   12.6728   -0.7396 H   0  0  0  0  0  0  0  0  0  0  0  0
   -1.5964   10.3704   -1.6307 H   0  0  0  0  0  0  0  0  0  0  0  0
   -1.3435   11.6100   -2.9215 H   0  0  0  0  0  0  0  0  0  0  0  0
    0.0342    9.7046   -3.4019 H   0  0  0  0  0  0  0  0  0  0  0  0
    0.1050    9.1990   -0.9820 H   0  0  0  0  0  0  0  0  0  0  0  0
    0.3766   12.7845   -4.2338 H   0  0  0  0  0  0  0  0  0  0  0  0
    1.8916   12.2168   -5.0144 H   0  0  0  0  0  0  0  0  0  0  0  0
    0.4335   11.1677   -5.0144 H   0  0  0  0  0  0  0  0  0  0  0  0
    3.1763   10.0700   -2.4915 H   0  0  0  0  0  0  0  0  0  0  0  0
    2.3892    9.5257   -4.0116 H   0  0  0  0  0  0  0  0  0  0  0  0
    3.4227   10.9948   -4.0116 H   0  0  0  0  0  0  0  0  0  0  0  0
    0.8008   14.4880    1.7075 H   0  0  0  0  0  0  0  0  0  0  0  0
    0.1254   12.9418    1.0912 H   0  0  0  0  0  0  0  0  0  0  0  0
    1.9017   13.2093    1.0912 H   0  0  0  0  0  0  0  0  0  0  0  0
   -1.2959   14.7410   -0.6410 H   0  0  0  0  0  0  0  0  0  0  0  0
   -0.3323   15.7879    0.5462 H   0  0  0  0  0  0  0  0  0  0  0  0
   -0.4981   16.0845   -2.4662 H   0  0  0  0  0  0  0  0  0  0  0  0
   -1.1108   17.2046   -1.1869 H   0  0  0  0  0  0  0  0  0  0  0  0
    0.9863   17.0337    0.7785 H   0  0  0  0  0  0  0  0  0  0  0  0
    2.2382   18.1540    0.1427 H   0  0  0  0  0  0  0  0  0  0  0  0
    0.5103   18.6448    0.1427 H   0  0  0  0  0  0  0  0  0  0  0  0
  1  2  1  0
  2  3  1  0
  3  4  1  0
  4  5  1  0
  5  6  1  0
  6  7  1  0
  7  8  1  0
  7  9  1  0
  2 10  1  0
 10 11  1  0
 11 12  1  0
 12 13  1  0
 13 14  1  6
 13 15  1  0
 15 16  1  0
 16 17  1  0
 17 18  2  0
 18 19  1  0
 19 20  1  0
 20 21  1  0
 21 22  1  0
 22 23  1  0
 22 24  1  0
 24 25  1  0
 24 26  1  0
 19 27  1  0
 27 28  1  1
 27 29  1  0
 29 30  1  0
 30 31  1  0
 31 32  1  1
  7  5  1  0
 31 10  1  0
 31 13  1  0
 27 15  1  0
 24 18  1  0
  1 33  1  0
  1 34  1  0
  1 35  1  0
  2 36  1  6
  3 37  1  0
  3 38  1  0
  4 39  1  0
  4 40  1  0
  5 41  1  6
  8 42  1  0
  8 43  1  0
  8 44  1  0
  9 45  1  0
  9 46  1  0
  9 47  1  0
 10 48  1  6
 11 49  1  0
 11 50  1  0
 12 51  1  0
 12 52  1  0
 14 53  1  0
 14 54  1  0
 14 55  1  0
 15 56  1  1
 16 57  1  0
 16 58  1  0
 17 59  1  0
 19 60  1  6
 20 61  1  0
 20 62  1  0
 21 63  1  0
 21 64  1  0
 22 65  1  6
 23 66  1  0
 25 67  1  0
 25 68  1  0
 25 69  1  0
 26 70  1  0
 26 71  1  0
 26 72  1  0
 28 73  1  0
 28 74  1  0
 28 75  1  0
 29 76  1  0
 29 77  1  0
 30 78  1  0
 30 79  1  0
 32 80  1  0
 32 81  1  0
 32 82  1  0
M  END
>  <meeko>  (12) 
{"is_sidechain": [false], "intermolecular_energy": 2.731, "internal_energy": -0.839}

$$$$
EPH_relaxed_0001_pdb2pqr_Repair_151_r2_0001_out
     RDKit          3D

 82 86  0  0  0  0  0  0  0  0999 V2000
    0.9620   14.9510   -2.6510 C   0  0  0  0  0  0  0  0  0  0  0  0
    1.2010   14.2790   -4.0060 C   0  0  2  0  0  0  0  0  0  0  0  0
    0.4740   15.0090   -5.1530 C   0  0  0  0  0  0  0  0  0  0  0  0
    1.0100   14.6570   -6.5430 C   0  0  0  0  0  0  0  0  0  0  0  0
    0.7760   15.7660   -7.5240 C   0  0  2  0  0  0  0  0  0  0  0  0
    0.3610   15.3350   -8.8270 O   0  0  0  0  0  0  0  0  0  0  0  0
    1.6370   15.9910   -8.7530 C   0  0  0  0  0  0  0  0  0  0  0  0
    2.7980   15.1000   -9.0670 C   0  0  0  0  0  0  0  0  0  0  0  0
    1.6520   17.3520   -9.3770 C   0  0  0  0  0  0  0  0  0  0  0  0
    0.7540   12.8230   -3.9490 C   0  0  1  0  0  0  0  0  0  0  0  0
    1.8860   11.8350   -4.3390 C   0  0  0  0  0  0  0  0  0  0  0  0
    1.6950   10.5690   -3.4650 C   0  0  0  0  0  0  0  0  0  0  0  0
    0.2850   10.7290   -2.8490 C   0  0  1  0  0  0  0  0  0  0  0  0
   -0.6960   10.2580   -3.9670 C   0  0  0  0  0  0  0  0  0  0  0  0
    0.0300    9.9760   -1.5020 C   0  0  2  0  0  0  0  0  0  0  0  0
    0.1380    8.4430   -1.5810 C   0  0  0  0  0  0  0  0  0  0  0  0
   -1.1350    7.7300   -1.8960 C   0  0  0  0  0  0  0  0  0  0  0  0
   -2.3690    8.2640   -1.8280 C   0  0  0  0  0  0  0  0  0  0  0  0
   -2.5820    9.6910   -1.3050 C   0  0  1  0  0  0  0  0  0  0  0  0
   -3.7550    9.7010   -0.2910 C   0  0  0  0  0  0  0  0  0  0  0  0
   -5.0310    9.0940   -0.8660 C   0  0  0  0  0  0  0  0  0  0  0  0
   -4.7940    7.6560   -1.3210 C   0  0  2  0  0  0  0  0  0  0  0  0
   -4.5270    6.8470   -0.1720 O   0  0  0  0  0  0  0  0  0  0  0  0
   -3.6270    7.5200   -2.3390 C   0  0  0  0  0  0  0  0  0  0  0  0
   -4.0430    8.1430   -3.6940 C   0  0  0  0  0  0  0  0  0  0  0  0
   -3.4020    6.0070   -2.6070 C   0  0  0  0  0  0  0  0  0  0  0  0
   -1.2870   10.4250   -0.7490 C   0  0  1  0  0  0  0  0  0  0  0  0
   -1.0810   10.0720    0.7560 C   0  0  0  0  0  0  0  0  0  0  0  0
   -1.5120   11.9820   -0.8130 C   0  0  0  0  0  0  0  0  0  0  0  0
   -1.1280   12.6860   -2.1290 C   0  0  0  0  0  0  0  0  0  0  0  0
    0.2770   12.2770   -2.5800 C   0  0  2  0  0  0  0  0  0  0  0  0
    1.2890   12.7580   -1.4840 C   0  0  0  0  0  0  0  0  0  0  0  0
    1.2123   14.2473   -1.8435 H   0  0  0  0  0  0  0  0  0  0  0  0
    1.5972   15.8452   -2.5681 H   0  0  0  0  0  0  0  0  0  0  0  0
   -0.0952   15.2433   -2.5681 H   0  0  0  0  0  0  0  0  0  0  0  0
    2.2798   14.3293   -4.2149 H   0  0  0  0  0  0  0  0  0  0  0  0
   -0.5924   14.7420   -5.1140 H   0  0  0  0  0  0  0  0  0  0  0  0
    0.6422   16.0862   -5.0066 H   0  0  0  0  0  0  0  0  0  0  0  0
    2.0911   14.4670   -6.4707 H   0  0  0  0  0  0  0  0  0  0  0  0
    0.4762   13.7642   -6.9007 H   0  0  0  0  0  0  0  0  0  0  0  0
    0.4478   16.4405   -6.7194 H   0  0  0  0  0  0  0  0  0  0  0  0
    3.2550   14.7493   -8.1299 H   0  0  0  0  0  0  0  0  0  0  0  0
    2.4493   14.2355   -9.6509 H   0  0  0  0  0  0  0  0  0  0  0  0
    3.5429   15.6605   -9.6509 H   0  0  0  0  0  0  0  0  0  0  0  0
    1.6604   18.1175   -8.5871 H   0  0  0  0  0  0  0  0  0  0  0  0
    2.5514   17.4593  -10.0012 H   0  0  0  0  0  0  0  0  0  0  0  0
    0.7552   17.4791  -10.0012 H   0  0  0  0  0  0  0  0  0  0  0  0
   -0.0907   12.8628   -4.6525 H   0  0  0  0  0  0  0  0  0  0  0  0
    1.8107   11.5743   -5.4050 H   0  0  0  0  0  0  0  0  0  0  0  0
    2.8765   12.2837   -4.1733 H   0  0  0  0  0  0  0  0  0  0  0  0
    1.7484    9.6597   -4.0817 H   0  0  0  0  0  0  0  0  0  0  0  0
    2.4767   10.4702   -2.6975 H   0  0  0  0  0  0  0  0  0  0  0  0
   -1.5965    9.8256   -3.5064 H   0  0  0  0  0  0  0  0  0  0  0  0
   -0.9803   11.1178   -4.5914 H   0  0  0  0  0  0  0  0  0  0  0  0
   -0.2028    9.4985   -4.5914 H   0  0  0  0  0  0  0  0  0  0  0  0
    0.8788   10.3032   -0.8836 H   0  0  0  0  0  0  0  0  0  0  0  0
    0.8699    8.1936   -2.3634 H   0  0  0  0  0  0  0  0  0  0  0  0
    0.4351    8.1065   -0.5767 H   0  0  0  0  0  0  0  0  0  0  0  0
   -1.0583    6.6787   -2.2105 H   0  0  0  0  0  0  0  0  0  0  0  0
   -2.8429   10.3014   -2.1821 H   0  0  0  0  0  0  0  0  0  0  0  0
   -3.4586    9.1230    0.5967 H   0  0  0  0  0  0  0  0  0  0  0  0
   -3.9689   10.7500   -0.0384 H   0  0  0  0  0  0  0  0  0  0  0  0
   -5.8138    9.1027   -0.0933 H   0  0  0  0  0  0  0  0  0  0  0  0
   -5.3427    9.6907   -1.7359 H   0  0  0  0  0  0  0  0  0  0  0  0
   -5.7037    7.3201   -1.8403 H   0  0  0  0  0  0  0  0  0  0  0  0
   -3.7410    6.3080   -0.3670 H   0  0  0  0  0  0  0  0  0  0  0  0
   -4.6455    9.0453   -3.5131 H   0  0  0  0  0  0  0  0  0  0  0  0
   -3.1426    8.4119   -4.2658 H   0  0  0  0  0  0  0  0  0  0  0  0
   -4.6364    7.4144   -4.2658 H   0  0  0  0  0  0  0  0  0  0  0  0
   -3.3225    5.4727   -1.6487 H   0  0  0  0  0  0  0  0  0  0  0  0
   -4.2504    5.6062   -3.1810 H   0  0  0  0  0  0  0  0  0  0  0  0
   -2.4737    5.8704   -3.1810 H   0  0  0  0  0  0  0  0  0  0  0  0
   -1.5370   10.8534    1.3816 H   0  0  0  0  0  0  0  0  0  0  0  0
   -1.5561    9.1041    0.9740 H   0  0  0  0  0  0  0  0  0  0  0  0
   -0.0046   10.0095    0.9740 H   0  0  0  0  0  0  0  0  0  0  0  0
   -2.5806   12.1715   -0.6338 H   0  0  0  0  0  0  0  0  0  0  0  0
   -0.8357   12.4020   -0.0539 H   0  0  0  0  0  0  0  0  0  0  0  0
   -1.8515   12.4086   -2.9098 H   0  0  0  0  0  0  0  0  0  0  0  0
   -1.1399   13.7731   -1.9615 H   0  0  0  0  0  0  0  0  0  0  0  0
    0.8708   12.5592   -0.4862 H   0  0  0  0  0  0  0  0  0  0  0  0
    2.2388   12.2150   -1.5983 H   0  0  0  0  0  0  0  0  0  0  0  0
    1.4677   13.8374   -1.5983 H   0  0  0  0  0  0  0  0  0  0  0  0
  1  2  1  0
  2  3  1  0
  3  4  1  0
  4  5  1  0
  5  6  1  0
  6  7  1  0
  7  8  1  0
  7  9  1  0
  2 10  1  0
 10 11  1  0
 11 12  1  0
 12 13  1  0
 13 14  1  6
 13 15  1  0
 15 16  1  0
 16 17  1  0
 17 18  2  0
 18 19  1  0
 19 20  1  0
 20 21  1  0
 21 22  1  0
 22 23  1  0
 22 24  1  0
 24 25  1  0
 24 26  1  0
 19 27  1  0
 27 28  1  1
 27 29  1  0
 29 30  1  0
 30 31  1  0
 31 32  1  1
  7  5  1  0
 31 10  1  0
 31 13  1  0
 27 15  1  0
 24 18  1  0
  1 33  1  0
  1 34  1  0
  1 35  1  0
  2 36  1  6
  3 37  1  0
  3 38  1  0
  4 39  1  0
  4 40  1  0
  5 41  1  1
  8 42  1  0
  8 43  1  0
  8 44  1  0
  9 45  1  0
  9 46  1  0
  9 47  1  0
 10 48  1  6
 11 49  1  0
 11 50  1  0
 12 51  1  0
 12 52  1  0
 14 53  1  0
 14 54  1  0
 14 55  1  0
 15 56  1  1
 16 57  1  0
 16 58  1  0
 17 59  1  0
 19 60  1  6
 20 61  1  0
 20 62  1  0
 21 63  1  0
 21 64  1  0
 22 65  1  6
 23 66  1  0
 25 67  1  0
 25 68  1  0
 25 69  1  0
 26 70  1  0
 26 71  1  0
 26 72  1  0
 28 73  1  0
 28 74  1  0
 28 75  1  0
 29 76  1  0
 29 77  1  0
 30 78  1  0
 30 79  1  0
 32 80  1  0
 32 81  1  0
 32 82  1  0
M  END
>  <meeko>  (13) 
{"is_sidechain": [false], "intermolecular_energy": 2.731, "internal_energy": -0.839}

$$$$
EPH_relaxed_0001_pdb2pqr_Repair_151_r2_0001_out
     RDKit          3D

 82 86  0  0  0  0  0  0  0  0999 V2000
    2.5490   16.3790   -7.4320 C   0  0  0  0  0  0  0  0  0  0  0  0
    1.4390   15.3340   -7.2900 C   0  0  2  0  0  0  0  0  0  0  0  0
    0.1870   15.7010   -8.1110 C   0  0  0  0  0  0  0  0  0  0  0  0
    0.5040   16.3570   -9.4580 C   0  0  0  0  0  0  0  0  0  0  0  0
    1.8890   16.0220   -9.9240 C   0  0  2  0  0  0  0  0  0  0  0  0
    2.2510   16.5990  -11.1860 O   0  0  0  0  0  0  0  0  0  0  0  0
    2.1770   15.1650  -11.1430 C   0  0  0  0  0  0  0  0  0  0  0  0
    1.0710   14.5880  -11.9700 C   0  0  0  0  0  0  0  0  0  0  0  0
    3.5090   14.4890  -11.2430 C   0  0  0  0  0  0  0  0  0  0  0  0
    1.0680   15.1670   -5.8210 C   0  0  1  0  0  0  0  0  0  0  0  0
   -0.2410   15.9120   -5.4470 C   0  0  0  0  0  0  0  0  0  0  0  0
   -0.9590   15.0460   -4.3800 C   0  0  0  0  0  0  0  0  0  0  0  0
    0.1040   14.0140   -3.9350 C   0  0  1  0  0  0  0  0  0  0  0  0
    0.9930   14.7750   -2.9020 C   0  0  0  0  0  0  0  0  0  0  0  0
   -0.4400   12.6700   -3.3500 C   0  0  2  0  0  0  0  0  0  0  0  0
   -1.2660   12.8070   -2.0590 C   0  0  0  0  0  0  0  0  0  0  0  0
   -0.4850   12.7180   -0.7900 C   0  0  0  0  0  0  0  0  0  0  0  0
    0.7740   12.2550   -0.6760 C   0  0  0  0  0  0  0  0  0  0  0  0
    1.5080   11.6650   -1.8880 C   0  0  1  0  0  0  0  0  0  0  0  0
    2.1900   10.3320   -1.4810 C   0  0  0  0  0  0  0  0  0  0  0  0
    3.0990   10.4870   -0.2660 C   0  0  0  0  0  0  0  0  0  0  0  0
    2.3200   11.0210    0.9340 C   0  0  2  0  0  0  0  0  0  0  0  0
    1.3750   10.0290    1.3470 O   0  0  0  0  0  0  0  0  0  0  0  0
    1.5820   12.3570    0.6400 C   0  0  0  0  0  0  0  0  0  0  0  0
    2.6160   13.5000    0.4890 C   0  0  0  0  0  0  0  0  0  0  0  0
    0.7230   12.7110    1.8840 C   0  0  0  0  0  0  0  0  0  0  0  0
    0.6520   11.5310   -3.2200 C   0  0  1  0  0  0  0  0  0  0  0  0
   -0.1180   10.1750   -3.2240 C   0  0  0  0  0  0  0  0  0  0  0  0
    1.6260   11.4920   -4.4560 C   0  0  0  0  0  0  0  0  0  0  0  0
    2.0320   12.8490   -5.0630 C   0  0  0  0  0  0  0  0  0  0  0  0
    0.8030   13.7270   -5.3140 C   0  0  2  0  0  0  0  0  0  0  0  0
   -0.1000   12.9980   -6.3670 C   0  0  0  0  0  0  0  0  0  0  0  0
    2.8848   16.6952   -6.4334 H   0  0  0  0  0  0  0  0  0  0  0  0
    3.3955   15.9423   -7.9823 H   0  0  0  0  0  0  0  0  0  0  0  0
    2.1642   17.2502   -7.9823 H   0  0  0  0  0  0  0  0  0  0  0  0
    1.8263   14.3838   -7.6864 H   0  0  0  0  0  0  0  0  0  0  0  0
   -0.3866   14.7815   -8.2991 H   0  0  0  0  0  0  0  0  0  0  0  0
   -0.3798   16.4363   -7.5211 H   0  0  0  0  0  0  0  0  0  0  0  0
   -0.2198   16.0024  -10.2066 H   0  0  0  0  0  0  0  0  0  0  0  0
    0.4381   17.4479   -9.3328 H   0  0  0  0  0  0  0  0  0  0  0  0
    2.2529   15.9758   -8.8870 H   0  0  0  0  0  0  0  0  0  0  0  0
    0.2920   14.1816  -11.3082 H   0  0  0  0  0  0  0  0  0  0  0  0
    0.6387   15.3755  -12.6048 H   0  0  0  0  0  0  0  0  0  0  0  0
    1.4695   13.7829  -12.6048 H   0  0  0  0  0  0  0  0  0  0  0  0
    3.8970   14.2921  -10.2327 H   0  0  0  0  0  0  0  0  0  0  0  0
    3.3979   13.5382  -11.7849 H   0  0  0  0  0  0  0  0  0  0  0  0
    4.2108   15.1400  -11.7849 H   0  0  0  0  0  0  0  0  0  0  0  0
    1.9792   15.5685   -5.3536 H   0  0  0  0  0  0  0  0  0  0  0  0
   -0.0074   16.9047   -5.0346 H   0  0  0  0  0  0  0  0  0  0  0  0
   -0.8787   16.0585   -6.3313 H   0  0  0  0  0  0  0  0  0  0  0  0
   -1.2794   15.6650   -3.5290 H   0  0  0  0  0  0  0  0  0  0  0  0
   -1.8668   14.5661   -4.7744 H   0  0  0  0  0  0  0  0  0  0  0  0
    0.6804   14.5074   -1.8818 H   0  0  0  0  0  0  0  0  0  0  0  0
    2.0466   14.4946   -3.0481 H   0  0  0  0  0  0  0  0  0  0  0  0
    0.8785   15.8592   -3.0481 H   0  0  0  0  0  0  0  0  0  0  0  0
   -1.1498   12.3451   -4.1251 H   0  0  0  0  0  0  0  0  0  0  0  0
   -1.7700   13.7845   -2.0801 H   0  0  0  0  0  0  0  0  0  0  0  0
   -1.9600   11.9536   -2.0497 H   0  0  0  0  0  0  0  0  0  0  0  0
   -0.9805   13.0599    0.1306 H   0  0  0  0  0  0  0  0  0  0  0  0
    2.2718   12.4044   -2.1707 H   0  0  0  0  0  0  0  0  0  0  0  0
    1.4091    9.5940   -1.2452 H   0  0  0  0  0  0  0  0  0  0  0  0
    2.8144   10.0050   -2.3255 H   0  0  0  0  0  0  0  0  0  0  0  0
    3.5276    9.5069   -0.0097 H   0  0  0  0  0  0  0  0  0  0  0  0
    3.8967   11.2029   -0.5134 H   0  0  0  0  0  0  0  0  0  0  0  0
    3.0466   11.2342    1.7318 H   0  0  0  0  0  0  0  0  0  0  0  0
    0.7530    9.8910    0.6120 H   0  0  0  0  0  0  0  0  0  0  0  0
    2.9286   13.8456    1.4854 H   0  0  0  0  0  0  0  0  0  0  0  0
    3.4929   13.1306   -0.0628 H   0  0  0  0  0  0  0  0  0  0  0  0
    2.1608   14.3357   -0.0628 H   0  0  0  0  0  0  0  0  0  0  0  0
    1.2884   12.4780    2.7984 H   0  0  0  0  0  0  0  0  0  0  0  0
    0.4782   13.7833    1.8675 H   0  0  0  0  0  0  0  0  0  0  0  0
   -0.2062   12.1225    1.8675 H   0  0  0  0  0  0  0  0  0  0  0  0
   -0.3004    9.8538   -2.1879 H   0  0  0  0  0  0  0  0  0  0  0  0
   -1.0794   10.3008   -3.7435 H   0  0  0  0  0  0  0  0  0  0  0  0
    0.4826    9.4138   -3.7435 H   0  0  0  0  0  0  0  0  0  0  0  0
    2.5466   10.9806   -4.1383 H   0  0  0  0  0  0  0  0  0  0  0  0
    1.0639   10.9780   -5.2496 H   0  0  0  0  0  0  0  0  0  0  0  0
    2.7080   13.3668   -4.3667 H   0  0  0  0  0  0  0  0  0  0  0  0
    2.5350   12.6668   -6.0242 H   0  0  0  0  0  0  0  0  0  0  0  0
   -0.8535   12.3897   -5.8453 H   0  0  0  0  0  0  0  0  0  0  0  0
   -0.6043   13.7451   -6.9974 H   0  0  0  0  0  0  0  0  0  0  0  0
    0.5240   12.3475   -6.9974 H   0  0  0  0  0  0  0  0  0  0  0  0
  1  2  1  0
  2  3  1  0
  3  4  1  0
  4  5  1  0
  5  6  1  0
  6  7  1  0
  7  8  1  0
  7  9  1  0
  2 10  1  0
 10 11  1  0
 11 12  1  0
 12 13  1  0
 13 14  1  1
 13 15  1  0
 15 16  1  0
 16 17  1  0
 17 18  2  0
 18 19  1  0
 19 20  1  0
 20 21  1  0
 21 22  1  0
 22 23  1  0
 22 24  1  0
 24 25  1  0
 24 26  1  0
 19 27  1  0
 27 28  1  1
 27 29  1  0
 29 30  1  0
 30 31  1  0
 31 32  1  6
  7  5  1  0
 31 10  1  0
 31 13  1  0
 27 15  1  0
 24 18  1  0
  1 33  1  0
  1 34  1  0
  1 35  1  0
  2 36  1  6
  3 37  1  0
  3 38  1  0
  4 39  1  0
  4 40  1  0
  5 41  1  1
  8 42  1  0
  8 43  1  0
  8 44  1  0
  9 45  1  0
  9 46  1  0
  9 47  1  0
 10 48  1  1
 11 49  1  0
 11 50  1  0
 12 51  1  0
 12 52  1  0
 14 53  1  0
 14 54  1  0
 14 55  1  0
 15 56  1  6
 16 57  1  0
 16 58  1  0
 17 59  1  0
 19 60  1  6
 20 61  1  0
 20 62  1  0
 21 63  1  0
 21 64  1  0
 22 65  1  1
 23 66  1  0
 25 67  1  0
 25 68  1  0
 25 69  1  0
 26 70  1  0
 26 71  1  0
 26 72  1  0
 28 73  1  0
 28 74  1  0
 28 75  1  0
 29 76  1  0
 29 77  1  0
 30 78  1  0
 30 79  1  0
 32 80  1  0
 32 81  1  0
 32 82  1  0
M  END
>  <meeko>  (14) 
{"is_sidechain": [false], "intermolecular_energy": 2.731, "internal_energy": -0.839}

$$$$
EPH_relaxed_0001_pdb2pqr_Repair_151_r2_0001_out
     RDKit          3D

 82 86  0  0  0  0  0  0  0  0999 V2000
    0.7360    8.1040   -2.3770 C   0  0  0  0  0  0  0  0  0  0  0  0
   -0.6940    8.4580   -1.9610 C   0  0  2  0  0  0  0  0  0  0  0  0
   -1.7430    7.8620   -2.9210 C   0  0  0  0  0  0  0  0  0  0  0  0
   -3.0320    7.4160   -2.2240 C   0  0  0  0  0  0  0  0  0  0  0  0
   -4.1380    7.1760   -3.2060 C   0  0  2  0  0  0  0  0  0  0  0  0
   -5.4500    7.4820   -2.7170 O   0  0  0  0  0  0  0  0  0  0  0  0
   -5.1960    6.1030   -3.0290 C   0  0  0  0  0  0  0  0  0  0  0  0
   -5.1980    5.1990   -1.8370 C   0  0  0  0  0  0  0  0  0  0  0  0
   -5.9290    5.6140   -4.2390 C   0  0  0  0  0  0  0  0  0  0  0  0
   -0.8550    9.9720   -1.8890 C   0  0  1  0  0  0  0  0  0  0  0  0
   -2.3160   10.4040   -1.5930 C   0  0  0  0  0  0  0  0  0  0  0  0
   -2.2360   11.6780   -0.7120 C   0  0  0  0  0  0  0  0  0  0  0  0
   -0.7580   12.1240   -0.8050 C   0  0  1  0  0  0  0  0  0  0  0  0
   -0.6590   12.9000   -2.1560 C   0  0  0  0  0  0  0  0  0  0  0  0
   -0.2170   12.9740    0.3900 C   0  0  2  0  0  0  0  0  0  0  0  0
   -0.9150   14.3300    0.5960 C   0  0  0  0  0  0  0  0  0  0  0  0
   -0.3030   15.4800   -0.1340 C   0  0  0  0  0  0  0  0  0  0  0  0
    0.9220   15.4890   -0.6920 C   0  0  0  0  0  0  0  0  0  0  0  0
    1.8690   14.2930   -0.5340 C   0  0  1  0  0  0  0  0  0  0  0  0
    3.2840   14.7990   -0.1480 C   0  0  0  0  0  0  0  0  0  0  0  0
    3.8180   15.8420   -1.1250 C   0  0  0  0  0  0  0  0  0  0  0  0
    2.8790   17.0420   -1.2110 C   0  0  2  0  0  0  0  0  0  0  0  0
    2.8880   17.7250    0.0460 O   0  0  0  0  0  0  0  0  0  0  0  0
    1.4210   16.6530   -1.5840 C   0  0  0  0  0  0  0  0  0  0  0  0
    1.3670   16.1910   -3.0610 C   0  0  0  0  0  0  0  0  0  0  0  0
    0.5480   17.9340   -1.4980 C   0  0  0  0  0  0  0  0  0  0  0  0
    1.3590   13.1260    0.4160 C   0  0  1  0  0  0  0  0  0  0  0  0
    1.7520   13.4320    1.8940 C   0  0  0  0  0  0  0  0  0  0  0  0
    2.0940   11.7890    0.0290 C   0  0  0  0  0  0  0  0  0  0  0  0
    1.4450   10.9330   -1.0760 C   0  0  0  0  0  0  0  0  0  0  0  0
   -0.0470   10.7230   -0.8010 C   0  0  2  0  0  0  0  0  0  0  0  0
   -0.1780    9.9250    0.5410 C   0  0  0  0  0  0  0  0  0  0  0  0
    1.3521    7.9515   -1.4786 H   0  0  0  0  0  0  0  0  0  0  0  0
    0.7259    7.1812   -2.9757 H   0  0  0  0  0  0  0  0  0  0  0  0
    1.1576    8.9249   -2.9757 H   0  0  0  0  0  0  0  0  0  0  0  0
   -0.8677    8.0179   -0.9680 H   0  0  0  0  0  0  0  0  0  0  0  0
   -1.9998    8.6242   -3.6715 H   0  0  0  0  0  0  0  0  0  0  0  0
   -1.2938    6.9645   -3.3712 H   0  0  0  0  0  0  0  0  0  0  0  0
   -2.8356    6.4842   -1.6734 H   0  0  0  0  0  0  0  0  0  0  0  0
   -3.3478    8.2182   -1.5408 H   0  0  0  0  0  0  0  0  0  0  0  0
   -3.4765    7.4282   -4.0479 H   0  0  0  0  0  0  0  0  0  0  0  0
   -5.1967    5.8038   -0.9182 H   0  0  0  0  0  0  0  0  0  0  0  0
   -6.0975    4.5663   -1.8582 H   0  0  0  0  0  0  0  0  0  0  0  0
   -4.3013    4.5623   -1.8582 H   0  0  0  0  0  0  0  0  0  0  0  0
   -6.8060    5.0290   -3.9249 H   0  0  0  0  0  0  0  0  0  0  0  0
   -6.2583    6.4740   -4.8407 H   0  0  0  0  0  0  0  0  0  0  0  0
   -5.2614    4.9797   -4.8407 H   0  0  0  0  0  0  0  0  0  0  0  0
   -0.4838   10.2440   -2.8881 H   0  0  0  0  0  0  0  0  0  0  0  0
   -2.8432   10.6257   -2.5326 H   0  0  0  0  0  0  0  0  0  0  0  0
   -2.8685    9.6030   -1.0800 H   0  0  0  0  0  0  0  0  0  0  0  0
   -2.9033   12.4614   -1.1006 H   0  0  0  0  0  0  0  0  0  0  0  0
   -2.5503   11.4887    0.3250 H   0  0  0  0  0  0  0  0  0  0  0  0
   -0.5222   13.9725   -1.9536 H   0  0  0  0  0  0  0  0  0  0  0  0
    0.1984   12.5235   -2.7332 H   0  0  0  0  0  0  0  0  0  0  0  0
   -1.5835   12.7508   -2.7332 H   0  0  0  0  0  0  0  0  0  0  0  0
   -0.4940   12.3603    1.2599 H   0  0  0  0  0  0  0  0  0  0  0  0
   -1.9576   14.2301    0.2598 H   0  0  0  0  0  0  0  0  0  0  0  0
   -0.8176   14.5628    1.6667 H   0  0  0  0  0  0  0  0  0  0  0  0
   -0.9039   16.3971   -0.2233 H   0  0  0  0  0  0  0  0  0  0  0  0
    1.9040   13.8017   -1.5176 H   0  0  0  0  0  0  0  0  0  0  0  0
    3.2368   15.2471    0.8555 H   0  0  0  0  0  0  0  0  0  0  0  0
    3.9661   13.9364   -0.1740 H   0  0  0  0  0  0  0  0  0  0  0  0
    4.8065   16.1825   -0.7830 H   0  0  0  0  0  0  0  0  0  0  0  0
    3.8923   15.3829   -2.1219 H   0  0  0  0  0  0  0  0  0  0  0  0
    3.2467   17.6918   -2.0188 H   0  0  0  0  0  0  0  0  0  0  0  0
    3.0910   18.6600   -0.1280 H   0  0  0  0  0  0  0  0  0  0  0  0
    1.2394   15.0991   -3.0992 H   0  0  0  0  0  0  0  0  0  0  0  0
    0.5196   16.6771   -3.5665 H   0  0  0  0  0  0  0  0  0  0  0  0
    2.3037   16.4686   -3.5665 H   0  0  0  0  0  0  0  0  0  0  0  0
    0.3742   18.1891   -0.4422 H   0  0  0  0  0  0  0  0  0  0  0  0
    1.0678   18.7661   -1.9954 H   0  0  0  0  0  0  0  0  0  0  0  0
   -0.4165   17.7545   -1.9954 H   0  0  0  0  0  0  0  0  0  0  0  0
    1.0689   12.9002    2.5727 H   0  0  0  0  0  0  0  0  0  0  0  0
    2.7839   13.0972    2.0759 H   0  0  0  0  0  0  0  0  0  0  0  0
    1.6803   14.5145    2.0759 H   0  0  0  0  0  0  0  0  0  0  0  0
    3.1081   12.0520   -0.3065 H   0  0  0  0  0  0  0  0  0  0  0  0
    2.0546   11.1666    0.9352 H   0  0  0  0  0  0  0  0  0  0  0  0
    1.5644   11.4431   -2.0432 H   0  0  0  0  0  0  0  0  0  0  0  0
    1.9399    9.9508   -1.0952 H   0  0  0  0  0  0  0  0  0  0  0  0
   -0.0648   10.6148    1.3903 H   0  0  0  0  0  0  0  0  0  0  0  0
   -1.1669    9.4455    0.5874 H   0  0  0  0  0  0  0  0  0  0  0  0
    0.6057    9.1545    0.5874 H   0  0  0  0  0  0  0  0  0  0  0  0
  1  2  1  0
  2  3  1  0
  3  4  1  0
  4  5  1  0
  5  6  1  0
  6  7  1  0
  7  8  1  0
  7  9  1  0
  2 10  1  0
 10 11  1  0
 11 12  1  0
 12 13  1  0
 13 14  1  6
 13 15  1  0
 15 16  1  0
 16 17  1  0
 17 18  2  0
 18 19  1  0
 19 20  1  0
 20 21  1  0
 21 22  1  0
 22 23  1  0
 22 24  1  0
 24 25  1  0
 24 26  1  0
 19 27  1  0
 27 28  1  1
 27 29  1  0
 29 30  1  0
 30 31  1  0
 31 32  1  1
  7  5  1  0
 31 10  1  0
 31 13  1  0
 27 15  1  0
 24 18  1  0
  1 33  1  0
  1 34  1  0
  1 35  1  0
  2 36  1  1
  3 37  1  0
  3 38  1  0
  4 39  1  0
  4 40  1  0
  5 41  1  6
  8 42  1  0
  8 43  1  0
  8 44  1  0
  9 45  1  0
  9 46  1  0
  9 47  1  0
 10 48  1  6
 11 49  1  0
 11 50  1  0
 12 51  1  0
 12 52  1  0
 14 53  1  0
 14 54  1  0
 14 55  1  0
 15 56  1  1
 16 57  1  0
 16 58  1  0
 17 59  1  0
 19 60  1  6
 20 61  1  0
 20 62  1  0
 21 63  1  0
 21 64  1  0
 22 65  1  6
 23 66  1  0
 25 67  1  0
 25 68  1  0
 25 69  1  0
 26 70  1  0
 26 71  1  0
 26 72  1  0
 28 73  1  0
 28 74  1  0
 28 75  1  0
 29 76  1  0
 29 77  1  0
 30 78  1  0
 30 79  1  0
 32 80  1  0
 32 81  1  0
 32 82  1  0
M  END
>  <meeko>  (15) 
{"is_sidechain": [false], "intermolecular_energy": 2.731, "internal_energy": -0.839}

$$$$
EPH_relaxed_0001_pdb2pqr_Repair_151_r2_0001_out
     RDKit          3D

 82 86  0  0  0  0  0  0  0  0999 V2000
    1.9570   18.4880   -2.1730 C   0  0  0  0  0  0  0  0  0  0  0  0
    2.3330   17.2890   -3.0480 C   0  0  2  0  0  0  0  0  0  0  0  0
    1.3440   17.0870   -4.2130 C   0  0  0  0  0  0  0  0  0  0  0  0
    1.8160   16.0640   -5.2510 C   0  0  0  0  0  0  0  0  0  0  0  0
    0.7490   15.7660   -6.2600 C   0  0  2  0  0  0  0  0  0  0  0  0
    0.8400   14.4690   -6.8630 O   0  0  0  0  0  0  0  0  0  0  0  0
    1.0240   15.5910   -7.7420 C   0  0  0  0  0  0  0  0  0  0  0  0
    2.4090   15.7080   -8.2970 C   0  0  0  0  0  0  0  0  0  0  0  0
   -0.1010   15.7910   -8.7080 C   0  0  0  0  0  0  0  0  0  0  0  0
    2.4010   16.0260   -2.1970 C   0  0  1  0  0  0  0  0  0  0  0  0
    2.9010   16.3040   -0.7540 C   0  0  0  0  0  0  0  0  0  0  0  0
    2.1420   15.3250    0.1790 C   0  0  0  0  0  0  0  0  0  0  0  0
    1.4870   14.3030   -0.7790 C   0  0  1  0  0  0  0  0  0  0  0  0
    2.6240   13.2910   -1.1240 C   0  0  0  0  0  0  0  0  0  0  0  0
    0.2090   13.5760   -0.2460 C   0  0  2  0  0  0  0  0  0  0  0  0
    0.4290   12.7020    1.0020 C   0  0  0  0  0  0  0  0  0  0  0  0
    0.7830   11.2780    0.7290 C   0  0  0  0  0  0  0  0  0  0  0  0
    0.6420   10.6500   -0.4540 C   0  0  0  0  0  0  0  0  0  0  0  0
   -0.0120   11.3570   -1.6480 C   0  0  1  0  0  0  0  0  0  0  0  0
   -1.0460   10.4070   -2.3080 C   0  0  0  0  0  0  0  0  0  0  0  0
   -0.4430    9.0580   -2.6870 C   0  0  0  0  0  0  0  0  0  0  0  0
    0.1450    8.3610   -1.4630 C   0  0  2  0  0  0  0  0  0  0  0  0
   -0.9200    8.0130   -0.5740 O   0  0  0  0  0  0  0  0  0  0  0  0
    1.1940    9.2260   -0.7100 C   0  0  0  0  0  0  0  0  0  0  0  0
    2.4790    9.3490   -1.5660 C   0  0  0  0  0  0  0  0  0  0  0  0
    1.6030    8.4650    0.5800 C   0  0  0  0  0  0  0  0  0  0  0  0
   -0.6080   12.8010   -1.3570 C   0  0  1  0  0  0  0  0  0  0  0  0
   -2.0700   12.6770   -0.8300 C   0  0  0  0  0  0  0  0  0  0  0  0
   -0.6900   13.6050   -2.7090 C   0  0  0  0  0  0  0  0  0  0  0  0
    0.5640   14.3990   -3.1220 C   0  0  0  0  0  0  0  0  0  0  0  0
    1.0780   15.2560   -1.9610 C   0  0  2  0  0  0  0  0  0  0  0  0
   -0.0370   16.2990   -1.6060 C   0  0  0  0  0  0  0  0  0  0  0  0
    2.0443   18.2096   -1.1124 H   0  0  0  0  0  0  0  0  0  0  0  0
    2.6353   19.3266   -2.3890 H   0  0  0  0  0  0  0  0  0  0  0  0
    0.9213   18.7891   -2.3890 H   0  0  0  0  0  0  0  0  0  0  0  0
    3.3205   17.4959   -3.4862 H   0  0  0  0  0  0  0  0  0  0  0  0
    0.3846   16.7439   -3.7985 H   0  0  0  0  0  0  0  0  0  0  0  0
    1.2558   18.0534   -4.7310 H   0  0  0  0  0  0  0  0  0  0  0  0
    2.6974   16.4657   -5.7723 H   0  0  0  0  0  0  0  0  0  0  0  0
    2.0612   15.1296   -4.7249 H   0  0  0  0  0  0  0  0  0  0  0  0
    0.0252   16.3874   -5.7123 H   0  0  0  0  0  0  0  0  0  0  0  0
    3.1315   15.7690   -7.4698 H   0  0  0  0  0  0  0  0  0  0  0  0
    2.6323   14.8255   -8.9145 H   0  0  0  0  0  0  0  0  0  0  0  0
    2.4811   16.6154   -8.9145 H   0  0  0  0  0  0  0  0  0  0  0  0
   -1.0359   15.9572   -8.1527 H   0  0  0  0  0  0  0  0  0  0  0  0
    0.1101   16.6657   -9.3407 H   0  0  0  0  0  0  0  0  0  0  0  0
   -0.2043   14.8971   -9.3407 H   0  0  0  0  0  0  0  0  0  0  0  0
    3.0821   15.4231   -2.8156 H   0  0  0  0  0  0  0  0  0  0  0  0
    3.9846   16.1269   -0.6879 H   0  0  0  0  0  0  0  0  0  0  0  0
    2.7143   17.3490   -0.4658 H   0  0  0  0  0  0  0  0  0  0  0  0
    2.8398   14.8225    0.8650 H   0  0  0  0  0  0  0  0  0  0  0  0
    1.4022   15.8390    0.8103 H   0  0  0  0  0  0  0  0  0  0  0  0
    3.0624   12.9008   -0.1936 H   0  0  0  0  0  0  0  0  0  0  0  0
    2.2084   12.4586   -1.7108 H   0  0  0  0  0  0  0  0  0  0  0  0
    3.4026   13.8003   -1.7108 H   0  0  0  0  0  0  0  0  0  0  0  0
   -0.4198   14.4163    0.0834 H   0  0  0  0  0  0  0  0  0  0  0  0
    1.2446   13.1482    1.5899 H   0  0  0  0  0  0  0  0  0  0  0  0
   -0.5349   12.6797    1.5315 H   0  0  0  0  0  0  0  0  0  0  0  0
    1.1937   10.6920    1.5645 H   0  0  0  0  0  0  0  0  0  0  0  0
    0.8009   11.5743   -2.3564 H   0  0  0  0  0  0  0  0  0  0  0  0
   -1.8713   10.2380   -1.6006 H   0  0  0  0  0  0  0  0  0  0  0  0
   -1.3974   10.8872   -3.2332 H   0  0  0  0  0  0  0  0  0  0  0  0
   -1.2283    8.4217   -3.1212 H   0  0  0  0  0  0  0  0  0  0  0  0
    0.3628    9.2258   -3.4168 H   0  0  0  0  0  0  0  0  0  0  0  0
    0.6748    7.4644   -1.8172 H   0  0  0  0  0  0  0  0  0  0  0  0
   -1.5330    7.4360   -1.0600 H   0  0  0  0  0  0  0  0  0  0  0  0
    3.3537    9.4327   -0.9043 H   0  0  0  0  0  0  0  0  0  0  0  0
    2.5835    8.4568   -2.2008 H   0  0  0  0  0  0  0  0  0  0  0  0
    2.4123   10.2449   -2.2008 H   0  0  0  0  0  0  0  0  0  0  0  0
    1.2917    9.0443    1.4617 H   0  0  0  0  0  0  0  0  0  0  0  0
    1.1124    7.4806    0.5961 H   0  0  0  0  0  0  0  0  0  0  0  0
    2.6947    8.3310    0.5961 H   0  0  0  0  0  0  0  0  0  0  0  0
   -2.0645   12.6775    0.2700 H   0  0  0  0  0  0  0  0  0  0  0  0
   -2.6644   13.5280   -1.1941 H   0  0  0  0  0  0  0  0  0  0  0  0
   -2.5126   11.7381   -1.1941 H   0  0  0  0  0  0  0  0  0  0  0  0
   -0.9074   12.8850   -3.5117 H   0  0  0  0  0  0  0  0  0  0  0  0
   -1.4702   14.3632   -2.5462 H   0  0  0  0  0  0  0  0  0  0  0  0
    1.3522   13.6943   -3.4254 H   0  0  0  0  0  0  0  0  0  0  0  0
    0.2987   15.0635   -3.9575 H   0  0  0  0  0  0  0  0  0  0  0  0
   -0.1263   16.3825   -0.5128 H   0  0  0  0  0  0  0  0  0  0  0  0
    0.2300   17.2791   -2.0280 H   0  0  0  0  0  0  0  0  0  0  0  0
   -0.9971   15.9673   -2.0280 H   0  0  0  0  0  0  0  0  0  0  0  0
  1  2  1  0
  2  3  1  0
  3  4  1  0
  4  5  1  0
  5  6  1  0
  6  7  1  0
  7  8  1  0
  7  9  1  0
  2 10  1  0
 10 11  1  0
 11 12  1  0
 12 13  1  0
 13 14  1  6
 13 15  1  0
 15 16  1  0
 16 17  1  0
 17 18  2  0
 18 19  1  0
 19 20  1  0
 20 21  1  0
 21 22  1  0
 22 23  1  0
 22 24  1  0
 24 25  1  0
 24 26  1  0
 19 27  1  0
 27 28  1  1
 27 29  1  0
 29 30  1  0
 30 31  1  0
 31 32  1  1
  7  5  1  0
 31 10  1  0
 31 13  1  0
 27 15  1  0
 24 18  1  0
  1 33  1  0
  1 34  1  0
  1 35  1  0
  2 36  1  6
  3 37  1  0
  3 38  1  0
  4 39  1  0
  4 40  1  0
  5 41  1  6
  8 42  1  0
  8 43  1  0
  8 44  1  0
  9 45  1  0
  9 46  1  0
  9 47  1  0
 10 48  1  6
 11 49  1  0
 11 50  1  0
 12 51  1  0
 12 52  1  0
 14 53  1  0
 14 54  1  0
 14 55  1  0
 15 56  1  1
 16 57  1  0
 16 58  1  0
 17 59  1  0
 19 60  1  6
 20 61  1  0
 20 62  1  0
 21 63  1  0
 21 64  1  0
 22 65  1  6
 23 66  1  0
 25 67  1  0
 25 68  1  0
 25 69  1  0
 26 70  1  0
 26 71  1  0
 26 72  1  0
 28 73  1  0
 28 74  1  0
 28 75  1  0
 29 76  1  0
 29 77  1  0
 30 78  1  0
 30 79  1  0
 32 80  1  0
 32 81  1  0
 32 82  1  0
M  END
>  <meeko>  (16) 
{"is_sidechain": [false], "intermolecular_energy": 2.731, "internal_energy": -0.839}

$$$$
EPH_relaxed_0001_pdb2pqr_Repair_151_r2_0001_out
     RDKit          3D

 82 86  0  0  0  0  0  0  0  0999 V2000
    0.8040   14.7170   -4.7400 C   0  0  0  0  0  0  0  0  0  0  0  0
    0.6560   14.1460   -3.3270 C   0  0  2  0  0  0  0  0  0  0  0  0
    1.9380   14.3270   -2.4900 C   0  0  0  0  0  0  0  0  0  0  0  0
    1.8100   15.3820   -1.3880 C   0  0  0  0  0  0  0  0  0  0  0  0
    1.3390   16.6970   -1.9310 C   0  0  2  0  0  0  0  0  0  0  0  0
    2.2160   17.2950   -2.8940 O   0  0  0  0  0  0  0  0  0  0  0  0
    2.0430   18.0140   -1.6620 C   0  0  0  0  0  0  0  0  0  0  0  0
    3.2770   18.0800   -0.8180 C   0  0  0  0  0  0  0  0  0  0  0  0
    1.2660   19.2840   -1.8090 C   0  0  0  0  0  0  0  0  0  0  0  0
    0.2850   12.6700   -3.4000 C   0  0  1  0  0  0  0  0  0  0  0  0
    1.5110   11.7580   -3.6720 C   0  0  0  0  0  0  0  0  0  0  0  0
    1.2710   10.4410   -2.8910 C   0  0  0  0  0  0  0  0  0  0  0  0
   -0.2160   10.5010   -2.4720 C   0  0  1  0  0  0  0  0  0  0  0  0
   -1.0080   10.0430   -3.7370 C   0  0  0  0  0  0  0  0  0  0  0  0
   -0.6130    9.6680   -1.2100 C   0  0  2  0  0  0  0  0  0  0  0  0
   -0.4120    8.1480   -1.3420 C   0  0  0  0  0  0  0  0  0  0  0  0
   -1.5890    7.3930   -1.8640 C   0  0  0  0  0  0  0  0  0  0  0  0
   -2.8480    7.8630   -1.9450 C   0  0  0  0  0  0  0  0  0  0  0  0
   -3.2070    9.2490   -1.3930 C   0  0  1  0  0  0  0  0  0  0  0  0
   -4.5080    9.1500   -0.5530 C   0  0  0  0  0  0  0  0  0  0  0  0
   -5.6580    8.5140   -1.3280 C   0  0  0  0  0  0  0  0  0  0  0  0
   -5.2830    7.1150   -1.8100 C   0  0  2  0  0  0  0  0  0  0  0  0
   -5.1330    6.2610   -0.6720 O   0  0  0  0  0  0  0  0  0  0  0  0
   -3.9820    7.0880   -2.6600 C   0  0  0  0  0  0  0  0  0  0  0  0
   -4.2410    7.7610   -4.0300 C   0  0  0  0  0  0  0  0  0  0  0  0
   -3.6400    5.6040   -2.9620 C   0  0  0  0  0  0  0  0  0  0  0  0
   -2.0430   10.0140   -0.6280 C   0  0  1  0  0  0  0  0  0  0  0  0
   -2.0270    9.5930    0.8740 C   0  0  0  0  0  0  0  0  0  0  0  0
   -2.3410   11.5600   -0.6520 C   0  0  0  0  0  0  0  0  0  0  0  0
   -1.8200   12.3490   -1.8690 C   0  0  0  0  0  0  0  0  0  0  0  0
   -0.3450   12.0320   -2.1360 C   0  0  2  0  0  0  0  0  0  0  0  0
    0.4790   12.5010   -0.8900 C   0  0  0  0  0  0  0  0  0  0  0  0
    1.0796   15.7802   -4.6788 H   0  0  0  0  0  0  0  0  0  0  0  0
    1.5888   14.1652   -5.2781 H   0  0  0  0  0  0  0  0  0  0  0  0
   -0.1500   14.6159   -5.2781 H   0  0  0  0  0  0  0  0  0  0  0  0
   -0.1466   14.7067   -2.8255 H   0  0  0  0  0  0  0  0  0  0  0  0
    2.1854   13.3632   -2.0210 H   0  0  0  0  0  0  0  0  0  0  0  0
    2.7240   14.6737   -3.1770 H   0  0  0  0  0  0  0  0  0  0  0  0
    1.0885   15.0274   -0.6372 H   0  0  0  0  0  0  0  0  0  0  0  0
    2.8035   15.5321   -0.9402 H   0  0  0  0  0  0  0  0  0  0  0  0
    0.2878   16.3887   -1.8310 H   0  0  0  0  0  0  0  0  0  0  0  0
    2.9953   18.0649    0.2452 H   0  0  0  0  0  0  0  0  0  0  0  0
    3.9194   17.2149   -1.0394 H   0  0  0  0  0  0  0  0  0  0  0  0
    3.8234   19.0087   -1.0394 H   0  0  0  0  0  0  0  0  0  0  0  0
    1.0224   19.6822   -0.8130 H   0  0  0  0  0  0  0  0  0  0  0  0
    1.8683   20.0205   -2.3611 H   0  0  0  0  0  0  0  0  0  0  0  0
    0.3360   19.0831   -2.3611 H   0  0  0  0  0  0  0  0  0  0  0  0
   -0.4553   12.7061   -4.2128 H   0  0  0  0  0  0  0  0  0  0  0  0
    1.5966   11.5496   -4.7487 H   0  0  0  0  0  0  0  0  0  0  0  0
    2.4438   12.2438   -3.3496 H   0  0  0  0  0  0  0  0  0  0  0  0
    1.4582    9.5685   -3.5342 H   0  0  0  0  0  0  0  0  0  0  0  0
    1.9440   10.3402   -2.0268 H   0  0  0  0  0  0  0  0  0  0  0  0
   -1.9215    9.5148   -3.4263 H   0  0  0  0  0  0  0  0  0  0  0  0
   -1.2799   10.9233   -4.3380 H   0  0  0  0  0  0  0  0  0  0  0  0
   -0.3807    9.3683   -4.3380 H   0  0  0  0  0  0  0  0  0  0  0  0
    0.1236   10.0031   -0.4650 H   0  0  0  0  0  0  0  0  0  0  0  0
    0.4331    7.9747   -2.0245 H   0  0  0  0  0  0  0  0  0  0  0  0
   -0.2380    7.7740   -0.3223 H   0  0  0  0  0  0  0  0  0  0  0  0
   -1.4127    6.3646   -2.2123 H   0  0  0  0  0  0  0  0  0  0  0  0
   -3.3763    9.8913   -2.2698 H   0  0  0  0  0  0  0  0  0  0  0  0
   -4.3054    8.5409    0.3403 H   0  0  0  0  0  0  0  0  0  0  0  0
   -4.8112   10.1730   -0.2854 H   0  0  0  0  0  0  0  0  0  0  0  0
   -6.5389    8.4450   -0.6729 H   0  0  0  0  0  0  0  0  0  0  0  0
   -5.8791    9.1401   -2.2050 H   0  0  0  0  0  0  0  0  0  0  0  0
   -6.0927    6.7635   -2.4663 H   0  0  0  0  0  0  0  0  0  0  0  0
   -4.9970    5.3560   -1.0000 H   0  0  0  0  0  0  0  0  0  0  0  0
   -4.6320    8.7769   -3.8714 H   0  0  0  0  0  0  0  0  0  0  0  0
   -3.2993    7.8147   -4.5960 H   0  0  0  0  0  0  0  0  0  0  0  0
   -4.9757    7.1696   -4.5960 H   0  0  0  0  0  0  0  0  0  0  0  0
   -3.5139    5.0569   -2.0160 H   0  0  0  0  0  0  0  0  0  0  0  0
   -4.4571    5.1501   -3.5420 H   0  0  0  0  0  0  0  0  0  0  0  0
   -2.7067    5.5535   -3.5420 H   0  0  0  0  0  0  0  0  0  0  0  0
   -2.0612   10.4919    1.5071 H   0  0  0  0  0  0  0  0  0  0  0  0
   -2.9018    8.9610    1.0870 H   0  0  0  0  0  0  0  0  0  0  0  0
   -1.1068    9.0292    1.0870 H   0  0  0  0  0  0  0  0  0  0  0  0
   -3.4327   11.6891   -0.6142 H   0  0  0  0  0  0  0  0  0  0  0  0
   -1.7981   11.9713    0.2117 H   0  0  0  0  0  0  0  0  0  0  0  0
   -2.4128   12.0773   -2.7549 H   0  0  0  0  0  0  0  0  0  0  0  0
   -1.9155   13.4243   -1.6576 H   0  0  0  0  0  0  0  0  0  0  0  0
   -0.0453   12.2026    0.0298 H   0  0  0  0  0  0  0  0  0  0  0  0
    1.4749   12.0344   -0.9122 H   0  0  0  0  0  0  0  0  0  0  0  0
    0.5863   13.5955   -0.9122 H   0  0  0  0  0  0  0  0  0  0  0  0
  1  2  1  0
  2  3  1  0
  3  4  1  0
  4  5  1  0
  5  6  1  0
  6  7  1  0
  7  8  1  0
  7  9  1  0
  2 10  1  0
 10 11  1  0
 11 12  1  0
 12 13  1  0
 13 14  1  6
 13 15  1  0
 15 16  1  0
 16 17  1  0
 17 18  2  0
 18 19  1  0
 19 20  1  0
 20 21  1  0
 21 22  1  0
 22 23  1  0
 22 24  1  0
 24 25  1  0
 24 26  1  0
 19 27  1  0
 27 28  1  1
 27 29  1  0
 29 30  1  0
 30 31  1  0
 31 32  1  1
  7  5  1  0
 31 10  1  0
 31 13  1  0
 27 15  1  0
 24 18  1  0
  1 33  1  0
  1 34  1  0
  1 35  1  0
  2 36  1  1
  3 37  1  0
  3 38  1  0
  4 39  1  0
  4 40  1  0
  5 41  1  6
  8 42  1  0
  8 43  1  0
  8 44  1  0
  9 45  1  0
  9 46  1  0
  9 47  1  0
 10 48  1  6
 11 49  1  0
 11 50  1  0
 12 51  1  0
 12 52  1  0
 14 53  1  0
 14 54  1  0
 14 55  1  0
 15 56  1  1
 16 57  1  0
 16 58  1  0
 17 59  1  0
 19 60  1  6
 20 61  1  0
 20 62  1  0
 21 63  1  0
 21 64  1  0
 22 65  1  6
 23 66  1  0
 25 67  1  0
 25 68  1  0
 25 69  1  0
 26 70  1  0
 26 71  1  0
 26 72  1  0
 28 73  1  0
 28 74  1  0
 28 75  1  0
 29 76  1  0
 29 77  1  0
 30 78  1  0
 30 79  1  0
 32 80  1  0
 32 81  1  0
 32 82  1  0
M  END
>  <meeko>  (17) 
{"is_sidechain": [false], "intermolecular_energy": 2.731, "internal_energy": -0.839}

$$$$
EPH_relaxed_0001_pdb2pqr_Repair_151_r2_0001_out
     RDKit          3D

 82 86  0  0  0  0  0  0  0  0999 V2000
    0.3100    8.8940   -1.8460 C   0  0  0  0  0  0  0  0  0  0  0  0
    1.2010    9.4370   -0.7260 C   0  0  2  0  0  0  0  0  0  0  0  0
    0.4320    9.6020    0.6000 C   0  0  0  0  0  0  0  0  0  0  0  0
    1.1320   10.5150    1.6090 C   0  0  0  0  0  0  0  0  0  0  0  0
    0.1900   11.5260    2.1900 C   0  0  2  0  0  0  0  0  0  0  0  0
    0.6440   12.8830    2.1080 O   0  0  0  0  0  0  0  0  0  0  0  0
    0.4990   12.3420    3.4310 C   0  0  0  0  0  0  0  0  0  0  0  0
    1.7920   12.1830    4.1670 C   0  0  0  0  0  0  0  0  0  0  0  0
   -0.6400   12.9310    4.2020 C   0  0  0  0  0  0  0  0  0  0  0  0
    1.8070   10.7720   -1.1450 C   0  0  1  0  0  0  0  0  0  0  0  0
    2.8190   10.6270   -2.3130 C   0  0  0  0  0  0  0  0  0  0  0  0
    2.6770   11.9000   -3.1870 C   0  0  0  0  0  0  0  0  0  0  0  0
    1.8410   12.8740   -2.3260 C   0  0  1  0  0  0  0  0  0  0  0  0
    2.8650   13.5150   -1.3370 C   0  0  0  0  0  0  0  0  0  0  0  0
    1.0300   13.9620   -3.1020 C   0  0  2  0  0  0  0  0  0  0  0  0
    1.8810   14.9540   -3.9150 C   0  0  0  0  0  0  0  0  0  0  0  0
    2.2950   16.1870   -3.1830 C   0  0  0  0  0  0  0  0  0  0  0  0
    1.7660   16.6240   -2.0250 C   0  0  0  0  0  0  0  0  0  0  0  0
    0.5740   15.9050   -1.3830 C   0  0  1  0  0  0  0  0  0  0  0  0
   -0.4880   16.9490   -0.9470 C   0  0  0  0  0  0  0  0  0  0  0  0
    0.0940   18.0330   -0.0460 C   0  0  0  0  0  0  0  0  0  0  0  0
    1.2390   18.7650   -0.7420 C   0  0  2  0  0  0  0  0  0  0  0  0
    0.7100   19.4990   -1.8510 O   0  0  0  0  0  0  0  0  0  0  0  0
    2.3650   17.8130   -1.2340 C   0  0  0  0  0  0  0  0  0  0  0  0
    3.1370   17.2480   -0.0160 C   0  0  0  0  0  0  0  0  0  0  0  0
    3.3860   18.6600   -2.0410 C   0  0  0  0  0  0  0  0  0  0  0  0
   -0.0530   14.7120   -2.2260 C   0  0  1  0  0  0  0  0  0  0  0  0
   -1.1220   15.2660   -3.2170 C   0  0  0  0  0  0  0  0  0  0  0  0
   -0.8140   13.7370   -1.2510 C   0  0  0  0  0  0  0  0  0  0  0  0
    0.0170   12.6110   -0.6080 C   0  0  0  0  0  0  0  0  0  0  0  0
    0.8370   11.8620   -1.6630 C   0  0  2  0  0  0  0  0  0  0  0  0
   -0.1670   11.1880   -2.6590 C   0  0  0  0  0  0  0  0  0  0  0  0
   -0.5514    8.3690   -1.4073 H   0  0  0  0  0  0  0  0  0  0  0  0
   -0.0468    9.7283   -2.4678 H   0  0  0  0  0  0  0  0  0  0  0  0
    0.8880    8.1944   -2.4678 H   0  0  0  0  0  0  0  0  0  0  0  0
    2.0012    8.7019   -0.5546 H   0  0  0  0  0  0  0  0  0  0  0  0
   -0.5580   10.0263    0.3766 H   0  0  0  0  0  0  0  0  0  0  0  0
    0.3679    8.6049    1.0600 H   0  0  0  0  0  0  0  0  0  0  0  0
    1.5402    9.8989    2.4237 H   0  0  0  0  0  0  0  0  0  0  0  0
    1.9331   11.0556    1.0835 H   0  0  0  0  0  0  0  0  0  0  0  0
   -0.6788   10.9133    1.9077 H   0  0  0  0  0  0  0  0  0  0  0  0
    1.6025   12.2063    5.2503 H   0  0  0  0  0  0  0  0  0  0  0  0
    2.2524   11.2215    3.8959 H   0  0  0  0  0  0  0  0  0  0  0  0
    2.4716   13.0043    3.8959 H   0  0  0  0  0  0  0  0  0  0  0  0
   -0.4444   12.8299    5.2797 H   0  0  0  0  0  0  0  0  0  0  0  0
   -0.7439   13.9959    3.9465 H   0  0  0  0  0  0  0  0  0  0  0  0
   -1.5690   12.4003    3.9465 H   0  0  0  0  0  0  0  0  0  0  0  0
    2.2461   11.0848   -0.1862 H   0  0  0  0  0  0  0  0  0  0  0  0
    3.8433   10.5497   -1.9196 H   0  0  0  0  0  0  0  0  0  0  0  0
    2.6172    9.7193   -2.9007 H   0  0  0  0  0  0  0  0  0  0  0  0
    3.6647   12.3295   -3.4106 H   0  0  0  0  0  0  0  0  0  0  0  0
    2.2028   11.6889   -4.1568 H   0  0  0  0  0  0  0  0  0  0  0  0
    2.5486   13.3170   -0.3023 H   0  0  0  0  0  0  0  0  0  0  0  0
    3.8605   13.0785   -1.5060 H   0  0  0  0  0  0  0  0  0  0  0  0
    2.9074   14.6011   -1.5060 H   0  0  0  0  0  0  0  0  0  0  0  0
    0.4807   13.3623   -3.8427 H   0  0  0  0  0  0  0  0  0  0  0  0
    2.7917   14.4315   -4.2431 H   0  0  0  0  0  0  0  0  0  0  0  0
    1.2441   15.2923   -4.7456 H   0  0  0  0  0  0  0  0  0  0  0  0
    3.1007   16.7897   -3.6275 H   0  0  0  0  0  0  0  0  0  0  0  0
    0.9728   15.3869   -0.4984 H   0  0  0  0  0  0  0  0  0  0  0  0
   -0.9052   17.4247   -1.8468 H   0  0  0  0  0  0  0  0  0  0  0  0
   -1.2626   16.4184   -0.3739 H   0  0  0  0  0  0  0  0  0  0  0  0
   -0.6964   18.7561    0.2038 H   0  0  0  0  0  0  0  0  0  0  0  0
    0.4840   17.5587    0.8666 H   0  0  0  0  0  0  0  0  0  0  0  0
    1.6984   19.4381   -0.0032 H   0  0  0  0  0  0  0  0  0  0  0  0
    1.0270   20.4150   -1.7750 H   0  0  0  0  0  0  0  0  0  0  0  0
    2.6616   17.5959    0.9130 H   0  0  0  0  0  0  0  0  0  0  0  0
    3.1184   16.1486   -0.0479 H   0  0  0  0  0  0  0  0  0  0  0  0
    4.1793   17.5982   -0.0479 H   0  0  0  0  0  0  0  0  0  0  0  0
    4.0419   19.2041   -1.3455 H   0  0  0  0  0  0  0  0  0  0  0  0
    3.9931   17.9967   -2.6746 H   0  0  0  0  0  0  0  0  0  0  0  0
    2.8462   19.3792   -2.6746 H   0  0  0  0  0  0  0  0  0  0  0  0
   -1.9585   15.6995   -2.6493 H   0  0  0  0  0  0  0  0  0  0  0  0
   -0.6675   16.0421   -3.8504 H   0  0  0  0  0  0  0  0  0  0  0  0
   -1.4940   14.4472   -3.8504 H   0  0  0  0  0  0  0  0  0  0  0  0
   -1.2382   14.3438   -0.4375 H   0  0  0  0  0  0  0  0  0  0  0  0
   -1.5575   13.2240   -1.8788 H   0  0  0  0  0  0  0  0  0  0  0  0
    0.7003   13.0478    0.1351 H   0  0  0  0  0  0  0  0  0  0  0  0
   -0.6704   11.8988   -0.1282 H   0  0  0  0  0  0  0  0  0  0  0  0
   -0.9494   10.6628   -2.0916 H   0  0  0  0  0  0  0  0  0  0  0  0
   -0.6289   11.9597   -3.2924 H   0  0  0  0  0  0  0  0  0  0  0  0
    0.3723   10.4683   -3.2924 H   0  0  0  0  0  0  0  0  0  0  0  0
  1  2  1  0
  2  3  1  0
  3  4  1  0
  4  5  1  0
  5  6  1  0
  6  7  1  0
  7  8  1  0
  7  9  1  0
  2 10  1  0
 10 11  1  0
 11 12  1  0
 12 13  1  0
 13 14  1  1
 13 15  1  0
 15 16  1  0
 16 17  1  0
 17 18  2  0
 18 19  1  0
 19 20  1  0
 20 21  1  0
 21 22  1  0
 22 23  1  0
 22 24  1  0
 24 25  1  0
 24 26  1  0
 19 27  1  0
 27 28  1  6
 27 29  1  0
 29 30  1  0
 30 31  1  0
 31 32  1  6
  7  5  1  0
 31 10  1  0
 31 13  1  0
 27 15  1  0
 24 18  1  0
  1 33  1  0
  1 34  1  0
  1 35  1  0
  2 36  1  1
  3 37  1  0
  3 38  1  0
  4 39  1  0
  4 40  1  0
  5 41  1  1
  8 42  1  0
  8 43  1  0
  8 44  1  0
  9 45  1  0
  9 46  1  0
  9 47  1  0
 10 48  1  1
 11 49  1  0
 11 50  1  0
 12 51  1  0
 12 52  1  0
 14 53  1  0
 14 54  1  0
 14 55  1  0
 15 56  1  6
 16 57  1  0
 16 58  1  0
 17 59  1  0
 19 60  1  1
 20 61  1  0
 20 62  1  0
 21 63  1  0
 21 64  1  0
 22 65  1  1
 23 66  1  0
 25 67  1  0
 25 68  1  0
 25 69  1  0
 26 70  1  0
 26 71  1  0
 26 72  1  0
 28 73  1  0
 28 74  1  0
 28 75  1  0
 29 76  1  0
 29 77  1  0
 30 78  1  0
 30 79  1  0
 32 80  1  0
 32 81  1  0
 32 82  1  0
M  END
>  <meeko>  (18) 
{"is_sidechain": [false], "intermolecular_energy": 2.731, "internal_energy": -0.839}

$$$$
EPH_relaxed_0001_pdb2pqr_Repair_151_r2_0001_out
     RDKit          3D

 82 86  0  0  0  0  0  0  0  0999 V2000
    1.7890    9.5200   -1.6770 C   0  0  0  0  0  0  0  0  0  0  0  0
    2.3950   10.2140   -0.4540 C   0  0  2  0  0  0  0  0  0  0  0  0
    1.4530   10.1670    0.7660 C   0  0  0  0  0  0  0  0  0  0  0  0
    0.2240    9.2780    0.5610 C   0  0  0  0  0  0  0  0  0  0  0  0
   -1.0280   10.0890    0.4100 C   0  0  2  0  0  0  0  0  0  0  0  0
   -2.2440    9.3430    0.5470 O   0  0  0  0  0  0  0  0  0  0  0  0
   -1.9980    9.9230   -0.7440 C   0  0  0  0  0  0  0  0  0  0  0  0
   -1.7580    8.9180   -1.8270 C   0  0  0  0  0  0  0  0  0  0  0  0
   -2.9130   11.0590   -1.0790 C   0  0  0  0  0  0  0  0  0  0  0  0
    2.7360   11.6600   -0.7930 C   0  0  1  0  0  0  0  0  0  0  0  0
    3.7280   11.7770   -1.9820 C   0  0  0  0  0  0  0  0  0  0  0  0
    3.3340   13.0530   -2.7690 C   0  0  0  0  0  0  0  0  0  0  0  0
    2.3550   13.8020   -1.8340 C   0  0  1  0  0  0  0  0  0  0  0  0
    3.2700   14.5580   -0.8200 C   0  0  0  0  0  0  0  0  0  0  0  0
    1.3400   14.7680   -2.5280 C   0  0  2  0  0  0  0  0  0  0  0  0
    1.9750   15.9470   -3.2850 C   0  0  0  0  0  0  0  0  0  0  0  0
    2.1750   17.1880   -2.4800 C   0  0  0  0  0  0  0  0  0  0  0  0
    1.6050   17.4490   -1.2890 C   0  0  0  0  0  0  0  0  0  0  0  0
    0.5800   16.4840   -0.6780 C   0  0  1  0  0  0  0  0  0  0  0  0
   -0.6430   17.2860   -0.1610 C   0  0  0  0  0  0  0  0  0  0  0  0
   -0.2460   18.4010    0.8010 C   0  0  0  0  0  0  0  0  0  0  0  0
    0.7280   19.3720    0.1380 C   0  0  2  0  0  0  0  0  0  0  0  0
    0.0460   20.0630   -0.9130 O   0  0  0  0  0  0  0  0  0  0  0  0
    1.9960   18.6760   -0.4300 C   0  0  0  0  0  0  0  0  0  0  0  0
    2.8890   18.1880    0.7370 C   0  0  0  0  0  0  0  0  0  0  0  0
    2.8250   19.7440   -1.1940 C   0  0  0  0  0  0  0  0  0  0  0  0
    0.1610   15.2510   -1.5890 C   0  0  1  0  0  0  0  0  0  0  0  0
   -1.0160   15.6580   -2.5280 C   0  0  0  0  0  0  0  0  0  0  0  0
   -0.3840   14.0940   -0.6700 C   0  0  0  0  0  0  0  0  0  0  0  0
    0.6540   13.1020   -0.1130 C   0  0  0  0  0  0  0  0  0  0  0  0
    1.5700   12.5840   -1.2260 C   0  0  2  0  0  0  0  0  0  0  0  0
    0.6810   11.7990   -2.2500 C   0  0  0  0  0  0  0  0  0  0  0  0
    1.0991    8.7299   -1.3458 H   0  0  0  0  0  0  0  0  0  0  0  0
    1.2398   10.2565   -2.2819 H   0  0  0  0  0  0  0  0  0  0  0  0
    2.5928    9.0750   -2.2819 H   0  0  0  0  0  0  0  0  0  0  0  0
    3.3118    9.6692   -0.1846 H   0  0  0  0  0  0  0  0  0  0  0  0
    2.0193    9.7832    1.6274 H   0  0  0  0  0  0  0  0  0  0  0  0
    1.0854   11.1911    0.9277 H   0  0  0  0  0  0  0  0  0  0  0  0
    0.3687    8.6734   -0.3465 H   0  0  0  0  0  0  0  0  0  0  0  0
    0.1125    8.6371    1.4480 H   0  0  0  0  0  0  0  0  0  0  0  0
   -0.5342   10.9744    0.8369 H   0  0  0  0  0  0  0  0  0  0  0  0
   -1.5249    7.9420   -1.3764 H   0  0  0  0  0  0  0  0  0  0  0  0
   -2.6599    8.8281   -2.4502 H   0  0  0  0  0  0  0  0  0  0  0  0
   -0.9128    9.2453   -2.4502 H   0  0  0  0  0  0  0  0  0  0  0  0
   -3.2828   11.5181   -0.1503 H   0  0  0  0  0  0  0  0  0  0  0  0
   -2.3649   11.8103   -1.6665 H   0  0  0  0  0  0  0  0  0  0  0  0
   -3.7638   10.6835   -1.6665 H   0  0  0  0  0  0  0  0  0  0  0  0
    3.1346   11.9874    0.1786 H   0  0  0  0  0  0  0  0  0  0  0  0
    4.7587   11.8657   -1.6081 H   0  0  0  0  0  0  0  0  0  0  0  0
    3.6807   10.8858   -2.6251 H   0  0  0  0  0  0  0  0  0  0  0  0
    4.2206   13.6699   -2.9773 H   0  0  0  0  0  0  0  0  0  0  0  0
    2.8823   12.8186   -3.7442 H   0  0  0  0  0  0  0  0  0  0  0  0
    2.9656   14.3065    0.2067 H   0  0  0  0  0  0  0  0  0  0  0  0
    4.3166   14.2577   -0.9761 H   0  0  0  0  0  0  0  0  0  0  0  0
    3.1725   15.6425   -0.9761 H   0  0  0  0  0  0  0  0  0  0  0  0
    0.8911   14.1254   -3.2997 H   0  0  0  0  0  0  0  0  0  0  0  0
    2.9574   15.6218   -3.6581 H   0  0  0  0  0  0  0  0  0  0  0  0
    1.2666   16.2130   -4.0834 H   0  0  0  0  0  0  0  0  0  0  0  0
    2.8455   17.9546   -2.8956 H   0  0  0  0  0  0  0  0  0  0  0  0
    1.0881   15.9946    0.1660 H   0  0  0  0  0  0  0  0  0  0  0  0
   -1.1624   17.7315   -1.0223 H   0  0  0  0  0  0  0  0  0  0  0  0
   -1.2932   16.5879    0.3866 H   0  0  0  0  0  0  0  0  0  0  0  0
   -1.1485   18.9498    1.1082 H   0  0  0  0  0  0  0  0  0  0  0  0
    0.2469   17.9514    1.6756 H   0  0  0  0  0  0  0  0  0  0  0  0
    1.0755   20.0713    0.9128 H   0  0  0  0  0  0  0  0  0  0  0  0
   -0.9070   19.9140   -0.7930 H   0  0  0  0  0  0  0  0  0  0  0  0
    2.4146   18.4473    1.6950 H   0  0  0  0  0  0  0  0  0  0  0  0
    3.0127   17.0969    0.6726 H   0  0  0  0  0  0  0  0  0  0  0  0
    3.8741   18.6732    0.6726 H   0  0  0  0  0  0  0  0  0  0  0  0
    3.3336   20.3992   -0.4715 H   0  0  0  0  0  0  0  0  0  0  0  0
    3.5738   19.2439   -1.8258 H   0  0  0  0  0  0  0  0  0  0  0  0
    2.1548   20.3454   -1.8258 H   0  0  0  0  0  0  0  0  0  0  0  0
   -1.8828   15.9577   -1.9207 H   0  0  0  0  0  0  0  0  0  0  0  0
   -0.7041   16.5005   -3.1628 H   0  0  0  0  0  0  0  0  0  0  0  0
   -1.2912   14.8028   -3.1628 H   0  0  0  0  0  0  0  0  0  0  0  0
   -0.8914   14.5609    0.1871 H   0  0  0  0  0  0  0  0  0  0  0  0
   -1.0363   13.4929   -1.3205 H   0  0  0  0  0  0  0  0  0  0  0  0
    1.2645   13.6097    0.6483 H   0  0  0  0  0  0  0  0  0  0  0  0
    0.1205   12.2472    0.3283 H   0  0  0  0  0  0  0  0  0  0  0  0
   -0.0351   11.1667   -1.7046 H   0  0  0  0  0  0  0  0  0  0  0  0
    0.1325   12.5129   -2.8821 H   0  0  0  0  0  0  0  0  0  0  0  0
    1.3215   11.1664   -2.8821 H   0  0  0  0  0  0  0  0  0  0  0  0
  1  2  1  0
  2  3  1  0
  3  4  1  0
  4  5  1  0
  5  6  1  0
  6  7  1  0
  7  8  1  0
  7  9  1  0
  2 10  1  0
 10 11  1  0
 11 12  1  0
 12 13  1  0
 13 14  1  1
 13 15  1  0
 15 16  1  0
 16 17  1  0
 17 18  2  0
 18 19  1  0
 19 20  1  0
 20 21  1  0
 21 22  1  0
 22 23  1  0
 22 24  1  0
 24 25  1  0
 24 26  1  0
 19 27  1  0
 27 28  1  6
 27 29  1  0
 29 30  1  0
 30 31  1  0
 31 32  1  6
  7  5  1  0
 31 10  1  0
 31 13  1  0
 27 15  1  0
 24 18  1  0
  1 33  1  0
  1 34  1  0
  1 35  1  0
  2 36  1  1
  3 37  1  0
  3 38  1  0
  4 39  1  0
  4 40  1  0
  5 41  1  1
  8 42  1  0
  8 43  1  0
  8 44  1  0
  9 45  1  0
  9 46  1  0
  9 47  1  0
 10 48  1  1
 11 49  1  0
 11 50  1  0
 12 51  1  0
 12 52  1  0
 14 53  1  0
 14 54  1  0
 14 55  1  0
 15 56  1  6
 16 57  1  0
 16 58  1  0
 17 59  1  0
 19 60  1  1
 20 61  1  0
 20 62  1  0
 21 63  1  0
 21 64  1  0
 22 65  1  1
 23 66  1  0
 25 67  1  0
 25 68  1  0
 25 69  1  0
 26 70  1  0
 26 71  1  0
 26 72  1  0
 28 73  1  0
 28 74  1  0
 28 75  1  0
 29 76  1  0
 29 77  1  0
 30 78  1  0
 30 79  1  0
 32 80  1  0
 32 81  1  0
 32 82  1  0
M  END
>  <meeko>  (19) 
{"is_sidechain": [false], "intermolecular_energy": 2.731, "internal_energy": -0.839}

$$$$
