EPH_relaxed_0001_pdb2pqr_Repair_336_r2_0001_out
     RDKit          3D

 82 86  0  0  0  0  0  0  0  0999 V2000
   -1.7970    8.2230   -1.9010 C   0  0  0  0  0  0  0  0  0  0  0  0
   -2.1750    8.7730   -0.5230 C   0  0  2  0  0  0  0  0  0  0  0  0
   -3.6680    9.1480   -0.4370 C   0  0  0  0  0  0  0  0  0  0  0  0
   -4.6020    7.9380   -0.3440 C   0  0  0  0  0  0  0  0  0  0  0  0
   -5.3090    7.6830   -1.6400 C   0  0  2  0  0  0  0  0  0  0  0  0
   -6.3780    8.5950   -1.9290 O   0  0  0  0  0  0  0  0  0  0  0  0
   -6.7520    7.2220   -1.7290 C   0  0  0  0  0  0  0  0  0  0  0  0
   -7.5740    6.9880   -0.5000 C   0  0  0  0  0  0  0  0  0  0  0  0
   -7.2080    6.5340   -2.9780 C   0  0  0  0  0  0  0  0  0  0  0  0
   -1.3130    9.9870   -0.1950 C   0  0  1  0  0  0  0  0  0  0  0  0
   -0.2660    9.6940    0.9130 C   0  0  0  0  0  0  0  0  0  0  0  0
    0.9980   10.5210    0.5640 C   0  0  0  0  0  0  0  0  0  0  0  0
    0.5290   11.5070   -0.5310 C   0  0  1  0  0  0  0  0  0  0  0  0
   -0.1700   12.6670    0.2460 C   0  0  0  0  0  0  0  0  0  0  0  0
    1.6340   12.0430   -1.4980 C   0  0  2  0  0  0  0  0  0  0  0  0
    2.7450   12.8680   -0.8240 C   0  0  0  0  0  0  0  0  0  0  0  0
    2.4930   14.3370   -0.7500 C   0  0  0  0  0  0  0  0  0  0  0  0
    1.5590   15.0070   -1.4520 C   0  0  0  0  0  0  0  0  0  0  0  0
    0.7010   14.2920   -2.5040 C   0  0  1  0  0  0  0  0  0  0  0  0
    0.6550   15.1430   -3.8000 C   0  0  0  0  0  0  0  0  0  0  0  0
    0.1920   16.5740   -3.5440 C   0  0  0  0  0  0  0  0  0  0  0  0
    1.1040   17.2700   -2.5370 C   0  0  2  0  0  0  0  0  0  0  0  0
    2.3980   17.4370   -3.1250 O   0  0  0  0  0  0  0  0  0  0  0  0
    1.2360   16.4990   -1.1940 C   0  0  0  0  0  0  0  0  0  0  0  0
   -0.1000   16.5790   -0.4140 C   0  0  0  0  0  0  0  0  0  0  0  0
    2.2910   17.2330   -0.3230 C   0  0  0  0  0  0  0  0  0  0  0  0
    1.0720   12.7720   -2.7850 C   0  0  1  0  0  0  0  0  0  0  0  0
    2.1910   12.6890   -3.8680 C   0  0  0  0  0  0  0  0  0  0  0  0
   -0.1840   12.0390   -3.3870 C   0  0  0  0  0  0  0  0  0  0  0  0
   -1.1790   11.4260   -2.3820 C   0  0  0  0  0  0  0  0  0  0  0  0
   -0.4490   10.5770   -1.3370 C   0  0  2  0  0  0  0  0  0  0  0  0
    0.2450    9.3890   -2.0870 C   0  0  0  0  0  0  0  0  0  0  0  0
   -1.1778    7.3221   -1.7790 H   0  0  0  0  0  0  0  0  0  0  0  0
   -2.7110    7.9672   -2.4570 H   0  0  0  0  0  0  0  0  0  0  0  0
   -1.2306    8.9846   -2.4570 H   0  0  0  0  0  0  0  0  0  0  0  0
   -1.9923    7.9766    0.2135 H   0  0  0  0  0  0  0  0  0  0  0  0
   -3.8184    9.7723    0.4561 H   0  0  0  0  0  0  0  0  0  0  0  0
   -3.9204    9.6784   -1.3671 H   0  0  0  0  0  0  0  0  0  0  0  0
   -4.0093    7.0496   -0.0804 H   0  0  0  0  0  0  0  0  0  0  0  0
   -5.3602    8.1483    0.4247 H   0  0  0  0  0  0  0  0  0  0  0  0
   -4.3834    7.3034   -2.0974 H   0  0  0  0  0  0  0  0  0  0  0  0
   -6.9564    7.1638    0.3931 H   0  0  0  0  0  0  0  0  0  0  0  0
   -8.4307    7.6779   -0.4950 H   0  0  0  0  0  0  0  0  0  0  0  0
   -7.9389    5.9503   -0.4950 H   0  0  0  0  0  0  0  0  0  0  0  0
   -7.7977    5.6443   -2.7121 H   0  0  0  0  0  0  0  0  0  0  0  0
   -7.8293    7.2223   -3.5698 H   0  0  0  0  0  0  0  0  0  0  0  0
   -6.3320    6.2299   -3.5698 H   0  0  0  0  0  0  0  0  0  0  0  0
   -2.1010   10.7008    0.0871 H   0  0  0  0  0  0  0  0  0  0  0  0
   -0.6583    9.9978    1.8947 H   0  0  0  0  0  0  0  0  0  0  0  0
   -0.0339    8.6199    0.9629 H   0  0  0  0  0  0  0  0  0  0  0  0
    1.3616   11.0661    1.4475 H   0  0  0  0  0  0  0  0  0  0  0  0
    1.8309    9.8872    0.2256 H   0  0  0  0  0  0  0  0  0  0  0  0
   -0.0678   12.4974    1.3280 H   0  0  0  0  0  0  0  0  0  0  0  0
    0.3019   13.6240   -0.0213 H   0  0  0  0  0  0  0  0  0  0  0  0
   -1.2366   12.6969   -0.0213 H   0  0  0  0  0  0  0  0  0  0  0  0
    2.1163   11.1164   -1.8426 H   0  0  0  0  0  0  0  0  0  0  0  0
    2.8718   12.4929    0.2023 H   0  0  0  0  0  0  0  0  0  0  0  0
    3.6394   12.7442   -1.4522 H   0  0  0  0  0  0  0  0  0  0  0  0
    3.1233   14.9221   -0.0642 H   0  0  0  0  0  0  0  0  0  0  0  0
   -0.3077   14.2147   -2.0721 H   0  0  0  0  0  0  0  0  0  0  0  0
    1.6632   15.1718   -4.2389 H   0  0  0  0  0  0  0  0  0  0  0  0
   -0.0700   14.6743   -4.4817 H   0  0  0  0  0  0  0  0  0  0  0  0
    0.2088   17.1328   -4.4913 H   0  0  0  0  0  0  0  0  0  0  0  0
   -0.8279   16.5450   -3.1329 H   0  0  0  0  0  0  0  0  0  0  0  0
    0.6483   18.2419   -2.2968 H   0  0  0  0  0  0  0  0  0  0  0  0
    2.5200   16.7240   -3.7740 H   0  0  0  0  0  0  0  0  0  0  0  0
    0.1050   16.5667    0.6667 H   0  0  0  0  0  0  0  0  0  0  0  0
   -0.6232   17.5101   -0.6774 H   0  0  0  0  0  0  0  0  0  0  0  0
   -0.7305   15.7170   -0.6774 H   0  0  0  0  0  0  0  0  0  0  0  0
    2.0626   17.0741    0.7412 H   0  0  0  0  0  0  0  0  0  0  0  0
    3.2919   16.8352   -0.5466 H   0  0  0  0  0  0  0  0  0  0  0  0
    2.2660   18.3098   -0.5466 H   0  0  0  0  0  0  0  0  0  0  0  0
    3.1724   12.6162   -3.3764 H   0  0  0  0  0  0  0  0  0  0  0  0
    2.0285   11.8004   -4.4957 H   0  0  0  0  0  0  0  0  0  0  0  0
    2.1614   13.5918   -4.4957 H   0  0  0  0  0  0  0  0  0  0  0  0
   -0.7350   12.7698   -3.9971 H   0  0  0  0  0  0  0  0  0  0  0  0
    0.2228   11.1841   -3.9471 H   0  0  0  0  0  0  0  0  0  0  0  0
   -1.7211   12.2363   -1.8725 H   0  0  0  0  0  0  0  0  0  0  0  0
   -1.8797   10.7802   -2.9315 H   0  0  0  0  0  0  0  0  0  0  0  0
    0.6578    8.6824   -1.3519 H   0  0  0  0  0  0  0  0  0  0  0  0
   -0.4933    8.8723   -2.7178 H   0  0  0  0  0  0  0  0  0  0  0  0
    1.0577    9.7784   -2.7178 H   0  0  0  0  0  0  0  0  0  0  0  0
  1  2  1  0
  2  3  1  0
  3  4  1  0
  4  5  1  0
  5  6  1  0
  6  7  1  0
  7  8  1  0
  7  9  1  0
  2 10  1  0
 10 11  1  0
 11 12  1  0
 12 13  1  0
 13 14  1  1
 13 15  1  0
 15 16  1  0
 16 17  1  0
 17 18  2  0
 18 19  1  0
 19 20  1  0
 20 21  1  0
 21 22  1  0
 22 23  1  0
 22 24  1  0
 24 25  1  0
 24 26  1  0
 19 27  1  0
 27 28  1  6
 27 29  1  0
 29 30  1  0
 30 31  1  0
 31 32  1  6
  7  5  1  0
 31 10  1  0
 31 13  1  0
 27 15  1  0
 24 18  1  0
  1 33  1  0
  1 34  1  0
  1 35  1  0
  2 36  1  1
  3 37  1  0
  3 38  1  0
  4 39  1  0
  4 40  1  0
  5 41  1  6
  8 42  1  0
  8 43  1  0
  8 44  1  0
  9 45  1  0
  9 46  1  0
  9 47  1  0
 10 48  1  1
 11 49  1  0
 11 50  1  0
 12 51  1  0
 12 52  1  0
 14 53  1  0
 14 54  1  0
 14 55  1  0
 15 56  1  6
 16 57  1  0
 16 58  1  0
 17 59  1  0
 19 60  1  1
 20 61  1  0
 20 62  1  0
 21 63  1  0
 21 64  1  0
 22 65  1  1
 23 66  1  0
 25 67  1  0
 25 68  1  0
 25 69  1  0
 26 70  1  0
 26 71  1  0
 26 72  1  0
 28 73  1  0
 28 74  1  0
 28 75  1  0
 29 76  1  0
 29 77  1  0
 30 78  1  0
 30 79  1  0
 32 80  1  0
 32 81  1  0
 32 82  1  0
M  END
>  <meeko>  (1) 
{"is_sidechain": [false], "intermolecular_energy": 2.731, "internal_energy": -0.839}

$$$$
EPH_relaxed_0001_pdb2pqr_Repair_336_r2_0001_out
     RDKit          3D

 82 86  0  0  0  0  0  0  0  0999 V2000
    4.3530   16.9480   -0.3650 C   0  0  0  0  0  0  0  0  0  0  0  0
    2.9970   17.6340   -0.1750 C   0  0  2  0  0  0  0  0  0  0  0  0
    2.9440   18.4680    1.1210 C   0  0  0  0  0  0  0  0  0  0  0  0
    4.3240   18.8030    1.6940 C   0  0  0  0  0  0  0  0  0  0  0  0
    4.2330   19.2980    3.1060 C   0  0  2  0  0  0  0  0  0  0  0  0
    5.2850   20.1890    3.4970 O   0  0  0  0  0  0  0  0  0  0  0  0
    5.2310   18.9300    4.1880 C   0  0  0  0  0  0  0  0  0  0  0  0
    6.3930   18.0300    3.9050 C   0  0  0  0  0  0  0  0  0  0  0  0
    4.8090   19.0460    5.6200 C   0  0  0  0  0  0  0  0  0  0  0  0
    1.8840   16.5930   -0.1710 C   0  0  1  0  0  0  0  0  0  0  0  0
    0.4880   17.2110   -0.4460 C   0  0  0  0  0  0  0  0  0  0  0  0
   -0.3120   16.1630   -1.2620 C   0  0  0  0  0  0  0  0  0  0  0  0
    0.5170   14.8620   -1.1450 C   0  0  1  0  0  0  0  0  0  0  0  0
    0.1290   14.2630    0.2430 C   0  0  0  0  0  0  0  0  0  0  0  0
    0.3330   13.8200   -2.2950 C   0  0  2  0  0  0  0  0  0  0  0  0
   -1.0880   13.2440   -2.4330 C   0  0  0  0  0  0  0  0  0  0  0  0
   -1.3520   12.0030   -1.6470 C   0  0  0  0  0  0  0  0  0  0  0  0
   -0.4140   11.2160   -1.0880 C   0  0  0  0  0  0  0  0  0  0  0  0
    1.0790   11.4950   -1.3050 C   0  0  1  0  0  0  0  0  0  0  0  0
    1.8060   10.1720   -1.6640 C   0  0  0  0  0  0  0  0  0  0  0  0
    1.5610    9.0720   -0.6360 C   0  0  0  0  0  0  0  0  0  0  0  0
    0.0690    8.7840   -0.4900 C   0  0  2  0  0  0  0  0  0  0  0  0
   -0.4110    8.2130   -1.7120 O   0  0  0  0  0  0  0  0  0  0  0  0
   -0.7680   10.0450   -0.1390 C   0  0  0  0  0  0  0  0  0  0  0  0
   -0.4590   10.4870    1.3130 C   0  0  0  0  0  0  0  0  0  0  0  0
   -2.2670    9.6450   -0.1610 C   0  0  0  0  0  0  0  0  0  0  0  0
    1.4250   12.6740   -2.3130 C   0  0  1  0  0  0  0  0  0  0  0  0
    1.4740   12.1290   -3.7730 C   0  0  0  0  0  0  0  0  0  0  0  0
    2.8670   13.2180   -1.9930 C   0  0  0  0  0  0  0  0  0  0  0  0
    2.9710   14.3310   -0.9330 C   0  0  0  0  0  0  0  0  0  0  0  0
    1.9710   15.4560   -1.2190 C   0  0  2  0  0  0  0  0  0  0  0  0
    2.3490   16.0920   -2.6000 C   0  0  0  0  0  0  0  0  0  0  0  0
    4.7925   16.7257    0.6186 H   0  0  0  0  0  0  0  0  0  0  0  0
    4.2148   16.0114   -0.9250 H   0  0  0  0  0  0  0  0  0  0  0  0
    5.0257   17.6142   -0.9250 H   0  0  0  0  0  0  0  0  0  0  0  0
    2.8554   18.3261   -1.0182 H   0  0  0  0  0  0  0  0  0  0  0  0
    2.4189   19.4105    0.9063 H   0  0  0  0  0  0  0  0  0  0  0  0
    2.4223   17.8592    1.8741 H   0  0  0  0  0  0  0  0  0  0  0  0
    4.9480   17.8973    1.6733 H   0  0  0  0  0  0  0  0  0  0  0  0
    4.7662   19.6006    1.0789 H   0  0  0  0  0  0  0  0  0  0  0  0
    3.1341   19.2609    3.0727 H   0  0  0  0  0  0  0  0  0  0  0  0
    6.8327   17.6895    4.8541 H   0  0  0  0  0  0  0  0  0  0  0  0
    6.0502   17.1595    3.3265 H   0  0  0  0  0  0  0  0  0  0  0  0
    7.1501   18.5796    3.3265 H   0  0  0  0  0  0  0  0  0  0  0  0
    5.6620   18.8115    6.2738 H   0  0  0  0  0  0  0  0  0  0  0  0
    4.4655   20.0719    5.8191 H   0  0  0  0  0  0  0  0  0  0  0  0
    3.9894   18.3398    5.8191 H   0  0  0  0  0  0  0  0  0  0  0  0
    2.0180   16.1827    0.8408 H   0  0  0  0  0  0  0  0  0  0  0  0
   -0.0254   17.4244    0.5031 H   0  0  0  0  0  0  0  0  0  0  0  0
    0.5771   18.1579   -0.9987 H   0  0  0  0  0  0  0  0  0  0  0  0
   -1.3164   16.0232   -0.8357 H   0  0  0  0  0  0  0  0  0  0  0  0
   -0.4586   16.4717   -2.3076 H   0  0  0  0  0  0  0  0  0  0  0  0
    0.5393   14.8964    1.0433 H   0  0  0  0  0  0  0  0  0  0  0  0
   -0.9667   14.2235    0.3320 H   0  0  0  0  0  0  0  0  0  0  0  0
    0.5410   13.2469    0.3320 H   0  0  0  0  0  0  0  0  0  0  0  0
    0.4967   14.4312   -3.1948 H   0  0  0  0  0  0  0  0  0  0  0  0
   -1.8005   14.0140   -2.1020 H   0  0  0  0  0  0  0  0  0  0  0  0
   -1.2015   12.9642   -3.4907 H   0  0  0  0  0  0  0  0  0  0  0  0
   -2.4027   11.7062   -1.5131 H   0  0  0  0  0  0  0  0  0  0  0  0
    1.4582   11.8818   -0.3476 H   0  0  0  0  0  0  0  0  0  0  0  0
    1.4448    9.8258   -2.6436 H   0  0  0  0  0  0  0  0  0  0  0  0
    2.8863   10.3787   -1.6806 H   0  0  0  0  0  0  0  0  0  0  0  0
    2.0745    8.1550   -0.9607 H   0  0  0  0  0  0  0  0  0  0  0  0
    1.9506    9.4073    0.3365 H   0  0  0  0  0  0  0  0  0  0  0  0
   -0.0512    8.0849    0.3507 H   0  0  0  0  0  0  0  0  0  0  0  0
   -0.5920    7.2720   -1.5460 H   0  0  0  0  0  0  0  0  0  0  0  0
   -0.9429    9.7948    2.0178 H   0  0  0  0  0  0  0  0  0  0  0  0
    0.6288   10.4754    1.4762 H   0  0  0  0  0  0  0  0  0  0  0  0
   -0.8434   11.5046    1.4762 H   0  0  0  0  0  0  0  0  0  0  0  0
   -2.6354    9.5467    0.8708 H   0  0  0  0  0  0  0  0  0  0  0  0
   -2.8457   10.4202   -0.6847 H   0  0  0  0  0  0  0  0  0  0  0  0
   -2.3826    8.6846   -0.6847 H   0  0  0  0  0  0  0  0  0  0  0  0
    1.5725   11.0336   -3.7524 H   0  0  0  0  0  0  0  0  0  0  0  0
    0.5475   12.4040   -4.2983 H   0  0  0  0  0  0  0  0  0  0  0  0
    2.3366   12.5649   -4.2983 H   0  0  0  0  0  0  0  0  0  0  0  0
    3.4730   12.3688   -1.6442 H   0  0  0  0  0  0  0  0  0  0  0  0
    3.2145   13.6793   -2.9292 H   0  0  0  0  0  0  0  0  0  0  0  0
    2.7589   13.9045    0.0585 H   0  0  0  0  0  0  0  0  0  0  0  0
    3.9878   14.7497   -0.9627 H   0  0  0  0  0  0  0  0  0  0  0  0
    2.9045   17.0267   -2.4335 H   0  0  0  0  0  0  0  0  0  0  0  0
    2.9760   15.3890   -3.1681 H   0  0  0  0  0  0  0  0  0  0  0  0
    1.4319   16.3068   -3.1681 H   0  0  0  0  0  0  0  0  0  0  0  0
  1  2  1  0
  2  3  1  0
  3  4  1  0
  4  5  1  0
  5  6  1  0
  6  7  1  0
  7  8  1  0
  7  9  1  0
  2 10  1  0
 10 11  1  0
 11 12  1  0
 12 13  1  0
 13 14  1  1
 13 15  1  0
 15 16  1  0
 16 17  1  0
 17 18  2  0
 18 19  1  0
 19 20  1  0
 20 21  1  0
 21 22  1  0
 22 23  1  0
 22 24  1  0
 24 25  1  0
 24 26  1  0
 19 27  1  0
 27 28  1  6
 27 29  1  0
 29 30  1  0
 30 31  1  0
 31 32  1  6
  7  5  1  0
 31 10  1  0
 31 13  1  0
 27 15  1  0
 24 18  1  0
  1 33  1  0
  1 34  1  0
  1 35  1  0
  2 36  1  6
  3 37  1  0
  3 38  1  0
  4 39  1  0
  4 40  1  0
  5 41  1  1
  8 42  1  0
  8 43  1  0
  8 44  1  0
  9 45  1  0
  9 46  1  0
  9 47  1  0
 10 48  1  1
 11 49  1  0
 11 50  1  0
 12 51  1  0
 12 52  1  0
 14 53  1  0
 14 54  1  0
 14 55  1  0
 15 56  1  6
 16 57  1  0
 16 58  1  0
 17 59  1  0
 19 60  1  1
 20 61  1  0
 20 62  1  0
 21 63  1  0
 21 64  1  0
 22 65  1  1
 23 66  1  0
 25 67  1  0
 25 68  1  0
 25 69  1  0
 26 70  1  0
 26 71  1  0
 26 72  1  0
 28 73  1  0
 28 74  1  0
 28 75  1  0
 29 76  1  0
 29 77  1  0
 30 78  1  0
 30 79  1  0
 32 80  1  0
 32 81  1  0
 32 82  1  0
M  END
>  <meeko>  (2) 
{"is_sidechain": [false], "intermolecular_energy": 2.731, "internal_energy": -0.839}

$$$$
EPH_relaxed_0001_pdb2pqr_Repair_336_r2_0001_out
     RDKit          3D

 82 86  0  0  0  0  0  0  0  0999 V2000
    0.7210   18.2770    0.0120 C   0  0  0  0  0  0  0  0  0  0  0  0
    1.6780   17.0840   -0.0570 C   0  0  2  0  0  0  0  0  0  0  0  0
    3.0200   17.4540   -0.7200 C   0  0  0  0  0  0  0  0  0  0  0  0
    4.1450   17.7320    0.2800 C   0  0  0  0  0  0  0  0  0  0  0  0
    3.7100   18.6840    1.3530 C   0  0  2  0  0  0  0  0  0  0  0  0
    4.1460   20.0370    1.1670 O   0  0  0  0  0  0  0  0  0  0  0  0
    4.6710   19.3540    2.3170 C   0  0  0  0  0  0  0  0  0  0  0  0
    6.1440   19.0990    2.2530 C   0  0  0  0  0  0  0  0  0  0  0  0
    4.1380   19.8680    3.6180 C   0  0  0  0  0  0  0  0  0  0  0  0
    1.0220   15.9360   -0.8150 C   0  0  1  0  0  0  0  0  0  0  0  0
    0.7890   16.2640   -2.3140 C   0  0  0  0  0  0  0  0  0  0  0  0
    0.9930   14.9420   -3.0980 C   0  0  0  0  0  0  0  0  0  0  0  0
    1.0070   13.8420   -2.0110 C   0  0  1  0  0  0  0  0  0  0  0  0
   -0.4970   13.5700   -1.6970 C   0  0  0  0  0  0  0  0  0  0  0  0
    1.7690   12.5250   -2.3710 C   0  0  2  0  0  0  0  0  0  0  0  0
    1.1930   11.7430   -3.5650 C   0  0  0  0  0  0  0  0  0  0  0  0
    0.1620   10.7200   -3.2200 C   0  0  0  0  0  0  0  0  0  0  0  0
   -0.0800   10.2400   -1.9860 C   0  0  0  0  0  0  0  0  0  0  0  0
    0.7900   10.6560   -0.7930 C   0  0  1  0  0  0  0  0  0  0  0  0
    1.1800    9.3990    0.0270 C   0  0  0  0  0  0  0  0  0  0  0  0
   -0.0330    8.5760    0.4490 C   0  0  0  0  0  0  0  0  0  0  0  0
   -0.8400    8.1310   -0.7680 C   0  0  2  0  0  0  0  0  0  0  0  0
   -0.0560    7.2070   -1.5290 O   0  0  0  0  0  0  0  0  0  0  0  0
   -1.2820    9.3130   -1.6760 C   0  0  0  0  0  0  0  0  0  0  0  0
   -2.3660   10.1490   -0.9520 C   0  0  0  0  0  0  0  0  0  0  0  0
   -1.9630    8.7170   -2.9370 C   0  0  0  0  0  0  0  0  0  0  0  0
    2.0410   11.5750   -1.1350 C   0  0  1  0  0  0  0  0  0  0  0  0
    3.2650   10.6870   -1.5170 C   0  0  0  0  0  0  0  0  0  0  0  0
    2.4580   12.3760    0.1550 C   0  0  0  0  0  0  0  0  0  0  0  0
    1.7560   13.7260    0.3920 C   0  0  0  0  0  0  0  0  0  0  0  0
    1.7890   14.5910   -0.8720 C   0  0  2  0  0  0  0  0  0  0  0  0
    3.2900   14.9000   -1.2000 C   0  0  0  0  0  0  0  0  0  0  0  0
    0.5210   18.5263    1.0646 H   0  0  0  0  0  0  0  0  0  0  0  0
    1.1778   19.1430   -0.4895 H   0  0  0  0  0  0  0  0  0  0  0  0
   -0.2234   18.0190   -0.4895 H   0  0  0  0  0  0  0  0  0  0  0  0
    1.8947   16.7727    0.9755 H   0  0  0  0  0  0  0  0  0  0  0  0
    3.3291   16.6200   -1.3672 H   0  0  0  0  0  0  0  0  0  0  0  0
    2.8542   18.3839   -1.2837 H   0  0  0  0  0  0  0  0  0  0  0  0
    4.4495   16.7836    0.7468 H   0  0  0  0  0  0  0  0  0  0  0  0
    4.9834   18.1898   -0.2654 H   0  0  0  0  0  0  0  0  0  0  0  0
    2.7812   18.1164    1.5120 H   0  0  0  0  0  0  0  0  0  0  0  0
    6.5487   19.0289    3.2735 H   0  0  0  0  0  0  0  0  0  0  0  0
    6.3299   18.1553    1.7192 H   0  0  0  0  0  0  0  0  0  0  0  0
    6.6363   19.9253    1.7192 H   0  0  0  0  0  0  0  0  0  0  0  0
    4.6562   19.3682    4.4497 H   0  0  0  0  0  0  0  0  0  0  0  0
    4.3065   20.9532    3.6802 H   0  0  0  0  0  0  0  0  0  0  0  0
    3.0596   19.6602    3.6802 H   0  0  0  0  0  0  0  0  0  0  0  0
    0.1054   15.8219   -0.2177 H   0  0  0  0  0  0  0  0  0  0  0  0
   -0.2336   16.6400   -2.4650 H   0  0  0  0  0  0  0  0  0  0  0  0
    1.4861   17.0408   -2.6614 H   0  0  0  0  0  0  0  0  0  0  0  0
    0.1666   14.7785   -3.8053 H   0  0  0  0  0  0  0  0  0  0  0  0
    1.9165   14.9497   -3.6956 H   0  0  0  0  0  0  0  0  0  0  0  0
   -0.6451   13.5432   -0.6073 H   0  0  0  0  0  0  0  0  0  0  0  0
   -1.1130   14.3713   -2.1311 H   0  0  0  0  0  0  0  0  0  0  0  0
   -0.7933   12.6037   -2.1311 H   0  0  0  0  0  0  0  0  0  0  0  0
    2.7468   12.9023   -2.7049 H   0  0  0  0  0  0  0  0  0  0  0  0
    0.7360   12.4663   -4.2563 H   0  0  0  0  0  0  0  0  0  0  0  0
    2.0371   11.1889   -4.0014 H   0  0  0  0  0  0  0  0  0  0  0  0
   -0.4514   10.3253   -4.0434 H   0  0  0  0  0  0  0  0  0  0  0  0
    0.1663   11.3224   -0.1790 H   0  0  0  0  0  0  0  0  0  0  0  0
    1.8381    8.7673   -0.5877 H   0  0  0  0  0  0  0  0  0  0  0  0
    1.6859    9.7411    0.9419 H   0  0  0  0  0  0  0  0  0  0  0  0
    0.3088    7.6869    0.9991 H   0  0  0  0  0  0  0  0  0  0  0  0
   -0.6757    9.1997    1.0877 H   0  0  0  0  0  0  0  0  0  0  0  0
   -1.7616    7.6586   -0.3973 H   0  0  0  0  0  0  0  0  0  0  0  0
   -0.6650    6.5570   -1.9190 H   0  0  0  0  0  0  0  0  0  0  0  0
   -2.2387   10.0508    0.1362 H   0  0  0  0  0  0  0  0  0  0  0  0
   -2.2661   11.2062   -1.2390 H   0  0  0  0  0  0  0  0  0  0  0  0
   -3.3631    9.7838   -1.2390 H   0  0  0  0  0  0  0  0  0  0  0  0
   -2.7579    8.0213   -2.6302 H   0  0  0  0  0  0  0  0  0  0  0  0
   -2.3984    9.5295   -3.5372 H   0  0  0  0  0  0  0  0  0  0  0  0
   -1.2154    8.1778   -3.5372 H   0  0  0  0  0  0  0  0  0  0  0  0
    3.7583   10.3291   -0.6013 H   0  0  0  0  0  0  0  0  0  0  0  0
    2.9225    9.8258   -2.1096 H   0  0  0  0  0  0  0  0  0  0  0  0
    3.9774   11.2798   -2.1096 H   0  0  0  0  0  0  0  0  0  0  0  0
    2.2509   11.7360    1.0254 H   0  0  0  0  0  0  0  0  0  0  0  0
    3.5192   12.6256    0.0080 H   0  0  0  0  0  0  0  0  0  0  0  0
    0.7090   13.5423    0.6750 H   0  0  0  0  0  0  0  0  0  0  0  0
    2.2844   14.2595    1.1958 H   0  0  0  0  0  0  0  0  0  0  0  0
    3.8538   15.0161   -0.2626 H   0  0  0  0  0  0  0  0  0  0  0  0
    3.7160   14.0707   -1.7838 H   0  0  0  0  0  0  0  0  0  0  0  0
    3.3538   15.8301   -1.7838 H   0  0  0  0  0  0  0  0  0  0  0  0
  1  2  1  0
  2  3  1  0
  3  4  1  0
  4  5  1  0
  5  6  1  0
  6  7  1  0
  7  8  1  0
  7  9  1  0
  2 10  1  0
 10 11  1  0
 11 12  1  0
 12 13  1  0
 13 14  1  1
 13 15  1  0
 15 16  1  0
 16 17  1  0
 17 18  2  0
 18 19  1  0
 19 20  1  0
 20 21  1  0
 21 22  1  0
 22 23  1  0
 22 24  1  0
 24 25  1  0
 24 26  1  0
 19 27  1  0
 27 28  1  6
 27 29  1  0
 29 30  1  0
 30 31  1  0
 31 32  1  6
  7  5  1  0
 31 10  1  0
 31 13  1  0
 27 15  1  0
 24 18  1  0
  1 33  1  0
  1 34  1  0
  1 35  1  0
  2 36  1  1
  3 37  1  0
  3 38  1  0
  4 39  1  0
  4 40  1  0
  5 41  1  1
  8 42  1  0
  8 43  1  0
  8 44  1  0
  9 45  1  0
  9 46  1  0
  9 47  1  0
 10 48  1  1
 11 49  1  0
 11 50  1  0
 12 51  1  0
 12 52  1  0
 14 53  1  0
 14 54  1  0
 14 55  1  0
 15 56  1  6
 16 57  1  0
 16 58  1  0
 17 59  1  0
 19 60  1  1
 20 61  1  0
 20 62  1  0
 21 63  1  0
 21 64  1  0
 22 65  1  1
 23 66  1  0
 25 67  1  0
 25 68  1  0
 25 69  1  0
 26 70  1  0
 26 71  1  0
 26 72  1  0
 28 73  1  0
 28 74  1  0
 28 75  1  0
 29 76  1  0
 29 77  1  0
 30 78  1  0
 30 79  1  0
 32 80  1  0
 32 81  1  0
 32 82  1  0
M  END
>  <meeko>  (3) 
{"is_sidechain": [false], "intermolecular_energy": 2.731, "internal_energy": -0.839}

$$$$
EPH_relaxed_0001_pdb2pqr_Repair_336_r2_0001_out
     RDKit          3D

 82 86  0  0  0  0  0  0  0  0999 V2000
    3.1230   16.9340   -0.5670 C   0  0  0  0  0  0  0  0  0  0  0  0
    1.6340   17.2070   -0.7970 C   0  0  2  0  0  0  0  0  0  0  0  0
    0.9080   17.6020    0.5040 C   0  0  0  0  0  0  0  0  0  0  0  0
    0.5250   19.0830    0.5710 C   0  0  0  0  0  0  0  0  0  0  0  0
   -0.9610   19.2730    0.5290 C   0  0  2  0  0  0  0  0  0  0  0  0
   -1.6790   18.2360   -0.1520 O   0  0  0  0  0  0  0  0  0  0  0  0
   -1.7340   19.5420   -0.7490 C   0  0  0  0  0  0  0  0  0  0  0  0
   -1.0440   19.6350   -2.0740 C   0  0  0  0  0  0  0  0  0  0  0  0
   -3.0780   20.1940   -0.6490 C   0  0  0  0  0  0  0  0  0  0  0  0
    0.9700   15.9800   -1.4120 C   0  0  1  0  0  0  0  0  0  0  0  0
    0.6850   16.1520   -2.9280 C   0  0  0  0  0  0  0  0  0  0  0  0
    0.8830   14.7600   -3.5810 C   0  0  0  0  0  0  0  0  0  0  0  0
    0.9470   13.7760   -2.3900 C   0  0  1  0  0  0  0  0  0  0  0  0
   -0.5430   13.5210   -1.9990 C   0  0  0  0  0  0  0  0  0  0  0  0
    1.7150   12.4370   -2.6400 C   0  0  2  0  0  0  0  0  0  0  0  0
    1.1120   11.5320   -3.7280 C   0  0  0  0  0  0  0  0  0  0  0  0
    0.1070   10.5390   -3.2480 C   0  0  0  0  0  0  0  0  0  0  0  0
   -0.0890   10.1830   -1.9640 C   0  0  0  0  0  0  0  0  0  0  0  0
    0.8130   10.7280   -0.8490 C   0  0  1  0  0  0  0  0  0  0  0  0
    1.2470    9.5650    0.0810 C   0  0  0  0  0  0  0  0  0  0  0  0
    0.0600    8.7760    0.6240 C   0  0  0  0  0  0  0  0  0  0  0  0
   -0.7800    8.2010   -0.5140 C   0  0  2  0  0  0  0  0  0  0  0  0
   -0.0080    7.2130   -1.2030 O   0  0  0  0  0  0  0  0  0  0  0  0
   -1.2670    9.2800   -1.5220 C   0  0  0  0  0  0  0  0  0  0  0  0
   -2.3390   10.1730   -0.8500 C   0  0  0  0  0  0  0  0  0  0  0  0
   -1.9800    8.5520   -2.6930 C   0  0  0  0  0  0  0  0  0  0  0  0
    2.0390   11.6200   -1.3240 C   0  0  1  0  0  0  0  0  0  0  0  0
    3.2630   10.7110   -1.6540 C   0  0  0  0  0  0  0  0  0  0  0  0
    2.4870   12.5530   -0.1360 C   0  0  0  0  0  0  0  0  0  0  0  0
    1.7730   13.9120   -0.0130 C   0  0  0  0  0  0  0  0  0  0  0  0
    1.7540   14.6450   -1.3580 C   0  0  2  0  0  0  0  0  0  0  0  0
    3.2390   14.9350   -1.7660 C   0  0  0  0  0  0  0  0  0  0  0  0
    3.3263   16.8967    0.5134 H   0  0  0  0  0  0  0  0  0  0  0  0
    3.3942   15.9712   -1.0246 H   0  0  0  0  0  0  0  0  0  0  0  0
    3.7181   17.7380   -1.0246 H   0  0  0  0  0  0  0  0  0  0  0  0
    1.5568   18.0584   -1.4892 H   0  0  0  0  0  0  0  0  0  0  0  0
   -0.0104   17.0020    0.5849 H   0  0  0  0  0  0  0  0  0  0  0  0
    1.6074   17.4135    1.3318 H   0  0  0  0  0  0  0  0  0  0  0  0
    0.9127   19.5096    1.5079 H   0  0  0  0  0  0  0  0  0  0  0  0
    0.9606   19.5900   -0.3026 H   0  0  0  0  0  0  0  0  0  0  0  0
   -0.9468   19.7820    1.5040 H   0  0  0  0  0  0  0  0  0  0  0  0
    0.0349   19.7804   -1.9162 H   0  0  0  0  0  0  0  0  0  0  0  0
   -1.2099   18.7064   -2.6398 H   0  0  0  0  0  0  0  0  0  0  0  0
   -1.4499   20.4866   -2.6398 H   0  0  0  0  0  0  0  0  0  0  0  0
   -3.3448   20.3234    0.4103 H   0  0  0  0  0  0  0  0  0  0  0  0
   -3.0463   21.1769   -1.1419 H   0  0  0  0  0  0  0  0  0  0  0  0
   -3.8303   19.5607   -1.1419 H   0  0  0  0  0  0  0  0  0  0  0  0
    0.0748   15.9165   -0.7760 H   0  0  0  0  0  0  0  0  0  0  0  0
   -0.3472   16.4995   -3.0824 H   0  0  0  0  0  0  0  0  0  0  0  0
    1.3595   16.8973   -3.3746 H   0  0  0  0  0  0  0  0  0  0  0  0
    0.0371   14.5167   -4.2407 H   0  0  0  0  0  0  0  0  0  0  0  0
    1.7869   14.7174   -4.2064 H   0  0  0  0  0  0  0  0  0  0  0  0
   -0.6369   13.5049   -0.9031 H   0  0  0  0  0  0  0  0  0  0  0  0
   -1.1724   14.3245   -2.4092 H   0  0  0  0  0  0  0  0  0  0  0  0
   -0.8694   12.5539   -2.4092 H   0  0  0  0  0  0  0  0  0  0  0  0
    2.6763   12.7888   -3.0427 H   0  0  0  0  0  0  0  0  0  0  0  0
    0.6233   12.1765   -4.4735 H   0  0  0  0  0  0  0  0  0  0  0  0
    1.9494   10.9450   -4.1332 H   0  0  0  0  0  0  0  0  0  0  0  0
   -0.5272   10.0572   -4.0067 H   0  0  0  0  0  0  0  0  0  0  0  0
    0.2000   11.4469   -0.2855 H   0  0  0  0  0  0  0  0  0  0  0  0
    1.8942    8.8813   -0.4880 H   0  0  0  0  0  0  0  0  0  0  0  0
    1.7769   10.0039    0.9393 H   0  0  0  0  0  0  0  0  0  0  0  0
    0.4320    7.9509    1.2492 H   0  0  0  0  0  0  0  0  0  0  0  0
   -0.5705    9.4545    1.2174 H   0  0  0  0  0  0  0  0  0  0  0  0
   -1.6828    7.7593   -0.0669 H   0  0  0  0  0  0  0  0  0  0  0  0
    0.8030    7.6430   -1.5230 H   0  0  0  0  0  0  0  0  0  0  0  0
   -2.2470   10.0964    0.2435 H   0  0  0  0  0  0  0  0  0  0  0  0
   -2.1909   11.2185   -1.1581 H   0  0  0  0  0  0  0  0  0  0  0  0
   -3.3406    9.8384   -1.1581 H   0  0  0  0  0  0  0  0  0  0  0  0
   -2.6958    7.8211   -2.2888 H   0  0  0  0  0  0  0  0  0  0  0  0
   -2.5164    9.2879   -3.3100 H   0  0  0  0  0  0  0  0  0  0  0  0
   -1.2330    8.0311   -3.3100 H   0  0  0  0  0  0  0  0  0  0  0  0
    3.7268   10.3665   -0.7179 H   0  0  0  0  0  0  0  0  0  0  0  0
    2.9272    9.8417   -2.2384 H   0  0  0  0  0  0  0  0  0  0  0  0
    3.9981   11.2838   -2.2384 H   0  0  0  0  0  0  0  0  0  0  0  0
    2.3184   12.0025    0.8013 H   0  0  0  0  0  0  0  0  0  0  0  0
    3.5390   12.7984   -0.3437 H   0  0  0  0  0  0  0  0  0  0  0  0
    0.7382   13.7459    0.3210 H   0  0  0  0  0  0  0  0  0  0  0  0
    2.3182   14.5300    0.7156 H   0  0  0  0  0  0  0  0  0  0  0  0
    3.8515   15.0546   -0.8601 H   0  0  0  0  0  0  0  0  0  0  0  0
    3.6261   14.0955   -2.3621 H   0  0  0  0  0  0  0  0  0  0  0  0
    3.2818   15.8585   -2.3621 H   0  0  0  0  0  0  0  0  0  0  0  0
  1  2  1  0
  2  3  1  0
  3  4  1  0
  4  5  1  0
  5  6  1  0
  6  7  1  0
  7  8  1  0
  7  9  1  0
  2 10  1  0
 10 11  1  0
 11 12  1  0
 12 13  1  0
 13 14  1  1
 13 15  1  0
 15 16  1  0
 16 17  1  0
 17 18  2  0
 18 19  1  0
 19 20  1  0
 20 21  1  0
 21 22  1  0
 22 23  1  0
 22 24  1  0
 24 25  1  0
 24 26  1  0
 19 27  1  0
 27 28  1  6
 27 29  1  0
 29 30  1  0
 30 31  1  0
 31 32  1  6
  7  5  1  0
 31 10  1  0
 31 13  1  0
 27 15  1  0
 24 18  1  0
  1 33  1  0
  1 34  1  0
  1 35  1  0
  2 36  1  6
  3 37  1  0
  3 38  1  0
  4 39  1  0
  4 40  1  0
  5 41  1  1
  8 42  1  0
  8 43  1  0
  8 44  1  0
  9 45  1  0
  9 46  1  0
  9 47  1  0
 10 48  1  1
 11 49  1  0
 11 50  1  0
 12 51  1  0
 12 52  1  0
 14 53  1  0
 14 54  1  0
 14 55  1  0
 15 56  1  6
 16 57  1  0
 16 58  1  0
 17 59  1  0
 19 60  1  1
 20 61  1  0
 20 62  1  0
 21 63  1  0
 21 64  1  0
 22 65  1  1
 23 66  1  0
 25 67  1  0
 25 68  1  0
 25 69  1  0
 26 70  1  0
 26 71  1  0
 26 72  1  0
 28 73  1  0
 28 74  1  0
 28 75  1  0
 29 76  1  0
 29 77  1  0
 30 78  1  0
 30 79  1  0
 32 80  1  0
 32 81  1  0
 32 82  1  0
M  END
>  <meeko>  (4) 
{"is_sidechain": [false], "intermolecular_energy": 2.731, "internal_energy": -0.839}

$$$$
EPH_relaxed_0001_pdb2pqr_Repair_336_r2_0001_out
     RDKit          3D

 82 86  0  0  0  0  0  0  0  0999 V2000
   -5.1450    5.8600   -1.7470 C   0  0  0  0  0  0  0  0  0  0  0  0
   -5.4470    7.3610   -1.7910 C   0  0  2  0  0  0  0  0  0  0  0  0
   -5.2300    8.0360   -0.4220 C   0  0  0  0  0  0  0  0  0  0  0  0
   -4.1760    9.1470   -0.4440 C   0  0  0  0  0  0  0  0  0  0  0  0
   -2.8140    8.6130   -0.7690 C   0  0  2  0  0  0  0  0  0  0  0  0
   -1.8000    8.9330    0.1920 O   0  0  0  0  0  0  0  0  0  0  0  0
   -1.6310    9.4960   -1.1190 C   0  0  0  0  0  0  0  0  0  0  0  0
   -1.7550   10.9860   -1.1630 C   0  0  0  0  0  0  0  0  0  0  0  0
   -0.4950    8.8980   -1.8890 C   0  0  0  0  0  0  0  0  0  0  0  0
   -6.8780    7.5900   -2.2630 C   0  0  1  0  0  0  0  0  0  0  0  0
   -7.1770    6.8960   -3.6190 C   0  0  0  0  0  0  0  0  0  0  0  0
   -8.6530    6.4250   -3.5640 C   0  0  0  0  0  0  0  0  0  0  0  0
   -9.2470    7.1460   -2.3310 C   0  0  1  0  0  0  0  0  0  0  0  0
   -9.5930    8.5820   -2.8340 C   0  0  0  0  0  0  0  0  0  0  0  0
  -10.4790    6.4590   -1.6560 C   0  0  2  0  0  0  0  0  0  0  0  0
  -11.7270    6.3360   -2.5470 C   0  0  0  0  0  0  0  0  0  0  0  0
  -12.6800    7.4830   -2.4710 C   0  0  0  0  0  0  0  0  0  0  0  0
  -12.6890    8.4300   -1.5150 C   0  0  0  0  0  0  0  0  0  0  0  0
  -11.7320    8.3500   -0.3180 C   0  0  1  0  0  0  0  0  0  0  0  0
  -12.5160    8.6290    0.9910 C   0  0  0  0  0  0  0  0  0  0  0  0
  -13.2840    9.9470    0.9440 C   0  0  0  0  0  0  0  0  0  0  0  0
  -14.2660    9.9650   -0.2240 C   0  0  2  0  0  0  0  0  0  0  0  0
  -15.2870    8.9910    0.0160 O   0  0  0  0  0  0  0  0  0  0  0  0
  -13.5910    9.6860   -1.5970 C   0  0  0  0  0  0  0  0  0  0  0  0
  -12.7080   10.8940   -1.9970 C   0  0  0  0  0  0  0  0  0  0  0  0
  -14.7100    9.5920   -2.6690 C   0  0  0  0  0  0  0  0  0  0  0  0
  -10.8420    7.0370   -0.2290 C   0  0  1  0  0  0  0  0  0  0  0  0
  -11.6230    5.9150    0.5210 C   0  0  0  0  0  0  0  0  0  0  0  0
   -9.5620    7.3410    0.6370 C   0  0  0  0  0  0  0  0  0  0  0  0
   -8.3380    7.9070   -0.1080 C   0  0  0  0  0  0  0  0  0  0  0  0
   -8.0190    7.0720   -1.3520 C   0  0  2  0  0  0  0  0  0  0  0  0
   -7.6460    5.6270   -0.8760 C   0  0  0  0  0  0  0  0  0  0  0  0
   -5.0786    5.5299   -0.6998 H   0  0  0  0  0  0  0  0  0  0  0  0
   -5.9503    5.3089   -2.2548 H   0  0  0  0  0  0  0  0  0  0  0  0
   -4.1893    5.6632   -2.2548 H   0  0  0  0  0  0  0  0  0  0  0  0
   -4.7436    7.8197   -2.5015 H   0  0  0  0  0  0  0  0  0  0  0  0
   -6.1857    8.4704   -0.0935 H   0  0  0  0  0  0  0  0  0  0  0  0
   -4.8641    7.2590    0.2653 H   0  0  0  0  0  0  0  0  0  0  0  0
   -4.4579    9.8907   -1.2039 H   0  0  0  0  0  0  0  0  0  0  0  0
   -4.1361    9.6015    0.5569 H   0  0  0  0  0  0  0  0  0  0  0  0
   -3.2515    7.7344   -1.2657 H   0  0  0  0  0  0  0  0  0  0  0  0
   -1.7879   11.3816   -0.1371 H   0  0  0  0  0  0  0  0  0  0  0  0
   -0.8891   11.4105   -1.6921 H   0  0  0  0  0  0  0  0  0  0  0  0
   -2.6792   11.2616   -1.6921 H   0  0  0  0  0  0  0  0  0  0  0  0
    0.2553    8.5030   -1.1882 H   0  0  0  0  0  0  0  0  0  0  0  0
   -0.8711    8.0810   -2.5223 H   0  0  0  0  0  0  0  0  0  0  0  0
   -0.0344    9.6705   -2.5223 H   0  0  0  0  0  0  0  0  0  0  0  0
   -6.8896    8.6896   -2.2916 H   0  0  0  0  0  0  0  0  0  0  0  0
   -7.0365    7.6062   -4.4472 H   0  0  0  0  0  0  0  0  0  0  0  0
   -6.4975    6.0475   -3.7869 H   0  0  0  0  0  0  0  0  0  0  0  0
   -9.1881    6.7169   -4.4797 H   0  0  0  0  0  0  0  0  0  0  0  0
   -8.7392    5.3309   -3.4891 H   0  0  0  0  0  0  0  0  0  0  0  0
   -9.7526    9.2444   -1.9705 H   0  0  0  0  0  0  0  0  0  0  0  0
   -8.7620    8.9673   -3.4431 H   0  0  0  0  0  0  0  0  0  0  0  0
  -10.5083    8.5465   -3.4431 H   0  0  0  0  0  0  0  0  0  0  0  0
  -10.1202    5.4307   -1.5017 H   0  0  0  0  0  0  0  0  0  0  0  0
  -11.3918    6.2411   -3.5904 H   0  0  0  0  0  0  0  0  0  0  0  0
  -12.2779    5.4575   -2.1798 H   0  0  0  0  0  0  0  0  0  0  0  0
  -13.4389    7.5604   -3.2635 H   0  0  0  0  0  0  0  0  0  0  0  0
  -10.9794    9.1364   -0.4767 H   0  0  0  0  0  0  0  0  0  0  0  0
  -13.2315    7.8097    1.1549 H   0  0  0  0  0  0  0  0  0  0  0  0
  -11.7847    8.6979    1.8098 H   0  0  0  0  0  0  0  0  0  0  0  0
  -13.8407   10.0729    1.8843 H   0  0  0  0  0  0  0  0  0  0  0  0
  -12.5643   10.7680    0.8101 H   0  0  0  0  0  0  0  0  0  0  0  0
  -14.6895   10.9785   -0.2824 H   0  0  0  0  0  0  0  0  0  0  0  0
  -15.6700    9.1770    0.8900 H   0  0  0  0  0  0  0  0  0  0  0  0
  -12.3409   11.3962   -1.0898 H   0  0  0  0  0  0  0  0  0  0  0  0
  -11.8529   10.5419   -2.5926 H   0  0  0  0  0  0  0  0  0  0  0  0
  -13.3031   11.6019   -2.5926 H   0  0  0  0  0  0  0  0  0  0  0  0
  -15.6879    9.5099   -2.1720 H   0  0  0  0  0  0  0  0  0  0  0  0
  -14.6927   10.4948   -3.2973 H   0  0  0  0  0  0  0  0  0  0  0  0
  -14.5423    8.7048   -3.2973 H   0  0  0  0  0  0  0  0  0  0  0  0
  -11.5217    6.0606    1.6066 H   0  0  0  0  0  0  0  0  0  0  0  0
  -12.6863    5.9596    0.2427 H   0  0  0  0  0  0  0  0  0  0  0  0
  -11.2120    4.9333    0.2427 H   0  0  0  0  0  0  0  0  0  0  0  0
   -9.8481    8.0702    1.4092 H   0  0  0  0  0  0  0  0  0  0  0  0
   -9.2372    6.3638    1.0237 H   0  0  0  0  0  0  0  0  0  0  0  0
   -8.5500    8.9421   -0.4140 H   0  0  0  0  0  0  0  0  0  0  0  0
   -7.4706    7.8752    0.5677 H   0  0  0  0  0  0  0  0  0  0  0  0
   -7.6375    5.5939    0.2235 H   0  0  0  0  0  0  0  0  0  0  0  0
   -8.3889    4.9117   -1.2586 H   0  0  0  0  0  0  0  0  0  0  0  0
   -6.6497    5.3607   -1.2586 H   0  0  0  0  0  0  0  0  0  0  0  0
  1  2  1  0
  2  3  1  0
  3  4  1  0
  4  5  1  0
  5  6  1  0
  6  7  1  0
  7  8  1  0
  7  9  1  0
  2 10  1  0
 10 11  1  0
 11 12  1  0
 12 13  1  0
 13 14  1  6
 13 15  1  0
 15 16  1  0
 16 17  1  0
 17 18  2  0
 18 19  1  0
 19 20  1  0
 20 21  1  0
 21 22  1  0
 22 23  1  0
 22 24  1  0
 24 25  1  0
 24 26  1  0
 19 27  1  0
 27 28  1  1
 27 29  1  0
 29 30  1  0
 30 31  1  0
 31 32  1  1
  7  5  1  0
 31 10  1  0
 31 13  1  0
 27 15  1  0
 24 18  1  0
  1 33  1  0
  1 34  1  0
  1 35  1  0
  2 36  1  6
  3 37  1  0
  3 38  1  0
  4 39  1  0
  4 40  1  0
  5 41  1  6
  8 42  1  0
  8 43  1  0
  8 44  1  0
  9 45  1  0
  9 46  1  0
  9 47  1  0
 10 48  1  6
 11 49  1  0
 11 50  1  0
 12 51  1  0
 12 52  1  0
 14 53  1  0
 14 54  1  0
 14 55  1  0
 15 56  1  1
 16 57  1  0
 16 58  1  0
 17 59  1  0
 19 60  1  6
 20 61  1  0
 20 62  1  0
 21 63  1  0
 21 64  1  0
 22 65  1  6
 23 66  1  0
 25 67  1  0
 25 68  1  0
 25 69  1  0
 26 70  1  0
 26 71  1  0
 26 72  1  0
 28 73  1  0
 28 74  1  0
 28 75  1  0
 29 76  1  0
 29 77  1  0
 30 78  1  0
 30 79  1  0
 32 80  1  0
 32 81  1  0
 32 82  1  0
M  END
>  <meeko>  (5) 
{"is_sidechain": [false], "intermolecular_energy": 2.731, "internal_energy": -0.839}

$$$$
EPH_relaxed_0001_pdb2pqr_Repair_336_r2_0001_out
     RDKit          3D

 82 86  0  0  0  0  0  0  0  0999 V2000
   -0.3130   10.3250   -3.5470 C   0  0  0  0  0  0  0  0  0  0  0  0
    0.8780   10.1890   -2.5940 C   0  0  2  0  0  0  0  0  0  0  0  0
    0.7700    8.9360   -1.7030 C   0  0  0  0  0  0  0  0  0  0  0  0
    0.0620    9.1880   -0.3690 C   0  0  0  0  0  0  0  0  0  0  0  0
   -1.3330    8.6410   -0.3690 C   0  0  2  0  0  0  0  0  0  0  0  0
   -2.0030    8.7090   -1.6350 O   0  0  0  0  0  0  0  0  0  0  0  0
   -2.5680    9.4990   -0.5750 C   0  0  0  0  0  0  0  0  0  0  0  0
   -2.4650   10.9750   -0.7950 C   0  0  0  0  0  0  0  0  0  0  0  0
   -3.8850    8.9880   -0.0790 C   0  0  0  0  0  0  0  0  0  0  0  0
    0.9940   11.4370   -1.7260 C   0  0  1  0  0  0  0  0  0  0  0  0
    2.1080   11.3170   -0.6520 C   0  0  0  0  0  0  0  0  0  0  0  0
    2.7230   12.7300   -0.4860 C   0  0  0  0  0  0  0  0  0  0  0  0
    1.7370   13.6730   -1.2140 C   0  0  1  0  0  0  0  0  0  0  0  0
    0.5850   13.9170   -0.1880 C   0  0  0  0  0  0  0  0  0  0  0  0
    2.3310   15.0180   -1.7450 C   0  0  2  0  0  0  0  0  0  0  0  0
    2.8840   15.9600   -0.6610 C   0  0  0  0  0  0  0  0  0  0  0  0
    1.9030   16.9380   -0.1050 C   0  0  0  0  0  0  0  0  0  0  0  0
    0.7140   17.2510   -0.6530 C   0  0  0  0  0  0  0  0  0  0  0  0
    0.2930   16.6670   -2.0080 C   0  0  1  0  0  0  0  0  0  0  0  0
   -0.2770   17.7980   -2.9040 C   0  0  0  0  0  0  0  0  0  0  0  0
   -1.4040   18.5700   -2.2260 C   0  0  0  0  0  0  0  0  0  0  0  0
   -0.9310   19.1840   -0.9110 C   0  0  2  0  0  0  0  0  0  0  0  0
    0.0420   20.1940   -1.1970 O   0  0  0  0  0  0  0  0  0  0  0  0
   -0.3270   18.1400    0.0700 C   0  0  0  0  0  0  0  0  0  0  0  0
   -1.4530   17.2260    0.6150 C   0  0  0  0  0  0  0  0  0  0  0  0
    0.2390   18.9080    1.2950 C   0  0  0  0  0  0  0  0  0  0  0  0
    1.3880   15.7900   -2.7550 C   0  0  1  0  0  0  0  0  0  0  0  0
    2.3110   16.7070   -3.6130 C   0  0  0  0  0  0  0  0  0  0  0  0
    0.6670   14.8170   -3.7620 C   0  0  0  0  0  0  0  0  0  0  0  0
    0.2100   13.4550   -3.2060 C   0  0  0  0  0  0  0  0  0  0  0  0
    1.3430   12.7680   -2.4380 C   0  0  2  0  0  0  0  0  0  0  0  0
    2.5070   12.4900   -3.4490 C   0  0  0  0  0  0  0  0  0  0  0  0
   -1.2394   10.4308   -2.9634 H   0  0  0  0  0  0  0  0  0  0  0  0
   -0.1757   11.2133   -4.1811 H   0  0  0  0  0  0  0  0  0  0  0  0
   -0.3795    9.4286   -4.1811 H   0  0  0  0  0  0  0  0  0  0  0  0
    1.7828   10.0783   -3.2097 H   0  0  0  0  0  0  0  0  0  0  0  0
    0.2097    8.1658   -2.2534 H   0  0  0  0  0  0  0  0  0  0  0  0
    1.7969    8.6201   -1.4671 H   0  0  0  0  0  0  0  0  0  0  0  0
    0.6347    8.7035    0.4355 H   0  0  0  0  0  0  0  0  0  0  0  0
    0.0036   10.2752   -0.2122 H   0  0  0  0  0  0  0  0  0  0  0  0
   -1.0684    7.9016    0.4013 H   0  0  0  0  0  0  0  0  0  0  0  0
   -2.4291   11.4890    0.1769 H   0  0  0  0  0  0  0  0  0  0  0  0
   -1.5491   11.1982   -1.3618 H   0  0  0  0  0  0  0  0  0  0  0  0
   -3.3410   11.3232   -1.3618 H   0  0  0  0  0  0  0  0  0  0  0  0
   -3.8872    8.9871    1.0210 H   0  0  0  0  0  0  0  0  0  0  0  0
   -4.6926    9.6380   -0.4468 H   0  0  0  0  0  0  0  0  0  0  0  0
   -4.0428    7.9634   -0.4468 H   0  0  0  0  0  0  0  0  0  0  0  0
   -0.0305   11.4805   -1.3279 H   0  0  0  0  0  0  0  0  0  0  0  0
    1.6794   10.9760    0.3019 H   0  0  0  0  0  0  0  0  0  0  0  0
    2.8724   10.5867   -0.9557 H   0  0  0  0  0  0  0  0  0  0  0  0
    2.8013   12.9968    0.5783 H   0  0  0  0  0  0  0  0  0  0  0  0
    3.7411   12.7927   -0.8979 H   0  0  0  0  0  0  0  0  0  0  0  0
    0.9811   13.8331    0.8348 H   0  0  0  0  0  0  0  0  0  0  0  0
    0.1674   14.9235   -0.3381 H   0  0  0  0  0  0  0  0  0  0  0  0
   -0.2048   13.1662   -0.3381 H   0  0  0  0  0  0  0  0  0  0  0  0
    3.2048   14.6785   -2.3205 H   0  0  0  0  0  0  0  0  0  0  0  0
    3.2553   15.3416    0.1695 H   0  0  0  0  0  0  0  0  0  0  0  0
    3.6672   16.5587   -1.1490 H   0  0  0  0  0  0  0  0  0  0  0  0
    2.1747   17.4461    0.8320 H   0  0  0  0  0  0  0  0  0  0  0  0
   -0.4942   15.9301   -1.7908 H   0  0  0  0  0  0  0  0  0  0  0  0
    0.5352   18.4994   -3.1456 H   0  0  0  0  0  0  0  0  0  0  0  0
   -0.6908   17.3299   -3.8094 H   0  0  0  0  0  0  0  0  0  0  0  0
   -1.7443   19.3730   -2.8964 H   0  0  0  0  0  0  0  0  0  0  0  0
   -2.2275   17.8729   -2.0117 H   0  0  0  0  0  0  0  0  0  0  0  0
   -1.8124   19.6118   -0.4109 H   0  0  0  0  0  0  0  0  0  0  0  0
    0.9200   19.7830   -1.1300 H   0  0  0  0  0  0  0  0  0  0  0  0
   -1.4362   17.2396    1.7148 H   0  0  0  0  0  0  0  0  0  0  0  0
   -2.4272   17.5921    0.2586 H   0  0  0  0  0  0  0  0  0  0  0  0
   -1.2951   16.1974    0.2586 H   0  0  0  0  0  0  0  0  0  0  0  0
   -0.1128   18.4307    2.2215 H   0  0  0  0  0  0  0  0  0  0  0  0
    1.3384   18.8859    1.2657 H   0  0  0  0  0  0  0  0  0  0  0  0
   -0.1076   19.9515    1.2657 H   0  0  0  0  0  0  0  0  0  0  0  0
    2.9332   17.3251   -2.9491 H   0  0  0  0  0  0  0  0  0  0  0  0
    2.9586   16.0844   -4.2478 H   0  0  0  0  0  0  0  0  0  0  0  0
    1.6926   17.3587   -4.2478 H   0  0  0  0  0  0  0  0  0  0  0  0
   -0.2240   15.3357   -4.1455 H   0  0  0  0  0  0  0  0  0  0  0  0
    1.4245   14.5775   -4.5228 H   0  0  0  0  0  0  0  0  0  0  0  0
   -0.6417   13.6108   -2.5276 H   0  0  0  0  0  0  0  0  0  0  0  0
   -0.0820   12.8121   -4.0495 H   0  0  0  0  0  0  0  0  0  0  0  0
    3.4304   12.2695   -2.8934 H   0  0  0  0  0  0  0  0  0  0  0  0
    2.2453   11.6291   -4.0817 H   0  0  0  0  0  0  0  0  0  0  0  0
    2.6626   13.3762   -4.0817 H   0  0  0  0  0  0  0  0  0  0  0  0
  1  2  1  0
  2  3  1  0
  3  4  1  0
  4  5  1  0
  5  6  1  0
  6  7  1  0
  7  8  1  0
  7  9  1  0
  2 10  1  0
 10 11  1  0
 11 12  1  0
 12 13  1  0
 13 14  1  1
 13 15  1  0
 15 16  1  0
 16 17  1  0
 17 18  2  0
 18 19  1  0
 19 20  1  0
 20 21  1  0
 21 22  1  0
 22 23  1  0
 22 24  1  0
 24 25  1  0
 24 26  1  0
 19 27  1  0
 27 28  1  6
 27 29  1  0
 29 30  1  0
 30 31  1  0
 31 32  1  6
  7  5  1  0
 31 10  1  0
 31 13  1  0
 27 15  1  0
 24 18  1  0
  1 33  1  0
  1 34  1  0
  1 35  1  0
  2 36  1  6
  3 37  1  0
  3 38  1  0
  4 39  1  0
  4 40  1  0
  5 41  1  1
  8 42  1  0
  8 43  1  0
  8 44  1  0
  9 45  1  0
  9 46  1  0
  9 47  1  0
 10 48  1  1
 11 49  1  0
 11 50  1  0
 12 51  1  0
 12 52  1  0
 14 53  1  0
 14 54  1  0
 14 55  1  0
 15 56  1  6
 16 57  1  0
 16 58  1  0
 17 59  1  0
 19 60  1  1
 20 61  1  0
 20 62  1  0
 21 63  1  0
 21 64  1  0
 22 65  1  1
 23 66  1  0
 25 67  1  0
 25 68  1  0
 25 69  1  0
 26 70  1  0
 26 71  1  0
 26 72  1  0
 28 73  1  0
 28 74  1  0
 28 75  1  0
 29 76  1  0
 29 77  1  0
 30 78  1  0
 30 79  1  0
 32 80  1  0
 32 81  1  0
 32 82  1  0
M  END
>  <meeko>  (6) 
{"is_sidechain": [false], "intermolecular_energy": 2.731, "internal_energy": -0.839}

$$$$
EPH_relaxed_0001_pdb2pqr_Repair_336_r2_0001_out
     RDKit          3D

 82 86  0  0  0  0  0  0  0  0999 V2000
   -0.9290   16.5330   -5.8460 C   0  0  0  0  0  0  0  0  0  0  0  0
    0.1740   15.8450   -6.6560 C   0  0  2  0  0  0  0  0  0  0  0  0
   -0.2110   15.6800   -8.1390 C   0  0  0  0  0  0  0  0  0  0  0  0
    0.4820   16.6780   -9.0700 C   0  0  0  0  0  0  0  0  0  0  0  0
    1.8680   16.2340   -9.4270 C   0  0  2  0  0  0  0  0  0  0  0  0
    2.3530   16.7330  -10.6800 O   0  0  0  0  0  0  0  0  0  0  0  0
    2.1770   15.3100  -10.5900 C   0  0  0  0  0  0  0  0  0  0  0  0
    1.0930   14.7730  -11.4700 C   0  0  0  0  0  0  0  0  0  0  0  0
    3.4630   14.5440  -10.5720 C   0  0  0  0  0  0  0  0  0  0  0  0
    0.4950   14.4850   -6.0460 C   0  0  1  0  0  0  0  0  0  0  0  0
    1.6980   13.7900   -6.7380 C   0  0  0  0  0  0  0  0  0  0  0  0
    2.4580   13.0090   -5.6350 C   0  0  0  0  0  0  0  0  0  0  0  0
    1.4940   13.0060   -4.4250 C   0  0  1  0  0  0  0  0  0  0  0  0
    0.4830   11.8540   -4.7210 C   0  0  0  0  0  0  0  0  0  0  0  0
    2.1540   12.8470   -3.0160 C   0  0  2  0  0  0  0  0  0  0  0  0
    2.9020   11.5220   -2.7910 C   0  0  0  0  0  0  0  0  0  0  0  0
    2.0800   10.4140   -2.2210 C   0  0  0  0  0  0  0  0  0  0  0  0
    0.8750   10.5550   -1.6370 C   0  0  0  0  0  0  0  0  0  0  0  0
    0.2630   11.9450   -1.4180 C   0  0  1  0  0  0  0  0  0  0  0  0
   -0.2880   12.0460    0.0280 C   0  0  0  0  0  0  0  0  0  0  0  0
   -1.2620   10.9210    0.3640 C   0  0  0  0  0  0  0  0  0  0  0  0
   -0.5990    9.5560    0.1900 C   0  0  2  0  0  0  0  0  0  0  0  0
    0.4290    9.4140    1.1750 O   0  0  0  0  0  0  0  0  0  0  0  0
    0.0020    9.3430   -1.2270 C   0  0  0  0  0  0  0  0  0  0  0  0
   -1.1410    9.1960   -2.2610 C   0  0  0  0  0  0  0  0  0  0  0  0
    0.7620    7.9890   -1.2250 C   0  0  0  0  0  0  0  0  0  0  0  0
    1.1870   13.1780   -1.8070 C   0  0  1  0  0  0  0  0  0  0  0  0
    2.0990   13.5610   -0.6010 C   0  0  0  0  0  0  0  0  0  0  0  0
    0.2790   14.4310   -2.0930 C   0  0  0  0  0  0  0  0  0  0  0  0
   -0.2440   14.5970   -3.5330 C   0  0  0  0  0  0  0  0  0  0  0  0
    0.8930   14.4530   -4.5490 C   0  0  2  0  0  0  0  0  0  0  0  0
    1.9150   15.6120   -4.2900 C   0  0  0  0  0  0  0  0  0  0  0  0
   -0.7277   16.4074   -4.7719 H   0  0  0  0  0  0  0  0  0  0  0  0
   -0.9504   17.6049   -6.0922 H   0  0  0  0  0  0  0  0  0  0  0  0
   -1.9010   16.0808   -6.0922 H   0  0  0  0  0  0  0  0  0  0  0  0
    1.0644   16.4897   -6.6168 H   0  0  0  0  0  0  0  0  0  0  0  0
    0.0603   14.6625   -8.4570 H   0  0  0  0  0  0  0  0  0  0  0  0
   -1.2921   15.8690   -8.2131 H   0  0  0  0  0  0  0  0  0  0  0  0
   -0.1097   16.7751   -9.9922 H   0  0  0  0  0  0  0  0  0  0  0  0
    0.5557   17.6419   -8.5451 H   0  0  0  0  0  0  0  0  0  0  0  0
    2.1576   16.2072   -8.3661 H   0  0  0  0  0  0  0  0  0  0  0  0
    0.2806   14.3706  -10.8470 H   0  0  0  0  0  0  0  0  0  0  0  0
    0.7019   15.5816  -12.1050 H   0  0  0  0  0  0  0  0  0  0  0  0
    1.4993   13.9720  -12.1050 H   0  0  0  0  0  0  0  0  0  0  0  0
    3.7673   14.3628   -9.5306 H   0  0  0  0  0  0  0  0  0  0  0  0
    3.3237   13.5816  -11.0861 H   0  0  0  0  0  0  0  0  0  0  0  0
    4.2430   15.1248  -11.0861 H   0  0  0  0  0  0  0  0  0  0  0  0
   -0.4745   13.9851   -6.1880 H   0  0  0  0  0  0  0  0  0  0  0  0
    1.3403   13.0976   -7.5143 H   0  0  0  0  0  0  0  0  0  0  0  0
    2.3543   14.5272   -7.2236 H   0  0  0  0  0  0  0  0  0  0  0  0
    2.6717   11.9813   -5.9639 H   0  0  0  0  0  0  0  0  0  0  0  0
    3.4291   13.4660   -5.3938 H   0  0  0  0  0  0  0  0  0  0  0  0
    0.1158   11.4356   -3.7722 H   0  0  0  0  0  0  0  0  0  0  0  0
   -0.3647   12.2497   -5.2997 H   0  0  0  0  0  0  0  0  0  0  0  0
    0.9854   11.0649   -5.2997 H   0  0  0  0  0  0  0  0  0  0  0  0
    2.9288   13.6278   -3.0289 H   0  0  0  0  0  0  0  0  0  0  0  0
    3.2985   11.1867   -3.7607 H   0  0  0  0  0  0  0  0  0  0  0  0
    3.6823   11.7361   -2.0458 H   0  0  0  0  0  0  0  0  0  0  0  0
    2.4935    9.3966   -2.2833 H   0  0  0  0  0  0  0  0  0  0  0  0
   -0.5635   12.0307   -2.1387 H   0  0  0  0  0  0  0  0  0  0  0  0
    0.5570   12.0023    0.7309 H   0  0  0  0  0  0  0  0  0  0  0  0
   -0.8353   12.9966    0.1106 H   0  0  0  0  0  0  0  0  0  0  0  0
   -1.5926   11.0305    1.4074 H   0  0  0  0  0  0  0  0  0  0  0  0
   -2.1213   10.9841   -0.3198 H   0  0  0  0  0  0  0  0  0  0  0  0
   -1.3796    8.7915    0.3174 H   0  0  0  0  0  0  0  0  0  0  0  0
   -0.0030    9.3390    2.0430 H   0  0  0  0  0  0  0  0  0  0  0  0
   -2.0986    9.0728   -1.7339 H   0  0  0  0  0  0  0  0  0  0  0  0
   -1.1828   10.0962   -2.8918 H   0  0  0  0  0  0  0  0  0  0  0  0
   -0.9536    8.3146   -2.8918 H   0  0  0  0  0  0  0  0  0  0  0  0
    0.9408    7.6704   -0.1874 H   0  0  0  0  0  0  0  0  0  0  0  0
    0.1586    7.2291   -1.7431 H   0  0  0  0  0  0  0  0  0  0  0  0
    1.7250    8.1083   -1.7431 H   0  0  0  0  0  0  0  0  0  0  0  0
    1.5741   13.3406    0.3402 H   0  0  0  0  0  0  0  0  0  0  0  0
    3.0308   12.9782   -0.6463 H   0  0  0  0  0  0  0  0  0  0  0  0
    2.3353   14.6344   -0.6463 H   0  0  0  0  0  0  0  0  0  0  0  0
   -0.5943   14.3678   -1.4272 H   0  0  0  0  0  0  0  0  0  0  0  0
    0.9285   15.3019   -1.9209 H   0  0  0  0  0  0  0  0  0  0  0  0
   -1.0034   13.8263   -3.7311 H   0  0  0  0  0  0  0  0  0  0  0  0
   -0.6798   15.6019   -3.6343 H   0  0  0  0  0  0  0  0  0  0  0  0
    2.0408   15.7546   -3.2066 H   0  0  0  0  0  0  0  0  0  0  0  0
    2.8845   15.3535   -4.7408 H   0  0  0  0  0  0  0  0  0  0  0  0
    1.5372   16.5415   -4.7408 H   0  0  0  0  0  0  0  0  0  0  0  0
  1  2  1  0
  2  3  1  0
  3  4  1  0
  4  5  1  0
  5  6  1  0
  6  7  1  0
  7  8  1  0
  7  9  1  0
  2 10  1  0
 10 11  1  0
 11 12  1  0
 12 13  1  0
 13 14  1  6
 13 15  1  0
 15 16  1  0
 16 17  1  0
 17 18  2  0
 18 19  1  0
 19 20  1  0
 20 21  1  0
 21 22  1  0
 22 23  1  0
 22 24  1  0
 24 25  1  0
 24 26  1  0
 19 27  1  0
 27 28  1  1
 27 29  1  0
 29 30  1  0
 30 31  1  0
 31 32  1  6
  7  5  1  0
 31 10  1  0
 31 13  1  0
 27 15  1  0
 24 18  1  0
  1 33  1  0
  1 34  1  0
  1 35  1  0
  2 36  1  6
  3 37  1  0
  3 38  1  0
  4 39  1  0
  4 40  1  0
  5 41  1  1
  8 42  1  0
  8 43  1  0
  8 44  1  0
  9 45  1  0
  9 46  1  0
  9 47  1  0
 10 48  1  1
 11 49  1  0
 11 50  1  0
 12 51  1  0
 12 52  1  0
 14 53  1  0
 14 54  1  0
 14 55  1  0
 15 56  1  6
 16 57  1  0
 16 58  1  0
 17 59  1  0
 19 60  1  6
 20 61  1  0
 20 62  1  0
 21 63  1  0
 21 64  1  0
 22 65  1  1
 23 66  1  0
 25 67  1  0
 25 68  1  0
 25 69  1  0
 26 70  1  0
 26 71  1  0
 26 72  1  0
 28 73  1  0
 28 74  1  0
 28 75  1  0
 29 76  1  0
 29 77  1  0
 30 78  1  0
 30 79  1  0
 32 80  1  0
 32 81  1  0
 32 82  1  0
M  END
>  <meeko>  (7) 
{"is_sidechain": [false], "intermolecular_energy": 2.731, "internal_energy": -0.839}

$$$$
EPH_relaxed_0001_pdb2pqr_Repair_336_r2_0001_out
     RDKit          3D

 82 86  0  0  0  0  0  0  0  0999 V2000
   -2.0810    7.9140   -2.2040 C   0  0  0  0  0  0  0  0  0  0  0  0
   -1.9810    8.5380   -0.8090 C   0  0  2  0  0  0  0  0  0  0  0  0
   -3.3140    8.4570   -0.0390 C   0  0  0  0  0  0  0  0  0  0  0  0
   -4.5490    8.6270   -0.9280 C   0  0  0  0  0  0  0  0  0  0  0  0
   -5.2890    7.3360   -1.1020 C   0  0  2  0  0  0  0  0  0  0  0  0
   -5.4710    6.9280   -2.4640 O   0  0  0  0  0  0  0  0  0  0  0  0
   -6.6670    7.2390   -1.7310 C   0  0  0  0  0  0  0  0  0  0  0  0
   -7.3850    8.4550   -2.2270 C   0  0  0  0  0  0  0  0  0  0  0  0
   -7.5120    6.0430   -1.4220 C   0  0  0  0  0  0  0  0  0  0  0  0
   -1.5300    9.9890   -0.9210 C   0  0  1  0  0  0  0  0  0  0  0  0
   -1.1450   10.6030    0.4520 C   0  0  0  0  0  0  0  0  0  0  0  0
    0.0290   11.5810    0.1920 C   0  0  0  0  0  0  0  0  0  0  0  0
    0.0620   11.7500   -1.3450 C   0  0  1  0  0  0  0  0  0  0  0  0
   -1.0490   12.8020   -1.6570 C   0  0  0  0  0  0  0  0  0  0  0  0
    1.4370   12.1610   -1.9660 C   0  0  2  0  0  0  0  0  0  0  0  0
    1.9730   13.5310   -1.5140 C   0  0  0  0  0  0  0  0  0  0  0  0
    1.5620   14.6880   -2.3620 C   0  0  0  0  0  0  0  0  0  0  0  0
    1.0330   14.6040   -3.5970 C   0  0  0  0  0  0  0  0  0  0  0  0
    0.8910   13.2490   -4.3020 C   0  0  1  0  0  0  0  0  0  0  0  0
    1.4020   13.3690   -5.7620 C   0  0  0  0  0  0  0  0  0  0  0  0
    0.7240   14.5000   -6.5290 C   0  0  0  0  0  0  0  0  0  0  0  0
    0.9370   15.8390   -5.8270 C   0  0  2  0  0  0  0  0  0  0  0  0
    2.3260   16.1770   -5.8920 O   0  0  0  0  0  0  0  0  0  0  0  0
    0.4670   15.8360   -4.3460 C   0  0  0  0  0  0  0  0  0  0  0  0
   -1.0790   15.7710   -4.2900 C   0  0  0  0  0  0  0  0  0  0  0  0
    0.8680   17.1980   -3.7150 C   0  0  0  0  0  0  0  0  0  0  0  0
    1.5120   12.0020   -3.5390 C   0  0  1  0  0  0  0  0  0  0  0  0
    3.0220   11.8540   -3.9000 C   0  0  0  0  0  0  0  0  0  0  0  0
    0.8050   10.6880   -4.0410 C   0  0  0  0  0  0  0  0  0  0  0  0
   -0.4850   10.2690   -3.3090 C   0  0  0  0  0  0  0  0  0  0  0  0
   -0.2820   10.2820   -1.7910 C   0  0  2  0  0  0  0  0  0  0  0  0
    0.8140    9.2180   -1.4450 C   0  0  0  0  0  0  0  0  0  0  0  0
   -2.2544    6.8318   -2.1100 H   0  0  0  0  0  0  0  0  0  0  0  0
   -2.9170    8.3731   -2.7520 H   0  0  0  0  0  0  0  0  0  0  0  0
   -1.1434    8.0889   -2.7520 H   0  0  0  0  0  0  0  0  0  0  0  0
   -1.2374    7.9605   -0.2402 H   0  0  0  0  0  0  0  0  0  0  0  0
   -3.3722    7.4745    0.4523 H   0  0  0  0  0  0  0  0  0  0  0  0
   -3.3199    9.2876    0.6822 H   0  0  0  0  0  0  0  0  0  0  0  0
   -5.2221    9.3641   -0.4658 H   0  0  0  0  0  0  0  0  0  0  0  0
   -4.2137    8.9661   -1.9192 H   0  0  0  0  0  0  0  0  0  0  0  0
   -4.8798    6.9478   -0.1576 H   0  0  0  0  0  0  0  0  0  0  0  0
   -7.7356    9.0488   -1.3700 H   0  0  0  0  0  0  0  0  0  0  0  0
   -6.7001    9.0616   -2.8378 H   0  0  0  0  0  0  0  0  0  0  0  0
   -8.2469    8.1483   -2.8378 H   0  0  0  0  0  0  0  0  0  0  0  0
   -7.5955    5.9249   -0.3316 H   0  0  0  0  0  0  0  0  0  0  0  0
   -8.5143    6.1808   -1.8537 H   0  0  0  0  0  0  0  0  0  0  0  0
   -7.0473    5.1443   -1.8537 H   0  0  0  0  0  0  0  0  0  0  0  0
   -2.4253   10.4237   -1.3894 H   0  0  0  0  0  0  0  0  0  0  0  0
   -2.0021   11.1450    0.8781 H   0  0  0  0  0  0  0  0  0  0  0  0
   -0.8548    9.8193    1.1673 H   0  0  0  0  0  0  0  0  0  0  0  0
   -0.1538   12.5471    0.6852 H   0  0  0  0  0  0  0  0  0  0  0  0
    0.9823   11.2043    0.5911 H   0  0  0  0  0  0  0  0  0  0  0  0
   -1.4603   13.1915   -0.7141 H   0  0  0  0  0  0  0  0  0  0  0  0
   -0.6171   13.6300   -2.2384 H   0  0  0  0  0  0  0  0  0  0  0  0
   -1.8522   12.3256   -2.2384 H   0  0  0  0  0  0  0  0  0  0  0  0
    2.1219   11.4148   -1.5369 H   0  0  0  0  0  0  0  0  0  0  0  0
    1.6143   13.7154   -0.4906 H   0  0  0  0  0  0  0  0  0  0  0  0
    3.0685   13.4701   -1.5929 H   0  0  0  0  0  0  0  0  0  0  0  0
    1.7033   15.6949   -1.9423 H   0  0  0  0  0  0  0  0  0  0  0  0
   -0.1842   13.0168   -4.3006 H   0  0  0  0  0  0  0  0  0  0  0  0
    2.4856   13.5570   -5.7418 H   0  0  0  0  0  0  0  0  0  0  0  0
    1.1635   12.4268   -6.2773 H   0  0  0  0  0  0  0  0  0  0  0  0
    1.1487   14.5531   -7.5423 H   0  0  0  0  0  0  0  0  0  0  0  0
   -0.3558   14.2953   -6.5751 H   0  0  0  0  0  0  0  0  0  0  0  0
    0.3217   16.5871   -6.3484 H   0  0  0  0  0  0  0  0  0  0  0  0
    2.6490   16.2670   -4.9790 H   0  0  0  0  0  0  0  0  0  0  0  0
   -1.4076   15.7572   -3.2403 H   0  0  0  0  0  0  0  0  0  0  0  0
   -1.5016   16.6522   -4.7949 H   0  0  0  0  0  0  0  0  0  0  0  0
   -1.4261   14.8575   -4.7949 H   0  0  0  0  0  0  0  0  0  0  0  0
    0.8437   17.1154   -2.6184 H   0  0  0  0  0  0  0  0  0  0  0  0
    1.8837   17.4678   -4.0399 H   0  0  0  0  0  0  0  0  0  0  0  0
    0.1605   17.9751   -4.0399 H   0  0  0  0  0  0  0  0  0  0  0  0
    3.6159   11.7958   -2.9759 H   0  0  0  0  0  0  0  0  0  0  0  0
    3.1699   10.9371   -4.4893 H   0  0  0  0  0  0  0  0  0  0  0  0
    3.3452   12.7248   -4.4893 H   0  0  0  0  0  0  0  0  0  0  0  0
    0.5539   10.8301   -5.1025 H   0  0  0  0  0  0  0  0  0  0  0  0
    1.5243    9.8801   -3.8411 H   0  0  0  0  0  0  0  0  0  0  0  0
   -1.2912   10.9703   -3.5704 H   0  0  0  0  0  0  0  0  0  0  0  0
   -0.7485    9.2471   -3.6192 H   0  0  0  0  0  0  0  0  0  0  0  0
    0.9062    9.1285   -0.3525 H   0  0  0  0  0  0  0  0  0  0  0  0
    0.5272    8.2447   -1.8697 H   0  0  0  0  0  0  0  0  0  0  0  0
    1.7784    9.5335   -1.8697 H   0  0  0  0  0  0  0  0  0  0  0  0
  1  2  1  0
  2  3  1  0
  3  4  1  0
  4  5  1  0
  5  6  1  0
  6  7  1  0
  7  8  1  0
  7  9  1  0
  2 10  1  0
 10 11  1  0
 11 12  1  0
 12 13  1  0
 13 14  1  1
 13 15  1  0
 15 16  1  0
 16 17  1  0
 17 18  2  0
 18 19  1  0
 19 20  1  0
 20 21  1  0
 21 22  1  0
 22 23  1  0
 22 24  1  0
 24 25  1  0
 24 26  1  0
 19 27  1  0
 27 28  1  6
 27 29  1  0
 29 30  1  0
 30 31  1  0
 31 32  1  6
  7  5  1  0
 31 10  1  0
 31 13  1  0
 27 15  1  0
 24 18  1  0
  1 33  1  0
  1 34  1  0
  1 35  1  0
  2 36  1  1
  3 37  1  0
  3 38  1  0
  4 39  1  0
  4 40  1  0
  5 41  1  1
  8 42  1  0
  8 43  1  0
  8 44  1  0
  9 45  1  0
  9 46  1  0
  9 47  1  0
 10 48  1  6
 11 49  1  0
 11 50  1  0
 12 51  1  0
 12 52  1  0
 14 53  1  0
 14 54  1  0
 14 55  1  0
 15 56  1  1
 16 57  1  0
 16 58  1  0
 17 59  1  0
 19 60  1  6
 20 61  1  0
 20 62  1  0
 21 63  1  0
 21 64  1  0
 22 65  1  6
 23 66  1  0
 25 67  1  0
 25 68  1  0
 25 69  1  0
 26 70  1  0
 26 71  1  0
 26 72  1  0
 28 73  1  0
 28 74  1  0
 28 75  1  0
 29 76  1  0
 29 77  1  0
 30 78  1  0
 30 79  1  0
 32 80  1  0
 32 81  1  0
 32 82  1  0
M  END
>  <meeko>  (8) 
{"is_sidechain": [false], "intermolecular_energy": 2.731, "internal_energy": -0.839}

$$$$
EPH_relaxed_0001_pdb2pqr_Repair_336_r2_0001_out
     RDKit          3D

 82 86  0  0  0  0  0  0  0  0999 V2000
   -3.7290    7.2120   -3.4310 C   0  0  0  0  0  0  0  0  0  0  0  0
   -3.7510    7.2810   -1.9010 C   0  0  2  0  0  0  0  0  0  0  0  0
   -5.1650    7.0540   -1.3300 C   0  0  0  0  0  0  0  0  0  0  0  0
   -6.2840    7.2620   -2.3540 C   0  0  0  0  0  0  0  0  0  0  0  0
   -7.6100    7.4790   -1.6900 C   0  0  2  0  0  0  0  0  0  0  0  0
   -8.1960    6.3000   -1.1240 O   0  0  0  0  0  0  0  0  0  0  0  0
   -8.9120    6.9020   -2.2140 C   0  0  0  0  0  0  0  0  0  0  0  0
   -8.9510    6.0640   -3.4530 C   0  0  0  0  0  0  0  0  0  0  0  0
  -10.1980    7.5510   -1.8050 C   0  0  0  0  0  0  0  0  0  0  0  0
   -3.2110    8.6280   -1.4340 C   0  0  1  0  0  0  0  0  0  0  0  0
   -3.8250    9.0820   -0.0830 C   0  0  0  0  0  0  0  0  0  0  0  0
   -2.7090    9.8370    0.6840 C   0  0  0  0  0  0  0  0  0  0  0  0
   -1.6060   10.0820   -0.3730 C   0  0  1  0  0  0  0  0  0  0  0  0
   -2.0840   11.3370   -1.1680 C   0  0  0  0  0  0  0  0  0  0  0  0
   -0.1530   10.2630    0.1750 C   0  0  2  0  0  0  0  0  0  0  0  0
    0.0510   11.4820    1.0920 C   0  0  0  0  0  0  0  0  0  0  0  0
    0.4550   12.7410    0.3990 C   0  0  0  0  0  0  0  0  0  0  0  0
    0.9230   12.8250   -0.8610 C   0  0  0  0  0  0  0  0  0  0  0  0
    1.1770   11.5610   -1.6930 C   0  0  1  0  0  0  0  0  0  0  0  0
    2.5640   11.6640   -2.3800 C   0  0  0  0  0  0  0  0  0  0  0  0
    2.7180   12.9420   -3.1990 C   0  0  0  0  0  0  0  0  0  0  0  0
    2.5150   14.1770   -2.3250 C   0  0  2  0  0  0  0  0  0  0  0  0
    3.5870   14.2540   -1.3790 O   0  0  0  0  0  0  0  0  0  0  0  0
    1.1550   14.1800   -1.5740 C   0  0  0  0  0  0  0  0  0  0  0  0
    0.0030   14.4010   -2.5850 C   0  0  0  0  0  0  0  0  0  0  0  0
    1.1370   15.4060   -0.6220 C   0  0  0  0  0  0  0  0  0  0  0  0
    0.9720   10.1800   -0.9340 C   0  0  1  0  0  0  0  0  0  0  0  0
    2.2890    9.7740   -0.2030 C   0  0  0  0  0  0  0  0  0  0  0  0
    0.6860    9.0500   -1.9930 C   0  0  0  0  0  0  0  0  0  0  0  0
   -0.7840    8.8390   -2.4040 C   0  0  0  0  0  0  0  0  0  0  0  0
   -1.6870    8.7300   -1.1720 C   0  0  2  0  0  0  0  0  0  0  0  0
   -1.2450    7.4630   -0.3640 C   0  0  0  0  0  0  0  0  0  0  0  0
   -3.4090    6.2085   -3.7482 H   0  0  0  0  0  0  0  0  0  0  0  0
   -4.7368    7.4161   -3.8218 H   0  0  0  0  0  0  0  0  0  0  0  0
   -3.0254    7.9618   -3.8218 H   0  0  0  0  0  0  0  0  0  0  0  0
   -3.1087    6.4716   -1.5238 H   0  0  0  0  0  0  0  0  0  0  0  0
   -5.2260    6.0220   -0.9540 H   0  0  0  0  0  0  0  0  0  0  0  0
   -5.3140    7.8001   -0.5356 H   0  0  0  0  0  0  0  0  0  0  0  0
   -6.0451    8.1421   -2.9692 H   0  0  0  0  0  0  0  0  0  0  0  0
   -6.3549    6.3556   -2.9732 H   0  0  0  0  0  0  0  0  0  0  0  0
   -7.3211    8.4979   -1.3926 H   0  0  0  0  0  0  0  0  0  0  0  0
   -9.0005    5.0008   -3.1752 H   0  0  0  0  0  0  0  0  0  0  0  0
   -9.8378    6.3293   -4.0473 H   0  0  0  0  0  0  0  0  0  0  0  0
   -8.0434    6.2458   -4.0473 H   0  0  0  0  0  0  0  0  0  0  0  0
  -10.2600    7.5823   -0.7072 H   0  0  0  0  0  0  0  0  0  0  0  0
  -10.2347    8.5756   -2.2037 H   0  0  0  0  0  0  0  0  0  0  0  0
  -11.0440    6.9719   -2.2037 H   0  0  0  0  0  0  0  0  0  0  0  0
   -3.4867    9.2481   -2.2997 H   0  0  0  0  0  0  0  0  0  0  0  0
   -4.6807    9.7499   -0.2612 H   0  0  0  0  0  0  0  0  0  0  0  0
   -4.1881    8.2198    0.4955 H   0  0  0  0  0  0  0  0  0  0  0  0
   -3.0869   10.7914    1.0793 H   0  0  0  0  0  0  0  0  0  0  0  0
   -2.3386    9.2673    1.5490 H   0  0  0  0  0  0  0  0  0  0  0  0
   -2.3843   12.1256   -0.4623 H   0  0  0  0  0  0  0  0  0  0  0  0
   -1.2630   11.7047   -1.8010 H   0  0  0  0  0  0  0  0  0  0  0  0
   -2.9416   11.0653   -1.8010 H   0  0  0  0  0  0  0  0  0  0  0  0
   -0.0318    9.3802    0.8199 H   0  0  0  0  0  0  0  0  0  0  0  0
   -0.8954   11.6729    1.6192 H   0  0  0  0  0  0  0  0  0  0  0  0
    0.8841   11.2227    1.7619 H   0  0  0  0  0  0  0  0  0  0  0  0
    0.3626   13.6794    0.9654 H   0  0  0  0  0  0  0  0  0  0  0  0
    0.3846   11.5331   -2.4555 H   0  0  0  0  0  0  0  0  0  0  0  0
    3.3438   11.6462   -1.6044 H   0  0  0  0  0  0  0  0  0  0  0  0
    2.6591   10.8122   -3.0695 H   0  0  0  0  0  0  0  0  0  0  0  0
    3.7277   12.9711   -3.6346 H   0  0  0  0  0  0  0  0  0  0  0  0
    1.9567   12.9444   -3.9930 H   0  0  0  0  0  0  0  0  0  0  0  0
    2.5077   15.0533   -2.9899 H   0  0  0  0  0  0  0  0  0  0  0  0
    3.2120   14.0990   -0.4960 H   0  0  0  0  0  0  0  0  0  0  0  0
   -0.9347   14.5809   -2.0388 H   0  0  0  0  0  0  0  0  0  0  0  0
    0.2319   15.2716   -3.2172 H   0  0  0  0  0  0  0  0  0  0  0  0
   -0.1065   13.5075   -3.2172 H   0  0  0  0  0  0  0  0  0  0  0  0
    1.1421   15.0596    0.4220 H   0  0  0  0  0  0  0  0  0  0  0  0
    2.0261   16.0268   -0.8067 H   0  0  0  0  0  0  0  0  0  0  0  0
    0.2300   16.0004   -0.8067 H   0  0  0  0  0  0  0  0  0  0  0  0
    2.1341    9.8217    0.8850 H   0  0  0  0  0  0  0  0  0  0  0  0
    2.5662    8.7487   -0.4893 H   0  0  0  0  0  0  0  0  0  0  0  0
    3.0953   10.4653   -0.4893 H   0  0  0  0  0  0  0  0  0  0  0  0
    1.2540    9.2949   -2.9026 H   0  0  0  0  0  0  0  0  0  0  0  0
    0.9848    8.1125   -1.5014 H   0  0  0  0  0  0  0  0  0  0  0  0
   -1.1124    9.6916   -3.0166 H   0  0  0  0  0  0  0  0  0  0  0  0
   -0.8573    7.9027   -2.9767 H   0  0  0  0  0  0  0  0  0  0  0  0
   -1.3177    7.6715    0.7136 H   0  0  0  0  0  0  0  0  0  0  0  0
   -1.9014    6.6180   -0.6191 H   0  0  0  0  0  0  0  0  0  0  0  0
   -0.2054    7.2097   -0.6191 H   0  0  0  0  0  0  0  0  0  0  0  0
  1  2  1  0
  2  3  1  0
  3  4  1  0
  4  5  1  0
  5  6  1  0
  6  7  1  0
  7  8  1  0
  7  9  1  0
  2 10  1  0
 10 11  1  0
 11 12  1  0
 12 13  1  0
 13 14  1  6
 13 15  1  0
 15 16  1  0
 16 17  1  0
 17 18  2  0
 18 19  1  0
 19 20  1  0
 20 21  1  0
 21 22  1  0
 22 23  1  0
 22 24  1  0
 24 25  1  0
 24 26  1  0
 19 27  1  0
 27 28  1  1
 27 29  1  0
 29 30  1  0
 30 31  1  0
 31 32  1  1
  7  5  1  0
 31 10  1  0
 31 13  1  0
 27 15  1  0
 24 18  1  0
  1 33  1  0
  1 34  1  0
  1 35  1  0
  2 36  1  1
  3 37  1  0
  3 38  1  0
  4 39  1  0
  4 40  1  0
  5 41  1  1
  8 42  1  0
  8 43  1  0
  8 44  1  0
  9 45  1  0
  9 46  1  0
  9 47  1  0
 10 48  1  6
 11 49  1  0
 11 50  1  0
 12 51  1  0
 12 52  1  0
 14 53  1  0
 14 54  1  0
 14 55  1  0
 15 56  1  1
 16 57  1  0
 16 58  1  0
 17 59  1  0
 19 60  1  6
 20 61  1  0
 20 62  1  0
 21 63  1  0
 21 64  1  0
 22 65  1  6
 23 66  1  0
 25 67  1  0
 25 68  1  0
 25 69  1  0
 26 70  1  0
 26 71  1  0
 26 72  1  0
 28 73  1  0
 28 74  1  0
 28 75  1  0
 29 76  1  0
 29 77  1  0
 30 78  1  0
 30 79  1  0
 32 80  1  0
 32 81  1  0
 32 82  1  0
M  END
>  <meeko>  (9) 
{"is_sidechain": [false], "intermolecular_energy": 2.731, "internal_energy": -0.839}

$$$$
EPH_relaxed_0001_pdb2pqr_Repair_336_r2_0001_out
     RDKit          3D

 82 86  0  0  0  0  0  0  0  0999 V2000
   -0.7820    9.2250   -1.3610 C   0  0  0  0  0  0  0  0  0  0  0  0
    0.2490   10.0900   -2.0910 C   0  0  2  0  0  0  0  0  0  0  0  0
    1.5800    9.3440   -2.3130 C   0  0  0  0  0  0  0  0  0  0  0  0
    2.3880    9.8690   -3.5030 C   0  0  0  0  0  0  0  0  0  0  0  0
    3.8360   10.0420   -3.1570 C   0  0  2  0  0  0  0  0  0  0  0  0
    4.2230   11.3890   -2.8570 O   0  0  0  0  0  0  0  0  0  0  0  0
    4.8190   10.8030   -4.0260 C   0  0  0  0  0  0  0  0  0  0  0  0
    4.3930   11.4410   -5.3110 C   0  0  0  0  0  0  0  0  0  0  0  0
    6.2800   10.5130   -3.8760 C   0  0  0  0  0  0  0  0  0  0  0  0
    0.4960   11.3750   -1.3090 C   0  0  1  0  0  0  0  0  0  0  0  0
    1.6500   11.2360   -0.2810 C   0  0  0  0  0  0  0  0  0  0  0  0
    2.3730   12.6060   -0.2320 C   0  0  0  0  0  0  0  0  0  0  0  0
    1.4220   13.5760   -0.9720 C   0  0  1  0  0  0  0  0  0  0  0  0
    0.3430   13.9650    0.0870 C   0  0  0  0  0  0  0  0  0  0  0  0
    2.0830   14.8390   -1.6130 C   0  0  2  0  0  0  0  0  0  0  0  0
    2.7560   15.8000   -0.6160 C   0  0  0  0  0  0  0  0  0  0  0  0
    1.8760   16.8790   -0.0790 C   0  0  0  0  0  0  0  0  0  0  0  0
    0.6860   17.2470   -0.5910 C   0  0  0  0  0  0  0  0  0  0  0  0
    0.1580   16.6170   -1.8860 C   0  0  1  0  0  0  0  0  0  0  0  0
   -0.3730   17.7310   -2.8250 C   0  0  0  0  0  0  0  0  0  0  0  0
   -1.4070   18.6240   -2.1470 C   0  0  0  0  0  0  0  0  0  0  0  0
   -0.8270   19.2780   -0.8950 C   0  0  2  0  0  0  0  0  0  0  0  0
    0.2000   20.1940   -1.2880 O   0  0  0  0  0  0  0  0  0  0  0  0
   -0.2510   18.2520    0.1210 C   0  0  0  0  0  0  0  0  0  0  0  0
   -1.4110   17.4590    0.7720 C   0  0  0  0  0  0  0  0  0  0  0  0
    0.4290   19.0470    1.2680 C   0  0  0  0  0  0  0  0  0  0  0  0
    1.1490   15.6170   -2.6250 C   0  0  1  0  0  0  0  0  0  0  0  0
    2.0910   16.4110   -3.5810 C   0  0  0  0  0  0  0  0  0  0  0  0
    0.3120   14.6430   -3.5360 C   0  0  0  0  0  0  0  0  0  0  0  0
   -0.2140   13.3540   -2.8760 C   0  0  0  0  0  0  0  0  0  0  0  0
    0.9040   12.6320   -2.1180 C   0  0  2  0  0  0  0  0  0  0  0  0
    1.9940   12.2080   -3.1610 C   0  0  0  0  0  0  0  0  0  0  0  0
   -0.6501    9.3357   -0.2746 H   0  0  0  0  0  0  0  0  0  0  0  0
   -1.7956    9.5470   -1.6420 H   0  0  0  0  0  0  0  0  0  0  0  0
   -0.6411    8.1709   -1.6420 H   0  0  0  0  0  0  0  0  0  0  0  0
   -0.1632   10.3312   -3.0819 H   0  0  0  0  0  0  0  0  0  0  0  0
    2.1919    9.4475   -1.4048 H   0  0  0  0  0  0  0  0  0  0  0  0
    1.3287    8.2957   -2.5321 H   0  0  0  0  0  0  0  0  0  0  0  0
    2.3032    9.1540   -4.3347 H   0  0  0  0  0  0  0  0  0  0  0  0
    1.9832   10.8521   -3.7853 H   0  0  0  0  0  0  0  0  0  0  0  0
    3.8723    9.0388   -2.7073 H   0  0  0  0  0  0  0  0  0  0  0  0
    3.7941   12.3379   -5.0942 H   0  0  0  0  0  0  0  0  0  0  0  0
    5.2828   11.7258   -5.8916 H   0  0  0  0  0  0  0  0  0  0  0  0
    3.7889   10.7283   -5.8916 H   0  0  0  0  0  0  0  0  0  0  0  0
    6.5359   10.4622   -2.8074 H   0  0  0  0  0  0  0  0  0  0  0  0
    6.5139    9.5509   -4.3552 H   0  0  0  0  0  0  0  0  0  0  0  0
    6.8637   11.3128   -4.3552 H   0  0  0  0  0  0  0  0  0  0  0  0
   -0.5019   11.5183   -0.8690 H   0  0  0  0  0  0  0  0  0  0  0  0
    1.2456   10.9855    0.7108 H   0  0  0  0  0  0  0  0  0  0  0  0
    2.3438   10.4336   -0.5723 H   0  0  0  0  0  0  0  0  0  0  0  0
    2.5237   12.9285    0.8088 H   0  0  0  0  0  0  0  0  0  0  0  0
    3.3710   12.5676   -0.6930 H   0  0  0  0  0  0  0  0  0  0  0  0
    0.7514   13.8178    1.0977 H   0  0  0  0  0  0  0  0  0  0  0  0
    0.0633   15.0206   -0.0453 H   0  0  0  0  0  0  0  0  0  0  0  0
   -0.5460   13.3308   -0.0453 H   0  0  0  0  0  0  0  0  0  0  0  0
    2.9003   14.4022   -2.2056 H   0  0  0  0  0  0  0  0  0  0  0  0
    3.1230   15.2060    0.2340 H   0  0  0  0  0  0  0  0  0  0  0  0
    3.5552   16.3086   -1.1752 H   0  0  0  0  0  0  0  0  0  0  0  0
    2.2296   17.4200    0.8111 H   0  0  0  0  0  0  0  0  0  0  0  0
   -0.6685   15.9556   -1.5871 H   0  0  0  0  0  0  0  0  0  0  0  0
    0.4743   18.3543   -3.1469 H   0  0  0  0  0  0  0  0  0  0  0  0
   -0.8634   17.2417   -3.6794 H   0  0  0  0  0  0  0  0  0  0  0  0
   -1.7211   19.4091   -2.8505 H   0  0  0  0  0  0  0  0  0  0  0  0
   -2.2669   18.0043   -1.8528 H   0  0  0  0  0  0  0  0  0  0  0  0
   -1.6496   19.7986   -0.3828 H   0  0  0  0  0  0  0  0  0  0  0  0
   -0.2110   20.8750   -1.8470 H   0  0  0  0  0  0  0  0  0  0  0  0
   -1.3257   17.5173    1.8671 H   0  0  0  0  0  0  0  0  0  0  0  0
   -2.3725   17.8897    0.4556 H   0  0  0  0  0  0  0  0  0  0  0  0
   -1.3587   16.4068    0.4556 H   0  0  0  0  0  0  0  0  0  0  0  0
    0.0915   18.6525    2.2378 H   0  0  0  0  0  0  0  0  0  0  0  0
    1.5212   18.9421    1.1895 H   0  0  0  0  0  0  0  0  0  0  0  0
    0.1561   20.1097    1.1895 H   0  0  0  0  0  0  0  0  0  0  0  0
    2.7986   17.0075   -2.9864 H   0  0  0  0  0  0  0  0  0  0  0  0
    2.6483   15.7061   -4.2155 H   0  0  0  0  0  0  0  0  0  0  0  0
    1.4906   17.0796   -4.2155 H   0  0  0  0  0  0  0  0  0  0  0  0
   -0.5571   15.2031   -3.9113 H   0  0  0  0  0  0  0  0  0  0  0  0
    1.0123   14.3031   -4.3132 H   0  0  0  0  0  0  0  0  0  0  0  0
   -1.0181   13.6126   -2.1713 H   0  0  0  0  0  0  0  0  0  0  0  0
   -0.5930   12.6857   -3.6633 H   0  0  0  0  0  0  0  0  0  0  0  0
    2.8923   11.8586   -2.6310 H   0  0  0  0  0  0  0  0  0  0  0  0
    1.6018   11.3969   -3.7921 H   0  0  0  0  0  0  0  0  0  0  0  0
    2.2530   13.0710   -3.7921 H   0  0  0  0  0  0  0  0  0  0  0  0
  1  2  1  0
  2  3  1  0
  3  4  1  0
  4  5  1  0
  5  6  1  0
  6  7  1  0
  7  8  1  0
  7  9  1  0
  2 10  1  0
 10 11  1  0
 11 12  1  0
 12 13  1  0
 13 14  1  1
 13 15  1  0
 15 16  1  0
 16 17  1  0
 17 18  2  0
 18 19  1  0
 19 20  1  0
 20 21  1  0
 21 22  1  0
 22 23  1  0
 22 24  1  0
 24 25  1  0
 24 26  1  0
 19 27  1  0
 27 28  1  6
 27 29  1  0
 29 30  1  0
 30 31  1  0
 31 32  1  6
  7  5  1  0
 31 10  1  0
 31 13  1  0
 27 15  1  0
 24 18  1  0
  1 33  1  0
  1 34  1  0
  1 35  1  0
  2 36  1  6
  3 37  1  0
  3 38  1  0
  4 39  1  0
  4 40  1  0
  5 41  1  1
  8 42  1  0
  8 43  1  0
  8 44  1  0
  9 45  1  0
  9 46  1  0
  9 47  1  0
 10 48  1  1
 11 49  1  0
 11 50  1  0
 12 51  1  0
 12 52  1  0
 14 53  1  0
 14 54  1  0
 14 55  1  0
 15 56  1  6
 16 57  1  0
 16 58  1  0
 17 59  1  0
 19 60  1  1
 20 61  1  0
 20 62  1  0
 21 63  1  0
 21 64  1  0
 22 65  1  1
 23 66  1  0
 25 67  1  0
 25 68  1  0
 25 69  1  0
 26 70  1  0
 26 71  1  0
 26 72  1  0
 28 73  1  0
 28 74  1  0
 28 75  1  0
 29 76  1  0
 29 77  1  0
 30 78  1  0
 30 79  1  0
 32 80  1  0
 32 81  1  0
 32 82  1  0
M  END
>  <meeko>  (10) 
{"is_sidechain": [false], "intermolecular_energy": 2.731, "internal_energy": -0.839}

$$$$
EPH_relaxed_0001_pdb2pqr_Repair_336_r2_0001_out
     RDKit          3D

 82 86  0  0  0  0  0  0  0  0999 V2000
    0.2570   16.0310   -8.2260 C   0  0  0  0  0  0  0  0  0  0  0  0
    1.5060   16.0750   -7.3410 C   0  0  2  0  0  0  0  0  0  0  0  0
    2.6060   15.1170   -7.8400 C   0  0  0  0  0  0  0  0  0  0  0  0
    2.2930   14.4720   -9.1930 C   0  0  0  0  0  0  0  0  0  0  0  0
    2.8110   15.2970  -10.3320 C   0  0  2  0  0  0  0  0  0  0  0  0
    1.9450   16.3630  -10.7420 O   0  0  0  0  0  0  0  0  0  0  0  0
    2.1690   15.3220  -11.7060 C   0  0  0  0  0  0  0  0  0  0  0  0
    0.9520   14.5070  -12.0140 C   0  0  0  0  0  0  0  0  0  0  0  0
    2.9980   15.7520  -12.8760 C   0  0  0  0  0  0  0  0  0  0  0  0
    1.1350   15.7380   -5.9010 C   0  0  1  0  0  0  0  0  0  0  0  0
   -0.2100   16.3790   -5.4660 C   0  0  0  0  0  0  0  0  0  0  0  0
   -0.8930   15.3740   -4.5030 C   0  0  0  0  0  0  0  0  0  0  0  0
    0.2150   14.3510   -4.1560 C   0  0  1  0  0  0  0  0  0  0  0  0
    1.0610   15.0400   -3.0400 C   0  0  0  0  0  0  0  0  0  0  0  0
   -0.2690   12.9300   -3.7210 C   0  0  2  0  0  0  0  0  0  0  0  0
   -1.1080   12.8930   -2.4310 C   0  0  0  0  0  0  0  0  0  0  0  0
   -0.3310   12.7080   -1.1700 C   0  0  0  0  0  0  0  0  0  0  0  0
    0.9470   12.2930   -1.0920 C   0  0  0  0  0  0  0  0  0  0  0  0
    1.7150   11.8680   -2.3500 C   0  0  1  0  0  0  0  0  0  0  0  0
    2.4570   10.5330   -2.0780 C   0  0  0  0  0  0  0  0  0  0  0  0
    3.3510   10.6020   -0.8430 C   0  0  0  0  0  0  0  0  0  0  0  0
    2.5410   10.9700    0.3970 C   0  0  2  0  0  0  0  0  0  0  0  0
    1.6400    9.8980    0.6950 O   0  0  0  0  0  0  0  0  0  0  0  0
    1.7420   12.2940    0.2370 C   0  0  0  0  0  0  0  0  0  0  0  0
    2.7220   13.4930    0.2160 C   0  0  0  0  0  0  0  0  0  0  0  0
    0.8600   12.4760    1.5010 C   0  0  0  0  0  0  0  0  0  0  0  0
    0.8740   11.8350   -3.6980 C   0  0  1  0  0  0  0  0  0  0  0  0
    0.1690   10.4530   -3.8520 C   0  0  0  0  0  0  0  0  0  0  0  0
    1.8570   11.9710   -4.9210 C   0  0  0  0  0  0  0  0  0  0  0  0
    2.2020   13.4000   -5.3790 C   0  0  0  0  0  0  0  0  0  0  0  0
    0.9340   14.2430   -5.5500 C   0  0  2  0  0  0  0  0  0  0  0  0
    0.0730   13.5870   -6.6830 C   0  0  0  0  0  0  0  0  0  0  0  0
   -0.6410   15.9994   -7.5915 H   0  0  0  0  0  0  0  0  0  0  0  0
    0.2258   16.9286   -8.8611 H   0  0  0  0  0  0  0  0  0  0  0  0
    0.2891   15.1334   -8.8611 H   0  0  0  0  0  0  0  0  0  0  0  0
    1.9110   17.0965   -7.3912 H   0  0  0  0  0  0  0  0  0  0  0  0
    3.5439   15.6841   -7.9342 H   0  0  0  0  0  0  0  0  0  0  0  0
    2.6804   14.3021   -7.1049 H   0  0  0  0  0  0  0  0  0  0  0  0
    2.7614   13.4774   -9.2310 H   0  0  0  0  0  0  0  0  0  0  0  0
    1.2002   14.3964   -9.2928 H   0  0  0  0  0  0  0  0  0  0  0  0
    3.8493   15.1384  -10.0054 H   0  0  0  0  0  0  0  0  0  0  0  0
    0.4765   14.1886  -11.0746 H   0  0  0  0  0  0  0  0  0  0  0  0
    0.2428   15.1130  -12.5969 H   0  0  0  0  0  0  0  0  0  0  0  0
    1.2423   13.6205  -12.5969 H   0  0  0  0  0  0  0  0  0  0  0  0
    3.9206   16.2305  -12.5156 H   0  0  0  0  0  0  0  0  0  0  0  0
    3.2548   14.8734  -13.4861 H   0  0  0  0  0  0  0  0  0  0  0  0
    2.4277   16.4680  -13.4861 H   0  0  0  0  0  0  0  0  0  0  0  0
    2.0240   16.1291   -5.3845 H   0  0  0  0  0  0  0  0  0  0  0  0
   -0.0258   17.3328   -4.9500 H   0  0  0  0  0  0  0  0  0  0  0  0
   -0.8483   16.5877   -6.3372 H   0  0  0  0  0  0  0  0  0  0  0  0
   -1.2475   15.8852   -3.5958 H   0  0  0  0  0  0  0  0  0  0  0  0
   -1.7747   14.8965   -4.9552 H   0  0  0  0  0  0  0  0  0  0  0  0
    0.6847   14.7336   -2.0528 H   0  0  0  0  0  0  0  0  0  0  0  0
    2.1144   14.7396   -3.1403 H   0  0  0  0  0  0  0  0  0  0  0  0
    0.9801   16.1324   -3.1403 H   0  0  0  0  0  0  0  0  0  0  0  0
   -0.9578   12.6562   -4.5338 H   0  0  0  0  0  0  0  0  0  0  0  0
   -1.6573   13.8430   -2.3555 H   0  0  0  0  0  0  0  0  0  0  0  0
   -1.7611   12.0121   -2.5180 H   0  0  0  0  0  0  0  0  0  0  0  0
   -0.8467   12.9297   -0.2240 H   0  0  0  0  0  0  0  0  0  0  0  0
    2.4449   12.6676   -2.5448 H   0  0  0  0  0  0  0  0  0  0  0  0
    1.7107    9.7387   -1.9293 H   0  0  0  0  0  0  0  0  0  0  0  0
    3.1009   10.3259   -2.9454 H   0  0  0  0  0  0  0  0  0  0  0  0
    3.8242    9.6215   -0.6859 H   0  0  0  0  0  0  0  0  0  0  0  0
    4.1152   11.3763   -1.0057 H   0  0  0  0  0  0  0  0  0  0  0  0
    3.2534   11.1308    1.2196 H   0  0  0  0  0  0  0  0  0  0  0  0
    2.1510    9.0710    0.6770 H   0  0  0  0  0  0  0  0  0  0  0  0
    2.9629   13.7878    1.2480 H   0  0  0  0  0  0  0  0  0  0  0  0
    3.6450   13.2030   -0.3075 H   0  0  0  0  0  0  0  0  0  0  0  0
    2.2542   14.3398   -0.3075 H   0  0  0  0  0  0  0  0  0  0  0  0
    1.4788   12.3483    2.4014 H   0  0  0  0  0  0  0  0  0  0  0  0
    0.4195   13.4840    1.4987 H   0  0  0  0  0  0  0  0  0  0  0  0
    0.0565   11.7247    1.4987 H   0  0  0  0  0  0  0  0  0  0  0  0
   -0.0434   10.0367   -2.8562 H   0  0  0  0  0  0  0  0  0  0  0  0
   -0.7736   10.5817   -4.4042 H   0  0  0  0  0  0  0  0  0  0  0  0
    0.8265    9.7655   -4.4042 H   0  0  0  0  0  0  0  0  0  0  0  0
    2.7988   11.4726   -4.6479 H   0  0  0  0  0  0  0  0  0  0  0  0
    1.3246   11.5174   -5.7700 H   0  0  0  0  0  0  0  0  0  0  0  0
    2.8494   13.8727   -4.6257 H   0  0  0  0  0  0  0  0  0  0  0  0
    2.7178   13.3422   -6.3488 H   0  0  0  0  0  0  0  0  0  0  0  0
   -0.7249   12.9790   -6.2317 H   0  0  0  0  0  0  0  0  0  0  0  0
   -0.3746   14.3751   -7.3063 H   0  0  0  0  0  0  0  0  0  0  0  0
    0.7141   12.9463   -7.3063 H   0  0  0  0  0  0  0  0  0  0  0  0
  1  2  1  0
  2  3  1  0
  3  4  1  0
  4  5  1  0
  5  6  1  0
  6  7  1  0
  7  8  1  0
  7  9  1  0
  2 10  1  0
 10 11  1  0
 11 12  1  0
 12 13  1  0
 13 14  1  1
 13 15  1  0
 15 16  1  0
 16 17  1  0
 17 18  2  0
 18 19  1  0
 19 20  1  0
 20 21  1  0
 21 22  1  0
 22 23  1  0
 22 24  1  0
 24 25  1  0
 24 26  1  0
 19 27  1  0
 27 28  1  6
 27 29  1  0
 29 30  1  0
 30 31  1  0
 31 32  1  6
  7  5  1  0
 31 10  1  0
 31 13  1  0
 27 15  1  0
 24 18  1  0
  1 33  1  0
  1 34  1  0
  1 35  1  0
  2 36  1  1
  3 37  1  0
  3 38  1  0
  4 39  1  0
  4 40  1  0
  5 41  1  6
  8 42  1  0
  8 43  1  0
  8 44  1  0
  9 45  1  0
  9 46  1  0
  9 47  1  0
 10 48  1  1
 11 49  1  0
 11 50  1  0
 12 51  1  0
 12 52  1  0
 14 53  1  0
 14 54  1  0
 14 55  1  0
 15 56  1  6
 16 57  1  0
 16 58  1  0
 17 59  1  0
 19 60  1  6
 20 61  1  0
 20 62  1  0
 21 63  1  0
 21 64  1  0
 22 65  1  1
 23 66  1  0
 25 67  1  0
 25 68  1  0
 25 69  1  0
 26 70  1  0
 26 71  1  0
 26 72  1  0
 28 73  1  0
 28 74  1  0
 28 75  1  0
 29 76  1  0
 29 77  1  0
 30 78  1  0
 30 79  1  0
 32 80  1  0
 32 81  1  0
 32 82  1  0
M  END
>  <meeko>  (11) 
{"is_sidechain": [false], "intermolecular_energy": 2.731, "internal_energy": -0.839}

$$$$
EPH_relaxed_0001_pdb2pqr_Repair_336_r2_0001_out
     RDKit          3D

 82 86  0  0  0  0  0  0  0  0999 V2000
    0.2510   16.7740   -6.1370 C   0  0  0  0  0  0  0  0  0  0  0  0
   -0.0970   16.3160   -4.7180 C   0  0  2  0  0  0  0  0  0  0  0  0
    0.7480   17.0400   -3.6500 C   0  0  0  0  0  0  0  0  0  0  0  0
   -0.0610   17.9950   -2.7690 C   0  0  0  0  0  0  0  0  0  0  0  0
    0.5140   18.0970   -1.3890 C   0  0  2  0  0  0  0  0  0  0  0  0
   -0.1300   17.2720   -0.4090 O   0  0  0  0  0  0  0  0  0  0  0  0
   -0.2370   18.6910   -0.2120 C   0  0  0  0  0  0  0  0  0  0  0  0
   -1.6270   19.2240   -0.3610 C   0  0  0  0  0  0  0  0  0  0  0  0
    0.5500   19.1980    0.9570 C   0  0  0  0  0  0  0  0  0  0  0  0
    0.0910   14.8080   -4.5980 C   0  0  1  0  0  0  0  0  0  0  0  0
    1.0190   14.2320   -5.7010 C   0  0  0  0  0  0  0  0  0  0  0  0
    1.8170   13.0720   -5.0530 C   0  0  0  0  0  0  0  0  0  0  0  0
    1.0940   12.8020   -3.7130 C   0  0  1  0  0  0  0  0  0  0  0  0
   -0.1330   11.9150   -4.0900 C   0  0  0  0  0  0  0  0  0  0  0  0
    1.9550   12.1470   -2.5830 C   0  0  2  0  0  0  0  0  0  0  0  0
    2.4960   10.7430   -2.9060 C   0  0  0  0  0  0  0  0  0  0  0  0
    1.6120    9.6100   -2.5020 C   0  0  0  0  0  0  0  0  0  0  0  0
    0.5700    9.6950   -1.6550 C   0  0  0  0  0  0  0  0  0  0  0  0
    0.2500   11.0090   -0.9290 C   0  0  1  0  0  0  0  0  0  0  0  0
   -0.0130   10.7190    0.5730 C   0  0  0  0  0  0  0  0  0  0  0  0
   -1.0890    9.6590    0.7840 C   0  0  0  0  0  0  0  0  0  0  0  0
   -0.7080    8.3500    0.0970 C   0  0  2  0  0  0  0  0  0  0  0  0
    0.4380    7.8010    0.7540 O   0  0  0  0  0  0  0  0  0  0  0  0
   -0.4100    8.5190   -1.4190 C   0  0  0  0  0  0  0  0  0  0  0  0
   -1.7260    8.8230   -2.1780 C   0  0  0  0  0  0  0  0  0  0  0  0
    0.0980    7.1560   -1.9610 C   0  0  0  0  0  0  0  0  0  0  0  0
    1.2860   12.1930   -1.1500 C   0  0  1  0  0  0  0  0  0  0  0  0
    2.4470   12.0850   -0.1140 C   0  0  0  0  0  0  0  0  0  0  0  0
    0.5670   13.5650   -0.8690 C   0  0  0  0  0  0  0  0  0  0  0  0
   -0.1660   14.2210   -2.0550 C   0  0  0  0  0  0  0  0  0  0  0  0
    0.7340   14.2740   -3.2930 C   0  0  2  0  0  0  0  0  0  0  0  0
    1.9670   15.1780   -2.9510 C   0  0  0  0  0  0  0  0  0  0  0  0
    0.9158   17.6490   -6.0872 H   0  0  0  0  0  0  0  0  0  0  0  0
    0.7587   15.9577   -6.6716 H   0  0  0  0  0  0  0  0  0  0  0  0
   -0.6715   17.0444   -6.6716 H   0  0  0  0  0  0  0  0  0  0  0  0
   -1.1505   16.5748   -4.5356 H   0  0  0  0  0  0  0  0  0  0  0  0
    1.2143   16.2820   -3.0035 H   0  0  0  0  0  0  0  0  0  0  0  0
    1.4910   17.6487   -4.1862 H   0  0  0  0  0  0  0  0  0  0  0  0
   -0.0595   18.9935   -3.2306 H   0  0  0  0  0  0  0  0  0  0  0  0
   -1.0846   17.6008   -2.6858 H   0  0  0  0  0  0  0  0  0  0  0  0
    1.5180   18.2875   -1.7960 H   0  0  0  0  0  0  0  0  0  0  0  0
   -2.0641   19.3916    0.6344 H   0  0  0  0  0  0  0  0  0  0  0  0
   -1.5979   20.1747   -0.9135 H   0  0  0  0  0  0  0  0  0  0  0  0
   -2.2410   18.4975   -0.9135 H   0  0  0  0  0  0  0  0  0  0  0  0
    0.0622   18.8837    1.8915 H   0  0  0  0  0  0  0  0  0  0  0  0
    1.5693   18.7863    0.9191 H   0  0  0  0  0  0  0  0  0  0  0  0
    0.5965   20.2964    0.9191 H   0  0  0  0  0  0  0  0  0  0  0  0
   -0.9587   14.4851   -4.6603 H   0  0  0  0  0  0  0  0  0  0  0  0
    0.4188   13.8553   -6.5423 H   0  0  0  0  0  0  0  0  0  0  0  0
    1.6952   15.0063   -6.0923 H   0  0  0  0  0  0  0  0  0  0  0  0
    1.7930   12.1785   -5.6941 H   0  0  0  0  0  0  0  0  0  0  0  0
    2.8783   13.3240   -4.9110 H   0  0  0  0  0  0  0  0  0  0  0  0
   -0.6244   11.5597   -3.1722 H   0  0  0  0  0  0  0  0  0  0  0  0
   -0.8460   12.5078   -4.6818 H   0  0  0  0  0  0  0  0  0  0  0  0
    0.2064   11.0521   -4.6818 H   0  0  0  0  0  0  0  0  0  0  0  0
    2.8356   12.8051   -2.5455 H   0  0  0  0  0  0  0  0  0  0  0  0
    2.6525   10.6810   -3.9930 H   0  0  0  0  0  0  0  0  0  0  0  0
    3.4204   10.6312   -2.3204 H   0  0  0  0  0  0  0  0  0  0  0  0
    1.8310    8.6220   -2.9332 H   0  0  0  0  0  0  0  0  0  0  0  0
   -0.6635   11.4024   -1.3990 H   0  0  0  0  0  0  0  0  0  0  0  0
    0.9224   10.3685    1.0336 H   0  0  0  0  0  0  0  0  0  0  0  0
   -0.3675   11.6516    1.0362 H   0  0  0  0  0  0  0  0  0  0  0  0
   -1.2092    9.4779    1.8623 H   0  0  0  0  0  0  0  0  0  0  0  0
   -2.0308   10.0232    0.3476 H   0  0  0  0  0  0  0  0  0  0  0  0
   -1.5717    7.6732    0.1738 H   0  0  0  0  0  0  0  0  0  0  0  0
    1.1670    8.4370    0.6570 H   0  0  0  0  0  0  0  0  0  0  0  0
   -2.5325    9.0093   -1.4535 H   0  0  0  0  0  0  0  0  0  0  0  0
   -1.5878    9.7129   -2.8097 H   0  0  0  0  0  0  0  0  0  0  0  0
   -1.9921    7.9627   -2.8097 H   0  0  0  0  0  0  0  0  0  0  0  0
    0.3445    6.4947   -1.1172 H   0  0  0  0  0  0  0  0  0  0  0  0
   -0.6868    6.6900   -2.5749 H   0  0  0  0  0  0  0  0  0  0  0  0
    0.9964    7.3174   -2.5749 H   0  0  0  0  0  0  0  0  0  0  0  0
    2.0340   12.1234    0.9048 H   0  0  0  0  0  0  0  0  0  0  0  0
    2.9797   11.1334   -0.2581 H   0  0  0  0  0  0  0  0  0  0  0  0
    3.1461   12.9220   -0.2581 H   0  0  0  0  0  0  0  0  0  0  0  0
   -0.1730   13.3960   -0.0728 H   0  0  0  0  0  0  0  0  0  0  0  0
    1.3744   14.2647   -0.6071 H   0  0  0  0  0  0  0  0  0  0  0  0
   -1.0670   13.6353   -2.2898 H   0  0  0  0  0  0  0  0  0  0  0  0
   -0.4379   15.2492   -1.7743 H   0  0  0  0  0  0  0  0  0  0  0  0
    2.0730   15.2557   -1.8589 H   0  0  0  0  0  0  0  0  0  0  0  0
    2.8779   14.7322   -3.3770 H   0  0  0  0  0  0  0  0  0  0  0  0
    1.8158   16.1808   -3.3770 H   0  0  0  0  0  0  0  0  0  0  0  0
  1  2  1  0
  2  3  1  0
  3  4  1  0
  4  5  1  0
  5  6  1  0
  6  7  1  0
  7  8  1  0
  7  9  1  0
  2 10  1  0
 10 11  1  0
 11 12  1  0
 12 13  1  0
 13 14  1  6
 13 15  1  0
 15 16  1  0
 16 17  1  0
 17 18  2  0
 18 19  1  0
 19 20  1  0
 20 21  1  0
 21 22  1  0
 22 23  1  0
 22 24  1  0
 24 25  1  0
 24 26  1  0
 19 27  1  0
 27 28  1  1
 27 29  1  0
 29 30  1  0
 30 31  1  0
 31 32  1  1
  7  5  1  0
 31 10  1  0
 31 13  1  0
 27 15  1  0
 24 18  1  0
  1 33  1  0
  1 34  1  0
  1 35  1  0
  2 36  1  1
  3 37  1  0
  3 38  1  0
  4 39  1  0
  4 40  1  0
  5 41  1  6
  8 42  1  0
  8 43  1  0
  8 44  1  0
  9 45  1  0
  9 46  1  0
  9 47  1  0
 10 48  1  6
 11 49  1  0
 11 50  1  0
 12 51  1  0
 12 52  1  0
 14 53  1  0
 14 54  1  0
 14 55  1  0
 15 56  1  1
 16 57  1  0
 16 58  1  0
 17 59  1  0
 19 60  1  6
 20 61  1  0
 20 62  1  0
 21 63  1  0
 21 64  1  0
 22 65  1  6
 23 66  1  0
 25 67  1  0
 25 68  1  0
 25 69  1  0
 26 70  1  0
 26 71  1  0
 26 72  1  0
 28 73  1  0
 28 74  1  0
 28 75  1  0
 29 76  1  0
 29 77  1  0
 30 78  1  0
 30 79  1  0
 32 80  1  0
 32 81  1  0
 32 82  1  0
M  END
>  <meeko>  (12) 
{"is_sidechain": [false], "intermolecular_energy": 2.731, "internal_energy": -0.839}

$$$$
EPH_relaxed_0001_pdb2pqr_Repair_336_r2_0001_out
     RDKit          3D

 82 86  0  0  0  0  0  0  0  0999 V2000
    0.9060   14.9490   -2.6040 C   0  0  0  0  0  0  0  0  0  0  0  0
    1.1710   14.2880   -3.9590 C   0  0  2  0  0  0  0  0  0  0  0  0
    0.4670   15.0280   -5.1140 C   0  0  0  0  0  0  0  0  0  0  0  0
    0.9970   14.6510   -6.5010 C   0  0  0  0  0  0  0  0  0  0  0  0
    0.7810   15.7510   -7.4950 C   0  0  2  0  0  0  0  0  0  0  0  0
    0.3570   15.3120   -8.7920 O   0  0  0  0  0  0  0  0  0  0  0  0
    1.6450   15.9460   -8.7270 C   0  0  0  0  0  0  0  0  0  0  0  0
    2.7900   15.0310   -9.0300 C   0  0  0  0  0  0  0  0  0  0  0  0
    1.6830   17.2990   -9.3670 C   0  0  0  0  0  0  0  0  0  0  0  0
    0.7210   12.8320   -3.9240 C   0  0  1  0  0  0  0  0  0  0  0  0
    1.8440   11.8490   -4.3510 C   0  0  0  0  0  0  0  0  0  0  0  0
    1.6650   10.5670   -3.4990 C   0  0  0  0  0  0  0  0  0  0  0  0
    0.2660   10.7180   -2.8570 C   0  0  1  0  0  0  0  0  0  0  0  0
   -0.7350   10.2710   -3.9680 C   0  0  0  0  0  0  0  0  0  0  0  0
    0.0300    9.9400   -1.5210 C   0  0  2  0  0  0  0  0  0  0  0  0
    0.1330    8.4080   -1.6310 C   0  0  0  0  0  0  0  0  0  0  0  0
   -1.1460    7.7040   -1.9400 C   0  0  0  0  0  0  0  0  0  0  0  0
   -2.3770    8.2390   -1.8410 C   0  0  0  0  0  0  0  0  0  0  0  0
   -2.5780    9.6560   -1.2870 C   0  0  1  0  0  0  0  0  0  0  0  0
   -3.7350    9.6490   -0.2540 C   0  0  0  0  0  0  0  0  0  0  0  0
   -5.0220    9.0560   -0.8200 C   0  0  0  0  0  0  0  0  0  0  0  0
   -4.7960    7.6260   -1.3060 C   0  0  2  0  0  0  0  0  0  0  0  0
   -4.5120    6.7950   -0.1770 O   0  0  0  0  0  0  0  0  0  0  0  0
   -3.6460    7.5080   -2.3450 C   0  0  0  0  0  0  0  0  0  0  0  0
   -4.0830    8.1580   -3.6820 C   0  0  0  0  0  0  0  0  0  0  0  0
   -3.4280    6.0000   -2.6470 C   0  0  0  0  0  0  0  0  0  0  0  0
   -1.2730   10.3770   -0.7380 C   0  0  1  0  0  0  0  0  0  0  0  0
   -1.0430    9.9940    0.7570 C   0  0  0  0  0  0  0  0  0  0  0  0
   -1.4950   11.9350   -0.7680 C   0  0  0  0  0  0  0  0  0  0  0  0
   -1.1320   12.6630   -2.0760 C   0  0  0  0  0  0  0  0  0  0  0  0
    0.2660   12.2610   -2.5580 C   0  0  2  0  0  0  0  0  0  0  0  0
    1.2970   12.7180   -1.4700 C   0  0  0  0  0  0  0  0  0  0  0  0
    1.1841   14.2552   -1.7970 H   0  0  0  0  0  0  0  0  0  0  0  0
    1.5054   15.8676   -2.5207 H   0  0  0  0  0  0  0  0  0  0  0  0
   -0.1619   15.1992   -2.5207 H   0  0  0  0  0  0  0  0  0  0  0  0
    2.2539   14.3388   -4.1452 H   0  0  0  0  0  0  0  0  0  0  0  0
   -0.6062   14.7899   -5.0759 H   0  0  0  0  0  0  0  0  0  0  0  0
    0.6641   16.1013   -4.9755 H   0  0  0  0  0  0  0  0  0  0  0  0
    2.0749   14.4444   -6.4266 H   0  0  0  0  0  0  0  0  0  0  0  0
    0.4482   13.7630   -6.8479 H   0  0  0  0  0  0  0  0  0  0  0  0
    0.4650   16.4407   -6.6984 H   0  0  0  0  0  0  0  0  0  0  0  0
    3.2345   14.6758   -8.0886 H   0  0  0  0  0  0  0  0  0  0  0  0
    2.4278   14.1707   -9.6120 H   0  0  0  0  0  0  0  0  0  0  0  0
    3.5492   15.5740   -9.6120 H   0  0  0  0  0  0  0  0  0  0  0  0
    1.7048   18.0735   -8.5862 H   0  0  0  0  0  0  0  0  0  0  0  0
    2.5839   17.3836   -9.9925 H   0  0  0  0  0  0  0  0  0  0  0  0
    0.7883   17.4340   -9.9925 H   0  0  0  0  0  0  0  0  0  0  0  0
   -0.1346   12.8872   -4.6132 H   0  0  0  0  0  0  0  0  0  0  0  0
    1.7507   11.6090   -5.4204 H   0  0  0  0  0  0  0  0  0  0  0  0
    2.8380   12.2926   -4.1924 H   0  0  0  0  0  0  0  0  0  0  0  0
    1.7062    9.6697   -4.1340 H   0  0  0  0  0  0  0  0  0  0  0  0
    2.4592   10.4516   -2.7467 H   0  0  0  0  0  0  0  0  0  0  0  0
   -1.6442    9.8650   -3.5006 H   0  0  0  0  0  0  0  0  0  0  0  0
   -0.9993   11.1366   -4.5932 H   0  0  0  0  0  0  0  0  0  0  0  0
   -0.2669    9.4964   -4.5932 H   0  0  0  0  0  0  0  0  0  0  0  0
    0.8893   10.2540   -0.9103 H   0  0  0  0  0  0  0  0  0  0  0  0
    0.8523    8.1721   -2.4291 H   0  0  0  0  0  0  0  0  0  0  0  0
    0.4444    8.0517   -0.6380 H   0  0  0  0  0  0  0  0  0  0  0  0
   -1.0768    6.6593   -2.2773 H   0  0  0  0  0  0  0  0  0  0  0  0
   -2.8512   10.2835   -2.1482 H   0  0  0  0  0  0  0  0  0  0  0  0
   -3.4258    9.0533    0.6175 H   0  0  0  0  0  0  0  0  0  0  0  0
   -3.9421   10.6935    0.0220 H   0  0  0  0  0  0  0  0  0  0  0  0
   -5.7923    9.0519   -0.0348 H   0  0  0  0  0  0  0  0  0  0  0  0
   -5.3461    9.6699   -1.6733 H   0  0  0  0  0  0  0  0  0  0  0  0
   -5.7147    7.3012   -1.8164 H   0  0  0  0  0  0  0  0  0  0  0  0
   -4.7990    5.8920   -0.3970 H   0  0  0  0  0  0  0  0  0  0  0  0
   -4.6857    9.0544   -3.4742 H   0  0  0  0  0  0  0  0  0  0  0  0
   -3.1914    8.4416   -4.2605 H   0  0  0  0  0  0  0  0  0  0  0  0
   -4.6821    7.4394   -4.2605 H   0  0  0  0  0  0  0  0  0  0  0  0
   -3.3477    5.4445   -1.7010 H   0  0  0  0  0  0  0  0  0  0  0  0
   -4.2799    5.6153   -3.2269 H   0  0  0  0  0  0  0  0  0  0  0  0
   -2.5021    5.8723   -3.2269 H   0  0  0  0  0  0  0  0  0  0  0  0
   -1.5005   10.7559    1.4053 H   0  0  0  0  0  0  0  0  0  0  0  0
   -1.5031    9.0157    0.9598 H   0  0  0  0  0  0  0  0  0  0  0  0
    0.0368    9.9405    0.9598 H   0  0  0  0  0  0  0  0  0  0  0  0
   -2.5599   12.1234   -0.5668 H   0  0  0  0  0  0  0  0  0  0  0  0
   -0.8048   12.3388   -0.0127 H   0  0  0  0  0  0  0  0  0  0  0  0
   -1.8685   12.4011   -2.8499 H   0  0  0  0  0  0  0  0  0  0  0  0
   -1.1398   13.7468   -1.8879 H   0  0  0  0  0  0  0  0  0  0  0  0
    0.8799   12.5331   -0.4691 H   0  0  0  0  0  0  0  0  0  0  0  0
    2.2313   12.1497   -1.5886 H   0  0  0  0  0  0  0  0  0  0  0  0
    1.5034   13.7919   -1.5886 H   0  0  0  0  0  0  0  0  0  0  0  0
  1  2  1  0
  2  3  1  0
  3  4  1  0
  4  5  1  0
  5  6  1  0
  6  7  1  0
  7  8  1  0
  7  9  1  0
  2 10  1  0
 10 11  1  0
 11 12  1  0
 12 13  1  0
 13 14  1  6
 13 15  1  0
 15 16  1  0
 16 17  1  0
 17 18  2  0
 18 19  1  0
 19 20  1  0
 20 21  1  0
 21 22  1  0
 22 23  1  0
 22 24  1  0
 24 25  1  0
 24 26  1  0
 19 27  1  0
 27 28  1  1
 27 29  1  0
 29 30  1  0
 30 31  1  0
 31 32  1  1
  7  5  1  0
 31 10  1  0
 31 13  1  0
 27 15  1  0
 24 18  1  0
  1 33  1  0
  1 34  1  0
  1 35  1  0
  2 36  1  6
  3 37  1  0
  3 38  1  0
  4 39  1  0
  4 40  1  0
  5 41  1  1
  8 42  1  0
  8 43  1  0
  8 44  1  0
  9 45  1  0
  9 46  1  0
  9 47  1  0
 10 48  1  6
 11 49  1  0
 11 50  1  0
 12 51  1  0
 12 52  1  0
 14 53  1  0
 14 54  1  0
 14 55  1  0
 15 56  1  1
 16 57  1  0
 16 58  1  0
 17 59  1  0
 19 60  1  6
 20 61  1  0
 20 62  1  0
 21 63  1  0
 21 64  1  0
 22 65  1  6
 23 66  1  0
 25 67  1  0
 25 68  1  0
 25 69  1  0
 26 70  1  0
 26 71  1  0
 26 72  1  0
 28 73  1  0
 28 74  1  0
 28 75  1  0
 29 76  1  0
 29 77  1  0
 30 78  1  0
 30 79  1  0
 32 80  1  0
 32 81  1  0
 32 82  1  0
M  END
>  <meeko>  (13) 
{"is_sidechain": [false], "intermolecular_energy": 2.731, "internal_energy": -0.839}

$$$$
EPH_relaxed_0001_pdb2pqr_Repair_336_r2_0001_out
     RDKit          3D

 82 86  0  0  0  0  0  0  0  0999 V2000
   -2.4760    7.7850   -0.0330 C   0  0  0  0  0  0  0  0  0  0  0  0
   -3.1370    9.1650   -0.0830 C   0  0  2  0  0  0  0  0  0  0  0  0
   -4.6100    9.0870   -0.5320 C   0  0  0  0  0  0  0  0  0  0  0  0
   -5.1560    7.6580   -0.6060 C   0  0  0  0  0  0  0  0  0  0  0  0
   -5.9290    7.4250   -1.8690 C   0  0  2  0  0  0  0  0  0  0  0  0
   -6.8520    8.4680   -2.2080 O   0  0  0  0  0  0  0  0  0  0  0  0
   -7.4280    7.1890   -1.9000 C   0  0  0  0  0  0  0  0  0  0  0  0
   -8.2420    7.1740   -0.6450 C   0  0  0  0  0  0  0  0  0  0  0  0
   -8.0180    6.4920   -3.0870 C   0  0  0  0  0  0  0  0  0  0  0  0
   -2.3560   10.0820   -1.0170 C   0  0  1  0  0  0  0  0  0  0  0  0
   -2.9890   11.4950   -1.1340 C   0  0  0  0  0  0  0  0  0  0  0  0
   -1.8170   12.4980   -1.2860 C   0  0  0  0  0  0  0  0  0  0  0  0
   -0.5830   11.6150   -1.5840 C   0  0  1  0  0  0  0  0  0  0  0  0
   -0.6760   11.2980   -3.1100 C   0  0  0  0  0  0  0  0  0  0  0  0
    0.8080   12.2190   -1.2040 C   0  0  2  0  0  0  0  0  0  0  0  0
    1.1870   13.5070   -1.9550 C   0  0  0  0  0  0  0  0  0  0  0  0
    1.9380   13.3040   -3.2290 C   0  0  0  0  0  0  0  0  0  0  0  0
    2.5420   12.1620   -3.6080 C   0  0  0  0  0  0  0  0  0  0  0  0
    2.5870   10.9470   -2.6720 C   0  0  1  0  0  0  0  0  0  0  0  0
    4.0250   10.3660   -2.6470 C   0  0  0  0  0  0  0  0  0  0  0  0
    4.5520   10.0470   -4.0430 C   0  0  0  0  0  0  0  0  0  0  0  0
    4.5460   11.2930   -4.9260 C   0  0  2  0  0  0  0  0  0  0  0  0
    5.5010   12.2260   -4.4130 O   0  0  0  0  0  0  0  0  0  0  0  0
    3.1500   11.9710   -5.0190 C   0  0  0  0  0  0  0  0  0  0  0  0
    2.1910   11.0780   -5.8450 C   0  0  0  0  0  0  0  0  0  0  0  0
    3.3130   13.2900   -5.8210 C   0  0  0  0  0  0  0  0  0  0  0  0
    1.9950   11.1720   -1.2150 C   0  0  1  0  0  0  0  0  0  0  0  0
    3.0990   11.7420   -0.2730 C   0  0  0  0  0  0  0  0  0  0  0  0
    1.5710    9.7810   -0.6120 C   0  0  0  0  0  0  0  0  0  0  0  0
    0.1430    9.2940   -0.9250 C   0  0  0  0  0  0  0  0  0  0  0  0
   -0.8850   10.3930   -0.6420 C   0  0  2  0  0  0  0  0  0  0  0  0
   -0.8310   10.7170    0.8900 C   0  0  0  0  0  0  0  0  0  0  0  0
   -2.3323    7.4850    1.0155 H   0  0  0  0  0  0  0  0  0  0  0  0
   -3.1204    7.0512   -0.5393 H   0  0  0  0  0  0  0  0  0  0  0  0
   -1.5004    7.8272   -0.5393 H   0  0  0  0  0  0  0  0  0  0  0  0
   -3.1239    9.5754    0.9375 H   0  0  0  0  0  0  0  0  0  0  0  0
   -5.2218    9.6559    0.1835 H   0  0  0  0  0  0  0  0  0  0  0  0
   -4.6586    9.5029   -1.5492 H   0  0  0  0  0  0  0  0  0  0  0  0
   -4.3134    6.9519   -0.5683 H   0  0  0  0  0  0  0  0  0  0  0  0
   -5.8358    7.5060    0.2453 H   0  0  0  0  0  0  0  0  0  0  0  0
   -5.0855    6.8750   -2.3117 H   0  0  0  0  0  0  0  0  0  0  0  0
   -7.5716    7.1864    0.2270 H   0  0  0  0  0  0  0  0  0  0  0  0
   -8.8930    8.0603   -0.6196 H   0  0  0  0  0  0  0  0  0  0  0  0
   -8.8599    6.2643   -0.6196 H   0  0  0  0  0  0  0  0  0  0  0  0
   -8.6935    5.6940   -2.7452 H   0  0  0  0  0  0  0  0  0  0  0  0
   -8.5824    7.2153   -3.6938 H   0  0  0  0  0  0  0  0  0  0  0  0
   -7.2114    6.0548   -3.6938 H   0  0  0  0  0  0  0  0  0  0  0  0
   -2.3905    9.4808   -1.9375 H   0  0  0  0  0  0  0  0  0  0  0  0
   -3.6463   11.5440   -2.0146 H   0  0  0  0  0  0  0  0  0  0  0  0
   -3.5979   11.7299   -0.2486 H   0  0  0  0  0  0  0  0  0  0  0  0
   -2.0065   13.1934   -2.1169 H   0  0  0  0  0  0  0  0  0  0  0  0
   -1.6792   13.1173   -0.3874 H   0  0  0  0  0  0  0  0  0  0  0  0
   -0.9832   10.2509   -3.2489 H   0  0  0  0  0  0  0  0  0  0  0  0
   -1.4170   11.9627   -3.5781 H   0  0  0  0  0  0  0  0  0  0  0  0
    0.3067   11.4570   -3.5781 H   0  0  0  0  0  0  0  0  0  0  0  0
    0.6568   12.5179   -0.1562 H   0  0  0  0  0  0  0  0  0  0  0  0
    0.2592   14.0491   -2.1899 H   0  0  0  0  0  0  0  0  0  0  0  0
    1.8635   14.0609   -1.2876 H   0  0  0  0  0  0  0  0  0  0  0  0
    2.0035   14.1602   -3.9165 H   0  0  0  0  0  0  0  0  0  0  0  0
    1.8929   10.2082   -3.0992 H   0  0  0  0  0  0  0  0  0  0  0  0
    4.6943   11.1017   -2.1771 H   0  0  0  0  0  0  0  0  0  0  0  0
    3.9948    9.4247   -2.0786 H   0  0  0  0  0  0  0  0  0  0  0  0
    5.5816    9.6684   -3.9614 H   0  0  0  0  0  0  0  0  0  0  0  0
    3.8989    9.2892   -4.5004 H   0  0  0  0  0  0  0  0  0  0  0  0
    4.8091   10.9761   -5.9460 H   0  0  0  0  0  0  0  0  0  0  0  0
    5.3560   12.2980   -3.4540 H   0  0  0  0  0  0  0  0  0  0  0  0
    1.5593   10.4897   -5.1632 H   0  0  0  0  0  0  0  0  0  0  0  0
    1.5543   11.7124   -6.4792 H   0  0  0  0  0  0  0  0  0  0  0  0
    2.7784   10.3978   -6.4792 H   0  0  0  0  0  0  0  0  0  0  0  0
    3.4172   14.1333   -5.1225 H   0  0  0  0  0  0  0  0  0  0  0  0
    4.2100   13.2255   -6.4544 H   0  0  0  0  0  0  0  0  0  0  0  0
    2.4273   13.4458   -6.4544 H   0  0  0  0  0  0  0  0  0  0  0  0
    2.8019   11.5886    0.7749 H   0  0  0  0  0  0  0  0  0  0  0  0
    4.0490   11.2217   -0.4647 H   0  0  0  0  0  0  0  0  0  0  0  0
    3.2250   12.8178   -0.4647 H   0  0  0  0  0  0  0  0  0  0  0  0
    2.2719    9.0247   -0.9951 H   0  0  0  0  0  0  0  0  0  0  0  0
    1.5946    9.9211    0.4788 H   0  0  0  0  0  0  0  0  0  0  0  0
    0.0839    9.0106   -1.9862 H   0  0  0  0  0  0  0  0  0  0  0  0
   -0.0816    8.4297   -0.2827 H   0  0  0  0  0  0  0  0  0  0  0  0
   -0.9851    9.7926    1.4659 H   0  0  0  0  0  0  0  0  0  0  0  0
    0.1509   11.1453    1.1398 H   0  0  0  0  0  0  0  0  0  0  0  0
   -1.6209   11.4406    1.1398 H   0  0  0  0  0  0  0  0  0  0  0  0
  1  2  1  0
  2  3  1  0
  3  4  1  0
  4  5  1  0
  5  6  1  0
  6  7  1  0
  7  8  1  0
  7  9  1  0
  2 10  1  0
 10 11  1  0
 11 12  1  0
 12 13  1  0
 13 14  1  6
 13 15  1  0
 15 16  1  0
 16 17  1  0
 17 18  2  0
 18 19  1  0
 19 20  1  0
 20 21  1  0
 21 22  1  0
 22 23  1  0
 22 24  1  0
 24 25  1  0
 24 26  1  0
 19 27  1  0
 27 28  1  1
 27 29  1  0
 29 30  1  0
 30 31  1  0
 31 32  1  1
  7  5  1  0
 31 10  1  0
 31 13  1  0
 27 15  1  0
 24 18  1  0
  1 33  1  0
  1 34  1  0
  1 35  1  0
  2 36  1  1
  3 37  1  0
  3 38  1  0
  4 39  1  0
  4 40  1  0
  5 41  1  6
  8 42  1  0
  8 43  1  0
  8 44  1  0
  9 45  1  0
  9 46  1  0
  9 47  1  0
 10 48  1  6
 11 49  1  0
 11 50  1  0
 12 51  1  0
 12 52  1  0
 14 53  1  0
 14 54  1  0
 14 55  1  0
 15 56  1  1
 16 57  1  0
 16 58  1  0
 17 59  1  0
 19 60  1  6
 20 61  1  0
 20 62  1  0
 21 63  1  0
 21 64  1  0
 22 65  1  6
 23 66  1  0
 25 67  1  0
 25 68  1  0
 25 69  1  0
 26 70  1  0
 26 71  1  0
 26 72  1  0
 28 73  1  0
 28 74  1  0
 28 75  1  0
 29 76  1  0
 29 77  1  0
 30 78  1  0
 30 79  1  0
 32 80  1  0
 32 81  1  0
 32 82  1  0
M  END
>  <meeko>  (14) 
{"is_sidechain": [false], "intermolecular_energy": 2.731, "internal_energy": -0.839}

$$$$
EPH_relaxed_0001_pdb2pqr_Repair_336_r2_0001_out
     RDKit          3D

 82 86  0  0  0  0  0  0  0  0999 V2000
    0.5370    7.9010   -2.4810 C   0  0  0  0  0  0  0  0  0  0  0  0
   -0.8650    8.2360   -1.9650 C   0  0  2  0  0  0  0  0  0  0  0  0
   -1.9710    7.6520   -2.8660 C   0  0  0  0  0  0  0  0  0  0  0  0
   -3.2980    7.4170   -2.1390 C   0  0  0  0  0  0  0  0  0  0  0  0
   -4.2740    6.6670   -2.9950 C   0  0  2  0  0  0  0  0  0  0  0  0
   -5.0710    7.4900   -3.8560 O   0  0  0  0  0  0  0  0  0  0  0  0
   -5.7790    6.7700   -2.8340 C   0  0  0  0  0  0  0  0  0  0  0  0
   -6.3940    7.6460   -1.7880 C   0  0  0  0  0  0  0  0  0  0  0  0
   -6.6330    5.6600   -3.3610 C   0  0  0  0  0  0  0  0  0  0  0  0
   -1.0300    9.7470   -1.8510 C   0  0  1  0  0  0  0  0  0  0  0  0
   -2.4810   10.1660   -1.4930 C   0  0  0  0  0  0  0  0  0  0  0  0
   -2.3740   11.4180   -0.5850 C   0  0  0  0  0  0  0  0  0  0  0  0
   -0.9020   11.8740   -0.7220 C   0  0  1  0  0  0  0  0  0  0  0  0
   -0.8540   12.6820   -2.0560 C   0  0  0  0  0  0  0  0  0  0  0  0
   -0.3210   12.6990    0.4730 C   0  0  2  0  0  0  0  0  0  0  0  0
   -1.0170   14.0460    0.7360 C   0  0  0  0  0  0  0  0  0  0  0  0
   -0.4360   15.2150    0.0120 C   0  0  0  0  0  0  0  0  0  0  0  0
    0.7680   15.2440   -0.5890 C   0  0  0  0  0  0  0  0  0  0  0  0
    1.7250   14.0480   -0.4940 C   0  0  1  0  0  0  0  0  0  0  0  0
    3.1500   14.5530   -0.1470 C   0  0  0  0  0  0  0  0  0  0  0  0
    3.6450   15.6200   -1.1180 C   0  0  0  0  0  0  0  0  0  0  0  0
    2.6980   16.8170   -1.1420 C   0  0  2  0  0  0  0  0  0  0  0  0
    2.7500   17.4710    0.1300 O   0  0  0  0  0  0  0  0  0  0  0  0
    1.2290   16.4300   -1.4710 C   0  0  0  0  0  0  0  0  0  0  0  0
    1.1240   16.0020   -2.9560 C   0  0  0  0  0  0  0  0  0  0  0  0
    0.3550   17.7050   -1.3230 C   0  0  0  0  0  0  0  0  0  0  0  0
    1.2530   12.8570    0.4460 C   0  0  1  0  0  0  0  0  0  0  0  0
    1.6980   13.1300    1.9160 C   0  0  0  0  0  0  0  0  0  0  0  0
    1.9800   11.5330    0.0010 C   0  0  0  0  0  0  0  0  0  0  0  0
    1.2950   10.7000   -1.0990 C   0  0  0  0  0  0  0  0  0  0  0  0
   -0.1850   10.4760   -0.7760 C   0  0  2  0  0  0  0  0  0  0  0  0
   -0.2650    9.6470    0.5510 C   0  0  0  0  0  0  0  0  0  0  0  0
    1.2127    7.7395   -1.6282 H   0  0  0  0  0  0  0  0  0  0  0  0
    0.4941    6.9878   -3.0928 H   0  0  0  0  0  0  0  0  0  0  0  0
    0.9115    8.7349   -3.0928 H   0  0  0  0  0  0  0  0  0  0  0  0
   -0.9705    7.7744   -0.9721 H   0  0  0  0  0  0  0  0  0  0  0  0
   -2.1489    8.3523   -3.6955 H   0  0  0  0  0  0  0  0  0  0  0  0
   -1.6170    6.6702   -3.2136 H   0  0  0  0  0  0  0  0  0  0  0  0
   -3.1057    6.8361   -1.2249 H   0  0  0  0  0  0  0  0  0  0  0  0
   -3.7355    8.3972   -1.8984 H   0  0  0  0  0  0  0  0  0  0  0  0
   -3.5955    5.8031   -3.0527 H   0  0  0  0  0  0  0  0  0  0  0  0
   -6.1282    7.2674   -0.7900 H   0  0  0  0  0  0  0  0  0  0  0  0
   -6.0178    8.6733   -1.9026 H   0  0  0  0  0  0  0  0  0  0  0  0
   -7.4880    7.6412   -1.9026 H   0  0  0  0  0  0  0  0  0  0  0  0
   -7.0650    5.0985   -2.5195 H   0  0  0  0  0  0  0  0  0  0  0  0
   -7.4427    6.0804   -3.9755 H   0  0  0  0  0  0  0  0  0  0  0  0
   -6.0191    4.9851   -3.9755 H   0  0  0  0  0  0  0  0  0  0  0  0
   -0.6971   10.0439   -2.8565 H   0  0  0  0  0  0  0  0  0  0  0  0
   -3.0419   10.4083   -2.4077 H   0  0  0  0  0  0  0  0  0  0  0  0
   -3.0124    9.3506   -0.9804 H   0  0  0  0  0  0  0  0  0  0  0  0
   -3.0587   12.2071   -0.9292 H   0  0  0  0  0  0  0  0  0  0  0  0
   -2.6487   11.2019    0.4580 H   0  0  0  0  0  0  0  0  0  0  0  0
   -0.7901   13.7569   -1.8315 H   0  0  0  0  0  0  0  0  0  0  0  0
    0.0276   12.3761   -2.6385 H   0  0  0  0  0  0  0  0  0  0  0  0
   -1.7656   12.4826   -2.6385 H   0  0  0  0  0  0  0  0  0  0  0  0
   -0.5635   12.0643    1.3381 H   0  0  0  0  0  0  0  0  0  0  0  0
   -2.0705   13.9489    0.4349 H   0  0  0  0  0  0  0  0  0  0  0  0
   -0.8830   14.2541    1.8078 H   0  0  0  0  0  0  0  0  0  0  0  0
   -1.0436   16.1308   -0.0343 H   0  0  0  0  0  0  0  0  0  0  0  0
    1.7276   13.5788   -1.4889 H   0  0  0  0  0  0  0  0  0  0  0  0
    3.1361   14.9785    0.8673 H   0  0  0  0  0  0  0  0  0  0  0  0
    3.8345   13.6948   -0.2167 H   0  0  0  0  0  0  0  0  0  0  0  0
    4.6437   15.9573   -0.8037 H   0  0  0  0  0  0  0  0  0  0  0  0
    3.6862   15.1845   -2.1273 H   0  0  0  0  0  0  0  0  0  0  0  0
    3.0333   17.4869   -1.9475 H   0  0  0  0  0  0  0  0  0  0  0  0
    1.8410   17.5290    0.4680 H   0  0  0  0  0  0  0  0  0  0  0  0
    0.8623   14.9351   -3.0125 H   0  0  0  0  0  0  0  0  0  0  0  0
    0.3453   16.5975   -3.4550 H   0  0  0  0  0  0  0  0  0  0  0  0
    2.0899   16.1695   -3.4550 H   0  0  0  0  0  0  0  0  0  0  0  0
    0.2045   17.9245   -0.2557 H   0  0  0  0  0  0  0  0  0  0  0  0
    0.8615   18.5546   -1.8042 H   0  0  0  0  0  0  0  0  0  0  0  0
   -0.6201   17.5390   -1.8042 H   0  0  0  0  0  0  0  0  0  0  0  0
    0.9696   12.6831    2.6086 H   0  0  0  0  0  0  0  0  0  0  0  0
    2.6888   12.6841    2.0880 H   0  0  0  0  0  0  0  0  0  0  0  0
    1.7494   14.2153    2.0880 H   0  0  0  0  0  0  0  0  0  0  0  0
    2.9798   11.8093   -0.3650 H   0  0  0  0  0  0  0  0  0  0  0  0
    1.9770   10.8894    0.8931 H   0  0  0  0  0  0  0  0  0  0  0  0
    1.3773   11.2330   -2.0577 H   0  0  0  0  0  0  0  0  0  0  0  0
    1.7929    9.7209   -1.1585 H   0  0  0  0  0  0  0  0  0  0  0  0
   -0.1993   10.3273    1.4129 H   0  0  0  0  0  0  0  0  0  0  0  0
   -1.2199    9.1021    0.5859 H   0  0  0  0  0  0  0  0  0  0  0  0
    0.5681    8.9295    0.5859 H   0  0  0  0  0  0  0  0  0  0  0  0
  1  2  1  0
  2  3  1  0
  3  4  1  0
  4  5  1  0
  5  6  1  0
  6  7  1  0
  7  8  1  0
  7  9  1  0
  2 10  1  0
 10 11  1  0
 11 12  1  0
 12 13  1  0
 13 14  1  6
 13 15  1  0
 15 16  1  0
 16 17  1  0
 17 18  2  0
 18 19  1  0
 19 20  1  0
 20 21  1  0
 21 22  1  0
 22 23  1  0
 22 24  1  0
 24 25  1  0
 24 26  1  0
 19 27  1  0
 27 28  1  1
 27 29  1  0
 29 30  1  0
 30 31  1  0
 31 32  1  1
  7  5  1  0
 31 10  1  0
 31 13  1  0
 27 15  1  0
 24 18  1  0
  1 33  1  0
  1 34  1  0
  1 35  1  0
  2 36  1  1
  3 37  1  0
  3 38  1  0
  4 39  1  0
  4 40  1  0
  5 41  1  6
  8 42  1  0
  8 43  1  0
  8 44  1  0
  9 45  1  0
  9 46  1  0
  9 47  1  0
 10 48  1  6
 11 49  1  0
 11 50  1  0
 12 51  1  0
 12 52  1  0
 14 53  1  0
 14 54  1  0
 14 55  1  0
 15 56  1  1
 16 57  1  0
 16 58  1  0
 17 59  1  0
 19 60  1  6
 20 61  1  0
 20 62  1  0
 21 63  1  0
 21 64  1  0
 22 65  1  6
 23 66  1  0
 25 67  1  0
 25 68  1  0
 25 69  1  0
 26 70  1  0
 26 71  1  0
 26 72  1  0
 28 73  1  0
 28 74  1  0
 28 75  1  0
 29 76  1  0
 29 77  1  0
 30 78  1  0
 30 79  1  0
 32 80  1  0
 32 81  1  0
 32 82  1  0
M  END
>  <meeko>  (15) 
{"is_sidechain": [false], "intermolecular_energy": 2.731, "internal_energy": -0.839}

$$$$
EPH_relaxed_0001_pdb2pqr_Repair_336_r2_0001_out
     RDKit          3D

 82 86  0  0  0  0  0  0  0  0999 V2000
   -6.1710    7.8460   -2.8850 C   0  0  0  0  0  0  0  0  0  0  0  0
   -5.3360    7.5940   -1.6260 C   0  0  2  0  0  0  0  0  0  0  0  0
   -6.2150    7.2700   -0.4020 C   0  0  0  0  0  0  0  0  0  0  0  0
   -7.6200    6.7820   -0.7650 C   0  0  0  0  0  0  0  0  0  0  0  0
   -8.6060    7.0700    0.3270 C   0  0  2  0  0  0  0  0  0  0  0  0
   -9.6240    6.0750    0.4920 O   0  0  0  0  0  0  0  0  0  0  0  0
  -10.0710    7.3740    0.0720 C   0  0  0  0  0  0  0  0  0  0  0  0
  -10.6320    7.4050   -1.3150 C   0  0  0  0  0  0  0  0  0  0  0  0
  -10.8410    8.1150    1.1210 C   0  0  0  0  0  0  0  0  0  0  0  0
   -4.4610    8.8070   -1.3330 C   0  0  1  0  0  0  0  0  0  0  0  0
   -4.9110    9.5750   -0.0620 C   0  0  0  0  0  0  0  0  0  0  0  0
   -3.6240   10.1130    0.6150 C   0  0  0  0  0  0  0  0  0  0  0  0
   -2.5170    9.9270   -0.4480 C   0  0  1  0  0  0  0  0  0  0  0  0
   -2.6740   11.1480   -1.4080 C   0  0  0  0  0  0  0  0  0  0  0  0
   -1.0550    9.8010    0.0910 C   0  0  2  0  0  0  0  0  0  0  0  0
   -0.5280   11.0360    0.8430 C   0  0  0  0  0  0  0  0  0  0  0  0
    0.1710   12.0470   -0.0030 C   0  0  0  0  0  0  0  0  0  0  0  0
    0.6190   11.8440   -1.2560 C   0  0  0  0  0  0  0  0  0  0  0  0
    0.5250   10.4600   -1.9110 C   0  0  1  0  0  0  0  0  0  0  0  0
    1.8790   10.1130   -2.5860 C   0  0  0  0  0  0  0  0  0  0  0  0
    2.3380   11.1910   -3.5630 C   0  0  0  0  0  0  0  0  0  0  0  0
    2.4750   12.5400   -2.8620 C   0  0  2  0  0  0  0  0  0  0  0  0
    3.5490   12.4630   -1.9190 O   0  0  0  0  0  0  0  0  0  0  0  0
    1.1750   12.9890   -2.1370 C   0  0  0  0  0  0  0  0  0  0  0  0
    0.0980   13.3640   -3.1850 C   0  0  0  0  0  0  0  0  0  0  0  0
    1.4910   14.2930   -1.3550 C   0  0  0  0  0  0  0  0  0  0  0  0
   -0.0110    9.2880   -0.9810 C   0  0  1  0  0  0  0  0  0  0  0  0
    1.1720    8.6580   -0.1840 C   0  0  0  0  0  0  0  0  0  0  0  0
   -0.5970    8.1400   -1.8860 C   0  0  0  0  0  0  0  0  0  0  0  0
   -2.0800    8.2610   -2.2870 C   0  0  0  0  0  0  0  0  0  0  0  0
   -2.9560    8.5490   -1.0640 C   0  0  2  0  0  0  0  0  0  0  0  0
   -2.8370    7.3280   -0.0910 C   0  0  0  0  0  0  0  0  0  0  0  0
   -7.1870    8.1526   -2.5958 H   0  0  0  0  0  0  0  0  0  0  0  0
   -5.7033    8.6430   -3.4817 H   0  0  0  0  0  0  0  0  0  0  0  0
   -6.2223    6.9233   -3.4817 H   0  0  0  0  0  0  0  0  0  0  0  0
   -4.7023    6.7157   -1.8184 H   0  0  0  0  0  0  0  0  0  0  0  0
   -5.7161    6.4856    0.1860 H   0  0  0  0  0  0  0  0  0  0  0  0
   -6.3359    8.2057    0.1636 H   0  0  0  0  0  0  0  0  0  0  0  0
   -7.9475    7.2899   -1.6841 H   0  0  0  0  0  0  0  0  0  0  0  0
   -7.5778    5.6925   -0.9105 H   0  0  0  0  0  0  0  0  0  0  0  0
   -7.8365    7.5887    0.9176 H   0  0  0  0  0  0  0  0  0  0  0  0
  -11.7292    7.4656   -1.2655 H   0  0  0  0  0  0  0  0  0  0  0  0
  -10.2400    8.2829   -1.8495 H   0  0  0  0  0  0  0  0  0  0  0  0
  -10.3391    6.4893   -1.8495 H   0  0  0  0  0  0  0  0  0  0  0  0
  -10.5061    7.7927    2.1180 H   0  0  0  0  0  0  0  0  0  0  0  0
  -10.6685    9.1955    1.0078 H   0  0  0  0  0  0  0  0  0  0  0  0
  -11.9141    7.9012    1.0078 H   0  0  0  0  0  0  0  0  0  0  0  0
   -4.5866    9.3580   -2.2767 H   0  0  0  0  0  0  0  0  0  0  0  0
   -5.5713   10.4104   -0.3381 H   0  0  0  0  0  0  0  0  0  0  0  0
   -5.4702    8.9172    0.6196 H   0  0  0  0  0  0  0  0  0  0  0  0
   -3.7375   11.1756    0.8756 H   0  0  0  0  0  0  0  0  0  0  0  0
   -3.3945    9.5859    1.5528 H   0  0  0  0  0  0  0  0  0  0  0  0
   -2.7922   12.0673   -0.8157 H   0  0  0  0  0  0  0  0  0  0  0  0
   -1.7794   11.2331   -2.0424 H   0  0  0  0  0  0  0  0  0  0  0  0
   -3.5610   11.0040   -2.0424 H   0  0  0  0  0  0  0  0  0  0  0  0
   -1.1503    9.0086    0.8480 H   0  0  0  0  0  0  0  0  0  0  0  0
   -1.3836   11.5303    1.3264 H   0  0  0  0  0  0  0  0  0  0  0  0
    0.2236   10.6618    1.5536 H   0  0  0  0  0  0  0  0  0  0  0  0
    0.3341   13.0430    0.4345 H   0  0  0  0  0  0  0  0  0  0  0  0
   -0.2634   10.5378   -2.6742 H   0  0  0  0  0  0  0  0  0  0  0  0
    2.6437    9.9972   -1.8038 H   0  0  0  0  0  0  0  0  0  0  0  0
    1.7395    9.1827   -3.1562 H   0  0  0  0  0  0  0  0  0  0  0  0
    3.3126   10.9036   -3.9843 H   0  0  0  0  0  0  0  0  0  0  0  0
    1.5866   11.2847   -4.3609 H   0  0  0  0  0  0  0  0  0  0  0  0
    2.6791   13.2943   -3.6362 H   0  0  0  0  0  0  0  0  0  0  0  0
    3.3660   13.1030   -1.2110 H   0  0  0  0  0  0  0  0  0  0  0  0
   -0.8197   13.6835   -2.6695 H   0  0  0  0  0  0  0  0  0  0  0  0
    0.4697   14.1856   -3.8149 H   0  0  0  0  0  0  0  0  0  0  0  0
   -0.1209   12.4892   -3.8149 H   0  0  0  0  0  0  0  0  0  0  0  0
    1.4426   14.0933   -0.2744 H   0  0  0  0  0  0  0  0  0  0  0  0
    2.5000   14.6431   -1.6184 H   0  0  0  0  0  0  0  0  0  0  0  0
    0.7542   15.0662   -1.6184 H   0  0  0  0  0  0  0  0  0  0  0  0
    0.9823    8.7590    0.8948 H   0  0  0  0  0  0  0  0  0  0  0  0
    1.2619    7.5925   -0.4423 H   0  0  0  0  0  0  0  0  0  0  0  0
    2.1063    9.1780   -0.4423 H   0  0  0  0  0  0  0  0  0  0  0  0
   -0.0033    8.1098   -2.8115 H   0  0  0  0  0  0  0  0  0  0  0  0
   -0.5381    7.2298   -1.2711 H   0  0  0  0  0  0  0  0  0  0  0  0
   -2.1914    9.0817   -3.0109 H   0  0  0  0  0  0  0  0  0  0  0  0
   -2.4020    7.3084   -2.7330 H   0  0  0  0  0  0  0  0  0  0  0  0
   -2.8716    7.6835    0.9494 H   0  0  0  0  0  0  0  0  0  0  0  0
   -3.6718    6.6342   -0.2694 H   0  0  0  0  0  0  0  0  0  0  0  0
   -1.8840    6.8085   -0.2694 H   0  0  0  0  0  0  0  0  0  0  0  0
  1  2  1  0
  2  3  1  0
  3  4  1  0
  4  5  1  0
  5  6  1  0
  6  7  1  0
  7  8  1  0
  7  9  1  0
  2 10  1  0
 10 11  1  0
 11 12  1  0
 12 13  1  0
 13 14  1  6
 13 15  1  0
 15 16  1  0
 16 17  1  0
 17 18  2  0
 18 19  1  0
 19 20  1  0
 20 21  1  0
 21 22  1  0
 22 23  1  0
 22 24  1  0
 24 25  1  0
 24 26  1  0
 19 27  1  0
 27 28  1  1
 27 29  1  0
 29 30  1  0
 30 31  1  0
 31 32  1  1
  7  5  1  0
 31 10  1  0
 31 13  1  0
 27 15  1  0
 24 18  1  0
  1 33  1  0
  1 34  1  0
  1 35  1  0
  2 36  1  6
  3 37  1  0
  3 38  1  0
  4 39  1  0
  4 40  1  0
  5 41  1  1
  8 42  1  0
  8 43  1  0
  8 44  1  0
  9 45  1  0
  9 46  1  0
  9 47  1  0
 10 48  1  6
 11 49  1  0
 11 50  1  0
 12 51  1  0
 12 52  1  0
 14 53  1  0
 14 54  1  0
 14 55  1  0
 15 56  1  1
 16 57  1  0
 16 58  1  0
 17 59  1  0
 19 60  1  6
 20 61  1  0
 20 62  1  0
 21 63  1  0
 21 64  1  0
 22 65  1  6
 23 66  1  0
 25 67  1  0
 25 68  1  0
 25 69  1  0
 26 70  1  0
 26 71  1  0
 26 72  1  0
 28 73  1  0
 28 74  1  0
 28 75  1  0
 29 76  1  0
 29 77  1  0
 30 78  1  0
 30 79  1  0
 32 80  1  0
 32 81  1  0
 32 82  1  0
M  END
>  <meeko>  (16) 
{"is_sidechain": [false], "intermolecular_energy": 2.731, "internal_energy": -0.839}

$$$$
EPH_relaxed_0001_pdb2pqr_Repair_336_r2_0001_out
     RDKit          3D

 82 86  0  0  0  0  0  0  0  0999 V2000
    0.7080   14.5880   -4.5660 C   0  0  0  0  0  0  0  0  0  0  0  0
    0.7910   13.9140   -3.1930 C   0  0  2  0  0  0  0  0  0  0  0  0
    2.2060   14.0060   -2.5860 C   0  0  0  0  0  0  0  0  0  0  0  0
    2.2490   14.7170   -1.2310 C   0  0  0  0  0  0  0  0  0  0  0  0
    1.3010   15.8760   -1.1820 C   0  0  2  0  0  0  0  0  0  0  0  0
    1.7070   17.0150   -1.9530 O   0  0  0  0  0  0  0  0  0  0  0  0
    1.6360   17.2040   -0.5300 C   0  0  0  0  0  0  0  0  0  0  0  0
    2.9630   17.4420    0.1190 C   0  0  0  0  0  0  0  0  0  0  0  0
    0.5110   18.0920   -0.0960 C   0  0  0  0  0  0  0  0  0  0  0  0
    0.3650   12.4550   -3.3030 C   0  0  1  0  0  0  0  0  0  0  0  0
    1.5590   11.5030   -3.5750 C   0  0  0  0  0  0  0  0  0  0  0  0
    1.2550   10.1790   -2.8260 C   0  0  0  0  0  0  0  0  0  0  0  0
   -0.2360   10.2890   -2.4290 C   0  0  1  0  0  0  0  0  0  0  0  0
   -1.0240    9.8890   -3.7160 C   0  0  0  0  0  0  0  0  0  0  0  0
   -0.6860    9.4460   -1.1920 C   0  0  2  0  0  0  0  0  0  0  0  0
   -0.5420    7.9230   -1.3530 C   0  0  0  0  0  0  0  0  0  0  0  0
   -1.7380    7.2250   -1.9100 C   0  0  0  0  0  0  0  0  0  0  0  0
   -2.9760    7.7460   -2.0010 C   0  0  0  0  0  0  0  0  0  0  0  0
   -3.2910    9.1330   -1.4250 C   0  0  1  0  0  0  0  0  0  0  0  0
   -4.6080    9.0680   -0.6090 C   0  0  0  0  0  0  0  0  0  0  0  0
   -5.7690    8.4940   -1.4150 C   0  0  0  0  0  0  0  0  0  0  0  0
   -5.4400    7.0910   -1.9210 C   0  0  2  0  0  0  0  0  0  0  0  0
   -5.3420    6.2080   -0.7990 O   0  0  0  0  0  0  0  0  0  0  0  0
   -4.1270    7.0310   -2.7500 C   0  0  0  0  0  0  0  0  0  0  0  0
   -4.3370    7.7410   -4.1100 C   0  0  0  0  0  0  0  0  0  0  0  0
   -3.8380    5.5410   -3.0780 C   0  0  0  0  0  0  0  0  0  0  0  0
   -2.1110    9.8360   -0.6260 C   0  0  1  0  0  0  0  0  0  0  0  0
   -2.1360    9.3840    0.8660 C   0  0  0  0  0  0  0  0  0  0  0  0
   -2.3480   11.3930   -0.6220 C   0  0  0  0  0  0  0  0  0  0  0  0
   -1.7760   12.1850   -1.8130 C   0  0  0  0  0  0  0  0  0  0  0  0
   -0.3110   11.8160   -2.0640 C   0  0  2  0  0  0  0  0  0  0  0  0
    0.5100   12.2280   -0.7940 C   0  0  0  0  0  0  0  0  0  0  0  0
    0.5745   15.6720   -4.4349 H   0  0  0  0  0  0  0  0  0  0  0  0
    1.6364   14.3978   -5.1246 H   0  0  0  0  0  0  0  0  0  0  0  0
   -0.1465   14.1783   -5.1246 H   0  0  0  0  0  0  0  0  0  0  0  0
    0.1069   14.4505   -2.5191 H   0  0  0  0  0  0  0  0  0  0  0  0
    2.5949   12.9854   -2.4552 H   0  0  0  0  0  0  0  0  0  0  0  0
    2.8160   14.6015   -3.2811 H   0  0  0  0  0  0  0  0  0  0  0  0
    1.9756   13.9995   -0.4433 H   0  0  0  0  0  0  0  0  0  0  0  0
    3.2682   15.1015   -1.0782 H   0  0  0  0  0  0  0  0  0  0  0  0
    0.4412   15.1982   -1.0757 H   0  0  0  0  0  0  0  0  0  0  0  0
    2.8454   17.4209    1.2125 H   0  0  0  0  0  0  0  0  0  0  0  0
    3.6681   16.6560   -0.1892 H   0  0  0  0  0  0  0  0  0  0  0  0
    3.3510   18.4241   -0.1892 H   0  0  0  0  0  0  0  0  0  0  0  0
    0.4715   18.1232    1.0028 H   0  0  0  0  0  0  0  0  0  0  0  0
    0.6740   19.1075   -0.4860 H   0  0  0  0  0  0  0  0  0  0  0  0
   -0.4389   17.6976   -0.4860 H   0  0  0  0  0  0  0  0  0  0  0  0
   -0.3597   12.5363   -4.1265 H   0  0  0  0  0  0  0  0  0  0  0  0
    1.6547   11.3142   -4.6544 H   0  0  0  0  0  0  0  0  0  0  0  0
    2.5042   11.9455   -3.2274 H   0  0  0  0  0  0  0  0  0  0  0  0
    1.4186    9.3136   -3.4850 H   0  0  0  0  0  0  0  0  0  0  0  0
    1.9093   10.0333   -1.9539 H   0  0  0  0  0  0  0  0  0  0  0  0
   -1.9714    9.4081   -3.4312 H   0  0  0  0  0  0  0  0  0  0  0  0
   -1.2344   10.7894   -4.3118 H   0  0  0  0  0  0  0  0  0  0  0  0
   -0.4214    9.1877   -4.3118 H   0  0  0  0  0  0  0  0  0  0  0  0
    0.0507    9.7358   -0.4282 H   0  0  0  0  0  0  0  0  0  0  0  0
    0.3073    7.7310   -2.0252 H   0  0  0  0  0  0  0  0  0  0  0  0
   -0.4004    7.5217   -0.3386 H   0  0  0  0  0  0  0  0  0  0  0  0
   -1.5958    6.1979   -2.2772 H   0  0  0  0  0  0  0  0  0  0  0  0
   -3.4215    9.7994   -2.2904 H   0  0  0  0  0  0  0  0  0  0  0  0
   -4.4443    8.4332    0.2743 H   0  0  0  0  0  0  0  0  0  0  0  0
   -4.8755   10.0965   -0.3251 H   0  0  0  0  0  0  0  0  0  0  0  0
   -6.6625    8.4458   -0.7753 H   0  0  0  0  0  0  0  0  0  0  0  0
   -5.9517    9.1464   -2.2816 H   0  0  0  0  0  0  0  0  0  0  0  0
   -6.2516    6.7852   -2.5975 H   0  0  0  0  0  0  0  0  0  0  0  0
   -6.0360    5.5340   -0.8940 H   0  0  0  0  0  0  0  0  0  0  0  0
   -4.6451    8.7826   -3.9361 H   0  0  0  0  0  0  0  0  0  0  0  0
   -3.3963    7.7271   -4.6800 H   0  0  0  0  0  0  0  0  0  0  0  0
   -5.1188    7.2177   -4.6800 H   0  0  0  0  0  0  0  0  0  0  0  0
   -3.7280    4.9741   -2.1418 H   0  0  0  0  0  0  0  0  0  0  0  0
   -4.6723    5.1257   -3.6623 H   0  0  0  0  0  0  0  0  0  0  0  0
   -2.9089    5.4677   -3.6623 H   0  0  0  0  0  0  0  0  0  0  0  0
   -2.0871   10.2686    1.5180 H   0  0  0  0  0  0  0  0  0  0  0  0
   -3.0661    8.8319    1.0663 H   0  0  0  0  0  0  0  0  0  0  0  0
   -1.2725    8.7327    1.0663 H   0  0  0  0  0  0  0  0  0  0  0  0
   -3.4343   11.5643   -0.5992 H   0  0  0  0  0  0  0  0  0  0  0  0
   -1.8045   11.7649    0.2590 H   0  0  0  0  0  0  0  0  0  0  0  0
   -2.3643   11.9553   -2.7136 H   0  0  0  0  0  0  0  0  0  0  0  0
   -1.8322   13.2585   -1.5797 H   0  0  0  0  0  0  0  0  0  0  0  0
   -0.0490   11.9475    0.1109 H   0  0  0  0  0  0  0  0  0  0  0  0
    1.4804   11.7101   -0.8008 H   0  0  0  0  0  0  0  0  0  0  0  0
    0.6748   13.3156   -0.8008 H   0  0  0  0  0  0  0  0  0  0  0  0
  1  2  1  0
  2  3  1  0
  3  4  1  0
  4  5  1  0
  5  6  1  0
  6  7  1  0
  7  8  1  0
  7  9  1  0
  2 10  1  0
 10 11  1  0
 11 12  1  0
 12 13  1  0
 13 14  1  6
 13 15  1  0
 15 16  1  0
 16 17  1  0
 17 18  2  0
 18 19  1  0
 19 20  1  0
 20 21  1  0
 21 22  1  0
 22 23  1  0
 22 24  1  0
 24 25  1  0
 24 26  1  0
 19 27  1  0
 27 28  1  1
 27 29  1  0
 29 30  1  0
 30 31  1  0
 31 32  1  1
  7  5  1  0
 31 10  1  0
 31 13  1  0
 27 15  1  0
 24 18  1  0
  1 33  1  0
  1 34  1  0
  1 35  1  0
  2 36  1  1
  3 37  1  0
  3 38  1  0
  4 39  1  0
  4 40  1  0
  5 41  1  6
  8 42  1  0
  8 43  1  0
  8 44  1  0
  9 45  1  0
  9 46  1  0
  9 47  1  0
 10 48  1  6
 11 49  1  0
 11 50  1  0
 12 51  1  0
 12 52  1  0
 14 53  1  0
 14 54  1  0
 14 55  1  0
 15 56  1  1
 16 57  1  0
 16 58  1  0
 17 59  1  0
 19 60  1  6
 20 61  1  0
 20 62  1  0
 21 63  1  0
 21 64  1  0
 22 65  1  6
 23 66  1  0
 25 67  1  0
 25 68  1  0
 25 69  1  0
 26 70  1  0
 26 71  1  0
 26 72  1  0
 28 73  1  0
 28 74  1  0
 28 75  1  0
 29 76  1  0
 29 77  1  0
 30 78  1  0
 30 79  1  0
 32 80  1  0
 32 81  1  0
 32 82  1  0
M  END
>  <meeko>  (17) 
{"is_sidechain": [false], "intermolecular_energy": 2.731, "internal_energy": -0.839}

$$$$
