EPH_relaxed_0001_pdb2pqr_Repair_258_r2_0001_out
     RDKit          3D

 82 86  0  0  0  0  0  0  0  0999 V2000
   -5.1640    5.7960   -1.7210 C   0  0  0  0  0  0  0  0  0  0  0  0
   -5.4510    7.3000   -1.7660 C   0  0  2  0  0  0  0  0  0  0  0  0
   -5.2230    7.9760   -0.3990 C   0  0  0  0  0  0  0  0  0  0  0  0
   -4.1620    9.0780   -0.4280 C   0  0  0  0  0  0  0  0  0  0  0  0
   -2.8480    8.5700   -0.9400 C   0  0  2  0  0  0  0  0  0  0  0  0
   -1.7400    8.7750   -0.0530 O   0  0  0  0  0  0  0  0  0  0  0  0
   -1.6870    9.4750   -1.3070 C   0  0  0  0  0  0  0  0  0  0  0  0
   -1.7850   10.9630   -1.1780 C   0  0  0  0  0  0  0  0  0  0  0  0
   -0.6420    8.9540   -2.2440 C   0  0  0  0  0  0  0  0  0  0  0  0
   -6.8810    7.5420   -2.2350 C   0  0  1  0  0  0  0  0  0  0  0  0
   -7.1860    6.8640   -3.5980 C   0  0  0  0  0  0  0  0  0  0  0  0
   -8.6650    6.4010   -3.5460 C   0  0  0  0  0  0  0  0  0  0  0  0
   -9.2530    7.1120   -2.3050 C   0  0  1  0  0  0  0  0  0  0  0  0
   -9.5910    8.5550   -2.7930 C   0  0  0  0  0  0  0  0  0  0  0  0
  -10.4880    6.4250   -1.6360 C   0  0  2  0  0  0  0  0  0  0  0  0
  -11.7380    6.3180   -2.5260 C   0  0  0  0  0  0  0  0  0  0  0  0
  -12.6840    7.4690   -2.4370 C   0  0  0  0  0  0  0  0  0  0  0  0
  -12.6860    8.4070   -1.4710 C   0  0  0  0  0  0  0  0  0  0  0  0
  -11.7290    8.3100   -0.2770 C   0  0  1  0  0  0  0  0  0  0  0  0
  -12.5100    8.5790    1.0360 C   0  0  0  0  0  0  0  0  0  0  0  0
  -13.2700    9.9010    1.0040 C   0  0  0  0  0  0  0  0  0  0  0  0
  -14.2540    9.9370   -0.1630 C   0  0  2  0  0  0  0  0  0  0  0  0
  -15.2790    8.9670    0.0690 O   0  0  0  0  0  0  0  0  0  0  0  0
  -13.5820    9.6690   -1.5390 C   0  0  0  0  0  0  0  0  0  0  0  0
  -12.6930   10.8760   -1.9280 C   0  0  0  0  0  0  0  0  0  0  0  0
  -14.7030    9.5920   -2.6100 C   0  0  0  0  0  0  0  0  0  0  0  0
  -10.8460    6.9900   -0.2020 C   0  0  1  0  0  0  0  0  0  0  0  0
  -11.6330    5.8650    0.5370 C   0  0  0  0  0  0  0  0  0  0  0  0
   -9.5640    7.2780    0.6650 C   0  0  0  0  0  0  0  0  0  0  0  0
   -8.3370    7.8450   -0.0750 C   0  0  0  0  0  0  0  0  0  0  0  0
   -8.0250    7.0210   -1.3280 C   0  0  2  0  0  0  0  0  0  0  0  0
   -7.6590    5.5690   -0.8670 C   0  0  0  0  0  0  0  0  0  0  0  0
   -5.1010    5.4659   -0.6736 H   0  0  0  0  0  0  0  0  0  0  0  0
   -5.9747    5.2527   -2.2286 H   0  0  0  0  0  0  0  0  0  0  0  0
   -4.2102    5.5894   -2.2286 H   0  0  0  0  0  0  0  0  0  0  0  0
   -4.7446    7.7507   -2.4786 H   0  0  0  0  0  0  0  0  0  0  0  0
   -6.1740    8.4180   -0.0671 H   0  0  0  0  0  0  0  0  0  0  0  0
   -4.8599    7.1977    0.2883 H   0  0  0  0  0  0  0  0  0  0  0  0
   -4.5097    9.8903   -1.0831 H   0  0  0  0  0  0  0  0  0  0  0  0
   -4.0130    9.4373    0.6009 H   0  0  0  0  0  0  0  0  0  0  0  0
   -3.3481    7.7545   -1.4831 H   0  0  0  0  0  0  0  0  0  0  0  0
   -1.8031   11.2383   -0.1132 H   0  0  0  0  0  0  0  0  0  0  0  0
   -0.9157   11.4311   -1.6630 H   0  0  0  0  0  0  0  0  0  0  0  0
   -2.7081   11.3131   -1.6630 H   0  0  0  0  0  0  0  0  0  0  0  0
    0.1948    8.5368   -1.6646 H   0  0  0  0  0  0  0  0  0  0  0  0
   -1.0772    8.1674   -2.8779 H   0  0  0  0  0  0  0  0  0  0  0  0
   -0.2758    9.7750   -2.8779 H   0  0  0  0  0  0  0  0  0  0  0  0
   -6.8854    8.6419   -2.2526 H   0  0  0  0  0  0  0  0  0  0  0  0
   -7.0425    7.5821   -4.4188 H   0  0  0  0  0  0  0  0  0  0  0  0
   -6.5117    6.0133   -3.7757 H   0  0  0  0  0  0  0  0  0  0  0  0
   -9.1996    6.7058   -4.4578 H   0  0  0  0  0  0  0  0  0  0  0  0
   -8.7575    5.3067   -3.4827 H   0  0  0  0  0  0  0  0  0  0  0  0
   -9.7444    9.2099   -1.9226 H   0  0  0  0  0  0  0  0  0  0  0  0
   -8.7590    8.9410   -3.4002 H   0  0  0  0  0  0  0  0  0  0  0  0
  -10.5079    8.5314   -3.4002 H   0  0  0  0  0  0  0  0  0  0  0  0
  -10.1345    5.3931   -1.4938 H   0  0  0  0  0  0  0  0  0  0  0  0
  -11.4050    6.2316   -3.5708 H   0  0  0  0  0  0  0  0  0  0  0  0
  -12.2933    5.4390   -2.1667 H   0  0  0  0  0  0  0  0  0  0  0  0
  -13.4438    7.5586   -3.2274 H   0  0  0  0  0  0  0  0  0  0  0  0
  -10.9728    9.0943   -0.4288 H   0  0  0  0  0  0  0  0  0  0  0  0
  -13.2300    7.7620    1.1917 H   0  0  0  0  0  0  0  0  0  0  0  0
  -11.7775    8.6347    1.8548 H   0  0  0  0  0  0  0  0  0  0  0  0
  -13.8247   10.0202    1.9464 H   0  0  0  0  0  0  0  0  0  0  0  0
  -12.5457   10.7192    0.8777 H   0  0  0  0  0  0  0  0  0  0  0  0
  -14.6725   10.9532   -0.2111 H   0  0  0  0  0  0  0  0  0  0  0  0
  -14.8870    8.2400    0.5820 H   0  0  0  0  0  0  0  0  0  0  0  0
  -12.3280   11.3715   -1.0163 H   0  0  0  0  0  0  0  0  0  0  0  0
  -11.8366   10.5243   -2.5220 H   0  0  0  0  0  0  0  0  0  0  0  0
  -13.2829   11.5895   -2.5220 H   0  0  0  0  0  0  0  0  0  0  0  0
  -15.6816    9.5248   -2.1123 H   0  0  0  0  0  0  0  0  0  0  0  0
  -14.6724   10.4944   -3.2383 H   0  0  0  0  0  0  0  0  0  0  0  0
  -14.5493    8.7023   -3.2383 H   0  0  0  0  0  0  0  0  0  0  0  0
  -11.5363    6.0032    1.6240 H   0  0  0  0  0  0  0  0  0  0  0  0
  -12.6949    5.9139    0.2542 H   0  0  0  0  0  0  0  0  0  0  0  0
  -11.2230    4.8842    0.2542 H   0  0  0  0  0  0  0  0  0  0  0  0
   -9.8454    8.0008    1.4450 H   0  0  0  0  0  0  0  0  0  0  0  0
   -9.2442    6.2949    1.0408 H   0  0  0  0  0  0  0  0  0  0  0  0
   -8.5429    8.8846   -0.3697 H   0  0  0  0  0  0  0  0  0  0  0  0
   -7.4690    7.8014    0.5993 H   0  0  0  0  0  0  0  0  0  0  0  0
   -7.6479    5.5251    0.2321 H   0  0  0  0  0  0  0  0  0  0  0  0
   -8.4070    4.8617   -1.2547 H   0  0  0  0  0  0  0  0  0  0  0  0
   -6.6651    5.3008   -1.2547 H   0  0  0  0  0  0  0  0  0  0  0  0
  1  2  1  0
  2  3  1  0
  3  4  1  0
  4  5  1  0
  5  6  1  0
  6  7  1  0
  7  8  1  0
  7  9  1  0
  2 10  1  0
 10 11  1  0
 11 12  1  0
 12 13  1  0
 13 14  1  6
 13 15  1  0
 15 16  1  0
 16 17  1  0
 17 18  2  0
 18 19  1  0
 19 20  1  0
 20 21  1  0
 21 22  1  0
 22 23  1  0
 22 24  1  0
 24 25  1  0
 24 26  1  0
 19 27  1  0
 27 28  1  1
 27 29  1  0
 29 30  1  0
 30 31  1  0
 31 32  1  1
  7  5  1  0
 31 10  1  0
 31 13  1  0
 27 15  1  0
 24 18  1  0
  1 33  1  0
  1 34  1  0
  1 35  1  0
  2 36  1  6
  3 37  1  0
  3 38  1  0
  4 39  1  0
  4 40  1  0
  5 41  1  6
  8 42  1  0
  8 43  1  0
  8 44  1  0
  9 45  1  0
  9 46  1  0
  9 47  1  0
 10 48  1  6
 11 49  1  0
 11 50  1  0
 12 51  1  0
 12 52  1  0
 14 53  1  0
 14 54  1  0
 14 55  1  0
 15 56  1  1
 16 57  1  0
 16 58  1  0
 17 59  1  0
 19 60  1  6
 20 61  1  0
 20 62  1  0
 21 63  1  0
 21 64  1  0
 22 65  1  6
 23 66  1  0
 25 67  1  0
 25 68  1  0
 25 69  1  0
 26 70  1  0
 26 71  1  0
 26 72  1  0
 28 73  1  0
 28 74  1  0
 28 75  1  0
 29 76  1  0
 29 77  1  0
 30 78  1  0
 30 79  1  0
 32 80  1  0
 32 81  1  0
 32 82  1  0
M  END
>  <meeko>  (1) 
{"is_sidechain": [false], "intermolecular_energy": 2.731, "internal_energy": -0.839}

$$$$
EPH_relaxed_0001_pdb2pqr_Repair_258_r2_0001_out
     RDKit          3D

 82 86  0  0  0  0  0  0  0  0999 V2000
   -5.0220    8.5370   -0.5170 C   0  0  0  0  0  0  0  0  0  0  0  0
   -5.3480    7.4640   -1.5600 C   0  0  2  0  0  0  0  0  0  0  0  0
   -4.3450    7.4690   -2.7310 C   0  0  0  0  0  0  0  0  0  0  0  0
   -2.8910    7.2640   -2.2960 C   0  0  0  0  0  0  0  0  0  0  0  0
   -2.0220    8.4140   -2.7060 C   0  0  2  0  0  0  0  0  0  0  0  0
   -0.6230    8.2260   -2.4570 O   0  0  0  0  0  0  0  0  0  0  0  0
   -1.2620    9.2810   -1.7200 C   0  0  0  0  0  0  0  0  0  0  0  0
   -1.3360    9.0360   -0.2460 C   0  0  0  0  0  0  0  0  0  0  0  0
   -0.8440   10.6540   -2.1480 C   0  0  0  0  0  0  0  0  0  0  0  0
   -6.7640    7.6650   -2.0870 C   0  0  1  0  0  0  0  0  0  0  0  0
   -6.9940    6.9780   -3.4590 C   0  0  0  0  0  0  0  0  0  0  0  0
   -8.4600    6.4720   -3.4660 C   0  0  0  0  0  0  0  0  0  0  0  0
   -9.1180    7.1670   -2.2520 C   0  0  1  0  0  0  0  0  0  0  0  0
   -9.4770    8.6000   -2.7560 C   0  0  0  0  0  0  0  0  0  0  0  0
  -10.3590    6.4460   -1.6310 C   0  0  2  0  0  0  0  0  0  0  0  0
  -11.5680    6.3030   -2.5720 C   0  0  0  0  0  0  0  0  0  0  0  0
  -12.5500    7.4270   -2.5230 C   0  0  0  0  0  0  0  0  0  0  0  0
  -12.6180    8.3650   -1.5610 C   0  0  0  0  0  0  0  0  0  0  0  0
  -11.7070    8.2960   -0.3280 C   0  0  1  0  0  0  0  0  0  0  0  0
  -12.5490    8.5440    0.9520 C   0  0  0  0  0  0  0  0  0  0  0  0
  -13.3440    9.8440    0.8860 C   0  0  0  0  0  0  0  0  0  0  0  0
  -14.2800    9.8510   -0.3200 C   0  0  2  0  0  0  0  0  0  0  0  0
  -15.2860    8.8520   -0.1280 O   0  0  0  0  0  0  0  0  0  0  0  0
  -13.5450    9.6000   -1.6670 C   0  0  0  0  0  0  0  0  0  0  0  0
  -12.6760   10.8320   -2.0220 C   0  0  0  0  0  0  0  0  0  0  0  0
  -14.6190    9.4910   -2.7830 C   0  0  0  0  0  0  0  0  0  0  0  0
  -10.7910    7.0020   -0.2140 C   0  0  1  0  0  0  0  0  0  0  0  0
  -11.5740    5.8560    0.4940 C   0  0  0  0  0  0  0  0  0  0  0  0
   -9.5530    7.3280    0.7030 C   0  0  0  0  0  0  0  0  0  0  0  0
   -8.3150    7.9290    0.0120 C   0  0  0  0  0  0  0  0  0  0  0  0
   -7.9280    7.1130   -1.2260 C   0  0  2  0  0  0  0  0  0  0  0  0
   -7.5400    5.6720   -0.7470 C   0  0  0  0  0  0  0  0  0  0  0  0
   -5.1493    8.1181    0.4921 H   0  0  0  0  0  0  0  0  0  0  0  0
   -3.9819    8.8707   -0.6470 H   0  0  0  0  0  0  0  0  0  0  0  0
   -5.7006    9.3929   -0.6470 H   0  0  0  0  0  0  0  0  0  0  0  0
   -5.2712    6.4855   -1.0633 H   0  0  0  0  0  0  0  0  0  0  0  0
   -4.6173    6.6603   -3.4251 H   0  0  0  0  0  0  0  0  0  0  0  0
   -4.4035    8.4620   -3.2006 H   0  0  0  0  0  0  0  0  0  0  0  0
   -2.8572    7.1644   -1.2010 H   0  0  0  0  0  0  0  0  0  0  0  0
   -2.5113    6.3556   -2.7865 H   0  0  0  0  0  0  0  0  0  0  0  0
   -2.7004    8.6613   -3.5358 H   0  0  0  0  0  0  0  0  0  0  0  0
   -1.0587    9.9541    0.2927 H   0  0  0  0  0  0  0  0  0  0  0  0
   -2.3616    8.7466    0.0266 H   0  0  0  0  0  0  0  0  0  0  0  0
   -0.6421    8.2272    0.0266 H   0  0  0  0  0  0  0  0  0  0  0  0
   -0.6553   11.2737   -1.2589 H   0  0  0  0  0  0  0  0  0  0  0  0
    0.0744   10.5868   -2.7497 H   0  0  0  0  0  0  0  0  0  0  0  0
   -1.6440   11.1100   -2.7497 H   0  0  0  0  0  0  0  0  0  0  0  0
   -6.7989    8.7643   -2.1072 H   0  0  0  0  0  0  0  0  0  0  0  0
   -6.8384    7.6994   -4.2747 H   0  0  0  0  0  0  0  0  0  0  0  0
   -6.2887    6.1471   -3.6077 H   0  0  0  0  0  0  0  0  0  0  0  0
   -8.9658    6.7599   -4.3995 H   0  0  0  0  0  0  0  0  0  0  0  0
   -8.5232    5.3756   -3.4039 H   0  0  0  0  0  0  0  0  0  0  0  0
   -9.6427    9.2615   -1.8929 H   0  0  0  0  0  0  0  0  0  0  0  0
   -8.6494    8.9925   -3.3652 H   0  0  0  0  0  0  0  0  0  0  0  0
  -10.3919    8.5559   -3.3652 H   0  0  0  0  0  0  0  0  0  0  0  0
   -9.9827    5.4249   -1.4705 H   0  0  0  0  0  0  0  0  0  0  0  0
  -11.1899    6.2265   -3.6021 H   0  0  0  0  0  0  0  0  0  0  0  0
  -12.1120    5.4083   -2.2352 H   0  0  0  0  0  0  0  0  0  0  0  0
  -13.2799    7.4937   -3.3433 H   0  0  0  0  0  0  0  0  0  0  0  0
  -10.9674    9.1009   -0.4508 H   0  0  0  0  0  0  0  0  0  0  0  0
  -13.2514    7.7072    1.0797 H   0  0  0  0  0  0  0  0  0  0  0  0
  -11.8527    8.6210    1.8001 H   0  0  0  0  0  0  0  0  0  0  0  0
  -13.9399    9.9485    1.8047 H   0  0  0  0  0  0  0  0  0  0  0  0
  -12.6385   10.6822    0.7875 H   0  0  0  0  0  0  0  0  0  0  0  0
  -14.7245   10.8549   -0.3872 H   0  0  0  0  0  0  0  0  0  0  0  0
  -15.1480    8.1620   -0.7990 H   0  0  0  0  0  0  0  0  0  0  0  0
  -12.3333   11.3179   -1.0966 H   0  0  0  0  0  0  0  0  0  0  0  0
  -11.8048   10.5088   -2.6108 H   0  0  0  0  0  0  0  0  0  0  0  0
  -13.2727   11.5442   -2.6108 H   0  0  0  0  0  0  0  0  0  0  0  0
  -15.6142    9.3900   -2.3255 H   0  0  0  0  0  0  0  0  0  0  0  0
  -14.5925   10.3964   -3.4071 H   0  0  0  0  0  0  0  0  0  0  0  0
  -14.4111    8.6093   -3.4071 H   0  0  0  0  0  0  0  0  0  0  0  0
  -11.4924    5.9754    1.5845 H   0  0  0  0  0  0  0  0  0  0  0  0
  -12.6328    5.8984    0.1987 H   0  0  0  0  0  0  0  0  0  0  0  0
  -11.1496    4.8851    0.1987 H   0  0  0  0  0  0  0  0  0  0  0  0
   -9.8861    8.0432    1.4695 H   0  0  0  0  0  0  0  0  0  0  0  0
   -9.2202    6.3549    1.0932 H   0  0  0  0  0  0  0  0  0  0  0  0
   -8.5391    8.9618   -0.2933 H   0  0  0  0  0  0  0  0  0  0  0  0
   -7.4741    7.9111    0.7210 H   0  0  0  0  0  0  0  0  0  0  0  0
   -7.5316    5.6409    0.3525 H   0  0  0  0  0  0  0  0  0  0  0  0
   -8.2753    4.9483   -1.1287 H   0  0  0  0  0  0  0  0  0  0  0  0
   -6.5408    5.4154   -1.1287 H   0  0  0  0  0  0  0  0  0  0  0  0
  1  2  1  0
  2  3  1  0
  3  4  1  0
  4  5  1  0
  5  6  1  0
  6  7  1  0
  7  8  1  0
  7  9  1  0
  2 10  1  0
 10 11  1  0
 11 12  1  0
 12 13  1  0
 13 14  1  6
 13 15  1  0
 15 16  1  0
 16 17  1  0
 17 18  2  0
 18 19  1  0
 19 20  1  0
 20 21  1  0
 21 22  1  0
 22 23  1  0
 22 24  1  0
 24 25  1  0
 24 26  1  0
 19 27  1  0
 27 28  1  1
 27 29  1  0
 29 30  1  0
 30 31  1  0
 31 32  1  1
  7  5  1  0
 31 10  1  0
 31 13  1  0
 27 15  1  0
 24 18  1  0
  1 33  1  0
  1 34  1  0
  1 35  1  0
  2 36  1  1
  3 37  1  0
  3 38  1  0
  4 39  1  0
  4 40  1  0
  5 41  1  6
  8 42  1  0
  8 43  1  0
  8 44  1  0
  9 45  1  0
  9 46  1  0
  9 47  1  0
 10 48  1  6
 11 49  1  0
 11 50  1  0
 12 51  1  0
 12 52  1  0
 14 53  1  0
 14 54  1  0
 14 55  1  0
 15 56  1  1
 16 57  1  0
 16 58  1  0
 17 59  1  0
 19 60  1  6
 20 61  1  0
 20 62  1  0
 21 63  1  0
 21 64  1  0
 22 65  1  6
 23 66  1  0
 25 67  1  0
 25 68  1  0
 25 69  1  0
 26 70  1  0
 26 71  1  0
 26 72  1  0
 28 73  1  0
 28 74  1  0
 28 75  1  0
 29 76  1  0
 29 77  1  0
 30 78  1  0
 30 79  1  0
 32 80  1  0
 32 81  1  0
 32 82  1  0
M  END
>  <meeko>  (2) 
{"is_sidechain": [false], "intermolecular_energy": 2.731, "internal_energy": -0.839}

$$$$
EPH_relaxed_0001_pdb2pqr_Repair_258_r2_0001_out
     RDKit          3D

 82 86  0  0  0  0  0  0  0  0999 V2000
    0.0140   19.7150   -2.1200 C   0  0  0  0  0  0  0  0  0  0  0  0
    0.8060   19.1630   -0.9310 C   0  0  2  0  0  0  0  0  0  0  0  0
    1.8950   20.1440   -0.4530 C   0  0  0  0  0  0  0  0  0  0  0  0
    2.0790   20.1670    1.0670 C   0  0  0  0  0  0  0  0  0  0  0  0
    3.5120   19.9600    1.4550 C   0  0  2  0  0  0  0  0  0  0  0  0
    3.7850   18.7060    2.0940 O   0  0  0  0  0  0  0  0  0  0  0  0
    3.9860   19.8830    2.8940 C   0  0  0  0  0  0  0  0  0  0  0  0
    3.0300   20.0110    4.0380 C   0  0  0  0  0  0  0  0  0  0  0  0
    5.4250   20.1710    3.1900 C   0  0  0  0  0  0  0  0  0  0  0  0
    1.4360   17.8250   -1.3020 C   0  0  1  0  0  0  0  0  0  0  0  0
    2.9800   17.8310   -1.1530 C   0  0  0  0  0  0  0  0  0  0  0  0
    3.3890   16.4130   -0.6790 C   0  0  0  0  0  0  0  0  0  0  0  0
    2.1220   15.5510   -0.8880 C   0  0  1  0  0  0  0  0  0  0  0  0
    2.1330   15.1840   -2.4050 C   0  0  0  0  0  0  0  0  0  0  0  0
    1.9940   14.2800    0.0130 C   0  0  2  0  0  0  0  0  0  0  0  0
    3.0960   13.2250   -0.1870 C   0  0  0  0  0  0  0  0  0  0  0  0
    2.8020   12.1820   -1.2150 C   0  0  0  0  0  0  0  0  0  0  0  0
    1.5910   11.9250   -1.7440 C   0  0  0  0  0  0  0  0  0  0  0  0
    0.3400   12.6560   -1.2390 C   0  0  1  0  0  0  0  0  0  0  0  0
   -0.8010   11.6310   -1.0080 C   0  0  0  0  0  0  0  0  0  0  0  0
   -1.0800   10.7780   -2.2410 C   0  0  0  0  0  0  0  0  0  0  0  0
    0.1720   10.0220   -2.6770 C   0  0  2  0  0  0  0  0  0  0  0  0
    0.5020    9.0590   -1.6720 O   0  0  0  0  0  0  0  0  0  0  0  0
    1.3920   10.9510   -2.9310 C   0  0  0  0  0  0  0  0  0  0  0  0
    1.1500   11.7890   -4.2110 C   0  0  0  0  0  0  0  0  0  0  0  0
    2.6230   10.0530   -3.2260 C   0  0  0  0  0  0  0  0  0  0  0  0
    0.5550   13.6210    0.0050 C   0  0  1  0  0  0  0  0  0  0  0  0
    0.4270   12.8140    1.3330 C   0  0  0  0  0  0  0  0  0  0  0  0
   -0.5950   14.6970    0.0260 C   0  0  0  0  0  0  0  0  0  0  0  0
   -0.3580   15.9830   -0.7880 C   0  0  0  0  0  0  0  0  0  0  0  0
    1.0140   16.5860   -0.4730 C   0  0  2  0  0  0  0  0  0  0  0  0
    1.0250   16.9860    1.0420 C   0  0  0  0  0  0  0  0  0  0  0  0
   -0.8361   20.3075   -1.7509 H   0  0  0  0  0  0  0  0  0  0  0  0
    0.6682   20.3538   -2.7315 H   0  0  0  0  0  0  0  0  0  0  0  0
   -0.3589   18.8801   -2.7315 H   0  0  0  0  0  0  0  0  0  0  0  0
    0.0998   19.0233   -0.0992 H   0  0  0  0  0  0  0  0  0  0  0  0
    2.8505   19.8536   -0.9141 H   0  0  0  0  0  0  0  0  0  0  0  0
    1.5733   21.1522   -0.7530 H   0  0  0  0  0  0  0  0  0  0  0  0
    1.7425   21.1409    1.4522 H   0  0  0  0  0  0  0  0  0  0  0  0
    1.4854   19.3467    1.4968 H   0  0  0  0  0  0  0  0  0  0  0  0
    3.8548   20.5556    0.5961 H   0  0  0  0  0  0  0  0  0  0  0  0
    3.5816   19.9371    4.9868 H   0  0  0  0  0  0  0  0  0  0  0  0
    2.5220   20.9852    3.9841 H   0  0  0  0  0  0  0  0  0  0  0  0
    2.2836   19.2048    3.9841 H   0  0  0  0  0  0  0  0  0  0  0  0
    5.5764   20.2013    4.2791 H   0  0  0  0  0  0  0  0  0  0  0  0
    6.0542   19.3810    2.7542 H   0  0  0  0  0  0  0  0  0  0  0  0
    5.7017   21.1423    2.7542 H   0  0  0  0  0  0  0  0  0  0  0  0
    1.0701   17.7285   -2.3349 H   0  0  0  0  0  0  0  0  0  0  0  0
    3.4530   18.0583   -2.1198 H   0  0  0  0  0  0  0  0  0  0  0  0
    3.3044   18.5969   -0.4332 H   0  0  0  0  0  0  0  0  0  0  0  0
    4.2245   16.0279   -1.2821 H   0  0  0  0  0  0  0  0  0  0  0  0
    3.7310   16.4052    0.3665 H   0  0  0  0  0  0  0  0  0  0  0  0
    2.1658   14.0902   -2.5174 H   0  0  0  0  0  0  0  0  0  0  0  0
    1.2227   15.5746   -2.8834 H   0  0  0  0  0  0  0  0  0  0  0  0
    3.0182   15.6285   -2.8834 H   0  0  0  0  0  0  0  0  0  0  0  0
    2.1515   14.6897    1.0216 H   0  0  0  0  0  0  0  0  0  0  0  0
    4.0164   13.7476   -0.4866 H   0  0  0  0  0  0  0  0  0  0  0  0
    3.1840   12.6916    0.7710 H   0  0  0  0  0  0  0  0  0  0  0  0
    3.6462   11.5725   -1.5697 H   0  0  0  0  0  0  0  0  0  0  0  0
    0.0554   13.3576   -2.0369 H   0  0  0  0  0  0  0  0  0  0  0  0
   -0.5165   10.9680   -0.1777 H   0  0  0  0  0  0  0  0  0  0  0  0
   -1.7164   12.1966   -0.7794 H   0  0  0  0  0  0  0  0  0  0  0  0
   -1.8738   10.0539   -2.0055 H   0  0  0  0  0  0  0  0  0  0  0  0
   -1.3936   11.4399   -3.0617 H   0  0  0  0  0  0  0  0  0  0  0  0
   -0.0550    9.5338   -3.6362 H   0  0  0  0  0  0  0  0  0  0  0  0
   -0.1320    9.1660   -0.9430 H   0  0  0  0  0  0  0  0  0  0  0  0
    0.8549   12.8107   -3.9300 H   0  0  0  0  0  0  0  0  0  0  0  0
    2.0745   11.8249   -4.8060 H   0  0  0  0  0  0  0  0  0  0  0  0
    0.3487   11.3265   -4.8060 H   0  0  0  0  0  0  0  0  0  0  0  0
    3.0731    9.7247   -2.2775 H   0  0  0  0  0  0  0  0  0  0  0  0
    2.3049    9.1733   -3.8048 H   0  0  0  0  0  0  0  0  0  0  0  0
    3.3635   10.6245   -3.8048 H   0  0  0  0  0  0  0  0  0  0  0  0
    0.5353   13.4966    2.1888 H   0  0  0  0  0  0  0  0  0  0  0  0
   -0.5593   12.3287    1.3736 H   0  0  0  0  0  0  0  0  0  0  0  0
    1.2148   12.0473    1.3736 H   0  0  0  0  0  0  0  0  0  0  0  0
   -1.5053   14.2188   -0.3648 H   0  0  0  0  0  0  0  0  0  0  0  0
   -0.6609   15.0273    1.0732 H   0  0  0  0  0  0  0  0  0  0  0  0
   -0.4085   15.7444   -1.8606 H   0  0  0  0  0  0  0  0  0  0  0  0
   -1.1332   16.7158   -0.5197 H   0  0  0  0  0  0  0  0  0  0  0  0
    1.0000   16.0773    1.6613 H   0  0  0  0  0  0  0  0  0  0  0  0
    1.9392   17.5561    1.2641 H   0  0  0  0  0  0  0  0  0  0  0  0
    0.1436   17.6055    1.2641 H   0  0  0  0  0  0  0  0  0  0  0  0
  1  2  1  0
  2  3  1  0
  3  4  1  0
  4  5  1  0
  5  6  1  0
  6  7  1  0
  7  8  1  0
  7  9  1  0
  2 10  1  0
 10 11  1  0
 11 12  1  0
 12 13  1  0
 13 14  1  6
 13 15  1  0
 15 16  1  0
 16 17  1  0
 17 18  2  0
 18 19  1  0
 19 20  1  0
 20 21  1  0
 21 22  1  0
 22 23  1  0
 22 24  1  0
 24 25  1  0
 24 26  1  0
 19 27  1  0
 27 28  1  1
 27 29  1  0
 29 30  1  0
 30 31  1  0
 31 32  1  1
  7  5  1  0
 31 10  1  0
 31 13  1  0
 27 15  1  0
 24 18  1  0
  1 33  1  0
  1 34  1  0
  1 35  1  0
  2 36  1  1
  3 37  1  0
  3 38  1  0
  4 39  1  0
  4 40  1  0
  5 41  1  6
  8 42  1  0
  8 43  1  0
  8 44  1  0
  9 45  1  0
  9 46  1  0
  9 47  1  0
 10 48  1  6
 11 49  1  0
 11 50  1  0
 12 51  1  0
 12 52  1  0
 14 53  1  0
 14 54  1  0
 14 55  1  0
 15 56  1  1
 16 57  1  0
 16 58  1  0
 17 59  1  0
 19 60  1  6
 20 61  1  0
 20 62  1  0
 21 63  1  0
 21 64  1  0
 22 65  1  6
 23 66  1  0
 25 67  1  0
 25 68  1  0
 25 69  1  0
 26 70  1  0
 26 71  1  0
 26 72  1  0
 28 73  1  0
 28 74  1  0
 28 75  1  0
 29 76  1  0
 29 77  1  0
 30 78  1  0
 30 79  1  0
 32 80  1  0
 32 81  1  0
 32 82  1  0
M  END
>  <meeko>  (3) 
{"is_sidechain": [false], "intermolecular_energy": 2.731, "internal_energy": -0.839}

$$$$
EPH_relaxed_0001_pdb2pqr_Repair_258_r2_0001_out
     RDKit          3D

 82 86  0  0  0  0  0  0  0  0999 V2000
    0.9790   18.5180   -2.4730 C   0  0  0  0  0  0  0  0  0  0  0  0
    1.5650   17.8600   -1.2210 C   0  0  2  0  0  0  0  0  0  0  0  0
    2.8540   18.5600   -0.7460 C   0  0  0  0  0  0  0  0  0  0  0  0
    2.7690   19.1020    0.6840 C   0  0  0  0  0  0  0  0  0  0  0  0
    4.1180   19.1720    1.3310 C   0  0  2  0  0  0  0  0  0  0  0  0
    4.2920   18.2930    2.4500 O   0  0  0  0  0  0  0  0  0  0  0  0
    4.3460   19.7000    2.7360 C   0  0  0  0  0  0  0  0  0  0  0  0
    3.2110   20.1940    3.5770 C   0  0  0  0  0  0  0  0  0  0  0  0
    5.7130   20.1880    3.1040 C   0  0  0  0  0  0  0  0  0  0  0  0
    1.8420   16.3850   -1.4900 C   0  0  1  0  0  0  0  0  0  0  0  0
    3.3580   16.0740   -1.6060 C   0  0  0  0  0  0  0  0  0  0  0  0
    3.5720   14.6620   -1.0020 C   0  0  0  0  0  0  0  0  0  0  0  0
    2.1470   14.0760   -0.8640 C   0  0  1  0  0  0  0  0  0  0  0  0
    1.7900   13.5500   -2.2890 C   0  0  0  0  0  0  0  0  0  0  0  0
    1.9570   12.9700    0.2240 C   0  0  2  0  0  0  0  0  0  0  0  0
    2.7750   11.6870    0.0000 C   0  0  0  0  0  0  0  0  0  0  0  0
    2.0910   10.6250   -0.7960 C   0  0  0  0  0  0  0  0  0  0  0  0
    0.7740   10.5790   -1.0690 C   0  0  0  0  0  0  0  0  0  0  0  0
   -0.1900   11.6130   -0.4760 C   0  0  1  0  0  0  0  0  0  0  0  0
   -1.4380   10.8900    0.0950 C   0  0  0  0  0  0  0  0  0  0  0  0
   -2.1120    9.9870   -0.9330 C   0  0  0  0  0  0  0  0  0  0  0  0
   -1.1380    8.9350   -1.4570 C   0  0  2  0  0  0  0  0  0  0  0  0
   -0.8090    8.0400   -0.3900 O   0  0  0  0  0  0  0  0  0  0  0  0
    0.1630    9.5460   -2.0480 C   0  0  0  0  0  0  0  0  0  0  0  0
   -0.1590   10.2690   -3.3790 C   0  0  0  0  0  0  0  0  0  0  0  0
    1.1180    8.3760   -2.4090 C   0  0  0  0  0  0  0  0  0  0  0  0
    0.4450   12.6410    0.5570 C   0  0  1  0  0  0  0  0  0  0  0  0
    0.4270   12.0320    1.9930 C   0  0  0  0  0  0  0  0  0  0  0  0
   -0.4510   13.9350    0.6120 C   0  0  0  0  0  0  0  0  0  0  0  0
   -0.1360   15.0420   -0.4120 C   0  0  0  0  0  0  0  0  0  0  0  0
    1.3610   15.3660   -0.4270 C   0  0  2  0  0  0  0  0  0  0  0  0
    1.7450   15.9190    0.9880 C   0  0  0  0  0  0  0  0  0  0  0  0
    0.2746   19.3089   -2.1760 H   0  0  0  0  0  0  0  0  0  0  0  0
    1.7914   18.9562   -3.0713 H   0  0  0  0  0  0  0  0  0  0  0  0
    0.4500   17.7616   -3.0713 H   0  0  0  0  0  0  0  0  0  0  0  0
    0.8208   17.9580   -0.4169 H   0  0  0  0  0  0  0  0  0  0  0  0
    3.6805   17.8358   -0.7944 H   0  0  0  0  0  0  0  0  0  0  0  0
    3.0136   19.4237   -1.4082 H   0  0  0  0  0  0  0  0  0  0  0  0
    2.3337   20.1118    0.6572 H   0  0  0  0  0  0  0  0  0  0  0  0
    2.1411   18.4176    1.2734 H   0  0  0  0  0  0  0  0  0  0  0  0
    4.5937   19.4080    0.3677 H   0  0  0  0  0  0  0  0  0  0  0  0
    3.4673   20.0824    4.6409 H   0  0  0  0  0  0  0  0  0  0  0  0
    3.0241   21.2549    3.3541 H   0  0  0  0  0  0  0  0  0  0  0  0
    2.3073   19.6078    3.3541 H   0  0  0  0  0  0  0  0  0  0  0  0
    5.8077   20.2218    4.1994 H   0  0  0  0  0  0  0  0  0  0  0  0
    6.4697   19.5045    2.6915 H   0  0  0  0  0  0  0  0  0  0  0  0
    5.8658   21.1962    2.6915 H   0  0  0  0  0  0  0  0  0  0  0  0
    1.2696   16.2560   -2.4205 H   0  0  0  0  0  0  0  0  0  0  0  0
    3.6674   16.0855   -2.6615 H   0  0  0  0  0  0  0  0  0  0  0  0
    3.9577   16.8267   -1.0733 H   0  0  0  0  0  0  0  0  0  0  0  0
    4.1837   14.0413   -1.6732 H   0  0  0  0  0  0  0  0  0  0  0  0
    4.1037   14.6964   -0.0397 H   0  0  0  0  0  0  0  0  0  0  0  0
    1.1742   12.6427   -2.2013 H   0  0  0  0  0  0  0  0  0  0  0  0
    1.2289   14.3226   -2.8351 H   0  0  0  0  0  0  0  0  0  0  0  0
    2.7152   13.3139   -2.8351 H   0  0  0  0  0  0  0  0  0  0  0  0
    2.3851   13.4444    1.1194 H   0  0  0  0  0  0  0  0  0  0  0  0
    3.7014   11.9620   -0.5255 H   0  0  0  0  0  0  0  0  0  0  0  0
    2.9455   11.2568    0.9979 H   0  0  0  0  0  0  0  0  0  0  0  0
    2.7163    9.8116   -1.1928 H   0  0  0  0  0  0  0  0  0  0  0  0
   -0.4858   12.2660   -1.3103 H   0  0  0  0  0  0  0  0  0  0  0  0
   -1.1280   10.2766    0.9538 H   0  0  0  0  0  0  0  0  0  0  0  0
   -2.1650   11.6611    0.3898 H   0  0  0  0  0  0  0  0  0  0  0  0
   -2.9683    9.4820   -0.4621 H   0  0  0  0  0  0  0  0  0  0  0  0
   -2.4477   10.6063   -1.7778 H   0  0  0  0  0  0  0  0  0  0  0  0
   -1.6368    8.4037   -2.2810 H   0  0  0  0  0  0  0  0  0  0  0  0
    0.1330    8.1650   -0.1820 H   0  0  0  0  0  0  0  0  0  0  0  0
   -0.5979   11.2545   -3.1641 H   0  0  0  0  0  0  0  0  0  0  0  0
    0.7665   10.3985   -3.9592 H   0  0  0  0  0  0  0  0  0  0  0  0
   -0.8744    9.6676   -3.9592 H   0  0  0  0  0  0  0  0  0  0  0  0
    1.4960    7.9130   -1.4856 H   0  0  0  0  0  0  0  0  0  0  0  0
    0.5715    7.6252   -2.9986 H   0  0  0  0  0  0  0  0  0  0  0  0
    1.9631    8.7610   -2.9986 H   0  0  0  0  0  0  0  0  0  0  0  0
    0.4510   12.8431    2.7356 H   0  0  0  0  0  0  0  0  0  0  0  0
   -0.4891   11.4382    2.1280 H   0  0  0  0  0  0  0  0  0  0  0  0
    1.3064   11.3852    2.1280 H   0  0  0  0  0  0  0  0  0  0  0  0
   -1.4945   13.6241    0.4556 H   0  0  0  0  0  0  0  0  0  0  0  0
   -0.2465   14.3852    1.5946 H   0  0  0  0  0  0  0  0  0  0  0  0
   -0.4408   14.7032   -1.4132 H   0  0  0  0  0  0  0  0  0  0  0  0
   -0.6882   15.9499   -0.1277 H   0  0  0  0  0  0  0  0  0  0  0  0
    1.3007   15.2792    1.7647 H   0  0  0  0  0  0  0  0  0  0  0  0
    2.8397   15.9207    1.0963 H   0  0  0  0  0  0  0  0  0  0  0  0
    1.3642   16.9453    1.0963 H   0  0  0  0  0  0  0  0  0  0  0  0
  1  2  1  0
  2  3  1  0
  3  4  1  0
  4  5  1  0
  5  6  1  0
  6  7  1  0
  7  8  1  0
  7  9  1  0
  2 10  1  0
 10 11  1  0
 11 12  1  0
 12 13  1  0
 13 14  1  6
 13 15  1  0
 15 16  1  0
 16 17  1  0
 17 18  2  0
 18 19  1  0
 19 20  1  0
 20 21  1  0
 21 22  1  0
 22 23  1  0
 22 24  1  0
 24 25  1  0
 24 26  1  0
 19 27  1  0
 27 28  1  1
 27 29  1  0
 29 30  1  0
 30 31  1  0
 31 32  1  1
  7  5  1  0
 31 10  1  0
 31 13  1  0
 27 15  1  0
 24 18  1  0
  1 33  1  0
  1 34  1  0
  1 35  1  0
  2 36  1  1
  3 37  1  0
  3 38  1  0
  4 39  1  0
  4 40  1  0
  5 41  1  6
  8 42  1  0
  8 43  1  0
  8 44  1  0
  9 45  1  0
  9 46  1  0
  9 47  1  0
 10 48  1  6
 11 49  1  0
 11 50  1  0
 12 51  1  0
 12 52  1  0
 14 53  1  0
 14 54  1  0
 14 55  1  0
 15 56  1  1
 16 57  1  0
 16 58  1  0
 17 59  1  0
 19 60  1  6
 20 61  1  0
 20 62  1  0
 21 63  1  0
 21 64  1  0
 22 65  1  6
 23 66  1  0
 25 67  1  0
 25 68  1  0
 25 69  1  0
 26 70  1  0
 26 71  1  0
 26 72  1  0
 28 73  1  0
 28 74  1  0
 28 75  1  0
 29 76  1  0
 29 77  1  0
 30 78  1  0
 30 79  1  0
 32 80  1  0
 32 81  1  0
 32 82  1  0
M  END
>  <meeko>  (4) 
{"is_sidechain": [false], "intermolecular_energy": 2.731, "internal_energy": -0.839}

$$$$
EPH_relaxed_0001_pdb2pqr_Repair_258_r2_0001_out
     RDKit          3D

 82 86  0  0  0  0  0  0  0  0999 V2000
   -2.4720   14.1490   -0.7710 C   0  0  0  0  0  0  0  0  0  0  0  0
   -1.4830   14.5730    0.3180 C   0  0  2  0  0  0  0  0  0  0  0  0
   -1.2790   16.1010    0.3540 C   0  0  0  0  0  0  0  0  0  0  0  0
   -0.0090   16.5690   -0.3610 C   0  0  0  0  0  0  0  0  0  0  0  0
    0.1650   18.0550   -0.2660 C   0  0  2  0  0  0  0  0  0  0  0  0
   -0.3220   18.7880   -1.3980 O   0  0  0  0  0  0  0  0  0  0  0  0
    1.0940   18.8480   -1.1660 C   0  0  0  0  0  0  0  0  0  0  0  0
    1.9130   18.1790   -2.2250 C   0  0  0  0  0  0  0  0  0  0  0  0
    1.5730   20.1870   -0.6980 C   0  0  0  0  0  0  0  0  0  0  0  0
   -0.1450   13.8740    0.1050 C   0  0  1  0  0  0  0  0  0  0  0  0
    0.3730   13.1720    1.3890 C   0  0  0  0  0  0  0  0  0  0  0  0
    1.1060   11.8850    0.9310 C   0  0  0  0  0  0  0  0  0  0  0  0
    1.2760   12.0560   -0.5970 C   0  0  1  0  0  0  0  0  0  0  0  0
    2.5250   12.9780   -0.7610 C   0  0  0  0  0  0  0  0  0  0  0  0
    1.4170   10.7390   -1.4280 C   0  0  2  0  0  0  0  0  0  0  0  0
    2.6530    9.8860   -1.0950 C   0  0  0  0  0  0  0  0  0  0  0  0
    3.8740   10.1920   -1.8980 C   0  0  0  0  0  0  0  0  0  0  0  0
    3.9020   10.9100   -3.0360 C   0  0  0  0  0  0  0  0  0  0  0  0
    2.6050   11.4170   -3.6800 C   0  0  1  0  0  0  0  0  0  0  0  0
    2.6320   11.1220   -5.2020 C   0  0  0  0  0  0  0  0  0  0  0  0
    3.8790   11.6790   -5.8840 C   0  0  0  0  0  0  0  0  0  0  0  0
    5.1460   11.1070   -5.2550 C   0  0  2  0  0  0  0  0  0  0  0  0
    5.2090    9.7050   -5.5360 O   0  0  0  0  0  0  0  0  0  0  0  0
    5.2250   11.3350   -3.7190 C   0  0  0  0  0  0  0  0  0  0  0  0
    5.4610   12.8380   -3.4280 C   0  0  0  0  0  0  0  0  0  0  0  0
    6.4790   10.5890   -3.1890 C   0  0  0  0  0  0  0  0  0  0  0  0
    1.2550   10.9380   -2.9900 C   0  0  1  0  0  0  0  0  0  0  0  0
    0.8200    9.5590   -3.5720 C   0  0  0  0  0  0  0  0  0  0  0  0
    0.1070   11.9540   -3.3480 C   0  0  0  0  0  0  0  0  0  0  0  0
   -0.0580   13.1720   -2.4200 C   0  0  0  0  0  0  0  0  0  0  0  0
   -0.0940   12.7410   -0.9510 C   0  0  2  0  0  0  0  0  0  0  0  0
   -1.3540   11.8300   -0.7500 C   0  0  0  0  0  0  0  0  0  0  0  0
   -3.3869   13.7568   -0.3029 H   0  0  0  0  0  0  0  0  0  0  0  0
   -2.7238   15.0183   -1.3963 H   0  0  0  0  0  0  0  0  0  0  0  0
   -2.0160   13.3673   -1.3963 H   0  0  0  0  0  0  0  0  0  0  0  0
   -1.9091   14.2739    1.2870 H   0  0  0  0  0  0  0  0  0  0  0  0
   -2.1449   16.5785   -0.1279 H   0  0  0  0  0  0  0  0  0  0  0  0
   -1.1767   16.3870    1.4112 H   0  0  0  0  0  0  0  0  0  0  0  0
    0.8609   16.0780    0.0996 H   0  0  0  0  0  0  0  0  0  0  0  0
   -0.0955   16.3011   -1.4244 H   0  0  0  0  0  0  0  0  0  0  0  0
    0.0466   18.0227    0.8271 H   0  0  0  0  0  0  0  0  0  0  0  0
    2.6820   17.5508   -1.7516 H   0  0  0  0  0  0  0  0  0  0  0  0
    1.2613   17.5516   -2.8509 H   0  0  0  0  0  0  0  0  0  0  0  0
    2.3977   18.9428   -2.8509 H   0  0  0  0  0  0  0  0  0  0  0  0
    1.5811   20.2097    0.4017 H   0  0  0  0  0  0  0  0  0  0  0  0
    2.5906   20.3650   -1.0759 H   0  0  0  0  0  0  0  0  0  0  0  0
    0.8992   20.9701   -1.0759 H   0  0  0  0  0  0  0  0  0  0  0  0
    0.4584   14.7298   -0.2320 H   0  0  0  0  0  0  0  0  0  0  0  0
    1.0684   13.8326    1.9275 H   0  0  0  0  0  0  0  0  0  0  0  0
   -0.4569   12.9325    2.0701 H   0  0  0  0  0  0  0  0  0  0  0  0
    2.0858   11.7999    1.4237 H   0  0  0  0  0  0  0  0  0  0  0  0
    0.5483   10.9727    1.1893 H   0  0  0  0  0  0  0  0  0  0  0  0
    2.9060   13.2593    0.2318 H   0  0  0  0  0  0  0  0  0  0  0  0
    3.3079   12.4396   -1.3152 H   0  0  0  0  0  0  0  0  0  0  0  0
    2.2411   13.8848   -1.3152 H   0  0  0  0  0  0  0  0  0  0  0  0
    0.5503   10.1525   -1.0892 H   0  0  0  0  0  0  0  0  0  0  0  0
    2.8967   10.0405   -0.0335 H   0  0  0  0  0  0  0  0  0  0  0  0
    2.3811    8.8482   -1.3380 H   0  0  0  0  0  0  0  0  0  0  0  0
    4.8318    9.7972   -1.5282 H   0  0  0  0  0  0  0  0  0  0  0  0
    2.5869   12.5038   -3.5109 H   0  0  0  0  0  0  0  0  0  0  0  0
    2.6058   10.0324   -5.3505 H   0  0  0  0  0  0  0  0  0  0  0  0
    1.7571   11.6132   -5.6530 H   0  0  0  0  0  0  0  0  0  0  0  0
    3.8550   11.4128   -6.9510 H   0  0  0  0  0  0  0  0  0  0  0  0
    3.8882   12.7720   -5.7604 H   0  0  0  0  0  0  0  0  0  0  0  0
    6.0014   11.6397   -5.6961 H   0  0  0  0  0  0  0  0  0  0  0  0
    5.7690    9.2930   -4.8570 H   0  0  0  0  0  0  0  0  0  0  0  0
    5.4866   13.0013   -2.3405 H   0  0  0  0  0  0  0  0  0  0  0  0
    6.4192   13.1507   -3.8684 H   0  0  0  0  0  0  0  0  0  0  0  0
    4.6447   13.4293   -3.8684 H   0  0  0  0  0  0  0  0  0  0  0  0
    6.4709   10.5938   -2.0890 H   0  0  0  0  0  0  0  0  0  0  0  0
    6.4681    9.5504   -3.5512 H   0  0  0  0  0  0  0  0  0  0  0  0
    7.3865   11.0942   -3.5512 H   0  0  0  0  0  0  0  0  0  0  0  0
    0.6012    8.8653   -2.7468 H   0  0  0  0  0  0  0  0  0  0  0  0
   -0.0806    9.6894   -4.1900 H   0  0  0  0  0  0  0  0  0  0  0  0
    1.6325    9.1491   -4.1900 H   0  0  0  0  0  0  0  0  0  0  0  0
    0.3023   12.3326   -4.3622 H   0  0  0  0  0  0  0  0  0  0  0  0
   -0.8266   11.3823   -3.2406 H   0  0  0  0  0  0  0  0  0  0  0  0
    0.7880   13.8582   -2.5730 H   0  0  0  0  0  0  0  0  0  0  0  0
   -1.0076   13.6715   -2.6623 H   0  0  0  0  0  0  0  0  0  0  0  0
   -1.5409   11.6948    0.3255 H   0  0  0  0  0  0  0  0  0  0  0  0
   -2.2288   12.3058   -1.2173 H   0  0  0  0  0  0  0  0  0  0  0  0
   -1.1763   10.8502   -1.2173 H   0  0  0  0  0  0  0  0  0  0  0  0
  1  2  1  0
  2  3  1  0
  3  4  1  0
  4  5  1  0
  5  6  1  0
  6  7  1  0
  7  8  1  0
  7  9  1  0
  2 10  1  0
 10 11  1  0
 11 12  1  0
 12 13  1  0
 13 14  1  1
 13 15  1  0
 15 16  1  0
 16 17  1  0
 17 18  2  0
 18 19  1  0
 19 20  1  0
 20 21  1  0
 21 22  1  0
 22 23  1  0
 22 24  1  0
 24 25  1  0
 24 26  1  0
 19 27  1  0
 27 28  1  6
 27 29  1  0
 29 30  1  0
 30 31  1  0
 31 32  1  6
  7  5  1  0
 31 10  1  0
 31 13  1  0
 27 15  1  0
 24 18  1  0
  1 33  1  0
  1 34  1  0
  1 35  1  0
  2 36  1  1
  3 37  1  0
  3 38  1  0
  4 39  1  0
  4 40  1  0
  5 41  1  1
  8 42  1  0
  8 43  1  0
  8 44  1  0
  9 45  1  0
  9 46  1  0
  9 47  1  0
 10 48  1  6
 11 49  1  0
 11 50  1  0
 12 51  1  0
 12 52  1  0
 14 53  1  0
 14 54  1  0
 14 55  1  0
 15 56  1  1
 16 57  1  0
 16 58  1  0
 17 59  1  0
 19 60  1  6
 20 61  1  0
 20 62  1  0
 21 63  1  0
 21 64  1  0
 22 65  1  6
 23 66  1  0
 25 67  1  0
 25 68  1  0
 25 69  1  0
 26 70  1  0
 26 71  1  0
 26 72  1  0
 28 73  1  0
 28 74  1  0
 28 75  1  0
 29 76  1  0
 29 77  1  0
 30 78  1  0
 30 79  1  0
 32 80  1  0
 32 81  1  0
 32 82  1  0
M  END
>  <meeko>  (5) 
{"is_sidechain": [false], "intermolecular_energy": 2.731, "internal_energy": -0.839}

$$$$
EPH_relaxed_0001_pdb2pqr_Repair_258_r2_0001_out
     RDKit          3D

 82 86  0  0  0  0  0  0  0  0999 V2000
    2.3480   19.2320   -0.5240 C   0  0  0  0  0  0  0  0  0  0  0  0
    2.3610   18.5380   -1.8890 C   0  0  2  0  0  0  0  0  0  0  0  0
    1.0580   18.7820   -2.6770 C   0  0  0  0  0  0  0  0  0  0  0  0
    0.1520   19.8480   -2.0540 C   0  0  0  0  0  0  0  0  0  0  0  0
   -1.0570   19.2410   -1.4100 C   0  0  2  0  0  0  0  0  0  0  0  0
   -2.0330   20.1880   -0.9570 O   0  0  0  0  0  0  0  0  0  0  0  0
   -1.3920   19.4020    0.0610 C   0  0  0  0  0  0  0  0  0  0  0  0
   -0.5140   20.1940    0.9780 C   0  0  0  0  0  0  0  0  0  0  0  0
   -2.2950   18.3960    0.7040 C   0  0  0  0  0  0  0  0  0  0  0  0
    2.5890   17.0420   -1.7100 C   0  0  1  0  0  0  0  0  0  0  0  0
    3.9660   16.7200   -1.0710 C   0  0  0  0  0  0  0  0  0  0  0  0
    3.7620   15.4750   -0.1700 C   0  0  0  0  0  0  0  0  0  0  0  0
    2.3730   14.9260   -0.5730 C   0  0  1  0  0  0  0  0  0  0  0  0
    2.6300   14.1000   -1.8730 C   0  0  0  0  0  0  0  0  0  0  0  0
    1.6230   14.0820    0.5080 C   0  0  2  0  0  0  0  0  0  0  0  0
    2.3330   12.7850    0.9320 C   0  0  0  0  0  0  0  0  0  0  0  0
    1.9720   11.5720    0.1400 C   0  0  0  0  0  0  0  0  0  0  0  0
    0.9100   11.4600   -0.6800 C   0  0  0  0  0  0  0  0  0  0  0  0
   -0.1160   12.5950   -0.7980 C   0  0  1  0  0  0  0  0  0  0  0  0
   -1.5490   12.0070   -0.7170 C   0  0  0  0  0  0  0  0  0  0  0  0
   -1.7850   10.8980   -1.7380 C   0  0  0  0  0  0  0  0  0  0  0  0
   -0.7820    9.7620   -1.5520 C   0  0  2  0  0  0  0  0  0  0  0  0
   -1.0390    9.1230   -0.2970 O   0  0  0  0  0  0  0  0  0  0  0  0
    0.6970   10.2360   -1.6040 C   0  0  0  0  0  0  0  0  0  0  0  0
    1.0600   10.6510   -3.0510 C   0  0  0  0  0  0  0  0  0  0  0  0
    1.6000    9.0210   -1.2610 C   0  0  0  0  0  0  0  0  0  0  0  0
    0.0950   13.8250    0.1860 C   0  0  1  0  0  0  0  0  0  0  0  0
   -0.6070   13.5440    1.5490 C   0  0  0  0  0  0  0  0  0  0  0  0
   -0.6100   15.0960   -0.4220 C   0  0  0  0  0  0  0  0  0  0  0  0
    0.2240   15.9550   -1.3920 C   0  0  0  0  0  0  0  0  0  0  0  0
    1.5990   16.2760   -0.7980 C   0  0  2  0  0  0  0  0  0  0  0  0
    1.3730   17.1250    0.4990 C   0  0  0  0  0  0  0  0  0  0  0  0
    2.3622   18.4739    0.2729 H   0  0  0  0  0  0  0  0  0  0  0  0
    3.2342   19.8771   -0.4322 H   0  0  0  0  0  0  0  0  0  0  0  0
    1.4382   19.8435   -0.4322 H   0  0  0  0  0  0  0  0  0  0  0  0
    3.1861   18.9722   -2.4727 H   0  0  0  0  0  0  0  0  0  0  0  0
    1.3229   19.1033   -3.6951 H   0  0  0  0  0  0  0  0  0  0  0  0
    0.4953   17.8369   -2.6681 H   0  0  0  0  0  0  0  0  0  0  0  0
    0.7225   20.3996   -1.2922 H   0  0  0  0  0  0  0  0  0  0  0  0
   -0.1878   20.5200   -2.8558 H   0  0  0  0  0  0  0  0  0  0  0  0
   -0.9853   18.3545   -2.0573 H   0  0  0  0  0  0  0  0  0  0  0  0
   -0.7708   19.9624    2.0222 H   0  0  0  0  0  0  0  0  0  0  0  0
    0.5387   19.9340    0.7929 H   0  0  0  0  0  0  0  0  0  0  0  0
   -0.6645   21.2678    0.7929 H   0  0  0  0  0  0  0  0  0  0  0  0
   -2.2186   18.4811    1.7980 H   0  0  0  0  0  0  0  0  0  0  0  0
   -3.3333   18.5838    0.3932 H   0  0  0  0  0  0  0  0  0  0  0  0
   -1.9966   17.3839    0.3932 H   0  0  0  0  0  0  0  0  0  0  0  0
    2.4727   16.7118   -2.7528 H   0  0  0  0  0  0  0  0  0  0  0  0
    4.7058   16.5025   -1.8554 H   0  0  0  0  0  0  0  0  0  0  0  0
    4.3387   17.5737   -0.4859 H   0  0  0  0  0  0  0  0  0  0  0  0
    4.5454   14.7262   -0.3589 H   0  0  0  0  0  0  0  0  0  0  0  0
    3.8192   15.7207    0.9007 H   0  0  0  0  0  0  0  0  0  0  0  0
    2.9469   13.0816   -1.6037 H   0  0  0  0  0  0  0  0  0  0  0  0
    1.7045   14.0514   -2.4655 H   0  0  0  0  0  0  0  0  0  0  0  0
    3.4197   14.5851   -2.4655 H   0  0  0  0  0  0  0  0  0  0  0  0
    1.6573   14.7427    1.3868 H   0  0  0  0  0  0  0  0  0  0  0  0
    3.4172   12.9438    0.8353 H   0  0  0  0  0  0  0  0  0  0  0  0
    2.0075   12.5831    1.9632 H   0  0  0  0  0  0  0  0  0  0  0  0
    2.6296   10.6952    0.2344 H   0  0  0  0  0  0  0  0  0  0  0  0
    0.0458   13.0503   -1.7862 H   0  0  0  0  0  0  0  0  0  0  0  0
   -1.7053   11.5968    0.2916 H   0  0  0  0  0  0  0  0  0  0  0  0
   -2.2564   12.8200   -0.9376 H   0  0  0  0  0  0  0  0  0  0  0  0
   -2.8038   10.5030   -1.6113 H   0  0  0  0  0  0  0  0  0  0  0  0
   -1.6574   11.3170   -2.7470 H   0  0  0  0  0  0  0  0  0  0  0  0
   -0.9159    9.0620   -2.3899 H   0  0  0  0  0  0  0  0  0  0  0  0
   -0.3640    8.4330   -0.1750 H   0  0  0  0  0  0  0  0  0  0  0  0
    1.7840   11.4787   -3.0244 H   0  0  0  0  0  0  0  0  0  0  0  0
    1.5030    9.7932   -3.5783 H   0  0  0  0  0  0  0  0  0  0  0  0
    0.1509   10.9759   -3.5783 H   0  0  0  0  0  0  0  0  0  0  0  0
    1.6766    8.9179   -0.1685 H   0  0  0  0  0  0  0  0  0  0  0  0
    1.1608    8.1063   -1.6857 H   0  0  0  0  0  0  0  0  0  0  0  0
    2.6025    9.1778   -1.6857 H   0  0  0  0  0  0  0  0  0  0  0  0
    0.0698   13.8149    2.3727 H   0  0  0  0  0  0  0  0  0  0  0  0
   -1.5269   14.1432    1.6181 H   0  0  0  0  0  0  0  0  0  0  0  0
   -0.8593   12.4756    1.6181 H   0  0  0  0  0  0  0  0  0  0  0  0
   -1.5034   14.7535   -0.9647 H   0  0  0  0  0  0  0  0  0  0  0  0
   -0.8160   15.7502    0.4380 H   0  0  0  0  0  0  0  0  0  0  0  0
    0.3591   15.4045   -2.3347 H   0  0  0  0  0  0  0  0  0  0  0  0
   -0.3098   16.9001   -1.5705 H   0  0  0  0  0  0  0  0  0  0  0  0
    1.5410   16.4940    1.3842 H   0  0  0  0  0  0  0  0  0  0  0  0
    2.0776   17.9696    0.5118 H   0  0  0  0  0  0  0  0  0  0  0  0
    0.3417   17.5076    0.5118 H   0  0  0  0  0  0  0  0  0  0  0  0
  1  2  1  0
  2  3  1  0
  3  4  1  0
  4  5  1  0
  5  6  1  0
  6  7  1  0
  7  8  1  0
  7  9  1  0
  2 10  1  0
 10 11  1  0
 11 12  1  0
 12 13  1  0
 13 14  1  6
 13 15  1  0
 15 16  1  0
 16 17  1  0
 17 18  2  0
 18 19  1  0
 19 20  1  0
 20 21  1  0
 21 22  1  0
 22 23  1  0
 22 24  1  0
 24 25  1  0
 24 26  1  0
 19 27  1  0
 27 28  1  1
 27 29  1  0
 29 30  1  0
 30 31  1  0
 31 32  1  1
  7  5  1  0
 31 10  1  0
 31 13  1  0
 27 15  1  0
 24 18  1  0
  1 33  1  0
  1 34  1  0
  1 35  1  0
  2 36  1  6
  3 37  1  0
  3 38  1  0
  4 39  1  0
  4 40  1  0
  5 41  1  6
  8 42  1  0
  8 43  1  0
  8 44  1  0
  9 45  1  0
  9 46  1  0
  9 47  1  0
 10 48  1  6
 11 49  1  0
 11 50  1  0
 12 51  1  0
 12 52  1  0
 14 53  1  0
 14 54  1  0
 14 55  1  0
 15 56  1  1
 16 57  1  0
 16 58  1  0
 17 59  1  0
 19 60  1  6
 20 61  1  0
 20 62  1  0
 21 63  1  0
 21 64  1  0
 22 65  1  6
 23 66  1  0
 25 67  1  0
 25 68  1  0
 25 69  1  0
 26 70  1  0
 26 71  1  0
 26 72  1  0
 28 73  1  0
 28 74  1  0
 28 75  1  0
 29 76  1  0
 29 77  1  0
 30 78  1  0
 30 79  1  0
 32 80  1  0
 32 81  1  0
 32 82  1  0
M  END
>  <meeko>  (6) 
{"is_sidechain": [false], "intermolecular_energy": 2.731, "internal_energy": -0.839}

$$$$
EPH_relaxed_0001_pdb2pqr_Repair_258_r2_0001_out
     RDKit          3D

 82 86  0  0  0  0  0  0  0  0999 V2000
    1.0710   18.5280    0.4420 C   0  0  0  0  0  0  0  0  0  0  0  0
    2.1470   17.4520    0.2650 C   0  0  2  0  0  0  0  0  0  0  0  0
    3.4370   18.0190   -0.3600 C   0  0  0  0  0  0  0  0  0  0  0  0
    4.5760   18.2080    0.6450 C   0  0  0  0  0  0  0  0  0  0  0  0
    4.0810   18.7590    1.9480 C   0  0  2  0  0  0  0  0  0  0  0  0
    4.3810   20.1440    2.1650 O   0  0  0  0  0  0  0  0  0  0  0  0
    4.9980   19.2110    3.0680 C   0  0  0  0  0  0  0  0  0  0  0  0
    6.4870   19.1330    2.9370 C   0  0  0  0  0  0  0  0  0  0  0  0
    4.4520   19.2690    4.4610 C   0  0  0  0  0  0  0  0  0  0  0  0
    1.6080   16.3140   -0.5940 C   0  0  1  0  0  0  0  0  0  0  0  0
    1.8340   16.5520   -2.1110 C   0  0  0  0  0  0  0  0  0  0  0  0
    2.1060   15.1640   -2.7450 C   0  0  0  0  0  0  0  0  0  0  0  0
    1.7020   14.1490   -1.6500 C   0  0  1  0  0  0  0  0  0  0  0  0
    0.1490   14.0350   -1.7610 C   0  0  0  0  0  0  0  0  0  0  0  0
    2.3900   12.7460   -1.7210 C   0  0  2  0  0  0  0  0  0  0  0  0
    2.0870   11.9340   -2.9920 C   0  0  0  0  0  0  0  0  0  0  0  0
    0.8980   11.0350   -2.9060 C   0  0  0  0  0  0  0  0  0  0  0  0
    0.2750   10.6690   -1.7710 C   0  0  0  0  0  0  0  0  0  0  0  0
    0.8200   11.0930   -0.4010 C   0  0  1  0  0  0  0  0  0  0  0  0
    0.8330    9.8690    0.5520 C   0  0  0  0  0  0  0  0  0  0  0  0
   -0.5300    9.1900    0.6510 C   0  0  0  0  0  0  0  0  0  0  0  0
   -1.0120    8.7310   -0.7230 C   0  0  2  0  0  0  0  0  0  0  0  0
   -0.1510    7.6880   -1.1890 O   0  0  0  0  0  0  0  0  0  0  0  0
   -1.0570    9.8780   -1.7710 C   0  0  0  0  0  0  0  0  0  0  0  0
   -2.2040   10.8580   -1.4200 C   0  0  0  0  0  0  0  0  0  0  0  0
   -1.4230    9.2560   -3.1450 C   0  0  0  0  0  0  0  0  0  0  0  0
    2.2070   11.8690   -0.4170 C   0  0  1  0  0  0  0  0  0  0  0  0
    3.3870   10.8490   -0.3970 C   0  0  0  0  0  0  0  0  0  0  0  0
    2.3340   12.7210    0.9010 C   0  0  0  0  0  0  0  0  0  0  0  0
    1.7410   14.1420    0.8690 C   0  0  0  0  0  0  0  0  0  0  0  0
    2.2140   14.9060   -0.3710 C   0  0  2  0  0  0  0  0  0  0  0  0
    3.7710   15.0550   -0.2760 C   0  0  0  0  0  0  0  0  0  0  0  0
    0.8982   18.7008    1.5145 H   0  0  0  0  0  0  0  0  0  0  0  0
    1.4062   19.4630   -0.0307 H   0  0  0  0  0  0  0  0  0  0  0  0
    0.1360   18.1928   -0.0307 H   0  0  0  0  0  0  0  0  0  0  0  0
    2.4038   17.0728    1.2651 H   0  0  0  0  0  0  0  0  0  0  0  0
    3.7768   17.3260   -1.1438 H   0  0  0  0  0  0  0  0  0  0  0  0
    3.1908   19.0145   -0.7579 H   0  0  0  0  0  0  0  0  0  0  0  0
    5.0545   17.2347    0.8285 H   0  0  0  0  0  0  0  0  0  0  0  0
    5.2926   18.9260    0.2196 H   0  0  0  0  0  0  0  0  0  0  0  0
    3.2152   18.0806    1.9324 H   0  0  0  0  0  0  0  0  0  0  0  0
    6.9424   19.1091    3.9380 H   0  0  0  0  0  0  0  0  0  0  0  0
    6.7595   18.2194    2.3884 H   0  0  0  0  0  0  0  0  0  0  0  0
    6.8534   20.0132    2.3884 H   0  0  0  0  0  0  0  0  0  0  0  0
    5.2777   19.1813    5.1824 H   0  0  0  0  0  0  0  0  0  0  0  0
    3.9334   20.2273    4.6120 H   0  0  0  0  0  0  0  0  0  0  0  0
    3.7437   18.4410    4.6120 H   0  0  0  0  0  0  0  0  0  0  0  0
    0.5553   16.3247   -0.2750 H   0  0  0  0  0  0  0  0  0  0  0  0
    0.9384   17.0052   -2.5610 H   0  0  0  0  0  0  0  0  0  0  0  0
    2.6775   17.2369   -2.2823 H   0  0  0  0  0  0  0  0  0  0  0  0
    1.4952   15.0236   -3.6490 H   0  0  0  0  0  0  0  0  0  0  0  0
    3.1542   15.0460   -3.0569 H   0  0  0  0  0  0  0  0  0  0  0  0
   -0.2893   14.0028   -0.7526 H   0  0  0  0  0  0  0  0  0  0  0  0
   -0.2447   14.9067   -2.3043 H   0  0  0  0  0  0  0  0  0  0  0  0
   -0.1132   13.1152   -2.3043 H   0  0  0  0  0  0  0  0  0  0  0  0
    3.4564   13.0085   -1.7825 H   0  0  0  0  0  0  0  0  0  0  0  0
    1.9183   12.6428   -3.8161 H   0  0  0  0  0  0  0  0  0  0  0  0
    2.9551   11.2765   -3.1473 H   0  0  0  0  0  0  0  0  0  0  0  0
    0.4974   10.6383   -3.8506 H   0  0  0  0  0  0  0  0  0  0  0  0
    0.1252   11.8557   -0.0195 H   0  0  0  0  0  0  0  0  0  0  0  0
    1.5647    9.1381    0.1773 H   0  0  0  0  0  0  0  0  0  0  0  0
    1.0997   10.2304    1.5561 H   0  0  0  0  0  0  0  0  0  0  0  0
   -0.4497    8.3164    1.3146 H   0  0  0  0  0  0  0  0  0  0  0  0
   -1.2543    9.9135    1.0535 H   0  0  0  0  0  0  0  0  0  0  0  0
   -2.0450    8.3713   -0.6067 H   0  0  0  0  0  0  0  0  0  0  0  0
   -0.6900    7.0750   -1.7170 H   0  0  0  0  0  0  0  0  0  0  0  0
   -2.2968   10.9373   -0.3268 H   0  0  0  0  0  0  0  0  0  0  0  0
   -1.9814   11.8492   -1.8420 H   0  0  0  0  0  0  0  0  0  0  0  0
   -3.1483   10.4835   -1.8420 H   0  0  0  0  0  0  0  0  0  0  0  0
   -1.9751    8.3177   -2.9874 H   0  0  0  0  0  0  0  0  0  0  0  0
   -2.0507    9.9602   -3.7107 H   0  0  0  0  0  0  0  0  0  0  0  0
   -0.5026    9.0492   -3.7107 H   0  0  0  0  0  0  0  0  0  0  0  0
    3.6543   10.6179    0.6447 H   0  0  0  0  0  0  0  0  0  0  0  0
    3.0821    9.9254   -0.9108 H   0  0  0  0  0  0  0  0  0  0  0  0
    4.2567   11.2844   -0.9108 H   0  0  0  0  0  0  0  0  0  0  0  0
    1.8278   12.1672    1.7054 H   0  0  0  0  0  0  0  0  0  0  0  0
    3.4147   12.8633    1.0488 H   0  0  0  0  0  0  0  0  0  0  0  0
    0.6433   14.0734    0.8523 H   0  0  0  0  0  0  0  0  0  0  0  0
    2.0796   14.6834    1.7647 H   0  0  0  0  0  0  0  0  0  0  0  0
    4.0727   15.0839    0.7814 H   0  0  0  0  0  0  0  0  0  0  0  0
    4.2522   14.1988   -0.7714 H   0  0  0  0  0  0  0  0  0  0  0  0
    4.0811   15.9869   -0.7714 H   0  0  0  0  0  0  0  0  0  0  0  0
  1  2  1  0
  2  3  1  0
  3  4  1  0
  4  5  1  0
  5  6  1  0
  6  7  1  0
  7  8  1  0
  7  9  1  0
  2 10  1  0
 10 11  1  0
 11 12  1  0
 12 13  1  0
 13 14  1  1
 13 15  1  0
 15 16  1  0
 16 17  1  0
 17 18  2  0
 18 19  1  0
 19 20  1  0
 20 21  1  0
 21 22  1  0
 22 23  1  0
 22 24  1  0
 24 25  1  0
 24 26  1  0
 19 27  1  0
 27 28  1  1
 27 29  1  0
 29 30  1  0
 30 31  1  0
 31 32  1  6
  7  5  1  0
 31 10  1  0
 31 13  1  0
 27 15  1  0
 24 18  1  0
  1 33  1  0
  1 34  1  0
  1 35  1  0
  2 36  1  1
  3 37  1  0
  3 38  1  0
  4 39  1  0
  4 40  1  0
  5 41  1  1
  8 42  1  0
  8 43  1  0
  8 44  1  0
  9 45  1  0
  9 46  1  0
  9 47  1  0
 10 48  1  6
 11 49  1  0
 11 50  1  0
 12 51  1  0
 12 52  1  0
 14 53  1  0
 14 54  1  0
 14 55  1  0
 15 56  1  6
 16 57  1  0
 16 58  1  0
 17 59  1  0
 19 60  1  1
 20 61  1  0
 20 62  1  0
 21 63  1  0
 21 64  1  0
 22 65  1  1
 23 66  1  0
 25 67  1  0
 25 68  1  0
 25 69  1  0
 26 70  1  0
 26 71  1  0
 26 72  1  0
 28 73  1  0
 28 74  1  0
 28 75  1  0
 29 76  1  0
 29 77  1  0
 30 78  1  0
 30 79  1  0
 32 80  1  0
 32 81  1  0
 32 82  1  0
M  END
>  <meeko>  (7) 
{"is_sidechain": [false], "intermolecular_energy": 2.731, "internal_energy": -0.839}

$$$$
EPH_relaxed_0001_pdb2pqr_Repair_258_r2_0001_out
     RDKit          3D

 82 86  0  0  0  0  0  0  0  0999 V2000
    3.3130   17.5720   -0.0580 C   0  0  0  0  0  0  0  0  0  0  0  0
    2.3550   17.2400   -1.2060 C   0  0  2  0  0  0  0  0  0  0  0  0
    0.9070   17.6700   -0.8960 C   0  0  0  0  0  0  0  0  0  0  0  0
    0.8000   18.7120    0.2210 C   0  0  0  0  0  0  0  0  0  0  0  0
   -0.6240   18.9480    0.6240 C   0  0  2  0  0  0  0  0  0  0  0  0
   -1.5840   18.1370   -0.0650 O   0  0  0  0  0  0  0  0  0  0  0  0
   -1.6660   19.5520   -0.3000 C   0  0  0  0  0  0  0  0  0  0  0  0
   -1.3260   19.9570   -1.7000 C   0  0  0  0  0  0  0  0  0  0  0  0
   -2.8740   20.1940    0.3070 C   0  0  0  0  0  0  0  0  0  0  0  0
    2.4020   15.7470   -1.5070 C   0  0  1  0  0  0  0  0  0  0  0  0
    3.8470   15.2270   -1.7270 C   0  0  0  0  0  0  0  0  0  0  0  0
    3.8970   13.7880   -1.1520 C   0  0  0  0  0  0  0  0  0  0  0  0
    2.4150   13.4070   -0.9260 C   0  0  1  0  0  0  0  0  0  0  0  0
    1.8970   12.9630   -2.3290 C   0  0  0  0  0  0  0  0  0  0  0  0
    2.1400   12.3180    0.1620 C   0  0  2  0  0  0  0  0  0  0  0  0
    2.7520   10.9360   -0.1280 C   0  0  0  0  0  0  0  0  0  0  0  0
    1.8750    9.9970   -0.8880 C   0  0  0  0  0  0  0  0  0  0  0  0
    0.5490   10.1420   -1.0740 C   0  0  0  0  0  0  0  0  0  0  0  0
   -0.2180   11.2910   -0.4070 C   0  0  1  0  0  0  0  0  0  0  0  0
   -1.5170   10.7410    0.2380 C   0  0  0  0  0  0  0  0  0  0  0  0
   -2.3770    9.9620   -0.7520 C   0  0  0  0  0  0  0  0  0  0  0  0
   -1.5980    8.7930   -1.3500 C   0  0  2  0  0  0  0  0  0  0  0  0
   -1.3310    7.8400   -0.3160 O   0  0  0  0  0  0  0  0  0  0  0  0
   -0.2640    9.2250   -2.0200 C   0  0  0  0  0  0  0  0  0  0  0  0
   -0.5650   10.0110   -3.3190 C   0  0  0  0  0  0  0  0  0  0  0  0
    0.4900    7.9390   -2.4550 C   0  0  0  0  0  0  0  0  0  0  0  0
    0.6220   12.1990    0.5910 C   0  0  1  0  0  0  0  0  0  0  0  0
    0.6100   11.5720    2.0190 C   0  0  0  0  0  0  0  0  0  0  0  0
   -0.0760   13.6050    0.7180 C   0  0  0  0  0  0  0  0  0  0  0  0
    0.3270   14.6760   -0.3140 C   0  0  0  0  0  0  0  0  0  0  0  0
    1.8500   14.7850   -0.4240 C   0  0  2  0  0  0  0  0  0  0  0  0
    2.3990   15.2520    0.9670 C   0  0  0  0  0  0  0  0  0  0  0  0
    2.8079   17.3969    0.9034 H   0  0  0  0  0  0  0  0  0  0  0  0
    4.2037   16.9301   -0.1264 H   0  0  0  0  0  0  0  0  0  0  0  0
    3.6155   18.6274   -0.1264 H   0  0  0  0  0  0  0  0  0  0  0  0
    2.6863   17.8073   -2.0883 H   0  0  0  0  0  0  0  0  0  0  0  0
    0.4676   18.0949   -1.8105 H   0  0  0  0  0  0  0  0  0  0  0  0
    0.3721   16.7728   -0.5510 H   0  0  0  0  0  0  0  0  0  0  0  0
    1.3638   18.3560    1.0959 H   0  0  0  0  0  0  0  0  0  0  0  0
    1.2120   19.6605   -0.1541 H   0  0  0  0  0  0  0  0  0  0  0  0
   -0.3169   19.1941    1.6512 H   0  0  0  0  0  0  0  0  0  0  0  0
   -0.6189   20.7993   -1.6766 H   0  0  0  0  0  0  0  0  0  0  0  0
   -0.8667   19.1072   -2.2262 H   0  0  0  0  0  0  0  0  0  0  0  0
   -2.2425   20.2622   -2.2262 H   0  0  0  0  0  0  0  0  0  0  0  0
   -2.7985   20.1539    1.4037 H   0  0  0  0  0  0  0  0  0  0  0  0
   -2.9342   21.2431   -0.0183 H   0  0  0  0  0  0  0  0  0  0  0  0
   -3.7772   19.6569   -0.0183 H   0  0  0  0  0  0  0  0  0  0  0  0
    1.7584   15.7186   -2.3986 H   0  0  0  0  0  0  0  0  0  0  0  0
    4.0857   15.2144   -2.8007 H   0  0  0  0  0  0  0  0  0  0  0  0
    4.5809   15.8772   -1.2284 H   0  0  0  0  0  0  0  0  0  0  0  0
    4.3701   13.0999   -1.8680 H   0  0  0  0  0  0  0  0  0  0  0  0
    4.4890   13.7286   -0.2268 H   0  0  0  0  0  0  0  0  0  0  0  0
    1.0671   12.2517   -2.2052 H   0  0  0  0  0  0  0  0  0  0  0  0
    1.5448   13.8441   -2.8855 H   0  0  0  0  0  0  0  0  0  0  0  0
    2.7138   12.4802   -2.8855 H   0  0  0  0  0  0  0  0  0  0  0  0
    2.6876   12.7106    1.0315 H   0  0  0  0  0  0  0  0  0  0  0  0
    3.6729   11.0875   -0.7102 H   0  0  0  0  0  0  0  0  0  0  0  0
    2.9226   10.4670    0.8523 H   0  0  0  0  0  0  0  0  0  0  0  0
    2.3521    9.1118   -1.3338 H   0  0  0  0  0  0  0  0  0  0  0  0
   -0.4708   11.9955   -1.2130 H   0  0  0  0  0  0  0  0  0  0  0  0
   -1.2432   10.0737    1.0685 H   0  0  0  0  0  0  0  0  0  0  0  0
   -2.1065   11.6014    0.5876 H   0  0  0  0  0  0  0  0  0  0  0  0
   -3.2643    9.5740   -0.2304 H   0  0  0  0  0  0  0  0  0  0  0  0
   -2.6747   10.6387   -1.5666 H   0  0  0  0  0  0  0  0  0  0  0  0
   -2.2197    8.3537   -2.1441 H   0  0  0  0  0  0  0  0  0  0  0  0
   -2.1860    7.5150    0.0130 H   0  0  0  0  0  0  0  0  0  0  0  0
   -0.9476   11.0100   -3.0628 H   0  0  0  0  0  0  0  0  0  0  0  0
    0.3581   10.1120   -3.9087 H   0  0  0  0  0  0  0  0  0  0  0  0
   -1.3194    9.4696   -3.9087 H   0  0  0  0  0  0  0  0  0  0  0  0
    0.8150    7.3847   -1.5621 H   0  0  0  0  0  0  0  0  0  0  0  0
   -0.1802    7.3064   -3.0555 H   0  0  0  0  0  0  0  0  0  0  0  0
    1.3694    8.2149   -3.0555 H   0  0  0  0  0  0  0  0  0  0  0  0
    0.6253   12.3740    2.7717 H   0  0  0  0  0  0  0  0  0  0  0  0
   -0.2999   10.9671    2.1462 H   0  0  0  0  0  0  0  0  0  0  0  0
    1.4961   10.9327    2.1462 H   0  0  0  0  0  0  0  0  0  0  0  0
   -1.1609   13.4474    0.6278 H   0  0  0  0  0  0  0  0  0  0  0  0
    0.2526   14.0030    1.6894 H   0  0  0  0  0  0  0  0  0  0  0  0
   -0.0861   14.4028   -1.2962 H   0  0  0  0  0  0  0  0  0  0  0  0
   -0.0714   15.6472    0.0145 H   0  0  0  0  0  0  0  0  0  0  0  0
    1.8261   14.7647    1.7697 H   0  0  0  0  0  0  0  0  0  0  0  0
    3.4601   14.9755    1.0540 H   0  0  0  0  0  0  0  0  0  0  0  0
    2.2963   16.3437    1.0540 H   0  0  0  0  0  0  0  0  0  0  0  0
  1  2  1  0
  2  3  1  0
  3  4  1  0
  4  5  1  0
  5  6  1  0
  6  7  1  0
  7  8  1  0
  7  9  1  0
  2 10  1  0
 10 11  1  0
 11 12  1  0
 12 13  1  0
 13 14  1  6
 13 15  1  0
 15 16  1  0
 16 17  1  0
 17 18  2  0
 18 19  1  0
 19 20  1  0
 20 21  1  0
 21 22  1  0
 22 23  1  0
 22 24  1  0
 24 25  1  0
 24 26  1  0
 19 27  1  0
 27 28  1  1
 27 29  1  0
 29 30  1  0
 30 31  1  0
 31 32  1  1
  7  5  1  0
 31 10  1  0
 31 13  1  0
 27 15  1  0
 24 18  1  0
  1 33  1  0
  1 34  1  0
  1 35  1  0
  2 36  1  6
  3 37  1  0
  3 38  1  0
  4 39  1  0
  4 40  1  0
  5 41  1  1
  8 42  1  0
  8 43  1  0
  8 44  1  0
  9 45  1  0
  9 46  1  0
  9 47  1  0
 10 48  1  6
 11 49  1  0
 11 50  1  0
 12 51  1  0
 12 52  1  0
 14 53  1  0
 14 54  1  0
 14 55  1  0
 15 56  1  1
 16 57  1  0
 16 58  1  0
 17 59  1  0
 19 60  1  6
 20 61  1  0
 20 62  1  0
 21 63  1  0
 21 64  1  0
 22 65  1  6
 23 66  1  0
 25 67  1  0
 25 68  1  0
 25 69  1  0
 26 70  1  0
 26 71  1  0
 26 72  1  0
 28 73  1  0
 28 74  1  0
 28 75  1  0
 29 76  1  0
 29 77  1  0
 30 78  1  0
 30 79  1  0
 32 80  1  0
 32 81  1  0
 32 82  1  0
M  END
>  <meeko>  (8) 
{"is_sidechain": [false], "intermolecular_energy": 2.731, "internal_energy": -0.839}

$$$$
EPH_relaxed_0001_pdb2pqr_Repair_258_r2_0001_out
     RDKit          3D

 82 86  0  0  0  0  0  0  0  0999 V2000
   -4.1540    7.8850   -3.9510 C   0  0  0  0  0  0  0  0  0  0  0  0
   -3.5650    7.4520   -2.6050 C   0  0  2  0  0  0  0  0  0  0  0  0
   -4.5840    6.6750   -1.7480 C   0  0  0  0  0  0  0  0  0  0  0  0
   -6.0050    6.6890   -2.3180 C   0  0  0  0  0  0  0  0  0  0  0  0
   -7.0340    6.4830   -1.2470 C   0  0  2  0  0  0  0  0  0  0  0  0
   -8.1160    5.6180   -1.6150 O   0  0  0  0  0  0  0  0  0  0  0  0
   -8.4610    6.9870   -1.3510 C   0  0  0  0  0  0  0  0  0  0  0  0
   -8.9390    7.7370   -2.5550 C   0  0  0  0  0  0  0  0  0  0  0  0
   -9.2460    7.1780   -0.0900 C   0  0  0  0  0  0  0  0  0  0  0  0
   -3.0650    8.6720   -1.8400 C   0  0  1  0  0  0  0  0  0  0  0  0
   -3.7300    8.8170   -0.4460 C   0  0  0  0  0  0  0  0  0  0  0  0
   -2.6540    9.4020    0.5050 C   0  0  0  0  0  0  0  0  0  0  0  0
   -1.5230    9.8810   -0.4350 C   0  0  1  0  0  0  0  0  0  0  0  0
   -1.9980   11.2730   -0.9570 C   0  0  0  0  0  0  0  0  0  0  0  0
   -0.0910    9.9560    0.1890 C   0  0  2  0  0  0  0  0  0  0  0  0
    0.0610   10.9510    1.3540 C   0  0  0  0  0  0  0  0  0  0  0  0
    0.4640   12.3340    0.9630 C   0  0  0  0  0  0  0  0  0  0  0  0
    0.9700   12.6930   -0.2320 C   0  0  0  0  0  0  0  0  0  0  0  0
    1.2740   11.6410   -1.3070 C   0  0  1  0  0  0  0  0  0  0  0  0
    2.6800   11.9050   -1.9070 C   0  0  0  0  0  0  0  0  0  0  0  0
    2.8360   13.3320   -2.4250 C   0  0  0  0  0  0  0  0  0  0  0  0
    2.5830   14.3470   -1.3140 C   0  0  2  0  0  0  0  0  0  0  0  0
    3.6220   14.2300   -0.3370 O   0  0  0  0  0  0  0  0  0  0  0  0
    1.1990   14.1720   -0.6280 C   0  0  0  0  0  0  0  0  0  0  0  0
    0.0760   14.5930   -1.6080 C   0  0  0  0  0  0  0  0  0  0  0  0
    1.1290   15.1640    0.5650 C   0  0  0  0  0  0  0  0  0  0  0  0
    1.0710   10.1260   -0.8720 C   0  0  1  0  0  0  0  0  0  0  0  0
    2.3700    9.5870   -0.1990 C   0  0  0  0  0  0  0  0  0  0  0  0
    0.8390    9.2480   -2.1580 C   0  0  0  0  0  0  0  0  0  0  0  0
   -0.6130    9.1150   -2.6560 C   0  0  0  0  0  0  0  0  0  0  0  0
   -1.5530    8.7330   -1.5090 C   0  0  2  0  0  0  0  0  0  0  0  0
   -1.1130    7.3260   -0.9780 C   0  0  0  0  0  0  0  0  0  0  0  0
   -5.0293    8.5285   -3.7782 H   0  0  0  0  0  0  0  0  0  0  0  0
   -3.3959    8.4424   -4.5207 H   0  0  0  0  0  0  0  0  0  0  0  0
   -4.4598    6.9951   -4.5207 H   0  0  0  0  0  0  0  0  0  0  0  0
   -2.7246    6.7739   -2.8147 H   0  0  0  0  0  0  0  0  0  0  0  0
   -4.2499    5.6296   -1.6738 H   0  0  0  0  0  0  0  0  0  0  0  0
   -4.6258    7.1728   -0.7680 H   0  0  0  0  0  0  0  0  0  0  0  0
   -6.1849    7.6596   -2.8033 H   0  0  0  0  0  0  0  0  0  0  0  0
   -6.0927    5.8646   -3.0410 H   0  0  0  0  0  0  0  0  0  0  0  0
   -6.2710    6.5842   -0.4611 H   0  0  0  0  0  0  0  0  0  0  0  0
   -9.5044    8.6242   -2.2337 H   0  0  0  0  0  0  0  0  0  0  0  0
   -8.0745    8.0517   -3.1580 H   0  0  0  0  0  0  0  0  0  0  0  0
   -9.5893    7.0863   -3.1580 H   0  0  0  0  0  0  0  0  0  0  0  0
   -8.5897    7.0183    0.7782 H   0  0  0  0  0  0  0  0  0  0  0  0
   -9.6501    8.2007   -0.0610 H   0  0  0  0  0  0  0  0  0  0  0  0
  -10.0748    6.4553   -0.0610 H   0  0  0  0  0  0  0  0  0  0  0  0
   -3.3243    9.4609   -2.5614 H   0  0  0  0  0  0  0  0  0  0  0  0
   -4.5921    9.4975   -0.5066 H   0  0  0  0  0  0  0  0  0  0  0  0
   -4.0946    7.8460   -0.0797 H   0  0  0  0  0  0  0  0  0  0  0  0
   -3.0624   10.2446    1.0822 H   0  0  0  0  0  0  0  0  0  0  0  0
   -2.3012    8.6641    1.2406 H   0  0  0  0  0  0  0  0  0  0  0  0
   -2.2216   11.9283   -0.1023 H   0  0  0  0  0  0  0  0  0  0  0  0
   -1.2036   11.7259   -1.5683 H   0  0  0  0  0  0  0  0  0  0  0  0
   -2.9036   11.1458   -1.5683 H   0  0  0  0  0  0  0  0  0  0  0  0
    0.0263    8.9560    0.6321 H   0  0  0  0  0  0  0  0  0  0  0  0
   -0.9053   11.0133    1.8760 H   0  0  0  0  0  0  0  0  0  0  0  0
    0.8766   10.5624    1.9815 H   0  0  0  0  0  0  0  0  0  0  0  0
    0.3369   13.1270    1.7147 H   0  0  0  0  0  0  0  0  0  0  0  0
    0.5062   11.7700   -2.0841 H   0  0  0  0  0  0  0  0  0  0  0  0
    3.4352   11.7284   -1.1270 H   0  0  0  0  0  0  0  0  0  0  0  0
    2.8126   11.2234   -2.7602 H   0  0  0  0  0  0  0  0  0  0  0  0
    3.8582   13.4658   -2.8087 H   0  0  0  0  0  0  0  0  0  0  0  0
    2.0996   13.4971   -3.2253 H   0  0  0  0  0  0  0  0  0  0  0  0
    2.5812   15.3461   -1.7743 H   0  0  0  0  0  0  0  0  0  0  0  0
    3.8400   13.2860   -0.2510 H   0  0  0  0  0  0  0  0  0  0  0  0
   -0.8043   14.9230   -1.0369 H   0  0  0  0  0  0  0  0  0  0  0  0
    0.4326   15.4185   -2.2415 H   0  0  0  0  0  0  0  0  0  0  0  0
   -0.1979   13.7365   -2.2415 H   0  0  0  0  0  0  0  0  0  0  0  0
    1.1685   14.6035    1.5107 H   0  0  0  0  0  0  0  0  0  0  0  0
    1.9804   15.8587    0.5146 H   0  0  0  0  0  0  0  0  0  0  0  0
    0.1885   15.7323    0.5146 H   0  0  0  0  0  0  0  0  0  0  0  0
    2.2620    9.6318    0.8948 H   0  0  0  0  0  0  0  0  0  0  0  0
    2.5380    8.5449   -0.5085 H   0  0  0  0  0  0  0  0  0  0  0  0
    3.2265   10.2040   -0.5085 H   0  0  0  0  0  0  0  0  0  0  0  0
    1.4313    9.6890   -2.9733 H   0  0  0  0  0  0  0  0  0  0  0  0
    1.1385    8.2298   -1.8691 H   0  0  0  0  0  0  0  0  0  0  0  0
   -0.9369   10.0762   -3.0817 H   0  0  0  0  0  0  0  0  0  0  0  0
   -0.6510    8.3236   -3.4190 H   0  0  0  0  0  0  0  0  0  0  0  0
   -1.1149    7.3322    0.1220 H   0  0  0  0  0  0  0  0  0  0  0  0
   -1.8148    6.5610   -1.3416 H   0  0  0  0  0  0  0  0  0  0  0  0
   -0.1004    7.0971   -1.3416 H   0  0  0  0  0  0  0  0  0  0  0  0
  1  2  1  0
  2  3  1  0
  3  4  1  0
  4  5  1  0
  5  6  1  0
  6  7  1  0
  7  8  1  0
  7  9  1  0
  2 10  1  0
 10 11  1  0
 11 12  1  0
 12 13  1  0
 13 14  1  6
 13 15  1  0
 15 16  1  0
 16 17  1  0
 17 18  2  0
 18 19  1  0
 19 20  1  0
 20 21  1  0
 21 22  1  0
 22 23  1  0
 22 24  1  0
 24 25  1  0
 24 26  1  0
 19 27  1  0
 27 28  1  1
 27 29  1  0
 29 30  1  0
 30 31  1  0
 31 32  1  1
  7  5  1  0
 31 10  1  0
 31 13  1  0
 27 15  1  0
 24 18  1  0
  1 33  1  0
  1 34  1  0
  1 35  1  0
  2 36  1  6
  3 37  1  0
  3 38  1  0
  4 39  1  0
  4 40  1  0
  5 41  1  1
  8 42  1  0
  8 43  1  0
  8 44  1  0
  9 45  1  0
  9 46  1  0
  9 47  1  0
 10 48  1  6
 11 49  1  0
 11 50  1  0
 12 51  1  0
 12 52  1  0
 14 53  1  0
 14 54  1  0
 14 55  1  0
 15 56  1  1
 16 57  1  0
 16 58  1  0
 17 59  1  0
 19 60  1  6
 20 61  1  0
 20 62  1  0
 21 63  1  0
 21 64  1  0
 22 65  1  6
 23 66  1  0
 25 67  1  0
 25 68  1  0
 25 69  1  0
 26 70  1  0
 26 71  1  0
 26 72  1  0
 28 73  1  0
 28 74  1  0
 28 75  1  0
 29 76  1  0
 29 77  1  0
 30 78  1  0
 30 79  1  0
 32 80  1  0
 32 81  1  0
 32 82  1  0
M  END
>  <meeko>  (9) 
{"is_sidechain": [false], "intermolecular_energy": 2.731, "internal_energy": -0.839}

$$$$
EPH_relaxed_0001_pdb2pqr_Repair_258_r2_0001_out
     RDKit          3D

 82 86  0  0  0  0  0  0  0  0999 V2000
   -2.5080    7.7930   -0.3990 C   0  0  0  0  0  0  0  0  0  0  0  0
   -3.0250    9.2300   -0.2980 C   0  0  2  0  0  0  0  0  0  0  0  0
   -4.4930    9.3520   -0.7560 C   0  0  0  0  0  0  0  0  0  0  0  0
   -5.3020    8.0650   -0.5770 C   0  0  0  0  0  0  0  0  0  0  0  0
   -5.9940    7.6650   -1.8450 C   0  0  2  0  0  0  0  0  0  0  0  0
   -7.0560    8.5380   -2.2490 O   0  0  0  0  0  0  0  0  0  0  0  0
   -7.4370    7.1980   -1.8990 C   0  0  0  0  0  0  0  0  0  0  0  0
   -8.2740    7.1050   -0.6620 C   0  0  0  0  0  0  0  0  0  0  0  0
   -7.8780    6.3720   -3.0680 C   0  0  0  0  0  0  0  0  0  0  0  0
   -2.1440   10.1590   -1.1240 C   0  0  1  0  0  0  0  0  0  0  0  0
   -2.6080   11.6390   -1.0590 C   0  0  0  0  0  0  0  0  0  0  0  0
   -1.3270   12.5120   -1.1040 C   0  0  0  0  0  0  0  0  0  0  0  0
   -0.2050   11.5350   -1.5260 C   0  0  1  0  0  0  0  0  0  0  0  0
   -0.3340   11.4220   -3.0780 C   0  0  0  0  0  0  0  0  0  0  0  0
    1.2470   11.9240   -1.0960 C   0  0  2  0  0  0  0  0  0  0  0  0
    1.7730   13.2420   -1.6900 C   0  0  0  0  0  0  0  0  0  0  0  0
    2.4950   13.1120   -2.9900 C   0  0  0  0  0  0  0  0  0  0  0  0
    2.9620   11.9640   -3.5140 C   0  0  0  0  0  0  0  0  0  0  0  0
    2.8660   10.6460   -2.7340 C   0  0  1  0  0  0  0  0  0  0  0  0
    4.2270    9.9040   -2.8020 C   0  0  0  0  0  0  0  0  0  0  0  0
    4.7120    9.7010   -4.2340 C   0  0  0  0  0  0  0  0  0  0  0  0
    4.8500   11.0380   -4.9580 C   0  0  2  0  0  0  0  0  0  0  0  0
    5.9080   11.7850   -4.3490 O   0  0  0  0  0  0  0  0  0  0  0  0
    3.5430   11.8790   -4.9470 C   0  0  0  0  0  0  0  0  0  0  0  0
    2.4870   11.2100   -5.8610 C   0  0  0  0  0  0  0  0  0  0  0  0
    3.8580   13.2590   -5.5840 C   0  0  0  0  0  0  0  0  0  0  0  0
    2.3040   10.7570   -1.2520 C   0  0  1  0  0  0  0  0  0  0  0  0
    3.4680   11.0750   -0.2640 C   0  0  0  0  0  0  0  0  0  0  0  0
    1.7220    9.3600   -0.8170 C   0  0  0  0  0  0  0  0  0  0  0  0
    0.2470    9.0830   -1.1660 C   0  0  0  0  0  0  0  0  0  0  0  0
   -0.6460   10.2500   -0.7360 C   0  0  2  0  0  0  0  0  0  0  0  0
   -0.5540   10.3750    0.8230 C   0  0  0  0  0  0  0  0  0  0  0  0
   -2.3610    7.3843    0.6116 H   0  0  0  0  0  0  0  0  0  0  0  0
   -3.2408    7.1769   -0.9406 H   0  0  0  0  0  0  0  0  0  0  0  0
   -1.5506    7.7850   -0.9406 H   0  0  0  0  0  0  0  0  0  0  0  0
   -2.9833    9.5228    0.7615 H   0  0  0  0  0  0  0  0  0  0  0  0
   -4.9744   10.1491   -0.1705 H   0  0  0  0  0  0  0  0  0  0  0  0
   -4.4764    9.5743   -1.8332 H   0  0  0  0  0  0  0  0  0  0  0  0
   -4.6222    7.2561   -0.2713 H   0  0  0  0  0  0  0  0  0  0  0  0
   -6.0692    8.2458    0.1903 H   0  0  0  0  0  0  0  0  0  0  0  0
   -5.0636    7.2352   -2.2446 H   0  0  0  0  0  0  0  0  0  0  0  0
   -7.6270    7.1769    0.2247 H   0  0  0  0  0  0  0  0  0  0  0  0
   -9.0043    7.9275   -0.6507 H   0  0  0  0  0  0  0  0  0  0  0  0
   -8.8059    6.1422   -0.6507 H   0  0  0  0  0  0  0  0  0  0  0  0
   -8.3672    5.4557   -2.7058 H   0  0  0  0  0  0  0  0  0  0  0  0
   -8.5876    6.9498   -3.6784 H   0  0  0  0  0  0  0  0  0  0  0  0
   -7.0031    6.1038   -3.6784 H   0  0  0  0  0  0  0  0  0  0  0  0
   -2.2495    9.6834   -2.1102 H   0  0  0  0  0  0  0  0  0  0  0  0
   -3.2550   11.8712   -1.9178 H   0  0  0  0  0  0  0  0  0  0  0  0
   -3.1854   11.8320   -0.1428 H   0  0  0  0  0  0  0  0  0  0  0  0
   -1.4344   13.3218   -1.8407 H   0  0  0  0  0  0  0  0  0  0  0  0
   -1.1177   12.9964   -0.1388 H   0  0  0  0  0  0  0  0  0  0  0  0
   -1.1397   10.7162   -3.3285 H   0  0  0  0  0  0  0  0  0  0  0  0
   -0.5684   12.4107   -3.4994 H   0  0  0  0  0  0  0  0  0  0  0  0
    0.6152   11.0595   -3.4994 H   0  0  0  0  0  0  0  0  0  0  0  0
    1.1316   12.1080   -0.0176 H   0  0  0  0  0  0  0  0  0  0  0  0
    0.9144   13.9122   -1.8436 H   0  0  0  0  0  0  0  0  0  0  0  0
    2.5097   13.6278   -0.9699 H   0  0  0  0  0  0  0  0  0  0  0  0
    2.6592   14.0329   -3.5688 H   0  0  0  0  0  0  0  0  0  0  0  0
    2.0907   10.0499   -3.2376 H   0  0  0  0  0  0  0  0  0  0  0  0
    4.9778   10.4938   -2.2558 H   0  0  0  0  0  0  0  0  0  0  0  0
    4.0879    8.9097   -2.3526 H   0  0  0  0  0  0  0  0  0  0  0  0
    5.6907    9.1993   -4.2149 H   0  0  0  0  0  0  0  0  0  0  0  0
    3.9747    9.0857   -4.7705 H   0  0  0  0  0  0  0  0  0  0  0  0
    5.0734   10.8201   -6.0128 H   0  0  0  0  0  0  0  0  0  0  0  0
    5.5840   12.1090   -3.4920 H   0  0  0  0  0  0  0  0  0  0  0  0
    1.7199   10.7240   -5.2402 H   0  0  0  0  0  0  0  0  0  0  0  0
    2.0148   11.9741   -6.4960 H   0  0  0  0  0  0  0  0  0  0  0  0
    2.9762   10.4567   -6.4960 H   0  0  0  0  0  0  0  0  0  0  0  0
    4.0271   13.9999   -4.7887 H   0  0  0  0  0  0  0  0  0  0  0  0
    4.7607   13.1777   -6.2073 H   0  0  0  0  0  0  0  0  0  0  0  0
    3.0094   13.5774   -6.2073 H   0  0  0  0  0  0  0  0  0  0  0  0
    3.1079   10.9766    0.7707 H   0  0  0  0  0  0  0  0  0  0  0  0
    4.2953   10.3699   -0.4329 H   0  0  0  0  0  0  0  0  0  0  0  0
    3.8219   12.1027   -0.4329 H   0  0  0  0  0  0  0  0  0  0  0  0
    2.3302    8.5811   -1.3000 H   0  0  0  0  0  0  0  0  0  0  0  0
    1.7625    9.3608    0.2823 H   0  0  0  0  0  0  0  0  0  0  0  0
    0.1549    8.9408   -2.2529 H   0  0  0  0  0  0  0  0  0  0  0  0
   -0.0763    8.1780   -0.6307 H   0  0  0  0  0  0  0  0  0  0  0  0
   -1.1442    9.5731    1.2906 H   0  0  0  0  0  0  0  0  0  0  0  0
    0.4967   10.2874    1.1365 H   0  0  0  0  0  0  0  0  0  0  0  0
   -0.9500   11.3522    1.1365 H   0  0  0  0  0  0  0  0  0  0  0  0
  1  2  1  0
  2  3  1  0
  3  4  1  0
  4  5  1  0
  5  6  1  0
  6  7  1  0
  7  8  1  0
  7  9  1  0
  2 10  1  0
 10 11  1  0
 11 12  1  0
 12 13  1  0
 13 14  1  6
 13 15  1  0
 15 16  1  0
 16 17  1  0
 17 18  2  0
 18 19  1  0
 19 20  1  0
 20 21  1  0
 21 22  1  0
 22 23  1  0
 22 24  1  0
 24 25  1  0
 24 26  1  0
 19 27  1  0
 27 28  1  1
 27 29  1  0
 29 30  1  0
 30 31  1  0
 31 32  1  1
  7  5  1  0
 31 10  1  0
 31 13  1  0
 27 15  1  0
 24 18  1  0
  1 33  1  0
  1 34  1  0
  1 35  1  0
  2 36  1  1
  3 37  1  0
  3 38  1  0
  4 39  1  0
  4 40  1  0
  5 41  1  6
  8 42  1  0
  8 43  1  0
  8 44  1  0
  9 45  1  0
  9 46  1  0
  9 47  1  0
 10 48  1  6
 11 49  1  0
 11 50  1  0
 12 51  1  0
 12 52  1  0
 14 53  1  0
 14 54  1  0
 14 55  1  0
 15 56  1  1
 16 57  1  0
 16 58  1  0
 17 59  1  0
 19 60  1  6
 20 61  1  0
 20 62  1  0
 21 63  1  0
 21 64  1  0
 22 65  1  6
 23 66  1  0
 25 67  1  0
 25 68  1  0
 25 69  1  0
 26 70  1  0
 26 71  1  0
 26 72  1  0
 28 73  1  0
 28 74  1  0
 28 75  1  0
 29 76  1  0
 29 77  1  0
 30 78  1  0
 30 79  1  0
 32 80  1  0
 32 81  1  0
 32 82  1  0
M  END
>  <meeko>  (10) 
{"is_sidechain": [false], "intermolecular_energy": 2.731, "internal_energy": -0.839}

$$$$
EPH_relaxed_0001_pdb2pqr_Repair_258_r2_0001_out
     RDKit          3D

 82 86  0  0  0  0  0  0  0  0999 V2000
   -1.0940    9.3280   -2.3630 C   0  0  0  0  0  0  0  0  0  0  0  0
   -1.3690    9.3790   -0.8570 C   0  0  2  0  0  0  0  0  0  0  0  0
   -2.8730    9.2730   -0.5380 C   0  0  0  0  0  0  0  0  0  0  0  0
   -3.5900    8.1630   -1.3130 C   0  0  0  0  0  0  0  0  0  0  0  0
   -5.0490    8.1040   -0.9740 C   0  0  2  0  0  0  0  0  0  0  0  0
   -5.5330    6.7960   -0.6400 O   0  0  0  0  0  0  0  0  0  0  0  0
   -6.0780    7.3900   -1.8300 C   0  0  0  0  0  0  0  0  0  0  0  0
   -5.6910    6.6880   -3.0930 C   0  0  0  0  0  0  0  0  0  0  0  0
   -7.5160    7.7880   -1.7010 C   0  0  0  0  0  0  0  0  0  0  0  0
   -0.8010   10.6650   -0.2680 C   0  0  1  0  0  0  0  0  0  0  0  0
   -0.3570   10.5010    1.2100 C   0  0  0  0  0  0  0  0  0  0  0  0
    0.8920   11.3980    1.4050 C   0  0  0  0  0  0  0  0  0  0  0  0
    0.9280   12.2950    0.1450 C   0  0  1  0  0  0  0  0  0  0  0  0
   -0.0940   13.4380    0.4360 C   0  0  0  0  0  0  0  0  0  0  0  0
    2.3280   12.8610   -0.2600 C   0  0  2  0  0  0  0  0  0  0  0  0
    2.9780   13.7940    0.7770 C   0  0  0  0  0  0  0  0  0  0  0  0
    2.6580   15.2440    0.6190 C   0  0  0  0  0  0  0  0  0  0  0  0
    2.1160   15.8110   -0.4750 C   0  0  0  0  0  0  0  0  0  0  0  0
    1.8580   14.9870   -1.7430 C   0  0  1  0  0  0  0  0  0  0  0  0
    2.3680   15.7700   -2.9810 C   0  0  0  0  0  0  0  0  0  0  0  0
    1.7790   17.1750   -3.0680 C   0  0  0  0  0  0  0  0  0  0  0  0
    2.1070   17.9820   -1.8140 C   0  0  2  0  0  0  0  0  0  0  0  0
    3.5180   18.2120   -1.7700 O   0  0  0  0  0  0  0  0  0  0  0  0
    1.6490   17.2870   -0.5020 C   0  0  0  0  0  0  0  0  0  0  0  0
    0.1030   17.3090   -0.4130 C   0  0  0  0  0  0  0  0  0  0  0  0
    2.1640   18.1350    0.6920 C   0  0  0  0  0  0  0  0  0  0  0  0
    2.3790   13.4860   -1.7130 C   0  0  1  0  0  0  0  0  0  0  0  0
    3.8690   13.4310   -2.1690 C   0  0  0  0  0  0  0  0  0  0  0  0
    1.5630   12.6380   -2.7580 C   0  0  0  0  0  0  0  0  0  0  0  0
    0.2480   12.0040   -2.2640 C   0  0  0  0  0  0  0  0  0  0  0  0
    0.4610   11.2600   -0.9430 C   0  0  2  0  0  0  0  0  0  0  0  0
    1.4680   10.0900   -1.2100 C   0  0  0  0  0  0  0  0  0  0  0  0
   -0.0256    9.1299   -2.5341 H   0  0  0  0  0  0  0  0  0  0  0  0
   -1.6932    8.5257   -2.8182 H   0  0  0  0  0  0  0  0  0  0  0  0
   -1.3657   10.2918   -2.8182 H   0  0  0  0  0  0  0  0  0  0  0  0
   -0.8725    8.5101   -0.4003 H   0  0  0  0  0  0  0  0  0  0  0  0
   -2.9867    9.0745    0.5380 H   0  0  0  0  0  0  0  0  0  0  0  0
   -3.3336   10.2252   -0.8400 H   0  0  0  0  0  0  0  0  0  0  0  0
   -3.4818    8.3537   -2.3909 H   0  0  0  0  0  0  0  0  0  0  0  0
   -3.1341    7.2012   -1.0353 H   0  0  0  0  0  0  0  0  0  0  0  0
   -5.0169    9.1195   -0.5525 H   0  0  0  0  0  0  0  0  0  0  0  0
   -5.1734    5.7491   -2.8468 H   0  0  0  0  0  0  0  0  0  0  0  0
   -6.5940    6.4657   -3.6805 H   0  0  0  0  0  0  0  0  0  0  0  0
   -5.0210    7.3329   -3.6805 H   0  0  0  0  0  0  0  0  0  0  0  0
   -7.7820    7.8616   -0.6362 H   0  0  0  0  0  0  0  0  0  0  0  0
   -7.6715    8.7630   -2.1860 H   0  0  0  0  0  0  0  0  0  0  0  0
   -8.1507    7.0318   -2.1860 H   0  0  0  0  0  0  0  0  0  0  0  0
   -1.6610   11.3333   -0.4222 H   0  0  0  0  0  0  0  0  0  0  0  0
   -1.1634   10.8227    1.8855 H   0  0  0  0  0  0  0  0  0  0  0  0
   -0.1274    9.4498    1.4387 H   0  0  0  0  0  0  0  0  0  0  0  0
    0.7932   12.0092    2.3142 H   0  0  0  0  0  0  0  0  0  0  0  0
    1.8137   10.8098    1.5251 H   0  0  0  0  0  0  0  0  0  0  0  0
   -0.2052   13.5624    1.5233 H   0  0  0  0  0  0  0  0  0  0  0  0
    0.2710   14.3773   -0.0051 H   0  0  0  0  0  0  0  0  0  0  0  0
   -1.0681   13.1800   -0.0051 H   0  0  0  0  0  0  0  0  0  0  0  0
    2.9524   11.9557   -0.2809 H   0  0  0  0  0  0  0  0  0  0  0  0
    2.6421   13.4786    1.7758 H   0  0  0  0  0  0  0  0  0  0  0  0
    4.0643   13.7040    0.6289 H   0  0  0  0  0  0  0  0  0  0  0  0
    2.8844   15.9049    1.4687 H   0  0  0  0  0  0  0  0  0  0  0  0
    0.7674   14.8582   -1.8055 H   0  0  0  0  0  0  0  0  0  0  0  0
    3.4634   15.8500   -2.9210 H   0  0  0  0  0  0  0  0  0  0  0  0
    2.0509   15.2188   -3.8786 H   0  0  0  0  0  0  0  0  0  0  0  0
    2.1986   17.6876   -3.9462 H   0  0  0  0  0  0  0  0  0  0  0  0
    0.6857   17.0928   -3.1570 H   0  0  0  0  0  0  0  0  0  0  0  0
    1.5524   18.9299   -1.8767 H   0  0  0  0  0  0  0  0  0  0  0  0
    3.8250   18.3400   -2.6840 H   0  0  0  0  0  0  0  0  0  0  0  0
   -0.2034   17.3134    0.6434 H   0  0  0  0  0  0  0  0  0  0  0  0
   -0.2800   18.2127   -0.9096 H   0  0  0  0  0  0  0  0  0  0  0  0
   -0.3056   16.4166   -0.9096 H   0  0  0  0  0  0  0  0  0  0  0  0
    1.8716   17.6535    1.6368 H   0  0  0  0  0  0  0  0  0  0  0  0
    3.2603   18.2100    0.6426 H   0  0  0  0  0  0  0  0  0  0  0  0
    1.7250   19.1424    0.6426 H   0  0  0  0  0  0  0  0  0  0  0  0
    4.5225   13.4069   -1.2845 H   0  0  0  0  0  0  0  0  0  0  0  0
    4.0347   12.5261   -2.7721 H   0  0  0  0  0  0  0  0  0  0  0  0
    4.1010   14.3212   -2.7721 H   0  0  0  0  0  0  0  0  0  0  0  0
    1.3172   13.2982   -3.6028 H   0  0  0  0  0  0  0  0  0  0  0  0
    2.2147   11.7886   -3.0107 H   0  0  0  0  0  0  0  0  0  0  0  0
   -0.4997   12.7968   -2.1140 H   0  0  0  0  0  0  0  0  0  0  0  0
   -0.1002   11.2845   -3.0197 H   0  0  0  0  0  0  0  0  0  0  0  0
    1.8190    9.6822   -0.2506 H   0  0  0  0  0  0  0  0  0  0  0  0
    0.9653    9.2972   -1.7835 H   0  0  0  0  0  0  0  0  0  0  0  0
    2.3268   10.4690   -1.7835 H   0  0  0  0  0  0  0  0  0  0  0  0
  1  2  1  0
  2  3  1  0
  3  4  1  0
  4  5  1  0
  5  6  1  0
  6  7  1  0
  7  8  1  0
  7  9  1  0
  2 10  1  0
 10 11  1  0
 11 12  1  0
 12 13  1  0
 13 14  1  1
 13 15  1  0
 15 16  1  0
 16 17  1  0
 17 18  2  0
 18 19  1  0
 19 20  1  0
 20 21  1  0
 21 22  1  0
 22 23  1  0
 22 24  1  0
 24 25  1  0
 24 26  1  0
 19 27  1  0
 27 28  1  6
 27 29  1  0
 29 30  1  0
 30 31  1  0
 31 32  1  6
  7  5  1  0
 31 10  1  0
 31 13  1  0
 27 15  1  0
 24 18  1  0
  1 33  1  0
  1 34  1  0
  1 35  1  0
  2 36  1  1
  3 37  1  0
  3 38  1  0
  4 39  1  0
  4 40  1  0
  5 41  1  1
  8 42  1  0
  8 43  1  0
  8 44  1  0
  9 45  1  0
  9 46  1  0
  9 47  1  0
 10 48  1  1
 11 49  1  0
 11 50  1  0
 12 51  1  0
 12 52  1  0
 14 53  1  0
 14 54  1  0
 14 55  1  0
 15 56  1  6
 16 57  1  0
 16 58  1  0
 17 59  1  0
 19 60  1  6
 20 61  1  0
 20 62  1  0
 21 63  1  0
 21 64  1  0
 22 65  1  6
 23 66  1  0
 25 67  1  0
 25 68  1  0
 25 69  1  0
 26 70  1  0
 26 71  1  0
 26 72  1  0
 28 73  1  0
 28 74  1  0
 28 75  1  0
 29 76  1  0
 29 77  1  0
 30 78  1  0
 30 79  1  0
 32 80  1  0
 32 81  1  0
 32 82  1  0
M  END
>  <meeko>  (11) 
{"is_sidechain": [false], "intermolecular_energy": 2.731, "internal_energy": -0.839}

$$$$
EPH_relaxed_0001_pdb2pqr_Repair_258_r2_0001_out
     RDKit          3D

 82 86  0  0  0  0  0  0  0  0999 V2000
  -14.0000    9.8010    0.8800 C   0  0  0  0  0  0  0  0  0  0  0  0
  -13.3680    9.2930   -0.4190 C   0  0  2  0  0  0  0  0  0  0  0  0
  -14.3140    8.3570   -1.1980 C   0  0  0  0  0  0  0  0  0  0  0  0
  -14.5790    8.8090   -2.6360 C   0  0  0  0  0  0  0  0  0  0  0  0
  -15.2870   10.1290   -2.6810 C   0  0  2  0  0  0  0  0  0  0  0  0
  -15.1590   10.8370   -3.9210 O   0  0  0  0  0  0  0  0  0  0  0  0
  -14.5680   11.4620   -2.7700 C   0  0  0  0  0  0  0  0  0  0  0  0
  -13.0740   11.5410   -2.8200 C   0  0  0  0  0  0  0  0  0  0  0  0
  -15.2870   12.6950   -2.3190 C   0  0  0  0  0  0  0  0  0  0  0  0
  -12.0590    8.5730   -0.1120 C   0  0  1  0  0  0  0  0  0  0  0  0
  -12.2300    7.4470    0.9420 C   0  0  0  0  0  0  0  0  0  0  0  0
  -11.2490    6.3130    0.5480 C   0  0  0  0  0  0  0  0  0  0  0  0
  -10.3200    6.9510   -0.5110 C   0  0  1  0  0  0  0  0  0  0  0  0
   -9.2620    7.7500    0.3130 C   0  0  0  0  0  0  0  0  0  0  0  0
   -9.6430    5.9660   -1.5190 C   0  0  2  0  0  0  0  0  0  0  0  0
   -8.6920    4.9350   -0.8860 C   0  0  0  0  0  0  0  0  0  0  0  0
   -7.2660    5.3630   -0.7800 C   0  0  0  0  0  0  0  0  0  0  0  0
   -6.7120    6.4040   -1.4280 C   0  0  0  0  0  0  0  0  0  0  0  0
   -7.5180    7.2160   -2.4500 C   0  0  1  0  0  0  0  0  0  0  0  0
   -6.6690    7.4280   -3.7300 C   0  0  0  0  0  0  0  0  0  0  0  0
   -5.3080    8.0510   -3.4330 C   0  0  0  0  0  0  0  0  0  0  0  0
   -4.5130    7.1860   -2.4590 C   0  0  2  0  0  0  0  0  0  0  0  0
   -4.1820    5.9520   -3.1030 O   0  0  0  0  0  0  0  0  0  0  0  0
   -5.2730    6.8970   -1.1350 C   0  0  0  0  0  0  0  0  0  0  0  0
   -5.3660    8.1940   -0.2940 C   0  0  0  0  0  0  0  0  0  0  0  0
   -4.4210    5.9010   -0.3030 C   0  0  0  0  0  0  0  0  0  0  0  0
   -8.9780    6.6740   -2.7690 C   0  0  1  0  0  0  0  0  0  0  0  0
   -8.9130    5.6060   -3.9030 C   0  0  0  0  0  0  0  0  0  0  0  0
   -9.8560    7.8580   -3.3230 C   0  0  0  0  0  0  0  0  0  0  0  0
  -10.5960    8.7200   -2.2830 C   0  0  0  0  0  0  0  0  0  0  0  0
  -11.3570    7.8430   -1.2850 C   0  0  2  0  0  0  0  0  0  0  0  0
  -12.4440    7.0440   -2.0820 C   0  0  0  0  0  0  0  0  0  0  0  0
  -13.4656    9.3715    1.7402 H   0  0  0  0  0  0  0  0  0  0  0  0
  -13.9315   10.8983    0.9165 H   0  0  0  0  0  0  0  0  0  0  0  0
  -15.0569    9.4982    0.9165 H   0  0  0  0  0  0  0  0  0  0  0  0
  -13.1714   10.1678   -1.0563 H   0  0  0  0  0  0  0  0  0  0  0  0
  -13.8640    7.3537   -1.2266 H   0  0  0  0  0  0  0  0  0  0  0  0
  -15.2810    8.3682   -0.6739 H   0  0  0  0  0  0  0  0  0  0  0  0
  -13.6181    8.9018   -3.1632 H   0  0  0  0  0  0  0  0  0  0  0  0
  -15.2225    8.0583   -3.1181 H   0  0  0  0  0  0  0  0  0  0  0  0
  -16.0708    9.7569   -2.0048 H   0  0  0  0  0  0  0  0  0  0  0  0
  -12.6735   11.5622   -1.7957 H   0  0  0  0  0  0  0  0  0  0  0  0
  -12.6779   10.6625   -3.3505 H   0  0  0  0  0  0  0  0  0  0  0  0
  -12.7728   12.4563   -3.3505 H   0  0  0  0  0  0  0  0  0  0  0  0
  -15.3057   12.7271   -1.2196 H   0  0  0  0  0  0  0  0  0  0  0  0
  -14.7660   13.5844   -2.7030 H   0  0  0  0  0  0  0  0  0  0  0  0
  -16.3177   12.6796   -2.7030 H   0  0  0  0  0  0  0  0  0  0  0  0
  -11.4506    9.4282    0.2173 H   0  0  0  0  0  0  0  0  0  0  0  0
  -11.9865    7.8270    1.9452 H   0  0  0  0  0  0  0  0  0  0  0  0
  -13.2673    7.0817    0.9650 H   0  0  0  0  0  0  0  0  0  0  0  0
  -10.6701    5.9793    1.4218 H   0  0  0  0  0  0  0  0  0  0  0  0
  -11.7713    5.4245    0.1636 H   0  0  0  0  0  0  0  0  0  0  0  0
   -9.4504    7.6078    1.3874 H   0  0  0  0  0  0  0  0  0  0  0  0
   -8.2538    7.3859    0.0661 H   0  0  0  0  0  0  0  0  0  0  0  0
   -9.3363    8.8194    0.0661 H   0  0  0  0  0  0  0  0  0  0  0  0
  -10.5002    5.3891   -1.8964 H   0  0  0  0  0  0  0  0  0  0  0  0
   -9.0567    4.7140    0.1280 H   0  0  0  0  0  0  0  0  0  0  0  0
   -8.6987    4.0632   -1.5567 H   0  0  0  0  0  0  0  0  0  0  0  0
   -6.6127    4.7779   -0.1160 H   0  0  0  0  0  0  0  0  0  0  0  0
   -7.7224    8.1863   -1.9738 H   0  0  0  0  0  0  0  0  0  0  0  0
   -6.5123    6.4530   -4.2147 H   0  0  0  0  0  0  0  0  0  0  0  0
   -7.2181    8.1215   -4.3838 H   0  0  0  0  0  0  0  0  0  0  0  0
   -4.7435    8.1473   -4.3722 H   0  0  0  0  0  0  0  0  0  0  0  0
   -5.4663    9.0391   -2.9763 H   0  0  0  0  0  0  0  0  0  0  0  0
   -3.6071    7.7463   -2.1842 H   0  0  0  0  0  0  0  0  0  0  0  0
   -3.7090    6.1660   -3.9250 H   0  0  0  0  0  0  0  0  0  0  0  0
   -5.3477    7.9393    0.7760 H   0  0  0  0  0  0  0  0  0  0  0  0
   -4.5123    8.8462   -0.5303 H   0  0  0  0  0  0  0  0  0  0  0  0
   -6.3040    8.7177   -0.5303 H   0  0  0  0  0  0  0  0  0  0  0  0
   -4.5811    6.0881    0.7691 H   0  0  0  0  0  0  0  0  0  0  0  0
   -4.7216    4.8708   -0.5443 H   0  0  0  0  0  0  0  0  0  0  0  0
   -3.3566    6.0384   -0.5443 H   0  0  0  0  0  0  0  0  0  0  0  0
   -8.8519    4.6019   -3.4580 H   0  0  0  0  0  0  0  0  0  0  0  0
   -9.8171    5.6767   -4.5256 H   0  0  0  0  0  0  0  0  0  0  0  0
   -8.0241    5.7859   -4.5256 H   0  0  0  0  0  0  0  0  0  0  0  0
   -9.1937    8.5235   -3.8960 H   0  0  0  0  0  0  0  0  0  0  0  0
  -10.6489    7.3761   -3.9138 H   0  0  0  0  0  0  0  0  0  0  0  0
   -9.8637    9.3333   -1.7375 H   0  0  0  0  0  0  0  0  0  0  0  0
  -11.3191    9.3604   -2.8093 H   0  0  0  0  0  0  0  0  0  0  0  0
  -13.1234    6.5446   -1.3756 H   0  0  0  0  0  0  0  0  0  0  0  0
  -13.0178    7.7369   -2.7150 H   0  0  0  0  0  0  0  0  0  0  0  0
  -11.9539    6.2896   -2.7150 H   0  0  0  0  0  0  0  0  0  0  0  0
  1  2  1  0
  2  3  1  0
  3  4  1  0
  4  5  1  0
  5  6  1  0
  6  7  1  0
  7  8  1  0
  7  9  1  0
  2 10  1  0
 10 11  1  0
 11 12  1  0
 12 13  1  0
 13 14  1  1
 13 15  1  0
 15 16  1  0
 16 17  1  0
 17 18  2  0
 18 19  1  0
 19 20  1  0
 20 21  1  0
 21 22  1  0
 22 23  1  0
 22 24  1  0
 24 25  1  0
 24 26  1  0
 19 27  1  0
 27 28  1  6
 27 29  1  0
 29 30  1  0
 30 31  1  0
 31 32  1  6
  7  5  1  0
 31 10  1  0
 31 13  1  0
 27 15  1  0
 24 18  1  0
  1 33  1  0
  1 34  1  0
  1 35  1  0
  2 36  1  6
  3 37  1  0
  3 38  1  0
  4 39  1  0
  4 40  1  0
  5 41  1  1
  8 42  1  0
  8 43  1  0
  8 44  1  0
  9 45  1  0
  9 46  1  0
  9 47  1  0
 10 48  1  1
 11 49  1  0
 11 50  1  0
 12 51  1  0
 12 52  1  0
 14 53  1  0
 14 54  1  0
 14 55  1  0
 15 56  1  6
 16 57  1  0
 16 58  1  0
 17 59  1  0
 19 60  1  1
 20 61  1  0
 20 62  1  0
 21 63  1  0
 21 64  1  0
 22 65  1  1
 23 66  1  0
 25 67  1  0
 25 68  1  0
 25 69  1  0
 26 70  1  0
 26 71  1  0
 26 72  1  0
 28 73  1  0
 28 74  1  0
 28 75  1  0
 29 76  1  0
 29 77  1  0
 30 78  1  0
 30 79  1  0
 32 80  1  0
 32 81  1  0
 32 82  1  0
M  END
>  <meeko>  (12) 
{"is_sidechain": [false], "intermolecular_energy": 2.731, "internal_energy": -0.839}

$$$$
EPH_relaxed_0001_pdb2pqr_Repair_258_r2_0001_out
     RDKit          3D

 82 86  0  0  0  0  0  0  0  0999 V2000
    0.1710    8.8700   -2.3050 C   0  0  0  0  0  0  0  0  0  0  0  0
    0.9370   10.0080   -2.9860 C   0  0  2  0  0  0  0  0  0  0  0  0
    2.4470    9.9580   -2.6760 C   0  0  0  0  0  0  0  0  0  0  0  0
    3.3240   10.5220   -3.7970 C   0  0  0  0  0  0  0  0  0  0  0  0
    4.7220   10.7870   -3.3270 C   0  0  2  0  0  0  0  0  0  0  0  0
    5.3020   11.9990   -3.8260 O   0  0  0  0  0  0  0  0  0  0  0  0
    5.9300   10.7770   -4.2460 C   0  0  0  0  0  0  0  0  0  0  0  0
    5.7950   10.4950   -5.7090 C   0  0  0  0  0  0  0  0  0  0  0  0
    7.2840   10.5570   -3.6460 C   0  0  0  0  0  0  0  0  0  0  0  0
    0.3620   11.3520   -2.5550 C   0  0  1  0  0  0  0  0  0  0  0  0
   -1.0030   11.2140   -1.8310 C   0  0  0  0  0  0  0  0  0  0  0  0
   -1.0470   12.3190   -0.7440 C   0  0  0  0  0  0  0  0  0  0  0  0
    0.1320   13.2560   -1.0930 C   0  0  1  0  0  0  0  0  0  0  0  0
   -0.4100   14.1770   -2.2300 C   0  0  0  0  0  0  0  0  0  0  0  0
    0.7270   14.0880    0.0890 C   0  0  2  0  0  0  0  0  0  0  0  0
   -0.2490   15.0830    0.7420 C   0  0  0  0  0  0  0  0  0  0  0  0
   -0.2530   16.4540    0.1500 C   0  0  0  0  0  0  0  0  0  0  0  0
    0.6890   16.9540   -0.6710 C   0  0  0  0  0  0  0  0  0  0  0  0
    1.9510   16.1480   -1.0050 C   0  0  1  0  0  0  0  0  0  0  0  0
    3.1980   17.0610   -0.8720 C   0  0  0  0  0  0  0  0  0  0  0  0
    3.0820   18.3350   -1.7040 C   0  0  0  0  0  0  0  0  0  0  0  0
    1.8470   19.1370   -1.3020 C   0  0  2  0  0  0  0  0  0  0  0  0
    2.0270   19.6230    0.0320 O   0  0  0  0  0  0  0  0  0  0  0  0
    0.5300   18.3180   -1.3870 C   0  0  0  0  0  0  0  0  0  0  0  0
    0.1780   18.0490   -2.8720 C   0  0  0  0  0  0  0  0  0  0  0  0
   -0.6180   19.1980   -0.8220 C   0  0  0  0  0  0  0  0  0  0  0  0
    2.1180   14.7700   -0.2320 C   0  0  1  0  0  0  0  0  0  0  0  0
    2.8240   15.0100    1.1370 C   0  0  0  0  0  0  0  0  0  0  0  0
    3.0680   13.8270   -1.0620 C   0  0  0  0  0  0  0  0  0  0  0  0
    2.4050   12.9420   -2.1340 C   0  0  0  0  0  0  0  0  0  0  0  0
    1.1960   12.1970   -1.5600 C   0  0  2  0  0  0  0  0  0  0  0  0
    1.7150   11.2460   -0.4280 C   0  0  0  0  0  0  0  0  0  0  0  0
    0.2451    8.9801   -1.2130 H   0  0  0  0  0  0  0  0  0  0  0  0
   -0.8862    8.9078   -2.6064 H   0  0  0  0  0  0  0  0  0  0  0  0
    0.6039    7.9047   -2.6064 H   0  0  0  0  0  0  0  0  0  0  0  0
    0.8181    9.8835   -4.0724 H   0  0  0  0  0  0  0  0  0  0  0  0
    2.6335   10.5413   -1.7622 H   0  0  0  0  0  0  0  0  0  0  0  0
    2.7165    8.8979   -2.5593 H   0  0  0  0  0  0  0  0  0  0  0  0
    3.3572    9.7963   -4.6230 H   0  0  0  0  0  0  0  0  0  0  0  0
    2.8868   11.4758   -4.1275 H   0  0  0  0  0  0  0  0  0  0  0  0
    4.5197   10.2863   -2.3687 H   0  0  0  0  0  0  0  0  0  0  0  0
    5.3240    9.5111   -5.8508 H   0  0  0  0  0  0  0  0  0  0  0  0
    5.1708   11.2711   -6.1759 H   0  0  0  0  0  0  0  0  0  0  0  0
    6.7910   10.4955   -6.1759 H   0  0  0  0  0  0  0  0  0  0  0  0
    7.2054   10.5698   -2.5489 H   0  0  0  0  0  0  0  0  0  0  0  0
    7.6767    9.5833   -3.9741 H   0  0  0  0  0  0  0  0  0  0  0  0
    7.9647   11.3563   -3.9741 H   0  0  0  0  0  0  0  0  0  0  0  0
    0.3197   11.8551   -3.5323 H   0  0  0  0  0  0  0  0  0  0  0  0
   -1.8269   11.3534   -2.5463 H   0  0  0  0  0  0  0  0  0  0  0  0
   -1.1133   10.2153   -1.3834 H   0  0  0  0  0  0  0  0  0  0  0  0
   -2.0014   12.8645   -0.7831 H   0  0  0  0  0  0  0  0  0  0  0  0
   -0.9661   11.9075    0.2729 H   0  0  0  0  0  0  0  0  0  0  0  0
   -0.9206   15.0447   -1.7869 H   0  0  0  0  0  0  0  0  0  0  0  0
    0.4283   14.5233   -2.8523 H   0  0  0  0  0  0  0  0  0  0  0  0
   -1.1198   13.6123   -2.8523 H   0  0  0  0  0  0  0  0  0  0  0  0
    0.9192   13.3148    0.8474 H   0  0  0  0  0  0  0  0  0  0  0  0
   -1.2650   14.6711    0.6524 H   0  0  0  0  0  0  0  0  0  0  0  0
    0.0880   15.2016    1.7824 H   0  0  0  0  0  0  0  0  0  0  0  0
   -1.0973   17.1108    0.4067 H   0  0  0  0  0  0  0  0  0  0  0  0
    1.8367   15.8220   -2.0493 H   0  0  0  0  0  0  0  0  0  0  0  0
    3.3196   17.3400    0.1851 H   0  0  0  0  0  0  0  0  0  0  0  0
    4.0659   16.4970   -1.2443 H   0  0  0  0  0  0  0  0  0  0  0  0
    3.9791   18.9515   -1.5457 H   0  0  0  0  0  0  0  0  0  0  0  0
    2.9902   18.0556   -2.7640 H   0  0  0  0  0  0  0  0  0  0  0  0
    1.7458   19.9670   -2.0167 H   0  0  0  0  0  0  0  0  0  0  0  0
    2.6700   20.3510   -0.0040 H   0  0  0  0  0  0  0  0  0  0  0  0
   -0.6949   17.3819   -2.9269 H   0  0  0  0  0  0  0  0  0  0  0  0
   -0.0558   19.0007   -3.3716 H   0  0  0  0  0  0  0  0  0  0  0  0
    1.0349   17.5735   -3.3716 H   0  0  0  0  0  0  0  0  0  0  0  0
   -0.5896   19.1762    0.2774 H   0  0  0  0  0  0  0  0  0  0  0  0
   -0.4924   20.2334   -1.1716 H   0  0  0  0  0  0  0  0  0  0  0  0
   -1.5852   18.8077   -1.1716 H   0  0  0  0  0  0  0  0  0  0  0  0
    2.1278   14.7733    1.9551 H   0  0  0  0  0  0  0  0  0  0  0  0
    3.7103   14.3627    1.2110 H   0  0  0  0  0  0  0  0  0  0  0  0
    3.1321   16.0634    1.2110 H   0  0  0  0  0  0  0  0  0  0  0  0
    3.8092   14.4632   -1.5677 H   0  0  0  0  0  0  0  0  0  0  0  0
    3.4880   13.1237   -0.3279 H   0  0  0  0  0  0  0  0  0  0  0  0
    2.0733   13.5763   -2.9693 H   0  0  0  0  0  0  0  0  0  0  0  0
    3.1406   12.2014   -2.4809 H   0  0  0  0  0  0  0  0  0  0  0  0
    1.4775   11.6811    0.5540 H   0  0  0  0  0  0  0  0  0  0  0  0
    1.2275   10.2644   -0.5216 H   0  0  0  0  0  0  0  0  0  0  0  0
    2.8043   11.1249   -0.5216 H   0  0  0  0  0  0  0  0  0  0  0  0
  1  2  1  0
  2  3  1  0
  3  4  1  0
  4  5  1  0
  5  6  1  0
  6  7  1  0
  7  8  1  0
  7  9  1  0
  2 10  1  0
 10 11  1  0
 11 12  1  0
 12 13  1  0
 13 14  1  6
 13 15  1  0
 15 16  1  0
 16 17  1  0
 17 18  2  0
 18 19  1  0
 19 20  1  0
 20 21  1  0
 21 22  1  0
 22 23  1  0
 22 24  1  0
 24 25  1  0
 24 26  1  0
 19 27  1  0
 27 28  1  1
 27 29  1  0
 29 30  1  0
 30 31  1  0
 31 32  1  1
  7  5  1  0
 31 10  1  0
 31 13  1  0
 27 15  1  0
 24 18  1  0
  1 33  1  0
  1 34  1  0
  1 35  1  0
  2 36  1  6
  3 37  1  0
  3 38  1  0
  4 39  1  0
  4 40  1  0
  5 41  1  1
  8 42  1  0
  8 43  1  0
  8 44  1  0
  9 45  1  0
  9 46  1  0
  9 47  1  0
 10 48  1  6
 11 49  1  0
 11 50  1  0
 12 51  1  0
 12 52  1  0
 14 53  1  0
 14 54  1  0
 14 55  1  0
 15 56  1  1
 16 57  1  0
 16 58  1  0
 17 59  1  0
 19 60  1  6
 20 61  1  0
 20 62  1  0
 21 63  1  0
 21 64  1  0
 22 65  1  6
 23 66  1  0
 25 67  1  0
 25 68  1  0
 25 69  1  0
 26 70  1  0
 26 71  1  0
 26 72  1  0
 28 73  1  0
 28 74  1  0
 28 75  1  0
 29 76  1  0
 29 77  1  0
 30 78  1  0
 30 79  1  0
 32 80  1  0
 32 81  1  0
 32 82  1  0
M  END
>  <meeko>  (13) 
{"is_sidechain": [false], "intermolecular_energy": 2.731, "internal_energy": -0.839}

$$$$
EPH_relaxed_0001_pdb2pqr_Repair_258_r2_0001_out
     RDKit          3D

 82 86  0  0  0  0  0  0  0  0999 V2000
   -8.1460    7.9860   -3.1020 C   0  0  0  0  0  0  0  0  0  0  0  0
   -7.1580    7.1360   -2.2980 C   0  0  2  0  0  0  0  0  0  0  0  0
   -7.8670    6.2640   -1.2430 C   0  0  0  0  0  0  0  0  0  0  0  0
   -9.3920    6.3990   -1.2570 C   0  0  0  0  0  0  0  0  0  0  0  0
   -9.9070    6.9970    0.0180 C   0  0  2  0  0  0  0  0  0  0  0  0
  -10.9110    6.2180    0.6820 O   0  0  0  0  0  0  0  0  0  0  0  0
  -11.3270    7.5020    0.1910 C   0  0  0  0  0  0  0  0  0  0  0  0
  -12.3220    7.4340   -0.9260 C   0  0  0  0  0  0  0  0  0  0  0  0
  -11.6050    8.5000    1.2720 C   0  0  0  0  0  0  0  0  0  0  0  0
   -6.1280    8.0350   -1.6240 C   0  0  1  0  0  0  0  0  0  0  0  0
   -6.2650    8.0450   -0.0780 C   0  0  0  0  0  0  0  0  0  0  0  0
   -4.8310    8.1710    0.4970 C   0  0  0  0  0  0  0  0  0  0  0  0
   -3.9560    8.5600   -0.7180 C   0  0  1  0  0  0  0  0  0  0  0  0
   -4.1600   10.0990   -0.8830 C   0  0  0  0  0  0  0  0  0  0  0  0
   -2.4410    8.1850   -0.6260 C   0  0  2  0  0  0  0  0  0  0  0  0
   -1.6680    8.8670    0.5160 C   0  0  0  0  0  0  0  0  0  0  0  0
   -1.0350   10.1730    0.1660 C   0  0  0  0  0  0  0  0  0  0  0  0
   -0.8410   10.6390   -1.0820 C   0  0  0  0  0  0  0  0  0  0  0  0
   -1.1870    9.7820   -2.3060 C   0  0  1  0  0  0  0  0  0  0  0  0
   -0.0180    9.8360   -3.3240 C   0  0  0  0  0  0  0  0  0  0  0  0
    0.3630   11.2640   -3.7010 C   0  0  0  0  0  0  0  0  0  0  0  0
    0.7570   12.0680   -2.4650 C   0  0  2  0  0  0  0  0  0  0  0  0
    1.9700   11.5280   -1.9300 O   0  0  0  0  0  0  0  0  0  0  0  0
   -0.3400   12.0770   -1.3640 C   0  0  0  0  0  0  0  0  0  0  0  0
   -1.5450   12.9270   -1.8390 C   0  0  0  0  0  0  0  0  0  0  0  0
    0.2380   12.8020   -0.1190 C   0  0  0  0  0  0  0  0  0  0  0  0
   -1.6620    8.2960   -1.9990 C   0  0  1  0  0  0  0  0  0  0  0  0
   -0.4230    7.3550   -1.8860 C   0  0  0  0  0  0  0  0  0  0  0  0
   -2.5120    7.7670   -3.2140 C   0  0  0  0  0  0  0  0  0  0  0  0
   -4.0230    8.0660   -3.1880 C   0  0  0  0  0  0  0  0  0  0  0  0
   -4.6330    7.6860   -1.8350 C   0  0  2  0  0  0  0  0  0  0  0  0
   -4.4630    6.1390   -1.6510 C   0  0  0  0  0  0  0  0  0  0  0  0
   -8.7953    8.5446   -2.4119 H   0  0  0  0  0  0  0  0  0  0  0  0
   -7.5904    8.6928   -3.7358 H   0  0  0  0  0  0  0  0  0  0  0  0
   -8.7619    7.3311   -3.7358 H   0  0  0  0  0  0  0  0  0  0  0  0
   -6.6550    6.4575   -3.0027 H   0  0  0  0  0  0  0  0  0  0  0  0
   -7.6098    5.2115   -1.4327 H   0  0  0  0  0  0  0  0  0  0  0  0
   -7.5228    6.6090   -0.2569 H   0  0  0  0  0  0  0  0  0  0  0  0
   -9.6851    7.0450   -2.0977 H   0  0  0  0  0  0  0  0  0  0  0  0
   -9.8246    5.3932   -1.3636 H   0  0  0  0  0  0  0  0  0  0  0  0
   -8.9296    7.4576    0.2245 H   0  0  0  0  0  0  0  0  0  0  0  0
  -13.3374    7.3646   -0.5088 H   0  0  0  0  0  0  0  0  0  0  0  0
  -12.2410    8.3398   -1.5449 H   0  0  0  0  0  0  0  0  0  0  0  0
  -12.1185    6.5477   -1.5449 H   0  0  0  0  0  0  0  0  0  0  0  0
  -11.4722    8.0231    2.2543 H   0  0  0  0  0  0  0  0  0  0  0  0
  -10.9083    9.3461    1.1779 H   0  0  0  0  0  0  0  0  0  0  0  0
  -12.6387    8.8640    1.1779 H   0  0  0  0  0  0  0  0  0  0  0  0
   -6.3649    8.9893   -2.1170 H   0  0  0  0  0  0  0  0  0  0  0  0
   -6.8782    8.9002    0.2425 H   0  0  0  0  0  0  0  0  0  0  0  0
   -6.7555    7.1282    0.2811 H   0  0  0  0  0  0  0  0  0  0  0  0
   -4.7901    8.9517    1.2708 H   0  0  0  0  0  0  0  0  0  0  0  0
   -4.4903    7.2410    0.9756 H   0  0  0  0  0  0  0  0  0  0  0  0
   -4.2223   10.5691    0.1095 H   0  0  0  0  0  0  0  0  0  0  0  0
   -3.3104   10.5241   -1.4374 H   0  0  0  0  0  0  0  0  0  0  0  0
   -5.0911   10.2881   -1.4374 H   0  0  0  0  0  0  0  0  0  0  0  0
   -2.4774    7.1171   -0.3649 H   0  0  0  0  0  0  0  0  0  0  0  0
   -2.3696    9.0406    1.3452 H   0  0  0  0  0  0  0  0  0  0  0  0
   -0.8421    8.1874    0.7730 H   0  0  0  0  0  0  0  0  0  0  0  0
   -0.6986   10.8084    0.9985 H   0  0  0  0  0  0  0  0  0  0  0  0
   -2.0872   10.2331   -2.7489 H   0  0  0  0  0  0  0  0  0  0  0  0
    0.8592    9.3423   -2.8803 H   0  0  0  0  0  0  0  0  0  0  0  0
   -0.3491    9.3255   -4.2404 H   0  0  0  0  0  0  0  0  0  0  0  0
    1.2127   11.2375   -4.3991 H   0  0  0  0  0  0  0  0  0  0  0  0
   -0.5064   11.7467   -4.1713 H   0  0  0  0  0  0  0  0  0  0  0  0
    0.8926   13.1127   -2.7817 H   0  0  0  0  0  0  0  0  0  0  0  0
    2.1950   10.7380   -2.4520 H   0  0  0  0  0  0  0  0  0  0  0  0
   -2.0900   13.3115   -0.9643 H   0  0  0  0  0  0  0  0  0  0  0  0
   -1.1826   13.7705   -2.4450 H   0  0  0  0  0  0  0  0  0  0  0  0
   -2.2180   12.3026   -2.4450 H   0  0  0  0  0  0  0  0  0  0  0  0
   -0.1440   12.3229    0.7945 H   0  0  0  0  0  0  0  0  0  0  0  0
    1.3361   12.7386   -0.1347 H   0  0  0  0  0  0  0  0  0  0  0  0
   -0.0685   13.8583   -0.1347 H   0  0  0  0  0  0  0  0  0  0  0  0
   -0.1916    7.1793   -0.8251 H   0  0  0  0  0  0  0  0  0  0  0  0
   -0.6451    6.3958   -2.3766 H   0  0  0  0  0  0  0  0  0  0  0  0
    0.4414    7.8263   -2.3766 H   0  0  0  0  0  0  0  0  0  0  0  0
   -2.0996    8.2167   -4.1293 H   0  0  0  0  0  0  0  0  0  0  0  0
   -2.4349    6.6709   -3.1633 H   0  0  0  0  0  0  0  0  0  0  0  0
   -4.1805    9.1402   -3.3650 H   0  0  0  0  0  0  0  0  0  0  0  0
   -4.5123    7.4711   -3.9733 H   0  0  0  0  0  0  0  0  0  0  0  0
   -4.4365    5.8981   -0.5780 H   0  0  0  0  0  0  0  0  0  0  0  0
   -5.3093    5.6184   -2.1229 H   0  0  0  0  0  0  0  0  0  0  0  0
   -3.5238    5.8146   -2.1229 H   0  0  0  0  0  0  0  0  0  0  0  0
  1  2  1  0
  2  3  1  0
  3  4  1  0
  4  5  1  0
  5  6  1  0
  6  7  1  0
  7  8  1  0
  7  9  1  0
  2 10  1  0
 10 11  1  0
 11 12  1  0
 12 13  1  0
 13 14  1  6
 13 15  1  0
 15 16  1  0
 16 17  1  0
 17 18  2  0
 18 19  1  0
 19 20  1  0
 20 21  1  0
 21 22  1  0
 22 23  1  0
 22 24  1  0
 24 25  1  0
 24 26  1  0
 19 27  1  0
 27 28  1  1
 27 29  1  0
 29 30  1  0
 30 31  1  0
 31 32  1  1
  7  5  1  0
 31 10  1  0
 31 13  1  0
 27 15  1  0
 24 18  1  0
  1 33  1  0
  1 34  1  0
  1 35  1  0
  2 36  1  6
  3 37  1  0
  3 38  1  0
  4 39  1  0
  4 40  1  0
  5 41  1  1
  8 42  1  0
  8 43  1  0
  8 44  1  0
  9 45  1  0
  9 46  1  0
  9 47  1  0
 10 48  1  6
 11 49  1  0
 11 50  1  0
 12 51  1  0
 12 52  1  0
 14 53  1  0
 14 54  1  0
 14 55  1  0
 15 56  1  1
 16 57  1  0
 16 58  1  0
 17 59  1  0
 19 60  1  6
 20 61  1  0
 20 62  1  0
 21 63  1  0
 21 64  1  0
 22 65  1  6
 23 66  1  0
 25 67  1  0
 25 68  1  0
 25 69  1  0
 26 70  1  0
 26 71  1  0
 26 72  1  0
 28 73  1  0
 28 74  1  0
 28 75  1  0
 29 76  1  0
 29 77  1  0
 30 78  1  0
 30 79  1  0
 32 80  1  0
 32 81  1  0
 32 82  1  0
M  END
>  <meeko>  (14) 
{"is_sidechain": [false], "intermolecular_energy": 2.731, "internal_energy": -0.839}

$$$$
EPH_relaxed_0001_pdb2pqr_Repair_258_r2_0001_out
     RDKit          3D

 82 86  0  0  0  0  0  0  0  0999 V2000
  -12.9440   10.7010   -2.0280 C   0  0  0  0  0  0  0  0  0  0  0  0
  -13.0860    9.4380   -1.1740 C   0  0  2  0  0  0  0  0  0  0  0  0
  -14.0260    9.6520    0.0290 C   0  0  0  0  0  0  0  0  0  0  0  0
  -15.2590    8.7440    0.0160 C   0  0  0  0  0  0  0  0  0  0  0  0
  -15.0210    7.4760    0.7790 C   0  0  2  0  0  0  0  0  0  0  0  0
  -13.8080    6.7910    0.4390 O   0  0  0  0  0  0  0  0  0  0  0  0
  -15.0310    6.1000    0.1380 C   0  0  0  0  0  0  0  0  0  0  0  0
  -15.2860    5.9230   -1.3260 C   0  0  0  0  0  0  0  0  0  0  0  0
  -15.2800    4.9080    1.0080 C   0  0  0  0  0  0  0  0  0  0  0  0
  -11.7150    8.9820   -0.6890 C   0  0  1  0  0  0  0  0  0  0  0  0
  -11.7600    8.3590    0.7320 C   0  0  0  0  0  0  0  0  0  0  0  0
  -10.7030    7.2250    0.7570 C   0  0  0  0  0  0  0  0  0  0  0  0
   -9.8620    7.4470   -0.5220 C   0  0  1  0  0  0  0  0  0  0  0  0
   -8.8480    8.5720   -0.1450 C   0  0  0  0  0  0  0  0  0  0  0  0
   -9.1390    6.1870   -1.1010 C   0  0  2  0  0  0  0  0  0  0  0  0
   -8.0880    5.5540   -0.1720 C   0  0  0  0  0  0  0  0  0  0  0  0
   -6.6990    6.0770   -0.3290 C   0  0  0  0  0  0  0  0  0  0  0  0
   -6.2520    6.8080   -1.3680 C   0  0  0  0  0  0  0  0  0  0  0  0
   -7.1530    7.0950   -2.5750 C   0  0  1  0  0  0  0  0  0  0  0  0
   -6.3630    6.8330   -3.8850 C   0  0  0  0  0  0  0  0  0  0  0  0
   -5.0500    7.6070   -3.9400 C   0  0  0  0  0  0  0  0  0  0  0  0
   -4.1570    7.2510   -2.7550 C   0  0  2  0  0  0  0  0  0  0  0  0
   -3.7470    5.8860   -2.8800 O   0  0  0  0  0  0  0  0  0  0  0  0
   -4.8500    7.4650   -1.3800 C   0  0  0  0  0  0  0  0  0  0  0  0
   -5.0210    8.9810   -1.1140 C   0  0  0  0  0  0  0  0  0  0  0  0
   -3.8940    6.9360   -0.2760 C   0  0  0  0  0  0  0  0  0  0  0  0
   -8.5730    6.3810   -2.5660 C   0  0  1  0  0  0  0  0  0  0  0  0
   -8.4560    4.9560   -3.1900 C   0  0  0  0  0  0  0  0  0  0  0  0
   -9.5610    7.1900   -3.4870 C   0  0  0  0  0  0  0  0  0  0  0  0
  -10.3360    8.3470   -2.8280 C   0  0  0  0  0  0  0  0  0  0  0  0
  -10.9920    7.8920   -1.5200 C   0  0  2  0  0  0  0  0  0  0  0  0
  -12.0340    6.7760   -1.8710 C   0  0  0  0  0  0  0  0  0  0  0  0
  -12.8454   11.5782   -1.3717 H   0  0  0  0  0  0  0  0  0  0  0  0
  -12.0498   10.6157   -2.6629 H   0  0  0  0  0  0  0  0  0  0  0  0
  -13.8348   10.8164   -2.6629 H   0  0  0  0  0  0  0  0  0  0  0  0
  -13.5345    8.6590   -1.8081 H   0  0  0  0  0  0  0  0  0  0  0  0
  -13.4598    9.4556    0.9514 H   0  0  0  0  0  0  0  0  0  0  0  0
  -14.3896   10.6886   -0.0276 H   0  0  0  0  0  0  0  0  0  0  0  0
  -16.1028    9.2819    0.4727 H   0  0  0  0  0  0  0  0  0  0  0  0
  -15.4795    8.4796   -1.0287 H   0  0  0  0  0  0  0  0  0  0  0  0
  -15.5354    7.8828    1.6621 H   0  0  0  0  0  0  0  0  0  0  0  0
  -16.1819    5.3011   -1.4696 H   0  0  0  0  0  0  0  0  0  0  0  0
  -15.4439    6.9067   -1.7922 H   0  0  0  0  0  0  0  0  0  0  0  0
  -14.4196    5.4311   -1.7922 H   0  0  0  0  0  0  0  0  0  0  0  0
  -15.2177    5.2061    2.0650 H   0  0  0  0  0  0  0  0  0  0  0  0
  -16.2818    4.5045    0.7992 H   0  0  0  0  0  0  0  0  0  0  0  0
  -14.5235    4.1372    0.7992 H   0  0  0  0  0  0  0  0  0  0  0  0
  -11.1689    9.9342   -0.7611 H   0  0  0  0  0  0  0  0  0  0  0  0
  -11.5164    9.1206    1.4874 H   0  0  0  0  0  0  0  0  0  0  0  0
  -12.7629    7.9692    0.9607 H   0  0  0  0  0  0  0  0  0  0  0  0
  -10.0721    7.3020    1.6548 H   0  0  0  0  0  0  0  0  0  0  0  0
  -11.1633    6.2263    0.7854 H   0  0  0  0  0  0  0  0  0  0  0  0
   -8.7775    8.6502    0.9499 H   0  0  0  0  0  0  0  0  0  0  0  0
   -7.8588    8.3280   -0.5596 H   0  0  0  0  0  0  0  0  0  0  0  0
   -9.1931    9.5307   -0.5596 H   0  0  0  0  0  0  0  0  0  0  0  0
   -9.9575    5.4553   -1.1691 H   0  0  0  0  0  0  0  0  0  0  0  0
   -8.4023    5.7314    0.8671 H   0  0  0  0  0  0  0  0  0  0  0  0
   -8.0442    4.4891   -0.4440 H   0  0  0  0  0  0  0  0  0  0  0  0
   -5.9802    5.8460    0.4709 H   0  0  0  0  0  0  0  0  0  0  0  0
   -7.4217    8.1595   -2.5073 H   0  0  0  0  0  0  0  0  0  0  0  0
   -6.1418    5.7577   -3.9545 H   0  0  0  0  0  0  0  0  0  0  0  0
   -6.9867    7.1727   -4.7250 H   0  0  0  0  0  0  0  0  0  0  0  0
   -4.5246    7.3588   -4.8740 H   0  0  0  0  0  0  0  0  0  0  0  0
   -5.2748    8.6830   -3.8994 H   0  0  0  0  0  0  0  0  0  0  0  0
   -3.2912    7.9291   -2.7789 H   0  0  0  0  0  0  0  0  0  0  0  0
   -2.9780    5.8630   -3.4750 H   0  0  0  0  0  0  0  0  0  0  0  0
   -5.0415    9.1629   -0.0293 H   0  0  0  0  0  0  0  0  0  0  0  0
   -4.1790    9.5291   -1.5619 H   0  0  0  0  0  0  0  0  0  0  0  0
   -5.9640    9.3278   -1.5619 H   0  0  0  0  0  0  0  0  0  0  0  0
   -4.3133    7.1680    0.7141 H   0  0  0  0  0  0  0  0  0  0  0  0
   -3.7807    5.8468   -0.3801 H   0  0  0  0  0  0  0  0  0  0  0  0
   -2.9110    7.4185   -0.3801 H   0  0  0  0  0  0  0  0  0  0  0  0
   -8.3946    4.2076   -2.3861 H   0  0  0  0  0  0  0  0  0  0  0  0
   -9.3406    4.7543   -3.8119 H   0  0  0  0  0  0  0  0  0  0  0  0
   -7.5503    4.9013   -3.8119 H   0  0  0  0  0  0  0  0  0  0  0  0
   -8.9731    7.6126   -4.3151 H   0  0  0  0  0  0  0  0  0  0  0  0
  -10.3303    6.4646   -3.7904 H   0  0  0  0  0  0  0  0  0  0  0  0
   -9.6394    9.1709   -2.6137 H   0  0  0  0  0  0  0  0  0  0  0  0
  -11.1245    8.6798   -3.5190 H   0  0  0  0  0  0  0  0  0  0  0  0
  -12.4364    6.3450   -0.9424 H   0  0  0  0  0  0  0  0  0  0  0  0
  -12.8551    7.2127   -2.4585 H   0  0  0  0  0  0  0  0  0  0  0  0
  -11.5421    5.9868   -2.4585 H   0  0  0  0  0  0  0  0  0  0  0  0
  1  2  1  0
  2  3  1  0
  3  4  1  0
  4  5  1  0
  5  6  1  0
  6  7  1  0
  7  8  1  0
  7  9  1  0
  2 10  1  0
 10 11  1  0
 11 12  1  0
 12 13  1  0
 13 14  1  1
 13 15  1  0
 15 16  1  0
 16 17  1  0
 17 18  2  0
 18 19  1  0
 19 20  1  0
 20 21  1  0
 21 22  1  0
 22 23  1  0
 22 24  1  0
 24 25  1  0
 24 26  1  0
 19 27  1  0
 27 28  1  6
 27 29  1  0
 29 30  1  0
 30 31  1  0
 31 32  1  6
  7  5  1  0
 31 10  1  0
 31 13  1  0
 27 15  1  0
 24 18  1  0
  1 33  1  0
  1 34  1  0
  1 35  1  0
  2 36  1  6
  3 37  1  0
  3 38  1  0
  4 39  1  0
  4 40  1  0
  5 41  1  1
  8 42  1  0
  8 43  1  0
  8 44  1  0
  9 45  1  0
  9 46  1  0
  9 47  1  0
 10 48  1  1
 11 49  1  0
 11 50  1  0
 12 51  1  0
 12 52  1  0
 14 53  1  0
 14 54  1  0
 14 55  1  0
 15 56  1  6
 16 57  1  0
 16 58  1  0
 17 59  1  0
 19 60  1  6
 20 61  1  0
 20 62  1  0
 21 63  1  0
 21 64  1  0
 22 65  1  1
 23 66  1  0
 25 67  1  0
 25 68  1  0
 25 69  1  0
 26 70  1  0
 26 71  1  0
 26 72  1  0
 28 73  1  0
 28 74  1  0
 28 75  1  0
 29 76  1  0
 29 77  1  0
 30 78  1  0
 30 79  1  0
 32 80  1  0
 32 81  1  0
 32 82  1  0
M  END
>  <meeko>  (15) 
{"is_sidechain": [false], "intermolecular_energy": 2.731, "internal_energy": -0.839}

$$$$
EPH_relaxed_0001_pdb2pqr_Repair_258_r2_0001_out
     RDKit          3D

 82 86  0  0  0  0  0  0  0  0999 V2000
    0.7130    8.3030   -2.5730 C   0  0  0  0  0  0  0  0  0  0  0  0
   -0.6770    8.6780   -2.0520 C   0  0  2  0  0  0  0  0  0  0  0  0
   -1.8030    8.1170   -2.9440 C   0  0  0  0  0  0  0  0  0  0  0  0
   -2.9580    7.4920   -2.1570 C   0  0  0  0  0  0  0  0  0  0  0  0
   -3.9150    6.7720   -3.0570 C   0  0  2  0  0  0  0  0  0  0  0  0
   -4.7890    7.6250   -3.8080 O   0  0  0  0  0  0  0  0  0  0  0  0
   -5.4180    6.7640   -2.8450 C   0  0  0  0  0  0  0  0  0  0  0  0
   -6.0480    7.4910   -1.6990 C   0  0  0  0  0  0  0  0  0  0  0  0
   -6.2210    5.6600   -3.4590 C   0  0  0  0  0  0  0  0  0  0  0  0
   -0.8020   10.1930   -1.9470 C   0  0  1  0  0  0  0  0  0  0  0  0
   -2.2690   10.6600   -1.7560 C   0  0  0  0  0  0  0  0  0  0  0  0
   -2.2270   11.9050   -0.8330 C   0  0  0  0  0  0  0  0  0  0  0  0
   -0.7350   12.3100   -0.7930 C   0  0  1  0  0  0  0  0  0  0  0  0
   -0.5030   13.1210   -2.1070 C   0  0  0  0  0  0  0  0  0  0  0  0
   -0.2690   13.1090    0.4680 C   0  0  2  0  0  0  0  0  0  0  0  0
   -0.9440   14.4790    0.6580 C   0  0  0  0  0  0  0  0  0  0  0  0
   -0.2430   15.6300    0.0160 C   0  0  0  0  0  0  0  0  0  0  0  0
    1.0230   15.6190   -0.4400 C   0  0  0  0  0  0  0  0  0  0  0  0
    1.9200   14.3900   -0.2430 C   0  0  1  0  0  0  0  0  0  0  0  0
    3.3120   14.8430    0.2710 C   0  0  0  0  0  0  0  0  0  0  0  0
    3.9540   15.8970   -0.6270 C   0  0  0  0  0  0  0  0  0  0  0  0
    3.0570   17.1260   -0.7520 C   0  0  2  0  0  0  0  0  0  0  0  0
    2.9830   17.7730    0.5230 O   0  0  0  0  0  0  0  0  0  0  0  0
    1.6250   16.7920   -1.2530 C   0  0  0  0  0  0  0  0  0  0  0  0
    1.6790   16.3740   -2.7430 C   0  0  0  0  0  0  0  0  0  0  0  0
    0.7840   18.0960   -1.1980 C   0  0  0  0  0  0  0  0  0  0  0  0
    1.3020   13.2120    0.6260 C   0  0  1  0  0  0  0  0  0  0  0  0
    1.5820   13.4640    2.1390 C   0  0  0  0  0  0  0  0  0  0  0  0
    2.0300   11.8660    0.2580 C   0  0  0  0  0  0  0  0  0  0  0  0
    1.4500   11.0620   -0.9210 C   0  0  0  0  0  0  0  0  0  0  0  0
   -0.0640   10.8880   -0.7740 C   0  0  2  0  0  0  0  0  0  0  0  0
   -0.3270   10.0570    0.5280 C   0  0  0  0  0  0  0  0  0  0  0  0
    1.3866    8.1213   -1.7226 H   0  0  0  0  0  0  0  0  0  0  0  0
    0.6416    7.3920   -3.1854 H   0  0  0  0  0  0  0  0  0  0  0  0
    1.1095    9.1263   -3.1854 H   0  0  0  0  0  0  0  0  0  0  0  0
   -0.7892    8.2259   -1.0555 H   0  0  0  0  0  0  0  0  0  0  0  0
   -2.2039    8.9390   -3.5552 H   0  0  0  0  0  0  0  0  0  0  0  0
   -1.3603    7.3167   -3.5552 H   0  0  0  0  0  0  0  0  0  0  0  0
   -2.5476    6.7775   -1.4282 H   0  0  0  0  0  0  0  0  0  0  0  0
   -3.5054    8.3006   -1.6504 H   0  0  0  0  0  0  0  0  0  0  0  0
   -3.1883    5.9626   -3.2208 H   0  0  0  0  0  0  0  0  0  0  0  0
   -5.6822    7.0689   -0.7514 H   0  0  0  0  0  0  0  0  0  0  0  0
   -5.7837    8.5575   -1.7516 H   0  0  0  0  0  0  0  0  0  0  0  0
   -7.1412    7.3811   -1.7516 H   0  0  0  0  0  0  0  0  0  0  0  0
   -6.6679    5.0455   -2.6636 H   0  0  0  0  0  0  0  0  0  0  0  0
   -7.0189    6.0899   -4.0823 H   0  0  0  0  0  0  0  0  0  0  0  0
   -5.5663    5.0333   -4.0823 H   0  0  0  0  0  0  0  0  0  0  0  0
   -0.3443   10.4822   -2.9045 H   0  0  0  0  0  0  0  0  0  0  0  0
   -2.7118   10.9239   -2.7277 H   0  0  0  0  0  0  0  0  0  0  0  0
   -2.8826    9.8615   -1.3135 H   0  0  0  0  0  0  0  0  0  0  0  0
   -2.8392   12.7183   -1.2497 H   0  0  0  0  0  0  0  0  0  0  0  0
   -2.6297   11.6955    0.1690 H   0  0  0  0  0  0  0  0  0  0  0  0
   -0.2085   14.1505   -1.8553 H   0  0  0  0  0  0  0  0  0  0  0  0
    0.2950   12.6449   -2.6957 H   0  0  0  0  0  0  0  0  0  0  0  0
   -1.4320   13.1389   -2.6957 H   0  0  0  0  0  0  0  0  0  0  0  0
   -0.6321   12.4796    1.2938 H   0  0  0  0  0  0  0  0  0  0  0  0
   -1.9578   14.4199    0.2353 H   0  0  0  0  0  0  0  0  0  0  0  0
   -0.9285   14.6784    1.7397 H   0  0  0  0  0  0  0  0  0  0  0  0
   -0.8094   16.5666   -0.0936 H   0  0  0  0  0  0  0  0  0  0  0  0
    2.0210   13.9249   -1.2347 H   0  0  0  0  0  0  0  0  0  0  0  0
    3.1950   15.2640    1.2805 H   0  0  0  0  0  0  0  0  0  0  0  0
    3.9698   13.9613    0.2732 H   0  0  0  0  0  0  0  0  0  0  0  0
    4.9196   16.1984   -0.1949 H   0  0  0  0  0  0  0  0  0  0  0  0
    4.0991   15.4646   -1.6280 H   0  0  0  0  0  0  0  0  0  0  0  0
    3.5060   17.7869   -1.5081 H   0  0  0  0  0  0  0  0  0  0  0  0
    2.0960   18.1630    0.6030 H   0  0  0  0  0  0  0  0  0  0  0  0
    1.8196   15.2853   -2.8135 H   0  0  0  0  0  0  0  0  0  0  0  0
    0.7371   16.6548   -3.2370 H   0  0  0  0  0  0  0  0  0  0  0  0
    2.5186   16.8849   -3.2370 H   0  0  0  0  0  0  0  0  0  0  0  0
    0.6053   18.3731   -0.1486 H   0  0  0  0  0  0  0  0  0  0  0  0
    1.3302   18.9062   -1.7032 H   0  0  0  0  0  0  0  0  0  0  0  0
   -0.1793   17.9326   -1.7032 H   0  0  0  0  0  0  0  0  0  0  0  0
    0.8998   12.8500    2.7454 H   0  0  0  0  0  0  0  0  0  0  0  0
    2.6227   13.1923    2.3695 H   0  0  0  0  0  0  0  0  0  0  0  0
    1.4210   14.5275    2.3695 H   0  0  0  0  0  0  0  0  0  0  0  0
    3.0745   12.1089    0.0132 H   0  0  0  0  0  0  0  0  0  0  0  0
    1.9010   11.2192    1.1383 H   0  0  0  0  0  0  0  0  0  0  0  0
    1.6614   11.5960   -1.8592 H   0  0  0  0  0  0  0  0  0  0  0  0
    1.9180   10.0666   -0.9305 H   0  0  0  0  0  0  0  0  0  0  0  0
   -0.1285   10.6842    1.4096 H   0  0  0  0  0  0  0  0  0  0  0  0
   -1.3748    9.7227    0.5442 H   0  0  0  0  0  0  0  0  0  0  0  0
    0.3377    9.1807    0.5442 H   0  0  0  0  0  0  0  0  0  0  0  0
  1  2  1  0
  2  3  1  0
  3  4  1  0
  4  5  1  0
  5  6  1  0
  6  7  1  0
  7  8  1  0
  7  9  1  0
  2 10  1  0
 10 11  1  0
 11 12  1  0
 12 13  1  0
 13 14  1  6
 13 15  1  0
 15 16  1  0
 16 17  1  0
 17 18  2  0
 18 19  1  0
 19 20  1  0
 20 21  1  0
 21 22  1  0
 22 23  1  0
 22 24  1  0
 24 25  1  0
 24 26  1  0
 19 27  1  0
 27 28  1  1
 27 29  1  0
 29 30  1  0
 30 31  1  0
 31 32  1  1
  7  5  1  0
 31 10  1  0
 31 13  1  0
 27 15  1  0
 24 18  1  0
  1 33  1  0
  1 34  1  0
  1 35  1  0
  2 36  1  1
  3 37  1  0
  3 38  1  0
  4 39  1  0
  4 40  1  0
  5 41  1  6
  8 42  1  0
  8 43  1  0
  8 44  1  0
  9 45  1  0
  9 46  1  0
  9 47  1  0
 10 48  1  6
 11 49  1  0
 11 50  1  0
 12 51  1  0
 12 52  1  0
 14 53  1  0
 14 54  1  0
 14 55  1  0
 15 56  1  1
 16 57  1  0
 16 58  1  0
 17 59  1  0
 19 60  1  6
 20 61  1  0
 20 62  1  0
 21 63  1  0
 21 64  1  0
 22 65  1  6
 23 66  1  0
 25 67  1  0
 25 68  1  0
 25 69  1  0
 26 70  1  0
 26 71  1  0
 26 72  1  0
 28 73  1  0
 28 74  1  0
 28 75  1  0
 29 76  1  0
 29 77  1  0
 30 78  1  0
 30 79  1  0
 32 80  1  0
 32 81  1  0
 32 82  1  0
M  END
>  <meeko>  (16) 
{"is_sidechain": [false], "intermolecular_energy": 2.731, "internal_energy": -0.839}

$$$$
EPH_relaxed_0001_pdb2pqr_Repair_258_r2_0001_out
     RDKit          3D

 82 86  0  0  0  0  0  0  0  0999 V2000
   -5.5450    5.1540   -1.1410 C   0  0  0  0  0  0  0  0  0  0  0  0
   -5.2710    6.5930   -0.6970 C   0  0  2  0  0  0  0  0  0  0  0  0
   -6.3570    7.5700   -1.1900 C   0  0  0  0  0  0  0  0  0  0  0  0
   -7.7250    6.9140   -1.4000 C   0  0  0  0  0  0  0  0  0  0  0  0
   -8.5830    7.0170   -0.1760 C   0  0  2  0  0  0  0  0  0  0  0  0
   -9.5940    6.0070   -0.0670 O   0  0  0  0  0  0  0  0  0  0  0  0
  -10.0610    7.3570   -0.2160 C   0  0  0  0  0  0  0  0  0  0  0  0
  -10.7670    7.6190   -1.5090 C   0  0  0  0  0  0  0  0  0  0  0  0
  -10.7000    7.9130    1.0180 C   0  0  0  0  0  0  0  0  0  0  0  0
   -3.9030    7.0400   -1.1980 C   0  0  1  0  0  0  0  0  0  0  0  0
   -3.6740    6.7010   -2.6950 C   0  0  0  0  0  0  0  0  0  0  0  0
   -2.8220    7.8520   -3.2890 C   0  0  0  0  0  0  0  0  0  0  0  0
   -2.3120    8.6350   -2.0570 C   0  0  1  0  0  0  0  0  0  0  0  0
   -1.0830    7.8210   -1.5450 C   0  0  0  0  0  0  0  0  0  0  0  0
   -1.9500   10.1380   -2.2950 C   0  0  2  0  0  0  0  0  0  0  0  0
   -0.8010   10.3830   -3.2890 C   0  0  0  0  0  0  0  0  0  0  0  0
    0.5630   10.4410   -2.6850 C   0  0  0  0  0  0  0  0  0  0  0  0
    0.8320   10.5870   -1.3740 C   0  0  0  0  0  0  0  0  0  0  0  0
   -0.2960   10.8100   -0.3580 C   0  0  1  0  0  0  0  0  0  0  0  0
    0.0870   11.9720    0.5950 C   0  0  0  0  0  0  0  0  0  0  0  0
    1.4410   11.7580    1.2640 C   0  0  0  0  0  0  0  0  0  0  0  0
    2.5460   11.5990    0.2230 C   0  0  2  0  0  0  0  0  0  0  0  0
    2.7080   12.8400   -0.4710 O   0  0  0  0  0  0  0  0  0  0  0  0
    2.2650   10.4620   -0.8000 C   0  0  0  0  0  0  0  0  0  0  0  0
    2.3880    9.0880   -0.0960 C   0  0  0  0  0  0  0  0  0  0  0  0
    3.3830   10.5010   -1.8760 C   0  0  0  0  0  0  0  0  0  0  0  0
   -1.7540   10.9760   -0.9670 C   0  0  1  0  0  0  0  0  0  0  0  0
   -2.0080   12.4680   -1.3410 C   0  0  0  0  0  0  0  0  0  0  0  0
   -2.8170   10.6070    0.1350 C   0  0  0  0  0  0  0  0  0  0  0  0
   -3.2220    9.1240    0.2410 C   0  0  0  0  0  0  0  0  0  0  0  0
   -3.5820    8.5540   -1.1350 C   0  0  2  0  0  0  0  0  0  0  0  0
   -4.8290    9.3400   -1.6660 C   0  0  0  0  0  0  0  0  0  0  0  0
   -5.6669    4.5138   -0.2549 H   0  0  0  0  0  0  0  0  0  0  0  0
   -6.4648    5.1250   -1.7436 H   0  0  0  0  0  0  0  0  0  0  0  0
   -4.7002    4.7891   -1.7436 H   0  0  0  0  0  0  0  0  0  0  0  0
   -5.2878    6.6083    0.4028 H   0  0  0  0  0  0  0  0  0  0  0  0
   -6.4669    8.3719   -0.4451 H   0  0  0  0  0  0  0  0  0  0  0  0
   -6.0283    7.9491   -2.1689 H   0  0  0  0  0  0  0  0  0  0  0  0
   -8.2355    7.4141   -2.2363 H   0  0  0  0  0  0  0  0  0  0  0  0
   -7.5641    5.8477   -1.6171 H   0  0  0  0  0  0  0  0  0  0  0  0
   -7.7459    7.4324    0.4042 H   0  0  0  0  0  0  0  0  0  0  0  0
  -11.7802    7.9950   -1.3039 H   0  0  0  0  0  0  0  0  0  0  0  0
  -10.2074    8.3693   -2.0868 H   0  0  0  0  0  0  0  0  0  0  0  0
  -10.8324    6.6853   -2.0868 H   0  0  0  0  0  0  0  0  0  0  0  0
  -10.2115    7.4879    1.9072 H   0  0  0  0  0  0  0  0  0  0  0  0
  -10.5895    9.0074    1.0269 H   0  0  0  0  0  0  0  0  0  0  0  0
  -11.7686    7.6523    1.0269 H   0  0  0  0  0  0  0  0  0  0  0  0
   -3.2612    6.4895   -0.4944 H   0  0  0  0  0  0  0  0  0  0  0  0
   -3.1377    5.7452   -2.7892 H   0  0  0  0  0  0  0  0  0  0  0  0
   -4.6309    6.6021   -3.2284 H   0  0  0  0  0  0  0  0  0  0  0  0
   -1.9789    7.4509   -3.8706 H   0  0  0  0  0  0  0  0  0  0  0  0
   -3.3997    8.4867   -3.9770 H   0  0  0  0  0  0  0  0  0  0  0  0
   -1.0779    7.8176   -0.4450 H   0  0  0  0  0  0  0  0  0  0  0  0
   -1.1483    6.7870   -1.9145 H   0  0  0  0  0  0  0  0  0  0  0  0
   -0.1564    8.2846   -1.9145 H   0  0  0  0  0  0  0  0  0  0  0  0
   -2.8562   10.5239   -2.7848 H   0  0  0  0  0  0  0  0  0  0  0  0
   -0.8112    9.5682   -4.0279 H   0  0  0  0  0  0  0  0  0  0  0  0
   -0.9829   11.3760   -3.7258 H   0  0  0  0  0  0  0  0  0  0  0  0
    1.4206   10.3574   -3.3688 H   0  0  0  0  0  0  0  0  0  0  0  0
   -0.3812    9.8731    0.2120 H   0  0  0  0  0  0  0  0  0  0  0  0
    0.1240   12.9060    0.0151 H   0  0  0  0  0  0  0  0  0  0  0  0
   -0.6737   12.0177    1.3882 H   0  0  0  0  0  0  0  0  0  0  0  0
    1.6688   12.6255    1.9008 H   0  0  0  0  0  0  0  0  0  0  0  0
    1.3928   10.8394    1.8672 H   0  0  0  0  0  0  0  0  0  0  0  0
    3.4655   11.3199    0.7584 H   0  0  0  0  0  0  0  0  0  0  0  0
    2.7050   12.6470   -1.4240 H   0  0  0  0  0  0  0  0  0  0  0  0
    2.3751    9.2323    0.9944 H   0  0  0  0  0  0  0  0  0  0  0  0
    1.5436    8.4479   -0.3912 H   0  0  0  0  0  0  0  0  0  0  0  0
    3.3327    8.6080   -0.3912 H   0  0  0  0  0  0  0  0  0  0  0  0
    4.3656   10.5353   -1.3827 H   0  0  0  0  0  0  0  0  0  0  0  0
    3.3192    9.6001   -2.5039 H   0  0  0  0  0  0  0  0  0  0  0  0
    3.2565   11.3953   -2.5039 H   0  0  0  0  0  0  0  0  0  0  0  0
   -2.1095   13.0642   -0.4222 H   0  0  0  0  0  0  0  0  0  0  0  0
   -1.1615   12.8470   -1.9324 H   0  0  0  0  0  0  0  0  0  0  0  0
   -2.9323   12.5455   -1.9324 H   0  0  0  0  0  0  0  0  0  0  0  0
   -2.4054   10.9100    1.1091 H   0  0  0  0  0  0  0  0  0  0  0  0
   -3.7349   11.1354   -0.1622 H   0  0  0  0  0  0  0  0  0  0  0  0
   -2.3817    8.5505    0.6594 H   0  0  0  0  0  0  0  0  0  0  0  0
   -4.1038    9.0471    0.8941 H   0  0  0  0  0  0  0  0  0  0  0  0
   -5.4182    9.7114   -0.8146 H   0  0  0  0  0  0  0  0  0  0  0  0
   -4.4932   10.1900   -2.2781 H   0  0  0  0  0  0  0  0  0  0  0  0
   -5.4511    8.6704   -2.2781 H   0  0  0  0  0  0  0  0  0  0  0  0
  1  2  1  0
  2  3  1  0
  3  4  1  0
  4  5  1  0
  5  6  1  0
  6  7  1  0
  7  8  1  0
  7  9  1  0
  2 10  1  0
 10 11  1  0
 11 12  1  0
 12 13  1  0
 13 14  1  1
 13 15  1  0
 15 16  1  0
 16 17  1  0
 17 18  2  0
 18 19  1  0
 19 20  1  0
 20 21  1  0
 21 22  1  0
 22 23  1  0
 22 24  1  0
 24 25  1  0
 24 26  1  0
 19 27  1  0
 27 28  1  6
 27 29  1  0
 29 30  1  0
 30 31  1  0
 31 32  1  6
  7  5  1  0
 31 10  1  0
 31 13  1  0
 27 15  1  0
 24 18  1  0
  1 33  1  0
  1 34  1  0
  1 35  1  0
  2 36  1  1
  3 37  1  0
  3 38  1  0
  4 39  1  0
  4 40  1  0
  5 41  1  1
  8 42  1  0
  8 43  1  0
  8 44  1  0
  9 45  1  0
  9 46  1  0
  9 47  1  0
 10 48  1  1
 11 49  1  0
 11 50  1  0
 12 51  1  0
 12 52  1  0
 14 53  1  0
 14 54  1  0
 14 55  1  0
 15 56  1  6
 16 57  1  0
 16 58  1  0
 17 59  1  0
 19 60  1  1
 20 61  1  0
 20 62  1  0
 21 63  1  0
 21 64  1  0
 22 65  1  1
 23 66  1  0
 25 67  1  0
 25 68  1  0
 25 69  1  0
 26 70  1  0
 26 71  1  0
 26 72  1  0
 28 73  1  0
 28 74  1  0
 28 75  1  0
 29 76  1  0
 29 77  1  0
 30 78  1  0
 30 79  1  0
 32 80  1  0
 32 81  1  0
 32 82  1  0
M  END
>  <meeko>  (17) 
{"is_sidechain": [false], "intermolecular_energy": 2.731, "internal_energy": -0.839}

$$$$
EPH_relaxed_0001_pdb2pqr_Repair_258_r2_0001_out
     RDKit          3D

 82 86  0  0  0  0  0  0  0  0999 V2000
    4.3410   17.4530   -0.4000 C   0  0  0  0  0  0  0  0  0  0  0  0
    3.0040   18.0220    0.0840 C   0  0  2  0  0  0  0  0  0  0  0  0
    3.1280   18.7060    1.4600 C   0  0  0  0  0  0  0  0  0  0  0  0
    4.5710   18.8310    1.9580 C   0  0  0  0  0  0  0  0  0  0  0  0
    4.6310   19.3670    3.3560 C   0  0  2  0  0  0  0  0  0  0  0  0
    5.7680   20.1950    3.6310 O   0  0  0  0  0  0  0  0  0  0  0  0
    5.6900   18.9610    4.3630 C   0  0  0  0  0  0  0  0  0  0  0  0
    6.7620   17.9770    4.0140 C   0  0  0  0  0  0  0  0  0  0  0  0
    5.3980   19.1410    5.8200 C   0  0  0  0  0  0  0  0  0  0  0  0
    1.9590   16.9150    0.1440 C   0  0  1  0  0  0  0  0  0  0  0  0
    0.5170   17.4400   -0.0890 C   0  0  0  0  0  0  0  0  0  0  0  0
   -0.2440   16.3300   -0.8590 C   0  0  0  0  0  0  0  0  0  0  0  0
    0.6680   15.0860   -0.7530 C   0  0  1  0  0  0  0  0  0  0  0  0
    0.3680   14.4880    0.6580 C   0  0  0  0  0  0  0  0  0  0  0  0
    0.5090   14.0140   -1.8790 C   0  0  2  0  0  0  0  0  0  0  0  0
   -0.8770   13.3490   -1.9570 C   0  0  0  0  0  0  0  0  0  0  0  0
   -1.0360   12.1090   -1.1420 C   0  0  0  0  0  0  0  0  0  0  0  0
   -0.0310   11.3910   -0.6060 C   0  0  0  0  0  0  0  0  0  0  0  0
    1.4330   11.7570   -0.8810 C   0  0  1  0  0  0  0  0  0  0  0  0
    2.2270   10.4760   -1.2460 C   0  0  0  0  0  0  0  0  0  0  0  0
    2.0880    9.3810   -0.1920 C   0  0  0  0  0  0  0  0  0  0  0  0
    0.6230    9.0040    0.0120 C   0  0  2  0  0  0  0  0  0  0  0  0
    0.1370    8.3830   -1.1830 O   0  0  0  0  0  0  0  0  0  0  0  0
   -0.2780   10.2170    0.3740 C   0  0  0  0  0  0  0  0  0  0  0  0
    0.0540   10.7020    1.8070 C   0  0  0  0  0  0  0  0  0  0  0  0
   -1.7500    9.7250    0.4120 C   0  0  0  0  0  0  0  0  0  0  0  0
    1.6690   12.9380   -1.9190 C   0  0  1  0  0  0  0  0  0  0  0  0
    1.7010   12.3710   -3.3710 C   0  0  0  0  0  0  0  0  0  0  0  0
    3.0850   13.5750   -1.6600 C   0  0  0  0  0  0  0  0  0  0  0  0
    3.1560   14.7110   -0.6210 C   0  0  0  0  0  0  0  0  0  0  0  0
    2.0790   15.7660   -0.8890 C   0  0  2  0  0  0  0  0  0  0  0  0
    2.3680   16.4010   -2.2920 C   0  0  0  0  0  0  0  0  0  0  0  0
    4.9627   17.1884    0.4681 H   0  0  0  0  0  0  0  0  0  0  0  0
    4.1586   16.5545   -1.0078 H   0  0  0  0  0  0  0  0  0  0  0  0
    4.8620   18.2074   -1.0078 H   0  0  0  0  0  0  0  0  0  0  0  0
    2.6902   18.7897   -0.6386 H   0  0  0  0  0  0  0  0  0  0  0  0
    2.6976   19.7156    1.3859 H   0  0  0  0  0  0  0  0  0  0  0  0
    2.5923   18.0731    2.1829 H   0  0  0  0  0  0  0  0  0  0  0  0
    5.0427   17.8375    1.9367 H   0  0  0  0  0  0  0  0  0  0  0  0
    5.1014   19.5337    1.2986 H   0  0  0  0  0  0  0  0  0  0  0  0
    3.5331   19.4030    3.4144 H   0  0  0  0  0  0  0  0  0  0  0  0
    7.2029   17.5723    4.9370 H   0  0  0  0  0  0  0  0  0  0  0  0
    6.3282   17.1560    3.4242 H   0  0  0  0  0  0  0  0  0  0  0  0
    7.5429   18.4793    3.4242 H   0  0  0  0  0  0  0  0  0  0  0  0
    6.1858   18.6554    6.4146 H   0  0  0  0  0  0  0  0  0  0  0  0
    5.3681   20.2145    6.0581 H   0  0  0  0  0  0  0  0  0  0  0  0
    4.4255   18.6854    6.0581 H   0  0  0  0  0  0  0  0  0  0  0  0
    2.1549   16.5324    1.1565 H   0  0  0  0  0  0  0  0  0  0  0  0
    0.0254   17.6375    0.8750 H   0  0  0  0  0  0  0  0  0  0  0  0
    0.5264   18.3808   -0.6590 H   0  0  0  0  0  0  0  0  0  0  0  0
   -1.2217   16.1354   -0.3940 H   0  0  0  0  0  0  0  0  0  0  0  0
   -0.4467   16.6107   -1.9031 H   0  0  0  0  0  0  0  0  0  0  0  0
    0.7178   15.1852    1.4336 H   0  0  0  0  0  0  0  0  0  0  0  0
   -0.7153   14.3315    0.7671 H   0  0  0  0  0  0  0  0  0  0  0  0
    0.8902   13.5261    0.7671 H   0  0  0  0  0  0  0  0  0  0  0  0
    0.6023   14.6183   -2.7934 H   0  0  0  0  0  0  0  0  0  0  0  0
   -1.6243   14.0795   -1.6136 H   0  0  0  0  0  0  0  0  0  0  0  0
   -1.0091   13.0431   -3.0053 H   0  0  0  0  0  0  0  0  0  0  0  0
   -2.0609   11.7514   -0.9641 H   0  0  0  0  0  0  0  0  0  0  0  0
    1.8215   12.1825    0.0560 H   0  0  0  0  0  0  0  0  0  0  0  0
    1.8529   10.0908   -2.2060 H   0  0  0  0  0  0  0  0  0  0  0  0
    3.2910   10.7485   -1.3060 H   0  0  0  0  0  0  0  0  0  0  0  0
    2.6463    8.4920   -0.5205 H   0  0  0  0  0  0  0  0  0  0  0  0
    2.4900    9.7569    0.7604 H   0  0  0  0  0  0  0  0  0  0  0  0
    0.5760    8.3135    0.8669 H   0  0  0  0  0  0  0  0  0  0  0  0
   -0.0760    7.4590   -0.9680 H   0  0  0  0  0  0  0  0  0  0  0  0
   -0.4094   10.0250    2.5398 H   0  0  0  0  0  0  0  0  0  0  0  0
    1.1447   10.7054    1.9495 H   0  0  0  0  0  0  0  0  0  0  0  0
   -0.3375   11.7200    1.9495 H   0  0  0  0  0  0  0  0  0  0  0  0
   -2.0736    9.6168    1.4578 H   0  0  0  0  0  0  0  0  0  0  0  0
   -2.3944   10.4566   -0.0974 H   0  0  0  0  0  0  0  0  0  0  0  0
   -1.8250    8.7530   -0.0974 H   0  0  0  0  0  0  0  0  0  0  0  0
    1.7629   11.2733   -3.3347 H   0  0  0  0  0  0  0  0  0  0  0  0
    0.7846   12.6692   -3.9014 H   0  0  0  0  0  0  0  0  0  0  0  0
    2.5780   12.7704   -3.9014 H   0  0  0  0  0  0  0  0  0  0  0  0
    3.7546   12.7710   -1.3204 H   0  0  0  0  0  0  0  0  0  0  0  0
    3.3707   14.0400   -2.6151 H   0  0  0  0  0  0  0  0  0  0  0  0
    3.0051   14.2897    0.3839 H   0  0  0  0  0  0  0  0  0  0  0  0
    4.1431   15.1910   -0.6926 H   0  0  0  0  0  0  0  0  0  0  0  0
    2.8203   17.3948   -2.1585 H   0  0  0  0  0  0  0  0  0  0  0  0
    3.0608   15.7550   -2.8512 H   0  0  0  0  0  0  0  0  0  0  0  0
    1.4258   16.4990   -2.8512 H   0  0  0  0  0  0  0  0  0  0  0  0
  1  2  1  0
  2  3  1  0
  3  4  1  0
  4  5  1  0
  5  6  1  0
  6  7  1  0
  7  8  1  0
  7  9  1  0
  2 10  1  0
 10 11  1  0
 11 12  1  0
 12 13  1  0
 13 14  1  1
 13 15  1  0
 15 16  1  0
 16 17  1  0
 17 18  2  0
 18 19  1  0
 19 20  1  0
 20 21  1  0
 21 22  1  0
 22 23  1  0
 22 24  1  0
 24 25  1  0
 24 26  1  0
 19 27  1  0
 27 28  1  6
 27 29  1  0
 29 30  1  0
 30 31  1  0
 31 32  1  6
  7  5  1  0
 31 10  1  0
 31 13  1  0
 27 15  1  0
 24 18  1  0
  1 33  1  0
  1 34  1  0
  1 35  1  0
  2 36  1  6
  3 37  1  0
  3 38  1  0
  4 39  1  0
  4 40  1  0
  5 41  1  1
  8 42  1  0
  8 43  1  0
  8 44  1  0
  9 45  1  0
  9 46  1  0
  9 47  1  0
 10 48  1  1
 11 49  1  0
 11 50  1  0
 12 51  1  0
 12 52  1  0
 14 53  1  0
 14 54  1  0
 14 55  1  0
 15 56  1  6
 16 57  1  0
 16 58  1  0
 17 59  1  0
 19 60  1  1
 20 61  1  0
 20 62  1  0
 21 63  1  0
 21 64  1  0
 22 65  1  1
 23 66  1  0
 25 67  1  0
 25 68  1  0
 25 69  1  0
 26 70  1  0
 26 71  1  0
 26 72  1  0
 28 73  1  0
 28 74  1  0
 28 75  1  0
 29 76  1  0
 29 77  1  0
 30 78  1  0
 30 79  1  0
 32 80  1  0
 32 81  1  0
 32 82  1  0
M  END
>  <meeko>  (18) 
{"is_sidechain": [false], "intermolecular_energy": 2.731, "internal_energy": -0.839}

$$$$
