EPH_relaxed_0001_pdb2pqr_Repair_61_r2_0001_out
     RDKit          3D

 82 86  0  0  0  0  0  0  0  0999 V2000
   -1.6720    8.5650   -1.8410 C   0  0  0  0  0  0  0  0  0  0  0  0
   -2.0280    9.0900   -0.4480 C   0  0  2  0  0  0  0  0  0  0  0  0
   -3.5200    9.4600   -0.3300 C   0  0  0  0  0  0  0  0  0  0  0  0
   -4.4460    8.2470   -0.2000 C   0  0  0  0  0  0  0  0  0  0  0  0
   -5.1400    7.9390   -1.4920 C   0  0  2  0  0  0  0  0  0  0  0  0
   -6.3120    8.7260   -1.7450 O   0  0  0  0  0  0  0  0  0  0  0  0
   -6.5210    7.3150   -1.5720 C   0  0  0  0  0  0  0  0  0  0  0  0
   -7.2900    6.9600   -0.3380 C   0  0  0  0  0  0  0  0  0  0  0  0
   -6.9130    6.6050   -2.8300 C   0  0  0  0  0  0  0  0  0  0  0  0
   -1.1640   10.3000   -0.1120 C   0  0  1  0  0  0  0  0  0  0  0  0
   -0.1040    9.9920    0.9800 C   0  0  0  0  0  0  0  0  0  0  0  0
    1.1550   10.8250    0.6280 C   0  0  0  0  0  0  0  0  0  0  0  0
    0.6730   11.8260   -0.4480 C   0  0  1  0  0  0  0  0  0  0  0  0
   -0.0170   12.9740    0.3520 C   0  0  0  0  0  0  0  0  0  0  0  0
    1.7680   12.3760   -1.4190 C   0  0  2  0  0  0  0  0  0  0  0  0
    2.8850   13.1920   -0.7480 C   0  0  0  0  0  0  0  0  0  0  0  0
    2.6330   14.6610   -0.6510 C   0  0  0  0  0  0  0  0  0  0  0  0
    1.6910   15.3390   -1.3330 C   0  0  0  0  0  0  0  0  0  0  0  0
    0.8220   14.6380   -2.3850 C   0  0  1  0  0  0  0  0  0  0  0  0
    0.7610   15.5060   -3.6680 C   0  0  0  0  0  0  0  0  0  0  0  0
    0.3000   16.9330   -3.3880 C   0  0  0  0  0  0  0  0  0  0  0  0
    1.2220   17.6170   -2.3820 C   0  0  2  0  0  0  0  0  0  0  0  0
    2.5090   17.7920   -2.9820 O   0  0  0  0  0  0  0  0  0  0  0  0
    1.3700   16.8270   -1.0510 C   0  0  0  0  0  0  0  0  0  0  0  0
    0.0420   16.8960   -0.2550 C   0  0  0  0  0  0  0  0  0  0  0  0
    2.4340   17.5500   -0.1820 C   0  0  0  0  0  0  0  0  0  0  0  0
    1.1910   13.1220   -2.6900 C   0  0  1  0  0  0  0  0  0  0  0  0
    2.2970   13.0550   -3.7870 C   0  0  0  0  0  0  0  0  0  0  0  0
   -0.0720   12.3960   -3.2880 C   0  0  0  0  0  0  0  0  0  0  0  0
   -1.0550   11.7690   -2.2810 C   0  0  0  0  0  0  0  0  0  0  0  0
   -0.3130   10.9060   -1.2560 C   0  0  2  0  0  0  0  0  0  0  0  0
    0.3730    9.7290   -2.0300 C   0  0  0  0  0  0  0  0  0  0  0  0
   -1.0570    7.6581   -1.7449 H   0  0  0  0  0  0  0  0  0  0  0  0
   -2.5949    8.3258   -2.3896 H   0  0  0  0  0  0  0  0  0  0  0  0
   -1.1082    9.3339   -2.3896 H   0  0  0  0  0  0  0  0  0  0  0  0
   -1.8308    8.2806    0.2703 H   0  0  0  0  0  0  0  0  0  0  0  0
   -3.6514   10.0942    0.5591 H   0  0  0  0  0  0  0  0  0  0  0  0
   -3.7974    9.9784   -1.2596 H   0  0  0  0  0  0  0  0  0  0  0  0
   -3.8492    7.3735    0.1012 H   0  0  0  0  0  0  0  0  0  0  0  0
   -5.2123    8.4796    0.5541 H   0  0  0  0  0  0  0  0  0  0  0  0
   -4.1842    7.6796   -1.9707 H   0  0  0  0  0  0  0  0  0  0  0  0
   -6.7021    7.2314    0.5512 H   0  0  0  0  0  0  0  0  0  0  0  0
   -8.2430    7.5093   -0.3291 H   0  0  0  0  0  0  0  0  0  0  0  0
   -7.4901    5.8784   -0.3291 H   0  0  0  0  0  0  0  0  0  0  0  0
   -7.4303    5.6680   -2.5762 H   0  0  0  0  0  0  0  0  0  0  0  0
   -7.5846    7.2467   -3.4191 H   0  0  0  0  0  0  0  0  0  0  0  0
   -6.0121    6.3785   -3.4191 H   0  0  0  0  0  0  0  0  0  0  0  0
   -1.9489   11.0092    0.1896 H   0  0  0  0  0  0  0  0  0  0  0  0
   -0.4852   10.2815    1.9704 H   0  0  0  0  0  0  0  0  0  0  0  0
    0.1294    8.9175    1.0123 H   0  0  0  0  0  0  0  0  0  0  0  0
    1.5282   11.3581    1.5148 H   0  0  0  0  0  0  0  0  0  0  0  0
    1.9843   10.1966    0.2712 H   0  0  0  0  0  0  0  0  0  0  0  0
    0.0948   12.7880    1.4304 H   0  0  0  0  0  0  0  0  0  0  0  0
    0.4537   13.9344    0.0948 H   0  0  0  0  0  0  0  0  0  0  0  0
   -1.0859   13.0090    0.0948 H   0  0  0  0  0  0  0  0  0  0  0  0
    2.2477   11.4542   -1.7797 H   0  0  0  0  0  0  0  0  0  0  0  0
    3.0242   12.8032    0.2715 H   0  0  0  0  0  0  0  0  0  0  0  0
    3.7718   13.0775   -1.3887 H   0  0  0  0  0  0  0  0  0  0  0  0
    3.2707   15.2373    0.0354 H   0  0  0  0  0  0  0  0  0  0  0  0
   -0.1821   14.5543   -1.9437 H   0  0  0  0  0  0  0  0  0  0  0  0
    1.7643   15.5415   -4.1177 H   0  0  0  0  0  0  0  0  0  0  0  0
    0.0285   15.0460   -4.3476 H   0  0  0  0  0  0  0  0  0  0  0  0
    0.3061   17.5042   -4.3281 H   0  0  0  0  0  0  0  0  0  0  0  0
   -0.7152   16.8974   -2.9659 H   0  0  0  0  0  0  0  0  0  0  0  0
    0.7683   18.5853   -2.1238 H   0  0  0  0  0  0  0  0  0  0  0  0
    2.5610   17.1950   -3.7470 H   0  0  0  0  0  0  0  0  0  0  0  0
    0.2598   16.8847    0.8232 H   0  0  0  0  0  0  0  0  0  0  0  0
   -0.4916   17.8231   -0.5116 H   0  0  0  0  0  0  0  0  0  0  0  0
   -0.5848   16.0292   -0.5116 H   0  0  0  0  0  0  0  0  0  0  0  0
    2.2051   17.3945    0.8826 H   0  0  0  0  0  0  0  0  0  0  0  0
    3.4302   17.1410   -0.4064 H   0  0  0  0  0  0  0  0  0  0  0  0
    2.4206   18.6268   -0.4064 H   0  0  0  0  0  0  0  0  0  0  0  0
    3.2854   12.9951   -3.3080 H   0  0  0  0  0  0  0  0  0  0  0  0
    2.1386   12.1648   -4.4135 H   0  0  0  0  0  0  0  0  0  0  0  0
    2.2472   13.9578   -4.4135 H   0  0  0  0  0  0  0  0  0  0  0  0
   -0.6302   13.1347   -3.8819 H   0  0  0  0  0  0  0  0  0  0  0  0
    0.3290   11.5490   -3.8640 H   0  0  0  0  0  0  0  0  0  0  0  0
   -1.5917   12.5719   -1.7543 H   0  0  0  0  0  0  0  0  0  0  0  0
   -1.7616   11.1305   -2.8315 H   0  0  0  0  0  0  0  0  0  0  0  0
    0.7915    9.0109   -1.3094 H   0  0  0  0  0  0  0  0  0  0  0  0
   -0.3714    9.2226   -2.6620 H   0  0  0  0  0  0  0  0  0  0  0  0
    1.1805   10.1271   -2.6620 H   0  0  0  0  0  0  0  0  0  0  0  0
  1  2  1  0
  2  3  1  0
  3  4  1  0
  4  5  1  0
  5  6  1  0
  6  7  1  0
  7  8  1  0
  7  9  1  0
  2 10  1  0
 10 11  1  0
 11 12  1  0
 12 13  1  0
 13 14  1  1
 13 15  1  0
 15 16  1  0
 16 17  1  0
 17 18  2  0
 18 19  1  0
 19 20  1  0
 20 21  1  0
 21 22  1  0
 22 23  1  0
 22 24  1  0
 24 25  1  0
 24 26  1  0
 19 27  1  0
 27 28  1  6
 27 29  1  0
 29 30  1  0
 30 31  1  0
 31 32  1  6
  7  5  1  0
 31 10  1  0
 31 13  1  0
 27 15  1  0
 24 18  1  0
  1 33  1  0
  1 34  1  0
  1 35  1  0
  2 36  1  1
  3 37  1  0
  3 38  1  0
  4 39  1  0
  4 40  1  0
  5 41  1  6
  8 42  1  0
  8 43  1  0
  8 44  1  0
  9 45  1  0
  9 46  1  0
  9 47  1  0
 10 48  1  1
 11 49  1  0
 11 50  1  0
 12 51  1  0
 12 52  1  0
 14 53  1  0
 14 54  1  0
 14 55  1  0
 15 56  1  6
 16 57  1  0
 16 58  1  0
 17 59  1  0
 19 60  1  1
 20 61  1  0
 20 62  1  0
 21 63  1  0
 21 64  1  0
 22 65  1  1
 23 66  1  0
 25 67  1  0
 25 68  1  0
 25 69  1  0
 26 70  1  0
 26 71  1  0
 26 72  1  0
 28 73  1  0
 28 74  1  0
 28 75  1  0
 29 76  1  0
 29 77  1  0
 30 78  1  0
 30 79  1  0
 32 80  1  0
 32 81  1  0
 32 82  1  0
M  END
>  <meeko>  (1) 
{"is_sidechain": [false], "intermolecular_energy": 2.731, "internal_energy": -0.839}

$$$$
EPH_relaxed_0001_pdb2pqr_Repair_61_r2_0001_out
     RDKit          3D

 82 86  0  0  0  0  0  0  0  0999 V2000
    2.3370   18.0310   -2.7510 C   0  0  0  0  0  0  0  0  0  0  0  0
    1.0380   17.6630   -2.0300 C   0  0  2  0  0  0  0  0  0  0  0  0
    1.1800   17.7500   -0.4970 C   0  0  0  0  0  0  0  0  0  0  0  0
    0.8440   19.1300    0.0750 C   0  0  0  0  0  0  0  0  0  0  0  0
   -0.5880   19.2180    0.5080 C   0  0  2  0  0  0  0  0  0  0  0  0
   -1.4650   18.2830   -0.1330 O   0  0  0  0  0  0  0  0  0  0  0  0
   -1.7110   19.6720   -0.4050 C   0  0  0  0  0  0  0  0  0  0  0  0
   -1.4520   20.0700   -1.8240 C   0  0  0  0  0  0  0  0  0  0  0  0
   -2.9700   20.1940    0.2160 C   0  0  0  0  0  0  0  0  0  0  0  0
    0.5980   16.2600   -2.4330 C   0  0  1  0  0  0  0  0  0  0  0  0
    0.7080   16.0160   -3.9620 C   0  0  0  0  0  0  0  0  0  0  0  0
    1.1160   14.5320   -4.1500 C   0  0  0  0  0  0  0  0  0  0  0  0
    0.9050   13.8900   -2.7580 C   0  0  1  0  0  0  0  0  0  0  0  0
   -0.6250   13.5910   -2.6830 C   0  0  0  0  0  0  0  0  0  0  0  0
    1.7580   12.6180   -2.4480 C   0  0  2  0  0  0  0  0  0  0  0  0
    1.4890   11.4120   -3.3650 C   0  0  0  0  0  0  0  0  0  0  0  0
    0.4290   10.4740   -2.8910 C   0  0  0  0  0  0  0  0  0  0  0  0
   -0.0790   10.4330   -1.6450 C   0  0  0  0  0  0  0  0  0  0  0  0
    0.4850   11.3300   -0.5350 C   0  0  1  0  0  0  0  0  0  0  0  0
    0.7040   10.4870    0.7490 C   0  0  0  0  0  0  0  0  0  0  0  0
   -0.5550    9.7430    1.1840 C   0  0  0  0  0  0  0  0  0  0  0  0
   -1.0510    8.8190    0.0750 C   0  0  2  0  0  0  0  0  0  0  0  0
   -0.0940    7.7730   -0.1170 O   0  0  0  0  0  0  0  0  0  0  0  0
   -1.2990    9.5550   -1.2720 C   0  0  0  0  0  0  0  0  0  0  0  0
   -2.5380   10.4740   -1.1420 C   0  0  0  0  0  0  0  0  0  0  0  0
   -1.6600    8.4880   -2.3400 C   0  0  0  0  0  0  0  0  0  0  0  0
    1.7600   12.1950   -0.9230 C   0  0  1  0  0  0  0  0  0  0  0  0
    3.0580   11.3610   -0.6940 C   0  0  0  0  0  0  0  0  0  0  0  0
    1.8530   13.4360    0.0420 C   0  0  0  0  0  0  0  0  0  0  0  0
    1.0850   14.7030   -0.3800 C   0  0  0  0  0  0  0  0  0  0  0  0
    1.3880   15.0680   -1.8360 C   0  0  2  0  0  0  0  0  0  0  0  0
    2.9170   15.3960   -1.9380 C   0  0  0  0  0  0  0  0  0  0  0  0
    3.1182   18.2523   -2.0089 H   0  0  0  0  0  0  0  0  0  0  0  0
    2.6580   17.1884   -3.3811 H   0  0  0  0  0  0  0  0  0  0  0  0
    2.1684   18.9167   -3.3811 H   0  0  0  0  0  0  0  0  0  0  0  0
    0.2736   18.3936   -2.3333 H   0  0  0  0  0  0  0  0  0  0  0  0
    0.5027   17.0116   -0.0431 H   0  0  0  0  0  0  0  0  0  0  0  0
    2.2359   17.5523   -0.2603 H   0  0  0  0  0  0  0  0  0  0  0  0
    1.4913   19.3230    0.9432 H   0  0  0  0  0  0  0  0  0  0  0  0
    1.0095   19.8776   -0.7147 H   0  0  0  0  0  0  0  0  0  0  0  0
   -0.2881   19.5293    1.5195 H   0  0  0  0  0  0  0  0  0  0  0  0
   -0.8521   20.9918   -1.8426 H   0  0  0  0  0  0  0  0  0  0  0  0
   -0.9040   19.2655   -2.3363 H   0  0  0  0  0  0  0  0  0  0  0  0
   -2.4095   20.2452   -2.3363 H   0  0  0  0  0  0  0  0  0  0  0  0
   -2.8810   20.1571    1.3118 H   0  0  0  0  0  0  0  0  0  0  0  0
   -3.1328   21.2338   -0.1038 H   0  0  0  0  0  0  0  0  0  0  0  0
   -3.8208   19.5745   -0.1038 H   0  0  0  0  0  0  0  0  0  0  0  0
   -0.4282   16.2673   -2.0370 H   0  0  0  0  0  0  0  0  0  0  0  0
   -0.2608   16.2068   -4.4467 H   0  0  0  0  0  0  0  0  0  0  0  0
    1.4487   16.6899   -4.4172 H   0  0  0  0  0  0  0  0  0  0  0  0
    0.4776   14.0461   -4.9026 H   0  0  0  0  0  0  0  0  0  0  0  0
    2.1514   14.4258   -4.5058 H   0  0  0  0  0  0  0  0  0  0  0  0
   -0.9355   13.5303   -1.6295 H   0  0  0  0  0  0  0  0  0  0  0  0
   -1.1812   14.3974   -3.1833 H   0  0  0  0  0  0  0  0  0  0  0  0
   -0.8366   12.6345   -3.1833 H   0  0  0  0  0  0  0  0  0  0  0  0
    2.7776   12.9539   -2.6879 H   0  0  0  0  0  0  0  0  0  0  0  0
    1.1874   11.7954   -4.3509 H   0  0  0  0  0  0  0  0  0  0  0  0
    2.4227   10.8308   -3.3848 H   0  0  0  0  0  0  0  0  0  0  0  0
    0.0291    9.7555   -3.6216 H   0  0  0  0  0  0  0  0  0  0  0  0
   -0.2768   12.1016   -0.3499 H   0  0  0  0  0  0  0  0  0  0  0  0
    1.4990    9.7516    0.5563 H   0  0  0  0  0  0  0  0  0  0  0  0
    0.9789   11.1787    1.5589 H   0  0  0  0  0  0  0  0  0  0  0  0
   -0.3285    9.1436    2.0781 H   0  0  0  0  0  0  0  0  0  0  0  0
   -1.3407   10.4804    1.4053 H   0  0  0  0  0  0  0  0  0  0  0  0
   -2.0228    8.4142    0.3940 H   0  0  0  0  0  0  0  0  0  0  0  0
    0.7690    8.1910   -0.2830 H   0  0  0  0  0  0  0  0  0  0  0  0
   -2.7615   10.6398   -0.0778 H   0  0  0  0  0  0  0  0  0  0  0  0
   -2.3314   11.4390   -1.6279 H   0  0  0  0  0  0  0  0  0  0  0  0
   -3.4015    9.9962   -1.6279 H   0  0  0  0  0  0  0  0  0  0  0  0
   -1.9740    7.5600   -1.8397 H   0  0  0  0  0  0  0  0  0  0  0  0
   -2.4817    8.8618   -2.9686 H   0  0  0  0  0  0  0  0  0  0  0  0
   -0.7802    8.2861   -2.9686 H   0  0  0  0  0  0  0  0  0  0  0  0
    3.2350   11.2473    0.3857 H   0  0  0  0  0  0  0  0  0  0  0  0
    2.9417   10.3682   -1.1531 H   0  0  0  0  0  0  0  0  0  0  0  0
    3.9127   11.8794   -1.1531 H   0  0  0  0  0  0  0  0  0  0  0  0
    1.4666   13.1240    1.0235 H   0  0  0  0  0  0  0  0  0  0  0  0
    2.9138   13.7269    0.0355 H   0  0  0  0  0  0  0  0  0  0  0  0
    0.0054   14.5223   -0.2715 H   0  0  0  0  0  0  0  0  0  0  0  0
    1.4025   15.5364    0.2639 H   0  0  0  0  0  0  0  0  0  0  0  0
    3.3407   15.4869   -0.9270 H   0  0  0  0  0  0  0  0  0  0  0  0
    3.4301   14.5875   -2.4793 H   0  0  0  0  0  0  0  0  0  0  0  0
    3.0534   16.3438   -2.4793 H   0  0  0  0  0  0  0  0  0  0  0  0
  1  2  1  0
  2  3  1  0
  3  4  1  0
  4  5  1  0
  5  6  1  0
  6  7  1  0
  7  8  1  0
  7  9  1  0
  2 10  1  0
 10 11  1  0
 11 12  1  0
 12 13  1  0
 13 14  1  1
 13 15  1  0
 15 16  1  0
 16 17  1  0
 17 18  2  0
 18 19  1  0
 19 20  1  0
 20 21  1  0
 21 22  1  0
 22 23  1  0
 22 24  1  0
 24 25  1  0
 24 26  1  0
 19 27  1  0
 27 28  1  6
 27 29  1  0
 29 30  1  0
 30 31  1  0
 31 32  1  1
  7  5  1  0
 31 10  1  0
 31 13  1  0
 27 15  1  0
 24 18  1  0
  1 33  1  0
  1 34  1  0
  1 35  1  0
  2 36  1  6
  3 37  1  0
  3 38  1  0
  4 39  1  0
  4 40  1  0
  5 41  1  1
  8 42  1  0
  8 43  1  0
  8 44  1  0
  9 45  1  0
  9 46  1  0
  9 47  1  0
 10 48  1  1
 11 49  1  0
 11 50  1  0
 12 51  1  0
 12 52  1  0
 14 53  1  0
 14 54  1  0
 14 55  1  0
 15 56  1  6
 16 57  1  0
 16 58  1  0
 17 59  1  0
 19 60  1  1
 20 61  1  0
 20 62  1  0
 21 63  1  0
 21 64  1  0
 22 65  1  1
 23 66  1  0
 25 67  1  0
 25 68  1  0
 25 69  1  0
 26 70  1  0
 26 71  1  0
 26 72  1  0
 28 73  1  0
 28 74  1  0
 28 75  1  0
 29 76  1  0
 29 77  1  0
 30 78  1  0
 30 79  1  0
 32 80  1  0
 32 81  1  0
 32 82  1  0
M  END
>  <meeko>  (2) 
{"is_sidechain": [false], "intermolecular_energy": 2.731, "internal_energy": -0.839}

$$$$
EPH_relaxed_0001_pdb2pqr_Repair_61_r2_0001_out
     RDKit          3D

 82 86  0  0  0  0  0  0  0  0999 V2000
    1.9820   19.6410   -0.6140 C   0  0  0  0  0  0  0  0  0  0  0  0
    2.3760   18.4250    0.2280 C   0  0  2  0  0  0  0  0  0  0  0  0
    3.8280   17.9790   -0.0390 C   0  0  0  0  0  0  0  0  0  0  0  0
    4.7800   18.2520    1.1290 C   0  0  0  0  0  0  0  0  0  0  0  0
    4.1070   19.0230    2.2240 C   0  0  2  0  0  0  0  0  0  0  0  0
    4.8200   20.1880    2.6610 O   0  0  0  0  0  0  0  0  0  0  0  0
    4.6650   19.1390    3.6300 C   0  0  0  0  0  0  0  0  0  0  0  0
    5.9480   18.4740    4.0180 C   0  0  0  0  0  0  0  0  0  0  0  0
    3.7270   19.4820    4.7460 C   0  0  0  0  0  0  0  0  0  0  0  0
    1.4190   17.2710   -0.0460 C   0  0  1  0  0  0  0  0  0  0  0  0
    0.1390   17.7220   -0.8000 C   0  0  0  0  0  0  0  0  0  0  0  0
   -0.2550   16.5600   -1.7470 C   0  0  0  0  0  0  0  0  0  0  0  0
    0.6020   15.3620   -1.2730 C   0  0  1  0  0  0  0  0  0  0  0  0
   -0.1630   14.7850   -0.0410 C   0  0  0  0  0  0  0  0  0  0  0  0
    0.8950   14.2570   -2.3390 C   0  0  2  0  0  0  0  0  0  0  0  0
   -0.3460   13.5270   -2.8810 C   0  0  0  0  0  0  0  0  0  0  0  0
   -0.7420   12.3000   -2.1290 C   0  0  0  0  0  0  0  0  0  0  0  0
    0.0280   11.6430   -1.2420 C   0  0  0  0  0  0  0  0  0  0  0  0
    1.4790   12.0720   -0.9900 C   0  0  1  0  0  0  0  0  0  0  0  0
    2.3970   10.8210   -0.9960 C   0  0  0  0  0  0  0  0  0  0  0  0
    1.9270    9.7460   -0.0200 C   0  0  0  0  0  0  0  0  0  0  0  0
    0.5010    9.3050   -0.3390 C   0  0  2  0  0  0  0  0  0  0  0  0
    0.4980    8.6340   -1.6020 O   0  0  0  0  0  0  0  0  0  0  0  0
   -0.5120   10.4830   -0.3700 C   0  0  0  0  0  0  0  0  0  0  0  0
   -0.7340   11.0170    1.0670 C   0  0  0  0  0  0  0  0  0  0  0  0
   -1.8810    9.9220   -0.8410 C   0  0  0  0  0  0  0  0  0  0  0  0
    2.0300   13.2370   -1.9200 C   0  0  1  0  0  0  0  0  0  0  0  0
    2.6010   12.6380   -3.2410 C   0  0  0  0  0  0  0  0  0  0  0  0
    3.2350   13.9460   -1.1960 C   0  0  0  0  0  0  0  0  0  0  0  0
    2.8890   15.1080   -0.2460 C   0  0  0  0  0  0  0  0  0  0  0  0
    1.9420   16.1050   -0.9220 C   0  0  2  0  0  0  0  0  0  0  0  0
    2.6930   16.7190   -2.1530 C   0  0  0  0  0  0  0  0  0  0  0  0
    1.7118   20.4750    0.0504 H   0  0  0  0  0  0  0  0  0  0  0  0
    2.8300   19.9378   -1.2487 H   0  0  0  0  0  0  0  0  0  0  0  0
    1.1211   19.3841   -1.2487 H   0  0  0  0  0  0  0  0  0  0  0  0
    2.3103   18.7201    1.2856 H   0  0  0  0  0  0  0  0  0  0  0  0
    3.8276   16.8978   -0.2414 H   0  0  0  0  0  0  0  0  0  0  0  0
    4.1925   18.5659   -0.8950 H   0  0  0  0  0  0  0  0  0  0  0  0
    5.1323   17.2917    1.5337 H   0  0  0  0  0  0  0  0  0  0  0  0
    5.6207   18.8534    0.7528 H   0  0  0  0  0  0  0  0  0  0  0  0
    3.1138   18.7400    1.8454 H   0  0  0  0  0  0  0  0  0  0  0  0
    6.0236   18.4348    5.1147 H   0  0  0  0  0  0  0  0  0  0  0  0
    5.9685   17.4518    3.6123 H   0  0  0  0  0  0  0  0  0  0  0  0
    6.7951   19.0466    3.6123 H   0  0  0  0  0  0  0  0  0  0  0  0
    4.2232   19.3006    5.7108 H   0  0  0  0  0  0  0  0  0  0  0  0
    3.4429   20.5422    4.6734 H   0  0  0  0  0  0  0  0  0  0  0  0
    2.8260   18.8552    4.6734 H   0  0  0  0  0  0  0  0  0  0  0  0
    1.2523   16.9222    0.9838 H   0  0  0  0  0  0  0  0  0  0  0  0
   -0.6726   17.9191   -0.0842 H   0  0  0  0  0  0  0  0  0  0  0  0
    0.3193   18.6483   -1.3652 H   0  0  0  0  0  0  0  0  0  0  0  0
   -1.3270   16.3309   -1.6554 H   0  0  0  0  0  0  0  0  0  0  0  0
   -0.0791   16.8060   -2.8046 H   0  0  0  0  0  0  0  0  0  0  0  0
    0.3109   15.1424    0.8851 H   0  0  0  0  0  0  0  0  0  0  0  0
   -1.2103   15.1200   -0.0699 H   0  0  0  0  0  0  0  0  0  0  0  0
   -0.1287   13.6859   -0.0699 H   0  0  0  0  0  0  0  0  0  0  0  0
    1.2882   14.8423   -3.1833 H   0  0  0  0  0  0  0  0  0  0  0  0
   -1.1921   14.2295   -2.8552 H   0  0  0  0  0  0  0  0  0  0  0  0
   -0.0834   13.1914   -3.8951 H   0  0  0  0  0  0  0  0  0  0  0  0
   -1.7490   11.8985   -2.3157 H   0  0  0  0  0  0  0  0  0  0  0  0
    1.4891   12.5385    0.0061 H   0  0  0  0  0  0  0  0  0  0  0  0
    2.4074   10.3960   -2.0105 H   0  0  0  0  0  0  0  0  0  0  0  0
    3.4010   11.1419   -0.6814 H   0  0  0  0  0  0  0  0  0  0  0  0
    2.5972    8.8767   -0.0919 H   0  0  0  0  0  0  0  0  0  0  0  0
    1.9460   10.1633    0.9976 H   0  0  0  0  0  0  0  0  0  0  0  0
    0.1749    8.6328    0.4684 H   0  0  0  0  0  0  0  0  0  0  0  0
   -0.3230    8.1170   -1.6590 H   0  0  0  0  0  0  0  0  0  0  0  0
   -0.4172   10.2550    1.7943 H   0  0  0  0  0  0  0  0  0  0  0  0
   -0.1419   11.9324    1.2136 H   0  0  0  0  0  0  0  0  0  0  0  0
   -1.8005   11.2428    1.2136 H   0  0  0  0  0  0  0  0  0  0  0  0
   -2.4954    9.6702    0.0360 H   0  0  0  0  0  0  0  0  0  0  0  0
   -2.3993   10.6802   -1.4463 H   0  0  0  0  0  0  0  0  0  0  0  0
   -1.7182    9.0181   -1.4463 H   0  0  0  0  0  0  0  0  0  0  0  0
    3.3417   11.8610   -3.0011 H   0  0  0  0  0  0  0  0  0  0  0  0
    1.7820   12.1955   -3.8270 H   0  0  0  0  0  0  0  0  0  0  0  0
    3.0822   13.4349   -3.8270 H   0  0  0  0  0  0  0  0  0  0  0  0
    3.7656   13.1825   -0.6082 H   0  0  0  0  0  0  0  0  0  0  0  0
    3.8276   14.4013   -2.0031 H   0  0  0  0  0  0  0  0  0  0  0  0
    2.4034   14.7042    0.6546 H   0  0  0  0  0  0  0  0  0  0  0  0
    3.8186   15.6322    0.0204 H   0  0  0  0  0  0  0  0  0  0  0  0
    3.4993   17.3782   -1.7991 H   0  0  0  0  0  0  0  0  0  0  0  0
    3.1219   15.9095   -2.7619 H   0  0  0  0  0  0  0  0  0  0  0  0
    1.9849   17.3002   -2.7619 H   0  0  0  0  0  0  0  0  0  0  0  0
  1  2  1  0
  2  3  1  0
  3  4  1  0
  4  5  1  0
  5  6  1  0
  6  7  1  0
  7  8  1  0
  7  9  1  0
  2 10  1  0
 10 11  1  0
 11 12  1  0
 12 13  1  0
 13 14  1  1
 13 15  1  0
 15 16  1  0
 16 17  1  0
 17 18  2  0
 18 19  1  0
 19 20  1  0
 20 21  1  0
 21 22  1  0
 22 23  1  0
 22 24  1  0
 24 25  1  0
 24 26  1  0
 19 27  1  0
 27 28  1  6
 27 29  1  0
 29 30  1  0
 30 31  1  0
 31 32  1  6
  7  5  1  0
 31 10  1  0
 31 13  1  0
 27 15  1  0
 24 18  1  0
  1 33  1  0
  1 34  1  0
  1 35  1  0
  2 36  1  1
  3 37  1  0
  3 38  1  0
  4 39  1  0
  4 40  1  0
  5 41  1  1
  8 42  1  0
  8 43  1  0
  8 44  1  0
  9 45  1  0
  9 46  1  0
  9 47  1  0
 10 48  1  1
 11 49  1  0
 11 50  1  0
 12 51  1  0
 12 52  1  0
 14 53  1  0
 14 54  1  0
 14 55  1  0
 15 56  1  6
 16 57  1  0
 16 58  1  0
 17 59  1  0
 19 60  1  1
 20 61  1  0
 20 62  1  0
 21 63  1  0
 21 64  1  0
 22 65  1  1
 23 66  1  0
 25 67  1  0
 25 68  1  0
 25 69  1  0
 26 70  1  0
 26 71  1  0
 26 72  1  0
 28 73  1  0
 28 74  1  0
 28 75  1  0
 29 76  1  0
 29 77  1  0
 30 78  1  0
 30 79  1  0
 32 80  1  0
 32 81  1  0
 32 82  1  0
M  END
>  <meeko>  (3) 
{"is_sidechain": [false], "intermolecular_energy": 2.731, "internal_energy": -0.839}

$$$$
EPH_relaxed_0001_pdb2pqr_Repair_61_r2_0001_out
     RDKit          3D

 82 86  0  0  0  0  0  0  0  0999 V2000
    0.3890   18.4430   -0.1240 C   0  0  0  0  0  0  0  0  0  0  0  0
    1.4710   17.3720   -0.2910 C   0  0  2  0  0  0  0  0  0  0  0  0
    2.7100   17.9100   -1.0340 C   0  0  0  0  0  0  0  0  0  0  0  0
    3.9390   18.0820   -0.1370 C   0  0  0  0  0  0  0  0  0  0  0  0
    3.5630   18.5590    1.2330 C   0  0  2  0  0  0  0  0  0  0  0  0
    3.7730   19.9590    1.4580 O   0  0  0  0  0  0  0  0  0  0  0  0
    4.5710   19.0640    2.2490 C   0  0  0  0  0  0  0  0  0  0  0  0
    6.0330   19.1160    1.9370 C   0  0  0  0  0  0  0  0  0  0  0  0
    4.1970   19.0440    3.6980 C   0  0  0  0  0  0  0  0  0  0  0  0
    0.9010   16.1680   -1.0320 C   0  0  1  0  0  0  0  0  0  0  0  0
    0.7860   16.4070   -2.5610 C   0  0  0  0  0  0  0  0  0  0  0  0
    1.0780   15.0490   -3.2490 C   0  0  0  0  0  0  0  0  0  0  0  0
    1.0230   14.0120   -2.1040 C   0  0  1  0  0  0  0  0  0  0  0  0
   -0.4960   13.7220   -1.8970 C   0  0  0  0  0  0  0  0  0  0  0  0
    1.8370   12.6950   -2.3250 C   0  0  2  0  0  0  0  0  0  0  0  0
    1.3760   11.8350   -3.5150 C   0  0  0  0  0  0  0  0  0  0  0  0
    0.3390   10.8090   -3.1960 C   0  0  0  0  0  0  0  0  0  0  0  0
    0.0050   10.3920   -1.9610 C   0  0  0  0  0  0  0  0  0  0  0  0
    0.7660   10.8940   -0.7270 C   0  0  1  0  0  0  0  0  0  0  0  0
    1.1110    9.6940    0.1920 C   0  0  0  0  0  0  0  0  0  0  0  0
   -0.1170    8.8670    0.5610 C   0  0  0  0  0  0  0  0  0  0  0  0
   -0.8130    8.3370   -0.6890 C   0  0  2  0  0  0  0  0  0  0  0  0
    0.0480    7.3900   -1.3300 O   0  0  0  0  0  0  0  0  0  0  0  0
   -1.2000    9.4560   -1.6960 C   0  0  0  0  0  0  0  0  0  0  0  0
   -2.3560   10.3050   -1.1110 C   0  0  0  0  0  0  0  0  0  0  0  0
   -1.7650    8.7760   -2.9730 C   0  0  0  0  0  0  0  0  0  0  0  0
    2.0240   11.8210   -1.0190 C   0  0  1  0  0  0  0  0  0  0  0  0
    3.2910   10.9420   -1.2490 C   0  0  0  0  0  0  0  0  0  0  0  0
    2.3190   12.7020    0.2530 C   0  0  0  0  0  0  0  0  0  0  0  0
    1.5740   14.0470    0.3550 C   0  0  0  0  0  0  0  0  0  0  0  0
    1.6950   14.8410   -0.9490 C   0  0  2  0  0  0  0  0  0  0  0  0
    3.2120   15.1660   -1.1720 C   0  0  0  0  0  0  0  0  0  0  0  0
    0.2103   18.6199    0.9469 H   0  0  0  0  0  0  0  0  0  0  0  0
    0.7216   19.3775   -0.5995 H   0  0  0  0  0  0  0  0  0  0  0  0
   -0.5421   18.1009   -0.5995 H   0  0  0  0  0  0  0  0  0  0  0  0
    1.7952   17.0692    0.7156 H   0  0  0  0  0  0  0  0  0  0  0  0
    2.9642   17.2062   -1.8402 H   0  0  0  0  0  0  0  0  0  0  0  0
    2.4480   18.9080   -1.4153 H   0  0  0  0  0  0  0  0  0  0  0  0
    4.4540   17.1141   -0.0486 H   0  0  0  0  0  0  0  0  0  0  0  0
    4.5948   18.8371   -0.5950 H   0  0  0  0  0  0  0  0  0  0  0  0
    2.7604   17.8097    1.2994 H   0  0  0  0  0  0  0  0  0  0  0  0
    6.6076   19.1364    2.8748 H   0  0  0  0  0  0  0  0  0  0  0  0
    6.3152   18.2273    1.3534 H   0  0  0  0  0  0  0  0  0  0  0  0
    6.2514   20.0225    1.3534 H   0  0  0  0  0  0  0  0  0  0  0  0
    5.1080   19.0927    4.3125 H   0  0  0  0  0  0  0  0  0  0  0  0
    3.5561   19.9092    3.9232 H   0  0  0  0  0  0  0  0  0  0  0  0
    3.6520   18.1154    3.9232 H   0  0  0  0  0  0  0  0  0  0  0  0
   -0.0593   16.0652   -0.5054 H   0  0  0  0  0  0  0  0  0  0  0  0
   -0.2275   16.7504   -2.8156 H   0  0  0  0  0  0  0  0  0  0  0  0
    1.4948   17.1792   -2.8945 H   0  0  0  0  0  0  0  0  0  0  0  0
    0.3156   14.8276   -4.0104 H   0  0  0  0  0  0  0  0  0  0  0  0
    2.0471   15.0449   -3.7694 H   0  0  0  0  0  0  0  0  0  0  0  0
   -0.7178   13.6797   -0.8204 H   0  0  0  0  0  0  0  0  0  0  0  0
   -1.0890   14.5232   -2.3623 H   0  0  0  0  0  0  0  0  0  0  0  0
   -0.7521   12.7587   -2.3623 H   0  0  0  0  0  0  0  0  0  0  0  0
    2.8318   13.0763   -2.5989 H   0  0  0  0  0  0  0  0  0  0  0  0
    0.9640   12.5080   -4.2814 H   0  0  0  0  0  0  0  0  0  0  0  0
    2.2632   11.2774   -3.8496 H   0  0  0  0  0  0  0  0  0  0  0  0
   -0.1975   10.3556   -4.0425 H   0  0  0  0  0  0  0  0  0  0  0  0
    0.0816   11.5787   -0.2047 H   0  0  0  0  0  0  0  0  0  0  0  0
    1.8291    9.0449   -0.3304 H   0  0  0  0  0  0  0  0  0  0  0  0
    1.5335   10.0980    1.1238 H   0  0  0  0  0  0  0  0  0  0  0  0
    0.1955    8.0178    1.1865 H   0  0  0  0  0  0  0  0  0  0  0  0
   -0.8214    9.5098    1.1093 H   0  0  0  0  0  0  0  0  0  0  0  0
   -1.7533    7.8652   -0.3676 H   0  0  0  0  0  0  0  0  0  0  0  0
   -0.4540    6.9790   -2.0540 H   0  0  0  0  0  0  0  0  0  0  0  0
   -2.3140   10.2741   -0.0122 H   0  0  0  0  0  0  0  0  0  0  0  0
   -2.2558   11.3458   -1.4527 H   0  0  0  0  0  0  0  0  0  0  0  0
   -3.3191    9.8980   -1.4527 H   0  0  0  0  0  0  0  0  0  0  0  0
   -2.4433    7.9596   -2.6841 H   0  0  0  0  0  0  0  0  0  0  0  0
   -2.3167    9.5174   -3.5696 H   0  0  0  0  0  0  0  0  0  0  0  0
   -0.9351    8.3694   -3.5696 H   0  0  0  0  0  0  0  0  0  0  0  0
    3.7147   10.6481   -0.2773 H   0  0  0  0  0  0  0  0  0  0  0  0
    3.0142   10.0409   -1.8160 H   0  0  0  0  0  0  0  0  0  0  0  0
    4.0381   11.5168   -1.8160 H   0  0  0  0  0  0  0  0  0  0  0  0
    2.0535   12.1066    1.1390 H   0  0  0  0  0  0  0  0  0  0  0  0
    3.3838   12.9679    0.1782 H   0  0  0  0  0  0  0  0  0  0  0  0
    0.5109   13.8547    0.5619 H   0  0  0  0  0  0  0  0  0  0  0  0
    2.0239   14.6364    1.1675 H   0  0  0  0  0  0  0  0  0  0  0  0
    3.7112   15.2729   -0.1976 H   0  0  0  0  0  0  0  0  0  0  0  0
    3.6829   14.3484   -1.7374 H   0  0  0  0  0  0  0  0  0  0  0  0
    3.3066   16.1048   -1.7374 H   0  0  0  0  0  0  0  0  0  0  0  0
  1  2  1  0
  2  3  1  0
  3  4  1  0
  4  5  1  0
  5  6  1  0
  6  7  1  0
  7  8  1  0
  7  9  1  0
  2 10  1  0
 10 11  1  0
 11 12  1  0
 12 13  1  0
 13 14  1  1
 13 15  1  0
 15 16  1  0
 16 17  1  0
 17 18  2  0
 18 19  1  0
 19 20  1  0
 20 21  1  0
 21 22  1  0
 22 23  1  0
 22 24  1  0
 24 25  1  0
 24 26  1  0
 19 27  1  0
 27 28  1  6
 27 29  1  0
 29 30  1  0
 30 31  1  0
 31 32  1  6
  7  5  1  0
 31 10  1  0
 31 13  1  0
 27 15  1  0
 24 18  1  0
  1 33  1  0
  1 34  1  0
  1 35  1  0
  2 36  1  1
  3 37  1  0
  3 38  1  0
  4 39  1  0
  4 40  1  0
  5 41  1  1
  8 42  1  0
  8 43  1  0
  8 44  1  0
  9 45  1  0
  9 46  1  0
  9 47  1  0
 10 48  1  1
 11 49  1  0
 11 50  1  0
 12 51  1  0
 12 52  1  0
 14 53  1  0
 14 54  1  0
 14 55  1  0
 15 56  1  6
 16 57  1  0
 16 58  1  0
 17 59  1  0
 19 60  1  1
 20 61  1  0
 20 62  1  0
 21 63  1  0
 21 64  1  0
 22 65  1  1
 23 66  1  0
 25 67  1  0
 25 68  1  0
 25 69  1  0
 26 70  1  0
 26 71  1  0
 26 72  1  0
 28 73  1  0
 28 74  1  0
 28 75  1  0
 29 76  1  0
 29 77  1  0
 30 78  1  0
 30 79  1  0
 32 80  1  0
 32 81  1  0
 32 82  1  0
M  END
>  <meeko>  (4) 
{"is_sidechain": [false], "intermolecular_energy": 2.731, "internal_energy": -0.839}

$$$$
EPH_relaxed_0001_pdb2pqr_Repair_61_r2_0001_out
     RDKit          3D

 82 86  0  0  0  0  0  0  0  0999 V2000
   -4.5600    6.1240   -2.5970 C   0  0  0  0  0  0  0  0  0  0  0  0
   -5.1280    7.4870   -2.1920 C   0  0  2  0  0  0  0  0  0  0  0  0
   -4.9480    7.7670   -0.6860 C   0  0  0  0  0  0  0  0  0  0  0  0
   -3.9540    8.8920   -0.3840 C   0  0  0  0  0  0  0  0  0  0  0  0
   -2.5700    8.5470   -0.8430 C   0  0  2  0  0  0  0  0  0  0  0  0
   -1.5280    8.9100    0.0720 O   0  0  0  0  0  0  0  0  0  0  0  0
   -1.5220    9.5860   -1.1960 C   0  0  0  0  0  0  0  0  0  0  0  0
   -1.8150   11.0510   -1.1060 C   0  0  0  0  0  0  0  0  0  0  0  0
   -0.3890    9.1850   -2.0870 C   0  0  0  0  0  0  0  0  0  0  0  0
   -6.6040    7.5670   -2.5640 C   0  0  1  0  0  0  0  0  0  0  0  0
   -6.9360    6.7820   -3.8610 C   0  0  0  0  0  0  0  0  0  0  0  0
   -8.3560    6.1880   -3.6730 C   0  0  0  0  0  0  0  0  0  0  0  0
   -8.9220    6.9160   -2.4310 C   0  0  1  0  0  0  0  0  0  0  0  0
   -9.4320    8.2890   -2.9690 C   0  0  0  0  0  0  0  0  0  0  0  0
  -10.0350    6.1590   -1.6340 C   0  0  2  0  0  0  0  0  0  0  0  0
  -11.3280    5.8840   -2.4210 C   0  0  0  0  0  0  0  0  0  0  0  0
  -12.3730    6.9450   -2.3230 C   0  0  0  0  0  0  0  0  0  0  0  0
  -12.3980    7.9360   -1.4120 C   0  0  0  0  0  0  0  0  0  0  0  0
  -11.3540    8.0010   -0.2900 C   0  0  1  0  0  0  0  0  0  0  0  0
  -12.0640    8.2760    1.0620 C   0  0  0  0  0  0  0  0  0  0  0  0
  -12.9490    9.5180    1.0160 C   0  0  0  0  0  0  0  0  0  0  0  0
  -14.0110    9.3910   -0.0740 C   0  0  2  0  0  0  0  0  0  0  0  0
  -14.9190    8.3460    0.2860 O   0  0  0  0  0  0  0  0  0  0  0  0
  -13.4140    9.1030   -1.4800 C   0  0  0  0  0  0  0  0  0  0  0  0
  -12.6750   10.3610   -2.0000 C   0  0  0  0  0  0  0  0  0  0  0  0
  -14.5940    8.8570   -2.4590 C   0  0  0  0  0  0  0  0  0  0  0  0
  -10.3450    6.7760   -0.2100 C   0  0  1  0  0  0  0  0  0  0  0  0
  -10.9650    5.6290    0.6450 C   0  0  0  0  0  0  0  0  0  0  0  0
   -9.0390    7.2340    0.5410 C   0  0  0  0  0  0  0  0  0  0  0  0
   -7.9280    7.8650   -0.3200 C   0  0  0  0  0  0  0  0  0  0  0  0
   -7.6250    6.9990   -1.5460 C   0  0  2  0  0  0  0  0  0  0  0  0
   -7.0890    5.6180   -1.0360 C   0  0  0  0  0  0  0  0  0  0  0  0
   -4.3185    5.5444   -1.6938 H   0  0  0  0  0  0  0  0  0  0  0  0
   -5.3058    5.5787   -3.1941 H   0  0  0  0  0  0  0  0  0  0  0  0
   -3.6477    6.2697   -3.1941 H   0  0  0  0  0  0  0  0  0  0  0  0
   -4.5645    8.2562   -2.7405 H   0  0  0  0  0  0  0  0  0  0  0  0
   -5.9255    8.0449   -0.2651 H   0  0  0  0  0  0  0  0  0  0  0  0
   -4.5424    6.8496   -0.2345 H   0  0  0  0  0  0  0  0  0  0  0  0
   -4.2830    9.8063   -0.8996 H   0  0  0  0  0  0  0  0  0  0  0  0
   -3.9265    9.0419    0.7054 H   0  0  0  0  0  0  0  0  0  0  0  0
   -2.9435    7.6635   -1.3815 H   0  0  0  0  0  0  0  0  0  0  0  0
   -1.8745   11.3487   -0.0487 H   0  0  0  0  0  0  0  0  0  0  0  0
   -1.0122   11.6166   -1.6016 H   0  0  0  0  0  0  0  0  0  0  0  0
   -2.7736   11.2643   -1.6016 H   0  0  0  0  0  0  0  0  0  0  0  0
    0.4709    8.8807   -1.4722 H   0  0  0  0  0  0  0  0  0  0  0  0
   -0.7021    8.3431   -2.7219 H   0  0  0  0  0  0  0  0  0  0  0  0
   -0.1028   10.0364   -2.7219 H   0  0  0  0  0  0  0  0  0  0  0  0
   -6.7168    8.6585   -2.6410 H   0  0  0  0  0  0  0  0  0  0  0  0
   -6.9202    7.4588   -4.7280 H   0  0  0  0  0  0  0  0  0  0  0  0
   -6.1965    5.9881   -4.0425 H   0  0  0  0  0  0  0  0  0  0  0  0
   -8.9799    6.3859   -4.5570 H   0  0  0  0  0  0  0  0  0  0  0  0
   -8.3376    5.0957   -3.5441 H   0  0  0  0  0  0  0  0  0  0  0  0
   -9.6764    8.9468   -2.1219 H   0  0  0  0  0  0  0  0  0  0  0  0
   -8.6477    8.7568   -3.5822 H   0  0  0  0  0  0  0  0  0  0  0  0
  -10.3315    8.1313   -3.5822 H   0  0  0  0  0  0  0  0  0  0  0  0
   -9.5750    5.1747   -1.4623 H   0  0  0  0  0  0  0  0  0  0  0  0
  -11.0616    5.7666   -3.4818 H   0  0  0  0  0  0  0  0  0  0  0  0
  -11.7692    4.9808   -1.9744 H   0  0  0  0  0  0  0  0  0  0  0  0
  -13.1918    6.9148   -3.0569 H   0  0  0  0  0  0  0  0  0  0  0  0
  -10.6895    8.8409   -0.5412 H   0  0  0  0  0  0  0  0  0  0  0  0
  -12.6889    7.4069    1.3153 H   0  0  0  0  0  0  0  0  0  0  0  0
  -11.2850    8.4489    1.8191 H   0  0  0  0  0  0  0  0  0  0  0  0
  -13.4455    9.6426    1.9896 H   0  0  0  0  0  0  0  0  0  0  0  0
  -12.3181   10.3907    0.7917 H   0  0  0  0  0  0  0  0  0  0  0  0
  -14.5281   10.3593   -0.1448 H   0  0  0  0  0  0  0  0  0  0  0  0
  -14.9580    8.3120    1.2570 H   0  0  0  0  0  0  0  0  0  0  0  0
  -12.3237   10.9590   -1.1462 H   0  0  0  0  0  0  0  0  0  0  0  0
  -11.8138   10.0538   -2.6115 H   0  0  0  0  0  0  0  0  0  0  0  0
  -13.3626   10.9636   -2.6115 H   0  0  0  0  0  0  0  0  0  0  0  0
  -15.5127    8.6655   -1.8851 H   0  0  0  0  0  0  0  0  0  0  0  0
  -14.7359    9.7449   -3.0927 H   0  0  0  0  0  0  0  0  0  0  0  0
  -14.3693    7.9864   -3.0927 H   0  0  0  0  0  0  0  0  0  0  0  0
  -10.8404    5.8596    1.7133 H   0  0  0  0  0  0  0  0  0  0  0  0
  -12.0361    5.5362    0.4124 H   0  0  0  0  0  0  0  0  0  0  0  0
  -10.4559    4.6820    0.4124 H   0  0  0  0  0  0  0  0  0  0  0  0
   -9.3334    7.9744    1.2993 H   0  0  0  0  0  0  0  0  0  0  0  0
   -8.6002    6.3099    0.9453 H   0  0  0  0  0  0  0  0  0  0  0  0
   -8.2542    8.8608   -0.6547 H   0  0  0  0  0  0  0  0  0  0  0  0
   -7.0148    7.9428    0.2883 H   0  0  0  0  0  0  0  0  0  0  0  0
   -7.0857    5.6095    0.0640 H   0  0  0  0  0  0  0  0  0  0  0  0
   -7.7398    4.8125   -1.4069 H   0  0  0  0  0  0  0  0  0  0  0  0
   -6.0652    5.4624   -1.4069 H   0  0  0  0  0  0  0  0  0  0  0  0
  1  2  1  0
  2  3  1  0
  3  4  1  0
  4  5  1  0
  5  6  1  0
  6  7  1  0
  7  8  1  0
  7  9  1  0
  2 10  1  0
 10 11  1  0
 11 12  1  0
 12 13  1  0
 13 14  1  6
 13 15  1  0
 15 16  1  0
 16 17  1  0
 17 18  2  0
 18 19  1  0
 19 20  1  0
 20 21  1  0
 21 22  1  0
 22 23  1  0
 22 24  1  0
 24 25  1  0
 24 26  1  0
 19 27  1  0
 27 28  1  1
 27 29  1  0
 29 30  1  0
 30 31  1  0
 31 32  1  1
  7  5  1  0
 31 10  1  0
 31 13  1  0
 27 15  1  0
 24 18  1  0
  1 33  1  0
  1 34  1  0
  1 35  1  0
  2 36  1  6
  3 37  1  0
  3 38  1  0
  4 39  1  0
  4 40  1  0
  5 41  1  6
  8 42  1  0
  8 43  1  0
  8 44  1  0
  9 45  1  0
  9 46  1  0
  9 47  1  0
 10 48  1  6
 11 49  1  0
 11 50  1  0
 12 51  1  0
 12 52  1  0
 14 53  1  0
 14 54  1  0
 14 55  1  0
 15 56  1  1
 16 57  1  0
 16 58  1  0
 17 59  1  0
 19 60  1  6
 20 61  1  0
 20 62  1  0
 21 63  1  0
 21 64  1  0
 22 65  1  6
 23 66  1  0
 25 67  1  0
 25 68  1  0
 25 69  1  0
 26 70  1  0
 26 71  1  0
 26 72  1  0
 28 73  1  0
 28 74  1  0
 28 75  1  0
 29 76  1  0
 29 77  1  0
 30 78  1  0
 30 79  1  0
 32 80  1  0
 32 81  1  0
 32 82  1  0
M  END
>  <meeko>  (5) 
{"is_sidechain": [false], "intermolecular_energy": 2.731, "internal_energy": -0.839}

$$$$
EPH_relaxed_0001_pdb2pqr_Repair_61_r2_0001_out
     RDKit          3D

 82 86  0  0  0  0  0  0  0  0999 V2000
    3.7620   17.7800    0.8460 C   0  0  0  0  0  0  0  0  0  0  0  0
    2.7420   18.2250   -0.2060 C   0  0  2  0  0  0  0  0  0  0  0  0
    2.0270   19.5310    0.1950 C   0  0  0  0  0  0  0  0  0  0  0  0
    0.7810   19.3100    1.0570 C   0  0  0  0  0  0  0  0  0  0  0  0
   -0.4210   19.9930    0.4780 C   0  0  2  0  0  0  0  0  0  0  0  0
   -1.4990   20.1940    1.4030 O   0  0  0  0  0  0  0  0  0  0  0  0
   -1.7650   19.3120    0.3000 C   0  0  0  0  0  0  0  0  0  0  0  0
   -1.9760   17.8850    0.6990 C   0  0  0  0  0  0  0  0  0  0  0  0
   -2.7250   19.8730   -0.7020 C   0  0  0  0  0  0  0  0  0  0  0  0
    1.7180   17.1200   -0.4380 C   0  0  1  0  0  0  0  0  0  0  0  0
    0.5090   17.5950   -1.2860 C   0  0  0  0  0  0  0  0  0  0  0  0
    0.0750   16.3900   -2.1600 C   0  0  0  0  0  0  0  0  0  0  0  0
    0.8230   15.1790   -1.5540 C   0  0  1  0  0  0  0  0  0  0  0  0
   -0.0350   14.7550   -0.3200 C   0  0  0  0  0  0  0  0  0  0  0  0
    1.0840   13.9760   -2.5170 C   0  0  2  0  0  0  0  0  0  0  0  0
   -0.1810   13.2900   -3.0620 C   0  0  0  0  0  0  0  0  0  0  0  0
   -0.6960   12.1560   -2.2390 C   0  0  0  0  0  0  0  0  0  0  0  0
   -0.0150   11.5220   -1.2670 C   0  0  0  0  0  0  0  0  0  0  0  0
    1.4510   11.8700   -0.9770 C   0  0  1  0  0  0  0  0  0  0  0  0
    2.2770   10.5640   -0.8420 C   0  0  0  0  0  0  0  0  0  0  0  0
    1.6900    9.6040    0.1890 C   0  0  0  0  0  0  0  0  0  0  0  0
    0.2520    9.2360   -0.1650 C   0  0  2  0  0  0  0  0  0  0  0  0
    0.2560    8.4680   -1.3720 O   0  0  0  0  0  0  0  0  0  0  0  0
   -0.6730   10.4740   -0.3360 C   0  0  0  0  0  0  0  0  0  0  0  0
   -0.9200   11.1340    1.0430 C   0  0  0  0  0  0  0  0  0  0  0  0
   -2.0570    9.9710   -0.8300 C   0  0  0  0  0  0  0  0  0  0  0  0
    2.1230   12.9180   -1.9650 C   0  0  1  0  0  0  0  0  0  0  0  0
    2.7080   12.1780   -3.2070 C   0  0  0  0  0  0  0  0  0  0  0  0
    3.3430   13.5990   -1.2390 C   0  0  0  0  0  0  0  0  0  0  0  0
    3.0390   14.8550   -0.3990 C   0  0  0  0  0  0  0  0  0  0  0  0
    2.1960   15.8560   -1.1950 C   0  0  2  0  0  0  0  0  0  0  0  0
    3.0410   16.3180   -2.4300 C   0  0  0  0  0  0  0  0  0  0  0  0
    3.3532   17.9583    1.8515 H   0  0  0  0  0  0  0  0  0  0  0  0
    3.9736   16.7078    0.7211 H   0  0  0  0  0  0  0  0  0  0  0  0
    4.6919   18.3542    0.7211 H   0  0  0  0  0  0  0  0  0  0  0  0
    3.2923   18.4226   -1.1377 H   0  0  0  0  0  0  0  0  0  0  0  0
    2.7346   20.1549    0.7607 H   0  0  0  0  0  0  0  0  0  0  0  0
    1.6932   20.0138   -0.7353 H   0  0  0  0  0  0  0  0  0  0  0  0
    0.5803   18.2305    1.1235 H   0  0  0  0  0  0  0  0  0  0  0  0
    0.9722   19.7371    2.0525 H   0  0  0  0  0  0  0  0  0  0  0  0
    0.2105   20.5709   -0.2128 H   0  0  0  0  0  0  0  0  0  0  0  0
   -1.9873   17.8089    1.7963 H   0  0  0  0  0  0  0  0  0  0  0  0
   -2.9364   17.5300    0.2970 H   0  0  0  0  0  0  0  0  0  0  0  0
   -1.1594   17.2673    0.2970 H   0  0  0  0  0  0  0  0  0  0  0  0
   -3.5596   20.3607   -0.1770 H   0  0  0  0  0  0  0  0  0  0  0  0
   -2.2073   20.6107   -1.3327 H   0  0  0  0  0  0  0  0  0  0  0  0
   -3.1136   19.0598   -1.3327 H   0  0  0  0  0  0  0  0  0  0  0  0
    1.4805   16.8658    0.6055 H   0  0  0  0  0  0  0  0  0  0  0  0
   -0.3172   17.9031   -0.6284 H   0  0  0  0  0  0  0  0  0  0  0  0
    0.7797   18.4590   -1.9107 H   0  0  0  0  0  0  0  0  0  0  0  0
   -1.0135   16.2417   -2.1040 H   0  0  0  0  0  0  0  0  0  0  0  0
    0.3140   16.5384   -3.2234 H   0  0  0  0  0  0  0  0  0  0  0  0
    0.4982   15.0185    0.6053 H   0  0  0  0  0  0  0  0  0  0  0  0
   -1.0017   15.2791   -0.3480 H   0  0  0  0  0  0  0  0  0  0  0  0
   -0.2059   13.6687   -0.3480 H   0  0  0  0  0  0  0  0  0  0  0  0
    1.5551   14.4646   -3.3827 H   0  0  0  0  0  0  0  0  0  0  0  0
   -0.9754   14.0477   -3.1317 H   0  0  0  0  0  0  0  0  0  0  0  0
    0.1016   12.8576   -4.0332 H   0  0  0  0  0  0  0  0  0  0  0  0
   -1.7194   11.8091   -2.4447 H   0  0  0  0  0  0  0  0  0  0  0  0
    1.4511   12.4116   -0.0196 H   0  0  0  0  0  0  0  0  0  0  0  0
    2.3017   10.0598   -1.8193 H   0  0  0  0  0  0  0  0  0  0  0  0
    3.2864   10.8409   -0.5036 H   0  0  0  0  0  0  0  0  0  0  0  0
    2.2995    8.6887    0.2166 H   0  0  0  0  0  0  0  0  0  0  0  0
    1.6941   10.0986    1.1715 H   0  0  0  0  0  0  0  0  0  0  0  0
   -0.1554    8.6537    0.6746 H   0  0  0  0  0  0  0  0  0  0  0  0
   -0.5690    8.6630   -1.8480 H   0  0  0  0  0  0  0  0  0  0  0  0
   -0.6548   10.4254    1.8414 H   0  0  0  0  0  0  0  0  0  0  0  0
   -0.2992   12.0375    1.1335 H   0  0  0  0  0  0  0  0  0  0  0  0
   -1.9815   11.4079    1.1335 H   0  0  0  0  0  0  0  0  0  0  0  0
   -2.6937    9.7396    0.0366 H   0  0  0  0  0  0  0  0  0  0  0  0
   -2.5355   10.7527   -1.4382 H   0  0  0  0  0  0  0  0  0  0  0  0
   -1.9219    9.0645   -1.4382 H   0  0  0  0  0  0  0  0  0  0  0  0
    3.3577   11.3561   -2.8717 H   0  0  0  0  0  0  0  0  0  0  0  0
    1.8849   11.7710   -3.8126 H   0  0  0  0  0  0  0  0  0  0  0  0
    3.2940   12.8850   -3.8126 H   0  0  0  0  0  0  0  0  0  0  0  0
    3.7912   12.8508   -0.5687 H   0  0  0  0  0  0  0  0  0  0  0  0
    4.0020   13.9466   -2.0483 H   0  0  0  0  0  0  0  0  0  0  0  0
    2.4870   14.5584    0.5050 H   0  0  0  0  0  0  0  0  0  0  0  0
    3.9911   15.3350   -0.1286 H   0  0  0  0  0  0  0  0  0  0  0  0
    3.9564   16.8185   -2.0814 H   0  0  0  0  0  0  0  0  0  0  0  0
    3.3109   15.4420   -3.0380 H   0  0  0  0  0  0  0  0  0  0  0  0
    2.4492   17.0181   -3.0380 H   0  0  0  0  0  0  0  0  0  0  0  0
  1  2  1  0
  2  3  1  0
  3  4  1  0
  4  5  1  0
  5  6  1  0
  6  7  1  0
  7  8  1  0
  7  9  1  0
  2 10  1  0
 10 11  1  0
 11 12  1  0
 12 13  1  0
 13 14  1  1
 13 15  1  0
 15 16  1  0
 16 17  1  0
 17 18  2  0
 18 19  1  0
 19 20  1  0
 20 21  1  0
 21 22  1  0
 22 23  1  0
 22 24  1  0
 24 25  1  0
 24 26  1  0
 19 27  1  0
 27 28  1  6
 27 29  1  0
 29 30  1  0
 30 31  1  0
 31 32  1  6
  7  5  1  0
 31 10  1  0
 31 13  1  0
 27 15  1  0
 24 18  1  0
  1 33  1  0
  1 34  1  0
  1 35  1  0
  2 36  1  6
  3 37  1  0
  3 38  1  0
  4 39  1  0
  4 40  1  0
  5 41  1  6
  8 42  1  0
  8 43  1  0
  8 44  1  0
  9 45  1  0
  9 46  1  0
  9 47  1  0
 10 48  1  1
 11 49  1  0
 11 50  1  0
 12 51  1  0
 12 52  1  0
 14 53  1  0
 14 54  1  0
 14 55  1  0
 15 56  1  6
 16 57  1  0
 16 58  1  0
 17 59  1  0
 19 60  1  1
 20 61  1  0
 20 62  1  0
 21 63  1  0
 21 64  1  0
 22 65  1  1
 23 66  1  0
 25 67  1  0
 25 68  1  0
 25 69  1  0
 26 70  1  0
 26 71  1  0
 26 72  1  0
 28 73  1  0
 28 74  1  0
 28 75  1  0
 29 76  1  0
 29 77  1  0
 30 78  1  0
 30 79  1  0
 32 80  1  0
 32 81  1  0
 32 82  1  0
M  END
>  <meeko>  (6) 
{"is_sidechain": [false], "intermolecular_energy": 2.731, "internal_energy": -0.839}

$$$$
EPH_relaxed_0001_pdb2pqr_Repair_61_r2_0001_out
     RDKit          3D

 82 86  0  0  0  0  0  0  0  0999 V2000
    0.4520    8.8010   -2.3650 C   0  0  0  0  0  0  0  0  0  0  0  0
    1.1880    9.9440   -3.0710 C   0  0  2  0  0  0  0  0  0  0  0  0
    2.6900    9.9690   -2.7240 C   0  0  0  0  0  0  0  0  0  0  0  0
    3.5600   10.6190   -3.8030 C   0  0  0  0  0  0  0  0  0  0  0  0
    4.9610   10.8490   -3.3220 C   0  0  2  0  0  0  0  0  0  0  0  0
    5.5690   12.0550   -3.8030 O   0  0  0  0  0  0  0  0  0  0  0  0
    6.1730   10.8240   -4.2330 C   0  0  0  0  0  0  0  0  0  0  0  0
    6.0410   10.5620   -5.7010 C   0  0  0  0  0  0  0  0  0  0  0  0
    7.5190   10.5700   -3.6280 C   0  0  0  0  0  0  0  0  0  0  0  0
    0.5470   11.2780   -2.7060 C   0  0  1  0  0  0  0  0  0  0  0  0
   -0.8290   11.1080   -2.0070 C   0  0  0  0  0  0  0  0  0  0  0  0
   -0.9450   12.2510   -0.9660 C   0  0  0  0  0  0  0  0  0  0  0  0
    0.2020   13.2250   -1.3260 C   0  0  1  0  0  0  0  0  0  0  0  0
   -0.3520   14.0770   -2.5100 C   0  0  0  0  0  0  0  0  0  0  0  0
    0.7330   14.1260   -0.1640 C   0  0  2  0  0  0  0  0  0  0  0  0
   -0.2990   15.1030    0.4270 C   0  0  0  0  0  0  0  0  0  0  0  0
   -0.3470   16.4480   -0.2180 C   0  0  0  0  0  0  0  0  0  0  0  0
    0.5920   16.9560   -1.0380 C   0  0  0  0  0  0  0  0  0  0  0  0
    1.8950   16.1930   -1.3120 C   0  0  1  0  0  0  0  0  0  0  0  0
    3.0990   17.1630   -1.1880 C   0  0  0  0  0  0  0  0  0  0  0  0
    2.9490   18.3980   -2.0710 C   0  0  0  0  0  0  0  0  0  0  0  0
    1.6720   19.1620   -1.7290 C   0  0  2  0  0  0  0  0  0  0  0  0
    1.7990   19.7060   -0.4110 O   0  0  0  0  0  0  0  0  0  0  0  0
    0.3920   18.2830   -1.8100 C   0  0  0  0  0  0  0  0  0  0  0  0
    0.0880   17.9430   -3.2900 C   0  0  0  0  0  0  0  0  0  0  0  0
   -0.8040   19.1350   -1.3050 C   0  0  0  0  0  0  0  0  0  0  0  0
    2.1020   14.8540   -0.4820 C   0  0  1  0  0  0  0  0  0  0  0  0
    2.7640   15.1770    0.8930 C   0  0  0  0  0  0  0  0  0  0  0  0
    3.1100   13.9220   -1.2520 C   0  0  0  0  0  0  0  0  0  0  0  0
    2.5100   12.9690   -2.3040 C   0  0  0  0  0  0  0  0  0  0  0  0
    1.3210   12.1950   -1.7270 C   0  0  2  0  0  0  0  0  0  0  0  0
    1.8510   11.3110   -0.5470 C   0  0  0  0  0  0  0  0  0  0  0  0
    0.5346    8.9293   -1.2756 H   0  0  0  0  0  0  0  0  0  0  0  0
   -0.6087    8.8127   -2.6562 H   0  0  0  0  0  0  0  0  0  0  0  0
    0.9016    7.8402   -2.6562 H   0  0  0  0  0  0  0  0  0  0  0  0
    1.1023    9.7740   -4.1544 H   0  0  0  0  0  0  0  0  0  0  0  0
    2.8208   10.5308   -1.7874 H   0  0  0  0  0  0  0  0  0  0  0  0
    3.0168    8.9225   -2.6347 H   0  0  0  0  0  0  0  0  0  0  0  0
    3.5890    9.9593   -4.6827 H   0  0  0  0  0  0  0  0  0  0  0  0
    3.1200   11.5949   -4.0562 H   0  0  0  0  0  0  0  0  0  0  0  0
    4.7426   10.3412   -2.3710 H   0  0  0  0  0  0  0  0  0  0  0  0
    5.5511    9.5896   -5.8573 H   0  0  0  0  0  0  0  0  0  0  0  0
    5.4354   11.3561   -6.1622 H   0  0  0  0  0  0  0  0  0  0  0  0
    7.0396   10.5478   -6.1622 H   0  0  0  0  0  0  0  0  0  0  0  0
    7.4368   10.5855   -2.5312 H   0  0  0  0  0  0  0  0  0  0  0  0
    7.8879    9.5864   -3.9542 H   0  0  0  0  0  0  0  0  0  0  0  0
    8.2210   11.3515   -3.9542 H   0  0  0  0  0  0  0  0  0  0  0  0
    0.5067   11.7420   -3.7025 H   0  0  0  0  0  0  0  0  0  0  0  0
   -1.6410   11.1839   -2.7452 H   0  0  0  0  0  0  0  0  0  0  0  0
   -0.9077   10.1232   -1.5233 H   0  0  0  0  0  0  0  0  0  0  0  0
   -1.9205   12.7528   -1.0474 H   0  0  0  0  0  0  0  0  0  0  0  0
   -0.8703   11.8827    0.0678 H   0  0  0  0  0  0  0  0  0  0  0  0
   -0.9112   14.9370   -2.1128 H   0  0  0  0  0  0  0  0  0  0  0  0
    0.4853   14.4369   -3.1260 H   0  0  0  0  0  0  0  0  0  0  0  0
   -1.0207   13.4577   -3.1260 H   0  0  0  0  0  0  0  0  0  0  0  0
    0.9387   13.3921    0.6291 H   0  0  0  0  0  0  0  0  0  0  0  0
   -1.2944   14.6446    0.3314 H   0  0  0  0  0  0  0  0  0  0  0  0
    0.0085   15.2763    1.4688 H   0  0  0  0  0  0  0  0  0  0  0  0
   -1.2237   17.0774   -0.0054 H   0  0  0  0  0  0  0  0  0  0  0  0
    1.8190   15.8228   -2.3450 H   0  0  0  0  0  0  0  0  0  0  0  0
    3.1843   17.4870   -0.1403 H   0  0  0  0  0  0  0  0  0  0  0  0
    3.9982   16.6230   -1.5194 H   0  0  0  0  0  0  0  0  0  0  0  0
    3.8154   19.0580   -1.9170 H   0  0  0  0  0  0  0  0  0  0  0  0
    2.8937   18.0742   -3.1208 H   0  0  0  0  0  0  0  0  0  0  0  0
    1.5537   19.9588   -2.4781 H   0  0  0  0  0  0  0  0  0  0  0  0
    2.0290   18.9750    0.1880 H   0  0  0  0  0  0  0  0  0  0  0  0
   -0.6446   17.1237   -3.3350 H   0  0  0  0  0  0  0  0  0  0  0  0
   -0.3232   18.8306   -3.7931 H   0  0  0  0  0  0  0  0  0  0  0  0
    1.0159   17.6333   -3.7931 H   0  0  0  0  0  0  0  0  0  0  0  0
   -0.8117   19.1405   -0.2050 H   0  0  0  0  0  0  0  0  0  0  0  0
   -0.7026   20.1655   -1.6761 H   0  0  0  0  0  0  0  0  0  0  0  0
   -1.7449   18.7025   -1.6761 H   0  0  0  0  0  0  0  0  0  0  0  0
    2.0980   14.8521    1.7059 H   0  0  0  0  0  0  0  0  0  0  0  0
    3.7243   14.6462    0.9713 H   0  0  0  0  0  0  0  0  0  0  0  0
    2.9366   16.2606    0.9713 H   0  0  0  0  0  0  0  0  0  0  0  0
    3.8363   14.5694   -1.7652 H   0  0  0  0  0  0  0  0  0  0  0  0
    3.5412   13.2657   -0.4817 H   0  0  0  0  0  0  0  0  0  0  0  0
    2.1710   13.5564   -3.1700 H   0  0  0  0  0  0  0  0  0  0  0  0
    3.2841   12.2485   -2.6069 H   0  0  0  0  0  0  0  0  0  0  0  0
    1.5734   11.7740    0.4114 H   0  0  0  0  0  0  0  0  0  0  0  0
    1.4055   10.3073   -0.6120 H   0  0  0  0  0  0  0  0  0  0  0  0
    2.9462   11.2310   -0.6120 H   0  0  0  0  0  0  0  0  0  0  0  0
  1  2  1  0
  2  3  1  0
  3  4  1  0
  4  5  1  0
  5  6  1  0
  6  7  1  0
  7  8  1  0
  7  9  1  0
  2 10  1  0
 10 11  1  0
 11 12  1  0
 12 13  1  0
 13 14  1  6
 13 15  1  0
 15 16  1  0
 16 17  1  0
 17 18  2  0
 18 19  1  0
 19 20  1  0
 20 21  1  0
 21 22  1  0
 22 23  1  0
 22 24  1  0
 24 25  1  0
 24 26  1  0
 19 27  1  0
 27 28  1  1
 27 29  1  0
 29 30  1  0
 30 31  1  0
 31 32  1  1
  7  5  1  0
 31 10  1  0
 31 13  1  0
 27 15  1  0
 24 18  1  0
  1 33  1  0
  1 34  1  0
  1 35  1  0
  2 36  1  6
  3 37  1  0
  3 38  1  0
  4 39  1  0
  4 40  1  0
  5 41  1  1
  8 42  1  0
  8 43  1  0
  8 44  1  0
  9 45  1  0
  9 46  1  0
  9 47  1  0
 10 48  1  6
 11 49  1  0
 11 50  1  0
 12 51  1  0
 12 52  1  0
 14 53  1  0
 14 54  1  0
 14 55  1  0
 15 56  1  1
 16 57  1  0
 16 58  1  0
 17 59  1  0
 19 60  1  6
 20 61  1  0
 20 62  1  0
 21 63  1  0
 21 64  1  0
 22 65  1  6
 23 66  1  0
 25 67  1  0
 25 68  1  0
 25 69  1  0
 26 70  1  0
 26 71  1  0
 26 72  1  0
 28 73  1  0
 28 74  1  0
 28 75  1  0
 29 76  1  0
 29 77  1  0
 30 78  1  0
 30 79  1  0
 32 80  1  0
 32 81  1  0
 32 82  1  0
M  END
>  <meeko>  (7) 
{"is_sidechain": [false], "intermolecular_energy": 2.731, "internal_energy": -0.839}

$$$$
EPH_relaxed_0001_pdb2pqr_Repair_61_r2_0001_out
     RDKit          3D

 82 86  0  0  0  0  0  0  0  0999 V2000
   -0.2500   10.5610   -4.1110 C   0  0  0  0  0  0  0  0  0  0  0  0
    0.9440   10.3820   -3.1690 C   0  0  2  0  0  0  0  0  0  0  0  0
    0.8960    9.0340   -2.4210 C   0  0  0  0  0  0  0  0  0  0  0  0
   -0.5010    8.6570   -1.9210 C   0  0  0  0  0  0  0  0  0  0  0  0
   -0.6730    8.9740   -0.4660 C   0  0  2  0  0  0  0  0  0  0  0  0
   -2.0250    8.9100    0.0050 O   0  0  0  0  0  0  0  0  0  0  0  0
   -1.4010   10.2040    0.0420 C   0  0  0  0  0  0  0  0  0  0  0  0
   -2.0040   11.1980   -0.9010 C   0  0  0  0  0  0  0  0  0  0  0  0
   -1.1040   10.6910    1.4260 C   0  0  0  0  0  0  0  0  0  0  0  0
    0.9930   11.5310   -2.1680 C   0  0  1  0  0  0  0  0  0  0  0  0
    2.0170   11.2870   -1.0280 C   0  0  0  0  0  0  0  0  0  0  0  0
    2.6220   12.6680   -0.6670 C   0  0  0  0  0  0  0  0  0  0  0  0
    1.6980   13.6930   -1.3670 C   0  0  1  0  0  0  0  0  0  0  0  0
    0.4700   13.8410   -0.4150 C   0  0  0  0  0  0  0  0  0  0  0  0
    2.3360   15.0800   -1.7050 C   0  0  2  0  0  0  0  0  0  0  0  0
    2.8040   15.8970   -0.4890 C   0  0  0  0  0  0  0  0  0  0  0  0
    1.7840   16.8230    0.0880 C   0  0  0  0  0  0  0  0  0  0  0  0
    0.6430   17.2030   -0.5160 C   0  0  0  0  0  0  0  0  0  0  0  0
    0.3300   16.7690   -1.9540 C   0  0  1  0  0  0  0  0  0  0  0  0
   -0.1640   17.9930   -2.7680 C   0  0  0  0  0  0  0  0  0  0  0  0
   -1.3400   18.7020   -2.1040 C   0  0  0  0  0  0  0  0  0  0  0  0
   -0.9710   19.1700   -0.6980 C   0  0  2  0  0  0  0  0  0  0  0  0
    0.0240   20.1940   -0.8000 O   0  0  0  0  0  0  0  0  0  0  0  0
   -0.4500   18.0240    0.2120 C   0  0  0  0  0  0  0  0  0  0  0  0
   -1.6170   17.0700    0.5680 C   0  0  0  0  0  0  0  0  0  0  0  0
    0.0200   18.6540    1.5520 C   0  0  0  0  0  0  0  0  0  0  0  0
    1.4780   15.9620   -2.7000 C   0  0  1  0  0  0  0  0  0  0  0  0
    2.4690   16.9550   -3.3820 C   0  0  0  0  0  0  0  0  0  0  0  0
    0.8380   15.1080   -3.8570 C   0  0  0  0  0  0  0  0  0  0  0  0
    0.3340   13.7010   -3.4850 C   0  0  0  0  0  0  0  0  0  0  0  0
    1.4010   12.9250   -2.7060 C   0  0  2  0  0  0  0  0  0  0  0  0
    2.6410   12.7420   -3.6460 C   0  0  0  0  0  0  0  0  0  0  0  0
   -1.1668   10.6984   -3.5189 H   0  0  0  0  0  0  0  0  0  0  0  0
   -0.0873   11.4448   -4.7454 H   0  0  0  0  0  0  0  0  0  0  0  0
   -0.3536    9.6683   -4.7454 H   0  0  0  0  0  0  0  0  0  0  0  0
    1.8553   10.3861   -3.7850 H   0  0  0  0  0  0  0  0  0  0  0  0
    1.2450    8.2453   -3.1038 H   0  0  0  0  0  0  0  0  0  0  0  0
    1.5384    9.1356   -1.5338 H   0  0  0  0  0  0  0  0  0  0  0  0
   -1.2500    9.2180   -2.4991 H   0  0  0  0  0  0  0  0  0  0  0  0
   -0.6319    7.5729   -2.0537 H   0  0  0  0  0  0  0  0  0  0  0  0
    0.3169    8.5543   -0.2337 H   0  0  0  0  0  0  0  0  0  0  0  0
   -2.4905   12.0000   -0.3265 H   0  0  0  0  0  0  0  0  0  0  0  0
   -1.2144   11.6280   -1.5347 H   0  0  0  0  0  0  0  0  0  0  0  0
   -2.7502   10.6964   -1.5347 H   0  0  0  0  0  0  0  0  0  0  0  0
   -1.5305    9.9917    2.1602 H   0  0  0  0  0  0  0  0  0  0  0  0
   -0.0148   10.7520    1.5674 H   0  0  0  0  0  0  0  0  0  0  0  0
   -1.5484   11.6872    1.5674 H   0  0  0  0  0  0  0  0  0  0  0  0
   -0.0599   11.5438   -1.8500 H   0  0  0  0  0  0  0  0  0  0  0  0
    1.5123   10.8538   -0.1518 H   0  0  0  0  0  0  0  0  0  0  0  0
    2.8007   10.5832   -1.3450 H   0  0  0  0  0  0  0  0  0  0  0  0
    2.6175   12.8213    0.4222 H   0  0  0  0  0  0  0  0  0  0  0  0
    3.6695   12.7620   -0.9892 H   0  0  0  0  0  0  0  0  0  0  0  0
    0.8095   13.8001    0.6305 H   0  0  0  0  0  0  0  0  0  0  0  0
   -0.0250   14.8053   -0.6023 H   0  0  0  0  0  0  0  0  0  0  0  0
   -0.2400   13.0219   -0.6023 H   0  0  0  0  0  0  0  0  0  0  0  0
    3.2527   14.7939   -2.2415 H   0  0  0  0  0  0  0  0  0  0  0  0
    3.1066   15.1913    0.2986 H   0  0  0  0  0  0  0  0  0  0  0  0
    3.6252   16.5345   -0.8484 H   0  0  0  0  0  0  0  0  0  0  0  0
    1.9821   17.2285    1.0911 H   0  0  0  0  0  0  0  0  0  0  0  0
   -0.4742   16.0223   -1.8785 H   0  0  0  0  0  0  0  0  0  0  0  0
    0.6664   18.7072   -2.8695 H   0  0  0  0  0  0  0  0  0  0  0  0
   -0.5053   17.6265   -3.7474 H   0  0  0  0  0  0  0  0  0  0  0  0
   -1.6239   19.5743   -2.7110 H   0  0  0  0  0  0  0  0  0  0  0  0
   -2.1799   17.9955   -2.0301 H   0  0  0  0  0  0  0  0  0  0  0  0
   -1.8880   19.5523   -0.2259 H   0  0  0  0  0  0  0  0  0  0  0  0
   -0.3050   20.9730   -0.3190 H   0  0  0  0  0  0  0  0  0  0  0  0
   -1.7087   16.9950    1.6616 H   0  0  0  0  0  0  0  0  0  0  0  0
   -2.5540   17.4641    0.1476 H   0  0  0  0  0  0  0  0  0  0  0  0
   -1.4171   16.0733    0.1476 H   0  0  0  0  0  0  0  0  0  0  0  0
   -0.4040   18.0857    2.3930 H   0  0  0  0  0  0  0  0  0  0  0  0
    1.1183   18.6241    1.6059 H   0  0  0  0  0  0  0  0  0  0  0  0
   -0.3215   19.6983    1.6059 H   0  0  0  0  0  0  0  0  0  0  0  0
    3.0222   17.5094   -2.6096 H   0  0  0  0  0  0  0  0  0  0  0  0
    3.1775   16.3935   -4.0087 H   0  0  0  0  0  0  0  0  0  0  0  0
    1.9061   17.6624   -4.0087 H   0  0  0  0  0  0  0  0  0  0  0  0
   -0.0178   15.6738   -4.2538 H   0  0  0  0  0  0  0  0  0  0  0  0
    1.6536   14.9406   -4.5759 H   0  0  0  0  0  0  0  0  0  0  0  0
   -0.5686   13.7947   -2.8633 H   0  0  0  0  0  0  0  0  0  0  0  0
    0.1079   13.1529   -4.4115 H   0  0  0  0  0  0  0  0  0  0  0  0
    3.5468   12.6083   -3.0363 H   0  0  0  0  0  0  0  0  0  0  0  0
    2.4923   11.8561   -4.2808 H   0  0  0  0  0  0  0  0  0  0  0  0
    2.7546   13.6331   -4.2808 H   0  0  0  0  0  0  0  0  0  0  0  0
  1  2  1  0
  2  3  1  0
  3  4  1  0
  4  5  1  0
  5  6  1  0
  6  7  1  0
  7  8  1  0
  7  9  1  0
  2 10  1  0
 10 11  1  0
 11 12  1  0
 12 13  1  0
 13 14  1  1
 13 15  1  0
 15 16  1  0
 16 17  1  0
 17 18  2  0
 18 19  1  0
 19 20  1  0
 20 21  1  0
 21 22  1  0
 22 23  1  0
 22 24  1  0
 24 25  1  0
 24 26  1  0
 19 27  1  0
 27 28  1  6
 27 29  1  0
 29 30  1  0
 30 31  1  0
 31 32  1  6
  7  5  1  0
 31 10  1  0
 31 13  1  0
 27 15  1  0
 24 18  1  0
  1 33  1  0
  1 34  1  0
  1 35  1  0
  2 36  1  6
  3 37  1  0
  3 38  1  0
  4 39  1  0
  4 40  1  0
  5 41  1  1
  8 42  1  0
  8 43  1  0
  8 44  1  0
  9 45  1  0
  9 46  1  0
  9 47  1  0
 10 48  1  1
 11 49  1  0
 11 50  1  0
 12 51  1  0
 12 52  1  0
 14 53  1  0
 14 54  1  0
 14 55  1  0
 15 56  1  6
 16 57  1  0
 16 58  1  0
 17 59  1  0
 19 60  1  1
 20 61  1  0
 20 62  1  0
 21 63  1  0
 21 64  1  0
 22 65  1  1
 23 66  1  0
 25 67  1  0
 25 68  1  0
 25 69  1  0
 26 70  1  0
 26 71  1  0
 26 72  1  0
 28 73  1  0
 28 74  1  0
 28 75  1  0
 29 76  1  0
 29 77  1  0
 30 78  1  0
 30 79  1  0
 32 80  1  0
 32 81  1  0
 32 82  1  0
M  END
>  <meeko>  (8) 
{"is_sidechain": [false], "intermolecular_energy": 2.731, "internal_energy": -0.839}

$$$$
EPH_relaxed_0001_pdb2pqr_Repair_61_r2_0001_out
     RDKit          3D

 82 86  0  0  0  0  0  0  0  0999 V2000
   -3.9710    7.1990   -3.3560 C   0  0  0  0  0  0  0  0  0  0  0  0
   -3.9530    7.2670   -1.8270 C   0  0  2  0  0  0  0  0  0  0  0  0
   -5.3580    7.0760   -1.2210 C   0  0  0  0  0  0  0  0  0  0  0  0
   -6.4830    7.0860   -2.2590 C   0  0  0  0  0  0  0  0  0  0  0  0
   -7.7970    7.4720   -1.6500 C   0  0  2  0  0  0  0  0  0  0  0  0
   -8.3800    6.4750   -0.8020 O   0  0  0  0  0  0  0  0  0  0  0  0
   -9.1100    6.7970   -1.9970 C   0  0  0  0  0  0  0  0  0  0  0  0
   -9.1750    5.6800   -2.9900 C   0  0  0  0  0  0  0  0  0  0  0  0
  -10.3850    7.5390   -1.7420 C   0  0  0  0  0  0  0  0  0  0  0  0
   -3.3670    8.5990   -1.3730 C   0  0  1  0  0  0  0  0  0  0  0  0
   -3.9400    9.0710   -0.0100 C   0  0  0  0  0  0  0  0  0  0  0  0
   -2.7890    9.7970    0.7320 C   0  0  0  0  0  0  0  0  0  0  0  0
   -1.7020   10.0100   -0.3470 C   0  0  1  0  0  0  0  0  0  0  0  0
   -2.1620   11.2780   -1.1340 C   0  0  0  0  0  0  0  0  0  0  0  0
   -0.2340   10.1530    0.1690 C   0  0  2  0  0  0  0  0  0  0  0  0
    0.0230   11.3670    1.0800 C   0  0  0  0  0  0  0  0  0  0  0  0
    0.4460   12.6140    0.3770 C   0  0  0  0  0  0  0  0  0  0  0  0
    0.8890   12.6840   -0.8920 C   0  0  0  0  0  0  0  0  0  0  0  0
    1.0920   11.4130   -1.7270 C   0  0  1  0  0  0  0  0  0  0  0  0
    2.4670   11.4780   -2.4430 C   0  0  0  0  0  0  0  0  0  0  0  0
    2.6380   12.7500   -3.2670 C   0  0  0  0  0  0  0  0  0  0  0  0
    2.4870   13.9910   -2.3910 C   0  0  2  0  0  0  0  0  0  0  0  0
    3.5800   14.0400   -1.4680 O   0  0  0  0  0  0  0  0  0  0  0  0
    1.1430   14.0320   -1.6120 C   0  0  0  0  0  0  0  0  0  0  0  0
   -0.0240   14.2830   -2.5990 C   0  0  0  0  0  0  0  0  0  0  0  0
    1.1790   15.2590   -0.6610 C   0  0  0  0  0  0  0  0  0  0  0  0
    0.8660   10.0380   -0.9630 C   0  0  1  0  0  0  0  0  0  0  0  0
    2.1860    9.5980   -0.2590 C   0  0  0  0  0  0  0  0  0  0  0  0
    0.5270    8.9150   -2.0140 C   0  0  0  0  0  0  0  0  0  0  0  0
   -0.9560    8.7440   -2.3940 C   0  0  0  0  0  0  0  0  0  0  0  0
   -1.8360    8.6610   -1.1430 C   0  0  2  0  0  0  0  0  0  0  0  0
   -1.4110    7.3830   -0.3430 C   0  0  0  0  0  0  0  0  0  0  0  0
   -4.2404    6.1812   -3.6746 H   0  0  0  0  0  0  0  0  0  0  0  0
   -4.7110    7.9133   -3.7461 H   0  0  0  0  0  0  0  0  0  0  0  0
   -2.9745    7.4536   -3.7461 H   0  0  0  0  0  0  0  0  0  0  0  0
   -3.3225    6.4410   -1.4662 H   0  0  0  0  0  0  0  0  0  0  0  0
   -5.3805    6.1107   -0.6940 H   0  0  0  0  0  0  0  0  0  0  0  0
   -5.5354    7.9269   -0.5468 H   0  0  0  0  0  0  0  0  0  0  0  0
   -6.2313    7.8075   -3.0503 H   0  0  0  0  0  0  0  0  0  0  0  0
   -6.5805    6.0696   -2.6682 H   0  0  0  0  0  0  0  0  0  0  0  0
   -7.4975    8.5299   -1.6173 H   0  0  0  0  0  0  0  0  0  0  0  0
   -9.2309    4.7190   -2.4577 H   0  0  0  0  0  0  0  0  0  0  0  0
  -10.0676    5.8020   -3.6212 H   0  0  0  0  0  0  0  0  0  0  0  0
   -8.2743    5.6977   -3.6212 H   0  0  0  0  0  0  0  0  0  0  0  0
  -10.5446    7.6319   -0.6576 H   0  0  0  0  0  0  0  0  0  0  0  0
  -10.3219    8.5414   -2.1905 H   0  0  0  0  0  0  0  0  0  0  0  0
  -11.2254    6.9889   -2.1905 H   0  0  0  0  0  0  0  0  0  0  0  0
   -3.6441    9.2248   -2.2341 H   0  0  0  0  0  0  0  0  0  0  0  0
   -4.7813    9.7611   -0.1714 H   0  0  0  0  0  0  0  0  0  0  0  0
   -4.3133    8.2193    0.5776 H   0  0  0  0  0  0  0  0  0  0  0  0
   -3.1330   10.7621    1.1324 H   0  0  0  0  0  0  0  0  0  0  0  0
   -2.4166    9.2192    1.5907 H   0  0  0  0  0  0  0  0  0  0  0  0
   -2.4482   12.0670   -0.4230 H   0  0  0  0  0  0  0  0  0  0  0  0
   -1.3366   11.6364   -1.7667 H   0  0  0  0  0  0  0  0  0  0  0  0
   -3.0252   11.0238   -1.7667 H   0  0  0  0  0  0  0  0  0  0  0  0
   -0.1242    9.2675    0.8124 H   0  0  0  0  0  0  0  0  0  0  0  0
   -0.9062   11.5840    1.6272 H   0  0  0  0  0  0  0  0  0  0  0  0
    0.8631   11.0855    1.7320 H   0  0  0  0  0  0  0  0  0  0  0  0
    0.3910   13.5551    0.9439 H   0  0  0  0  0  0  0  0  0  0  0  0
    0.2830   11.4063   -2.4723 H   0  0  0  0  0  0  0  0  0  0  0  0
    3.2620   11.4402   -1.6837 H   0  0  0  0  0  0  0  0  0  0  0  0
    2.5249   10.6231   -3.1328 H   0  0  0  0  0  0  0  0  0  0  0  0
    3.6386   12.7513   -3.7239 H   0  0  0  0  0  0  0  0  0  0  0  0
    1.8604   12.7721   -4.0447 H   0  0  0  0  0  0  0  0  0  0  0  0
    2.4898   14.8665   -3.0569 H   0  0  0  0  0  0  0  0  0  0  0  0
    3.5300   14.8890   -0.9980 H   0  0  0  0  0  0  0  0  0  0  0  0
   -0.9464   14.4814   -2.0334 H   0  0  0  0  0  0  0  0  0  0  0  0
    0.2116   15.1510   -3.2323 H   0  0  0  0  0  0  0  0  0  0  0  0
   -0.1661   13.3949   -3.2323 H   0  0  0  0  0  0  0  0  0  0  0  0
    1.1689   14.9138    0.3834 H   0  0  0  0  0  0  0  0  0  0  0  0
    2.0946   15.8398   -0.8464 H   0  0  0  0  0  0  0  0  0  0  0  0
    0.2991   15.8925   -0.8464 H   0  0  0  0  0  0  0  0  0  0  0  0
    2.0522    9.6426    0.8319 H   0  0  0  0  0  0  0  0  0  0  0  0
    2.4345    8.5685   -0.5562 H   0  0  0  0  0  0  0  0  0  0  0  0
    3.0025   10.2726   -0.5562 H   0  0  0  0  0  0  0  0  0  0  0  0
    1.0825    9.1432   -2.9356 H   0  0  0  0  0  0  0  0  0  0  0  0
    0.8101    7.9702   -1.5270 H   0  0  0  0  0  0  0  0  0  0  0  0
   -1.2736    9.6046   -3.0010 H   0  0  0  0  0  0  0  0  0  0  0  0
   -1.0668    7.8095   -2.9636 H   0  0  0  0  0  0  0  0  0  0  0  0
   -1.4787    7.5864    0.7359 H   0  0  0  0  0  0  0  0  0  0  0  0
   -2.0802    6.5492   -0.6016 H   0  0  0  0  0  0  0  0  0  0  0  0
   -0.3757    7.1160   -0.6016 H   0  0  0  0  0  0  0  0  0  0  0  0
  1  2  1  0
  2  3  1  0
  3  4  1  0
  4  5  1  0
  5  6  1  0
  6  7  1  0
  7  8  1  0
  7  9  1  0
  2 10  1  0
 10 11  1  0
 11 12  1  0
 12 13  1  0
 13 14  1  6
 13 15  1  0
 15 16  1  0
 16 17  1  0
 17 18  2  0
 18 19  1  0
 19 20  1  0
 20 21  1  0
 21 22  1  0
 22 23  1  0
 22 24  1  0
 24 25  1  0
 24 26  1  0
 19 27  1  0
 27 28  1  1
 27 29  1  0
 29 30  1  0
 30 31  1  0
 31 32  1  1
  7  5  1  0
 31 10  1  0
 31 13  1  0
 27 15  1  0
 24 18  1  0
  1 33  1  0
  1 34  1  0
  1 35  1  0
  2 36  1  1
  3 37  1  0
  3 38  1  0
  4 39  1  0
  4 40  1  0
  5 41  1  1
  8 42  1  0
  8 43  1  0
  8 44  1  0
  9 45  1  0
  9 46  1  0
  9 47  1  0
 10 48  1  6
 11 49  1  0
 11 50  1  0
 12 51  1  0
 12 52  1  0
 14 53  1  0
 14 54  1  0
 14 55  1  0
 15 56  1  1
 16 57  1  0
 16 58  1  0
 17 59  1  0
 19 60  1  6
 20 61  1  0
 20 62  1  0
 21 63  1  0
 21 64  1  0
 22 65  1  6
 23 66  1  0
 25 67  1  0
 25 68  1  0
 25 69  1  0
 26 70  1  0
 26 71  1  0
 26 72  1  0
 28 73  1  0
 28 74  1  0
 28 75  1  0
 29 76  1  0
 29 77  1  0
 30 78  1  0
 30 79  1  0
 32 80  1  0
 32 81  1  0
 32 82  1  0
M  END
>  <meeko>  (9) 
{"is_sidechain": [false], "intermolecular_energy": 2.731, "internal_energy": -0.839}

$$$$
EPH_relaxed_0001_pdb2pqr_Repair_61_r2_0001_out
     RDKit          3D

 82 86  0  0  0  0  0  0  0  0999 V2000
   -0.2950   15.0800   -7.5770 C   0  0  0  0  0  0  0  0  0  0  0  0
    1.0860   15.0470   -6.9160 C   0  0  2  0  0  0  0  0  0  0  0  0
    2.2270   15.1240   -7.9500 C   0  0  0  0  0  0  0  0  0  0  0  0
    2.2660   16.4430   -8.7270 C   0  0  0  0  0  0  0  0  0  0  0  0
    1.8520   16.2580  -10.1550 C   0  0  2  0  0  0  0  0  0  0  0  0
    1.2010   15.0110  -10.4330 O   0  0  0  0  0  0  0  0  0  0  0  0
    2.4680   15.2220  -11.0770 C   0  0  0  0  0  0  0  0  0  0  0  0
    3.5510   14.3040  -10.6060 C   0  0  0  0  0  0  0  0  0  0  0  0
    2.3650   15.4300  -12.5560 C   0  0  0  0  0  0  0  0  0  0  0  0
    1.2300   13.7830   -6.0750 C   0  0  1  0  0  0  0  0  0  0  0  0
    2.6650   13.1950   -6.1210 C   0  0  0  0  0  0  0  0  0  0  0  0
    2.9470   12.5930   -4.7200 C   0  0  0  0  0  0  0  0  0  0  0  0
    1.5650   12.5560   -4.0270 C   0  0  1  0  0  0  0  0  0  0  0  0
    0.8730   11.2700   -4.5790 C   0  0  0  0  0  0  0  0  0  0  0  0
    1.5750   12.5790   -2.4640 C   0  0  2  0  0  0  0  0  0  0  0  0
    2.2640   11.3760   -1.7980 C   0  0  0  0  0  0  0  0  0  0  0  0
    1.3720   10.2170   -1.4940 C   0  0  0  0  0  0  0  0  0  0  0  0
    0.0260   10.2490   -1.4830 C   0  0  0  0  0  0  0  0  0  0  0  0
   -0.7330   11.5640   -1.6990 C   0  0  1  0  0  0  0  0  0  0  0  0
   -1.8520   11.6980   -0.6330 C   0  0  0  0  0  0  0  0  0  0  0  0
   -2.7790   10.4870   -0.6040 C   0  0  0  0  0  0  0  0  0  0  0  0
   -1.9950    9.2060   -0.3280 C   0  0  2  0  0  0  0  0  0  0  0  0
   -1.4750    9.2620    1.0030 O   0  0  0  0  0  0  0  0  0  0  0  0
   -0.8340    8.9700   -1.3340 C   0  0  0  0  0  0  0  0  0  0  0  0
   -1.4150    8.6100   -2.7240 C   0  0  0  0  0  0  0  0  0  0  0  0
   -0.0380    7.7240   -0.8610 C   0  0  0  0  0  0  0  0  0  0  0  0
    0.1640   12.8720   -1.8100 C   0  0  1  0  0  0  0  0  0  0  0  0
    0.4420   13.4480   -0.3890 C   0  0  0  0  0  0  0  0  0  0  0  0
   -0.6380   13.9800   -2.5900 C   0  0  0  0  0  0  0  0  0  0  0  0
   -0.5130   13.9780   -4.1250 C   0  0  0  0  0  0  0  0  0  0  0  0
    0.9550   13.9050   -4.5560 C   0  0  2  0  0  0  0  0  0  0  0  0
    1.6720   15.1970   -4.0330 C   0  0  0  0  0  0  0  0  0  0  0  0
   -1.0732   15.0986   -6.7998 H   0  0  0  0  0  0  0  0  0  0  0  0
   -0.3804   15.9804   -8.2030 H   0  0  0  0  0  0  0  0  0  0  0  0
   -0.4234   14.1847   -8.2030 H   0  0  0  0  0  0  0  0  0  0  0  0
    1.1648   15.9343   -6.2706 H   0  0  0  0  0  0  0  0  0  0  0  0
    3.1839   15.0044   -7.4208 H   0  0  0  0  0  0  0  0  0  0  0  0
    2.0502   14.3239   -8.6838 H   0  0  0  0  0  0  0  0  0  0  0  0
    1.5825   17.1593   -8.2477 H   0  0  0  0  0  0  0  0  0  0  0  0
    3.3005   16.8168   -8.7158 H   0  0  0  0  0  0  0  0  0  0  0  0
    1.6794   17.3383  -10.2697 H   0  0  0  0  0  0  0  0  0  0  0  0
    3.5674   14.2901   -9.5062 H   0  0  0  0  0  0  0  0  0  0  0  0
    3.3603   13.2883  -10.9827 H   0  0  0  0  0  0  0  0  0  0  0  0
    4.5218   14.6585  -10.9827 H   0  0  0  0  0  0  0  0  0  0  0  0
    1.8851   16.3991  -12.7574 H   0  0  0  0  0  0  0  0  0  0  0  0
    3.3720   15.4204  -12.9986 H   0  0  0  0  0  0  0  0  0  0  0  0
    1.7622   14.6233  -12.9986 H   0  0  0  0  0  0  0  0  0  0  0  0
    0.4581   13.1580   -6.5477 H   0  0  0  0  0  0  0  0  0  0  0  0
    2.7286   12.4110   -6.8900 H   0  0  0  0  0  0  0  0  0  0  0  0
    3.4022   13.9717   -6.3728 H   0  0  0  0  0  0  0  0  0  0  0  0
    3.3639   11.5790   -4.8096 H   0  0  0  0  0  0  0  0  0  0  0  0
    3.6828   13.1820   -4.1529 H   0  0  0  0  0  0  0  0  0  0  0  0
    0.5367   10.6451   -3.7385 H   0  0  0  0  0  0  0  0  0  0  0  0
    0.0064   11.5550   -5.1937 H   0  0  0  0  0  0  0  0  0  0  0  0
    1.5883   10.7038   -5.1937 H   0  0  0  0  0  0  0  0  0  0  0  0
    2.2139   13.4475   -2.2459 H   0  0  0  0  0  0  0  0  0  0  0  0
    3.0599   11.0248   -2.4711 H   0  0  0  0  0  0  0  0  0  0  0  0
    2.6349   11.7370   -0.8274 H   0  0  0  0  0  0  0  0  0  0  0  0
    1.8552    9.2571   -1.2595 H   0  0  0  0  0  0  0  0  0  0  0  0
   -1.1797   11.4957   -2.7019 H   0  0  0  0  0  0  0  0  0  0  0  0
   -1.3849   11.8085    0.3568 H   0  0  0  0  0  0  0  0  0  0  0  0
   -2.4590   12.5774   -0.8942 H   0  0  0  0  0  0  0  0  0  0  0  0
   -3.5297   10.6272    0.1877 H   0  0  0  0  0  0  0  0  0  0  0  0
   -3.2674   10.3952   -1.5853 H   0  0  0  0  0  0  0  0  0  0  0  0
   -2.6895    8.3614   -0.4475 H   0  0  0  0  0  0  0  0  0  0  0  0
   -1.2080   10.1800    1.1770 H   0  0  0  0  0  0  0  0  0  0  0  0
   -2.3436    8.0346   -2.5954 H   0  0  0  0  0  0  0  0  0  0  0  0
   -1.6300    9.5333   -3.2819 H   0  0  0  0  0  0  0  0  0  0  0  0
   -0.6839    8.0064   -3.2819 H   0  0  0  0  0  0  0  0  0  0  0  0
   -0.0201    7.6960    0.2385 H   0  0  0  0  0  0  0  0  0  0  0  0
   -0.5218    6.8130   -1.2432 H   0  0  0  0  0  0  0  0  0  0  0  0
    0.9920    7.7801   -1.2432 H   0  0  0  0  0  0  0  0  0  0  0  0
    0.0963   12.7318    0.3710 H   0  0  0  0  0  0  0  0  0  0  0  0
    1.5218   13.6190   -0.2675 H   0  0  0  0  0  0  0  0  0  0  0  0
   -0.0959   14.3998   -0.2675 H   0  0  0  0  0  0  0  0  0  0  0  0
   -1.7027   13.8560   -2.3428 H   0  0  0  0  0  0  0  0  0  0  0  0
   -0.1974   14.9347   -2.2670 H   0  0  0  0  0  0  0  0  0  0  0  0
   -1.0501   13.1070   -4.5285 H   0  0  0  0  0  0  0  0  0  0  0  0
   -0.9462   14.9116   -4.5131 H   0  0  0  0  0  0  0  0  0  0  0  0
    1.6718   15.1967   -2.9330 H   0  0  0  0  0  0  0  0  0  0  0  0
    2.7090   15.2147   -4.3995 H   0  0  0  0  0  0  0  0  0  0  0  0
    1.1384   16.0863   -4.3995 H   0  0  0  0  0  0  0  0  0  0  0  0
  1  2  1  0
  2  3  1  0
  3  4  1  0
  4  5  1  0
  5  6  1  0
  6  7  1  0
  7  8  1  0
  7  9  1  0
  2 10  1  0
 10 11  1  0
 11 12  1  0
 12 13  1  0
 13 14  1  1
 13 15  1  0
 15 16  1  0
 16 17  1  0
 17 18  2  0
 18 19  1  0
 19 20  1  0
 20 21  1  0
 21 22  1  0
 22 23  1  0
 22 24  1  0
 24 25  1  0
 24 26  1  0
 19 27  1  0
 27 28  1  1
 27 29  1  0
 29 30  1  0
 30 31  1  0
 31 32  1  1
  7  5  1  0
 31 10  1  0
 31 13  1  0
 27 15  1  0
 24 18  1  0
  1 33  1  0
  1 34  1  0
  1 35  1  0
  2 36  1  1
  3 37  1  0
  3 38  1  0
  4 39  1  0
  4 40  1  0
  5 41  1  6
  8 42  1  0
  8 43  1  0
  8 44  1  0
  9 45  1  0
  9 46  1  0
  9 47  1  0
 10 48  1  6
 11 49  1  0
 11 50  1  0
 12 51  1  0
 12 52  1  0
 14 53  1  0
 14 54  1  0
 14 55  1  0
 15 56  1  6
 16 57  1  0
 16 58  1  0
 17 59  1  0
 19 60  1  6
 20 61  1  0
 20 62  1  0
 21 63  1  0
 21 64  1  0
 22 65  1  1
 23 66  1  0
 25 67  1  0
 25 68  1  0
 25 69  1  0
 26 70  1  0
 26 71  1  0
 26 72  1  0
 28 73  1  0
 28 74  1  0
 28 75  1  0
 29 76  1  0
 29 77  1  0
 30 78  1  0
 30 79  1  0
 32 80  1  0
 32 81  1  0
 32 82  1  0
M  END
>  <meeko>  (10) 
{"is_sidechain": [false], "intermolecular_energy": 2.731, "internal_energy": -0.839}

$$$$
EPH_relaxed_0001_pdb2pqr_Repair_61_r2_0001_out
     RDKit          3D

 82 86  0  0  0  0  0  0  0  0999 V2000
   -2.2340    7.8160   -2.1190 C   0  0  0  0  0  0  0  0  0  0  0  0
   -2.2120    8.4410   -0.7210 C   0  0  2  0  0  0  0  0  0  0  0  0
   -3.6050    8.4370   -0.0610 C   0  0  0  0  0  0  0  0  0  0  0  0
   -4.7620    8.4530   -1.0640 C   0  0  0  0  0  0  0  0  0  0  0  0
   -5.7230    7.3290   -0.8190 C   0  0  2  0  0  0  0  0  0  0  0  0
   -5.8760    6.4210   -1.9180 O   0  0  0  0  0  0  0  0  0  0  0  0
   -7.0410    7.1800   -1.5560 C   0  0  0  0  0  0  0  0  0  0  0  0
   -7.4700    8.1690   -2.5950 C   0  0  0  0  0  0  0  0  0  0  0  0
   -8.1240    6.3600   -0.9280 C   0  0  0  0  0  0  0  0  0  0  0  0
   -1.6750    9.8650   -0.7970 C   0  0  1  0  0  0  0  0  0  0  0  0
   -1.2120   10.4040    0.5830 C   0  0  0  0  0  0  0  0  0  0  0  0
    0.0130   11.3170    0.3190 C   0  0  0  0  0  0  0  0  0  0  0  0
    0.0110   11.5390   -1.2110 C   0  0  1  0  0  0  0  0  0  0  0  0
   -1.0400   12.6670   -1.4520 C   0  0  0  0  0  0  0  0  0  0  0  0
    1.3900   11.8870   -1.8610 C   0  0  2  0  0  0  0  0  0  0  0  0
    2.0240   13.2040   -1.3790 C   0  0  0  0  0  0  0  0  0  0  0  0
    1.6610   14.4140   -2.1740 C   0  0  0  0  0  0  0  0  0  0  0  0
    1.0920   14.4070   -3.3940 C   0  0  0  0  0  0  0  0  0  0  0  0
    0.8450   13.0900   -4.1400 C   0  0  1  0  0  0  0  0  0  0  0  0
    1.3200   13.2310   -5.6100 C   0  0  0  0  0  0  0  0  0  0  0  0
    0.6910   14.4280   -6.3160 C   0  0  0  0  0  0  0  0  0  0  0  0
    1.0080   15.7250   -5.5760 C   0  0  2  0  0  0  0  0  0  0  0  0
    2.4130   15.9800   -5.6730 O   0  0  0  0  0  0  0  0  0  0  0  0
    0.5830   15.6980   -4.0820 C   0  0  0  0  0  0  0  0  0  0  0  0
   -0.9620   15.7260   -3.9790 C   0  0  0  0  0  0  0  0  0  0  0  0
    1.0850   17.0080   -3.4180 C   0  0  0  0  0  0  0  0  0  0  0  0
    1.4090   11.7800   -3.4390 C   0  0  1  0  0  0  0  0  0  0  0  0
    2.8950   11.5530   -3.8520 C   0  0  0  0  0  0  0  0  0  0  0  0
    0.6070   10.5300   -3.9640 C   0  0  0  0  0  0  0  0  0  0  0  0
   -0.6840   10.1660   -3.2060 C   0  0  0  0  0  0  0  0  0  0  0  0
   -0.4370   10.1120   -1.6960 C   0  0  2  0  0  0  0  0  0  0  0  0
    0.6000    8.9700   -1.4210 C   0  0  0  0  0  0  0  0  0  0  0  0
   -2.2726    6.7203   -2.0302 H   0  0  0  0  0  0  0  0  0  0  0  0
   -3.1202    8.1710   -2.6655 H   0  0  0  0  0  0  0  0  0  0  0  0
   -1.3250    8.1078   -2.6655 H   0  0  0  0  0  0  0  0  0  0  0  0
   -1.5487    7.8268   -0.0942 H   0  0  0  0  0  0  0  0  0  0  0  0
   -3.6938    7.5314    0.5570 H   0  0  0  0  0  0  0  0  0  0  0  0
   -3.6818    9.3598    0.5327 H   0  0  0  0  0  0  0  0  0  0  0  0
   -5.2998    9.4082   -0.9728 H   0  0  0  0  0  0  0  0  0  0  0  0
   -4.3426    8.3319   -2.0737 H   0  0  0  0  0  0  0  0  0  0  0  0
   -5.4703    7.3151    0.2515 H   0  0  0  0  0  0  0  0  0  0  0  0
   -7.8615    9.0715   -2.1027 H   0  0  0  0  0  0  0  0  0  0  0  0
   -6.6079    8.4385   -3.2228 H   0  0  0  0  0  0  0  0  0  0  0  0
   -8.2558    7.7237   -3.2228 H   0  0  0  0  0  0  0  0  0  0  0  0
   -8.0424    6.4218    0.1672 H   0  0  0  0  0  0  0  0  0  0  0  0
   -9.1050    6.7438   -1.2448 H   0  0  0  0  0  0  0  0  0  0  0  0
   -8.0207    5.3117   -1.2448 H   0  0  0  0  0  0  0  0  0  0  0  0
   -2.5550   10.3707   -1.2211 H   0  0  0  0  0  0  0  0  0  0  0  0
   -2.0205   10.9820    1.0545 H   0  0  0  0  0  0  0  0  0  0  0  0
   -0.9504    9.5787    1.2616 H   0  0  0  0  0  0  0  0  0  0  0  0
   -0.0942   12.2741    0.8505 H   0  0  0  0  0  0  0  0  0  0  0  0
    0.9523   10.8681    0.6743 H   0  0  0  0  0  0  0  0  0  0  0  0
   -1.3961   13.0492   -0.4840 H   0  0  0  0  0  0  0  0  0  0  0  0
   -0.5752   13.4857   -2.0210 H   0  0  0  0  0  0  0  0  0  0  0  0
   -1.8895   12.2612   -2.0210 H   0  0  0  0  0  0  0  0  0  0  0  0
    2.0393   11.0851   -1.4798 H   0  0  0  0  0  0  0  0  0  0  0  0
    1.7078   13.3730   -0.3391 H   0  0  0  0  0  0  0  0  0  0  0  0
    3.1108   13.0788   -1.4938 H   0  0  0  0  0  0  0  0  0  0  0  0
    1.8767   15.3947   -1.7249 H   0  0  0  0  0  0  0  0  0  0  0  0
   -0.2421   12.9243   -4.1134 H   0  0  0  0  0  0  0  0  0  0  0  0
    2.4133   13.3520   -5.6172 H   0  0  0  0  0  0  0  0  0  0  0  0
    1.0093   12.3242   -6.1496 H   0  0  0  0  0  0  0  0  0  0  0  0
    1.0876   14.4914   -7.3400 H   0  0  0  0  0  0  0  0  0  0  0  0
   -0.4003   14.2916   -6.3345 H   0  0  0  0  0  0  0  0  0  0  0  0
    0.4253   16.5271   -6.0525 H   0  0  0  0  0  0  0  0  0  0  0  0
    2.8270   15.6580   -4.8540 H   0  0  0  0  0  0  0  0  0  0  0  0
   -1.2588   15.7314   -2.9198 H   0  0  0  0  0  0  0  0  0  0  0  0
   -1.3460   16.6313   -4.4720 H   0  0  0  0  0  0  0  0  0  0  0  0
   -1.3786   14.8353   -4.4720 H   0  0  0  0  0  0  0  0  0  0  0  0
    1.0448   16.9032   -2.3237 H   0  0  0  0  0  0  0  0  0  0  0  0
    2.1216   17.2032   -3.7298 H   0  0  0  0  0  0  0  0  0  0  0  0
    0.4443   17.8460   -3.7298 H   0  0  0  0  0  0  0  0  0  0  0  0
    3.5161   11.4581   -2.9491 H   0  0  0  0  0  0  0  0  0  0  0  0
    2.9731   10.6325   -4.4492 H   0  0  0  0  0  0  0  0  0  0  0  0
    3.2443   12.4082   -4.4492 H   0  0  0  0  0  0  0  0  0  0  0  0
    0.3342   10.7253   -5.0116 H   0  0  0  0  0  0  0  0  0  0  0  0
    1.2799    9.6726   -3.8157 H   0  0  0  0  0  0  0  0  0  0  0  0
   -1.4517   10.9247   -3.4180 H   0  0  0  0  0  0  0  0  0  0  0  0
   -1.0197    9.1738   -3.5419 H   0  0  0  0  0  0  0  0  0  0  0  0
    0.7203    8.8375   -0.3357 H   0  0  0  0  0  0  0  0  0  0  0  0
    0.2389    8.0316   -1.8671 H   0  0  0  0  0  0  0  0  0  0  0  0
    1.5688    9.2392   -1.8671 H   0  0  0  0  0  0  0  0  0  0  0  0
  1  2  1  0
  2  3  1  0
  3  4  1  0
  4  5  1  0
  5  6  1  0
  6  7  1  0
  7  8  1  0
  7  9  1  0
  2 10  1  0
 10 11  1  0
 11 12  1  0
 12 13  1  0
 13 14  1  1
 13 15  1  0
 15 16  1  0
 16 17  1  0
 17 18  2  0
 18 19  1  0
 19 20  1  0
 20 21  1  0
 21 22  1  0
 22 23  1  0
 22 24  1  0
 24 25  1  0
 24 26  1  0
 19 27  1  0
 27 28  1  6
 27 29  1  0
 29 30  1  0
 30 31  1  0
 31 32  1  6
  7  5  1  0
 31 10  1  0
 31 13  1  0
 27 15  1  0
 24 18  1  0
  1 33  1  0
  1 34  1  0
  1 35  1  0
  2 36  1  1
  3 37  1  0
  3 38  1  0
  4 39  1  0
  4 40  1  0
  5 41  1  1
  8 42  1  0
  8 43  1  0
  8 44  1  0
  9 45  1  0
  9 46  1  0
  9 47  1  0
 10 48  1  6
 11 49  1  0
 11 50  1  0
 12 51  1  0
 12 52  1  0
 14 53  1  0
 14 54  1  0
 14 55  1  0
 15 56  1  1
 16 57  1  0
 16 58  1  0
 17 59  1  0
 19 60  1  6
 20 61  1  0
 20 62  1  0
 21 63  1  0
 21 64  1  0
 22 65  1  6
 23 66  1  0
 25 67  1  0
 25 68  1  0
 25 69  1  0
 26 70  1  0
 26 71  1  0
 26 72  1  0
 28 73  1  0
 28 74  1  0
 28 75  1  0
 29 76  1  0
 29 77  1  0
 30 78  1  0
 30 79  1  0
 32 80  1  0
 32 81  1  0
 32 82  1  0
M  END
>  <meeko>  (11) 
{"is_sidechain": [false], "intermolecular_energy": 2.731, "internal_energy": -0.839}

$$$$
EPH_relaxed_0001_pdb2pqr_Repair_61_r2_0001_out
     RDKit          3D

 82 86  0  0  0  0  0  0  0  0999 V2000
    3.1520   18.3230   -4.1230 C   0  0  0  0  0  0  0  0  0  0  0  0
    2.2190   18.2460   -2.9110 C   0  0  2  0  0  0  0  0  0  0  0  0
    2.4370   19.4200   -1.9350 C   0  0  0  0  0  0  0  0  0  0  0  0
    1.1480   19.9250   -1.2820 C   0  0  0  0  0  0  0  0  0  0  0  0
    1.3350   20.1910    0.1810 C   0  0  2  0  0  0  0  0  0  0  0  0
    1.8250   19.0740    0.9340 O   0  0  0  0  0  0  0  0  0  0  0  0
    0.5030   19.5290    1.2640 C   0  0  0  0  0  0  0  0  0  0  0  0
   -0.5780   18.5500    0.9290 C   0  0  0  0  0  0  0  0  0  0  0  0
    0.4110   20.1940    2.6020 C   0  0  0  0  0  0  0  0  0  0  0  0
    2.4180   16.9210   -2.1850 C   0  0  1  0  0  0  0  0  0  0  0  0
    2.8720   17.1080   -0.7130 C   0  0  0  0  0  0  0  0  0  0  0  0
    2.2170   15.9660    0.1060 C   0  0  0  0  0  0  0  0  0  0  0  0
    1.6870   14.9770   -0.9590 C   0  0  1  0  0  0  0  0  0  0  0  0
    2.9310   14.1340   -1.3780 C   0  0  0  0  0  0  0  0  0  0  0  0
    0.4930   14.0670   -0.5220 C   0  0  2  0  0  0  0  0  0  0  0  0
    0.7970   13.1040    0.6390 C   0  0  0  0  0  0  0  0  0  0  0  0
    1.3070   11.7610    0.2360 C   0  0  0  0  0  0  0  0  0  0  0  0
    1.2470   11.2400   -1.0040 C   0  0  0  0  0  0  0  0  0  0  0  0
    0.5290   11.9860   -2.1370 C   0  0  1  0  0  0  0  0  0  0  0  0
   -0.3890   10.9990   -2.9050 C   0  0  0  0  0  0  0  0  0  0  0  0
    0.3620    9.7670   -3.4020 C   0  0  0  0  0  0  0  0  0  0  0  0
    1.0130    9.0210   -2.2400 C   0  0  2  0  0  0  0  0  0  0  0  0
   -0.0150    8.4740   -1.4090 O   0  0  0  0  0  0  0  0  0  0  0  0
    1.9540    9.9170   -1.3870 C   0  0  0  0  0  0  0  0  0  0  0  0
    3.2240   10.2630   -2.2020 C   0  0  0  0  0  0  0  0  0  0  0  0
    2.4330    9.0820   -0.1690 C   0  0  0  0  0  0  0  0  0  0  0  0
   -0.2250   13.3210   -1.7190 C   0  0  1  0  0  0  0  0  0  0  0  0
   -1.6690   12.9880   -1.2340 C   0  0  0  0  0  0  0  0  0  0  0  0
   -0.3830   14.2400   -2.9880 C   0  0  0  0  0  0  0  0  0  0  0  0
    0.7790   15.2030   -3.2980 C   0  0  0  0  0  0  0  0  0  0  0  0
    1.1850   15.9920   -2.0500 C   0  0  2  0  0  0  0  0  0  0  0  0
   -0.0400   16.8670   -1.6180 C   0  0  0  0  0  0  0  0  0  0  0  0
    4.1934   18.4089   -3.7792 H   0  0  0  0  0  0  0  0  0  0  0  0
    3.0403   17.4126   -4.7302 H   0  0  0  0  0  0  0  0  0  0  0  0
    2.8925   19.2028   -4.7302 H   0  0  0  0  0  0  0  0  0  0  0  0
    1.1862   18.3139   -3.2836 H   0  0  0  0  0  0  0  0  0  0  0  0
    3.1219   19.0886   -1.1406 H   0  0  0  0  0  0  0  0  0  0  0  0
    2.8479   20.2543   -2.5225 H   0  0  0  0  0  0  0  0  0  0  0  0
    0.8391   20.8574   -1.7772 H   0  0  0  0  0  0  0  0  0  0  0  0
    0.3793   19.1461   -1.3933 H   0  0  0  0  0  0  0  0  0  0  0  0
    1.5852   21.2436   -0.0175 H   0  0  0  0  0  0  0  0  0  0  0  0
   -1.0150   18.1543    1.8577 H   0  0  0  0  0  0  0  0  0  0  0  0
   -1.3597   19.0538    0.3415 H   0  0  0  0  0  0  0  0  0  0  0  0
   -0.1539   17.7223    0.3415 H   0  0  0  0  0  0  0  0  0  0  0  0
    0.5155   19.4387    3.3948 H   0  0  0  0  0  0  0  0  0  0  0  0
    1.2146   20.9391    2.6972 H   0  0  0  0  0  0  0  0  0  0  0  0
   -0.5647   20.6929    2.6972 H   0  0  0  0  0  0  0  0  0  0  0  0
    3.1666   16.4596   -2.8458 H   0  0  0  0  0  0  0  0  0  0  0  0
    3.9679   17.0434   -0.6436 H   0  0  0  0  0  0  0  0  0  0  0  0
    2.5694   18.0932   -0.3286 H   0  0  0  0  0  0  0  0  0  0  0  0
    2.9595   15.4776    0.7542 H   0  0  0  0  0  0  0  0  0  0  0  0
    1.4193   16.3324    0.7690 H   0  0  0  0  0  0  0  0  0  0  0  0
    3.4540   13.7796   -0.4775 H   0  0  0  0  0  0  0  0  0  0  0  0
    2.6043   13.2705   -1.9760 H   0  0  0  0  0  0  0  0  0  0  0  0
    3.6119   14.7575   -1.9760 H   0  0  0  0  0  0  0  0  0  0  0  0
   -0.2265   14.7973   -0.1233 H   0  0  0  0  0  0  0  0  0  0  0  0
    1.5539   13.5759    1.2827 H   0  0  0  0  0  0  0  0  0  0  0  0
   -0.1629   12.9256    1.1457 H   0  0  0  0  0  0  0  0  0  0  0  0
    1.7718   11.1438    1.0190 H   0  0  0  0  0  0  0  0  0  0  0  0
    1.3192   12.3586   -2.8054 H   0  0  0  0  0  0  0  0  0  0  0  0
   -1.1962   10.6725   -2.2328 H   0  0  0  0  0  0  0  0  0  0  0  0
   -0.7840   11.5269   -3.7855 H   0  0  0  0  0  0  0  0  0  0  0  0
   -0.3449    9.0950   -3.9106 H   0  0  0  0  0  0  0  0  0  0  0  0
    1.1503   10.0922   -4.0969 H   0  0  0  0  0  0  0  0  0  0  0  0
    1.6411    8.2263   -2.6689 H   0  0  0  0  0  0  0  0  0  0  0  0
   -0.3490    7.6710   -1.8430 H   0  0  0  0  0  0  0  0  0  0  0  0
    4.0515   10.4885   -1.5133 H   0  0  0  0  0  0  0  0  0  0  0  0
    3.4975    9.4066   -2.8359 H   0  0  0  0  0  0  0  0  0  0  0  0
    3.0253   11.1398   -2.8359 H   0  0  0  0  0  0  0  0  0  0  0  0
    2.1413    9.5906    0.7617 H   0  0  0  0  0  0  0  0  0  0  0  0
    1.9695    8.0850   -0.2029 H   0  0  0  0  0  0  0  0  0  0  0  0
    3.5276    8.9788   -0.2029 H   0  0  0  0  0  0  0  0  0  0  0  0
   -1.6942   12.9822   -0.1343 H   0  0  0  0  0  0  0  0  0  0  0  0
   -2.3676   13.7486   -1.6128 H   0  0  0  0  0  0  0  0  0  0  0  0
   -1.9639   11.9983   -1.6128 H   0  0  0  0  0  0  0  0  0  0  0  0
   -0.5123   13.5829   -3.8606 H   0  0  0  0  0  0  0  0  0  0  0  0
   -1.2434   14.8890   -2.7677 H   0  0  0  0  0  0  0  0  0  0  0  0
    1.6429   14.6220   -3.6532 H   0  0  0  0  0  0  0  0  0  0  0  0
    0.4491   15.9136   -4.0702 H   0  0  0  0  0  0  0  0  0  0  0  0
   -0.0940   16.9056   -0.5200 H   0  0  0  0  0  0  0  0  0  0  0  0
    0.0789   17.8858   -2.0153 H   0  0  0  0  0  0  0  0  0  0  0  0
   -0.9652   16.4241   -2.0153 H   0  0  0  0  0  0  0  0  0  0  0  0
  1  2  1  0
  2  3  1  0
  3  4  1  0
  4  5  1  0
  5  6  1  0
  6  7  1  0
  7  8  1  0
  7  9  1  0
  2 10  1  0
 10 11  1  0
 11 12  1  0
 12 13  1  0
 13 14  1  6
 13 15  1  0
 15 16  1  0
 16 17  1  0
 17 18  2  0
 18 19  1  0
 19 20  1  0
 20 21  1  0
 21 22  1  0
 22 23  1  0
 22 24  1  0
 24 25  1  0
 24 26  1  0
 19 27  1  0
 27 28  1  1
 27 29  1  0
 29 30  1  0
 30 31  1  0
 31 32  1  1
  7  5  1  0
 31 10  1  0
 31 13  1  0
 27 15  1  0
 24 18  1  0
  1 33  1  0
  1 34  1  0
  1 35  1  0
  2 36  1  6
  3 37  1  0
  3 38  1  0
  4 39  1  0
  4 40  1  0
  5 41  1  6
  8 42  1  0
  8 43  1  0
  8 44  1  0
  9 45  1  0
  9 46  1  0
  9 47  1  0
 10 48  1  6
 11 49  1  0
 11 50  1  0
 12 51  1  0
 12 52  1  0
 14 53  1  0
 14 54  1  0
 14 55  1  0
 15 56  1  1
 16 57  1  0
 16 58  1  0
 17 59  1  0
 19 60  1  6
 20 61  1  0
 20 62  1  0
 21 63  1  0
 21 64  1  0
 22 65  1  6
 23 66  1  0
 25 67  1  0
 25 68  1  0
 25 69  1  0
 26 70  1  0
 26 71  1  0
 26 72  1  0
 28 73  1  0
 28 74  1  0
 28 75  1  0
 29 76  1  0
 29 77  1  0
 30 78  1  0
 30 79  1  0
 32 80  1  0
 32 81  1  0
 32 82  1  0
M  END
>  <meeko>  (12) 
{"is_sidechain": [false], "intermolecular_energy": 2.731, "internal_energy": -0.839}

$$$$
EPH_relaxed_0001_pdb2pqr_Repair_61_r2_0001_out
     RDKit          3D

 82 86  0  0  0  0  0  0  0  0999 V2000
    2.7860   18.3420   -3.2390 C   0  0  0  0  0  0  0  0  0  0  0  0
    2.1440   18.6110   -1.8750 C   0  0  2  0  0  0  0  0  0  0  0  0
    3.0920   19.3760   -0.9280 C   0  0  0  0  0  0  0  0  0  0  0  0
    2.9690   18.9530    0.5380 C   0  0  0  0  0  0  0  0  0  0  0  0
    4.2670   19.1120    1.2710 C   0  0  2  0  0  0  0  0  0  0  0  0
    4.4470   18.2120    2.3730 O   0  0  0  0  0  0  0  0  0  0  0  0
    4.3650   19.6080    2.7020 C   0  0  0  0  0  0  0  0  0  0  0  0
    3.1440   19.9790    3.4840 C   0  0  0  0  0  0  0  0  0  0  0  0
    5.6610   20.1940    3.1690 C   0  0  0  0  0  0  0  0  0  0  0  0
    1.7170   17.2970   -1.2330 C   0  0  1  0  0  0  0  0  0  0  0  0
    0.5830   17.4820   -0.1890 C   0  0  0  0  0  0  0  0  0  0  0  0
   -0.3210   16.2260   -0.2830 C   0  0  0  0  0  0  0  0  0  0  0  0
    0.4950   15.2200   -1.1280 C   0  0  1  0  0  0  0  0  0  0  0  0
    1.5010   14.5760   -0.1230 C   0  0  0  0  0  0  0  0  0  0  0  0
   -0.3280   14.1350   -1.8960 C   0  0  2  0  0  0  0  0  0  0  0  0
   -1.1350   13.1750   -1.0040 C   0  0  0  0  0  0  0  0  0  0  0  0
   -0.4160   11.9340   -0.5910 C   0  0  0  0  0  0  0  0  0  0  0  0
    0.7160   11.4640   -1.1460 C   0  0  0  0  0  0  0  0  0  0  0  0
    1.3370   12.1500   -2.3700 C   0  0  1  0  0  0  0  0  0  0  0  0
    1.7190   11.0790   -3.4260 C   0  0  0  0  0  0  0  0  0  0  0  0
    2.6150    9.9860   -2.8520 C   0  0  0  0  0  0  0  0  0  0  0  0
    1.9390    9.2880   -1.6750 C   0  0  2  0  0  0  0  0  0  0  0  0
    0.8000    8.5690   -2.1570 O   0  0  0  0  0  0  0  0  0  0  0  0
    1.5010   10.2680   -0.5510 C   0  0  0  0  0  0  0  0  0  0  0  0
    2.7520   10.8210    0.1740 C   0  0  0  0  0  0  0  0  0  0  0  0
    0.7080    9.4560    0.5080 C   0  0  0  0  0  0  0  0  0  0  0  0
    0.5000   13.3490   -2.9920 C   0  0  1  0  0  0  0  0  0  0  0  0
   -0.5340   12.7980   -4.0210 C   0  0  0  0  0  0  0  0  0  0  0  0
    1.4710   14.2900   -3.7980 C   0  0  0  0  0  0  0  0  0  0  0  0
    2.1620   15.4170   -3.0070 C   0  0  0  0  0  0  0  0  0  0  0  0
    1.1470   16.2010   -2.1690 C   0  0  2  0  0  0  0  0  0  0  0  0
    0.1350   16.8790   -3.1540 C   0  0  0  0  0  0  0  0  0  0  0  0
    3.7917   17.9206   -3.0942 H   0  0  0  0  0  0  0  0  0  0  0  0
    2.1666   17.6277   -3.8013 H   0  0  0  0  0  0  0  0  0  0  0  0
    2.8608   19.2845   -3.8013 H   0  0  0  0  0  0  0  0  0  0  0  0
    1.2619   19.2460   -2.0441 H   0  0  0  0  0  0  0  0  0  0  0  0
    4.1272   19.1988   -1.2551 H   0  0  0  0  0  0  0  0  0  0  0  0
    2.8116   20.4383   -0.9811 H   0  0  0  0  0  0  0  0  0  0  0  0
    2.2052   19.5762    1.0261 H   0  0  0  0  0  0  0  0  0  0  0  0
    2.6870   17.8901    0.5660 H   0  0  0  0  0  0  0  0  0  0  0  0
    4.7780   19.4196    0.3467 H   0  0  0  0  0  0  0  0  0  0  0  0
    3.3633   19.9124    4.5598 H   0  0  0  0  0  0  0  0  0  0  0  0
    2.8467   21.0080    3.2334 H   0  0  0  0  0  0  0  0  0  0  0  0
    2.3245   19.2893    3.2334 H   0  0  0  0  0  0  0  0  0  0  0  0
    5.6836   20.2042    4.2687 H   0  0  0  0  0  0  0  0  0  0  0  0
    6.4959   19.5858    2.7907 H   0  0  0  0  0  0  0  0  0  0  0  0
    5.7558   21.2226    2.7907 H   0  0  0  0  0  0  0  0  0  0  0  0
    2.6822   16.9731   -0.8166 H   0  0  0  0  0  0  0  0  0  0  0  0
    1.0088   17.5674    0.8216 H   0  0  0  0  0  0  0  0  0  0  0  0
    0.0080   18.3982   -0.3887 H   0  0  0  0  0  0  0  0  0  0  0  0
   -0.5236   15.8177    0.7181 H   0  0  0  0  0  0  0  0  0  0  0  0
   -1.3002   16.4496   -0.7315 H   0  0  0  0  0  0  0  0  0  0  0  0
    1.1750   14.7847    0.9066 H   0  0  0  0  0  0  0  0  0  0  0  0
    1.5342   13.4883   -0.2837 H   0  0  0  0  0  0  0  0  0  0  0  0
    2.5027   15.0012   -0.2837 H   0  0  0  0  0  0  0  0  0  0  0  0
   -1.0734   14.7402   -2.4328 H   0  0  0  0  0  0  0  0  0  0  0  0
   -1.4244   13.7195   -0.0931 H   0  0  0  0  0  0  0  0  0  0  0  0
   -1.9915   12.8438   -1.6095 H   0  0  0  0  0  0  0  0  0  0  0  0
   -0.8484   11.3542    0.2378 H   0  0  0  0  0  0  0  0  0  0  0  0
    2.2436   12.6563   -2.0072 H   0  0  0  0  0  0  0  0  0  0  0  0
    0.7973   10.6154   -3.8075 H   0  0  0  0  0  0  0  0  0  0  0  0
    2.2792   11.5841   -4.2267 H   0  0  0  0  0  0  0  0  0  0  0  0
    2.8264    9.2448   -3.6368 H   0  0  0  0  0  0  0  0  0  0  0  0
    3.5483   10.4477   -2.4972 H   0  0  0  0  0  0  0  0  0  0  0  0
    2.6778    8.6071   -1.2272 H   0  0  0  0  0  0  0  0  0  0  0  0
    0.4410    9.0610   -2.9150 H   0  0  0  0  0  0  0  0  0  0  0  0
    2.6041   10.7556    1.2620 H   0  0  0  0  0  0  0  0  0  0  0  0
    3.6336   10.2287   -0.1124 H   0  0  0  0  0  0  0  0  0  0  0  0
    2.9073   11.8716   -0.1124 H   0  0  0  0  0  0  0  0  0  0  0  0
    1.0150    9.7704    1.5164 H   0  0  0  0  0  0  0  0  0  0  0  0
   -0.3690    9.6386    0.3790 H   0  0  0  0  0  0  0  0  0  0  0  0
    0.9161    8.3836    0.3790 H   0  0  0  0  0  0  0  0  0  0  0  0
   -1.3811   12.3466   -3.4837 H   0  0  0  0  0  0  0  0  0  0  0  0
   -0.8975   13.6220   -4.6526 H   0  0  0  0  0  0  0  0  0  0  0  0
   -0.0528   12.0367   -4.6526 H   0  0  0  0  0  0  0  0  0  0  0  0
    2.2588   13.6591   -4.2353 H   0  0  0  0  0  0  0  0  0  0  0  0
    0.8314   14.8034   -4.5310 H   0  0  0  0  0  0  0  0  0  0  0  0
    2.9169   14.9770   -2.3388 H   0  0  0  0  0  0  0  0  0  0  0  0
    2.6351   16.1073   -3.7209 H   0  0  0  0  0  0  0  0  0  0  0  0
   -0.6436   17.4006   -2.5781 H   0  0  0  0  0  0  0  0  0  0  0  0
    0.6689   17.6024   -3.7878 H   0  0  0  0  0  0  0  0  0  0  0  0
   -0.3309   16.1101   -3.7878 H   0  0  0  0  0  0  0  0  0  0  0  0
  1  2  1  0
  2  3  1  0
  3  4  1  0
  4  5  1  0
  5  6  1  0
  6  7  1  0
  7  8  1  0
  7  9  1  0
  2 10  1  0
 10 11  1  0
 11 12  1  0
 12 13  1  0
 13 14  1  1
 13 15  1  0
 15 16  1  0
 16 17  1  0
 17 18  2  0
 18 19  1  0
 19 20  1  0
 20 21  1  0
 21 22  1  0
 22 23  1  0
 22 24  1  0
 24 25  1  0
 24 26  1  0
 19 27  1  0
 27 28  1  6
 27 29  1  0
 29 30  1  0
 30 31  1  0
 31 32  1  6
  7  5  1  0
 31 10  1  0
 31 13  1  0
 27 15  1  0
 24 18  1  0
  1 33  1  0
  1 34  1  0
  1 35  1  0
  2 36  1  6
  3 37  1  0
  3 38  1  0
  4 39  1  0
  4 40  1  0
  5 41  1  6
  8 42  1  0
  8 43  1  0
  8 44  1  0
  9 45  1  0
  9 46  1  0
  9 47  1  0
 10 48  1  1
 11 49  1  0
 11 50  1  0
 12 51  1  0
 12 52  1  0
 14 53  1  0
 14 54  1  0
 14 55  1  0
 15 56  1  6
 16 57  1  0
 16 58  1  0
 17 59  1  0
 19 60  1  1
 20 61  1  0
 20 62  1  0
 21 63  1  0
 21 64  1  0
 22 65  1  1
 23 66  1  0
 25 67  1  0
 25 68  1  0
 25 69  1  0
 26 70  1  0
 26 71  1  0
 26 72  1  0
 28 73  1  0
 28 74  1  0
 28 75  1  0
 29 76  1  0
 29 77  1  0
 30 78  1  0
 30 79  1  0
 32 80  1  0
 32 81  1  0
 32 82  1  0
M  END
>  <meeko>  (13) 
{"is_sidechain": [false], "intermolecular_energy": 2.731, "internal_energy": -0.839}

$$$$
EPH_relaxed_0001_pdb2pqr_Repair_61_r2_0001_out
     RDKit          3D

 82 86  0  0  0  0  0  0  0  0999 V2000
   -0.2120    9.1990   -1.7040 C   0  0  0  0  0  0  0  0  0  0  0  0
    0.7850   10.1810   -2.3260 C   0  0  2  0  0  0  0  0  0  0  0  0
    2.1810    9.5520   -2.5100 C   0  0  0  0  0  0  0  0  0  0  0  0
    2.9740   10.1450   -3.6780 C   0  0  0  0  0  0  0  0  0  0  0  0
    4.3360   10.5990   -3.2490 C   0  0  2  0  0  0  0  0  0  0  0  0
    4.7920   11.8030   -3.8790 O   0  0  0  0  0  0  0  0  0  0  0  0
    5.5420   10.6130   -4.1690 C   0  0  0  0  0  0  0  0  0  0  0  0
    5.4420   10.1620   -5.5930 C   0  0  0  0  0  0  0  0  0  0  0  0
    6.9090   10.5980   -3.5590 C   0  0  0  0  0  0  0  0  0  0  0  0
    0.8880   11.4330   -1.4630 C   0  0  1  0  0  0  0  0  0  0  0  0
    1.9870   11.3200   -0.3740 C   0  0  0  0  0  0  0  0  0  0  0  0
    2.6000   12.7350   -0.2080 C   0  0  0  0  0  0  0  0  0  0  0  0
    1.6220   13.6730   -0.9530 C   0  0  1  0  0  0  0  0  0  0  0  0
    0.4570   13.9220    0.0550 C   0  0  0  0  0  0  0  0  0  0  0  0
    2.2220   15.0160   -1.4840 C   0  0  2  0  0  0  0  0  0  0  0  0
    2.7600   15.9640   -0.3990 C   0  0  0  0  0  0  0  0  0  0  0  0
    1.7710   16.9450    0.1390 C   0  0  0  0  0  0  0  0  0  0  0  0
    0.5890   17.2530   -0.4260 C   0  0  0  0  0  0  0  0  0  0  0  0
    0.1860   16.6610   -1.7840 C   0  0  1  0  0  0  0  0  0  0  0  0
   -0.3720   17.7860   -2.6940 C   0  0  0  0  0  0  0  0  0  0  0  0
   -1.5100   18.5610   -2.0350 C   0  0  0  0  0  0  0  0  0  0  0  0
   -1.0540   19.1830   -0.7170 C   0  0  2  0  0  0  0  0  0  0  0  0
   -0.0790   20.1920   -0.9960 O   0  0  0  0  0  0  0  0  0  0  0  0
   -0.4630   18.1450    0.2780 C   0  0  0  0  0  0  0  0  0  0  0  0
   -1.5950   17.2330    0.8130 C   0  0  0  0  0  0  0  0  0  0  0  0
    0.0860   18.9210    1.5060 C   0  0  0  0  0  0  0  0  0  0  0  0
    1.2910   15.7810   -2.5110 C   0  0  1  0  0  0  0  0  0  0  0  0
    2.2250   16.6940   -3.3620 C   0  0  0  0  0  0  0  0  0  0  0  0
    0.5850   14.8020   -3.5220 C   0  0  0  0  0  0  0  0  0  0  0  0
    0.1220   13.4420   -2.9650 C   0  0  0  0  0  0  0  0  0  0  0  0
    1.2450   12.7610   -2.1770 C   0  0  2  0  0  0  0  0  0  0  0  0
    2.4230   12.4790   -3.1710 C   0  0  0  0  0  0  0  0  0  0  0  0
   -0.1506    9.2595   -0.6074 H   0  0  0  0  0  0  0  0  0  0  0  0
   -1.2310    9.4560   -2.0289 H   0  0  0  0  0  0  0  0  0  0  0  0
    0.0295    8.1762   -2.0289 H   0  0  0  0  0  0  0  0  0  0  0  0
    0.4084   10.4475   -3.3246 H   0  0  0  0  0  0  0  0  0  0  0  0
    2.7564    9.7069   -1.5854 H   0  0  0  0  0  0  0  0  0  0  0  0
    2.0265    8.4863   -2.7344 H   0  0  0  0  0  0  0  0  0  0  0  0
    3.0834    9.3791   -4.4600 H   0  0  0  0  0  0  0  0  0  0  0  0
    2.4245   11.0194   -4.0569 H   0  0  0  0  0  0  0  0  0  0  0  0
    4.1816   10.1859   -2.2413 H   0  0  0  0  0  0  0  0  0  0  0  0
    5.2040    9.0884   -5.6217 H   0  0  0  0  0  0  0  0  0  0  0  0
    4.6474   10.7275   -6.1018 H   0  0  0  0  0  0  0  0  0  0  0  0
    6.4011   10.3387   -6.1018 H   0  0  0  0  0  0  0  0  0  0  0  0
    6.8213   10.5990   -2.4625 H   0  0  0  0  0  0  0  0  0  0  0  0
    7.4453    9.6939   -3.8831 H   0  0  0  0  0  0  0  0  0  0  0  0
    7.4650   11.4901   -3.8831 H   0  0  0  0  0  0  0  0  0  0  0  0
   -0.1418   11.4770   -1.0788 H   0  0  0  0  0  0  0  0  0  0  0  0
    1.5457   10.9846    0.5761 H   0  0  0  0  0  0  0  0  0  0  0  0
    2.7556   10.5882   -0.6632 H   0  0  0  0  0  0  0  0  0  0  0  0
    2.6654   13.0076    0.8557 H   0  0  0  0  0  0  0  0  0  0  0  0
    3.6230   12.7962   -0.6076 H   0  0  0  0  0  0  0  0  0  0  0  0
    0.8384   13.8405    1.0836 H   0  0  0  0  0  0  0  0  0  0  0  0
    0.0434   14.9288   -0.1040 H   0  0  0  0  0  0  0  0  0  0  0  0
   -0.3320   13.1722   -0.1040 H   0  0  0  0  0  0  0  0  0  0  0  0
    3.1038   14.6746   -2.0460 H   0  0  0  0  0  0  0  0  0  0  0  0
    3.1209   15.3506    0.4397 H   0  0  0  0  0  0  0  0  0  0  0  0
    3.5490   16.5605   -0.8803 H   0  0  0  0  0  0  0  0  0  0  0  0
    2.0305   17.4593    1.0761 H   0  0  0  0  0  0  0  0  0  0  0  0
   -0.6040   15.9253   -1.5729 H   0  0  0  0  0  0  0  0  0  0  0  0
    0.4428   18.4869   -2.9282 H   0  0  0  0  0  0  0  0  0  0  0  0
   -0.7724   17.3128   -3.6027 H   0  0  0  0  0  0  0  0  0  0  0  0
   -1.8424   19.3598   -2.7143 H   0  0  0  0  0  0  0  0  0  0  0  0
   -2.3358   17.8645   -1.8278 H   0  0  0  0  0  0  0  0  0  0  0  0
   -1.9419   19.6132   -0.2306 H   0  0  0  0  0  0  0  0  0  0  0  0
    0.5470   19.8250   -1.6430 H   0  0  0  0  0  0  0  0  0  0  0  0
   -1.5840   17.2418    1.9129 H   0  0  0  0  0  0  0  0  0  0  0  0
   -2.5659   17.6042    0.4530 H   0  0  0  0  0  0  0  0  0  0  0  0
   -1.4390   16.2054    0.4530 H   0  0  0  0  0  0  0  0  0  0  0  0
   -0.2580   18.4347    2.4308 H   0  0  0  0  0  0  0  0  0  0  0  0
    1.1857   18.9202    1.4785 H   0  0  0  0  0  0  0  0  0  0  0  0
   -0.2808   19.9577    1.4785 H   0  0  0  0  0  0  0  0  0  0  0  0
    2.8495   17.3045   -2.6932 H   0  0  0  0  0  0  0  0  0  0  0  0
    2.8701   16.0686   -3.9966 H   0  0  0  0  0  0  0  0  0  0  0  0
    1.6144   17.3531   -3.9966 H   0  0  0  0  0  0  0  0  0  0  0  0
   -0.3014   15.3175   -3.9202 H   0  0  0  0  0  0  0  0  0  0  0  0
    1.3531   14.5594   -4.2711 H   0  0  0  0  0  0  0  0  0  0  0  0
   -0.7396   13.6002   -2.2997 H   0  0  0  0  0  0  0  0  0  0  0  0
   -0.1569   12.7940   -3.8090 H   0  0  0  0  0  0  0  0  0  0  0  0
    3.3385   12.2598   -2.6019 H   0  0  0  0  0  0  0  0  0  0  0  0
    2.1697   11.6161   -3.8045 H   0  0  0  0  0  0  0  0  0  0  0  0
    2.5878   13.3631   -3.8045 H   0  0  0  0  0  0  0  0  0  0  0  0
  1  2  1  0
  2  3  1  0
  3  4  1  0
  4  5  1  0
  5  6  1  0
  6  7  1  0
  7  8  1  0
  7  9  1  0
  2 10  1  0
 10 11  1  0
 11 12  1  0
 12 13  1  0
 13 14  1  1
 13 15  1  0
 15 16  1  0
 16 17  1  0
 17 18  2  0
 18 19  1  0
 19 20  1  0
 20 21  1  0
 21 22  1  0
 22 23  1  0
 22 24  1  0
 24 25  1  0
 24 26  1  0
 19 27  1  0
 27 28  1  6
 27 29  1  0
 29 30  1  0
 30 31  1  0
 31 32  1  6
  7  5  1  0
 31 10  1  0
 31 13  1  0
 27 15  1  0
 24 18  1  0
  1 33  1  0
  1 34  1  0
  1 35  1  0
  2 36  1  6
  3 37  1  0
  3 38  1  0
  4 39  1  0
  4 40  1  0
  5 41  1  1
  8 42  1  0
  8 43  1  0
  8 44  1  0
  9 45  1  0
  9 46  1  0
  9 47  1  0
 10 48  1  1
 11 49  1  0
 11 50  1  0
 12 51  1  0
 12 52  1  0
 14 53  1  0
 14 54  1  0
 14 55  1  0
 15 56  1  6
 16 57  1  0
 16 58  1  0
 17 59  1  0
 19 60  1  1
 20 61  1  0
 20 62  1  0
 21 63  1  0
 21 64  1  0
 22 65  1  1
 23 66  1  0
 25 67  1  0
 25 68  1  0
 25 69  1  0
 26 70  1  0
 26 71  1  0
 26 72  1  0
 28 73  1  0
 28 74  1  0
 28 75  1  0
 29 76  1  0
 29 77  1  0
 30 78  1  0
 30 79  1  0
 32 80  1  0
 32 81  1  0
 32 82  1  0
M  END
>  <meeko>  (14) 
{"is_sidechain": [false], "intermolecular_energy": 2.731, "internal_energy": -0.839}

$$$$
EPH_relaxed_0001_pdb2pqr_Repair_61_r2_0001_out
     RDKit          3D

 82 86  0  0  0  0  0  0  0  0999 V2000
  -15.2870    8.5260    0.3790 C   0  0  0  0  0  0  0  0  0  0  0  0
  -14.4590    8.9650   -0.8320 C   0  0  2  0  0  0  0  0  0  0  0  0
  -14.7610    8.1140   -2.0820 C   0  0  0  0  0  0  0  0  0  0  0  0
  -14.6730    8.8960   -3.3950 C   0  0  0  0  0  0  0  0  0  0  0  0
  -15.2870   10.2570   -3.2720 C   0  0  2  0  0  0  0  0  0  0  0  0
  -14.8690   11.1960   -4.2720 O   0  0  0  0  0  0  0  0  0  0  0  0
  -14.4970   11.5030   -2.9190 C   0  0  0  0  0  0  0  0  0  0  0  0
  -13.0230   11.4470   -2.6650 C   0  0  0  0  0  0  0  0  0  0  0  0
  -15.2290   12.6760   -2.3440 C   0  0  0  0  0  0  0  0  0  0  0  0
  -12.9740    8.8930   -0.4990 C   0  0  1  0  0  0  0  0  0  0  0  0
  -12.6920    9.0620    1.0180 C   0  0  0  0  0  0  0  0  0  0  0  0
  -11.4790    8.1550    1.3510 C   0  0  0  0  0  0  0  0  0  0  0  0
  -10.8990    7.7580   -0.0260 C   0  0  1  0  0  0  0  0  0  0  0  0
  -10.0280    8.9780   -0.4620 C   0  0  0  0  0  0  0  0  0  0  0  0
  -10.0880    6.4220   -0.0750 C   0  0  2  0  0  0  0  0  0  0  0  0
   -8.8160    6.4000    0.7900 C   0  0  0  0  0  0  0  0  0  0  0  0
   -7.5700    6.8550    0.1050 C   0  0  0  0  0  0  0  0  0  0  0  0
   -7.4150    6.9930   -1.2250 C   0  0  0  0  0  0  0  0  0  0  0  0
   -8.5320    6.5860   -2.1950 C   0  0  1  0  0  0  0  0  0  0  0  0
   -7.9300    5.7520   -3.3560 C   0  0  0  0  0  0  0  0  0  0  0  0
   -6.7820    6.4700   -4.0580 C   0  0  0  0  0  0  0  0  0  0  0  0
   -5.6660    6.8060   -3.0720 C   0  0  2  0  0  0  0  0  0  0  0  0
   -5.0710    5.5880   -2.6160 O   0  0  0  0  0  0  0  0  0  0  0  0
   -6.1550    7.6370   -1.8530 C   0  0  0  0  0  0  0  0  0  0  0  0
   -6.5190    9.0710   -2.3130 C   0  0  0  0  0  0  0  0  0  0  0  0
   -4.9640    7.7870   -0.8690 C   0  0  0  0  0  0  0  0  0  0  0  0
   -9.8010    5.8910   -1.5380 C   0  0  1  0  0  0  0  0  0  0  0  0
   -9.5620    4.3550   -1.4150 C   0  0  0  0  0  0  0  0  0  0  0  0
  -11.0390    6.0720   -2.4940 C   0  0  0  0  0  0  0  0  0  0  0  0
  -11.8720    7.3570   -2.3160 C   0  0  0  0  0  0  0  0  0  0  0  0
  -12.2300    7.5780   -0.8440 C   0  0  2  0  0  0  0  0  0  0  0  0
  -13.1250    6.3770   -0.3830 C   0  0  0  0  0  0  0  0  0  0  0  0
  -14.7606    8.8051    1.3037 H   0  0  0  0  0  0  0  0  0  0  0  0
  -16.2683    9.0223    0.3516 H   0  0  0  0  0  0  0  0  0  0  0  0
  -15.4269    7.4353    0.3516 H   0  0  0  0  0  0  0  0  0  0  0  0
  -14.7381   10.0032   -1.0650 H   0  0  0  0  0  0  0  0  0  0  0  0
  -14.0376    7.2863   -2.1216 H   0  0  0  0  0  0  0  0  0  0  0  0
  -15.7984    7.7607   -1.9873 H   0  0  0  0  0  0  0  0  0  0  0  0
  -13.6147    9.0063   -3.6739 H   0  0  0  0  0  0  0  0  0  0  0  0
  -15.2274    8.3381   -4.1640 H   0  0  0  0  0  0  0  0  0  0  0  0
  -16.2114    9.8276   -2.8584 H   0  0  0  0  0  0  0  0  0  0  0  0
  -12.8378   11.4400   -1.5807 H   0  0  0  0  0  0  0  0  0  0  0  0
  -12.6081   10.5324   -3.1138 H   0  0  0  0  0  0  0  0  0  0  0  0
  -12.5399   12.3274   -3.1138 H   0  0  0  0  0  0  0  0  0  0  0  0
  -15.1974   12.6254   -1.2456 H   0  0  0  0  0  0  0  0  0  0  0  0
  -14.7517   13.6076   -2.6820 H   0  0  0  0  0  0  0  0  0  0  0  0
  -16.2756   12.6567   -2.6820 H   0  0  0  0  0  0  0  0  0  0  0  0
  -12.6038    9.7120   -1.1332 H   0  0  0  0  0  0  0  0  0  0  0  0
  -12.4536   10.1117    1.2444 H   0  0  0  0  0  0  0  0  0  0  0  0
  -13.5711    8.7817    1.6169 H   0  0  0  0  0  0  0  0  0  0  0  0
  -10.7329    8.7060    1.9423 H   0  0  0  0  0  0  0  0  0  0  0  0
  -11.7657    7.2788    1.9511 H   0  0  0  0  0  0  0  0  0  0  0  0
   -9.6551    9.5003    0.4314 H   0  0  0  0  0  0  0  0  0  0  0  0
   -9.1766    8.6248   -1.0623 H   0  0  0  0  0  0  0  0  0  0  0  0
  -10.6385    9.6685   -1.0623 H   0  0  0  0  0  0  0  0  0  0  0  0
  -10.7810    5.7076    0.3933 H   0  0  0  0  0  0  0  0  0  0  0  0
   -8.9844    7.0538    1.6584 H   0  0  0  0  0  0  0  0  0  0  0  0
   -8.6484    5.3462    1.0572 H   0  0  0  0  0  0  0  0  0  0  0  0
   -6.7058    7.0980    0.7407 H   0  0  0  0  0  0  0  0  0  0  0  0
   -8.9516    7.5240   -2.5877 H   0  0  0  0  0  0  0  0  0  0  0  0
   -7.5552    4.8010   -2.9496 H   0  0  0  0  0  0  0  0  0  0  0  0
   -8.7257    5.5896   -4.0980 H   0  0  0  0  0  0  0  0  0  0  0  0
   -6.3802    5.8195   -4.8488 H   0  0  0  0  0  0  0  0  0  0  0  0
   -7.1644    7.4071   -4.4889 H   0  0  0  0  0  0  0  0  0  0  0  0
   -4.9335    7.4308   -3.6040 H   0  0  0  0  0  0  0  0  0  0  0  0
   -5.2260    5.5250   -1.6590 H   0  0  0  0  0  0  0  0  0  0  0  0
   -6.6809    9.7088   -1.4315 H   0  0  0  0  0  0  0  0  0  0  0  0
   -5.6967    9.4821   -2.9170 H   0  0  0  0  0  0  0  0  0  0  0  0
   -7.4378    9.0402   -2.9170 H   0  0  0  0  0  0  0  0  0  0  0  0
   -5.3350    7.7403    0.1655 H   0  0  0  0  0  0  0  0  0  0  0  0
   -4.2443    6.9724   -1.0376 H   0  0  0  0  0  0  0  0  0  0  0  0
   -4.4687    8.7546   -1.0376 H   0  0  0  0  0  0  0  0  0  0  0  0
   -9.5184    4.0747   -0.3522 H   0  0  0  0  0  0  0  0  0  0  0  0
  -10.3870    3.8153   -1.9030 H   0  0  0  0  0  0  0  0  0  0  0  0
   -8.6120    4.0915   -1.9030 H   0  0  0  0  0  0  0  0  0  0  0  0
  -10.6655    6.0580   -3.5286 H   0  0  0  0  0  0  0  0  0  0  0  0
  -11.7222    5.2483   -2.2397 H   0  0  0  0  0  0  0  0  0  0  0  0
  -11.2890    8.2168   -2.6776 H   0  0  0  0  0  0  0  0  0  0  0  0
  -12.8034    7.2540   -2.8920 H   0  0  0  0  0  0  0  0  0  0  0  0
  -13.1521    6.3406    0.7161 H   0  0  0  0  0  0  0  0  0  0  0  0
  -14.1457    6.5104   -0.7707 H   0  0  0  0  0  0  0  0  0  0  0  0
  -12.7054    5.4370   -0.7707 H   0  0  0  0  0  0  0  0  0  0  0  0
  1  2  1  0
  2  3  1  0
  3  4  1  0
  4  5  1  0
  5  6  1  0
  6  7  1  0
  7  8  1  0
  7  9  1  0
  2 10  1  0
 10 11  1  0
 11 12  1  0
 12 13  1  0
 13 14  1  6
 13 15  1  0
 15 16  1  0
 16 17  1  0
 17 18  2  0
 18 19  1  0
 19 20  1  0
 20 21  1  0
 21 22  1  0
 22 23  1  0
 22 24  1  0
 24 25  1  0
 24 26  1  0
 19 27  1  0
 27 28  1  1
 27 29  1  0
 29 30  1  0
 30 31  1  0
 31 32  1  1
  7  5  1  0
 31 10  1  0
 31 13  1  0
 27 15  1  0
 24 18  1  0
  1 33  1  0
  1 34  1  0
  1 35  1  0
  2 36  1  6
  3 37  1  0
  3 38  1  0
  4 39  1  0
  4 40  1  0
  5 41  1  1
  8 42  1  0
  8 43  1  0
  8 44  1  0
  9 45  1  0
  9 46  1  0
  9 47  1  0
 10 48  1  6
 11 49  1  0
 11 50  1  0
 12 51  1  0
 12 52  1  0
 14 53  1  0
 14 54  1  0
 14 55  1  0
 15 56  1  1
 16 57  1  0
 16 58  1  0
 17 59  1  0
 19 60  1  6
 20 61  1  0
 20 62  1  0
 21 63  1  0
 21 64  1  0
 22 65  1  6
 23 66  1  0
 25 67  1  0
 25 68  1  0
 25 69  1  0
 26 70  1  0
 26 71  1  0
 26 72  1  0
 28 73  1  0
 28 74  1  0
 28 75  1  0
 29 76  1  0
 29 77  1  0
 30 78  1  0
 30 79  1  0
 32 80  1  0
 32 81  1  0
 32 82  1  0
M  END
>  <meeko>  (15) 
{"is_sidechain": [false], "intermolecular_energy": 2.731, "internal_energy": -0.839}

$$$$
EPH_relaxed_0001_pdb2pqr_Repair_61_r2_0001_out
     RDKit          3D

 82 86  0  0  0  0  0  0  0  0999 V2000
    0.8710   14.8680   -2.5910 C   0  0  0  0  0  0  0  0  0  0  0  0
    1.1440   14.2020   -3.9420 C   0  0  2  0  0  0  0  0  0  0  0  0
    0.4500   14.9400   -5.1040 C   0  0  0  0  0  0  0  0  0  0  0  0
    1.0090   14.5800   -6.4830 C   0  0  0  0  0  0  0  0  0  0  0  0
    0.7760   15.6760   -7.4790 C   0  0  2  0  0  0  0  0  0  0  0  0
    0.3920   15.2270   -8.7850 O   0  0  0  0  0  0  0  0  0  0  0  0
    1.6560   15.9030   -8.6940 C   0  0  0  0  0  0  0  0  0  0  0  0
    2.8360   15.0270   -8.9770 C   0  0  0  0  0  0  0  0  0  0  0  0
    1.6630   17.2580   -9.3300 C   0  0  0  0  0  0  0  0  0  0  0  0
    0.6910   12.7470   -3.9050 C   0  0  1  0  0  0  0  0  0  0  0  0
    1.8200   11.7600   -4.3040 C   0  0  0  0  0  0  0  0  0  0  0  0
    1.6220   10.4830   -3.4460 C   0  0  0  0  0  0  0  0  0  0  0  0
    0.2110   10.6410   -2.8320 C   0  0  1  0  0  0  0  0  0  0  0  0
   -0.7700   10.1890   -3.9590 C   0  0  0  0  0  0  0  0  0  0  0  0
   -0.0510    9.8730   -1.4960 C   0  0  2  0  0  0  0  0  0  0  0  0
    0.0500    8.3410   -1.5930 C   0  0  0  0  0  0  0  0  0  0  0  0
   -1.2240    7.6370   -1.9210 C   0  0  0  0  0  0  0  0  0  0  0  0
   -2.4560    8.1750   -1.8490 C   0  0  0  0  0  0  0  0  0  0  0  0
   -2.6650    9.5960   -1.3100 C   0  0  1  0  0  0  0  0  0  0  0  0
   -3.8410    9.5980   -0.2980 C   0  0  0  0  0  0  0  0  0  0  0  0
   -5.1180    9.0030   -0.8850 C   0  0  0  0  0  0  0  0  0  0  0  0
   -4.8850    7.5710   -1.3570 C   0  0  2  0  0  0  0  0  0  0  0  0
   -4.6240    6.7460   -0.2170 O   0  0  0  0  0  0  0  0  0  0  0  0
   -3.7160    7.4420   -2.3730 C   0  0  0  0  0  0  0  0  0  0  0  0
   -4.1260    8.0840   -3.7220 C   0  0  0  0  0  0  0  0  0  0  0  0
   -3.4960    5.9320   -2.6600 C   0  0  0  0  0  0  0  0  0  0  0  0
   -1.3690   10.3180   -0.7400 C   0  0  1  0  0  0  0  0  0  0  0  0
   -1.1680    9.9460    0.7610 C   0  0  0  0  0  0  0  0  0  0  0  0
   -1.5870   11.8770   -0.7860 C   0  0  0  0  0  0  0  0  0  0  0  0
   -1.1970   12.5950   -2.0920 C   0  0  0  0  0  0  0  0  0  0  0  0
    0.2080   12.1870   -2.5440 C   0  0  2  0  0  0  0  0  0  0  0  0
    1.2190   12.6500   -1.4400 C   0  0  0  0  0  0  0  0  0  0  0  0
    1.1528   14.1806   -1.7798 H   0  0  0  0  0  0  0  0  0  0  0  0
    1.4631   15.7916   -2.5112 H   0  0  0  0  0  0  0  0  0  0  0  0
   -0.1990   15.1103   -2.5112 H   0  0  0  0  0  0  0  0  0  0  0  0
    2.2282   14.2497   -4.1213 H   0  0  0  0  0  0  0  0  0  0  0  0
   -0.6203   14.6868   -5.0863 H   0  0  0  0  0  0  0  0  0  0  0  0
    0.6296   16.0150   -4.9550 H   0  0  0  0  0  0  0  0  0  0  0  0
    2.0911   14.4033   -6.3940 H   0  0  0  0  0  0  0  0  0  0  0  0
    0.4902   13.6775   -6.8385 H   0  0  0  0  0  0  0  0  0  0  0  0
    0.4225   16.3525   -6.6869 H   0  0  0  0  0  0  0  0  0  0  0  0
    3.2826   14.6955   -8.0280 H   0  0  0  0  0  0  0  0  0  0  0  0
    2.5110   14.1497   -9.5555 H   0  0  0  0  0  0  0  0  0  0  0  0
    3.5817   15.5920   -9.5555 H   0  0  0  0  0  0  0  0  0  0  0  0
    1.6670   18.0306   -8.5470 H   0  0  0  0  0  0  0  0  0  0  0  0
    2.5617   17.3650   -9.9552 H   0  0  0  0  0  0  0  0  0  0  0  0
    0.7654   17.3742   -9.9552 H   0  0  0  0  0  0  0  0  0  0  0  0
   -0.1513   12.7979   -4.6107 H   0  0  0  0  0  0  0  0  0  0  0  0
    1.7467   11.5130   -5.3734 H   0  0  0  0  0  0  0  0  0  0  0  0
    2.8117   12.2030   -4.1298 H   0  0  0  0  0  0  0  0  0  0  0  0
    1.6736    9.5813   -4.0739 H   0  0  0  0  0  0  0  0  0  0  0  0
    2.4013   10.3713   -2.6778 H   0  0  0  0  0  0  0  0  0  0  0  0
   -1.6805    9.7695   -3.5061 H   0  0  0  0  0  0  0  0  0  0  0  0
   -1.0363   11.0552   -4.5825 H   0  0  0  0  0  0  0  0  0  0  0  0
   -0.2846    9.4238   -4.5825 H   0  0  0  0  0  0  0  0  0  0  0  0
    0.7979   10.1896   -0.8723 H   0  0  0  0  0  0  0  0  0  0  0  0
    0.7838    8.0978   -2.3756 H   0  0  0  0  0  0  0  0  0  0  0  0
    0.3412    7.9916   -0.5915 H   0  0  0  0  0  0  0  0  0  0  0  0
   -1.1504    6.5898   -2.2494 H   0  0  0  0  0  0  0  0  0  0  0  0
   -2.9208   10.2175   -2.1808 H   0  0  0  0  0  0  0  0  0  0  0  0
   -3.5493    9.0076    0.5831 H   0  0  0  0  0  0  0  0  0  0  0  0
   -4.0513   10.6444   -0.0319 H   0  0  0  0  0  0  0  0  0  0  0  0
   -5.9033    9.0050   -0.1148 H   0  0  0  0  0  0  0  0  0  0  0  0
   -5.4247    9.6119   -1.7483 H   0  0  0  0  0  0  0  0  0  0  0  0
   -5.7947    7.2462   -1.8832 H   0  0  0  0  0  0  0  0  0  0  0  0
   -5.3630    6.8610    0.4050 H   0  0  0  0  0  0  0  0  0  0  0  0
   -4.7091    8.9970   -3.5313 H   0  0  0  0  0  0  0  0  0  0  0  0
   -3.2231    8.3388   -4.2963 H   0  0  0  0  0  0  0  0  0  0  0  0
   -4.7370    7.3720   -4.2963 H   0  0  0  0  0  0  0  0  0  0  0  0
   -3.4164    5.3857   -1.7086 H   0  0  0  0  0  0  0  0  0  0  0  0
   -4.3466    5.5408   -3.2374 H   0  0  0  0  0  0  0  0  0  0  0  0
   -2.5691    5.7997   -3.2374 H   0  0  0  0  0  0  0  0  0  0  0  0
   -1.5953   10.7368    1.3951 H   0  0  0  0  0  0  0  0  0  0  0  0
   -1.6736    8.9925    0.9733 H   0  0  0  0  0  0  0  0  0  0  0  0
   -0.0933    9.8464    0.9733 H   0  0  0  0  0  0  0  0  0  0  0  0
   -2.6552   12.0690   -0.6070 H   0  0  0  0  0  0  0  0  0  0  0  0
   -0.9105   12.2848   -0.0205 H   0  0  0  0  0  0  0  0  0  0  0  0
   -1.9191   12.3292   -2.8781 H   0  0  0  0  0  0  0  0  0  0  0  0
   -1.2058   13.6801   -1.9115 H   0  0  0  0  0  0  0  0  0  0  0  0
    0.7912   12.4541   -0.4457 H   0  0  0  0  0  0  0  0  0  0  0  0
    2.1617   12.0939   -1.5496 H   0  0  0  0  0  0  0  0  0  0  0  0
    1.4138   13.7271   -1.5496 H   0  0  0  0  0  0  0  0  0  0  0  0
  1  2  1  0
  2  3  1  0
  3  4  1  0
  4  5  1  0
  5  6  1  0
  6  7  1  0
  7  8  1  0
  7  9  1  0
  2 10  1  0
 10 11  1  0
 11 12  1  0
 12 13  1  0
 13 14  1  6
 13 15  1  0
 15 16  1  0
 16 17  1  0
 17 18  2  0
 18 19  1  0
 19 20  1  0
 20 21  1  0
 21 22  1  0
 22 23  1  0
 22 24  1  0
 24 25  1  0
 24 26  1  0
 19 27  1  0
 27 28  1  1
 27 29  1  0
 29 30  1  0
 30 31  1  0
 31 32  1  1
  7  5  1  0
 31 10  1  0
 31 13  1  0
 27 15  1  0
 24 18  1  0
  1 33  1  0
  1 34  1  0
  1 35  1  0
  2 36  1  6
  3 37  1  0
  3 38  1  0
  4 39  1  0
  4 40  1  0
  5 41  1  1
  8 42  1  0
  8 43  1  0
  8 44  1  0
  9 45  1  0
  9 46  1  0
  9 47  1  0
 10 48  1  6
 11 49  1  0
 11 50  1  0
 12 51  1  0
 12 52  1  0
 14 53  1  0
 14 54  1  0
 14 55  1  0
 15 56  1  1
 16 57  1  0
 16 58  1  0
 17 59  1  0
 19 60  1  6
 20 61  1  0
 20 62  1  0
 21 63  1  0
 21 64  1  0
 22 65  1  6
 23 66  1  0
 25 67  1  0
 25 68  1  0
 25 69  1  0
 26 70  1  0
 26 71  1  0
 26 72  1  0
 28 73  1  0
 28 74  1  0
 28 75  1  0
 29 76  1  0
 29 77  1  0
 30 78  1  0
 30 79  1  0
 32 80  1  0
 32 81  1  0
 32 82  1  0
M  END
>  <meeko>  (16) 
{"is_sidechain": [false], "intermolecular_energy": 2.731, "internal_energy": -0.839}

$$$$
EPH_relaxed_0001_pdb2pqr_Repair_61_r2_0001_out
     RDKit          3D

 82 86  0  0  0  0  0  0  0  0999 V2000
  -13.9960    5.4340    0.4870 C   0  0  0  0  0  0  0  0  0  0  0  0
  -13.5200    6.8700    0.2520 C   0  0  2  0  0  0  0  0  0  0  0  0
  -14.6840    7.8170   -0.1040 C   0  0  0  0  0  0  0  0  0  0  0  0
  -14.3650    9.2970    0.1230 C   0  0  0  0  0  0  0  0  0  0  0  0
  -15.1410   10.1810   -0.8070 C   0  0  2  0  0  0  0  0  0  0  0  0
  -15.0160    9.8460   -2.1950 O   0  0  0  0  0  0  0  0  0  0  0  0
  -14.4920   11.1240   -1.8020 C   0  0  0  0  0  0  0  0  0  0  0  0
  -13.0030   11.2330   -1.9170 C   0  0  0  0  0  0  0  0  0  0  0  0
  -15.2870   12.2850   -2.3120 C   0  0  0  0  0  0  0  0  0  0  0  0
  -12.4710    6.8960   -0.8540 C   0  0  1  0  0  0  0  0  0  0  0  0
  -12.8470    7.8580   -2.0120 C   0  0  0  0  0  0  0  0  0  0  0  0
  -11.5210    8.4740   -2.5290 C   0  0  0  0  0  0  0  0  0  0  0  0
  -10.4120    7.6090   -1.8870 C   0  0  1  0  0  0  0  0  0  0  0  0
  -10.3210    6.3390   -2.7900 C   0  0  0  0  0  0  0  0  0  0  0  0
   -9.0170    8.2930   -1.7100 C   0  0  2  0  0  0  0  0  0  0  0  0
   -8.3290    8.7190   -3.0190 C   0  0  0  0  0  0  0  0  0  0  0  0
   -7.4350    7.6920   -3.6320 C   0  0  0  0  0  0  0  0  0  0  0  0
   -6.9690    6.5910   -3.0140 C   0  0  0  0  0  0  0  0  0  0  0  0
   -7.2600    6.3390   -1.5290 C   0  0  1  0  0  0  0  0  0  0  0  0
   -5.9520    5.9120   -0.8110 C   0  0  0  0  0  0  0  0  0  0  0  0
   -5.2770    4.7210   -1.4840 C   0  0  0  0  0  0  0  0  0  0  0  0
   -4.9520    5.0310   -2.9430 C   0  0  2  0  0  0  0  0  0  0  0  0
   -3.9500    6.0510   -2.9850 O   0  0  0  0  0  0  0  0  0  0  0  0
   -6.1920    5.4820   -3.7650 C   0  0  0  0  0  0  0  0  0  0  0  0
   -7.1430    4.2780   -3.9750 C   0  0  0  0  0  0  0  0  0  0  0  0
   -5.7020    5.8990   -5.1780 C   0  0  0  0  0  0  0  0  0  0  0  0
   -8.0230    7.5040   -0.7650 C   0  0  1  0  0  0  0  0  0  0  0  0
   -6.9980    8.5480   -0.2260 C   0  0  0  0  0  0  0  0  0  0  0  0
   -8.7490    6.9020    0.4960 C   0  0  0  0  0  0  0  0  0  0  0  0
  -10.1710    6.3500    0.2820 C   0  0  0  0  0  0  0  0  0  0  0  0
  -11.0440    7.3600   -0.4690 C   0  0  2  0  0  0  0  0  0  0  0  0
  -11.1720    8.6400    0.4250 C   0  0  0  0  0  0  0  0  0  0  0  0
  -14.0599    5.2412    1.5681 H   0  0  0  0  0  0  0  0  0  0  0  0
  -14.9876    5.2971    0.0309 H   0  0  0  0  0  0  0  0  0  0  0  0
  -13.2825    4.7319    0.0309 H   0  0  0  0  0  0  0  0  0  0  0  0
  -13.0775    7.2296    1.1927 H   0  0  0  0  0  0  0  0  0  0  0  0
  -14.9351    7.6748   -1.1655 H   0  0  0  0  0  0  0  0  0  0  0  0
  -15.5208    7.5626    0.5631 H   0  0  0  0  0  0  0  0  0  0  0  0
  -14.6185    9.5612    1.1603 H   0  0  0  0  0  0  0  0  0  0  0  0
  -13.2935    9.4506   -0.0725 H   0  0  0  0  0  0  0  0  0  0  0  0
  -15.9220   10.3334   -0.0475 H   0  0  0  0  0  0  0  0  0  0  0  0
  -12.5590   11.2655   -0.9111 H   0  0  0  0  0  0  0  0  0  0  0  0
  -12.6125   10.3610   -2.4622 H   0  0  0  0  0  0  0  0  0  0  0  0
  -12.7437   12.1525   -2.4622 H   0  0  0  0  0  0  0  0  0  0  0  0
  -15.6814   12.8610   -1.4619 H   0  0  0  0  0  0  0  0  0  0  0  0
  -14.6409   12.9311   -2.9245 H   0  0  0  0  0  0  0  0  0  0  0  0
  -16.1230   11.9162   -2.9245 H   0  0  0  0  0  0  0  0  0  0  0  0
  -12.4601    5.8295   -1.1231 H   0  0  0  0  0  0  0  0  0  0  0  0
  -13.3468    7.3023   -2.8191 H   0  0  0  0  0  0  0  0  0  0  0  0
  -13.5385    8.6408   -1.6669 H   0  0  0  0  0  0  0  0  0  0  0  0
  -11.4695    8.4194   -3.6264 H   0  0  0  0  0  0  0  0  0  0  0  0
  -11.4249    9.5377   -2.2658 H   0  0  0  0  0  0  0  0  0  0  0  0
  -10.2567    5.4423   -2.1562 H   0  0  0  0  0  0  0  0  0  0  0  0
  -11.2169    6.2757   -3.4251 H   0  0  0  0  0  0  0  0  0  0  0  0
   -9.4252    6.4041   -3.4251 H   0  0  0  0  0  0  0  0  0  0  0  0
   -9.2766    9.2272   -1.1906 H   0  0  0  0  0  0  0  0  0  0  0  0
   -9.1127    8.9675   -3.7498 H   0  0  0  0  0  0  0  0  0  0  0  0
   -7.6825    9.5706   -2.7604 H   0  0  0  0  0  0  0  0  0  0  0  0
   -7.1315    7.8487   -4.6776 H   0  0  0  0  0  0  0  0  0  0  0  0
   -7.9895    5.5164   -1.4968 H   0  0  0  0  0  0  0  0  0  0  0  0
   -5.2537    6.7619   -0.8156 H   0  0  0  0  0  0  0  0  0  0  0  0
   -6.2166    5.6107    0.2133 H   0  0  0  0  0  0  0  0  0  0  0  0
   -4.3447    4.4863   -0.9495 H   0  0  0  0  0  0  0  0  0  0  0  0
   -5.9650    3.8633   -1.4521 H   0  0  0  0  0  0  0  0  0  0  0  0
   -4.5914    4.1004   -3.4055 H   0  0  0  0  0  0  0  0  0  0  0  0
   -3.2520    5.7540   -3.5930 H   0  0  0  0  0  0  0  0  0  0  0  0
   -7.4553    3.8826   -2.9972 H   0  0  0  0  0  0  0  0  0  0  0  0
   -8.0294    4.6048   -4.5385 H   0  0  0  0  0  0  0  0  0  0  0  0
   -6.6198    3.4914   -4.5385 H   0  0  0  0  0  0  0  0  0  0  0  0
   -4.8675    6.6092   -5.0819 H   0  0  0  0  0  0  0  0  0  0  0  0
   -5.3636    5.0076   -5.7266 H   0  0  0  0  0  0  0  0  0  0  0  0
   -6.5278    6.3756   -5.7266 H   0  0  0  0  0  0  0  0  0  0  0  0
   -7.0081    8.5377    0.8739 H   0  0  0  0  0  0  0  0  0  0  0  0
   -5.9905    8.2922   -0.5858 H   0  0  0  0  0  0  0  0  0  0  0  0
   -7.2723    9.5507   -0.5858 H   0  0  0  0  0  0  0  0  0  0  0  0
   -8.1265    6.0789    0.8768 H   0  0  0  0  0  0  0  0  0  0  0  0
   -8.8702    7.7477    1.1890 H   0  0  0  0  0  0  0  0  0  0  0  0
  -10.1119    5.4204   -0.3031 H   0  0  0  0  0  0  0  0  0  0  0  0
  -10.6243    6.1577    1.2657 H   0  0  0  0  0  0  0  0  0  0  0  0
  -11.1431    8.3507    1.4859 H   0  0  0  0  0  0  0  0  0  0  0  0
  -10.3377    9.3234    0.2084 H   0  0  0  0  0  0  0  0  0  0  0  0
  -12.1251    9.1447    0.2084 H   0  0  0  0  0  0  0  0  0  0  0  0
  1  2  1  0
  2  3  1  0
  3  4  1  0
  4  5  1  0
  5  6  1  0
  6  7  1  0
  7  8  1  0
  7  9  1  0
  2 10  1  0
 10 11  1  0
 11 12  1  0
 12 13  1  0
 13 14  1  6
 13 15  1  0
 15 16  1  0
 16 17  1  0
 17 18  2  0
 18 19  1  0
 19 20  1  0
 20 21  1  0
 21 22  1  0
 22 23  1  0
 22 24  1  0
 24 25  1  0
 24 26  1  0
 19 27  1  0
 27 28  1  1
 27 29  1  0
 29 30  1  0
 30 31  1  0
 31 32  1  1
  7  5  1  0
 31 10  1  0
 31 13  1  0
 27 15  1  0
 24 18  1  0
  1 33  1  0
  1 34  1  0
  1 35  1  0
  2 36  1  1
  3 37  1  0
  3 38  1  0
  4 39  1  0
  4 40  1  0
  5 41  1  1
  8 42  1  0
  8 43  1  0
  8 44  1  0
  9 45  1  0
  9 46  1  0
  9 47  1  0
 10 48  1  6
 11 49  1  0
 11 50  1  0
 12 51  1  0
 12 52  1  0
 14 53  1  0
 14 54  1  0
 14 55  1  0
 15 56  1  1
 16 57  1  0
 16 58  1  0
 17 59  1  0
 19 60  1  6
 20 61  1  0
 20 62  1  0
 21 63  1  0
 21 64  1  0
 22 65  1  6
 23 66  1  0
 25 67  1  0
 25 68  1  0
 25 69  1  0
 26 70  1  0
 26 71  1  0
 26 72  1  0
 28 73  1  0
 28 74  1  0
 28 75  1  0
 29 76  1  0
 29 77  1  0
 30 78  1  0
 30 79  1  0
 32 80  1  0
 32 81  1  0
 32 82  1  0
M  END
>  <meeko>  (17) 
{"is_sidechain": [false], "intermolecular_energy": 2.731, "internal_energy": -0.839}

$$$$
EPH_relaxed_0001_pdb2pqr_Repair_61_r2_0001_out
     RDKit          3D

 82 86  0  0  0  0  0  0  0  0999 V2000
    0.1990    9.8910   -4.5700 C   0  0  0  0  0  0  0  0  0  0  0  0
    1.1850   10.6250   -3.6570 C   0  0  2  0  0  0  0  0  0  0  0  0
    1.6450    9.7490   -2.4740 C   0  0  0  0  0  0  0  0  0  0  0  0
    0.6420    8.6580   -2.0910 C   0  0  0  0  0  0  0  0  0  0  0  0
   -0.1530    9.0360   -0.8780 C   0  0  2  0  0  0  0  0  0  0  0  0
   -0.7090    7.9290   -0.1560 O   0  0  0  0  0  0  0  0  0  0  0  0
   -1.6510    8.8290   -0.7610 C   0  0  0  0  0  0  0  0  0  0  0  0
   -2.4440    8.2220   -1.8750 C   0  0  0  0  0  0  0  0  0  0  0  0
   -2.4130    9.6570    0.2270 C   0  0  0  0  0  0  0  0  0  0  0  0
    0.5530   11.9120   -3.1380 C   0  0  1  0  0  0  0  0  0  0  0  0
   -0.8230   11.6710   -2.4630 C   0  0  0  0  0  0  0  0  0  0  0  0
   -0.9310   12.6850   -1.2950 C   0  0  0  0  0  0  0  0  0  0  0  0
    0.2230   13.6850   -1.5380 C   0  0  1  0  0  0  0  0  0  0  0  0
   -0.3250   14.6750   -2.6140 C   0  0  0  0  0  0  0  0  0  0  0  0
    0.7600   14.4410   -0.2790 C   0  0  2  0  0  0  0  0  0  0  0  0
   -0.2640   15.3480    0.4240 C   0  0  0  0  0  0  0  0  0  0  0  0
   -0.3030   16.7600   -0.0600 C   0  0  0  0  0  0  0  0  0  0  0  0
    0.6400   17.3540   -0.8150 C   0  0  0  0  0  0  0  0  0  0  0  0
    1.9370   16.6200   -1.1780 C   0  0  1  0  0  0  0  0  0  0  0  0
    3.1480   17.5600   -0.9410 C   0  0  0  0  0  0  0  0  0  0  0  0
    3.0070   18.8910   -1.6730 C   0  0  0  0  0  0  0  0  0  0  0  0
    1.7360   19.6180   -1.2430 C   0  0  2  0  0  0  0  0  0  0  0  0
    1.8670   20.0030    0.1290 O   0  0  0  0  0  0  0  0  0  0  0  0
    0.4500   18.7650   -1.4260 C   0  0  0  0  0  0  0  0  0  0  0  0
    0.1430   18.6030   -2.9350 C   0  0  0  0  0  0  0  0  0  0  0  0
   -0.7400   19.5590   -0.8240 C   0  0  0  0  0  0  0  0  0  0  0  0
    2.1340   15.1910   -0.5110 C   0  0  1  0  0  0  0  0  0  0  0  0
    2.7990   15.3450    0.8920 C   0  0  0  0  0  0  0  0  0  0  0  0
    3.1360   14.3490   -1.3860 C   0  0  0  0  0  0  0  0  0  0  0  0
    2.5290   13.5290   -2.5420 C   0  0  0  0  0  0  0  0  0  0  0  0
    1.3340   12.7020   -2.0580 C   0  0  2  0  0  0  0  0  0  0  0  0
    1.8580   11.6820   -0.9910 C   0  0  0  0  0  0  0  0  0  0  0  0
   -0.5331    9.3460   -3.9561 H   0  0  0  0  0  0  0  0  0  0  0  0
   -0.3254   10.6203   -5.2049 H   0  0  0  0  0  0  0  0  0  0  0  0
    0.7472    9.1794   -5.2049 H   0  0  0  0  0  0  0  0  0  0  0  0
    2.0761   10.8634   -4.2562 H   0  0  0  0  0  0  0  0  0  0  0  0
    2.5952    9.2670   -2.7475 H   0  0  0  0  0  0  0  0  0  0  0  0
    1.7471   10.4126   -1.6027 H   0  0  0  0  0  0  0  0  0  0  0  0
   -0.0474    8.4963   -2.9328 H   0  0  0  0  0  0  0  0  0  0  0  0
    1.2045    7.7413   -1.8600 H   0  0  0  0  0  0  0  0  0  0  0  0
    0.4863    9.9143   -0.7050 H   0  0  0  0  0  0  0  0  0  0  0  0
   -3.2516    7.6039   -1.4558 H   0  0  0  0  0  0  0  0  0  0  0  0
   -2.8777    9.0211   -2.4942 H   0  0  0  0  0  0  0  0  0  0  0  0
   -1.7858    7.5947   -2.4942 H   0  0  0  0  0  0  0  0  0  0  0  0
   -2.1362    9.3562    1.2482 H   0  0  0  0  0  0  0  0  0  0  0  0
   -2.1704   10.7197    0.0793 H   0  0  0  0  0  0  0  0  0  0  0  0
   -3.4921    9.5033    0.0793 H   0  0  0  0  0  0  0  0  0  0  0  0
    0.5156   12.4901   -4.0731 H   0  0  0  0  0  0  0  0  0  0  0  0
   -1.6345   11.8385   -3.1865 H   0  0  0  0  0  0  0  0  0  0  0  0
   -0.9085   10.6369   -2.0979 H   0  0  0  0  0  0  0  0  0  0  0  0
   -1.9025   13.2005   -1.3170 H   0  0  0  0  0  0  0  0  0  0  0  0
   -0.8600   12.1973   -0.3116 H   0  0  0  0  0  0  0  0  0  0  0  0
   -0.7998   15.5327   -2.1151 H   0  0  0  0  0  0  0  0  0  0  0  0
    0.5052   15.0298   -3.2424 H   0  0  0  0  0  0  0  0  0  0  0  0
   -1.0664   14.1599   -3.2424 H   0  0  0  0  0  0  0  0  0  0  0  0
    0.9600   13.6179    0.4228 H   0  0  0  0  0  0  0  0  0  0  0  0
   -1.2626   14.9107    0.2774 H   0  0  0  0  0  0  0  0  0  0  0  0
    0.0452   15.3960    1.4785 H   0  0  0  0  0  0  0  0  0  0  0  0
   -1.1759   17.3659    0.2244 H   0  0  0  0  0  0  0  0  0  0  0  0
    1.8589   16.3750   -2.2475 H   0  0  0  0  0  0  0  0  0  0  0  0
    3.2349   17.7581    0.1375 H   0  0  0  0  0  0  0  0  0  0  0  0
    4.0437   17.0562   -1.3334 H   0  0  0  0  0  0  0  0  0  0  0  0
    3.8780   19.5223   -1.4432 H   0  0  0  0  0  0  0  0  0  0  0  0
    2.9498   18.6931   -2.7535 H   0  0  0  0  0  0  0  0  0  0  0  0
    1.6233   20.4978   -1.8936 H   0  0  0  0  0  0  0  0  0  0  0  0
    0.9930   20.2970    0.4370 H   0  0  0  0  0  0  0  0  0  0  0  0
   -0.8236   18.0930   -3.0598 H   0  0  0  0  0  0  0  0  0  0  0  0
    0.0981   19.5948   -3.4086 H   0  0  0  0  0  0  0  0  0  0  0  0
    0.9364   18.0061   -3.4086 H   0  0  0  0  0  0  0  0  0  0  0  0
   -0.6865   19.5233    0.2741 H   0  0  0  0  0  0  0  0  0  0  0  0
   -0.6899   20.6053   -1.1597 H   0  0  0  0  0  0  0  0  0  0  0  0
   -1.6869   19.1111   -1.1597 H   0  0  0  0  0  0  0  0  0  0  0  0
    2.0467   15.1708    1.6754 H   0  0  0  0  0  0  0  0  0  0  0  0
    3.6122   14.6114    0.9949 H   0  0  0  0  0  0  0  0  0  0  0  0
    3.2069   16.3614    0.9949 H   0  0  0  0  0  0  0  0  0  0  0  0
    3.8662   15.0474   -1.8208 H   0  0  0  0  0  0  0  0  0  0  0  0
    3.5636   13.6045   -0.6983 H   0  0  0  0  0  0  0  0  0  0  0  0
    2.1946   14.2157   -3.3336 H   0  0  0  0  0  0  0  0  0  0  0  0
    3.2977   12.8430   -2.9273 H   0  0  0  0  0  0  0  0  0  0  0  0
    1.6578   12.0716    0.0180 H   0  0  0  0  0  0  0  0  0  0  0  0
    1.3432   10.7186   -1.1209 H   0  0  0  0  0  0  0  0  0  0  0  0
    2.9410   11.5394   -1.1209 H   0  0  0  0  0  0  0  0  0  0  0  0
  1  2  1  0
  2  3  1  0
  3  4  1  0
  4  5  1  0
  5  6  1  0
  6  7  1  0
  7  8  1  0
  7  9  1  0
  2 10  1  0
 10 11  1  0
 11 12  1  0
 12 13  1  0
 13 14  1  6
 13 15  1  0
 15 16  1  0
 16 17  1  0
 17 18  2  0
 18 19  1  0
 19 20  1  0
 20 21  1  0
 21 22  1  0
 22 23  1  0
 22 24  1  0
 24 25  1  0
 24 26  1  0
 19 27  1  0
 27 28  1  1
 27 29  1  0
 29 30  1  0
 30 31  1  0
 31 32  1  1
  7  5  1  0
 31 10  1  0
 31 13  1  0
 27 15  1  0
 24 18  1  0
  1 33  1  0
  1 34  1  0
  1 35  1  0
  2 36  1  6
  3 37  1  0
  3 38  1  0
  4 39  1  0
  4 40  1  0
  5 41  1  1
  8 42  1  0
  8 43  1  0
  8 44  1  0
  9 45  1  0
  9 46  1  0
  9 47  1  0
 10 48  1  6
 11 49  1  0
 11 50  1  0
 12 51  1  0
 12 52  1  0
 14 53  1  0
 14 54  1  0
 14 55  1  0
 15 56  1  1
 16 57  1  0
 16 58  1  0
 17 59  1  0
 19 60  1  6
 20 61  1  0
 20 62  1  0
 21 63  1  0
 21 64  1  0
 22 65  1  6
 23 66  1  0
 25 67  1  0
 25 68  1  0
 25 69  1  0
 26 70  1  0
 26 71  1  0
 26 72  1  0
 28 73  1  0
 28 74  1  0
 28 75  1  0
 29 76  1  0
 29 77  1  0
 30 78  1  0
 30 79  1  0
 32 80  1  0
 32 81  1  0
 32 82  1  0
M  END
>  <meeko>  (18) 
{"is_sidechain": [false], "intermolecular_energy": 2.731, "internal_energy": -0.839}

$$$$
EPH_relaxed_0001_pdb2pqr_Repair_61_r2_0001_out
     RDKit          3D

 82 86  0  0  0  0  0  0  0  0999 V2000
    1.9000   16.1380   -0.6520 C   0  0  0  0  0  0  0  0  0  0  0  0
    1.8370   15.9040   -2.1640 C   0  0  2  0  0  0  0  0  0  0  0  0
    1.2830   17.1290   -2.9190 C   0  0  0  0  0  0  0  0  0  0  0  0
    1.2370   18.4040   -2.0720 C   0  0  0  0  0  0  0  0  0  0  0  0
   -0.1700   18.7900   -1.7270 C   0  0  2  0  0  0  0  0  0  0  0  0
   -0.3740   20.1940   -1.5270 O   0  0  0  0  0  0  0  0  0  0  0  0
   -0.5760   19.3540   -0.3790 C   0  0  0  0  0  0  0  0  0  0  0  0
    0.4260   19.5640    0.7130 C   0  0  0  0  0  0  0  0  0  0  0  0
   -2.0080   19.2430    0.0420 C   0  0  0  0  0  0  0  0  0  0  0  0
    0.9830   14.6780   -2.4650 C   0  0  1  0  0  0  0  0  0  0  0  0
    1.2370   14.1070   -3.8850 C   0  0  0  0  0  0  0  0  0  0  0  0
    1.0950   12.5660   -3.7800 C   0  0  0  0  0  0  0  0  0  0  0  0
    0.4440   12.3280   -2.3970 C   0  0  1  0  0  0  0  0  0  0  0  0
   -1.0800   12.5790   -2.6220 C   0  0  0  0  0  0  0  0  0  0  0  0
    0.7090   10.9340   -1.7400 C   0  0  2  0  0  0  0  0  0  0  0  0
    0.1640    9.7290   -2.5260 C   0  0  0  0  0  0  0  0  0  0  0  0
   -1.2270    9.3150   -2.1770 C   0  0  0  0  0  0  0  0  0  0  0  0
   -1.9050    9.7000   -1.0800 C   0  0  0  0  0  0  0  0  0  0  0  0
   -1.2360   10.5620   -0.0020 C   0  0  1  0  0  0  0  0  0  0  0  0
   -1.5480    9.9740    1.3990 C   0  0  0  0  0  0  0  0  0  0  0  0
   -3.0440    9.7970    1.6390 C   0  0  0  0  0  0  0  0  0  0  0  0
   -3.6630    8.8880    0.5810 C   0  0  2  0  0  0  0  0  0  0  0  0
   -3.1390    7.5660    0.7450 O   0  0  0  0  0  0  0  0  0  0  0  0
   -3.4050    9.3750   -0.8720 C   0  0  0  0  0  0  0  0  0  0  0  0
   -4.2240   10.6620   -1.1430 C   0  0  0  0  0  0  0  0  0  0  0  0
   -3.9580    8.2970   -1.8430 C   0  0  0  0  0  0  0  0  0  0  0  0
    0.3130   10.8530   -0.2100 C   0  0  1  0  0  0  0  0  0  0  0  0
    1.1590    9.6990    0.4080 C   0  0  0  0  0  0  0  0  0  0  0  0
    0.7010   12.1600    0.5780 C   0  0  0  0  0  0  0  0  0  0  0  0
    0.5300   13.4980   -0.1670 C   0  0  0  0  0  0  0  0  0  0  0  0
    1.1740   13.4380   -1.5560 C   0  0  2  0  0  0  0  0  0  0  0  0
    2.7110   13.2080   -1.3610 C   0  0  0  0  0  0  0  0  0  0  0  0
    1.6489   15.2052   -0.1258 H   0  0  0  0  0  0  0  0  0  0  0  0
    2.9155   16.4549   -0.3720 H   0  0  0  0  0  0  0  0  0  0  0  0
    1.1809   16.9219   -0.3720 H   0  0  0  0  0  0  0  0  0  0  0  0
    2.8658   15.7367   -2.5156 H   0  0  0  0  0  0  0  0  0  0  0  0
    1.9225   17.3162   -3.7942 H   0  0  0  0  0  0  0  0  0  0  0  0
    0.2463   16.8919   -3.2003 H   0  0  0  0  0  0  0  0  0  0  0  0
    1.7985   18.2342   -1.1414 H   0  0  0  0  0  0  0  0  0  0  0  0
    1.6829   19.2212   -2.6579 H   0  0  0  0  0  0  0  0  0  0  0  0
   -0.5698   17.9621   -2.3310 H   0  0  0  0  0  0  0  0  0  0  0  0
   -0.0691   19.4602    1.6898 H   0  0  0  0  0  0  0  0  0  0  0  0
    1.2259   18.8140    0.6258 H   0  0  0  0  0  0  0  0  0  0  0  0
    0.8575   20.5721    0.6258 H   0  0  0  0  0  0  0  0  0  0  0  0
   -2.0680   19.2384    1.1404 H   0  0  0  0  0  0  0  0  0  0  0  0
   -2.5736   20.1000   -0.3525 H   0  0  0  0  0  0  0  0  0  0  0  0
   -2.4348   18.3091   -0.3525 H   0  0  0  0  0  0  0  0  0  0  0  0
   -0.0176   15.1079   -2.3102 H   0  0  0  0  0  0  0  0  0  0  0  0
    0.4965   14.5082   -4.5926 H   0  0  0  0  0  0  0  0  0  0  0  0
    2.2359   14.3875   -4.2505 H   0  0  0  0  0  0  0  0  0  0  0  0
    0.4513   12.1796   -4.5840 H   0  0  0  0  0  0  0  0  0  0  0  0
    2.0612   12.0500   -3.8808 H   0  0  0  0  0  0  0  0  0  0  0  0
   -1.5855   12.6623   -1.6486 H   0  0  0  0  0  0  0  0  0  0  0  0
   -1.2183   13.5120   -3.1880 H   0  0  0  0  0  0  0  0  0  0  0  0
   -1.5102   11.7396   -3.1880 H   0  0  0  0  0  0  0  0  0  0  0  0
    1.8049   10.8532   -1.7906 H   0  0  0  0  0  0  0  0  0  0  0  0
    0.1842    9.9841   -3.5958 H   0  0  0  0  0  0  0  0  0  0  0  0
    0.8093    8.8778   -2.2631 H   0  0  0  0  0  0  0  0  0  0  0  0
   -1.7412    8.6382   -2.8752 H   0  0  0  0  0  0  0  0  0  0  0  0
   -1.6814   11.5636   -0.0940 H   0  0  0  0  0  0  0  0  0  0  0  0
   -1.0583    8.9929    1.4867 H   0  0  0  0  0  0  0  0  0  0  0  0
   -1.1708   10.6833    2.1504 H   0  0  0  0  0  0  0  0  0  0  0  0
   -3.1988    9.3504    2.6323 H   0  0  0  0  0  0  0  0  0  0  0  0
   -3.5277   10.7832    1.5807 H   0  0  0  0  0  0  0  0  0  0  0  0
   -4.7529    8.9048    0.7288 H   0  0  0  0  0  0  0  0  0  0  0  0
   -2.6180    7.3560   -0.0480 H   0  0  0  0  0  0  0  0  0  0  0  0
   -4.5152   11.1196   -0.1860 H   0  0  0  0  0  0  0  0  0  0  0  0
   -3.6114   11.3722   -1.7177 H   0  0  0  0  0  0  0  0  0  0  0  0
   -5.1269   10.4079   -1.7177 H   0  0  0  0  0  0  0  0  0  0  0  0
   -4.3846    7.4654   -1.2630 H   0  0  0  0  0  0  0  0  0  0  0  0
   -4.7397    8.7409   -2.4769 H   0  0  0  0  0  0  0  0  0  0  0  0
   -3.1414    7.9210   -2.4769 H   0  0  0  0  0  0  0  0  0  0  0  0
    1.1149    9.7592    1.5055 H   0  0  0  0  0  0  0  0  0  0  0  0
    0.7552    8.7307    0.0773 H   0  0  0  0  0  0  0  0  0  0  0  0
    2.2039    9.7927    0.0773 H   0  0  0  0  0  0  0  0  0  0  0  0
    0.0764   12.2008    1.4826 H   0  0  0  0  0  0  0  0  0  0  0  0
    1.7811   12.0720    0.7666 H   0  0  0  0  0  0  0  0  0  0  0  0
   -0.5429   13.7143   -0.2768 H   0  0  0  0  0  0  0  0  0  0  0  0
    1.0245   14.2895    0.4152 H   0  0  0  0  0  0  0  0  0  0  0  0
    2.9431   13.1733   -0.2863 H   0  0  0  0  0  0  0  0  0  0  0  0
    3.0017   12.2563   -1.8299 H   0  0  0  0  0  0  0  0  0  0  0  0
    3.2676   14.0329   -1.8299 H   0  0  0  0  0  0  0  0  0  0  0  0
  1  2  1  0
  2  3  1  0
  3  4  1  0
  4  5  1  0
  5  6  1  0
  6  7  1  0
  7  8  1  0
  7  9  1  0
  2 10  1  0
 10 11  1  0
 11 12  1  0
 12 13  1  0
 13 14  1  6
 13 15  1  0
 15 16  1  0
 16 17  1  0
 17 18  2  0
 18 19  1  0
 19 20  1  0
 20 21  1  0
 21 22  1  0
 22 23  1  0
 22 24  1  0
 24 25  1  0
 24 26  1  0
 19 27  1  0
 27 28  1  1
 27 29  1  0
 29 30  1  0
 30 31  1  0
 31 32  1  1
  7  5  1  0
 31 10  1  0
 31 13  1  0
 27 15  1  0
 24 18  1  0
  1 33  1  0
  1 34  1  0
  1 35  1  0
  2 36  1  6
  3 37  1  0
  3 38  1  0
  4 39  1  0
  4 40  1  0
  5 41  1  6
  8 42  1  0
  8 43  1  0
  8 44  1  0
  9 45  1  0
  9 46  1  0
  9 47  1  0
 10 48  1  6
 11 49  1  0
 11 50  1  0
 12 51  1  0
 12 52  1  0
 14 53  1  0
 14 54  1  0
 14 55  1  0
 15 56  1  1
 16 57  1  0
 16 58  1  0
 17 59  1  0
 19 60  1  1
 20 61  1  0
 20 62  1  0
 21 63  1  0
 21 64  1  0
 22 65  1  1
 23 66  1  0
 25 67  1  0
 25 68  1  0
 25 69  1  0
 26 70  1  0
 26 71  1  0
 26 72  1  0
 28 73  1  0
 28 74  1  0
 28 75  1  0
 29 76  1  0
 29 77  1  0
 30 78  1  0
 30 79  1  0
 32 80  1  0
 32 81  1  0
 32 82  1  0
M  END
>  <meeko>  (19) 
{"is_sidechain": [false], "intermolecular_energy": 2.731, "internal_energy": -0.839}

$$$$
