EPH_relaxed_0001_pdb2pqr_Repair_224_r2_0001_out
     RDKit          3D

 82 86  0  0  0  0  0  0  0  0999 V2000
   -1.8060    8.2130   -1.9560 C   0  0  0  0  0  0  0  0  0  0  0  0
   -2.0920    8.8130   -0.5770 C   0  0  2  0  0  0  0  0  0  0  0  0
   -3.5440    9.3160   -0.4530 C   0  0  0  0  0  0  0  0  0  0  0  0
   -4.5730    8.1940   -0.2900 C   0  0  0  0  0  0  0  0  0  0  0  0
   -5.2510    7.8710   -1.5870 C   0  0  2  0  0  0  0  0  0  0  0  0
   -6.3920    8.6860   -1.8850 O   0  0  0  0  0  0  0  0  0  0  0  0
   -6.6480    7.2870   -1.6780 C   0  0  0  0  0  0  0  0  0  0  0  0
   -7.4510    6.9910   -0.4500 C   0  0  0  0  0  0  0  0  0  0  0  0
   -7.0380    6.5550   -2.9240 C   0  0  0  0  0  0  0  0  0  0  0  0
   -1.1200    9.9530   -0.2940 C   0  0  1  0  0  0  0  0  0  0  0  0
    0.0520    9.5230    0.6280 C   0  0  0  0  0  0  0  0  0  0  0  0
    1.3030   10.3090    0.1580 C   0  0  0  0  0  0  0  0  0  0  0  0
    0.7460   11.3980   -0.7890 C   0  0  1  0  0  0  0  0  0  0  0  0
    0.2350   12.5300    0.1580 C   0  0  0  0  0  0  0  0  0  0  0  0
    1.7360   11.9500   -1.8660 C   0  0  2  0  0  0  0  0  0  0  0  0
    2.9780   12.6630   -1.3060 C   0  0  0  0  0  0  0  0  0  0  0  0
    2.8290   14.1340   -1.0960 C   0  0  0  0  0  0  0  0  0  0  0  0
    1.8490   14.9010   -1.6080 C   0  0  0  0  0  0  0  0  0  0  0  0
    0.8100   14.3130   -2.5720 C   0  0  1  0  0  0  0  0  0  0  0  0
    0.6350   15.2620   -3.7870 C   0  0  0  0  0  0  0  0  0  0  0  0
    0.3010   16.6910   -3.3700 C   0  0  0  0  0  0  0  0  0  0  0  0
    1.3860   17.2610   -2.4600 C   0  0  2  0  0  0  0  0  0  0  0  0
    2.5920   17.4060   -3.2160 O   0  0  0  0  0  0  0  0  0  0  0  0
    1.6570   16.3840   -1.2060 C   0  0  0  0  0  0  0  0  0  0  0  0
    0.4510   16.4730   -0.2380 C   0  0  0  0  0  0  0  0  0  0  0  0
    2.8670   16.9950   -0.4480 C   0  0  0  0  0  0  0  0  0  0  0  0
    1.0440   12.8020   -3.0060 C   0  0  1  0  0  0  0  0  0  0  0  0
    1.9930   12.7450   -4.2420 C   0  0  0  0  0  0  0  0  0  0  0  0
   -0.3270   12.1820   -3.4690 C   0  0  0  0  0  0  0  0  0  0  0  0
   -1.2060   11.5460   -2.3750 C   0  0  0  0  0  0  0  0  0  0  0  0
   -0.3910   10.5830   -1.5070 C   0  0  2  0  0  0  0  0  0  0  0  0
    0.1170    9.4220   -2.4280 C   0  0  0  0  0  0  0  0  0  0  0  0
   -1.3355    7.2260   -1.8360 H   0  0  0  0  0  0  0  0  0  0  0  0
   -2.7492    8.1045   -2.5115 H   0  0  0  0  0  0  0  0  0  0  0  0
   -1.1277    8.8774   -2.5115 H   0  0  0  0  0  0  0  0  0  0  0  0
   -1.9544    8.0141    0.1665 H   0  0  0  0  0  0  0  0  0  0  0  0
   -3.6088    9.9766    0.4242 H   0  0  0  0  0  0  0  0  0  0  0  0
   -3.7842    9.8382   -1.3909 H   0  0  0  0  0  0  0  0  0  0  0  0
   -4.0621    7.2926    0.0793 H   0  0  0  0  0  0  0  0  0  0  0  0
   -5.3395    8.5325    0.4226 H   0  0  0  0  0  0  0  0  0  0  0  0
   -4.2946    7.5692   -2.0389 H   0  0  0  0  0  0  0  0  0  0  0  0
   -6.8494    7.2128    0.4438 H   0  0  0  0  0  0  0  0  0  0  0  0
   -8.3575    7.6141   -0.4457 H   0  0  0  0  0  0  0  0  0  0  0  0
   -7.7362    5.9286   -0.4457 H   0  0  0  0  0  0  0  0  0  0  0  0
   -7.5395    5.6138   -2.6546 H   0  0  0  0  0  0  0  0  0  0  0  0
   -7.7232    7.1790   -3.5166 H   0  0  0  0  0  0  0  0  0  0  0  0
   -6.1379    6.3343   -3.5166 H   0  0  0  0  0  0  0  0  0  0  0  0
   -1.8144   10.6826    0.1481 H   0  0  0  0  0  0  0  0  0  0  0  0
   -0.1793    9.7700    1.6747 H   0  0  0  0  0  0  0  0  0  0  0  0
    0.2226    8.4379    0.5696 H   0  0  0  0  0  0  0  0  0  0  0  0
    1.8189   10.7665    1.0151 H   0  0  0  0  0  0  0  0  0  0  0  0
    2.0405    9.6614   -0.3387 H   0  0  0  0  0  0  0  0  0  0  0  0
    0.3738   12.2226    1.2050 H   0  0  0  0  0  0  0  0  0  0  0  0
    0.8043   13.4519   -0.0320 H   0  0  0  0  0  0  0  0  0  0  0  0
   -0.8329   12.7128   -0.0320 H   0  0  0  0  0  0  0  0  0  0  0  0
    2.1088   11.0290   -2.3380 H   0  0  0  0  0  0  0  0  0  0  0  0
    3.2249   12.2047   -0.3370 H   0  0  0  0  0  0  0  0  0  0  0  0
    3.7658   12.5422   -2.0642 H   0  0  0  0  0  0  0  0  0  0  0  0
    3.5838   14.6325   -0.4701 H   0  0  0  0  0  0  0  0  0  0  0  0
   -0.1314   14.2546   -2.0059 H   0  0  0  0  0  0  0  0  0  0  0  0
    1.5716   15.2728   -4.3637 H   0  0  0  0  0  0  0  0  0  0  0  0
   -0.2058   14.8842   -4.3873 H   0  0  0  0  0  0  0  0  0  0  0  0
    0.2191   17.3188   -4.2696 H   0  0  0  0  0  0  0  0  0  0  0  0
   -0.6510   16.6827   -2.8190 H   0  0  0  0  0  0  0  0  0  0  0  0
    1.0295   18.2338   -2.0906 H   0  0  0  0  0  0  0  0  0  0  0  0
    2.3850   17.9420   -4.0000 H   0  0  0  0  0  0  0  0  0  0  0  0
    0.8119   16.4464    0.8008 H   0  0  0  0  0  0  0  0  0  0  0  0
   -0.0915   17.4136   -0.4137 H   0  0  0  0  0  0  0  0  0  0  0  0
   -0.2237   15.6222   -0.4137 H   0  0  0  0  0  0  0  0  0  0  0  0
    2.7008   16.9111    0.6361 H   0  0  0  0  0  0  0  0  0  0  0  0
    3.7834   16.4516   -0.7216 H   0  0  0  0  0  0  0  0  0  0  0  0
    2.9738   18.0551   -0.7216 H   0  0  0  0  0  0  0  0  0  0  0  0
    3.0367   12.6823   -3.9003 H   0  0  0  0  0  0  0  0  0  0  0  0
    1.7520   11.8597   -4.8488 H   0  0  0  0  0  0  0  0  0  0  0  0
    1.8597   13.6528   -4.8488 H   0  0  0  0  0  0  0  0  0  0  0  0
   -0.9124   12.9844   -3.9417 H   0  0  0  0  0  0  0  0  0  0  0  0
   -0.0564   11.3529   -4.1393 H   0  0  0  0  0  0  0  0  0  0  0  0
   -1.6198   12.3418   -1.7382 H   0  0  0  0  0  0  0  0  0  0  0  0
   -2.0153   10.9808   -2.8603 H   0  0  0  0  0  0  0  0  0  0  0  0
    0.4803    8.5917   -1.8046 H   0  0  0  0  0  0  0  0  0  0  0  0
   -0.7091    9.0695   -3.0630 H   0  0  0  0  0  0  0  0  0  0  0  0
    0.9365    9.7896   -3.0630 H   0  0  0  0  0  0  0  0  0  0  0  0
  1  2  1  0
  2  3  1  0
  3  4  1  0
  4  5  1  0
  5  6  1  0
  6  7  1  0
  7  8  1  0
  7  9  1  0
  2 10  1  0
 10 11  1  0
 11 12  1  0
 12 13  1  0
 13 14  1  1
 13 15  1  0
 15 16  1  0
 16 17  1  0
 17 18  2  0
 18 19  1  0
 19 20  1  0
 20 21  1  0
 21 22  1  0
 22 23  1  0
 22 24  1  0
 24 25  1  0
 24 26  1  0
 19 27  1  0
 27 28  1  6
 27 29  1  0
 29 30  1  0
 30 31  1  0
 31 32  1  6
  7  5  1  0
 31 10  1  0
 31 13  1  0
 27 15  1  0
 24 18  1  0
  1 33  1  0
  1 34  1  0
  1 35  1  0
  2 36  1  1
  3 37  1  0
  3 38  1  0
  4 39  1  0
  4 40  1  0
  5 41  1  6
  8 42  1  0
  8 43  1  0
  8 44  1  0
  9 45  1  0
  9 46  1  0
  9 47  1  0
 10 48  1  1
 11 49  1  0
 11 50  1  0
 12 51  1  0
 12 52  1  0
 14 53  1  0
 14 54  1  0
 14 55  1  0
 15 56  1  6
 16 57  1  0
 16 58  1  0
 17 59  1  0
 19 60  1  1
 20 61  1  0
 20 62  1  0
 21 63  1  0
 21 64  1  0
 22 65  1  1
 23 66  1  0
 25 67  1  0
 25 68  1  0
 25 69  1  0
 26 70  1  0
 26 71  1  0
 26 72  1  0
 28 73  1  0
 28 74  1  0
 28 75  1  0
 29 76  1  0
 29 77  1  0
 30 78  1  0
 30 79  1  0
 32 80  1  0
 32 81  1  0
 32 82  1  0
M  END
>  <meeko>  (1) 
{"is_sidechain": [false], "intermolecular_energy": 2.731, "internal_energy": -0.839}

$$$$
EPH_relaxed_0001_pdb2pqr_Repair_224_r2_0001_out
     RDKit          3D

 82 86  0  0  0  0  0  0  0  0999 V2000
   -5.1190    5.9170   -1.7370 C   0  0  0  0  0  0  0  0  0  0  0  0
   -5.4380    7.4140   -1.7880 C   0  0  2  0  0  0  0  0  0  0  0  0
   -5.2220    8.1010   -0.4250 C   0  0  0  0  0  0  0  0  0  0  0  0
   -4.1650    9.2080   -0.4550 C   0  0  0  0  0  0  0  0  0  0  0  0
   -2.8120    8.6740   -0.8140 C   0  0  2  0  0  0  0  0  0  0  0  0
   -1.7770    8.9800    0.1300 O   0  0  0  0  0  0  0  0  0  0  0  0
   -1.6330    9.5570   -1.1780 C   0  0  0  0  0  0  0  0  0  0  0  0
   -1.7540   11.0480   -1.2020 C   0  0  0  0  0  0  0  0  0  0  0  0
   -0.5150    8.9650   -1.9780 C   0  0  0  0  0  0  0  0  0  0  0  0
   -6.8730    7.6240   -2.2560 C   0  0  1  0  0  0  0  0  0  0  0  0
   -7.1710    6.9200   -3.6070 C   0  0  0  0  0  0  0  0  0  0  0  0
   -8.6410    6.4320   -3.5430 C   0  0  0  0  0  0  0  0  0  0  0  0
   -9.2380    7.1520   -2.3100 C   0  0  1  0  0  0  0  0  0  0  0  0
   -9.6020    8.5820   -2.8190 C   0  0  0  0  0  0  0  0  0  0  0  0
  -10.4580    6.4540   -1.6260 C   0  0  2  0  0  0  0  0  0  0  0  0
  -11.7090    6.3120   -2.5110 C   0  0  0  0  0  0  0  0  0  0  0  0
  -12.6750    7.4480   -2.4360 C   0  0  0  0  0  0  0  0  0  0  0  0
  -12.6900    8.4000   -1.4850 C   0  0  0  0  0  0  0  0  0  0  0  0
  -11.7270    8.3380   -0.2920 C   0  0  1  0  0  0  0  0  0  0  0  0
  -12.5090    8.6140    1.0200 C   0  0  0  0  0  0  0  0  0  0  0  0
  -13.2920    9.9220    0.9700 C   0  0  0  0  0  0  0  0  0  0  0  0
  -14.2790    9.9230   -0.1940 C   0  0  2  0  0  0  0  0  0  0  0  0
  -15.2870    8.9390    0.0560 O   0  0  0  0  0  0  0  0  0  0  0  0
  -13.6070    9.6450   -1.5680 C   0  0  0  0  0  0  0  0  0  0  0  0
  -12.7410   10.8610   -1.9790 C   0  0  0  0  0  0  0  0  0  0  0  0
  -14.7300    9.5330   -2.6340 C   0  0  0  0  0  0  0  0  0  0  0  0
  -10.8210    7.0350   -0.2000 C   0  0  1  0  0  0  0  0  0  0  0  0
  -11.5860    5.9080    0.5590 C   0  0  0  0  0  0  0  0  0  0  0  0
   -9.5410    7.3590    0.6580 C   0  0  0  0  0  0  0  0  0  0  0  0
   -8.3270    7.9350   -0.0950 C   0  0  0  0  0  0  0  0  0  0  0  0
   -8.0050    7.0980   -1.3370 C   0  0  2  0  0  0  0  0  0  0  0  0
   -7.6120    5.6590   -0.8550 C   0  0  0  0  0  0  0  0  0  0  0  0
   -5.0498    5.5924   -0.6883 H   0  0  0  0  0  0  0  0  0  0  0  0
   -5.9174    5.3545   -2.2430 H   0  0  0  0  0  0  0  0  0  0  0  0
   -4.1606    5.7289   -2.2430 H   0  0  0  0  0  0  0  0  0  0  0  0
   -4.7423    7.8761   -2.5038 H   0  0  0  0  0  0  0  0  0  0  0  0
   -6.1771    8.5413   -0.1027 H   0  0  0  0  0  0  0  0  0  0  0  0
   -4.8600    7.3294    0.2704 H   0  0  0  0  0  0  0  0  0  0  0  0
   -4.4596    9.9619   -1.1999 H   0  0  0  0  0  0  0  0  0  0  0  0
   -4.1031    9.6498    0.5505 H   0  0  0  0  0  0  0  0  0  0  0  0
   -3.2627    7.8027   -1.3118 H   0  0  0  0  0  0  0  0  0  0  0  0
   -1.7850   11.4300   -0.1709 H   0  0  0  0  0  0  0  0  0  0  0  0
   -0.8878   11.4778   -1.7264 H   0  0  0  0  0  0  0  0  0  0  0  0
   -2.6782   11.3325   -1.7264 H   0  0  0  0  0  0  0  0  0  0  0  0
    0.2487    8.5606   -1.2974 H   0  0  0  0  0  0  0  0  0  0  0  0
   -0.9064    8.1559   -2.6122 H   0  0  0  0  0  0  0  0  0  0  0  0
   -0.0658    9.7434   -2.6122 H   0  0  0  0  0  0  0  0  0  0  0  0
   -6.8959    8.7232   -2.2910 H   0  0  0  0  0  0  0  0  0  0  0  0
   -7.0428    7.6278   -4.4392 H   0  0  0  0  0  0  0  0  0  0  0  0
   -6.4826    6.0784   -3.7738 H   0  0  0  0  0  0  0  0  0  0  0  0
   -9.1837    6.7133   -4.4575 H   0  0  0  0  0  0  0  0  0  0  0  0
   -8.7140    5.3374   -3.4628 H   0  0  0  0  0  0  0  0  0  0  0  0
   -9.7709    9.2456   -1.9582 H   0  0  0  0  0  0  0  0  0  0  0  0
   -8.7754    8.9756   -3.4288 H   0  0  0  0  0  0  0  0  0  0  0  0
  -10.5162    8.5325   -3.4288 H   0  0  0  0  0  0  0  0  0  0  0  0
  -10.0866    5.4307   -1.4682 H   0  0  0  0  0  0  0  0  0  0  0  0
  -11.3775    6.2160   -3.5554 H   0  0  0  0  0  0  0  0  0  0  0  0
  -12.2478    5.4289   -2.1372 H   0  0  0  0  0  0  0  0  0  0  0  0
  -13.4390    7.5122   -3.2248 H   0  0  0  0  0  0  0  0  0  0  0  0
  -10.9849    9.1328   -0.4581 H   0  0  0  0  0  0  0  0  0  0  0  0
  -13.2142    7.7872    1.1908 H   0  0  0  0  0  0  0  0  0  0  0  0
  -11.7751    8.6951    1.8354 H   0  0  0  0  0  0  0  0  0  0  0  0
  -13.8463   10.0459    1.9120 H   0  0  0  0  0  0  0  0  0  0  0  0
  -12.5824   10.7507    0.8292 H   0  0  0  0  0  0  0  0  0  0  0  0
  -14.7143   10.9313   -0.2563 H   0  0  0  0  0  0  0  0  0  0  0  0
  -15.4710    8.4850   -0.7840 H   0  0  0  0  0  0  0  0  0  0  0  0
  -12.3762   11.3732   -1.0764 H   0  0  0  0  0  0  0  0  0  0  0  0
  -11.8842   10.5158   -2.5763 H   0  0  0  0  0  0  0  0  0  0  0  0
  -13.3474   11.5579   -2.5763 H   0  0  0  0  0  0  0  0  0  0  0  0
  -15.7039    9.4359   -2.1318 H   0  0  0  0  0  0  0  0  0  0  0  0
  -14.7301   10.4356   -3.2627 H   0  0  0  0  0  0  0  0  0  0  0  0
  -14.5518    8.6482   -3.2627 H   0  0  0  0  0  0  0  0  0  0  0  0
  -11.4824    6.0607    1.6434 H   0  0  0  0  0  0  0  0  0  0  0  0
  -12.6508    5.9386    0.2845 H   0  0  0  0  0  0  0  0  0  0  0  0
  -11.1645    4.9297    0.2845 H   0  0  0  0  0  0  0  0  0  0  0  0
   -9.8323    8.0892    1.4274 H   0  0  0  0  0  0  0  0  0  0  0  0
   -9.2030    6.3877    1.0483 H   0  0  0  0  0  0  0  0  0  0  0  0
   -8.5516    8.9664   -0.4044 H   0  0  0  0  0  0  0  0  0  0  0  0
   -7.4560    7.9157    0.5766 H   0  0  0  0  0  0  0  0  0  0  0  0
   -7.6041    5.6300    0.2446 H   0  0  0  0  0  0  0  0  0  0  0  0
   -8.3445    4.9320   -1.2357 H   0  0  0  0  0  0  0  0  0  0  0  0
   -6.6117    5.4052   -1.2357 H   0  0  0  0  0  0  0  0  0  0  0  0
  1  2  1  0
  2  3  1  0
  3  4  1  0
  4  5  1  0
  5  6  1  0
  6  7  1  0
  7  8  1  0
  7  9  1  0
  2 10  1  0
 10 11  1  0
 11 12  1  0
 12 13  1  0
 13 14  1  6
 13 15  1  0
 15 16  1  0
 16 17  1  0
 17 18  2  0
 18 19  1  0
 19 20  1  0
 20 21  1  0
 21 22  1  0
 22 23  1  0
 22 24  1  0
 24 25  1  0
 24 26  1  0
 19 27  1  0
 27 28  1  1
 27 29  1  0
 29 30  1  0
 30 31  1  0
 31 32  1  1
  7  5  1  0
 31 10  1  0
 31 13  1  0
 27 15  1  0
 24 18  1  0
  1 33  1  0
  1 34  1  0
  1 35  1  0
  2 36  1  6
  3 37  1  0
  3 38  1  0
  4 39  1  0
  4 40  1  0
  5 41  1  6
  8 42  1  0
  8 43  1  0
  8 44  1  0
  9 45  1  0
  9 46  1  0
  9 47  1  0
 10 48  1  6
 11 49  1  0
 11 50  1  0
 12 51  1  0
 12 52  1  0
 14 53  1  0
 14 54  1  0
 14 55  1  0
 15 56  1  1
 16 57  1  0
 16 58  1  0
 17 59  1  0
 19 60  1  6
 20 61  1  0
 20 62  1  0
 21 63  1  0
 21 64  1  0
 22 65  1  6
 23 66  1  0
 25 67  1  0
 25 68  1  0
 25 69  1  0
 26 70  1  0
 26 71  1  0
 26 72  1  0
 28 73  1  0
 28 74  1  0
 28 75  1  0
 29 76  1  0
 29 77  1  0
 30 78  1  0
 30 79  1  0
 32 80  1  0
 32 81  1  0
 32 82  1  0
M  END
>  <meeko>  (2) 
{"is_sidechain": [false], "intermolecular_energy": 2.731, "internal_energy": -0.839}

$$$$
EPH_relaxed_0001_pdb2pqr_Repair_224_r2_0001_out
     RDKit          3D

 82 86  0  0  0  0  0  0  0  0999 V2000
   -5.0360    8.4730   -0.4420 C   0  0  0  0  0  0  0  0  0  0  0  0
   -5.3510    7.4230   -1.5100 C   0  0  2  0  0  0  0  0  0  0  0  0
   -4.3370    7.4520   -2.6710 C   0  0  0  0  0  0  0  0  0  0  0  0
   -2.9030    7.1260   -2.2440 C   0  0  0  0  0  0  0  0  0  0  0  0
   -1.9370    8.1780   -2.6980 C   0  0  2  0  0  0  0  0  0  0  0  0
   -0.5830    7.9700   -2.2770 O   0  0  0  0  0  0  0  0  0  0  0  0
   -1.2380    9.1360   -1.7520 C   0  0  0  0  0  0  0  0  0  0  0  0
   -1.4770    9.0880   -0.2760 C   0  0  0  0  0  0  0  0  0  0  0  0
   -0.7060   10.4240   -2.3010 C   0  0  0  0  0  0  0  0  0  0  0  0
   -6.7630    7.6340   -2.0460 C   0  0  1  0  0  0  0  0  0  0  0  0
   -6.9890    6.9480   -3.4200 C   0  0  0  0  0  0  0  0  0  0  0  0
   -8.4580    6.4540   -3.4360 C   0  0  0  0  0  0  0  0  0  0  0  0
   -9.1190    7.1540   -2.2260 C   0  0  1  0  0  0  0  0  0  0  0  0
   -9.4640    8.5900   -2.7320 C   0  0  0  0  0  0  0  0  0  0  0  0
  -10.3690    6.4430   -1.6140 C   0  0  2  0  0  0  0  0  0  0  0  0
  -11.5740    6.3090   -2.5620 C   0  0  0  0  0  0  0  0  0  0  0  0
  -12.5470    7.4400   -2.5190 C   0  0  0  0  0  0  0  0  0  0  0  0
  -12.6140    8.3790   -1.5570 C   0  0  0  0  0  0  0  0  0  0  0  0
  -11.7120    8.3030   -0.3190 C   0  0  1  0  0  0  0  0  0  0  0  0
  -12.5590    8.5580    0.9560 C   0  0  0  0  0  0  0  0  0  0  0  0
  -13.3440    9.8640    0.8850 C   0  0  0  0  0  0  0  0  0  0  0  0
  -14.2720    9.8770   -0.3270 C   0  0  2  0  0  0  0  0  0  0  0  0
  -15.2870    8.8860   -0.1410 O   0  0  0  0  0  0  0  0  0  0  0  0
  -13.5310    9.6210   -1.6690 C   0  0  0  0  0  0  0  0  0  0  0  0
  -12.6500   10.8460   -2.0190 C   0  0  0  0  0  0  0  0  0  0  0  0
  -14.5990    9.5200   -2.7920 C   0  0  0  0  0  0  0  0  0  0  0  0
  -10.8060    7.0030   -0.1990 C   0  0  1  0  0  0  0  0  0  0  0  0
  -11.6030    5.8620    0.5040 C   0  0  0  0  0  0  0  0  0  0  0  0
   -9.5720    7.3190    0.7260 C   0  0  0  0  0  0  0  0  0  0  0  0
   -8.3240    7.9100    0.0430 C   0  0  0  0  0  0  0  0  0  0  0  0
   -7.9360    7.0910   -1.1920 C   0  0  2  0  0  0  0  0  0  0  0  0
   -7.5620    5.6480   -0.7120 C   0  0  0  0  0  0  0  0  0  0  0  0
   -5.1685    8.0314    0.5567 H   0  0  0  0  0  0  0  0  0  0  0  0
   -3.9963    8.8131   -0.5575 H   0  0  0  0  0  0  0  0  0  0  0  0
   -5.7168    9.3292   -0.5575 H   0  0  0  0  0  0  0  0  0  0  0  0
   -5.2778    6.4344   -1.0332 H   0  0  0  0  0  0  0  0  0  0  0  0
   -4.6510    6.7150   -3.4248 H   0  0  0  0  0  0  0  0  0  0  0  0
   -4.3294    8.4787   -3.0657 H   0  0  0  0  0  0  0  0  0  0  0  0
   -2.8648    7.0565   -1.1469 H   0  0  0  0  0  0  0  0  0  0  0  0
   -2.6150    6.1719   -2.7096 H   0  0  0  0  0  0  0  0  0  0  0  0
   -2.5126    8.3411   -3.6211 H   0  0  0  0  0  0  0  0  0  0  0  0
   -0.5324    9.2777    0.2548 H   0  0  0  0  0  0  0  0  0  0  0  0
   -2.2140    9.8561    0.0013 H   0  0  0  0  0  0  0  0  0  0  0  0
   -1.8603    8.0949    0.0013 H   0  0  0  0  0  0  0  0  0  0  0  0
   -0.4306   11.0907   -1.4705 H   0  0  0  0  0  0  0  0  0  0  0  0
    0.1818   10.2208   -2.9179 H   0  0  0  0  0  0  0  0  0  0  0  0
   -1.4784   10.9065   -2.9179 H   0  0  0  0  0  0  0  0  0  0  0  0
   -6.7904    8.7335   -2.0668 H   0  0  0  0  0  0  0  0  0  0  0  0
   -6.8224    7.6678   -4.2349 H   0  0  0  0  0  0  0  0  0  0  0  0
   -6.2891    6.1117   -3.5641 H   0  0  0  0  0  0  0  0  0  0  0  0
   -8.9555    6.7458   -4.3727 H   0  0  0  0  0  0  0  0  0  0  0  0
   -8.5299    5.3581   -3.3740 H   0  0  0  0  0  0  0  0  0  0  0  0
   -9.6236    9.2541   -1.8697 H   0  0  0  0  0  0  0  0  0  0  0  0
   -8.6325    8.9737   -3.3414 H   0  0  0  0  0  0  0  0  0  0  0  0
  -10.3791    8.5540   -3.3414 H   0  0  0  0  0  0  0  0  0  0  0  0
  -10.0012    5.4190   -1.4524 H   0  0  0  0  0  0  0  0  0  0  0  0
  -11.1907    6.2291   -3.5900 H   0  0  0  0  0  0  0  0  0  0  0  0
  -12.1269    5.4186   -2.2279 H   0  0  0  0  0  0  0  0  0  0  0  0
  -13.2711    7.5123   -3.3439 H   0  0  0  0  0  0  0  0  0  0  0  0
  -10.9659    9.1025   -0.4380 H   0  0  0  0  0  0  0  0  0  0  0  0
  -13.2683    7.7265    1.0803 H   0  0  0  0  0  0  0  0  0  0  0  0
  -11.8668    8.6303    1.8079 H   0  0  0  0  0  0  0  0  0  0  0  0
  -13.9450    9.9731    1.7998 H   0  0  0  0  0  0  0  0  0  0  0  0
  -12.6320   10.6972    0.7912 H   0  0  0  0  0  0  0  0  0  0  0  0
  -14.7085   10.8842   -0.3974 H   0  0  0  0  0  0  0  0  0  0  0  0
  -15.7160    9.0610    0.7140 H   0  0  0  0  0  0  0  0  0  0  0  0
  -12.3046   11.3262   -1.0916 H   0  0  0  0  0  0  0  0  0  0  0  0
  -11.7807   10.5165   -2.6070 H   0  0  0  0  0  0  0  0  0  0  0  0
  -13.2390   11.5653   -2.6070 H   0  0  0  0  0  0  0  0  0  0  0  0
  -15.5977    9.4256   -2.3408 H   0  0  0  0  0  0  0  0  0  0  0  0
  -14.5624   10.4256   -3.4153 H   0  0  0  0  0  0  0  0  0  0  0  0
  -14.3933    8.6373   -3.4153 H   0  0  0  0  0  0  0  0  0  0  0  0
  -11.5227    5.9770    1.5950 H   0  0  0  0  0  0  0  0  0  0  0  0
  -12.6606    5.9163    0.2065 H   0  0  0  0  0  0  0  0  0  0  0  0
  -11.1880    4.8877    0.2065 H   0  0  0  0  0  0  0  0  0  0  0  0
   -9.9044    8.0371    1.4901 H   0  0  0  0  0  0  0  0  0  0  0  0
   -9.2498    6.3433    1.1186 H   0  0  0  0  0  0  0  0  0  0  0  0
   -8.5375    8.9446   -0.2637 H   0  0  0  0  0  0  0  0  0  0  0  0
   -7.4880    7.8852    0.7575 H   0  0  0  0  0  0  0  0  0  0  0  0
   -7.5542    5.6179    0.3876 H   0  0  0  0  0  0  0  0  0  0  0  0
   -8.3040    4.9310   -1.0932 H   0  0  0  0  0  0  0  0  0  0  0  0
   -6.5651    5.3816   -1.0932 H   0  0  0  0  0  0  0  0  0  0  0  0
  1  2  1  0
  2  3  1  0
  3  4  1  0
  4  5  1  0
  5  6  1  0
  6  7  1  0
  7  8  1  0
  7  9  1  0
  2 10  1  0
 10 11  1  0
 11 12  1  0
 12 13  1  0
 13 14  1  6
 13 15  1  0
 15 16  1  0
 16 17  1  0
 17 18  2  0
 18 19  1  0
 19 20  1  0
 20 21  1  0
 21 22  1  0
 22 23  1  0
 22 24  1  0
 24 25  1  0
 24 26  1  0
 19 27  1  0
 27 28  1  1
 27 29  1  0
 29 30  1  0
 30 31  1  0
 31 32  1  1
  7  5  1  0
 31 10  1  0
 31 13  1  0
 27 15  1  0
 24 18  1  0
  1 33  1  0
  1 34  1  0
  1 35  1  0
  2 36  1  1
  3 37  1  0
  3 38  1  0
  4 39  1  0
  4 40  1  0
  5 41  1  6
  8 42  1  0
  8 43  1  0
  8 44  1  0
  9 45  1  0
  9 46  1  0
  9 47  1  0
 10 48  1  6
 11 49  1  0
 11 50  1  0
 12 51  1  0
 12 52  1  0
 14 53  1  0
 14 54  1  0
 14 55  1  0
 15 56  1  1
 16 57  1  0
 16 58  1  0
 17 59  1  0
 19 60  1  6
 20 61  1  0
 20 62  1  0
 21 63  1  0
 21 64  1  0
 22 65  1  6
 23 66  1  0
 25 67  1  0
 25 68  1  0
 25 69  1  0
 26 70  1  0
 26 71  1  0
 26 72  1  0
 28 73  1  0
 28 74  1  0
 28 75  1  0
 29 76  1  0
 29 77  1  0
 30 78  1  0
 30 79  1  0
 32 80  1  0
 32 81  1  0
 32 82  1  0
M  END
>  <meeko>  (3) 
{"is_sidechain": [false], "intermolecular_energy": 2.731, "internal_energy": -0.839}

$$$$
EPH_relaxed_0001_pdb2pqr_Repair_224_r2_0001_out
     RDKit          3D

 82 86  0  0  0  0  0  0  0  0999 V2000
    2.0850   17.9650   -2.9010 C   0  0  0  0  0  0  0  0  0  0  0  0
    0.5820   17.7550   -3.1060 C   0  0  2  0  0  0  0  0  0  0  0  0
   -0.2470   18.2990   -1.9260 C   0  0  0  0  0  0  0  0  0  0  0  0
   -1.3680   19.2520   -2.3490 C   0  0  0  0  0  0  0  0  0  0  0  0
   -1.8780   20.0570   -1.1920 C   0  0  2  0  0  0  0  0  0  0  0  0
   -0.9540   20.1940   -0.1050 O   0  0  0  0  0  0  0  0  0  0  0  0
   -2.1610   19.4680    0.1770 C   0  0  0  0  0  0  0  0  0  0  0  0
   -1.9450   18.0150    0.4610 C   0  0  0  0  0  0  0  0  0  0  0  0
   -3.1030   20.1930    1.0870 C   0  0  0  0  0  0  0  0  0  0  0  0
    0.2880   16.2730   -3.3090 C   0  0  1  0  0  0  0  0  0  0  0  0
    0.4560   15.8270   -4.7860 C   0  0  0  0  0  0  0  0  0  0  0  0
    1.0080   14.3790   -4.7560 C   0  0  0  0  0  0  0  0  0  0  0  0
    0.8260   13.9220   -3.2900 C   0  0  1  0  0  0  0  0  0  0  0  0
   -0.6700   13.4890   -3.1870 C   0  0  0  0  0  0  0  0  0  0  0  0
    1.7890   12.7950   -2.7930 C   0  0  2  0  0  0  0  0  0  0  0  0
    1.6570   11.4520   -3.5310 C   0  0  0  0  0  0  0  0  0  0  0  0
    0.6800   10.4910   -2.9370 C   0  0  0  0  0  0  0  0  0  0  0  0
    0.1500   10.5780   -1.7030 C   0  0  0  0  0  0  0  0  0  0  0  0
    0.6000   11.6720   -0.7270 C   0  0  1  0  0  0  0  0  0  0  0  0
    0.8680   11.0450    0.6660 C   0  0  0  0  0  0  0  0  0  0  0  0
   -0.3240   10.2510    1.1900 C   0  0  0  0  0  0  0  0  0  0  0  0
   -0.7040    9.1350    0.2200 C   0  0  2  0  0  0  0  0  0  0  0  0
    0.3530    8.1710    0.1880 O   0  0  0  0  0  0  0  0  0  0  0  0
   -0.9890    9.6460   -1.2200 C   0  0  0  0  0  0  0  0  0  0  0  0
   -2.3130   10.4490   -1.2350 C   0  0  0  0  0  0  0  0  0  0  0  0
   -1.2220    8.4090   -2.1290 C   0  0  0  0  0  0  0  0  0  0  0  0
    1.7960   12.5940   -1.2230 C   0  0  1  0  0  0  0  0  0  0  0  0
    3.1610   11.9320   -0.8650 C   0  0  0  0  0  0  0  0  0  0  0  0
    1.7470   13.9620   -0.4440 C   0  0  0  0  0  0  0  0  0  0  0  0
    0.8720   15.0760   -1.0500 C   0  0  0  0  0  0  0  0  0  0  0  0
    1.1730   15.2600   -2.5410 C   0  0  2  0  0  0  0  0  0  0  0  0
    2.6660   15.7180   -2.6740 C   0  0  0  0  0  0  0  0  0  0  0  0
    2.3074   17.9961   -1.8242 H   0  0  0  0  0  0  0  0  0  0  0  0
    2.6379   17.1354   -3.3658 H   0  0  0  0  0  0  0  0  0  0  0  0
    2.3893   18.9144   -3.3658 H   0  0  0  0  0  0  0  0  0  0  0  0
    0.2884   18.3195   -4.0033 H   0  0  0  0  0  0  0  0  0  0  0  0
   -0.6973   17.4468   -1.3959 H   0  0  0  0  0  0  0  0  0  0  0  0
    0.4404   18.8742   -1.2884 H   0  0  0  0  0  0  0  0  0  0  0  0
   -0.9818   19.9377   -3.1176 H   0  0  0  0  0  0  0  0  0  0  0  0
   -2.2007   18.6493   -2.7406 H   0  0  0  0  0  0  0  0  0  0  0  0
   -2.4817   20.6844   -1.8642 H   0  0  0  0  0  0  0  0  0  0  0  0
   -1.9210   17.8536    1.5488 H   0  0  0  0  0  0  0  0  0  0  0  0
   -2.7660   17.4295    0.0215 H   0  0  0  0  0  0  0  0  0  0  0  0
   -0.9892   17.6936    0.0215 H   0  0  0  0  0  0  0  0  0  0  0  0
   -2.8341   19.9861    2.1334 H   0  0  0  0  0  0  0  0  0  0  0  0
   -3.0357   21.2746    0.8981 H   0  0  0  0  0  0  0  0  0  0  0  0
   -4.1313   19.8511    0.8981 H   0  0  0  0  0  0  0  0  0  0  0  0
   -0.7431   16.2366   -2.9276 H   0  0  0  0  0  0  0  0  0  0  0  0
   -0.5152   15.8515   -5.3019 H   0  0  0  0  0  0  0  0  0  0  0  0
    1.1392   16.4989   -5.3261 H   0  0  0  0  0  0  0  0  0  0  0  0
    0.4373   13.7317   -5.4382 H   0  0  0  0  0  0  0  0  0  0  0  0
    2.0572   14.3259   -5.0821 H   0  0  0  0  0  0  0  0  0  0  0  0
   -0.9557   13.4063   -2.1280 H   0  0  0  0  0  0  0  0  0  0  0  0
   -1.3040   14.2405   -3.6802 H   0  0  0  0  0  0  0  0  0  0  0  0
   -0.8046   12.5150   -3.6802 H   0  0  0  0  0  0  0  0  0  0  0  0
    2.7776   13.1910   -3.0683 H   0  0  0  0  0  0  0  0  0  0  0  0
    1.3426   11.6613   -4.5641 H   0  0  0  0  0  0  0  0  0  0  0  0
    2.6420   10.9676   -3.4599 H   0  0  0  0  0  0  0  0  0  0  0  0
    0.3673    9.6405   -3.5607 H   0  0  0  0  0  0  0  0  0  0  0  0
   -0.2362   12.3835   -0.6604 H   0  0  0  0  0  0  0  0  0  0  0  0
    1.7338   10.3710    0.5884 H   0  0  0  0  0  0  0  0  0  0  0  0
    1.0568   11.8677    1.3713 H   0  0  0  0  0  0  0  0  0  0  0  0
   -0.0628    9.8091    2.1629 H   0  0  0  0  0  0  0  0  0  0  0  0
   -1.1812   10.9323    1.2952 H   0  0  0  0  0  0  0  0  0  0  0  0
   -1.6396    8.6859    0.5846 H   0  0  0  0  0  0  0  0  0  0  0  0
   -0.0040    7.3560   -0.2040 H   0  0  0  0  0  0  0  0  0  0  0  0
   -2.6351   10.6443   -0.2015 H   0  0  0  0  0  0  0  0  0  0  0  0
   -2.1564   11.4045   -1.7571 H   0  0  0  0  0  0  0  0  0  0  0  0
   -3.0880    9.8686   -1.7571 H   0  0  0  0  0  0  0  0  0  0  0  0
   -1.3894    7.5202   -1.5029 H   0  0  0  0  0  0  0  0  0  0  0  0
   -2.1035    8.5815   -2.7641 H   0  0  0  0  0  0  0  0  0  0  0  0
   -0.3382    8.2490   -2.7641 H   0  0  0  0  0  0  0  0  0  0  0  0
    3.2678   11.8802    0.2286 H   0  0  0  0  0  0  0  0  0  0  0  0
    3.1973   10.9162   -1.2855 H   0  0  0  0  0  0  0  0  0  0  0  0
    3.9812   12.5324   -1.2855 H   0  0  0  0  0  0  0  0  0  0  0  0
    1.3687   13.7552    0.5680 H   0  0  0  0  0  0  0  0  0  0  0  0
    2.7751   14.3513   -0.4814 H   0  0  0  0  0  0  0  0  0  0  0  0
   -0.1878   14.8080   -0.9273 H   0  0  0  0  0  0  0  0  0  0  0  0
    1.0937   16.0188   -0.5285 H   0  0  0  0  0  0  0  0  0  0  0  0
    3.0994   15.8510   -1.6718 H   0  0  0  0  0  0  0  0  0  0  0  0
    3.2366   14.9536   -3.2218 H   0  0  0  0  0  0  0  0  0  0  0  0
    2.7098   16.6709   -3.2218 H   0  0  0  0  0  0  0  0  0  0  0  0
  1  2  1  0
  2  3  1  0
  3  4  1  0
  4  5  1  0
  5  6  1  0
  6  7  1  0
  7  8  1  0
  7  9  1  0
  2 10  1  0
 10 11  1  0
 11 12  1  0
 12 13  1  0
 13 14  1  6
 13 15  1  0
 15 16  1  0
 16 17  1  0
 17 18  2  0
 18 19  1  0
 19 20  1  0
 20 21  1  0
 21 22  1  0
 22 23  1  0
 22 24  1  0
 24 25  1  0
 24 26  1  0
 19 27  1  0
 27 28  1  1
 27 29  1  0
 29 30  1  0
 30 31  1  0
 31 32  1  1
  7  5  1  0
 31 10  1  0
 31 13  1  0
 27 15  1  0
 24 18  1  0
  1 33  1  0
  1 34  1  0
  1 35  1  0
  2 36  1  6
  3 37  1  0
  3 38  1  0
  4 39  1  0
  4 40  1  0
  5 41  1  6
  8 42  1  0
  8 43  1  0
  8 44  1  0
  9 45  1  0
  9 46  1  0
  9 47  1  0
 10 48  1  1
 11 49  1  0
 11 50  1  0
 12 51  1  0
 12 52  1  0
 14 53  1  0
 14 54  1  0
 14 55  1  0
 15 56  1  6
 16 57  1  0
 16 58  1  0
 17 59  1  0
 19 60  1  1
 20 61  1  0
 20 62  1  0
 21 63  1  0
 21 64  1  0
 22 65  1  1
 23 66  1  0
 25 67  1  0
 25 68  1  0
 25 69  1  0
 26 70  1  0
 26 71  1  0
 26 72  1  0
 28 73  1  0
 28 74  1  0
 28 75  1  0
 29 76  1  0
 29 77  1  0
 30 78  1  0
 30 79  1  0
 32 80  1  0
 32 81  1  0
 32 82  1  0
M  END
>  <meeko>  (4) 
{"is_sidechain": [false], "intermolecular_energy": 2.731, "internal_energy": -0.839}

$$$$
EPH_relaxed_0001_pdb2pqr_Repair_224_r2_0001_out
     RDKit          3D

 82 86  0  0  0  0  0  0  0  0999 V2000
    2.5840   17.9600   -2.0370 C   0  0  0  0  0  0  0  0  0  0  0  0
    2.1060   17.0510   -0.9010 C   0  0  2  0  0  0  0  0  0  0  0  0
    3.2760   16.5350   -0.0390 C   0  0  0  0  0  0  0  0  0  0  0  0
    4.2890   17.6200    0.3370 C   0  0  0  0  0  0  0  0  0  0  0  0
    4.1680   18.0170    1.7770 C   0  0  2  0  0  0  0  0  0  0  0  0
    4.1490   19.4310    2.0090 O   0  0  0  0  0  0  0  0  0  0  0  0
    5.2720   18.7160    2.5480 C   0  0  0  0  0  0  0  0  0  0  0  0
    6.5780   19.0580    1.9020 C   0  0  0  0  0  0  0  0  0  0  0  0
    5.2690   18.6260    4.0420 C   0  0  0  0  0  0  0  0  0  0  0  0
    1.3210   15.8760   -1.4710 C   0  0  1  0  0  0  0  0  0  0  0  0
    0.9190   16.0890   -2.9540 C   0  0  0  0  0  0  0  0  0  0  0  0
    0.9770   14.6990   -3.6380 C   0  0  0  0  0  0  0  0  0  0  0  0
    1.0830   13.6930   -2.4680 C   0  0  1  0  0  0  0  0  0  0  0  0
   -0.3800   13.5190   -1.9550 C   0  0  0  0  0  0  0  0  0  0  0  0
    1.7470   12.3160   -2.7980 C   0  0  2  0  0  0  0  0  0  0  0  0
    1.0010   11.4660   -3.8420 C   0  0  0  0  0  0  0  0  0  0  0  0
   -0.0170   10.5250   -3.2880 C   0  0  0  0  0  0  0  0  0  0  0  0
   -0.1250   10.1610   -1.9970 C   0  0  0  0  0  0  0  0  0  0  0  0
    0.8990   10.6330   -0.9570 C   0  0  1  0  0  0  0  0  0  0  0  0
    1.3400    9.4310   -0.0810 C   0  0  0  0  0  0  0  0  0  0  0  0
    0.1580    8.7040    0.5530 C   0  0  0  0  0  0  0  0  0  0  0  0
   -0.8070    8.1980   -0.5160 C   0  0  2  0  0  0  0  0  0  0  0  0
   -0.1570    7.1780   -1.2800 O   0  0  0  0  0  0  0  0  0  0  0  0
   -1.3120    9.3200   -1.4660 C   0  0  0  0  0  0  0  0  0  0  0  0
   -2.2690   10.2640   -0.6950 C   0  0  0  0  0  0  0  0  0  0  0  0
   -2.1640    8.6550   -2.5800 C   0  0  0  0  0  0  0  0  0  0  0  0
    2.1320   11.4600   -1.5240 C   0  0  1  0  0  0  0  0  0  0  0  0
    3.2670   10.4870   -1.9680 C   0  0  0  0  0  0  0  0  0  0  0  0
    2.7330   12.3450   -0.3680 C   0  0  0  0  0  0  0  0  0  0  0  0
    2.1150   13.7420   -0.1690 C   0  0  0  0  0  0  0  0  0  0  0  0
    2.0260   14.4970   -1.4990 C   0  0  2  0  0  0  0  0  0  0  0  0
    3.4850   14.7060   -2.0290 C   0  0  0  0  0  0  0  0  0  0  0  0
    3.0565   18.8585   -1.6135 H   0  0  0  0  0  0  0  0  0  0  0  0
    3.3144   17.4192   -2.6567 H   0  0  0  0  0  0  0  0  0  0  0  0
    1.7245   18.2552   -2.6567 H   0  0  0  0  0  0  0  0  0  0  0  0
    1.4549   17.6512   -0.2484 H   0  0  0  0  0  0  0  0  0  0  0  0
    2.8633   16.1092    0.8875 H   0  0  0  0  0  0  0  0  0  0  0  0
    3.8138   15.7879   -0.6412 H   0  0  0  0  0  0  0  0  0  0  0  0
    5.3044   17.2373    0.1570 H   0  0  0  0  0  0  0  0  0  0  0  0
    4.0864   18.5070   -0.2812 H   0  0  0  0  0  0  0  0  0  0  0  0
    3.5666   17.1226    1.9970 H   0  0  0  0  0  0  0  0  0  0  0  0
    7.3310   19.2552    2.6792 H   0  0  0  0  0  0  0  0  0  0  0  0
    6.9090   18.2162    1.2760 H   0  0  0  0  0  0  0  0  0  0  0  0
    6.4539   19.9539    1.2760 H   0  0  0  0  0  0  0  0  0  0  0  0
    5.3028   19.6386    4.4704 H   0  0  0  0  0  0  0  0  0  0  0  0
    4.3534   18.1166    4.3768 H   0  0  0  0  0  0  0  0  0  0  0  0
    6.1487   18.0567    4.3768 H   0  0  0  0  0  0  0  0  0  0  0  0
    0.4804   15.8545   -0.7618 H   0  0  0  0  0  0  0  0  0  0  0  0
   -0.1000   16.4988   -3.0150 H   0  0  0  0  0  0  0  0  0  0  0  0
    1.5967   16.8007   -3.4483 H   0  0  0  0  0  0  0  0  0  0  0  0
    0.0650   14.5168   -4.2254 H   0  0  0  0  0  0  0  0  0  0  0  0
    1.8202   14.6138   -4.3393 H   0  0  0  0  0  0  0  0  0  0  0  0
   -0.3852   13.5184   -0.8550 H   0  0  0  0  0  0  0  0  0  0  0  0
   -0.9992   14.3498   -2.3241 H   0  0  0  0  0  0  0  0  0  0  0  0
   -0.7871   12.5661   -2.3241 H   0  0  0  0  0  0  0  0  0  0  0  0
    2.6905   12.6174   -3.2766 H   0  0  0  0  0  0  0  0  0  0  0  0
    0.4898   12.1503   -4.5351 H   0  0  0  0  0  0  0  0  0  0  0  0
    1.7643   10.8386   -4.3255 H   0  0  0  0  0  0  0  0  0  0  0  0
   -0.7402   10.0925   -3.9951 H   0  0  0  0  0  0  0  0  0  0  0  0
    0.3796   11.3768   -0.3350 H   0  0  0  0  0  0  0  0  0  0  0  0
    1.8943    8.7200   -0.7113 H   0  0  0  0  0  0  0  0  0  0  0  0
    1.9663    9.8237    0.7336 H   0  0  0  0  0  0  0  0  0  0  0  0
    0.5314    7.8486    1.1351 H   0  0  0  0  0  0  0  0  0  0  0  0
   -0.3785    9.4081    1.2060 H   0  0  0  0  0  0  0  0  0  0  0  0
   -1.6932    7.8021    0.0016 H   0  0  0  0  0  0  0  0  0  0  0  0
   -0.1730    6.3610   -0.7530 H   0  0  0  0  0  0  0  0  0  0  0  0
   -2.1281   10.1250    0.3870 H   0  0  0  0  0  0  0  0  0  0  0  0
   -2.0484   11.3080   -0.9624 H   0  0  0  0  0  0  0  0  0  0  0  0
   -3.3098   10.0291   -0.9624 H   0  0  0  0  0  0  0  0  0  0  0  0
   -2.9520    8.0399   -2.1210 H   0  0  0  0  0  0  0  0  0  0  0  0
   -2.6245    9.4349   -3.2042 H   0  0  0  0  0  0  0  0  0  0  0  0
   -1.5193    8.0189   -3.2042 H   0  0  0  0  0  0  0  0  0  0  0  0
    3.7580   10.0661   -1.0782 H   0  0  0  0  0  0  0  0  0  0  0  0
    2.8372    9.6724   -2.5695 H   0  0  0  0  0  0  0  0  0  0  0  0
    4.0063   11.0362   -2.5695 H   0  0  0  0  0  0  0  0  0  0  0  0
    2.6107   11.7899    0.5738 H   0  0  0  0  0  0  0  0  0  0  0  0
    3.7766   12.5314   -0.6615 H   0  0  0  0  0  0  0  0  0  0  0  0
    1.1041   13.6318    0.2505 H   0  0  0  0  0  0  0  0  0  0  0  0
    2.7564   14.3147    0.5170 H   0  0  0  0  0  0  0  0  0  0  0  0
    4.1739   14.8047   -1.1772 H   0  0  0  0  0  0  0  0  0  0  0  0
    3.7802   13.8410   -2.6410 H   0  0  0  0  0  0  0  0  0  0  0  0
    3.5255   15.6191   -2.6410 H   0  0  0  0  0  0  0  0  0  0  0  0
  1  2  1  0
  2  3  1  0
  3  4  1  0
  4  5  1  0
  5  6  1  0
  6  7  1  0
  7  8  1  0
  7  9  1  0
  2 10  1  0
 10 11  1  0
 11 12  1  0
 12 13  1  0
 13 14  1  1
 13 15  1  0
 15 16  1  0
 16 17  1  0
 17 18  2  0
 18 19  1  0
 19 20  1  0
 20 21  1  0
 21 22  1  0
 22 23  1  0
 22 24  1  0
 24 25  1  0
 24 26  1  0
 19 27  1  0
 27 28  1  6
 27 29  1  0
 29 30  1  0
 30 31  1  0
 31 32  1  6
  7  5  1  0
 31 10  1  0
 31 13  1  0
 27 15  1  0
 24 18  1  0
  1 33  1  0
  1 34  1  0
  1 35  1  0
  2 36  1  1
  3 37  1  0
  3 38  1  0
  4 39  1  0
  4 40  1  0
  5 41  1  1
  8 42  1  0
  8 43  1  0
  8 44  1  0
  9 45  1  0
  9 46  1  0
  9 47  1  0
 10 48  1  1
 11 49  1  0
 11 50  1  0
 12 51  1  0
 12 52  1  0
 14 53  1  0
 14 54  1  0
 14 55  1  0
 15 56  1  6
 16 57  1  0
 16 58  1  0
 17 59  1  0
 19 60  1  1
 20 61  1  0
 20 62  1  0
 21 63  1  0
 21 64  1  0
 22 65  1  1
 23 66  1  0
 25 67  1  0
 25 68  1  0
 25 69  1  0
 26 70  1  0
 26 71  1  0
 26 72  1  0
 28 73  1  0
 28 74  1  0
 28 75  1  0
 29 76  1  0
 29 77  1  0
 30 78  1  0
 30 79  1  0
 32 80  1  0
 32 81  1  0
 32 82  1  0
M  END
>  <meeko>  (5) 
{"is_sidechain": [false], "intermolecular_energy": 2.731, "internal_energy": -0.839}

$$$$
EPH_relaxed_0001_pdb2pqr_Repair_224_r2_0001_out
     RDKit          3D

 82 86  0  0  0  0  0  0  0  0999 V2000
   -0.9350   16.3970   -5.8930 C   0  0  0  0  0  0  0  0  0  0  0  0
    0.1690   15.7020   -6.6940 C   0  0  2  0  0  0  0  0  0  0  0  0
   -0.2230   15.5040   -8.1720 C   0  0  0  0  0  0  0  0  0  0  0  0
    0.4260   16.5130   -9.1220 C   0  0  0  0  0  0  0  0  0  0  0  0
    1.8340   16.1280   -9.4630 C   0  0  2  0  0  0  0  0  0  0  0  0
    2.3290   16.6890  -10.6860 O   0  0  0  0  0  0  0  0  0  0  0  0
    2.1980   15.2590  -10.6530 C   0  0  0  0  0  0  0  0  0  0  0  0
    1.1500   14.7220  -11.5770 C   0  0  0  0  0  0  0  0  0  0  0  0
    3.5080   14.5340  -10.6350 C   0  0  0  0  0  0  0  0  0  0  0  0
    0.5040   14.3580   -6.0590 C   0  0  1  0  0  0  0  0  0  0  0  0
    1.7300   13.6740   -6.7200 C   0  0  0  0  0  0  0  0  0  0  0  0
    2.4850   12.9230   -5.5930 C   0  0  0  0  0  0  0  0  0  0  0  0
    1.5010   12.9210   -4.3990 C   0  0  1  0  0  0  0  0  0  0  0  0
    0.5160   11.7460   -4.6940 C   0  0  0  0  0  0  0  0  0  0  0  0
    2.1400   12.7950   -2.9780 C   0  0  2  0  0  0  0  0  0  0  0  0
    2.9080   11.4870   -2.7210 C   0  0  0  0  0  0  0  0  0  0  0  0
    2.0960   10.3730   -2.1460 C   0  0  0  0  0  0  0  0  0  0  0  0
    0.8800   10.5010   -1.5850 C   0  0  0  0  0  0  0  0  0  0  0  0
    0.2400   11.8830   -1.3970 C   0  0  1  0  0  0  0  0  0  0  0  0
   -0.3370   11.9950    0.0380 C   0  0  0  0  0  0  0  0  0  0  0  0
   -1.2960   10.8580    0.3750 C   0  0  0  0  0  0  0  0  0  0  0  0
   -0.6070    9.5030    0.2330 C   0  0  2  0  0  0  0  0  0  0  0  0
    0.4070    9.3940    1.2370 O   0  0  0  0  0  0  0  0  0  0  0  0
    0.0220    9.2800   -1.1710 C   0  0  0  0  0  0  0  0  0  0  0  0
   -1.1020    9.0970   -2.2210 C   0  0  0  0  0  0  0  0  0  0  0  0
    0.8050    7.9400   -1.1360 C   0  0  0  0  0  0  0  0  0  0  0  0
    1.1480   13.1260   -1.7900 C   0  0  1  0  0  0  0  0  0  0  0  0
    2.0320   13.5440   -0.5750 C   0  0  0  0  0  0  0  0  0  0  0  0
    0.2220   14.3590   -2.1100 C   0  0  0  0  0  0  0  0  0  0  0  0
   -0.2800   14.4930   -3.5600 C   0  0  0  0  0  0  0  0  0  0  0  0
    0.8770   14.3550   -4.5550 C   0  0  2  0  0  0  0  0  0  0  0  0
    1.8730   15.5360   -4.2980 C   0  0  0  0  0  0  0  0  0  0  0  0
   -0.7402   16.2744   -4.8174 H   0  0  0  0  0  0  0  0  0  0  0  0
   -0.9506   17.4681   -6.1430 H   0  0  0  0  0  0  0  0  0  0  0  0
   -1.9075   15.9479   -6.1430 H   0  0  0  0  0  0  0  0  0  0  0  0
    1.0545   16.3542   -6.6722 H   0  0  0  0  0  0  0  0  0  0  0  0
    0.0812   14.4926   -8.4793 H   0  0  0  0  0  0  0  0  0  0  0  0
   -1.3107   15.6540   -8.2385 H   0  0  0  0  0  0  0  0  0  0  0  0
   -0.1647   16.5610  -10.0487 H   0  0  0  0  0  0  0  0  0  0  0  0
    0.4505   17.4908   -8.6187 H   0  0  0  0  0  0  0  0  0  0  0  0
    2.1017   16.0709   -8.3976 H   0  0  0  0  0  0  0  0  0  0  0  0
    0.3235   14.2985  -10.9874 H   0  0  0  0  0  0  0  0  0  0  0  0
    0.7686   15.5357  -12.2113 H   0  0  0  0  0  0  0  0  0  0  0  0
    1.5877   13.9371  -12.2113 H   0  0  0  0  0  0  0  0  0  0  0  0
    3.8179   14.3625   -9.5936 H   0  0  0  0  0  0  0  0  0  0  0  0
    3.3993   13.5676  -11.1491 H   0  0  0  0  0  0  0  0  0  0  0  0
    4.2691   15.1393  -11.1491 H   0  0  0  0  0  0  0  0  0  0  0  0
   -0.4540   13.8390   -6.2101 H   0  0  0  0  0  0  0  0  0  0  0  0
    1.3973   12.9639   -7.4914 H   0  0  0  0  0  0  0  0  0  0  0  0
    2.3815   14.4153   -7.2058 H   0  0  0  0  0  0  0  0  0  0  0  0
    2.7220   11.8945   -5.9028 H   0  0  0  0  0  0  0  0  0  0  0  0
    3.4438   13.4006   -5.3429 H   0  0  0  0  0  0  0  0  0  0  0  0
    0.1588   11.3199   -3.7449 H   0  0  0  0  0  0  0  0  0  0  0  0
   -0.3407   12.1221   -5.2725 H   0  0  0  0  0  0  0  0  0  0  0  0
    1.0359   10.9682   -5.2725 H   0  0  0  0  0  0  0  0  0  0  0  0
    2.9005   13.5897   -2.9902 H   0  0  0  0  0  0  0  0  0  0  0  0
    3.3253   11.1440   -3.6792 H   0  0  0  0  0  0  0  0  0  0  0  0
    3.6731   11.7262   -1.9677 H   0  0  0  0  0  0  0  0  0  0  0  0
    2.5289    9.3625   -2.1845 H   0  0  0  0  0  0  0  0  0  0  0  0
   -0.5759   11.9438   -2.1322 H   0  0  0  0  0  0  0  0  0  0  0  0
    0.4967   11.9770    0.7553 H   0  0  0  0  0  0  0  0  0  0  0  0
   -0.9027   12.9365    0.0970 H   0  0  0  0  0  0  0  0  0  0  0  0
   -1.6458   10.9772    1.4111 H   0  0  0  0  0  0  0  0  0  0  0  0
   -2.1445   10.8955   -0.3241 H   0  0  0  0  0  0  0  0  0  0  0  0
   -1.3762    8.7268    0.3592 H   0  0  0  0  0  0  0  0  0  0  0  0
    1.2460    9.1970    0.7870 H   0  0  0  0  0  0  0  0  0  0  0  0
   -2.0619    8.9407   -1.7071 H   0  0  0  0  0  0  0  0  0  0  0  0
   -1.1655    9.9966   -2.8508 H   0  0  0  0  0  0  0  0  0  0  0  0
   -0.8768    8.2237   -2.8508 H   0  0  0  0  0  0  0  0  0  0  0  0
    0.9781    7.6437   -0.0909 H   0  0  0  0  0  0  0  0  0  0  0  0
    0.2204    7.1603   -1.6461 H   0  0  0  0  0  0  0  0  0  0  0  0
    1.7713    8.0665   -1.6461 H   0  0  0  0  0  0  0  0  0  0  0  0
    1.5094   13.2969    0.3609 H   0  0  0  0  0  0  0  0  0  0  0  0
    2.9890   13.0030   -0.6145 H   0  0  0  0  0  0  0  0  0  0  0  0
    2.2211   14.6269   -0.6145 H   0  0  0  0  0  0  0  0  0  0  0  0
   -0.6608   14.2904   -1.4573 H   0  0  0  0  0  0  0  0  0  0  0  0
    0.8528   15.2441   -1.9410 H   0  0  0  0  0  0  0  0  0  0  0  0
   -1.0215   13.7051   -3.7585 H   0  0  0  0  0  0  0  0  0  0  0  0
   -0.7331   15.4876   -3.6842 H   0  0  0  0  0  0  0  0  0  0  0  0
    1.9965   15.6824   -3.2148 H   0  0  0  0  0  0  0  0  0  0  0  0
    2.8476   15.2985   -4.7493 H   0  0  0  0  0  0  0  0  0  0  0  0
    1.4745   16.4566   -4.7493 H   0  0  0  0  0  0  0  0  0  0  0  0
  1  2  1  0
  2  3  1  0
  3  4  1  0
  4  5  1  0
  5  6  1  0
  6  7  1  0
  7  8  1  0
  7  9  1  0
  2 10  1  0
 10 11  1  0
 11 12  1  0
 12 13  1  0
 13 14  1  6
 13 15  1  0
 15 16  1  0
 16 17  1  0
 17 18  2  0
 18 19  1  0
 19 20  1  0
 20 21  1  0
 21 22  1  0
 22 23  1  0
 22 24  1  0
 24 25  1  0
 24 26  1  0
 19 27  1  0
 27 28  1  1
 27 29  1  0
 29 30  1  0
 30 31  1  0
 31 32  1  6
  7  5  1  0
 31 10  1  0
 31 13  1  0
 27 15  1  0
 24 18  1  0
  1 33  1  0
  1 34  1  0
  1 35  1  0
  2 36  1  6
  3 37  1  0
  3 38  1  0
  4 39  1  0
  4 40  1  0
  5 41  1  1
  8 42  1  0
  8 43  1  0
  8 44  1  0
  9 45  1  0
  9 46  1  0
  9 47  1  0
 10 48  1  1
 11 49  1  0
 11 50  1  0
 12 51  1  0
 12 52  1  0
 14 53  1  0
 14 54  1  0
 14 55  1  0
 15 56  1  6
 16 57  1  0
 16 58  1  0
 17 59  1  0
 19 60  1  6
 20 61  1  0
 20 62  1  0
 21 63  1  0
 21 64  1  0
 22 65  1  1
 23 66  1  0
 25 67  1  0
 25 68  1  0
 25 69  1  0
 26 70  1  0
 26 71  1  0
 26 72  1  0
 28 73  1  0
 28 74  1  0
 28 75  1  0
 29 76  1  0
 29 77  1  0
 30 78  1  0
 30 79  1  0
 32 80  1  0
 32 81  1  0
 32 82  1  0
M  END
>  <meeko>  (6) 
{"is_sidechain": [false], "intermolecular_energy": 2.731, "internal_energy": -0.839}

$$$$
EPH_relaxed_0001_pdb2pqr_Repair_224_r2_0001_out
     RDKit          3D

 82 86  0  0  0  0  0  0  0  0999 V2000
   -4.0270    7.3940   -3.5900 C   0  0  0  0  0  0  0  0  0  0  0  0
   -3.6630    7.2880   -2.1060 C   0  0  2  0  0  0  0  0  0  0  0  0
   -4.8540    6.8180   -1.2480 C   0  0  0  0  0  0  0  0  0  0  0  0
   -6.1360    6.5790   -2.0510 C   0  0  0  0  0  0  0  0  0  0  0  0
   -7.3180    6.3620   -1.1570 C   0  0  2  0  0  0  0  0  0  0  0  0
   -8.3860    5.6100   -1.7480 O   0  0  0  0  0  0  0  0  0  0  0  0
   -8.6830    6.9750   -1.4100 C   0  0  0  0  0  0  0  0  0  0  0  0
   -8.9350    7.8540   -2.5940 C   0  0  0  0  0  0  0  0  0  0  0  0
   -9.6280    7.1190   -0.2580 C   0  0  0  0  0  0  0  0  0  0  0  0
   -3.1540    8.6320   -1.5990 C   0  0  1  0  0  0  0  0  0  0  0  0
   -3.8200    9.0580   -0.2640 C   0  0  0  0  0  0  0  0  0  0  0  0
   -2.7410    9.8130    0.5540 C   0  0  0  0  0  0  0  0  0  0  0  0
   -1.6040   10.0850   -0.4580 C   0  0  1  0  0  0  0  0  0  0  0  0
   -2.0660   11.3480   -1.2500 C   0  0  0  0  0  0  0  0  0  0  0  0
   -0.1730   10.2730    0.1430 C   0  0  2  0  0  0  0  0  0  0  0  0
   -0.0140   11.4790    1.0860 C   0  0  0  0  0  0  0  0  0  0  0  0
    0.4010   12.7520    0.4280 C   0  0  0  0  0  0  0  0  0  0  0  0
    0.9120   12.8610   -0.8130 C   0  0  0  0  0  0  0  0  0  0  0  0
    1.2090   11.6140   -1.6550 C   0  0  1  0  0  0  0  0  0  0  0  0
    2.6180   11.7410   -2.2900 C   0  0  0  0  0  0  0  0  0  0  0  0
    2.7880   13.0340   -3.0830 C   0  0  0  0  0  0  0  0  0  0  0  0
    2.5410   14.2530   -2.1970 C   0  0  2  0  0  0  0  0  0  0  0  0
    3.5780   14.3250   -1.2130 O   0  0  0  0  0  0  0  0  0  0  0  0
    1.1550   14.2300   -1.4960 C   0  0  0  0  0  0  0  0  0  0  0  0
    0.0370   14.4550   -2.5440 C   0  0  0  0  0  0  0  0  0  0  0  0
    1.0910   15.4400   -0.5250 C   0  0  0  0  0  0  0  0  0  0  0  0
    0.9920   10.2180   -0.9260 C   0  0  1  0  0  0  0  0  0  0  0  0
    2.2860    9.8140   -0.1550 C   0  0  0  0  0  0  0  0  0  0  0  0
    0.7560    9.1020   -2.0120 C   0  0  0  0  0  0  0  0  0  0  0  0
   -0.6960    8.8830   -2.4780 C   0  0  0  0  0  0  0  0  0  0  0  0
   -1.6420    8.7460   -1.2810 C   0  0  2  0  0  0  0  0  0  0  0  0
   -1.2150    7.4710   -0.4780 C   0  0  0  0  0  0  0  0  0  0  0  0
   -5.0789    7.7003   -3.6886 H   0  0  0  0  0  0  0  0  0  0  0  0
   -3.3806    8.1412   -4.0736 H   0  0  0  0  0  0  0  0  0  0  0  0
   -3.8829    6.4166   -4.0736 H   0  0  0  0  0  0  0  0  0  0  0  0
   -2.8705    6.5309   -2.0128 H   0  0  0  0  0  0  0  0  0  0  0  0
   -4.5745    5.8768   -0.7521 H   0  0  0  0  0  0  0  0  0  0  0  0
   -5.0701    7.6230   -0.5302 H   0  0  0  0  0  0  0  0  0  0  0  0
   -6.3266    7.4558   -2.6873 H   0  0  0  0  0  0  0  0  0  0  0  0
   -5.9955    5.6733   -2.6592 H   0  0  0  0  0  0  0  0  0  0  0  0
   -6.6710    6.3436   -0.2676 H   0  0  0  0  0  0  0  0  0  0  0  0
   -9.2230    8.8585   -2.2503 H   0  0  0  0  0  0  0  0  0  0  0  0
   -8.0203    7.9225   -3.2012 H   0  0  0  0  0  0  0  0  0  0  0  0
   -9.7470    7.4274   -3.2012 H   0  0  0  0  0  0  0  0  0  0  0  0
   -9.0705    7.0340    0.6864 H   0  0  0  0  0  0  0  0  0  0  0  0
  -10.1187    8.1023   -0.3070 H   0  0  0  0  0  0  0  0  0  0  0  0
  -10.3893    6.3265   -0.3070 H   0  0  0  0  0  0  0  0  0  0  0  0
   -3.4052    9.2624   -2.4647 H   0  0  0  0  0  0  0  0  0  0  0  0
   -4.6765    9.7192   -0.4622 H   0  0  0  0  0  0  0  0  0  0  0  0
   -4.1930    8.1826    0.2879 H   0  0  0  0  0  0  0  0  0  0  0  0
   -3.1434   10.7574    0.9491 H   0  0  0  0  0  0  0  0  0  0  0  0
   -2.3960    9.2345    1.4236 H   0  0  0  0  0  0  0  0  0  0  0  0
   -2.3553   12.1390   -0.5424 H   0  0  0  0  0  0  0  0  0  0  0  0
   -1.2407   11.7061   -1.8829 H   0  0  0  0  0  0  0  0  0  0  0  0
   -2.9276   11.0891   -1.8829 H   0  0  0  0  0  0  0  0  0  0  0  0
   -0.0657    9.3811    0.7779 H   0  0  0  0  0  0  0  0  0  0  0  0
   -0.9803   11.6522    1.5822 H   0  0  0  0  0  0  0  0  0  0  0  0
    0.7974   11.2170    1.7810 H   0  0  0  0  0  0  0  0  0  0  0  0
    0.2792   13.6802    1.0056 H   0  0  0  0  0  0  0  0  0  0  0  0
    0.4444   11.5917   -2.4455 H   0  0  0  0  0  0  0  0  0  0  0  0
    3.3699   11.7181   -1.4874 H   0  0  0  0  0  0  0  0  0  0  0  0
    2.7463   10.9013   -2.9889 H   0  0  0  0  0  0  0  0  0  0  0  0
    3.8122   13.0800   -3.4816 H   0  0  0  0  0  0  0  0  0  0  0  0
    2.0557   13.0418   -3.9037 H   0  0  0  0  0  0  0  0  0  0  0  0
    2.5480   15.1405   -2.8469 H   0  0  0  0  0  0  0  0  0  0  0  0
    4.3560   13.8660   -1.5720 H   0  0  0  0  0  0  0  0  0  0  0  0
   -0.9156   14.6467   -2.0285 H   0  0  0  0  0  0  0  0  0  0  0  0
    0.2935   15.3195   -3.1739 H   0  0  0  0  0  0  0  0  0  0  0  0
   -0.0609   13.5586   -3.1739 H   0  0  0  0  0  0  0  0  0  0  0  0
    1.1101   15.0781    0.5136 H   0  0  0  0  0  0  0  0  0  0  0  0
    1.9557   16.0970   -0.7004 H   0  0  0  0  0  0  0  0  0  0  0  0
    0.1619   16.0021   -0.7004 H   0  0  0  0  0  0  0  0  0  0  0  0
    2.1008    9.8718    0.9278 H   0  0  0  0  0  0  0  0  0  0  0  0
    2.5673    8.7853   -0.4245 H   0  0  0  0  0  0  0  0  0  0  0  0
    3.1026   10.4999   -0.4245 H   0  0  0  0  0  0  0  0  0  0  0  0
    1.3532    9.3670   -2.8969 H   0  0  0  0  0  0  0  0  0  0  0  0
    1.0474    8.1598   -1.5249 H   0  0  0  0  0  0  0  0  0  0  0  0
   -1.0111    9.7417   -3.0890 H   0  0  0  0  0  0  0  0  0  0  0  0
   -0.7389    7.9547   -3.0666 H   0  0  0  0  0  0  0  0  0  0  0  0
   -1.2839    7.6767    0.6004 H   0  0  0  0  0  0  0  0  0  0  0  0
   -1.8823    6.6352   -0.7352 H   0  0  0  0  0  0  0  0  0  0  0  0
   -0.1789    7.2056   -0.7352 H   0  0  0  0  0  0  0  0  0  0  0  0
  1  2  1  0
  2  3  1  0
  3  4  1  0
  4  5  1  0
  5  6  1  0
  6  7  1  0
  7  8  1  0
  7  9  1  0
  2 10  1  0
 10 11  1  0
 11 12  1  0
 12 13  1  0
 13 14  1  6
 13 15  1  0
 15 16  1  0
 16 17  1  0
 17 18  2  0
 18 19  1  0
 19 20  1  0
 20 21  1  0
 21 22  1  0
 22 23  1  0
 22 24  1  0
 24 25  1  0
 24 26  1  0
 19 27  1  0
 27 28  1  1
 27 29  1  0
 29 30  1  0
 30 31  1  0
 31 32  1  1
  7  5  1  0
 31 10  1  0
 31 13  1  0
 27 15  1  0
 24 18  1  0
  1 33  1  0
  1 34  1  0
  1 35  1  0
  2 36  1  6
  3 37  1  0
  3 38  1  0
  4 39  1  0
  4 40  1  0
  5 41  1  1
  8 42  1  0
  8 43  1  0
  8 44  1  0
  9 45  1  0
  9 46  1  0
  9 47  1  0
 10 48  1  6
 11 49  1  0
 11 50  1  0
 12 51  1  0
 12 52  1  0
 14 53  1  0
 14 54  1  0
 14 55  1  0
 15 56  1  1
 16 57  1  0
 16 58  1  0
 17 59  1  0
 19 60  1  6
 20 61  1  0
 20 62  1  0
 21 63  1  0
 21 64  1  0
 22 65  1  6
 23 66  1  0
 25 67  1  0
 25 68  1  0
 25 69  1  0
 26 70  1  0
 26 71  1  0
 26 72  1  0
 28 73  1  0
 28 74  1  0
 28 75  1  0
 29 76  1  0
 29 77  1  0
 30 78  1  0
 30 79  1  0
 32 80  1  0
 32 81  1  0
 32 82  1  0
M  END
>  <meeko>  (7) 
{"is_sidechain": [false], "intermolecular_energy": 2.731, "internal_energy": -0.839}

$$$$
EPH_relaxed_0001_pdb2pqr_Repair_224_r2_0001_out
     RDKit          3D

 82 86  0  0  0  0  0  0  0  0999 V2000
   -2.2310    7.8660   -2.1980 C   0  0  0  0  0  0  0  0  0  0  0  0
   -2.1630    8.4650   -0.7910 C   0  0  2  0  0  0  0  0  0  0  0  0
   -3.5330    8.4440   -0.0840 C   0  0  0  0  0  0  0  0  0  0  0  0
   -4.7230    8.5090   -1.0450 C   0  0  0  0  0  0  0  0  0  0  0  0
   -5.4580    7.2040   -1.1080 C   0  0  2  0  0  0  0  0  0  0  0  0
   -5.5950    6.6570   -2.4270 O   0  0  0  0  0  0  0  0  0  0  0  0
   -6.8140    7.0390   -1.7680 C   0  0  0  0  0  0  0  0  0  0  0  0
   -7.5160    8.1940   -2.4100 C   0  0  0  0  0  0  0  0  0  0  0  0
   -7.6690    5.8780   -1.3650 C   0  0  0  0  0  0  0  0  0  0  0  0
   -1.6350    9.8940   -0.8590 C   0  0  1  0  0  0  0  0  0  0  0  0
   -1.1800   10.4300    0.5240 C   0  0  0  0  0  0  0  0  0  0  0  0
    0.0400   11.3510    0.2680 C   0  0  0  0  0  0  0  0  0  0  0  0
    0.0420   11.5790   -1.2620 C   0  0  1  0  0  0  0  0  0  0  0  0
   -1.0160   12.7020   -1.5010 C   0  0  0  0  0  0  0  0  0  0  0  0
    1.4200   11.9390   -1.9050 C   0  0  2  0  0  0  0  0  0  0  0  0
    2.0440   13.2580   -1.4170 C   0  0  0  0  0  0  0  0  0  0  0  0
    1.6770   14.4690   -2.2080 C   0  0  0  0  0  0  0  0  0  0  0  0
    1.1110   14.4630   -3.4300 C   0  0  0  0  0  0  0  0  0  0  0  0
    0.8750   13.1470   -4.1820 C   0  0  1  0  0  0  0  0  0  0  0  0
    1.3530   13.2970   -5.6500 C   0  0  0  0  0  0  0  0  0  0  0  0
    0.7190   14.4930   -6.3530 C   0  0  0  0  0  0  0  0  0  0  0  0
    1.0260   15.7890   -5.6070 C   0  0  2  0  0  0  0  0  0  0  0  0
    2.4290   16.0530   -5.6980 O   0  0  0  0  0  0  0  0  0  0  0  0
    0.5960   15.7530   -4.1140 C   0  0  0  0  0  0  0  0  0  0  0  0
   -0.9490   15.7710   -4.0160 C   0  0  0  0  0  0  0  0  0  0  0  0
    1.0890   17.0640   -3.4440 C   0  0  0  0  0  0  0  0  0  0  0  0
    1.4450   11.8380   -3.4840 C   0  0  1  0  0  0  0  0  0  0  0  0
    2.9340   11.6220   -3.8940 C   0  0  0  0  0  0  0  0  0  0  0  0
    0.6520   10.5860   -4.0160 C   0  0  0  0  0  0  0  0  0  0  0  0
   -0.6390   10.2100   -3.2650 C   0  0  0  0  0  0  0  0  0  0  0  0
   -0.3960   10.1520   -1.7530 C   0  0  2  0  0  0  0  0  0  0  0  0
    0.6470    9.0160   -1.4800 C   0  0  0  0  0  0  0  0  0  0  0  0
   -2.3548    6.7753   -2.1266 H   0  0  0  0  0  0  0  0  0  0  0  0
   -3.0859    8.2974   -2.7393 H   0  0  0  0  0  0  0  0  0  0  0  0
   -1.3011    8.0948   -2.7393 H   0  0  0  0  0  0  0  0  0  0  0  0
   -1.4760    7.8420   -0.1995 H   0  0  0  0  0  0  0  0  0  0  0  0
   -3.6083    7.5146    0.4996 H   0  0  0  0  0  0  0  0  0  0  0  0
   -3.5817    9.3424    0.5489 H   0  0  0  0  0  0  0  0  0  0  0  0
   -5.4156    9.2918   -0.7021 H   0  0  0  0  0  0  0  0  0  0  0  0
   -4.3390    8.7347   -2.0508 H   0  0  0  0  0  0  0  0  0  0  0  0
   -5.0807    6.9163   -0.1156 H   0  0  0  0  0  0  0  0  0  0  0  0
   -7.9191    8.8573   -1.6305 H   0  0  0  0  0  0  0  0  0  0  0  0
   -6.8050    8.7534   -3.0357 H   0  0  0  0  0  0  0  0  0  0  0  0
   -8.3400    7.8204   -3.0357 H   0  0  0  0  0  0  0  0  0  0  0  0
   -7.7129    5.8184   -0.2675 H   0  0  0  0  0  0  0  0  0  0  0  0
   -8.6844    6.0138   -1.7657 H   0  0  0  0  0  0  0  0  0  0  0  0
   -7.2380    4.9487   -1.7657 H   0  0  0  0  0  0  0  0  0  0  0  0
   -2.5170   10.3962   -1.2831 H   0  0  0  0  0  0  0  0  0  0  0  0
   -1.9935   11.0013    0.9951 H   0  0  0  0  0  0  0  0  0  0  0  0
   -0.9157    9.6036    1.2001 H   0  0  0  0  0  0  0  0  0  0  0  0
   -0.0748   12.3054    0.8028 H   0  0  0  0  0  0  0  0  0  0  0  0
    0.9807   10.9064    0.6249 H   0  0  0  0  0  0  0  0  0  0  0  0
   -1.3733   13.0813   -0.5323 H   0  0  0  0  0  0  0  0  0  0  0  0
   -0.5563   13.5238   -2.0696 H   0  0  0  0  0  0  0  0  0  0  0  0
   -1.8638   12.2921   -2.0696 H   0  0  0  0  0  0  0  0  0  0  0  0
    2.0731   11.1404   -1.5232 H   0  0  0  0  0  0  0  0  0  0  0  0
    1.7235   13.4213   -0.3775 H   0  0  0  0  0  0  0  0  0  0  0  0
    3.1318   13.1396   -1.5298 H   0  0  0  0  0  0  0  0  0  0  0  0
    1.8864   15.4492   -1.7548 H   0  0  0  0  0  0  0  0  0  0  0  0
   -0.2110   12.9737   -4.1596 H   0  0  0  0  0  0  0  0  0  0  0  0
    2.4456   13.4245   -5.6537 H   0  0  0  0  0  0  0  0  0  0  0  0
    1.0490   12.3906   -6.1941 H   0  0  0  0  0  0  0  0  0  0  0  0
    1.1182   14.5629   -7.3756 H   0  0  0  0  0  0  0  0  0  0  0  0
   -0.3715   14.3501   -6.3752 H   0  0  0  0  0  0  0  0  0  0  0  0
    0.4404   16.5896   -6.0825 H   0  0  0  0  0  0  0  0  0  0  0  0
    2.8580   15.6320   -4.9340 H   0  0  0  0  0  0  0  0  0  0  0  0
   -1.2493   15.7745   -2.9578 H   0  0  0  0  0  0  0  0  0  0  0  0
   -1.3373   16.6737   -4.5103 H   0  0  0  0  0  0  0  0  0  0  0  0
   -1.3582   14.8776   -4.5103 H   0  0  0  0  0  0  0  0  0  0  0  0
    1.0479   16.9547   -2.3502 H   0  0  0  0  0  0  0  0  0  0  0  0
    2.1249   17.2669   -3.7536 H   0  0  0  0  0  0  0  0  0  0  0  0
    0.4435   17.8992   -3.7536 H   0  0  0  0  0  0  0  0  0  0  0  0
    3.5539   11.5321   -2.9898 H   0  0  0  0  0  0  0  0  0  0  0  0
    3.0202   10.7019   -4.4907 H   0  0  0  0  0  0  0  0  0  0  0  0
    3.2781   12.4796   -4.4907 H   0  0  0  0  0  0  0  0  0  0  0  0
    0.3816   10.7842   -5.0637 H   0  0  0  0  0  0  0  0  0  0  0  0
    1.3297    9.7323   -3.8678 H   0  0  0  0  0  0  0  0  0  0  0  0
   -1.4113   10.9641   -3.4768 H   0  0  0  0  0  0  0  0  0  0  0  0
   -0.9671    9.2171   -3.6062 H   0  0  0  0  0  0  0  0  0  0  0  0
    0.7689    8.8832   -0.3949 H   0  0  0  0  0  0  0  0  0  0  0  0
    0.2907    8.0760   -1.9267 H   0  0  0  0  0  0  0  0  0  0  0  0
    1.6139    9.2909   -1.9267 H   0  0  0  0  0  0  0  0  0  0  0  0
  1  2  1  0
  2  3  1  0
  3  4  1  0
  4  5  1  0
  5  6  1  0
  6  7  1  0
  7  8  1  0
  7  9  1  0
  2 10  1  0
 10 11  1  0
 11 12  1  0
 12 13  1  0
 13 14  1  1
 13 15  1  0
 15 16  1  0
 16 17  1  0
 17 18  2  0
 18 19  1  0
 19 20  1  0
 20 21  1  0
 21 22  1  0
 22 23  1  0
 22 24  1  0
 24 25  1  0
 24 26  1  0
 19 27  1  0
 27 28  1  6
 27 29  1  0
 29 30  1  0
 30 31  1  0
 31 32  1  6
  7  5  1  0
 31 10  1  0
 31 13  1  0
 27 15  1  0
 24 18  1  0
  1 33  1  0
  1 34  1  0
  1 35  1  0
  2 36  1  1
  3 37  1  0
  3 38  1  0
  4 39  1  0
  4 40  1  0
  5 41  1  1
  8 42  1  0
  8 43  1  0
  8 44  1  0
  9 45  1  0
  9 46  1  0
  9 47  1  0
 10 48  1  6
 11 49  1  0
 11 50  1  0
 12 51  1  0
 12 52  1  0
 14 53  1  0
 14 54  1  0
 14 55  1  0
 15 56  1  1
 16 57  1  0
 16 58  1  0
 17 59  1  0
 19 60  1  6
 20 61  1  0
 20 62  1  0
 21 63  1  0
 21 64  1  0
 22 65  1  6
 23 66  1  0
 25 67  1  0
 25 68  1  0
 25 69  1  0
 26 70  1  0
 26 71  1  0
 26 72  1  0
 28 73  1  0
 28 74  1  0
 28 75  1  0
 29 76  1  0
 29 77  1  0
 30 78  1  0
 30 79  1  0
 32 80  1  0
 32 81  1  0
 32 82  1  0
M  END
>  <meeko>  (8) 
{"is_sidechain": [false], "intermolecular_energy": 2.731, "internal_energy": -0.839}

$$$$
EPH_relaxed_0001_pdb2pqr_Repair_224_r2_0001_out
     RDKit          3D

 82 86  0  0  0  0  0  0  0  0999 V2000
   -0.2850   15.1190   -7.7040 C   0  0  0  0  0  0  0  0  0  0  0  0
    1.0800   15.1110   -7.0110 C   0  0  2  0  0  0  0  0  0  0  0  0
    2.2430   15.2120   -8.0170 C   0  0  0  0  0  0  0  0  0  0  0  0
    2.2570   16.5200   -8.8130 C   0  0  0  0  0  0  0  0  0  0  0  0
    1.8640   16.3040  -10.2430 C   0  0  2  0  0  0  0  0  0  0  0  0
    1.2000   15.0600  -10.4990 O   0  0  0  0  0  0  0  0  0  0  0  0
    2.4800   15.2360  -11.1270 C   0  0  0  0  0  0  0  0  0  0  0  0
    3.5410   14.3140  -10.6140 C   0  0  0  0  0  0  0  0  0  0  0  0
    2.4040   15.4060  -12.6130 C   0  0  0  0  0  0  0  0  0  0  0  0
    1.2280   13.8490   -6.1690 C   0  0  1  0  0  0  0  0  0  0  0  0
    2.6580   13.2510   -6.2340 C   0  0  0  0  0  0  0  0  0  0  0  0
    2.9570   12.6520   -4.8360 C   0  0  0  0  0  0  0  0  0  0  0  0
    1.5850   12.6250   -4.1220 C   0  0  1  0  0  0  0  0  0  0  0  0
    0.8780   11.3420   -4.6600 C   0  0  0  0  0  0  0  0  0  0  0  0
    1.6190   12.6530   -2.5590 C   0  0  2  0  0  0  0  0  0  0  0  0
    2.3100   11.4470   -1.9000 C   0  0  0  0  0  0  0  0  0  0  0  0
    1.4160   10.2960   -1.5800 C   0  0  0  0  0  0  0  0  0  0  0  0
    0.0700   10.3360   -1.5480 C   0  0  0  0  0  0  0  0  0  0  0  0
   -0.6830   11.6560   -1.7570 C   0  0  1  0  0  0  0  0  0  0  0  0
   -1.7850   11.7990   -0.6750 C   0  0  0  0  0  0  0  0  0  0  0  0
   -2.7200   10.5950   -0.6280 C   0  0  0  0  0  0  0  0  0  0  0  0
   -1.9410    9.3100   -0.3600 C   0  0  2  0  0  0  0  0  0  0  0  0
   -1.4000    9.3660    0.9630 O   0  0  0  0  0  0  0  0  0  0  0  0
   -0.7960    9.0630   -1.3830 C   0  0  0  0  0  0  0  0  0  0  0  0
   -1.4000    8.7030   -2.7630 C   0  0  0  0  0  0  0  0  0  0  0  0
   -0.0010    7.8130   -0.9180 C   0  0  0  0  0  0  0  0  0  0  0  0
    0.2200   12.9570   -1.8850 C   0  0  1  0  0  0  0  0  0  0  0  0
    0.5230   13.5360   -0.4700 C   0  0  0  0  0  0  0  0  0  0  0  0
   -0.5860   14.0680   -2.6560 C   0  0  0  0  0  0  0  0  0  0  0  0
   -0.4840   14.0610   -4.1930 C   0  0  0  0  0  0  0  0  0  0  0  0
    0.9770   13.9770   -4.6450 C   0  0  2  0  0  0  0  0  0  0  0  0
    1.7090   15.2660   -4.1370 C   0  0  0  0  0  0  0  0  0  0  0  0
   -1.0814   15.1237   -6.9452 H   0  0  0  0  0  0  0  0  0  0  0  0
   -0.3719   16.0177   -8.3324 H   0  0  0  0  0  0  0  0  0  0  0  0
   -0.3825   14.2214   -8.3324 H   0  0  0  0  0  0  0  0  0  0  0  0
    1.1267   15.9984   -6.3627 H   0  0  0  0  0  0  0  0  0  0  0  0
    3.1897   15.1329   -7.4624 H   0  0  0  0  0  0  0  0  0  0  0  0
    2.1120   14.3957   -8.7426 H   0  0  0  0  0  0  0  0  0  0  0  0
    1.5500   17.2253   -8.3518 H   0  0  0  0  0  0  0  0  0  0  0  0
    3.2815   16.9203   -8.7961 H   0  0  0  0  0  0  0  0  0  0  0  0
    1.7091   17.3832  -10.3888 H   0  0  0  0  0  0  0  0  0  0  0  0
    3.5326   14.3213   -9.5141 H   0  0  0  0  0  0  0  0  0  0  0  0
    3.3461   13.2935  -10.9754 H   0  0  0  0  0  0  0  0  0  0  0  0
    4.5243   14.6494  -10.9754 H   0  0  0  0  0  0  0  0  0  0  0  0
    1.9654   16.3871  -12.8479 H   0  0  0  0  0  0  0  0  0  0  0  0
    3.4153   15.3445  -13.0413 H   0  0  0  0  0  0  0  0  0  0  0  0
    1.7754   14.6113  -13.0413 H   0  0  0  0  0  0  0  0  0  0  0  0
    0.4447   13.2285   -6.6288 H   0  0  0  0  0  0  0  0  0  0  0  0
    2.7048   12.4640   -7.0011 H   0  0  0  0  0  0  0  0  0  0  0  0
    3.3965   14.0219   -6.4992 H   0  0  0  0  0  0  0  0  0  0  0  0
    3.3667   11.6354   -4.9286 H   0  0  0  0  0  0  0  0  0  0  0  0
    3.7044   13.2387   -4.2818 H   0  0  0  0  0  0  0  0  0  0  0  0
    0.5393   10.7274   -3.8129 H   0  0  0  0  0  0  0  0  0  0  0  0
    0.0115   11.6306   -5.2732 H   0  0  0  0  0  0  0  0  0  0  0  0
    1.5848   10.7636   -5.2732 H   0  0  0  0  0  0  0  0  0  0  0  0
    2.2667   13.5179   -2.3530 H   0  0  0  0  0  0  0  0  0  0  0  0
    3.0935   11.0888   -2.5840 H   0  0  0  0  0  0  0  0  0  0  0  0
    2.6977   11.8081   -0.9360 H   0  0  0  0  0  0  0  0  0  0  0  0
    1.8968    9.3335   -1.3509 H   0  0  0  0  0  0  0  0  0  0  0  0
   -1.1442   11.5892   -2.7534 H   0  0  0  0  0  0  0  0  0  0  0  0
   -1.3022   11.9088    0.3073 H   0  0  0  0  0  0  0  0  0  0  0  0
   -2.3903   12.6813   -0.9303 H   0  0  0  0  0  0  0  0  0  0  0  0
   -3.4575   10.7430    0.1746 H   0  0  0  0  0  0  0  0  0  0  0  0
   -3.2242   10.5036   -1.6014 H   0  0  0  0  0  0  0  0  0  0  0  0
   -2.6435    8.4702   -0.4664 H   0  0  0  0  0  0  0  0  0  0  0  0
   -0.7270    8.6670    1.0360 H   0  0  0  0  0  0  0  0  0  0  0  0
   -2.3367    8.1447   -2.6189 H   0  0  0  0  0  0  0  0  0  0  0  0
   -1.6059    9.6258   -3.3251 H   0  0  0  0  0  0  0  0  0  0  0  0
   -0.6863    8.0828   -3.3251 H   0  0  0  0  0  0  0  0  0  0  0  0
    0.0201    7.7799    0.1813 H   0  0  0  0  0  0  0  0  0  0  0  0
   -0.4878    6.9048   -1.3029 H   0  0  0  0  0  0  0  0  0  0  0  0
    1.0279    7.8688   -1.3029 H   0  0  0  0  0  0  0  0  0  0  0  0
    0.1577   12.8380    0.2977 H   0  0  0  0  0  0  0  0  0  0  0  0
    1.6083   13.6729   -0.3545 H   0  0  0  0  0  0  0  0  0  0  0  0
    0.0168   14.5058   -0.3545 H   0  0  0  0  0  0  0  0  0  0  0  0
   -1.6477   13.9518   -2.3926 H   0  0  0  0  0  0  0  0  0  0  0  0
   -0.1342   15.0206   -2.3424 H   0  0  0  0  0  0  0  0  0  0  0  0
   -1.0328   13.1925   -4.5861 H   0  0  0  0  0  0  0  0  0  0  0  0
   -0.9169   14.9963   -4.5775 H   0  0  0  0  0  0  0  0  0  0  0  0
    1.7143   15.2753   -3.0371 H   0  0  0  0  0  0  0  0  0  0  0  0
    2.7443   15.2703   -4.5087 H   0  0  0  0  0  0  0  0  0  0  0  0
    1.1823   16.1573   -4.5087 H   0  0  0  0  0  0  0  0  0  0  0  0
  1  2  1  0
  2  3  1  0
  3  4  1  0
  4  5  1  0
  5  6  1  0
  6  7  1  0
  7  8  1  0
  7  9  1  0
  2 10  1  0
 10 11  1  0
 11 12  1  0
 12 13  1  0
 13 14  1  1
 13 15  1  0
 15 16  1  0
 16 17  1  0
 17 18  2  0
 18 19  1  0
 19 20  1  0
 20 21  1  0
 21 22  1  0
 22 23  1  0
 22 24  1  0
 24 25  1  0
 24 26  1  0
 19 27  1  0
 27 28  1  1
 27 29  1  0
 29 30  1  0
 30 31  1  0
 31 32  1  1
  7  5  1  0
 31 10  1  0
 31 13  1  0
 27 15  1  0
 24 18  1  0
  1 33  1  0
  1 34  1  0
  1 35  1  0
  2 36  1  1
  3 37  1  0
  3 38  1  0
  4 39  1  0
  4 40  1  0
  5 41  1  6
  8 42  1  0
  8 43  1  0
  8 44  1  0
  9 45  1  0
  9 46  1  0
  9 47  1  0
 10 48  1  6
 11 49  1  0
 11 50  1  0
 12 51  1  0
 12 52  1  0
 14 53  1  0
 14 54  1  0
 14 55  1  0
 15 56  1  6
 16 57  1  0
 16 58  1  0
 17 59  1  0
 19 60  1  6
 20 61  1  0
 20 62  1  0
 21 63  1  0
 21 64  1  0
 22 65  1  1
 23 66  1  0
 25 67  1  0
 25 68  1  0
 25 69  1  0
 26 70  1  0
 26 71  1  0
 26 72  1  0
 28 73  1  0
 28 74  1  0
 28 75  1  0
 29 76  1  0
 29 77  1  0
 30 78  1  0
 30 79  1  0
 32 80  1  0
 32 81  1  0
 32 82  1  0
M  END
>  <meeko>  (9) 
{"is_sidechain": [false], "intermolecular_energy": 2.731, "internal_energy": -0.839}

$$$$
EPH_relaxed_0001_pdb2pqr_Repair_224_r2_0001_out
     RDKit          3D

 82 86  0  0  0  0  0  0  0  0999 V2000
    3.1620   17.7730   -2.1520 C   0  0  0  0  0  0  0  0  0  0  0  0
    2.9270   17.4660   -0.6700 C   0  0  2  0  0  0  0  0  0  0  0  0
    4.2150   17.0010    0.0380 C   0  0  0  0  0  0  0  0  0  0  0  0
    4.9660   18.1270    0.7530 C   0  0  0  0  0  0  0  0  0  0  0  0
    4.3880   18.4050    2.1080 C   0  0  2  0  0  0  0  0  0  0  0  0
    4.1920   19.7950    2.4010 O   0  0  0  0  0  0  0  0  0  0  0  0
    5.1530   19.1050    3.2160 C   0  0  0  0  0  0  0  0  0  0  0  0
    6.5620   19.5690    3.0180 C   0  0  0  0  0  0  0  0  0  0  0  0
    4.7090   18.9010    4.6310 C   0  0  0  0  0  0  0  0  0  0  0  0
    1.8400   16.4070   -0.5250 C   0  0  1  0  0  0  0  0  0  0  0  0
    0.4100   17.0050   -0.5940 C   0  0  0  0  0  0  0  0  0  0  0  0
   -0.4800   15.9530   -1.3050 C   0  0  0  0  0  0  0  0  0  0  0  0
    0.3760   14.6650   -1.3220 C   0  0  1  0  0  0  0  0  0  0  0  0
    0.1940   14.0440    0.0990 C   0  0  0  0  0  0  0  0  0  0  0  0
    0.0480   13.6320   -2.4490 C   0  0  2  0  0  0  0  0  0  0  0  0
   -1.3690   13.0360   -2.3960 C   0  0  0  0  0  0  0  0  0  0  0  0
   -1.5030   11.7820   -1.5960 C   0  0  0  0  0  0  0  0  0  0  0  0
   -0.4850   11.0040   -1.1840 C   0  0  0  0  0  0  0  0  0  0  0  0
    0.9590   11.3090   -1.6030 C   0  0  1  0  0  0  0  0  0  0  0  0
    1.6480   10.0030   -2.0780 C   0  0  0  0  0  0  0  0  0  0  0  0
    1.5650    8.8880   -1.0400 C   0  0  0  0  0  0  0  0  0  0  0  0
    0.1120    8.5730   -0.6920 C   0  0  2  0  0  0  0  0  0  0  0  0
   -0.5250    8.0080   -1.8420 O   0  0  0  0  0  0  0  0  0  0  0  0
   -0.6860    9.8170   -0.2100 C   0  0  0  0  0  0  0  0  0  0  0  0
   -0.1840   10.2470    1.1900 C   0  0  0  0  0  0  0  0  0  0  0  0
   -2.1680    9.3920   -0.0280 C   0  0  0  0  0  0  0  0  0  0  0  0
    1.1430   12.5050   -2.6340 C   0  0  1  0  0  0  0  0  0  0  0  0
    0.9970   11.9770   -4.0940 C   0  0  0  0  0  0  0  0  0  0  0  0
    2.6090   13.0690   -2.5100 C   0  0  0  0  0  0  0  0  0  0  0  0
    2.8430   14.1720   -1.4610 C   0  0  0  0  0  0  0  0  0  0  0  0
    1.7960   15.2830   -1.5900 C   0  0  2  0  0  0  0  0  0  0  0  0
    1.9690   15.9410   -3.0010 C   0  0  0  0  0  0  0  0  0  0  0  0
    3.8282   18.6433   -2.2450 H   0  0  0  0  0  0  0  0  0  0  0  0
    3.6265   16.9022   -2.6377 H   0  0  0  0  0  0  0  0  0  0  0  0
    2.2001   17.9940   -2.6377 H   0  0  0  0  0  0  0  0  0  0  0  0
    2.6035   18.3991   -0.1855 H   0  0  0  0  0  0  0  0  0  0  0  0
    3.9457   16.2365    0.7817 H   0  0  0  0  0  0  0  0  0  0  0  0
    4.8867   16.6111   -0.7410 H   0  0  0  0  0  0  0  0  0  0  0  0
    6.0204   17.8355    0.8681 H   0  0  0  0  0  0  0  0  0  0  0  0
    4.8737   19.0401    0.1466 H   0  0  0  0  0  0  0  0  0  0  0  0
    3.8189   17.4639    2.0849 H   0  0  0  0  0  0  0  0  0  0  0  0
    7.0375   19.7256    3.9975 H   0  0  0  0  0  0  0  0  0  0  0  0
    7.1230   18.8081    2.4555 H   0  0  0  0  0  0  0  0  0  0  0  0
    6.5611   20.5143    2.4555 H   0  0  0  0  0  0  0  0  0  0  0  0
    5.4910   19.2603    5.3161 H   0  0  0  0  0  0  0  0  0  0  0  0
    3.7799   19.4625    4.8083 H   0  0  0  0  0  0  0  0  0  0  0  0
    4.5298   17.8303    4.8083 H   0  0  0  0  0  0  0  0  0  0  0  0
    2.1202   15.9880    0.4527 H   0  0  0  0  0  0  0  0  0  0  0  0
    0.0309   17.1987    0.4203 H   0  0  0  0  0  0  0  0  0  0  0  0
    0.4067   17.9597   -1.1403 H   0  0  0  0  0  0  0  0  0  0  0  0
   -1.4131   15.7917   -0.7452 H   0  0  0  0  0  0  0  0  0  0  0  0
   -0.7751   16.2711   -2.3158 H   0  0  0  0  0  0  0  0  0  0  0  0
    0.4167   14.8039    0.8625 H   0  0  0  0  0  0  0  0  0  0  0  0
   -0.8434   13.6979    0.2178 H   0  0  0  0  0  0  0  0  0  0  0  0
    0.8804   13.1927    0.2178 H   0  0  0  0  0  0  0  0  0  0  0  0
    0.0755   14.2553   -3.3550 H   0  0  0  0  0  0  0  0  0  0  0  0
   -2.0394   13.7911   -1.9596 H   0  0  0  0  0  0  0  0  0  0  0  0
   -1.6250   12.7659   -3.4312 H   0  0  0  0  0  0  0  0  0  0  0  0
   -2.5203   11.4675   -1.3200 H   0  0  0  0  0  0  0  0  0  0  0  0
    1.4627   11.6901   -0.7024 H   0  0  0  0  0  0  0  0  0  0  0  0
    1.1585    9.6619   -3.0021 H   0  0  0  0  0  0  0  0  0  0  0  0
    2.7121   10.2274   -2.2432 H   0  0  0  0  0  0  0  0  0  0  0  0
    2.0425    7.9834   -1.4445 H   0  0  0  0  0  0  0  0  0  0  0  0
    2.0807    9.2196   -0.1267 H   0  0  0  0  0  0  0  0  0  0  0  0
    0.1200    7.8617    0.1471 H   0  0  0  0  0  0  0  0  0  0  0  0
   -0.4380    8.6470   -2.5700 H   0  0  0  0  0  0  0  0  0  0  0  0
   -0.7774    9.7387    1.9643 H   0  0  0  0  0  0  0  0  0  0  0  0
    0.8753    9.9718    1.3002 H   0  0  0  0  0  0  0  0  0  0  0  0
   -0.2933   11.3360    1.3002 H   0  0  0  0  0  0  0  0  0  0  0  0
   -2.4012    9.3251    1.0449 H   0  0  0  0  0  0  0  0  0  0  0  0
   -2.8241   10.1382   -0.5000 H   0  0  0  0  0  0  0  0  0  0  0  0
   -2.3289    8.4115   -0.5000 H   0  0  0  0  0  0  0  0  0  0  0  0
    0.7039   10.9170   -4.0730 H   0  0  0  0  0  0  0  0  0  0  0  0
    0.2264   12.5602   -4.6195 H   0  0  0  0  0  0  0  0  0  0  0  0
    1.9577   12.0814   -4.6195 H   0  0  0  0  0  0  0  0  0  0  0  0
    3.2696   12.2260   -2.2593 H   0  0  0  0  0  0  0  0  0  0  0  0
    2.8167   13.5455   -3.4794 H   0  0  0  0  0  0  0  0  0  0  0  0
    2.7781   13.7315   -0.4551 H   0  0  0  0  0  0  0  0  0  0  0  0
    3.8391   14.6080   -1.6270 H   0  0  0  0  0  0  0  0  0  0  0  0
    2.2470   16.9985   -2.8808 H   0  0  0  0  0  0  0  0  0  0  0  0
    2.7594   15.4149   -3.5565 H   0  0  0  0  0  0  0  0  0  0  0  0
    1.0221   15.8717   -3.5565 H   0  0  0  0  0  0  0  0  0  0  0  0
  1  2  1  0
  2  3  1  0
  3  4  1  0
  4  5  1  0
  5  6  1  0
  6  7  1  0
  7  8  1  0
  7  9  1  0
  2 10  1  0
 10 11  1  0
 11 12  1  0
 12 13  1  0
 13 14  1  1
 13 15  1  0
 15 16  1  0
 16 17  1  0
 17 18  2  0
 18 19  1  0
 19 20  1  0
 20 21  1  0
 21 22  1  0
 22 23  1  0
 22 24  1  0
 24 25  1  0
 24 26  1  0
 19 27  1  0
 27 28  1  6
 27 29  1  0
 29 30  1  0
 30 31  1  0
 31 32  1  6
  7  5  1  0
 31 10  1  0
 31 13  1  0
 27 15  1  0
 24 18  1  0
  1 33  1  0
  1 34  1  0
  1 35  1  0
  2 36  1  1
  3 37  1  0
  3 38  1  0
  4 39  1  0
  4 40  1  0
  5 41  1  1
  8 42  1  0
  8 43  1  0
  8 44  1  0
  9 45  1  0
  9 46  1  0
  9 47  1  0
 10 48  1  1
 11 49  1  0
 11 50  1  0
 12 51  1  0
 12 52  1  0
 14 53  1  0
 14 54  1  0
 14 55  1  0
 15 56  1  6
 16 57  1  0
 16 58  1  0
 17 59  1  0
 19 60  1  1
 20 61  1  0
 20 62  1  0
 21 63  1  0
 21 64  1  0
 22 65  1  1
 23 66  1  0
 25 67  1  0
 25 68  1  0
 25 69  1  0
 26 70  1  0
 26 71  1  0
 26 72  1  0
 28 73  1  0
 28 74  1  0
 28 75  1  0
 29 76  1  0
 29 77  1  0
 30 78  1  0
 30 79  1  0
 32 80  1  0
 32 81  1  0
 32 82  1  0
M  END
>  <meeko>  (10) 
{"is_sidechain": [false], "intermolecular_energy": 2.731, "internal_energy": -0.839}

$$$$
EPH_relaxed_0001_pdb2pqr_Repair_224_r2_0001_out
     RDKit          3D

 82 86  0  0  0  0  0  0  0  0999 V2000
    0.9660   14.9730   -2.6850 C   0  0  0  0  0  0  0  0  0  0  0  0
    1.2090   14.2960   -4.0370 C   0  0  2  0  0  0  0  0  0  0  0  0
    0.4770   15.0160   -5.1870 C   0  0  0  0  0  0  0  0  0  0  0  0
    0.9730   14.6150   -6.5790 C   0  0  0  0  0  0  0  0  0  0  0  0
    0.8000   15.7260   -7.5700 C   0  0  2  0  0  0  0  0  0  0  0  0
    0.4130   15.3020   -8.8840 O   0  0  0  0  0  0  0  0  0  0  0  0
    1.7040   15.9220   -8.7730 C   0  0  0  0  0  0  0  0  0  0  0  0
    2.8490   14.9990   -9.0480 C   0  0  0  0  0  0  0  0  0  0  0  0
    1.7760   17.2800   -9.4000 C   0  0  0  0  0  0  0  0  0  0  0  0
    0.7710   12.8370   -3.9730 C   0  0  1  0  0  0  0  0  0  0  0  0
    1.9070   11.8550   -4.3630 C   0  0  0  0  0  0  0  0  0  0  0  0
    1.7270   10.5910   -3.4840 C   0  0  0  0  0  0  0  0  0  0  0  0
    0.3190   10.7440   -2.8640 C   0  0  1  0  0  0  0  0  0  0  0  0
   -0.6640   10.2640   -3.9770 C   0  0  0  0  0  0  0  0  0  0  0  0
    0.0730    9.9960   -1.5130 C   0  0  2  0  0  0  0  0  0  0  0  0
    0.1900    8.4630   -1.5860 C   0  0  0  0  0  0  0  0  0  0  0  0
   -1.0800    7.7410   -1.8940 C   0  0  0  0  0  0  0  0  0  0  0  0
   -2.3160    8.2680   -1.8240 C   0  0  0  0  0  0  0  0  0  0  0  0
   -2.5360    9.6950   -1.3060 C   0  0  1  0  0  0  0  0  0  0  0  0
   -3.7060    9.7020   -0.2870 C   0  0  0  0  0  0  0  0  0  0  0  0
   -4.9800    9.0850   -0.8550 C   0  0  0  0  0  0  0  0  0  0  0  0
   -4.7360    7.6470   -1.3060 C   0  0  2  0  0  0  0  0  0  0  0  0
   -4.4600    6.8440   -0.1540 O   0  0  0  0  0  0  0  0  0  0  0  0
   -3.5720    7.5140   -2.3270 C   0  0  0  0  0  0  0  0  0  0  0  0
   -3.9970    8.1290   -3.6830 C   0  0  0  0  0  0  0  0  0  0  0  0
   -3.3380    6.0020   -2.5910 C   0  0  0  0  0  0  0  0  0  0  0  0
   -1.2440   10.4400   -0.7560 C   0  0  1  0  0  0  0  0  0  0  0  0
   -1.0300   10.0940    0.7490 C   0  0  0  0  0  0  0  0  0  0  0  0
   -1.4780   11.9950   -0.8260 C   0  0  0  0  0  0  0  0  0  0  0  0
   -1.1040   12.6960   -2.1460 C   0  0  0  0  0  0  0  0  0  0  0  0
    0.3020   12.2940   -2.6000 C   0  0  2  0  0  0  0  0  0  0  0  0
    1.3160   12.7850   -1.5100 C   0  0  0  0  0  0  0  0  0  0  0  0
    1.2171   14.2733   -1.8742 H   0  0  0  0  0  0  0  0  0  0  0  0
    1.5985   15.8694   -2.6048 H   0  0  0  0  0  0  0  0  0  0  0  0
   -0.0922   15.2625   -2.6048 H   0  0  0  0  0  0  0  0  0  0  0  0
    2.2874   14.3520   -4.2465 H   0  0  0  0  0  0  0  0  0  0  0  0
   -0.5950   14.7789   -5.1187 H   0  0  0  0  0  0  0  0  0  0  0  0
    0.6771   16.0915   -5.0719 H   0  0  0  0  0  0  0  0  0  0  0  0
    2.0403   14.3561   -6.5163 H   0  0  0  0  0  0  0  0  0  0  0  0
    0.3783   13.7549   -6.9205 H   0  0  0  0  0  0  0  0  0  0  0  0
    0.4664   16.4123   -6.7777 H   0  0  0  0  0  0  0  0  0  0  0  0
    3.2780   14.6532   -8.0960 H   0  0  0  0  0  0  0  0  0  0  0  0
    2.4917   14.1334   -9.6251 H   0  0  0  0  0  0  0  0  0  0  0  0
    3.6191   15.5319   -9.6251 H   0  0  0  0  0  0  0  0  0  0  0  0
    1.8166   18.0461   -8.6117 H   0  0  0  0  0  0  0  0  0  0  0  0
    2.6790   17.3482  -10.0244 H   0  0  0  0  0  0  0  0  0  0  0  0
    0.8852   17.4433  -10.0244 H   0  0  0  0  0  0  0  0  0  0  0  0
   -0.0762   12.8684   -4.6739 H   0  0  0  0  0  0  0  0  0  0  0  0
    1.8297   11.5900   -5.4278 H   0  0  0  0  0  0  0  0  0  0  0  0
    2.8953   12.3104   -4.2021 H   0  0  0  0  0  0  0  0  0  0  0  0
    1.7841    9.6799   -4.0977 H   0  0  0  0  0  0  0  0  0  0  0  0
    2.5120   10.4999   -2.7188 H   0  0  0  0  0  0  0  0  0  0  0  0
   -1.5596    9.8267   -3.5115 H   0  0  0  0  0  0  0  0  0  0  0  0
   -0.9567   11.1206   -4.6020 H   0  0  0  0  0  0  0  0  0  0  0  0
   -0.1685    9.5064   -4.6020 H   0  0  0  0  0  0  0  0  0  0  0  0
    0.9217   10.3320   -0.8992 H   0  0  0  0  0  0  0  0  0  0  0  0
    0.9209    8.2147   -2.3697 H   0  0  0  0  0  0  0  0  0  0  0  0
    0.4923    8.1324   -0.5813 H   0  0  0  0  0  0  0  0  0  0  0  0
   -0.9983    6.6889   -2.2045 H   0  0  0  0  0  0  0  0  0  0  0  0
   -2.8033   10.2994   -2.1854 H   0  0  0  0  0  0  0  0  0  0  0  0
   -3.4028    9.1294    0.6019 H   0  0  0  0  0  0  0  0  0  0  0  0
   -3.9253   10.7507   -0.0376 H   0  0  0  0  0  0  0  0  0  0  0  0
   -5.7599    9.0915   -0.0793 H   0  0  0  0  0  0  0  0  0  0  0  0
   -5.2985    9.6767   -1.7259 H   0  0  0  0  0  0  0  0  0  0  0  0
   -5.6451    7.3038   -1.8214 H   0  0  0  0  0  0  0  0  0  0  0  0
   -5.1610    6.1740   -0.0880 H   0  0  0  0  0  0  0  0  0  0  0  0
   -4.6140    9.0218   -3.5034 H   0  0  0  0  0  0  0  0  0  0  0  0
   -3.1006    8.4117   -4.2545 H   0  0  0  0  0  0  0  0  0  0  0  0
   -4.5784    7.3904   -4.2545 H   0  0  0  0  0  0  0  0  0  0  0  0
   -3.2558    5.4707   -1.6314 H   0  0  0  0  0  0  0  0  0  0  0  0
   -4.1838    5.5947   -3.1643 H   0  0  0  0  0  0  0  0  0  0  0  0
   -2.4086    5.8694   -3.1643 H   0  0  0  0  0  0  0  0  0  0  0  0
   -1.5063   10.8641    1.3736 H   0  0  0  0  0  0  0  0  0  0  0  0
   -1.4802    9.1145    0.9676 H   0  0  0  0  0  0  0  0  0  0  0  0
    0.0475   10.0593    0.9676 H   0  0  0  0  0  0  0  0  0  0  0  0
   -2.5469   12.1791   -0.6429 H   0  0  0  0  0  0  0  0  0  0  0  0
   -0.8004   12.4218   -0.0719 H   0  0  0  0  0  0  0  0  0  0  0  0
   -1.8285   12.4106   -2.9230 H   0  0  0  0  0  0  0  0  0  0  0  0
   -1.1228   13.7837   -1.9834 H   0  0  0  0  0  0  0  0  0  0  0  0
    0.9041   12.5856   -0.5097 H   0  0  0  0  0  0  0  0  0  0  0  0
    2.2691   12.2486   -1.6277 H   0  0  0  0  0  0  0  0  0  0  0  0
    1.4863   13.8653   -1.6277 H   0  0  0  0  0  0  0  0  0  0  0  0
  1  2  1  0
  2  3  1  0
  3  4  1  0
  4  5  1  0
  5  6  1  0
  6  7  1  0
  7  8  1  0
  7  9  1  0
  2 10  1  0
 10 11  1  0
 11 12  1  0
 12 13  1  0
 13 14  1  6
 13 15  1  0
 15 16  1  0
 16 17  1  0
 17 18  2  0
 18 19  1  0
 19 20  1  0
 20 21  1  0
 21 22  1  0
 22 23  1  0
 22 24  1  0
 24 25  1  0
 24 26  1  0
 19 27  1  0
 27 28  1  1
 27 29  1  0
 29 30  1  0
 30 31  1  0
 31 32  1  1
  7  5  1  0
 31 10  1  0
 31 13  1  0
 27 15  1  0
 24 18  1  0
  1 33  1  0
  1 34  1  0
  1 35  1  0
  2 36  1  6
  3 37  1  0
  3 38  1  0
  4 39  1  0
  4 40  1  0
  5 41  1  1
  8 42  1  0
  8 43  1  0
  8 44  1  0
  9 45  1  0
  9 46  1  0
  9 47  1  0
 10 48  1  6
 11 49  1  0
 11 50  1  0
 12 51  1  0
 12 52  1  0
 14 53  1  0
 14 54  1  0
 14 55  1  0
 15 56  1  1
 16 57  1  0
 16 58  1  0
 17 59  1  0
 19 60  1  6
 20 61  1  0
 20 62  1  0
 21 63  1  0
 21 64  1  0
 22 65  1  6
 23 66  1  0
 25 67  1  0
 25 68  1  0
 25 69  1  0
 26 70  1  0
 26 71  1  0
 26 72  1  0
 28 73  1  0
 28 74  1  0
 28 75  1  0
 29 76  1  0
 29 77  1  0
 30 78  1  0
 30 79  1  0
 32 80  1  0
 32 81  1  0
 32 82  1  0
M  END
>  <meeko>  (11) 
{"is_sidechain": [false], "intermolecular_energy": 2.731, "internal_energy": -0.839}

$$$$
EPH_relaxed_0001_pdb2pqr_Repair_224_r2_0001_out
     RDKit          3D

 82 86  0  0  0  0  0  0  0  0999 V2000
    0.5690    8.7820   -1.2550 C   0  0  0  0  0  0  0  0  0  0  0  0
    1.1580    9.7610   -2.2750 C   0  0  2  0  0  0  0  0  0  0  0  0
    2.6880    9.8900   -2.1400 C   0  0  0  0  0  0  0  0  0  0  0  0
    3.3810   10.3710   -3.4180 C   0  0  0  0  0  0  0  0  0  0  0  0
    4.7950   10.7920   -3.1570 C   0  0  2  0  0  0  0  0  0  0  0  0
    5.2120   11.9640   -3.8690 O   0  0  0  0  0  0  0  0  0  0  0  0
    5.8900   10.7430   -4.2070 C   0  0  0  0  0  0  0  0  0  0  0  0
    5.6170   10.2590   -5.5960 C   0  0  0  0  0  0  0  0  0  0  0  0
    7.3150   10.6990   -3.7520 C   0  0  0  0  0  0  0  0  0  0  0  0
    0.5040   11.1290   -2.1190 C   0  0  1  0  0  0  0  0  0  0  0  0
   -0.7750   11.0840   -1.2410 C   0  0  0  0  0  0  0  0  0  0  0  0
   -0.8230   12.4170   -0.4510 C   0  0  0  0  0  0  0  0  0  0  0  0
    0.2330   13.3150   -1.1370 C   0  0  1  0  0  0  0  0  0  0  0  0
   -0.4870   13.8900   -2.3970 C   0  0  0  0  0  0  0  0  0  0  0  0
    0.8520   14.4500   -0.2570 C   0  0  2  0  0  0  0  0  0  0  0  0
   -0.1480   15.5090    0.2390 C   0  0  0  0  0  0  0  0  0  0  0  0
   -0.3270   16.6880   -0.6590 C   0  0  0  0  0  0  0  0  0  0  0  0
    0.4910   17.0310   -1.6710 C   0  0  0  0  0  0  0  0  0  0  0  0
    1.7860   16.2530   -1.9360 C   0  0  1  0  0  0  0  0  0  0  0  0
    2.9530   17.2500   -2.1580 C   0  0  0  0  0  0  0  0  0  0  0  0
    2.6520   18.2700   -3.2520 C   0  0  0  0  0  0  0  0  0  0  0  0
    1.3890   19.0630   -2.9240 C   0  0  2  0  0  0  0  0  0  0  0  0
    1.6400   19.8730   -1.7720 O   0  0  0  0  0  0  0  0  0  0  0  0
    0.1480   18.1630   -2.6710 C   0  0  0  0  0  0  0  0  0  0  0  0
   -0.3060   17.5150   -4.0020 C   0  0  0  0  0  0  0  0  0  0  0  0
   -1.0200   19.0780   -2.2130 C   0  0  0  0  0  0  0  0  0  0  0  0
    2.1430   15.1210   -0.8790 C   0  0  1  0  0  0  0  0  0  0  0  0
    2.9410   15.7370    0.3110 C   0  0  0  0  0  0  0  0  0  0  0  0
    3.0980   14.0680   -1.5560 C   0  0  0  0  0  0  0  0  0  0  0  0
    2.4250   12.9040   -2.3090 C   0  0  0  0  0  0  0  0  0  0  0  0
    1.3430   12.2460   -1.4480 C   0  0  2  0  0  0  0  0  0  0  0  0
    2.0410   11.6380   -0.1840 C   0  0  0  0  0  0  0  0  0  0  0  0
    0.7841    9.1395   -0.2372 H   0  0  0  0  0  0  0  0  0  0  0  0
   -0.5196    8.7147   -1.3976 H   0  0  0  0  0  0  0  0  0  0  0  0
    1.0196    7.7887   -1.3976 H   0  0  0  0  0  0  0  0  0  0  0  0
    0.9483    9.3604   -3.2778 H   0  0  0  0  0  0  0  0  0  0  0  0
    2.9062   10.6078   -1.3356 H   0  0  0  0  0  0  0  0  0  0  0  0
    3.0772    8.8844   -1.9226 H   0  0  0  0  0  0  0  0  0  0  0  0
    3.3827    9.5521   -4.1524 H   0  0  0  0  0  0  0  0  0  0  0  0
    2.8289   11.2423   -3.8002 H   0  0  0  0  0  0  0  0  0  0  0  0
    4.7431   10.4106   -2.1265 H   0  0  0  0  0  0  0  0  0  0  0  0
    5.0770    9.3017   -5.5512 H   0  0  0  0  0  0  0  0  0  0  0  0
    5.0043   11.0010   -6.1290 H   0  0  0  0  0  0  0  0  0  0  0  0
    6.5689   10.1185   -6.1290 H   0  0  0  0  0  0  0  0  0  0  0  0
    7.3490   10.6980   -2.6525 H   0  0  0  0  0  0  0  0  0  0  0  0
    7.7940    9.7856   -4.1345 H   0  0  0  0  0  0  0  0  0  0  0  0
    7.8494   11.5811   -4.1345 H   0  0  0  0  0  0  0  0  0  0  0  0
    0.3312   11.3720   -3.1778 H   0  0  0  0  0  0  0  0  0  0  0  0
   -1.6676   10.9882   -1.8767 H   0  0  0  0  0  0  0  0  0  0  0  0
   -0.7553   10.2213   -0.5588 H   0  0  0  0  0  0  0  0  0  0  0  0
   -1.8222   12.8722   -0.5176 H   0  0  0  0  0  0  0  0  0  0  0  0
   -0.6173   12.2748    0.6202 H   0  0  0  0  0  0  0  0  0  0  0  0
   -1.3103   14.5475   -2.0808 H   0  0  0  0  0  0  0  0  0  0  0  0
    0.2314   14.4657   -2.9991 H   0  0  0  0  0  0  0  0  0  0  0  0
   -0.8895   13.0621   -2.9991 H   0  0  0  0  0  0  0  0  0  0  0  0
    1.1774   13.9026    0.6399 H   0  0  0  0  0  0  0  0  0  0  0  0
   -1.1269   15.0219    0.3594 H   0  0  0  0  0  0  0  0  0  0  0  0
    0.2672   15.9027    1.1785 H   0  0  0  0  0  0  0  0  0  0  0  0
   -1.2013   17.3306   -0.4782 H   0  0  0  0  0  0  0  0  0  0  0  0
    1.6104   15.6740   -2.8546 H   0  0  0  0  0  0  0  0  0  0  0  0
    3.1411   17.7876   -1.2169 H   0  0  0  0  0  0  0  0  0  0  0  0
    3.8317   16.6696   -2.4758 H   0  0  0  0  0  0  0  0  0  0  0  0
    3.5005   18.9644   -3.3405 H   0  0  0  0  0  0  0  0  0  0  0  0
    2.4945   17.7336   -4.1994 H   0  0  0  0  0  0  0  0  0  0  0  0
    1.1516   19.6828   -3.8012 H   0  0  0  0  0  0  0  0  0  0  0  0
    0.7930   20.0040   -1.3140 H   0  0  0  0  0  0  0  0  0  0  0  0
   -0.9250   16.6314   -3.7872 H   0  0  0  0  0  0  0  0  0  0  0  0
   -0.8933   18.2420   -4.5822 H   0  0  0  0  0  0  0  0  0  0  0  0
    0.5778   17.2113   -4.5822 H   0  0  0  0  0  0  0  0  0  0  0  0
   -1.0550   19.1054   -1.1139 H   0  0  0  0  0  0  0  0  0  0  0  0
   -0.8623   20.0954   -2.6003 H   0  0  0  0  0  0  0  0  0  0  0  0
   -1.9701   18.6814   -2.6003 H   0  0  0  0  0  0  0  0  0  0  0  0
    2.5022   15.3983    1.2611 H   0  0  0  0  0  0  0  0  0  0  0  0
    3.9906   15.4126    0.2556 H   0  0  0  0  0  0  0  0  0  0  0  0
    2.8930   16.8346    0.2556 H   0  0  0  0  0  0  0  0  0  0  0  0
    3.7319   14.6074   -2.2751 H   0  0  0  0  0  0  0  0  0  0  0  0
    3.6429   13.5968   -0.7247 H   0  0  0  0  0  0  0  0  0  0  0  0
    1.9657   13.2898   -3.2311 H   0  0  0  0  0  0  0  0  0  0  0  0
    3.1907   12.1506   -2.5459 H   0  0  0  0  0  0  0  0  0  0  0  0
    1.5734   12.0453    0.7246 H   0  0  0  0  0  0  0  0  0  0  0  0
    1.9299   10.5437   -0.1946 H   0  0  0  0  0  0  0  0  0  0  0  0
    3.1097   11.8982   -0.1946 H   0  0  0  0  0  0  0  0  0  0  0  0
  1  2  1  0
  2  3  1  0
  3  4  1  0
  4  5  1  0
  5  6  1  0
  6  7  1  0
  7  8  1  0
  7  9  1  0
  2 10  1  0
 10 11  1  0
 11 12  1  0
 12 13  1  0
 13 14  1  6
 13 15  1  0
 15 16  1  0
 16 17  1  0
 17 18  2  0
 18 19  1  0
 19 20  1  0
 20 21  1  0
 21 22  1  0
 22 23  1  0
 22 24  1  0
 24 25  1  0
 24 26  1  0
 19 27  1  0
 27 28  1  1
 27 29  1  0
 29 30  1  0
 30 31  1  0
 31 32  1  1
  7  5  1  0
 31 10  1  0
 31 13  1  0
 27 15  1  0
 24 18  1  0
  1 33  1  0
  1 34  1  0
  1 35  1  0
  2 36  1  6
  3 37  1  0
  3 38  1  0
  4 39  1  0
  4 40  1  0
  5 41  1  1
  8 42  1  0
  8 43  1  0
  8 44  1  0
  9 45  1  0
  9 46  1  0
  9 47  1  0
 10 48  1  6
 11 49  1  0
 11 50  1  0
 12 51  1  0
 12 52  1  0
 14 53  1  0
 14 54  1  0
 14 55  1  0
 15 56  1  1
 16 57  1  0
 16 58  1  0
 17 59  1  0
 19 60  1  6
 20 61  1  0
 20 62  1  0
 21 63  1  0
 21 64  1  0
 22 65  1  6
 23 66  1  0
 25 67  1  0
 25 68  1  0
 25 69  1  0
 26 70  1  0
 26 71  1  0
 26 72  1  0
 28 73  1  0
 28 74  1  0
 28 75  1  0
 29 76  1  0
 29 77  1  0
 30 78  1  0
 30 79  1  0
 32 80  1  0
 32 81  1  0
 32 82  1  0
M  END
>  <meeko>  (12) 
{"is_sidechain": [false], "intermolecular_energy": 2.731, "internal_energy": -0.839}

$$$$
EPH_relaxed_0001_pdb2pqr_Repair_224_r2_0001_out
     RDKit          3D

 82 86  0  0  0  0  0  0  0  0999 V2000
    3.1210   14.8350   -7.5470 C   0  0  0  0  0  0  0  0  0  0  0  0
    1.5970   14.8810   -7.4010 C   0  0  2  0  0  0  0  0  0  0  0  0
    0.9880   16.1330   -8.0640 C   0  0  0  0  0  0  0  0  0  0  0  0
    1.9120   16.8000   -9.0860 C   0  0  0  0  0  0  0  0  0  0  0  0
    1.5750   16.3900  -10.4880 C   0  0  2  0  0  0  0  0  0  0  0  0
    0.9900   15.0860  -10.6060 O   0  0  0  0  0  0  0  0  0  0  0  0
    2.2770   15.2610  -11.2210 C   0  0  0  0  0  0  0  0  0  0  0  0
    3.3720   14.4730  -10.5750 C   0  0  0  0  0  0  0  0  0  0  0  0
    2.2370   15.2460  -12.7170 C   0  0  0  0  0  0  0  0  0  0  0  0
    1.2150   14.8340   -5.9260 C   0  0  1  0  0  0  0  0  0  0  0  0
   -0.0410   15.6890   -5.6070 C   0  0  0  0  0  0  0  0  0  0  0  0
   -0.8170   14.9440   -4.4910 C   0  0  0  0  0  0  0  0  0  0  0  0
    0.1730   13.8730   -3.9750 C   0  0  1  0  0  0  0  0  0  0  0  0
    1.1110   14.6360   -2.9880 C   0  0  0  0  0  0  0  0  0  0  0  0
   -0.4620   12.6100   -3.3080 C   0  0  2  0  0  0  0  0  0  0  0  0
   -1.2780   12.8850   -2.0330 C   0  0  0  0  0  0  0  0  0  0  0  0
   -0.5060   12.8250   -0.7570 C   0  0  0  0  0  0  0  0  0  0  0  0
    0.7180   12.2850   -0.6080 C   0  0  0  0  0  0  0  0  0  0  0  0
    1.4110   11.5710   -1.7750 C   0  0  1  0  0  0  0  0  0  0  0  0
    2.0010   10.2230   -1.2800 C   0  0  0  0  0  0  0  0  0  0  0  0
    2.9180   10.3940   -0.0730 C   0  0  0  0  0  0  0  0  0  0  0  0
    2.1760   11.0550    1.0860 C   0  0  2  0  0  0  0  0  0  0  0  0
    1.1650   10.1580    1.5570 O   0  0  0  0  0  0  0  0  0  0  0  0
    1.5310   12.4160    0.7040 C   0  0  0  0  0  0  0  0  0  0  0  0
    2.6400   13.4740    0.4850 C   0  0  0  0  0  0  0  0  0  0  0  0
    0.6970   12.9070    1.9180 C   0  0  0  0  0  0  0  0  0  0  0  0
    0.5490   11.4100   -3.1000 C   0  0  1  0  0  0  0  0  0  0  0  0
   -0.3110   10.1120   -3.0210 C   0  0  0  0  0  0  0  0  0  0  0  0
    1.5200   11.2260   -4.3260 C   0  0  0  0  0  0  0  0  0  0  0  0
    2.0180   12.5090   -5.0170 C   0  0  0  0  0  0  0  0  0  0  0  0
    0.8510   13.4520   -5.3290 C   0  0  2  0  0  0  0  0  0  0  0  0
   -0.0980   12.7200   -6.3380 C   0  0  0  0  0  0  0  0  0  0  0  0
    3.5846   14.8210   -6.5496 H   0  0  0  0  0  0  0  0  0  0  0  0
    3.4093   13.9277   -8.0981 H   0  0  0  0  0  0  0  0  0  0  0  0
    3.4635   15.7232   -8.0981 H   0  0  0  0  0  0  0  0  0  0  0  0
    1.1876   14.0013   -7.9191 H   0  0  0  0  0  0  0  0  0  0  0  0
    0.0599   15.8382   -8.5756 H   0  0  0  0  0  0  0  0  0  0  0  0
    0.8117   16.8667   -7.2636 H   0  0  0  0  0  0  0  0  0  0  0  0
    1.8102   17.8919   -8.9996 H   0  0  0  0  0  0  0  0  0  0  0  0
    2.9437   16.4826   -8.8743 H   0  0  0  0  0  0  0  0  0  0  0  0
    1.3639   17.4327  -10.7678 H   0  0  0  0  0  0  0  0  0  0  0  0
    3.2769   14.5415   -9.4813 H   0  0  0  0  0  0  0  0  0  0  0  0
    3.2976   13.4200  -10.8843 H   0  0  0  0  0  0  0  0  0  0  0  0
    4.3468   14.8780  -10.8843 H   0  0  0  0  0  0  0  0  0  0  0  0
    1.2565   14.8783  -13.0539 H   0  0  0  0  0  0  0  0  0  0  0  0
    2.3972   16.2653  -13.0983 H   0  0  0  0  0  0  0  0  0  0  0  0
    3.0279   14.5834  -13.0983 H   0  0  0  0  0  0  0  0  0  0  0  0
    2.1518   15.2009   -5.4813 H   0  0  0  0  0  0  0  0  0  0  0  0
    0.2594   16.6878   -5.2576 H   0  0  0  0  0  0  0  0  0  0  0  0
   -0.6664   15.8216   -6.5021 H   0  0  0  0  0  0  0  0  0  0  0  0
   -1.0956   15.6366   -3.6831 H   0  0  0  0  0  0  0  0  0  0  0  0
   -1.7548   14.5022   -4.8588 H   0  0  0  0  0  0  0  0  0  0  0  0
    0.8226   14.4014   -1.9527 H   0  0  0  0  0  0  0  0  0  0  0  0
    2.1525   14.3254   -3.1578 H   0  0  0  0  0  0  0  0  0  0  0  0
    1.0190   15.7189   -3.1578 H   0  0  0  0  0  0  0  0  0  0  0  0
   -1.1918   12.2858   -4.0645 H   0  0  0  0  0  0  0  0  0  0  0  0
   -1.7146   13.8910   -2.1192 H   0  0  0  0  0  0  0  0  0  0  0  0
   -2.0283   12.0829   -1.9729 H   0  0  0  0  0  0  0  0  0  0  0  0
   -0.9772   13.2588    0.1373 H   0  0  0  0  0  0  0  0  0  0  0  0
    2.2234   12.2375   -2.1002 H   0  0  0  0  0  0  0  0  0  0  0  0
    1.1717    9.5563   -1.0012 H   0  0  0  0  0  0  0  0  0  0  0  0
    2.6020    9.8008   -2.0988 H   0  0  0  0  0  0  0  0  0  0  0  0
    3.2793    9.4057    0.2476 H   0  0  0  0  0  0  0  0  0  0  0  0
    3.7626   11.0369   -0.3617 H   0  0  0  0  0  0  0  0  0  0  0  0
    2.9151   11.2687    1.8722 H   0  0  0  0  0  0  0  0  0  0  0  0
    1.6080    9.3490    1.8630 H   0  0  0  0  0  0  0  0  0  0  0  0
    3.0088   13.8258    1.4598 H   0  0  0  0  0  0  0  0  0  0  0  0
    3.4695   13.0241   -0.0802 H   0  0  0  0  0  0  0  0  0  0  0  0
    2.2296   14.3238   -0.0802 H   0  0  0  0  0  0  0  0  0  0  0  0
    1.1989   12.6115    2.8512 H   0  0  0  0  0  0  0  0  0  0  0  0
    0.6063   14.0026    1.8815 H   0  0  0  0  0  0  0  0  0  0  0  0
   -0.3050   12.4547    1.8815 H   0  0  0  0  0  0  0  0  0  0  0  0
   -0.4842    9.8505   -1.9667 H   0  0  0  0  0  0  0  0  0  0  0  0
   -1.2765   10.2809   -3.5203 H   0  0  0  0  0  0  0  0  0  0  0  0
    0.2209    9.2888   -3.5203 H   0  0  0  0  0  0  0  0  0  0  0  0
    2.4034   10.6751   -3.9709 H   0  0  0  0  0  0  0  0  0  0  0  0
    0.9247   10.7016   -5.0880 H   0  0  0  0  0  0  0  0  0  0  0  0
    2.7284   13.0230   -4.3528 H   0  0  0  0  0  0  0  0  0  0  0  0
    2.5070   12.2312   -5.9624 H   0  0  0  0  0  0  0  0  0  0  0  0
   -0.8490   12.1407   -5.7808 H   0  0  0  0  0  0  0  0  0  0  0  0
   -0.6042   13.4638   -6.9708 H   0  0  0  0  0  0  0  0  0  0  0  0
    0.4929   12.0415   -6.9708 H   0  0  0  0  0  0  0  0  0  0  0  0
  1  2  1  0
  2  3  1  0
  3  4  1  0
  4  5  1  0
  5  6  1  0
  6  7  1  0
  7  8  1  0
  7  9  1  0
  2 10  1  0
 10 11  1  0
 11 12  1  0
 12 13  1  0
 13 14  1  1
 13 15  1  0
 15 16  1  0
 16 17  1  0
 17 18  2  0
 18 19  1  0
 19 20  1  0
 20 21  1  0
 21 22  1  0
 22 23  1  0
 22 24  1  0
 24 25  1  0
 24 26  1  0
 19 27  1  0
 27 28  1  1
 27 29  1  0
 29 30  1  0
 30 31  1  0
 31 32  1  6
  7  5  1  0
 31 10  1  0
 31 13  1  0
 27 15  1  0
 24 18  1  0
  1 33  1  0
  1 34  1  0
  1 35  1  0
  2 36  1  6
  3 37  1  0
  3 38  1  0
  4 39  1  0
  4 40  1  0
  5 41  1  6
  8 42  1  0
  8 43  1  0
  8 44  1  0
  9 45  1  0
  9 46  1  0
  9 47  1  0
 10 48  1  1
 11 49  1  0
 11 50  1  0
 12 51  1  0
 12 52  1  0
 14 53  1  0
 14 54  1  0
 14 55  1  0
 15 56  1  6
 16 57  1  0
 16 58  1  0
 17 59  1  0
 19 60  1  6
 20 61  1  0
 20 62  1  0
 21 63  1  0
 21 64  1  0
 22 65  1  1
 23 66  1  0
 25 67  1  0
 25 68  1  0
 25 69  1  0
 26 70  1  0
 26 71  1  0
 26 72  1  0
 28 73  1  0
 28 74  1  0
 28 75  1  0
 29 76  1  0
 29 77  1  0
 30 78  1  0
 30 79  1  0
 32 80  1  0
 32 81  1  0
 32 82  1  0
M  END
>  <meeko>  (13) 
{"is_sidechain": [false], "intermolecular_energy": 2.731, "internal_energy": -0.839}

$$$$
EPH_relaxed_0001_pdb2pqr_Repair_224_r2_0001_out
     RDKit          3D

 82 86  0  0  0  0  0  0  0  0999 V2000
   -2.4420    7.7680   -0.0490 C   0  0  0  0  0  0  0  0  0  0  0  0
   -3.0980    9.1510   -0.0870 C   0  0  2  0  0  0  0  0  0  0  0  0
   -4.5760    9.0800   -0.5200 C   0  0  0  0  0  0  0  0  0  0  0  0
   -5.1240    7.6530   -0.6100 C   0  0  0  0  0  0  0  0  0  0  0  0
   -5.9110    7.4380   -1.8670 C   0  0  2  0  0  0  0  0  0  0  0  0
   -6.8530    8.4760   -2.1680 O   0  0  0  0  0  0  0  0  0  0  0  0
   -7.4060    7.1810   -1.8850 C   0  0  0  0  0  0  0  0  0  0  0  0
   -8.2030    7.1230   -0.6190 C   0  0  0  0  0  0  0  0  0  0  0  0
   -8.0010    6.5050   -3.0810 C   0  0  0  0  0  0  0  0  0  0  0  0
   -2.3240   10.0680   -1.0260 C   0  0  1  0  0  0  0  0  0  0  0  0
   -2.9670   11.4750   -1.1510 C   0  0  0  0  0  0  0  0  0  0  0  0
   -1.8020   12.4860   -1.3100 C   0  0  0  0  0  0  0  0  0  0  0  0
   -0.5620   11.6100   -1.6020 C   0  0  1  0  0  0  0  0  0  0  0  0
   -0.6520   11.2830   -3.1260 C   0  0  0  0  0  0  0  0  0  0  0  0
    0.8240   12.2270   -1.2260 C   0  0  2  0  0  0  0  0  0  0  0  0
    1.1950   13.5130   -1.9850 C   0  0  0  0  0  0  0  0  0  0  0  0
    1.9470   13.3080   -3.2580 C   0  0  0  0  0  0  0  0  0  0  0  0
    2.5590   12.1680   -3.6300 C   0  0  0  0  0  0  0  0  0  0  0  0
    2.6130   10.9590   -2.6860 C   0  0  1  0  0  0  0  0  0  0  0  0
    4.0550   10.3890   -2.6580 C   0  0  0  0  0  0  0  0  0  0  0  0
    4.5840   10.0650   -4.0520 C   0  0  0  0  0  0  0  0  0  0  0  0
    4.5690   11.3050   -4.9420 C   0  0  2  0  0  0  0  0  0  0  0  0
    5.5180   12.2480   -4.4350 O   0  0  0  0  0  0  0  0  0  0  0  0
    3.1690   11.9730   -5.0400 C   0  0  0  0  0  0  0  0  0  0  0  0
    2.2170   11.0680   -5.8600 C   0  0  0  0  0  0  0  0  0  0  0  0
    3.3220   13.2880   -5.8500 C   0  0  0  0  0  0  0  0  0  0  0  0
    2.0190   11.1890   -1.2300 C   0  0  1  0  0  0  0  0  0  0  0  0
    3.1190   11.7720   -0.2920 C   0  0  0  0  0  0  0  0  0  0  0  0
    1.6050    9.7980   -0.6190 C   0  0  0  0  0  0  0  0  0  0  0  0
    0.1810    9.2990   -0.9290 C   0  0  0  0  0  0  0  0  0  0  0  0
   -0.8560   10.3920   -0.6530 C   0  0  2  0  0  0  0  0  0  0  0  0
   -0.8030   10.7260    0.8770 C   0  0  0  0  0  0  0  0  0  0  0  0
   -2.2959    7.4601    0.9969 H   0  0  0  0  0  0  0  0  0  0  0  0
   -3.0909    7.0403   -0.5583 H   0  0  0  0  0  0  0  0  0  0  0  0
   -1.4679    7.8101   -0.5583 H   0  0  0  0  0  0  0  0  0  0  0  0
   -3.0719    9.5579    0.9346 H   0  0  0  0  0  0  0  0  0  0  0  0
   -5.1792    9.6380    0.2113 H   0  0  0  0  0  0  0  0  0  0  0  0
   -4.6357    9.5112   -1.5302 H   0  0  0  0  0  0  0  0  0  0  0  0
   -4.2814    6.9461   -0.5920 H   0  0  0  0  0  0  0  0  0  0  0  0
   -5.7951    7.4896    0.2461 H   0  0  0  0  0  0  0  0  0  0  0  0
   -5.0662    6.9102   -2.3335 H   0  0  0  0  0  0  0  0  0  0  0  0
   -7.5235    7.1724    0.2446 H   0  0  0  0  0  0  0  0  0  0  0  0
   -8.9007    7.9727   -0.5857 H   0  0  0  0  0  0  0  0  0  0  0  0
   -8.7704    6.1812   -0.5857 H   0  0  0  0  0  0  0  0  0  0  0  0
   -8.6941    5.7175   -2.7501 H   0  0  0  0  0  0  0  0  0  0  0  0
   -8.5472    7.2438   -3.6858 H   0  0  0  0  0  0  0  0  0  0  0  0
   -7.1988    6.0570   -3.6858 H   0  0  0  0  0  0  0  0  0  0  0  0
   -2.3541    9.4611   -1.9430 H   0  0  0  0  0  0  0  0  0  0  0  0
   -3.6253   11.5139   -2.0314 H   0  0  0  0  0  0  0  0  0  0  0  0
   -3.5770   11.7108   -0.2665 H   0  0  0  0  0  0  0  0  0  0  0  0
   -1.9966   13.1743   -2.1457 H   0  0  0  0  0  0  0  0  0  0  0  0
   -1.6687   13.1126   -0.4158 H   0  0  0  0  0  0  0  0  0  0  0  0
   -0.9418   10.2302   -3.2586 H   0  0  0  0  0  0  0  0  0  0  0  0
   -1.4048   11.9326   -3.5966 H   0  0  0  0  0  0  0  0  0  0  0  0
    0.3271   11.4559   -3.5966 H   0  0  0  0  0  0  0  0  0  0  0  0
    0.6688   12.5319   -0.1806 H   0  0  0  0  0  0  0  0  0  0  0  0
    0.2637   14.0479   -2.2228 H   0  0  0  0  0  0  0  0  0  0  0  0
    1.8685   14.0745   -1.3209 H   0  0  0  0  0  0  0  0  0  0  0  0
    2.0061   14.1604   -3.9507 H   0  0  0  0  0  0  0  0  0  0  0  0
    1.9244   10.2122   -3.1080 H   0  0  0  0  0  0  0  0  0  0  0  0
    4.7190   11.1326   -2.1931 H   0  0  0  0  0  0  0  0  0  0  0  0
    4.0319    9.4511   -2.0837 H   0  0  0  0  0  0  0  0  0  0  0  0
    5.6162    9.6942   -3.9683 H   0  0  0  0  0  0  0  0  0  0  0  0
    3.9364    9.2997   -4.5046 H   0  0  0  0  0  0  0  0  0  0  0  0
    4.8340   10.9831   -5.9599 H   0  0  0  0  0  0  0  0  0  0  0  0
    6.0690   11.7880   -3.7800 H   0  0  0  0  0  0  0  0  0  0  0  0
    1.5935   10.4753   -5.1744 H   0  0  0  0  0  0  0  0  0  0  0  0
    1.5718   11.6938   -6.4940 H   0  0  0  0  0  0  0  0  0  0  0  0
    2.8094   10.3919   -6.4940 H   0  0  0  0  0  0  0  0  0  0  0  0
    3.4207   14.1363   -5.1567 H   0  0  0  0  0  0  0  0  0  0  0  0
    4.2190   13.2261   -6.4837 H   0  0  0  0  0  0  0  0  0  0  0  0
    2.4347   13.4337   -6.4837 H   0  0  0  0  0  0  0  0  0  0  0  0
    2.8263   11.6169    0.7569 H   0  0  0  0  0  0  0  0  0  0  0  0
    4.0741   11.2617   -0.4855 H   0  0  0  0  0  0  0  0  0  0  0  0
    3.2329   12.8488   -0.4855 H   0  0  0  0  0  0  0  0  0  0  0  0
    2.3114    9.0447   -0.9979 H   0  0  0  0  0  0  0  0  0  0  0  0
    1.6276    9.9444    0.4710 H   0  0  0  0  0  0  0  0  0  0  0  0
    0.1243    9.0086   -1.9885 H   0  0  0  0  0  0  0  0  0  0  0  0
   -0.0372    8.4373   -0.2810 H   0  0  0  0  0  0  0  0  0  0  0  0
   -0.9493    9.8040    1.4588 H   0  0  0  0  0  0  0  0  0  0  0  0
    0.1758   11.1635    1.1231 H   0  0  0  0  0  0  0  0  0  0  0  0
   -1.5983   11.4450    1.1231 H   0  0  0  0  0  0  0  0  0  0  0  0
  1  2  1  0
  2  3  1  0
  3  4  1  0
  4  5  1  0
  5  6  1  0
  6  7  1  0
  7  8  1  0
  7  9  1  0
  2 10  1  0
 10 11  1  0
 11 12  1  0
 12 13  1  0
 13 14  1  6
 13 15  1  0
 15 16  1  0
 16 17  1  0
 17 18  2  0
 18 19  1  0
 19 20  1  0
 20 21  1  0
 21 22  1  0
 22 23  1  0
 22 24  1  0
 24 25  1  0
 24 26  1  0
 19 27  1  0
 27 28  1  1
 27 29  1  0
 29 30  1  0
 30 31  1  0
 31 32  1  1
  7  5  1  0
 31 10  1  0
 31 13  1  0
 27 15  1  0
 24 18  1  0
  1 33  1  0
  1 34  1  0
  1 35  1  0
  2 36  1  1
  3 37  1  0
  3 38  1  0
  4 39  1  0
  4 40  1  0
  5 41  1  6
  8 42  1  0
  8 43  1  0
  8 44  1  0
  9 45  1  0
  9 46  1  0
  9 47  1  0
 10 48  1  6
 11 49  1  0
 11 50  1  0
 12 51  1  0
 12 52  1  0
 14 53  1  0
 14 54  1  0
 14 55  1  0
 15 56  1  1
 16 57  1  0
 16 58  1  0
 17 59  1  0
 19 60  1  6
 20 61  1  0
 20 62  1  0
 21 63  1  0
 21 64  1  0
 22 65  1  6
 23 66  1  0
 25 67  1  0
 25 68  1  0
 25 69  1  0
 26 70  1  0
 26 71  1  0
 26 72  1  0
 28 73  1  0
 28 74  1  0
 28 75  1  0
 29 76  1  0
 29 77  1  0
 30 78  1  0
 30 79  1  0
 32 80  1  0
 32 81  1  0
 32 82  1  0
M  END
>  <meeko>  (14) 
{"is_sidechain": [false], "intermolecular_energy": 2.731, "internal_energy": -0.839}

$$$$
EPH_relaxed_0001_pdb2pqr_Repair_224_r2_0001_out
     RDKit          3D

 82 86  0  0  0  0  0  0  0  0999 V2000
   -0.2290   17.1390   -1.0040 C   0  0  0  0  0  0  0  0  0  0  0  0
   -0.7010   15.8060   -0.4170 C   0  0  2  0  0  0  0  0  0  0  0  0
   -1.1720   15.9480    1.0440 C   0  0  0  0  0  0  0  0  0  0  0  0
   -1.8320   17.2960    1.3490 C   0  0  0  0  0  0  0  0  0  0  0  0
   -1.9050   18.1660    0.1310 C   0  0  2  0  0  0  0  0  0  0  0  0
   -1.0540   19.3190    0.1670 O   0  0  0  0  0  0  0  0  0  0  0  0
   -2.4680   19.5750    0.1420 C   0  0  0  0  0  0  0  0  0  0  0  0
   -2.9960   20.1940    1.3980 C   0  0  0  0  0  0  0  0  0  0  0  0
   -2.9520   20.1620   -1.1470 C   0  0  0  0  0  0  0  0  0  0  0  0
    0.4170   14.7740   -0.5060 C   0  0  1  0  0  0  0  0  0  0  0  0
    0.4860   13.8580    0.7460 C   0  0  0  0  0  0  0  0  0  0  0  0
    0.9210   12.4550    0.2500 C   0  0  0  0  0  0  0  0  0  0  0  0
    1.4060   12.6870   -1.2000 C   0  0  1  0  0  0  0  0  0  0  0  0
    2.8640   13.2260   -1.0540 C   0  0  0  0  0  0  0  0  0  0  0  0
    1.3410   11.4520   -2.1560 C   0  0  2  0  0  0  0  0  0  0  0  0
    2.2230   10.2600   -1.7450 C   0  0  0  0  0  0  0  0  0  0  0  0
    3.6060   10.2670   -2.3050 C   0  0  0  0  0  0  0  0  0  0  0  0
    4.0320   11.0320   -3.3280 C   0  0  0  0  0  0  0  0  0  0  0  0
    3.0570   11.9340   -4.0960 C   0  0  1  0  0  0  0  0  0  0  0  0
    3.2830   11.7600   -5.6210 C   0  0  0  0  0  0  0  0  0  0  0  0
    4.7350   11.9910   -6.0270 C   0  0  0  0  0  0  0  0  0  0  0  0
    5.6680   11.0360   -5.2850 C   0  0  2  0  0  0  0  0  0  0  0  0
    5.4050    9.7010   -5.7260 O   0  0  0  0  0  0  0  0  0  0  0  0
    5.5220   11.1150   -3.7400 C   0  0  0  0  0  0  0  0  0  0  0  0
    6.0920   12.4630   -3.2320 C   0  0  0  0  0  0  0  0  0  0  0  0
    6.4130   10.0060   -3.1190 C   0  0  0  0  0  0  0  0  0  0  0  0
    1.5260   11.8070   -3.6870 C   0  0  1  0  0  0  0  0  0  0  0  0
    0.8540   10.6560   -4.4960 C   0  0  0  0  0  0  0  0  0  0  0  0
    0.7750   13.1310   -4.0900 C   0  0  0  0  0  0  0  0  0  0  0  0
    0.7740   14.2710   -3.0540 C   0  0  0  0  0  0  0  0  0  0  0  0
    0.3560   13.7570   -1.6730 C   0  0  2  0  0  0  0  0  0  0  0  0
   -1.1140   13.2290   -1.7840 C   0  0  0  0  0  0  0  0  0  0  0  0
    0.0167   17.8330   -0.1867 H   0  0  0  0  0  0  0  0  0  0  0  0
    0.6643   16.9710   -1.6235 H   0  0  0  0  0  0  0  0  0  0  0  0
   -1.0290   17.5706   -1.6235 H   0  0  0  0  0  0  0  0  0  0  0  0
   -1.5645   15.4710   -1.0104 H   0  0  0  0  0  0  0  0  0  0  0  0
   -1.8992   15.1498    1.2537 H   0  0  0  0  0  0  0  0  0  0  0  0
   -0.2767   15.8770    1.6791 H   0  0  0  0  0  0  0  0  0  0  0  0
   -2.8516   17.1175    1.7211 H   0  0  0  0  0  0  0  0  0  0  0  0
   -1.2216   17.8135    2.1038 H   0  0  0  0  0  0  0  0  0  0  0  0
   -2.1102   17.2945   -0.5081 H   0  0  0  0  0  0  0  0  0  0  0  0
   -2.5605   19.6834    2.2696 H   0  0  0  0  0  0  0  0  0  0  0  0
   -2.7245   21.2597    1.4238 H   0  0  0  0  0  0  0  0  0  0  0  0
   -4.0911   20.0939    1.4238 H   0  0  0  0  0  0  0  0  0  0  0  0
   -3.6387   20.9949   -0.9356 H   0  0  0  0  0  0  0  0  0  0  0  0
   -2.0935   20.5326   -1.7263 H   0  0  0  0  0  0  0  0  0  0  0  0
   -3.4794   19.3899   -1.7263 H   0  0  0  0  0  0  0  0  0  0  0  0
    1.2775   15.4464   -0.6375 H   0  0  0  0  0  0  0  0  0  0  0  0
    1.2217   14.2512    1.4630 H   0  0  0  0  0  0  0  0  0  0  0  0
   -0.4874   13.8124    1.2562 H   0  0  0  0  0  0  0  0  0  0  0  0
    1.7359   12.0582    0.8733 H   0  0  0  0  0  0  0  0  0  0  0  0
    0.1032   11.7213    0.3040 H   0  0  0  0  0  0  0  0  0  0  0  0
    3.1154   13.3190    0.0128 H   0  0  0  0  0  0  0  0  0  0  0  0
    3.5633   12.5270   -1.5360 H   0  0  0  0  0  0  0  0  0  0  0  0
    2.9405   14.2118   -1.5360 H   0  0  0  0  0  0  0  0  0  0  0  0
    0.3026   11.1117   -2.0300 H   0  0  0  0  0  0  0  0  0  0  0  0
    2.3007   10.2572   -0.6478 H   0  0  0  0  0  0  0  0  0  0  0  0
    1.7336    9.3641   -2.1546 H   0  0  0  0  0  0  0  0  0  0  0  0
    4.3396    9.5900   -1.8431 H   0  0  0  0  0  0  0  0  0  0  0  0
    3.2975   12.9653   -3.7983 H   0  0  0  0  0  0  0  0  0  0  0  0
    2.9957   10.7370   -5.9056 H   0  0  0  0  0  0  0  0  0  0  0  0
    2.6681   12.5117   -6.1377 H   0  0  0  0  0  0  0  0  0  0  0  0
    4.8368   11.8250   -7.1096 H   0  0  0  0  0  0  0  0  0  0  0  0
    5.0118   13.0237   -5.7684 H   0  0  0  0  0  0  0  0  0  0  0  0
    6.7007   11.3350   -5.5176 H   0  0  0  0  0  0  0  0  0  0  0  0
    4.4400    9.5780   -5.7350 H   0  0  0  0  0  0  0  0  0  0  0  0
    6.0945   12.4688   -2.1320 H   0  0  0  0  0  0  0  0  0  0  0  0
    7.1204   12.5889   -3.6016 H   0  0  0  0  0  0  0  0  0  0  0  0
    5.4659   13.2884   -3.6016 H   0  0  0  0  0  0  0  0  0  0  0  0
    6.3636   10.0675   -2.0218 H   0  0  0  0  0  0  0  0  0  0  0  0
    6.0532    9.0198   -3.4475 H   0  0  0  0  0  0  0  0  0  0  0  0
    7.4536   10.1448   -3.4475 H   0  0  0  0  0  0  0  0  0  0  0  0
    0.4246    9.9206   -3.7997 H   0  0  0  0  0  0  0  0  0  0  0  0
    0.0560   11.0705   -5.1295 H   0  0  0  0  0  0  0  0  0  0  0  0
    1.6073   10.1648   -5.1295 H   0  0  0  0  0  0  0  0  0  0  0  0
    1.2459   13.5149   -5.0070 H   0  0  0  0  0  0  0  0  0  0  0  0
   -0.2804   12.8413   -4.2007 H   0  0  0  0  0  0  0  0  0  0  0  0
    1.7856   14.6980   -2.9879 H   0  0  0  0  0  0  0  0  0  0  0  0
    0.0529   15.0367   -3.3761 H   0  0  0  0  0  0  0  0  0  0  0  0
   -1.5274   13.0805   -0.7755 H   0  0  0  0  0  0  0  0  0  0  0  0
   -1.7272   13.9631   -2.3272 H   0  0  0  0  0  0  0  0  0  0  0  0
   -1.1200   12.2725   -2.3272 H   0  0  0  0  0  0  0  0  0  0  0  0
  1  2  1  0
  2  3  1  0
  3  4  1  0
  4  5  1  0
  5  6  1  0
  6  7  1  0
  7  8  1  0
  7  9  1  0
  2 10  1  0
 10 11  1  0
 11 12  1  0
 12 13  1  0
 13 14  1  1
 13 15  1  0
 15 16  1  0
 16 17  1  0
 17 18  2  0
 18 19  1  0
 19 20  1  0
 20 21  1  0
 21 22  1  0
 22 23  1  0
 22 24  1  0
 24 25  1  0
 24 26  1  0
 19 27  1  0
 27 28  1  6
 27 29  1  0
 29 30  1  0
 30 31  1  0
 31 32  1  6
  7  5  1  0
 31 10  1  0
 31 13  1  0
 27 15  1  0
 24 18  1  0
  1 33  1  0
  1 34  1  0
  1 35  1  0
  2 36  1  6
  3 37  1  0
  3 38  1  0
  4 39  1  0
  4 40  1  0
  5 41  1  6
  8 42  1  0
  8 43  1  0
  8 44  1  0
  9 45  1  0
  9 46  1  0
  9 47  1  0
 10 48  1  6
 11 49  1  0
 11 50  1  0
 12 51  1  0
 12 52  1  0
 14 53  1  0
 14 54  1  0
 14 55  1  0
 15 56  1  6
 16 57  1  0
 16 58  1  0
 17 59  1  0
 19 60  1  1
 20 61  1  0
 20 62  1  0
 21 63  1  0
 21 64  1  0
 22 65  1  1
 23 66  1  0
 25 67  1  0
 25 68  1  0
 25 69  1  0
 26 70  1  0
 26 71  1  0
 26 72  1  0
 28 73  1  0
 28 74  1  0
 28 75  1  0
 29 76  1  0
 29 77  1  0
 30 78  1  0
 30 79  1  0
 32 80  1  0
 32 81  1  0
 32 82  1  0
M  END
>  <meeko>  (15) 
{"is_sidechain": [false], "intermolecular_energy": 2.731, "internal_energy": -0.839}

$$$$
EPH_relaxed_0001_pdb2pqr_Repair_224_r2_0001_out
     RDKit          3D

 82 86  0  0  0  0  0  0  0  0999 V2000
    1.7010   18.3770   -2.4570 C   0  0  0  0  0  0  0  0  0  0  0  0
    2.0670   17.1720   -3.3280 C   0  0  2  0  0  0  0  0  0  0  0  0
    1.0230   16.9150   -4.4330 C   0  0  0  0  0  0  0  0  0  0  0  0
    1.3950   15.7680   -5.3770 C   0  0  0  0  0  0  0  0  0  0  0  0
    0.4800   15.7080   -6.5630 C   0  0  2  0  0  0  0  0  0  0  0  0
    0.5450   14.4840   -7.3060 O   0  0  0  0  0  0  0  0  0  0  0  0
    0.9720   15.6690   -7.9980 C   0  0  0  0  0  0  0  0  0  0  0  0
    2.4330   15.6900   -8.3220 C   0  0  0  0  0  0  0  0  0  0  0  0
    0.0400   16.1010   -9.0860 C   0  0  0  0  0  0  0  0  0  0  0  0
    2.2220   15.9300   -2.4590 C   0  0  1  0  0  0  0  0  0  0  0  0
    2.8340   16.2470   -1.0680 C   0  0  0  0  0  0  0  0  0  0  0  0
    2.1670   15.2810   -0.0550 C   0  0  0  0  0  0  0  0  0  0  0  0
    1.4500   14.2290   -0.9340 C   0  0  1  0  0  0  0  0  0  0  0  0
    2.5700   13.2230   -1.3490 C   0  0  0  0  0  0  0  0  0  0  0  0
    0.2310   13.4990   -0.2820 C   0  0  2  0  0  0  0  0  0  0  0  0
    0.5640   12.6560    0.9620 C   0  0  0  0  0  0  0  0  0  0  0  0
    0.9150   11.2310    0.6920 C   0  0  0  0  0  0  0  0  0  0  0  0
    0.6870   10.5740   -0.4610 C   0  0  0  0  0  0  0  0  0  0  0  0
   -0.0730   11.2450   -1.6130 C   0  0  1  0  0  0  0  0  0  0  0  0
   -1.1440   10.2690   -2.1650 C   0  0  0  0  0  0  0  0  0  0  0  0
   -0.5550    8.9190   -2.5630 C   0  0  0  0  0  0  0  0  0  0  0  0
    0.1410    8.2570   -1.3770 C   0  0  2  0  0  0  0  0  0  0  0  0
   -0.8430    7.9170   -0.3960 O   0  0  0  0  0  0  0  0  0  0  0  0
    1.2360    9.1520   -0.7310 C   0  0  0  0  0  0  0  0  0  0  0  0
    2.4440    9.2710   -1.6920 C   0  0  0  0  0  0  0  0  0  0  0  0
    1.7590    8.4250    0.5370 C   0  0  0  0  0  0  0  0  0  0  0  0
   -0.6630   12.6890   -1.3060 C   0  0  1  0  0  0  0  0  0  0  0  0
   -2.0750   12.5590   -0.6580 C   0  0  0  0  0  0  0  0  0  0  0  0
   -0.8660   13.4600   -2.6630 C   0  0  0  0  0  0  0  0  0  0  0  0
    0.3380   14.2600   -3.1950 C   0  0  0  0  0  0  0  0  0  0  0  0
    0.9330   15.1500   -2.0980 C   0  0  2  0  0  0  0  0  0  0  0  0
   -0.1630   16.1860   -1.6760 C   0  0  0  0  0  0  0  0  0  0  0  0
    1.7848   18.1011   -1.3955 H   0  0  0  0  0  0  0  0  0  0  0  0
    2.3870   19.2088   -2.6749 H   0  0  0  0  0  0  0  0  0  0  0  0
    0.6683   18.6868   -2.6749 H   0  0  0  0  0  0  0  0  0  0  0  0
    3.0222   17.4005   -3.8234 H   0  0  0  0  0  0  0  0  0  0  0  0
    0.0628   16.6729   -3.9540 H   0  0  0  0  0  0  0  0  0  0  0  0
    0.9693   17.8287   -5.0431 H   0  0  0  0  0  0  0  0  0  0  0  0
    2.4264   15.9164   -5.7294 H   0  0  0  0  0  0  0  0  0  0  0  0
    1.3005   14.8227   -4.8225 H   0  0  0  0  0  0  0  0  0  0  0  0
   -0.2607   16.3426   -6.0544 H   0  0  0  0  0  0  0  0  0  0  0  0
    3.0154   15.6984   -7.3889 H   0  0  0  0  0  0  0  0  0  0  0  0
    2.6916   14.7955   -8.9076 H   0  0  0  0  0  0  0  0  0  0  0  0
    2.6658   16.5916   -8.9076 H   0  0  0  0  0  0  0  0  0  0  0  0
   -0.8725   16.5240   -8.6406 H   0  0  0  0  0  0  0  0  0  0  0  0
    0.5314   16.8632   -9.7086 H   0  0  0  0  0  0  0  0  0  0  0  0
   -0.2240   15.2334   -9.7086 H   0  0  0  0  0  0  0  0  0  0  0  0
    2.8585   15.3214   -3.1182 H   0  0  0  0  0  0  0  0  0  0  0  0
    3.9217   16.0842   -1.0868 H   0  0  0  0  0  0  0  0  0  0  0  0
    2.6571   17.2961   -0.7885 H   0  0  0  0  0  0  0  0  0  0  0  0
    2.9251   14.8028    0.5827 H   0  0  0  0  0  0  0  0  0  0  0  0
    1.4740   15.8006    0.6231 H   0  0  0  0  0  0  0  0  0  0  0  0
    3.0380   12.8026   -0.4466 H   0  0  0  0  0  0  0  0  0  0  0  0
    2.1303   12.4107   -1.9463 H   0  0  0  0  0  0  0  0  0  0  0  0
    3.3306   13.7471   -1.9463 H   0  0  0  0  0  0  0  0  0  0  0  0
   -0.3799   14.3388    0.0807 H   0  0  0  0  0  0  0  0  0  0  0  0
    1.4181   13.1255    1.4719 H   0  0  0  0  0  0  0  0  0  0  0  0
   -0.3535   12.6334    1.5684 H   0  0  0  0  0  0  0  0  0  0  0  0
    1.4012   10.6698    1.5036 H   0  0  0  0  0  0  0  0  0  0  0  0
    0.6764   11.4545   -2.3905 H   0  0  0  0  0  0  0  0  0  0  0  0
   -1.9063   10.1062   -1.3889 H   0  0  0  0  0  0  0  0  0  0  0  0
   -1.5768   10.7240   -3.0681 H   0  0  0  0  0  0  0  0  0  0  0  0
   -1.3642    8.2635   -2.9174 H   0  0  0  0  0  0  0  0  0  0  0  0
    0.1860    9.0802   -3.3598 H   0  0  0  0  0  0  0  0  0  0  0  0
    0.6525    7.3592   -1.7542 H   0  0  0  0  0  0  0  0  0  0  0  0
   -1.0060    6.9600   -0.4620 H   0  0  0  0  0  0  0  0  0  0  0  0
    3.3707    9.3623   -1.1065 H   0  0  0  0  0  0  0  0  0  0  0  0
    2.4978    8.3738   -2.3262 H   0  0  0  0  0  0  0  0  0  0  0  0
    2.3217   10.1614   -2.3262 H   0  0  0  0  0  0  0  0  0  0  0  0
    1.3878    8.9409    1.4348 H   0  0  0  0  0  0  0  0  0  0  0  0
    1.4008    7.3850    0.5373 H   0  0  0  0  0  0  0  0  0  0  0  0
    2.8590    8.4340    0.5373 H   0  0  0  0  0  0  0  0  0  0  0  0
   -1.9778   12.5679    0.4377 H   0  0  0  0  0  0  0  0  0  0  0  0
   -2.7041   13.4030   -0.9772 H   0  0  0  0  0  0  0  0  0  0  0  0
   -2.5394   11.6143   -0.9772 H   0  0  0  0  0  0  0  0  0  0  0  0
   -1.1377   12.7189   -3.4292 H   0  0  0  0  0  0  0  0  0  0  0  0
   -1.6408   14.2121   -2.4532 H   0  0  0  0  0  0  0  0  0  0  0  0
    1.1089   13.5587   -3.5470 H   0  0  0  0  0  0  0  0  0  0  0  0
   -0.0042   14.9018   -4.0202 H   0  0  0  0  0  0  0  0  0  0  0  0
   -0.2165   16.2366   -0.5785 H   0  0  0  0  0  0  0  0  0  0  0  0
    0.0958   17.1772   -2.0766 H   0  0  0  0  0  0  0  0  0  0  0  0
   -1.1381   15.8718   -2.0766 H   0  0  0  0  0  0  0  0  0  0  0  0
  1  2  1  0
  2  3  1  0
  3  4  1  0
  4  5  1  0
  5  6  1  0
  6  7  1  0
  7  8  1  0
  7  9  1  0
  2 10  1  0
 10 11  1  0
 11 12  1  0
 12 13  1  0
 13 14  1  6
 13 15  1  0
 15 16  1  0
 16 17  1  0
 17 18  2  0
 18 19  1  0
 19 20  1  0
 20 21  1  0
 21 22  1  0
 22 23  1  0
 22 24  1  0
 24 25  1  0
 24 26  1  0
 19 27  1  0
 27 28  1  1
 27 29  1  0
 29 30  1  0
 30 31  1  0
 31 32  1  1
  7  5  1  0
 31 10  1  0
 31 13  1  0
 27 15  1  0
 24 18  1  0
  1 33  1  0
  1 34  1  0
  1 35  1  0
  2 36  1  6
  3 37  1  0
  3 38  1  0
  4 39  1  0
  4 40  1  0
  5 41  1  6
  8 42  1  0
  8 43  1  0
  8 44  1  0
  9 45  1  0
  9 46  1  0
  9 47  1  0
 10 48  1  6
 11 49  1  0
 11 50  1  0
 12 51  1  0
 12 52  1  0
 14 53  1  0
 14 54  1  0
 14 55  1  0
 15 56  1  1
 16 57  1  0
 16 58  1  0
 17 59  1  0
 19 60  1  6
 20 61  1  0
 20 62  1  0
 21 63  1  0
 21 64  1  0
 22 65  1  6
 23 66  1  0
 25 67  1  0
 25 68  1  0
 25 69  1  0
 26 70  1  0
 26 71  1  0
 26 72  1  0
 28 73  1  0
 28 74  1  0
 28 75  1  0
 29 76  1  0
 29 77  1  0
 30 78  1  0
 30 79  1  0
 32 80  1  0
 32 81  1  0
 32 82  1  0
M  END
>  <meeko>  (16) 
{"is_sidechain": [false], "intermolecular_energy": 2.731, "internal_energy": -0.839}

$$$$
EPH_relaxed_0001_pdb2pqr_Repair_224_r2_0001_out
     RDKit          3D

 82 86  0  0  0  0  0  0  0  0999 V2000
   -0.7390    7.6170   -3.0890 C   0  0  0  0  0  0  0  0  0  0  0  0
   -1.4390    8.0810   -1.8090 C   0  0  2  0  0  0  0  0  0  0  0  0
   -2.8710    7.5220   -1.6960 C   0  0  0  0  0  0  0  0  0  0  0  0
   -3.3910    6.8920   -2.9910 C   0  0  0  0  0  0  0  0  0  0  0  0
   -4.6110    6.0560   -2.7510 C   0  0  2  0  0  0  0  0  0  0  0  0
   -5.7380    6.3920   -3.5700 O   0  0  0  0  0  0  0  0  0  0  0  0
   -5.8960    6.6020   -2.1570 C   0  0  0  0  0  0  0  0  0  0  0  0
   -6.0260    8.0410   -1.7670 C   0  0  0  0  0  0  0  0  0  0  0  0
   -6.8480    5.6450   -1.5080 C   0  0  0  0  0  0  0  0  0  0  0  0
   -1.4680    9.6040   -1.7550 C   0  0  1  0  0  0  0  0  0  0  0  0
   -2.8670   10.1620   -1.3810 C   0  0  0  0  0  0  0  0  0  0  0  0
   -2.6280   11.4350   -0.5290 C   0  0  0  0  0  0  0  0  0  0  0  0
   -1.1270   11.7540   -0.7180 C   0  0  1  0  0  0  0  0  0  0  0  0
   -1.0440   12.5010   -2.0860 C   0  0  0  0  0  0  0  0  0  0  0  0
   -0.4450   12.5700    0.4280 C   0  0  2  0  0  0  0  0  0  0  0  0
   -1.0140   13.9830    0.6510 C   0  0  0  0  0  0  0  0  0  0  0  0
   -0.3530   15.0670   -0.1340 C   0  0  0  0  0  0  0  0  0  0  0  0
    0.8330   14.9660   -0.7640 C   0  0  0  0  0  0  0  0  0  0  0  0
    1.6840   13.6960   -0.6400 C   0  0  1  0  0  0  0  0  0  0  0  0
    3.1570   14.0860   -0.3480 C   0  0  0  0  0  0  0  0  0  0  0  0
    3.7170   15.0670   -1.3730 C   0  0  0  0  0  0  0  0  0  0  0  0
    2.8780   16.3410   -1.4250 C   0  0  2  0  0  0  0  0  0  0  0  0
    3.0200   17.0370   -0.1830 O   0  0  0  0  0  0  0  0  0  0  0  0
    1.3720   16.0720   -1.7040 C   0  0  0  0  0  0  0  0  0  0  0  0
    1.1910   15.5970   -3.1670 C   0  0  0  0  0  0  0  0  0  0  0  0
    0.6170   17.4230   -1.5900 C   0  0  0  0  0  0  0  0  0  0  0  0
    1.1360   12.5880    0.3590 C   0  0  1  0  0  0  0  0  0  0  0  0
    1.6420   12.8790    1.8050 C   0  0  0  0  0  0  0  0  0  0  0  0
    1.7330   11.1890   -0.0470 C   0  0  0  0  0  0  0  0  0  0  0  0
    0.9490   10.3770   -1.0960 C   0  0  0  0  0  0  0  0  0  0  0  0
   -0.5360   10.2970   -0.7300 C   0  0  2  0  0  0  0  0  0  0  0  0
   -0.6520    9.5310    0.6310 C   0  0  0  0  0  0  0  0  0  0  0  0
    0.1514    7.0268   -2.8266 H   0  0  0  0  0  0  0  0  0  0  0  0
   -1.4289    6.9968   -3.6800 H   0  0  0  0  0  0  0  0  0  0  0  0
   -0.4365    8.4940   -3.6800 H   0  0  0  0  0  0  0  0  0  0  0  0
   -0.8638    7.6903   -0.9566 H   0  0  0  0  0  0  0  0  0  0  0  0
   -2.8829    6.7549   -0.9077 H   0  0  0  0  0  0  0  0  0  0  0  0
   -3.5301    8.3720   -1.4654 H   0  0  0  0  0  0  0  0  0  0  0  0
   -3.6424    7.6935   -3.7012 H   0  0  0  0  0  0  0  0  0  0  0  0
   -2.6029    6.2395   -3.3949 H   0  0  0  0  0  0  0  0  0  0  0  0
   -3.9914    5.1843   -2.4937 H   0  0  0  0  0  0  0  0  0  0  0  0
   -6.0335    8.1244   -0.6702 H   0  0  0  0  0  0  0  0  0  0  0  0
   -5.1755    8.6090   -2.1721 H   0  0  0  0  0  0  0  0  0  0  0  0
   -6.9645    8.4473   -2.1721 H   0  0  0  0  0  0  0  0  0  0  0  0
   -6.7641    5.7293   -0.4144 H   0  0  0  0  0  0  0  0  0  0  0  0
   -7.8763    5.8848   -1.8165 H   0  0  0  0  0  0  0  0  0  0  0  0
   -6.6028    4.6180   -1.8165 H   0  0  0  0  0  0  0  0  0  0  0  0
   -1.1365    9.8310   -2.7790 H   0  0  0  0  0  0  0  0  0  0  0  0
   -3.4294   10.4158   -2.2917 H   0  0  0  0  0  0  0  0  0  0  0  0
   -3.4527    9.4172   -0.8223 H   0  0  0  0  0  0  0  0  0  0  0  0
   -3.2504   12.2668   -0.8905 H   0  0  0  0  0  0  0  0  0  0  0  0
   -2.8930   11.2856    0.5281 H   0  0  0  0  0  0  0  0  0  0  0  0
   -0.9241   13.5799   -1.9080 H   0  0  0  0  0  0  0  0  0  0  0  0
   -0.1820   12.1256   -2.6571 H   0  0  0  0  0  0  0  0  0  0  0  0
   -1.9673   12.3240   -2.6571 H   0  0  0  0  0  0  0  0  0  0  0  0
   -0.7188   11.9927    1.3234 H   0  0  0  0  0  0  0  0  0  0  0  0
   -2.0796   13.9673    0.3786 H   0  0  0  0  0  0  0  0  0  0  0  0
   -0.8337   14.2204    1.7098 H   0  0  0  0  0  0  0  0  0  0  0  0
   -0.8794   16.0303   -0.2038 H   0  0  0  0  0  0  0  0  0  0  0  0
    1.6181   13.1899   -1.6144 H   0  0  0  0  0  0  0  0  0  0  0  0
    3.2081   14.5496    0.6482 H   0  0  0  0  0  0  0  0  0  0  0  0
    3.7616   13.1685   -0.3993 H   0  0  0  0  0  0  0  0  0  0  0  0
    4.7492   15.3270   -1.0957 H   0  0  0  0  0  0  0  0  0  0  0  0
    3.6930   14.5905   -2.3641 H   0  0  0  0  0  0  0  0  0  0  0  0
    3.2493   16.9467   -2.2648 H   0  0  0  0  0  0  0  0  0  0  0  0
    3.6620   17.7540   -0.3190 H   0  0  0  0  0  0  0  0  0  0  0  0
    0.7993   14.5691   -3.1730 H   0  0  0  0  0  0  0  0  0  0  0  0
    0.4833   16.2621   -3.6835 H   0  0  0  0  0  0  0  0  0  0  0  0
    2.1618   15.6225   -3.6835 H   0  0  0  0  0  0  0  0  0  0  0  0
    0.4758   17.6757   -0.5288 H   0  0  0  0  0  0  0  0  0  0  0  0
    1.2040   18.2136   -2.0802 H   0  0  0  0  0  0  0  0  0  0  0  0
   -0.3640   17.3373   -2.0802 H   0  0  0  0  0  0  0  0  0  0  0  0
    0.9273   12.4680    2.5332 H   0  0  0  0  0  0  0  0  0  0  0  0
    2.6256   12.4086    1.9509 H   0  0  0  0  0  0  0  0  0  0  0  0
    1.7301   13.9657    1.9509 H   0  0  0  0  0  0  0  0  0  0  0  0
    2.7431   11.3616   -0.4468 H   0  0  0  0  0  0  0  0  0  0  0  0
    1.6976   10.5837    0.8708 H   0  0  0  0  0  0  0  0  0  0  0  0
    1.0520   10.8628   -2.0775 H   0  0  0  0  0  0  0  0  0  0  0  0
    1.3580    9.3563   -1.1266 H   0  0  0  0  0  0  0  0  0  0  0  0
   -0.5442   10.2428    1.4627 H   0  0  0  0  0  0  0  0  0  0  0  0
   -1.6347    9.0406    0.6931 H   0  0  0  0  0  0  0  0  0  0  0  0
    0.1414    8.7716    0.6931 H   0  0  0  0  0  0  0  0  0  0  0  0
  1  2  1  0
  2  3  1  0
  3  4  1  0
  4  5  1  0
  5  6  1  0
  6  7  1  0
  7  8  1  0
  7  9  1  0
  2 10  1  0
 10 11  1  0
 11 12  1  0
 12 13  1  0
 13 14  1  6
 13 15  1  0
 15 16  1  0
 16 17  1  0
 17 18  2  0
 18 19  1  0
 19 20  1  0
 20 21  1  0
 21 22  1  0
 22 23  1  0
 22 24  1  0
 24 25  1  0
 24 26  1  0
 19 27  1  0
 27 28  1  1
 27 29  1  0
 29 30  1  0
 30 31  1  0
 31 32  1  1
  7  5  1  0
 31 10  1  0
 31 13  1  0
 27 15  1  0
 24 18  1  0
  1 33  1  0
  1 34  1  0
  1 35  1  0
  2 36  1  1
  3 37  1  0
  3 38  1  0
  4 39  1  0
  4 40  1  0
  5 41  1  1
  8 42  1  0
  8 43  1  0
  8 44  1  0
  9 45  1  0
  9 46  1  0
  9 47  1  0
 10 48  1  6
 11 49  1  0
 11 50  1  0
 12 51  1  0
 12 52  1  0
 14 53  1  0
 14 54  1  0
 14 55  1  0
 15 56  1  1
 16 57  1  0
 16 58  1  0
 17 59  1  0
 19 60  1  6
 20 61  1  0
 20 62  1  0
 21 63  1  0
 21 64  1  0
 22 65  1  6
 23 66  1  0
 25 67  1  0
 25 68  1  0
 25 69  1  0
 26 70  1  0
 26 71  1  0
 26 72  1  0
 28 73  1  0
 28 74  1  0
 28 75  1  0
 29 76  1  0
 29 77  1  0
 30 78  1  0
 30 79  1  0
 32 80  1  0
 32 81  1  0
 32 82  1  0
M  END
>  <meeko>  (17) 
{"is_sidechain": [false], "intermolecular_energy": 2.731, "internal_energy": -0.839}

$$$$
EPH_relaxed_0001_pdb2pqr_Repair_224_r2_0001_out
     RDKit          3D

 82 86  0  0  0  0  0  0  0  0999 V2000
  -13.9410    9.6490    1.0900 C   0  0  0  0  0  0  0  0  0  0  0  0
  -13.2460    9.3410   -0.2390 C   0  0  2  0  0  0  0  0  0  0  0  0
  -14.1530    8.5420   -1.1970 C   0  0  0  0  0  0  0  0  0  0  0  0
  -15.2840    9.3720   -1.8100 C   0  0  0  0  0  0  0  0  0  0  0  0
  -14.8690   10.0020   -3.1050 C   0  0  2  0  0  0  0  0  0  0  0  0
  -13.6640   10.7750   -3.0360 O   0  0  0  0  0  0  0  0  0  0  0  0
  -14.8660   11.5000   -3.3430 C   0  0  0  0  0  0  0  0  0  0  0  0
  -15.2860   12.4610   -2.2750 C   0  0  0  0  0  0  0  0  0  0  0  0
  -14.9240   12.0010   -4.7520 C   0  0  0  0  0  0  0  0  0  0  0  0
  -11.9530    8.5750    0.0150 C   0  0  1  0  0  0  0  0  0  0  0  0
  -12.1360    7.4150    1.0300 C   0  0  0  0  0  0  0  0  0  0  0  0
  -11.1950    6.2700    0.5750 C   0  0  0  0  0  0  0  0  0  0  0  0
  -10.2670    6.9220   -0.4770 C   0  0  1  0  0  0  0  0  0  0  0  0
   -9.1730    7.6600    0.3560 C   0  0  0  0  0  0  0  0  0  0  0  0
   -9.6360    5.9590   -1.5340 C   0  0  2  0  0  0  0  0  0  0  0  0
   -8.7030    4.8790   -0.9580 C   0  0  0  0  0  0  0  0  0  0  0  0
   -7.2640    5.2640   -0.8640 C   0  0  0  0  0  0  0  0  0  0  0  0
   -6.6930    6.3130   -1.4840 C   0  0  0  0  0  0  0  0  0  0  0  0
   -7.4950    7.1850   -2.4590 C   0  0  1  0  0  0  0  0  0  0  0  0
   -6.6630    7.4220   -3.7460 C   0  0  0  0  0  0  0  0  0  0  0  0
   -5.2810    7.9960   -3.4520 C   0  0  0  0  0  0  0  0  0  0  0  0
   -4.4920    7.0730   -2.5270 C   0  0  2  0  0  0  0  0  0  0  0  0
   -4.2080    5.8560   -3.2230 O   0  0  0  0  0  0  0  0  0  0  0  0
   -5.2360    6.7550   -1.2000 C   0  0  0  0  0  0  0  0  0  0  0  0
   -5.2770    8.0220   -0.3090 C   0  0  0  0  0  0  0  0  0  0  0  0
   -4.3970    5.7050   -0.4220 C   0  0  0  0  0  0  0  0  0  0  0  0
   -8.9750    6.6950   -2.7690 C   0  0  1  0  0  0  0  0  0  0  0  0
   -8.9600    5.6690   -3.9440 C   0  0  0  0  0  0  0  0  0  0  0  0
   -9.8300    7.9220   -3.2620 C   0  0  0  0  0  0  0  0  0  0  0  0
  -10.5260    8.7650   -2.1770 C   0  0  0  0  0  0  0  0  0  0  0  0
  -11.2930    7.8710   -1.1970 C   0  0  2  0  0  0  0  0  0  0  0  0
  -12.4160    7.1330   -2.0030 C   0  0  0  0  0  0  0  0  0  0  0  0
  -13.2844    9.3580    1.9232 H   0  0  0  0  0  0  0  0  0  0  0  0
  -14.1551   10.7263    1.1508 H   0  0  0  0  0  0  0  0  0  0  0  0
  -14.8829    9.0840    1.1508 H   0  0  0  0  0  0  0  0  0  0  0  0
  -13.0189   10.3019   -0.7239 H   0  0  0  0  0  0  0  0  0  0  0  0
  -13.5316    8.1453   -2.0134 H   0  0  0  0  0  0  0  0  0  0  0  0
  -14.6247    7.7453   -0.6031 H   0  0  0  0  0  0  0  0  0  0  0  0
  -16.1484    8.7168   -1.9930 H   0  0  0  0  0  0  0  0  0  0  0  0
  -15.5414   10.1756   -1.1043 H   0  0  0  0  0  0  0  0  0  0  0  0
  -15.2969    9.1650   -3.6763 H   0  0  0  0  0  0  0  0  0  0  0  0
  -15.0925   12.0184   -1.2867 H   0  0  0  0  0  0  0  0  0  0  0  0
  -14.7141   13.3951   -2.3767 H   0  0  0  0  0  0  0  0  0  0  0  0
  -16.3600   12.6757   -2.3767 H   0  0  0  0  0  0  0  0  0  0  0  0
  -15.0505   13.0937   -4.7477 H   0  0  0  0  0  0  0  0  0  0  0  0
  -13.9899   11.7421   -5.2720 H   0  0  0  0  0  0  0  0  0  0  0  0
  -15.7743   11.5355   -5.2720 H   0  0  0  0  0  0  0  0  0  0  0  0
  -11.3151    9.4006    0.3634 H   0  0  0  0  0  0  0  0  0  0  0  0
  -11.8632    7.7502    2.0415 H   0  0  0  0  0  0  0  0  0  0  0  0
  -13.1826    7.0778    1.0599 H   0  0  0  0  0  0  0  0  0  0  0  0
  -10.6103    5.8872    1.4245 H   0  0  0  0  0  0  0  0  0  0  0  0
  -11.7493    5.4118    0.1674 H   0  0  0  0  0  0  0  0  0  0  0  0
   -9.3749    7.5238    1.4287 H   0  0  0  0  0  0  0  0  0  0  0  0
   -8.1842    7.2436    0.1132 H   0  0  0  0  0  0  0  0  0  0  0  0
   -9.1888    8.7328    0.1132 H   0  0  0  0  0  0  0  0  0  0  0  0
  -10.5156    5.4208   -1.9170 H   0  0  0  0  0  0  0  0  0  0  0  0
   -9.0551    4.6301    0.0540 H   0  0  0  0  0  0  0  0  0  0  0  0
   -8.7466    4.0332   -1.6599 H   0  0  0  0  0  0  0  0  0  0  0  0
   -6.6153    4.6371   -0.2346 H   0  0  0  0  0  0  0  0  0  0  0  0
   -7.6644    8.1421   -1.9439 H   0  0  0  0  0  0  0  0  0  0  0  0
   -6.5420    6.4621   -4.2693 H   0  0  0  0  0  0  0  0  0  0  0  0
   -7.2042    8.1544   -4.3631 H   0  0  0  0  0  0  0  0  0  0  0  0
   -4.7314    8.1134   -4.3976 H   0  0  0  0  0  0  0  0  0  0  0  0
   -5.4038    8.9695   -2.9549 H   0  0  0  0  0  0  0  0  0  0  0  0
   -3.5655    7.5969   -2.2495 H   0  0  0  0  0  0  0  0  0  0  0  0
   -4.8160    5.8000   -3.9790 H   0  0  0  0  0  0  0  0  0  0  0  0
   -5.2674    7.7258    0.7503 H   0  0  0  0  0  0  0  0  0  0  0  0
   -4.3987    8.6489   -0.5224 H   0  0  0  0  0  0  0  0  0  0  0  0
   -6.1940    8.5908   -0.5224 H   0  0  0  0  0  0  0  0  0  0  0  0
   -4.5232    5.8630    0.6593 H   0  0  0  0  0  0  0  0  0  0  0  0
   -4.7384    4.6935   -0.6871 H   0  0  0  0  0  0  0  0  0  0  0  0
   -3.3351    5.8148   -0.6871 H   0  0  0  0  0  0  0  0  0  0  0  0
   -8.9451    4.6468   -3.5380 H   0  0  0  0  0  0  0  0  0  0  0  0
   -9.8602    5.8052   -4.5613 H   0  0  0  0  0  0  0  0  0  0  0  0
   -8.0641    5.8315   -4.5613 H   0  0  0  0  0  0  0  0  0  0  0  0
   -9.1603    8.5899   -3.8236 H   0  0  0  0  0  0  0  0  0  0  0  0
  -10.6471    7.4838   -3.8539 H   0  0  0  0  0  0  0  0  0  0  0  0
   -9.7669    9.3373   -1.6237 H   0  0  0  0  0  0  0  0  0  0  0  0
  -11.2402    9.4447   -2.6648 H   0  0  0  0  0  0  0  0  0  0  0  0
  -13.1246    6.6673   -1.3022 H   0  0  0  0  0  0  0  0  0  0  0  0
  -12.9491    7.8574   -2.6363 H   0  0  0  0  0  0  0  0  0  0  0  0
  -11.9626    6.3562   -2.6363 H   0  0  0  0  0  0  0  0  0  0  0  0
  1  2  1  0
  2  3  1  0
  3  4  1  0
  4  5  1  0
  5  6  1  0
  6  7  1  0
  7  8  1  0
  7  9  1  0
  2 10  1  0
 10 11  1  0
 11 12  1  0
 12 13  1  0
 13 14  1  1
 13 15  1  0
 15 16  1  0
 16 17  1  0
 17 18  2  0
 18 19  1  0
 19 20  1  0
 20 21  1  0
 21 22  1  0
 22 23  1  0
 22 24  1  0
 24 25  1  0
 24 26  1  0
 19 27  1  0
 27 28  1  6
 27 29  1  0
 29 30  1  0
 30 31  1  0
 31 32  1  6
  7  5  1  0
 31 10  1  0
 31 13  1  0
 27 15  1  0
 24 18  1  0
  1 33  1  0
  1 34  1  0
  1 35  1  0
  2 36  1  6
  3 37  1  0
  3 38  1  0
  4 39  1  0
  4 40  1  0
  5 41  1  6
  8 42  1  0
  8 43  1  0
  8 44  1  0
  9 45  1  0
  9 46  1  0
  9 47  1  0
 10 48  1  1
 11 49  1  0
 11 50  1  0
 12 51  1  0
 12 52  1  0
 14 53  1  0
 14 54  1  0
 14 55  1  0
 15 56  1  6
 16 57  1  0
 16 58  1  0
 17 59  1  0
 19 60  1  1
 20 61  1  0
 20 62  1  0
 21 63  1  0
 21 64  1  0
 22 65  1  1
 23 66  1  0
 25 67  1  0
 25 68  1  0
 25 69  1  0
 26 70  1  0
 26 71  1  0
 26 72  1  0
 28 73  1  0
 28 74  1  0
 28 75  1  0
 29 76  1  0
 29 77  1  0
 30 78  1  0
 30 79  1  0
 32 80  1  0
 32 81  1  0
 32 82  1  0
M  END
>  <meeko>  (18) 
{"is_sidechain": [false], "intermolecular_energy": 2.731, "internal_energy": -0.839}

$$$$
EPH_relaxed_0001_pdb2pqr_Repair_224_r2_0001_out
     RDKit          3D

 82 86  0  0  0  0  0  0  0  0999 V2000
   -2.0950   14.0580    0.0660 C   0  0  0  0  0  0  0  0  0  0  0  0
   -0.8090   14.7060    0.5850 C   0  0  2  0  0  0  0  0  0  0  0  0
   -0.5970   16.1200    0.0070 C   0  0  0  0  0  0  0  0  0  0  0  0
    0.8760   16.5240   -0.1060 C   0  0  0  0  0  0  0  0  0  0  0  0
    1.4040   16.3110   -1.4920 C   0  0  2  0  0  0  0  0  0  0  0  0
    2.3150   17.3190   -1.9480 O   0  0  0  0  0  0  0  0  0  0  0  0
    1.0730   17.2180   -2.6630 C   0  0  0  0  0  0  0  0  0  0  0  0
    0.1780   18.4060   -2.5000 C   0  0  0  0  0  0  0  0  0  0  0  0
    1.2190   16.6770   -4.0510 C   0  0  0  0  0  0  0  0  0  0  0  0
    0.3890   13.8230    0.2530 C   0  0  1  0  0  0  0  0  0  0  0  0
    0.6800   12.7720    1.3570 C   0  0  0  0  0  0  0  0  0  0  0  0
    1.1930   11.4980    0.6380 C   0  0  0  0  0  0  0  0  0  0  0  0
    1.4950   11.9610   -0.8060 C   0  0  1  0  0  0  0  0  0  0  0  0
    2.9010   12.6350   -0.7260 C   0  0  0  0  0  0  0  0  0  0  0  0
    1.4480   10.8550   -1.9110 C   0  0  2  0  0  0  0  0  0  0  0  0
    2.4800    9.7260   -1.7480 C   0  0  0  0  0  0  0  0  0  0  0  0
    3.7880    9.9550   -2.4300 C   0  0  0  0  0  0  0  0  0  0  0  0
    4.0260   10.8840   -3.3750 C   0  0  0  0  0  0  0  0  0  0  0  0
    2.8910   11.7620   -3.9200 C   0  0  1  0  0  0  0  0  0  0  0  0
    2.9680   11.8050   -5.4680 C   0  0  0  0  0  0  0  0  0  0  0  0
    4.3390   12.2440   -5.9740 C   0  0  0  0  0  0  0  0  0  0  0  0
    5.4330   11.3130   -5.4590 C   0  0  2  0  0  0  0  0  0  0  0  0
    5.2560   10.0220   -6.0490 O   0  0  0  0  0  0  0  0  0  0  0  0
    5.4480   11.1820   -3.9100 C   0  0  0  0  0  0  0  0  0  0  0  0
    5.9360   12.5100   -3.2800 C   0  0  0  0  0  0  0  0  0  0  0  0
    6.5040   10.1090   -3.5320 C   0  0  0  0  0  0  0  0  0  0  0  0
    1.4330   11.4170   -3.3900 C   0  0  1  0  0  0  0  0  0  0  0  0
    0.7920   10.3080   -4.2800 C   0  0  0  0  0  0  0  0  0  0  0  0
    0.5180   12.6890   -3.5380 C   0  0  0  0  0  0  0  0  0  0  0  0
    0.5170   13.6850   -2.3620 C   0  0  0  0  0  0  0  0  0  0  0  0
    0.3020   12.9600   -1.0300 C   0  0  2  0  0  0  0  0  0  0  0  0
   -1.1140   12.2910   -1.0730 C   0  0  0  0  0  0  0  0  0  0  0  0
   -2.7171   13.7445    0.9173 H   0  0  0  0  0  0  0  0  0  0  0  0
   -2.6502   14.7840   -0.5462 H   0  0  0  0  0  0  0  0  0  0  0  0
   -1.8419   13.1798   -0.5462 H   0  0  0  0  0  0  0  0  0  0  0  0
   -0.9062   14.8062    1.6761 H   0  0  0  0  0  0  0  0  0  0  0  0
   -1.0450   16.1556   -0.9970 H   0  0  0  0  0  0  0  0  0  0  0  0
   -1.0718   16.8267    0.7035 H   0  0  0  0  0  0  0  0  0  0  0  0
    0.9747   17.5884    0.1535 H   0  0  0  0  0  0  0  0  0  0  0  0
    1.4581   15.8948    0.5833 H   0  0  0  0  0  0  0  0  0  0  0  0
    1.3547   15.2192   -1.3674 H   0  0  0  0  0  0  0  0  0  0  0  0
    0.0267   18.6069   -1.4291 H   0  0  0  0  0  0  0  0  0  0  0  0
    0.6420   19.2827   -2.9755 H   0  0  0  0  0  0  0  0  0  0  0  0
   -0.7927   18.2018   -2.9755 H   0  0  0  0  0  0  0  0  0  0  0  0
    1.5053   15.6160   -4.0028 H   0  0  0  0  0  0  0  0  0  0  0  0
    0.2624   16.7747   -4.5851 H   0  0  0  0  0  0  0  0  0  0  0  0
    1.9966   17.2427   -4.5851 H   0  0  0  0  0  0  0  0  0  0  0  0
    1.1616   14.5969    0.1341 H   0  0  0  0  0  0  0  0  0  0  0  0
    1.4468   13.1514    2.0484 H   0  0  0  0  0  0  0  0  0  0  0  0
   -0.2242   12.5564    1.9451 H   0  0  0  0  0  0  0  0  0  0  0  0
    2.1045   11.1187    1.1230 H   0  0  0  0  0  0  0  0  0  0  0  0
    0.4608   10.6777    0.6689 H   0  0  0  0  0  0  0  0  0  0  0  0
    3.1833   12.7703    0.3285 H   0  0  0  0  0  0  0  0  0  0  0  0
    3.6434   11.9949   -1.2251 H   0  0  0  0  0  0  0  0  0  0  0  0
    2.8669   13.6147   -1.2251 H   0  0  0  0  0  0  0  0  0  0  0  0
    0.4668   10.3891   -1.7374 H   0  0  0  0  0  0  0  0  0  0  0  0
    2.6751    9.5963   -0.6732 H   0  0  0  0  0  0  0  0  0  0  0  0
    2.0387    8.8388   -2.2256 H   0  0  0  0  0  0  0  0  0  0  0  0
    4.6289    9.3099   -2.1354 H   0  0  0  0  0  0  0  0  0  0  0  0
    3.0607   12.7687   -3.5103 H   0  0  0  0  0  0  0  0  0  0  0  0
    2.7529   10.7999   -5.8597 H   0  0  0  0  0  0  0  0  0  0  0  0
    2.2310   12.5426   -5.8185 H   0  0  0  0  0  0  0  0  0  0  0  0
    4.3395   12.2266   -7.0739 H   0  0  0  0  0  0  0  0  0  0  0  0
    4.5406   13.2608   -5.6058 H   0  0  0  0  0  0  0  0  0  0  0  0
    6.4002   11.7515   -5.7459 H   0  0  0  0  0  0  0  0  0  0  0  0
    4.3080    9.8090   -6.0120 H   0  0  0  0  0  0  0  0  0  0  0  0
    5.9060   12.4284   -2.1834 H   0  0  0  0  0  0  0  0  0  0  0  0
    6.9673   12.7126   -3.6046 H   0  0  0  0  0  0  0  0  0  0  0  0
    5.2813   13.3322   -3.6046 H   0  0  0  0  0  0  0  0  0  0  0  0
    6.5763   10.0355   -2.4368 H   0  0  0  0  0  0  0  0  0  0  0  0
    6.2019    9.1355   -3.9456 H   0  0  0  0  0  0  0  0  0  0  0  0
    7.4822   10.3955   -3.9456 H   0  0  0  0  0  0  0  0  0  0  0  0
    0.3452    9.5350   -3.6375 H   0  0  0  0  0  0  0  0  0  0  0  0
    0.0118   10.7529   -4.9151 H   0  0  0  0  0  0  0  0  0  0  0  0
    1.5670    9.8540   -4.9151 H   0  0  0  0  0  0  0  0  0  0  0  0
    0.8478   13.2336   -4.4350 H   0  0  0  0  0  0  0  0  0  0  0  0
   -0.5098   12.3001   -3.5866 H   0  0  0  0  0  0  0  0  0  0  0  0
    1.4833   14.2099   -2.3342 H   0  0  0  0  0  0  0  0  0  0  0  0
   -0.3056   14.4004   -2.5088 H   0  0  0  0  0  0  0  0  0  0  0  0
   -1.4711   12.1223   -0.0464 H   0  0  0  0  0  0  0  0  0  0  0  0
   -1.8162   12.9526   -1.6014 H   0  0  0  0  0  0  0  0  0  0  0  0
   -1.0489   11.3284   -1.6014 H   0  0  0  0  0  0  0  0  0  0  0  0
  1  2  1  0
  2  3  1  0
  3  4  1  0
  4  5  1  0
  5  6  1  0
  6  7  1  0
  7  8  1  0
  7  9  1  0
  2 10  1  0
 10 11  1  0
 11 12  1  0
 12 13  1  0
 13 14  1  1
 13 15  1  0
 15 16  1  0
 16 17  1  0
 17 18  2  0
 18 19  1  0
 19 20  1  0
 20 21  1  0
 21 22  1  0
 22 23  1  0
 22 24  1  0
 24 25  1  0
 24 26  1  0
 19 27  1  0
 27 28  1  6
 27 29  1  0
 29 30  1  0
 30 31  1  0
 31 32  1  6
  7  5  1  0
 31 10  1  0
 31 13  1  0
 27 15  1  0
 24 18  1  0
  1 33  1  0
  1 34  1  0
  1 35  1  0
  2 36  1  1
  3 37  1  0
  3 38  1  0
  4 39  1  0
  4 40  1  0
  5 41  1  6
  8 42  1  0
  8 43  1  0
  8 44  1  0
  9 45  1  0
  9 46  1  0
  9 47  1  0
 10 48  1  6
 11 49  1  0
 11 50  1  0
 12 51  1  0
 12 52  1  0
 14 53  1  0
 14 54  1  0
 14 55  1  0
 15 56  1  1
 16 57  1  0
 16 58  1  0
 17 59  1  0
 19 60  1  1
 20 61  1  0
 20 62  1  0
 21 63  1  0
 21 64  1  0
 22 65  1  6
 23 66  1  0
 25 67  1  0
 25 68  1  0
 25 69  1  0
 26 70  1  0
 26 71  1  0
 26 72  1  0
 28 73  1  0
 28 74  1  0
 28 75  1  0
 29 76  1  0
 29 77  1  0
 30 78  1  0
 30 79  1  0
 32 80  1  0
 32 81  1  0
 32 82  1  0
M  END
>  <meeko>  (19) 
{"is_sidechain": [false], "intermolecular_energy": 2.731, "internal_energy": -0.839}

$$$$
