EPH_relaxed_0001_pdb2pqr_Repair_134_r2_0001_out
     RDKit          3D

 82 86  0  0  0  0  0  0  0  0999 V2000
    4.5470   17.6840   -0.7640 C   0  0  0  0  0  0  0  0  0  0  0  0
    3.1760   18.2660   -0.4100 C   0  0  2  0  0  0  0  0  0  0  0  0
    3.1480   18.8650    1.0100 C   0  0  0  0  0  0  0  0  0  0  0  0
    4.4220   18.5980    1.8160 C   0  0  0  0  0  0  0  0  0  0  0  0
    4.3620   19.2320    3.1730 C   0  0  2  0  0  0  0  0  0  0  0  0
    5.3940   20.1940    3.4290 O   0  0  0  0  0  0  0  0  0  0  0  0
    5.4130   19.0120    4.2460 C   0  0  0  0  0  0  0  0  0  0  0  0
    6.5970   18.1280    4.0090 C   0  0  0  0  0  0  0  0  0  0  0  0
    5.0390   19.2600    5.6740 C   0  0  0  0  0  0  0  0  0  0  0  0
    2.1050   17.1880   -0.5420 C   0  0  1  0  0  0  0  0  0  0  0  0
    0.7710   17.7390   -1.1130 C   0  0  0  0  0  0  0  0  0  0  0  0
    0.1630   16.6140   -1.9900 C   0  0  0  0  0  0  0  0  0  0  0  0
    0.9840   15.3530   -1.6330 C   0  0  1  0  0  0  0  0  0  0  0  0
    0.3560   14.8290   -0.3030 C   0  0  0  0  0  0  0  0  0  0  0  0
    1.0430   14.2350   -2.7240 C   0  0  2  0  0  0  0  0  0  0  0  0
   -0.3130   13.6030   -3.0840 C   0  0  0  0  0  0  0  0  0  0  0  0
   -0.6930   12.4050   -2.2770 C   0  0  0  0  0  0  0  0  0  0  0  0
    0.1410   11.6880   -1.5010 C   0  0  0  0  0  0  0  0  0  0  0  0
    1.6420   12.0040   -1.4560 C   0  0  1  0  0  0  0  0  0  0  0  0
    2.4530   10.6880   -1.5820 C   0  0  0  0  0  0  0  0  0  0  0  0
    2.0440    9.6470   -0.5440 C   0  0  0  0  0  0  0  0  0  0  0  0
    0.5580    9.3160   -0.6600 C   0  0  2  0  0  0  0  0  0  0  0  0
    0.3290    8.6530   -1.9070 O   0  0  0  0  0  0  0  0  0  0  0  0
   -0.3580   10.5670   -0.5560 C   0  0  0  0  0  0  0  0  0  0  0  0
   -0.3370   11.1090    0.8940 C   0  0  0  0  0  0  0  0  0  0  0  0
   -1.8180   10.1140   -0.8300 C   0  0  0  0  0  0  0  0  0  0  0  0
    2.1440   13.1290   -2.4600 C   0  0  1  0  0  0  0  0  0  0  0  0
    2.4790   12.4950   -3.8450 C   0  0  0  0  0  0  0  0  0  0  0  0
    3.4880   13.7420   -1.9150 C   0  0  0  0  0  0  0  0  0  0  0  0
    3.3660   14.9220   -0.9330 C   0  0  0  0  0  0  0  0  0  0  0  0
    2.4120   15.9910   -1.4760 C   0  0  2  0  0  0  0  0  0  0  0  0
    3.0290   16.5530   -2.8020 C   0  0  0  0  0  0  0  0  0  0  0  0
    5.0961   17.4509    0.1602 H   0  0  0  0  0  0  0  0  0  0  0  0
    4.4140   16.7647   -1.3533 H   0  0  0  0  0  0  0  0  0  0  0  0
    5.1160   18.4182   -1.3533 H   0  0  0  0  0  0  0  0  0  0  0  0
    2.9708   19.0837   -1.1166 H   0  0  0  0  0  0  0  0  0  0  0  0
    3.0125   19.9533    0.9252 H   0  0  0  0  0  0  0  0  0  0  0  0
    2.3201   18.3795    1.5474 H   0  0  0  0  0  0  0  0  0  0  0  0
    4.5475   17.5117    1.9352 H   0  0  0  0  0  0  0  0  0  0  0  0
    5.2712   19.0351    1.2703 H   0  0  0  0  0  0  0  0  0  0  0  0
    3.2649   19.1542    3.1880 H   0  0  0  0  0  0  0  0  0  0  0  0
    7.0187   17.8131    4.9749 H   0  0  0  0  0  0  0  0  0  0  0  0
    6.2840   17.2409    3.4389 H   0  0  0  0  0  0  0  0  0  0  0  0
    7.3586   18.6802    3.4389 H   0  0  0  0  0  0  0  0  0  0  0  0
    5.7720   18.7740    6.3347 H   0  0  0  0  0  0  0  0  0  0  0  0
    5.0315   20.3427    5.8683 H   0  0  0  0  0  0  0  0  0  0  0  0
    4.0387   18.8456    5.8683 H   0  0  0  0  0  0  0  0  0  0  0  0
    2.0567   16.8466    0.5026 H   0  0  0  0  0  0  0  0  0  0  0  0
    0.0838   17.9933   -0.2926 H   0  0  0  0  0  0  0  0  0  0  0  0
    0.9402   18.6522   -1.7024 H   0  0  0  0  0  0  0  0  0  0  0  0
   -0.9001   16.4660   -1.7494 H   0  0  0  0  0  0  0  0  0  0  0  0
    0.2090   16.8513   -3.0631 H   0  0  0  0  0  0  0  0  0  0  0  0
    0.8868   15.2719    0.5526 H   0  0  0  0  0  0  0  0  0  0  0  0
   -0.7060   15.1126   -0.2623 H   0  0  0  0  0  0  0  0  0  0  0  0
    0.4448   13.7333   -0.2623 H   0  0  0  0  0  0  0  0  0  0  0  0
    1.3593   14.7935   -3.6173 H   0  0  0  0  0  0  0  0  0  0  0  0
   -1.0918   14.3673   -2.9451 H   0  0  0  0  0  0  0  0  0  0  0  0
   -0.2194   13.2530   -4.1226 H   0  0  0  0  0  0  0  0  0  0  0  0
   -1.7434   12.0812   -2.3205 H   0  0  0  0  0  0  0  0  0  0  0  0
    1.8265   12.4627   -0.4734 H   0  0  0  0  0  0  0  0  0  0  0  0
    2.2901   10.2682   -2.5856 H   0  0  0  0  0  0  0  0  0  0  0  0
    3.5122   10.9310   -1.4118 H   0  0  0  0  0  0  0  0  0  0  0  0
    2.6306    8.7302   -0.7030 H   0  0  0  0  0  0  0  0  0  0  0  0
    2.2354   10.0567    0.4587 H   0  0  0  0  0  0  0  0  0  0  0  0
    0.2975    8.6659    0.1883 H   0  0  0  0  0  0  0  0  0  0  0  0
    0.8810    9.0900   -2.5780 H   0  0  0  0  0  0  0  0  0  0  0  0
   -0.3696   10.2667    1.6008 H   0  0  0  0  0  0  0  0  0  0  0  0
    0.5842   11.6879    1.0557 H   0  0  0  0  0  0  0  0  0  0  0  0
   -1.2107   11.7575    1.0557 H   0  0  0  0  0  0  0  0  0  0  0  0
   -2.3375    9.9528    0.1261 H   0  0  0  0  0  0  0  0  0  0  0  0
   -2.3415   10.8920   -1.4051 H   0  0  0  0  0  0  0  0  0  0  0  0
   -1.8092    9.1764   -1.4051 H   0  0  0  0  0  0  0  0  0  0  0  0
    2.9880   11.5317   -3.6938 H   0  0  0  0  0  0  0  0  0  0  0  0
    1.5485   12.3335   -4.4090 H   0  0  0  0  0  0  0  0  0  0  0  0
    3.1367   13.1727   -4.4090 H   0  0  0  0  0  0  0  0  0  0  0  0
    4.0365   12.9380   -1.4024 H   0  0  0  0  0  0  0  0  0  0  0  0
    3.9949   14.1553   -2.7994 H   0  0  0  0  0  0  0  0  0  0  0  0
    2.9814   14.5515    0.0287 H   0  0  0  0  0  0  0  0  0  0  0  0
    4.3605   15.3734   -0.8018 H   0  0  0  0  0  0  0  0  0  0  0  0
    3.8223   17.2756   -2.5599 H   0  0  0  0  0  0  0  0  0  0  0  0
    3.4538   15.7250   -3.3885 H   0  0  0  0  0  0  0  0  0  0  0  0
    2.2442   17.0530   -3.3885 H   0  0  0  0  0  0  0  0  0  0  0  0
  1  2  1  0
  2  3  1  0
  3  4  1  0
  4  5  1  0
  5  6  1  0
  6  7  1  0
  7  8  1  0
  7  9  1  0
  2 10  1  0
 10 11  1  0
 11 12  1  0
 12 13  1  0
 13 14  1  1
 13 15  1  0
 15 16  1  0
 16 17  1  0
 17 18  2  0
 18 19  1  0
 19 20  1  0
 20 21  1  0
 21 22  1  0
 22 23  1  0
 22 24  1  0
 24 25  1  0
 24 26  1  0
 19 27  1  0
 27 28  1  6
 27 29  1  0
 29 30  1  0
 30 31  1  0
 31 32  1  6
  7  5  1  0
 31 10  1  0
 31 13  1  0
 27 15  1  0
 24 18  1  0
  1 33  1  0
  1 34  1  0
  1 35  1  0
  2 36  1  6
  3 37  1  0
  3 38  1  0
  4 39  1  0
  4 40  1  0
  5 41  1  1
  8 42  1  0
  8 43  1  0
  8 44  1  0
  9 45  1  0
  9 46  1  0
  9 47  1  0
 10 48  1  1
 11 49  1  0
 11 50  1  0
 12 51  1  0
 12 52  1  0
 14 53  1  0
 14 54  1  0
 14 55  1  0
 15 56  1  6
 16 57  1  0
 16 58  1  0
 17 59  1  0
 19 60  1  1
 20 61  1  0
 20 62  1  0
 21 63  1  0
 21 64  1  0
 22 65  1  1
 23 66  1  0
 25 67  1  0
 25 68  1  0
 25 69  1  0
 26 70  1  0
 26 71  1  0
 26 72  1  0
 28 73  1  0
 28 74  1  0
 28 75  1  0
 29 76  1  0
 29 77  1  0
 30 78  1  0
 30 79  1  0
 32 80  1  0
 32 81  1  0
 32 82  1  0
M  END
>  <meeko>  (1) 
{"is_sidechain": [false], "intermolecular_energy": 2.731, "internal_energy": -0.839}

$$$$
EPH_relaxed_0001_pdb2pqr_Repair_134_r2_0001_out
     RDKit          3D

 82 86  0  0  0  0  0  0  0  0999 V2000
    3.8800   18.0310    0.5830 C   0  0  0  0  0  0  0  0  0  0  0  0
    2.9590   18.4450   -0.5680 C   0  0  2  0  0  0  0  0  0  0  0  0
    2.2120   19.7600   -0.2700 C   0  0  0  0  0  0  0  0  0  0  0  0
    1.1660   19.6360    0.8420 C   0  0  0  0  0  0  0  0  0  0  0  0
   -0.1600   20.1930    0.4210 C   0  0  2  0  0  0  0  0  0  0  0  0
   -1.1610   20.1940    1.4470 O   0  0  0  0  0  0  0  0  0  0  0  0
   -1.4210   19.3570    0.3080 C   0  0  0  0  0  0  0  0  0  0  0  0
   -1.4160   17.8930    0.6160 C   0  0  0  0  0  0  0  0  0  0  0  0
   -2.5320   19.8530   -0.5630 C   0  0  0  0  0  0  0  0  0  0  0  0
    1.9590   17.3320   -0.8590 C   0  0  1  0  0  0  0  0  0  0  0  0
    0.8140   17.7880   -1.8010 C   0  0  0  0  0  0  0  0  0  0  0  0
    0.4500   16.5690   -2.6870 C   0  0  0  0  0  0  0  0  0  0  0  0
    1.1550   15.3710   -2.0100 C   0  0  1  0  0  0  0  0  0  0  0  0
    0.2110   14.9600   -0.8380 C   0  0  0  0  0  0  0  0  0  0  0  0
    1.4920   14.1550   -2.9340 C   0  0  2  0  0  0  0  0  0  0  0  0
    0.2730   13.4550   -3.5610 C   0  0  0  0  0  0  0  0  0  0  0  0
   -0.2980   12.3310   -2.7620 C   0  0  0  0  0  0  0  0  0  0  0  0
    0.3130   11.7140   -1.7330 C   0  0  0  0  0  0  0  0  0  0  0  0
    1.7520   12.0730   -1.3400 C   0  0  1  0  0  0  0  0  0  0  0  0
    2.5700   10.7730   -1.1260 C   0  0  0  0  0  0  0  0  0  0  0  0
    1.9120    9.8260   -0.1270 C   0  0  0  0  0  0  0  0  0  0  0  0
    0.5050    9.4450   -0.5810 C   0  0  2  0  0  0  0  0  0  0  0  0
    0.6020    8.6600   -1.7740 O   0  0  0  0  0  0  0  0  0  0  0  0
   -0.4090   10.6760   -0.8380 C   0  0  0  0  0  0  0  0  0  0  0  0
   -0.7590   11.3550    0.5090 C   0  0  0  0  0  0  0  0  0  0  0  0
   -1.7500   10.1600   -1.4260 C   0  0  0  0  0  0  0  0  0  0  0  0
    2.4910   13.1100   -2.2910 C   0  0  1  0  0  0  0  0  0  0  0  0
    3.1690   12.3560   -3.4760 C   0  0  0  0  0  0  0  0  0  0  0  0
    3.6510   13.8080   -1.4870 C   0  0  0  0  0  0  0  0  0  0  0  0
    3.2810   15.0730   -0.6910 C   0  0  0  0  0  0  0  0  0  0  0  0
    2.4960   16.0590   -1.5610 C   0  0  2  0  0  0  0  0  0  0  0  0
    3.4290   16.5070   -2.7370 C   0  0  0  0  0  0  0  0  0  0  0  0
    3.3895   18.2515    1.5426 H   0  0  0  0  0  0  0  0  0  0  0  0
    4.0879   16.9529    0.5167 H   0  0  0  0  0  0  0  0  0  0  0  0
    4.8243   18.5912    0.5167 H   0  0  0  0  0  0  0  0  0  0  0  0
    3.5908   18.6178   -1.4517 H   0  0  0  0  0  0  0  0  0  0  0  0
    2.9501   20.5182    0.0306 H   0  0  0  0  0  0  0  0  0  0  0  0
    1.6737   20.0388   -1.1879 H   0  0  0  0  0  0  0  0  0  0  0  0
    1.0414   18.5733    1.0971 H   0  0  0  0  0  0  0  0  0  0  0  0
    1.5192   20.2114    1.7104 H   0  0  0  0  0  0  0  0  0  0  0  0
    0.3275   20.8902   -0.2764 H   0  0  0  0  0  0  0  0  0  0  0  0
   -1.4155   17.7477    1.7064 H   0  0  0  0  0  0  0  0  0  0  0  0
   -2.3125   17.4244    0.1841 H   0  0  0  0  0  0  0  0  0  0  0  0
   -0.5163   17.4305    0.1841 H   0  0  0  0  0  0  0  0  0  0  0  0
   -3.3555   20.2206    0.0668 H   0  0  0  0  0  0  0  0  0  0  0  0
   -2.1625   20.6716   -1.1981 H   0  0  0  0  0  0  0  0  0  0  0  0
   -2.8948   19.0314   -1.1981 H   0  0  0  0  0  0  0  0  0  0  0  0
    1.6466   17.0925    0.1681 H   0  0  0  0  0  0  0  0  0  0  0  0
   -0.0597   18.1014   -1.2108 H   0  0  0  0  0  0  0  0  0  0  0  0
    1.1271   18.6439   -2.4169 H   0  0  0  0  0  0  0  0  0  0  0  0
   -0.6392   16.4166   -2.7095 H   0  0  0  0  0  0  0  0  0  0  0  0
    0.7663   16.7033   -3.7319 H   0  0  0  0  0  0  0  0  0  0  0  0
    0.7035   15.1744    0.1219 H   0  0  0  0  0  0  0  0  0  0  0  0
   -0.7266   15.5314   -0.9048 H   0  0  0  0  0  0  0  0  0  0  0  0
   -0.0095   13.8844   -0.9048 H   0  0  0  0  0  0  0  0  0  0  0  0
    2.0246   14.6333   -3.7693 H   0  0  0  0  0  0  0  0  0  0  0  0
   -0.5166   14.2080   -3.7008 H   0  0  0  0  0  0  0  0  0  0  0  0
    0.6287   13.0095   -4.5017 H   0  0  0  0  0  0  0  0  0  0  0  0
   -1.3025   11.9769   -3.0370 H   0  0  0  0  0  0  0  0  0  0  0  0
    1.6799   12.6279   -0.3929 H   0  0  0  0  0  0  0  0  0  0  0  0
    2.6678   10.2549   -2.0914 H   0  0  0  0  0  0  0  0  0  0  0  0
    3.5511   11.0588   -0.7190 H   0  0  0  0  0  0  0  0  0  0  0  0
    2.5214    8.9144   -0.0401 H   0  0  0  0  0  0  0  0  0  0  0  0
    1.8411   10.3356    0.8453 H   0  0  0  0  0  0  0  0  0  0  0  0
    0.0386    8.8722    0.2340 H   0  0  0  0  0  0  0  0  0  0  0  0
    0.3570    7.7480   -1.5460 H   0  0  0  0  0  0  0  0  0  0  0  0
   -0.4285   10.7139    1.3395 H   0  0  0  0  0  0  0  0  0  0  0  0
   -0.2502   12.3282    0.5721 H   0  0  0  0  0  0  0  0  0  0  0  0
   -1.8469   11.5052    0.5721 H   0  0  0  0  0  0  0  0  0  0  0  0
   -2.4333    9.8971   -0.6050 H   0  0  0  0  0  0  0  0  0  0  0  0
   -2.2060   10.9469   -2.0448 H   0  0  0  0  0  0  0  0  0  0  0  0
   -1.5609    9.2704   -2.0448 H   0  0  0  0  0  0  0  0  0  0  0  0
    3.8553   11.5928   -3.0803 H   0  0  0  0  0  0  0  0  0  0  0  0
    2.3971   11.8712   -4.0917 H   0  0  0  0  0  0  0  0  0  0  0  0
    3.7328   13.0722   -4.0917 H   0  0  0  0  0  0  0  0  0  0  0  0
    4.0517   13.0719   -0.7745 H   0  0  0  0  0  0  0  0  0  0  0  0
    4.3663   14.1476   -2.2505 H   0  0  0  0  0  0  0  0  0  0  0  0
    2.6644   14.7864    0.1737 H   0  0  0  0  0  0  0  0  0  0  0  0
    4.2087   15.5613   -0.3579 H   0  0  0  0  0  0  0  0  0  0  0  0
    4.3492   16.9488   -2.3271 H   0  0  0  0  0  0  0  0  0  0  0  0
    3.6852   15.6337   -3.3548 H   0  0  0  0  0  0  0  0  0  0  0  0
    2.9077   17.2530   -3.3548 H   0  0  0  0  0  0  0  0  0  0  0  0
  1  2  1  0
  2  3  1  0
  3  4  1  0
  4  5  1  0
  5  6  1  0
  6  7  1  0
  7  8  1  0
  7  9  1  0
  2 10  1  0
 10 11  1  0
 11 12  1  0
 12 13  1  0
 13 14  1  1
 13 15  1  0
 15 16  1  0
 16 17  1  0
 17 18  2  0
 18 19  1  0
 19 20  1  0
 20 21  1  0
 21 22  1  0
 22 23  1  0
 22 24  1  0
 24 25  1  0
 24 26  1  0
 19 27  1  0
 27 28  1  6
 27 29  1  0
 29 30  1  0
 30 31  1  0
 31 32  1  6
  7  5  1  0
 31 10  1  0
 31 13  1  0
 27 15  1  0
 24 18  1  0
  1 33  1  0
  1 34  1  0
  1 35  1  0
  2 36  1  6
  3 37  1  0
  3 38  1  0
  4 39  1  0
  4 40  1  0
  5 41  1  6
  8 42  1  0
  8 43  1  0
  8 44  1  0
  9 45  1  0
  9 46  1  0
  9 47  1  0
 10 48  1  1
 11 49  1  0
 11 50  1  0
 12 51  1  0
 12 52  1  0
 14 53  1  0
 14 54  1  0
 14 55  1  0
 15 56  1  6
 16 57  1  0
 16 58  1  0
 17 59  1  0
 19 60  1  1
 20 61  1  0
 20 62  1  0
 21 63  1  0
 21 64  1  0
 22 65  1  1
 23 66  1  0
 25 67  1  0
 25 68  1  0
 25 69  1  0
 26 70  1  0
 26 71  1  0
 26 72  1  0
 28 73  1  0
 28 74  1  0
 28 75  1  0
 29 76  1  0
 29 77  1  0
 30 78  1  0
 30 79  1  0
 32 80  1  0
 32 81  1  0
 32 82  1  0
M  END
>  <meeko>  (2) 
{"is_sidechain": [false], "intermolecular_energy": 2.731, "internal_energy": -0.839}

$$$$
EPH_relaxed_0001_pdb2pqr_Repair_134_r2_0001_out
     RDKit          3D

 82 86  0  0  0  0  0  0  0  0999 V2000
    2.0810   18.4710   -1.9090 C   0  0  0  0  0  0  0  0  0  0  0  0
    1.7830   17.4730   -0.7870 C   0  0  2  0  0  0  0  0  0  0  0  0
    3.0640   17.0140   -0.0620 C   0  0  0  0  0  0  0  0  0  0  0  0
    4.0140   18.1610    0.2950 C   0  0  0  0  0  0  0  0  0  0  0  0
    3.7180   18.7220    1.6530 C   0  0  2  0  0  0  0  0  0  0  0  0
    4.0710   20.1020    1.8200 O   0  0  0  0  0  0  0  0  0  0  0  0
    4.7940   19.1600    2.6290 C   0  0  0  0  0  0  0  0  0  0  0  0
    6.2470   19.0550    2.2880 C   0  0  0  0  0  0  0  0  0  0  0  0
    4.4530   19.2300    4.0850 C   0  0  0  0  0  0  0  0  0  0  0  0
    1.0410   16.2650   -1.3490 C   0  0  1  0  0  0  0  0  0  0  0  0
    0.5200   16.5020   -2.7910 C   0  0  0  0  0  0  0  0  0  0  0  0
    0.6240   15.1450   -3.5330 C   0  0  0  0  0  0  0  0  0  0  0  0
    0.8830   14.1080   -2.4150 C   0  0  1  0  0  0  0  0  0  0  0  0
   -0.5250   13.8120   -1.8090 C   0  0  0  0  0  0  0  0  0  0  0  0
    1.6140   12.7950   -2.8460 C   0  0  2  0  0  0  0  0  0  0  0  0
    0.8550   11.9320   -3.8700 C   0  0  0  0  0  0  0  0  0  0  0  0
   -0.0530   10.9020   -3.2860 C   0  0  0  0  0  0  0  0  0  0  0  0
   -0.0420   10.4840   -2.0060 C   0  0  0  0  0  0  0  0  0  0  0  0
    1.0190   10.9910   -1.0210 C   0  0  1  0  0  0  0  0  0  0  0  0
    1.6030    9.7930   -0.2270 C   0  0  0  0  0  0  0  0  0  0  0  0
    0.5230    8.9610    0.4560 C   0  0  0  0  0  0  0  0  0  0  0  0
   -0.4800    8.4260   -0.5630 C   0  0  2  0  0  0  0  0  0  0  0  0
    0.1820    7.4830   -1.4110 O   0  0  0  0  0  0  0  0  0  0  0  0
   -1.1280    9.5430   -1.4290 C   0  0  0  0  0  0  0  0  0  0  0  0
   -2.0890   10.3870   -0.5560 C   0  0  0  0  0  0  0  0  0  0  0  0
   -2.0100    8.8580   -2.5080 C   0  0  0  0  0  0  0  0  0  0  0  0
    2.1480   11.9240   -1.6380 C   0  0  1  0  0  0  0  0  0  0  0  0
    3.3120   11.0510   -2.1990 C   0  0  0  0  0  0  0  0  0  0  0  0
    2.7680   12.8070   -0.4920 C   0  0  0  0  0  0  0  0  0  0  0  0
    2.0710   14.1480   -0.1940 C   0  0  0  0  0  0  0  0  0  0  0  0
    1.8350   14.9420   -1.4820 C   0  0  2  0  0  0  0  0  0  0  0  0
    3.2350   15.2740   -2.1030 C   0  0  0  0  0  0  0  0  0  0  0  0
    2.3698   19.4383   -1.4722 H   0  0  0  0  0  0  0  0  0  0  0  0
    2.9042   18.0889   -2.5305 H   0  0  0  0  0  0  0  0  0  0  0  0
    1.1830   18.6029   -2.5305 H   0  0  0  0  0  0  0  0  0  0  0  0
    1.1513   17.9863   -0.0471 H   0  0  0  0  0  0  0  0  0  0  0  0
    2.7728   16.5023    0.8672 H   0  0  0  0  0  0  0  0  0  0  0  0
    3.6052   16.3519   -0.7539 H   0  0  0  0  0  0  0  0  0  0  0  0
    5.0477   17.7852    0.2818 H   0  0  0  0  0  0  0  0  0  0  0  0
    3.8774   18.9631   -0.4452 H   0  0  0  0  0  0  0  0  0  0  0  0
    2.8468   18.0595    1.7636 H   0  0  0  0  0  0  0  0  0  0  0  0
    6.8388   19.0122    3.2142 H   0  0  0  0  0  0  0  0  0  0  0  0
    6.4205   18.1420    1.6995 H   0  0  0  0  0  0  0  0  0  0  0  0
    6.5499   19.9336    1.6995 H   0  0  0  0  0  0  0  0  0  0  0  0
    5.3575   19.0443    4.6828 H   0  0  0  0  0  0  0  0  0  0  0  0
    4.0561   20.2284    4.3210 H   0  0  0  0  0  0  0  0  0  0  0  0
    3.6948   18.4688    4.3210 H   0  0  0  0  0  0  0  0  0  0  0  0
    0.2571   16.1579   -0.5848 H   0  0  0  0  0  0  0  0  0  0  0  0
   -0.5264   16.8402   -2.7649 H   0  0  0  0  0  0  0  0  0  0  0  0
    1.1100   17.2774   -3.3015 H   0  0  0  0  0  0  0  0  0  0  0  0
   -0.3133   14.9192   -4.0626 H   0  0  0  0  0  0  0  0  0  0  0  0
    1.4184   15.1454   -4.2939 H   0  0  0  0  0  0  0  0  0  0  0  0
   -0.4617   13.8253   -0.7109 H   0  0  0  0  0  0  0  0  0  0  0  0
   -1.2374   14.5800   -2.1446 H   0  0  0  0  0  0  0  0  0  0  0  0
   -0.8679   12.8221   -2.1446 H   0  0  0  0  0  0  0  0  0  0  0  0
    2.4976   13.1797   -3.3763 H   0  0  0  0  0  0  0  0  0  0  0  0
    0.2495   12.6026   -4.4975 H   0  0  0  0  0  0  0  0  0  0  0  0
    1.6228   11.3786   -4.4306 H   0  0  0  0  0  0  0  0  0  0  0  0
   -0.7944   10.4453   -3.9582 H   0  0  0  0  0  0  0  0  0  0  0  0
    0.4961   11.6734   -0.3348 H   0  0  0  0  0  0  0  0  0  0  0  0
    2.1588    9.1467   -0.9223 H   0  0  0  0  0  0  0  0  0  0  0  0
    2.2568   10.2003    0.5583 H   0  0  0  0  0  0  0  0  0  0  0  0
    0.9955    8.1139    0.9749 H   0  0  0  0  0  0  0  0  0  0  0  0
   -0.0124    9.6011    1.1727 H   0  0  0  0  0  0  0  0  0  0  0  0
   -1.2976    7.9495   -0.0021 H   0  0  0  0  0  0  0  0  0  0  0  0
    0.7540    6.9330   -0.8490 H   0  0  0  0  0  0  0  0  0  0  0  0
   -1.8772   10.2010    0.5073 H   0  0  0  0  0  0  0  0  0  0  0  0
   -1.9435   11.4546   -0.7776 H   0  0  0  0  0  0  0  0  0  0  0  0
   -3.1289   10.1049   -0.7776 H   0  0  0  0  0  0  0  0  0  0  0  0
   -2.7874    8.2542   -2.0169 H   0  0  0  0  0  0  0  0  0  0  0  0
   -2.4846    9.6266   -3.1357 H   0  0  0  0  0  0  0  0  0  0  0  0
   -1.3828    8.2079   -3.1357 H   0  0  0  0  0  0  0  0  0  0  0  0
    3.8842   10.6219   -1.3633 H   0  0  0  0  0  0  0  0  0  0  0  0
    2.8976   10.2391   -2.8147 H   0  0  0  0  0  0  0  0  0  0  0  0
    3.9753   11.6762   -2.8147 H   0  0  0  0  0  0  0  0  0  0  0  0
    2.7524   12.2112    0.4325 H   0  0  0  0  0  0  0  0  0  0  0  0
    3.7726   13.0779   -0.8490 H   0  0  0  0  0  0  0  0  0  0  0  0
    1.1028   13.9506    0.2894 H   0  0  0  0  0  0  0  0  0  0  0  0
    2.7191   14.7401    0.4689 H   0  0  0  0  0  0  0  0  0  0  0  0
    3.9624   15.4465   -1.2961 H   0  0  0  0  0  0  0  0  0  0  0  0
    3.5699   14.4304   -2.7244 H   0  0  0  0  0  0  0  0  0  0  0  0
    3.1554   16.1782   -2.7244 H   0  0  0  0  0  0  0  0  0  0  0  0
  1  2  1  0
  2  3  1  0
  3  4  1  0
  4  5  1  0
  5  6  1  0
  6  7  1  0
  7  8  1  0
  7  9  1  0
  2 10  1  0
 10 11  1  0
 11 12  1  0
 12 13  1  0
 13 14  1  1
 13 15  1  0
 15 16  1  0
 16 17  1  0
 17 18  2  0
 18 19  1  0
 19 20  1  0
 20 21  1  0
 21 22  1  0
 22 23  1  0
 22 24  1  0
 24 25  1  0
 24 26  1  0
 19 27  1  0
 27 28  1  6
 27 29  1  0
 29 30  1  0
 30 31  1  0
 31 32  1  6
  7  5  1  0
 31 10  1  0
 31 13  1  0
 27 15  1  0
 24 18  1  0
  1 33  1  0
  1 34  1  0
  1 35  1  0
  2 36  1  1
  3 37  1  0
  3 38  1  0
  4 39  1  0
  4 40  1  0
  5 41  1  1
  8 42  1  0
  8 43  1  0
  8 44  1  0
  9 45  1  0
  9 46  1  0
  9 47  1  0
 10 48  1  1
 11 49  1  0
 11 50  1  0
 12 51  1  0
 12 52  1  0
 14 53  1  0
 14 54  1  0
 14 55  1  0
 15 56  1  6
 16 57  1  0
 16 58  1  0
 17 59  1  0
 19 60  1  1
 20 61  1  0
 20 62  1  0
 21 63  1  0
 21 64  1  0
 22 65  1  1
 23 66  1  0
 25 67  1  0
 25 68  1  0
 25 69  1  0
 26 70  1  0
 26 71  1  0
 26 72  1  0
 28 73  1  0
 28 74  1  0
 28 75  1  0
 29 76  1  0
 29 77  1  0
 30 78  1  0
 30 79  1  0
 32 80  1  0
 32 81  1  0
 32 82  1  0
M  END
>  <meeko>  (3) 
{"is_sidechain": [false], "intermolecular_energy": 2.731, "internal_energy": -0.839}

$$$$
EPH_relaxed_0001_pdb2pqr_Repair_134_r2_0001_out
     RDKit          3D

 82 86  0  0  0  0  0  0  0  0999 V2000
   -1.1340    8.7980   -1.9070 C   0  0  0  0  0  0  0  0  0  0  0  0
   -1.5550    9.1830   -0.4860 C   0  0  2  0  0  0  0  0  0  0  0  0
   -3.0840    9.3340   -0.3550 C   0  0  0  0  0  0  0  0  0  0  0  0
   -3.8760    8.4160   -1.2890 C   0  0  0  0  0  0  0  0  0  0  0  0
   -5.2200    8.0730   -0.7220 C   0  0  2  0  0  0  0  0  0  0  0  0
   -5.4460    6.6720   -0.5230 O   0  0  0  0  0  0  0  0  0  0  0  0
   -6.2860    7.3180   -1.4930 C   0  0  0  0  0  0  0  0  0  0  0  0
   -6.0550    6.8600   -2.8990 C   0  0  0  0  0  0  0  0  0  0  0  0
   -7.7130    7.4530   -1.0610 C   0  0  0  0  0  0  0  0  0  0  0  0
   -0.8660   10.4790   -0.0740 C   0  0  1  0  0  0  0  0  0  0  0  0
    0.0810   10.2910    1.1420 C   0  0  0  0  0  0  0  0  0  0  0  0
    1.2810   11.2480    0.9260 C   0  0  0  0  0  0  0  0  0  0  0  0
    0.8310   12.1860   -0.2190 C   0  0  1  0  0  0  0  0  0  0  0  0
   -0.0650   13.2610    0.4720 C   0  0  0  0  0  0  0  0  0  0  0  0
    1.9720   12.8410   -1.0640 C   0  0  2  0  0  0  0  0  0  0  0  0
    2.9110   13.7740   -0.2800 C   0  0  0  0  0  0  0  0  0  0  0  0
    2.4990   15.2080   -0.2420 C   0  0  0  0  0  0  0  0  0  0  0  0
    1.5810   15.7800   -1.0430 C   0  0  0  0  0  0  0  0  0  0  0  0
    0.9210   14.9850   -2.1770 C   0  0  1  0  0  0  0  0  0  0  0  0
    0.9250   15.8340   -3.4750 C   0  0  0  0  0  0  0  0  0  0  0  0
    0.2900   17.2070   -3.2790 C   0  0  0  0  0  0  0  0  0  0  0  0
    1.0100   17.9900   -2.1830 C   0  0  2  0  0  0  0  0  0  0  0  0
    2.3350   18.2950   -2.6300 O   0  0  0  0  0  0  0  0  0  0  0  0
    1.0770   17.2290   -0.8300 C   0  0  0  0  0  0  0  0  0  0  0  0
   -0.3360   17.1640   -0.1990 C   0  0  0  0  0  0  0  0  0  0  0  0
    1.9490   18.0650    0.1450 C   0  0  0  0  0  0  0  0  0  0  0  0
    1.4780   13.5140   -2.4080 C   0  0  1  0  0  0  0  0  0  0  0  0
    2.7090   13.5550   -3.3640 C   0  0  0  0  0  0  0  0  0  0  0  0
    0.3770   12.6570   -3.1370 C   0  0  0  0  0  0  0  0  0  0  0  0
   -0.6500   11.9370   -2.2420 C   0  0  0  0  0  0  0  0  0  0  0  0
    0.0490   11.1630   -1.1200 C   0  0  2  0  0  0  0  0  0  0  0  0
    0.9400   10.0590   -1.7840 C   0  0  0  0  0  0  0  0  0  0  0  0
   -0.3230    8.0563   -1.8609 H   0  0  0  0  0  0  0  0  0  0  0  0
   -1.9944    8.3678   -2.4405 H   0  0  0  0  0  0  0  0  0  0  0  0
   -0.7822    9.6933   -2.4405 H   0  0  0  0  0  0  0  0  0  0  0  0
   -1.2452    8.3677    0.1844 H   0  0  0  0  0  0  0  0  0  0  0  0
   -3.3681    9.1025    0.6822 H   0  0  0  0  0  0  0  0  0  0  0  0
   -3.3298   10.3684   -0.6371 H   0  0  0  0  0  0  0  0  0  0  0  0
   -4.0158    8.9247   -2.2543 H   0  0  0  0  0  0  0  0  0  0  0  0
   -3.3084    7.4820   -1.4136 H   0  0  0  0  0  0  0  0  0  0  0  0
   -5.2475    9.0160   -0.1563 H   0  0  0  0  0  0  0  0  0  0  0  0
   -5.5597    5.8779   -2.8880 H   0  0  0  0  0  0  0  0  0  0  0  0
   -7.0197    6.7783   -3.4212 H   0  0  0  0  0  0  0  0  0  0  0  0
   -5.4159    7.5872   -3.4212 H   0  0  0  0  0  0  0  0  0  0  0  0
   -7.7646    7.4579    0.0378 H   0  0  0  0  0  0  0  0  0  0  0  0
   -8.1269    8.3943   -1.4517 H   0  0  0  0  0  0  0  0  0  0  0  0
   -8.2961    6.6060   -1.4517 H   0  0  0  0  0  0  0  0  0  0  0  0
   -1.7503   11.1045    0.1178 H   0  0  0  0  0  0  0  0  0  0  0  0
   -0.4442   10.5463    2.0742 H   0  0  0  0  0  0  0  0  0  0  0  0
    0.4178    9.2470    1.2227 H   0  0  0  0  0  0  0  0  0  0  0  0
    1.4884   11.8232    1.8404 H   0  0  0  0  0  0  0  0  0  0  0  0
    2.2073   10.7071    0.6824 H   0  0  0  0  0  0  0  0  0  0  0  0
    0.0185   13.1608    1.5642 H   0  0  0  0  0  0  0  0  0  0  0  0
    0.2674   14.2649    0.1694 H   0  0  0  0  0  0  0  0  0  0  0  0
   -1.1124   13.1149    0.1694 H   0  0  0  0  0  0  0  0  0  0  0  0
    2.5838   11.9722   -1.3483 H   0  0  0  0  0  0  0  0  0  0  0  0
    2.9659   13.4086    0.7561 H   0  0  0  0  0  0  0  0  0  0  0  0
    3.8757   13.7485   -0.8079 H   0  0  0  0  0  0  0  0  0  0  0  0
    2.9871   15.8522    0.5041 H   0  0  0  0  0  0  0  0  0  0  0  0
   -0.1145   14.7995   -1.8557 H   0  0  0  0  0  0  0  0  0  0  0  0
    1.9659   15.9707   -3.8035 H   0  0  0  0  0  0  0  0  0  0  0  0
    0.3299   15.2957   -4.2274 H   0  0  0  0  0  0  0  0  0  0  0  0
    0.3505   17.7696   -4.2223 H   0  0  0  0  0  0  0  0  0  0  0  0
   -0.7596   17.0690   -2.9801 H   0  0  0  0  0  0  0  0  0  0  0  0
    0.4318   18.9074   -1.9981 H   0  0  0  0  0  0  0  0  0  0  0  0
    2.3920   18.0500   -3.5690 H   0  0  0  0  0  0  0  0  0  0  0  0
   -0.2484   17.1680    0.8975 H   0  0  0  0  0  0  0  0  0  0  0  0
   -0.9228   18.0361   -0.5232 H   0  0  0  0  0  0  0  0  0  0  0  0
   -0.8403   16.2417   -0.5232 H   0  0  0  0  0  0  0  0  0  0  0  0
    1.6848   17.8117    1.1823 H   0  0  0  0  0  0  0  0  0  0  0  0
    3.0116   17.8395   -0.0282 H   0  0  0  0  0  0  0  0  0  0  0  0
    1.7685   19.1362   -0.0282 H   0  0  0  0  0  0  0  0  0  0  0  0
    3.6340   13.5858   -2.7696 H   0  0  0  0  0  0  0  0  0  0  0  0
    2.7106   12.6564   -3.9985 H   0  0  0  0  0  0  0  0  0  0  0  0
    2.6508   14.4517   -3.9985 H   0  0  0  0  0  0  0  0  0  0  0  0
   -0.1791   13.3299   -3.8063 H   0  0  0  0  0  0  0  0  0  0  0  0
    0.9289   11.8527   -3.6455 H   0  0  0  0  0  0  0  0  0  0  0  0
   -1.3259   12.6827   -1.7980 H   0  0  0  0  0  0  0  0  0  0  0  0
   -1.2160   11.2246   -2.8602 H   0  0  0  0  0  0  0  0  0  0  0  0
    1.4247    9.4585   -1.0001 H   0  0  0  0  0  0  0  0  0  0  0  0
    0.3116    9.4076   -2.4091 H   0  0  0  0  0  0  0  0  0  0  0  0
    1.7094   10.5357   -2.4091 H   0  0  0  0  0  0  0  0  0  0  0  0
  1  2  1  0
  2  3  1  0
  3  4  1  0
  4  5  1  0
  5  6  1  0
  6  7  1  0
  7  8  1  0
  7  9  1  0
  2 10  1  0
 10 11  1  0
 11 12  1  0
 12 13  1  0
 13 14  1  1
 13 15  1  0
 15 16  1  0
 16 17  1  0
 17 18  2  0
 18 19  1  0
 19 20  1  0
 20 21  1  0
 21 22  1  0
 22 23  1  0
 22 24  1  0
 24 25  1  0
 24 26  1  0
 19 27  1  0
 27 28  1  6
 27 29  1  0
 29 30  1  0
 30 31  1  0
 31 32  1  6
  7  5  1  0
 31 10  1  0
 31 13  1  0
 27 15  1  0
 24 18  1  0
  1 33  1  0
  1 34  1  0
  1 35  1  0
  2 36  1  1
  3 37  1  0
  3 38  1  0
  4 39  1  0
  4 40  1  0
  5 41  1  1
  8 42  1  0
  8 43  1  0
  8 44  1  0
  9 45  1  0
  9 46  1  0
  9 47  1  0
 10 48  1  1
 11 49  1  0
 11 50  1  0
 12 51  1  0
 12 52  1  0
 14 53  1  0
 14 54  1  0
 14 55  1  0
 15 56  1  6
 16 57  1  0
 16 58  1  0
 17 59  1  0
 19 60  1  1
 20 61  1  0
 20 62  1  0
 21 63  1  0
 21 64  1  0
 22 65  1  1
 23 66  1  0
 25 67  1  0
 25 68  1  0
 25 69  1  0
 26 70  1  0
 26 71  1  0
 26 72  1  0
 28 73  1  0
 28 74  1  0
 28 75  1  0
 29 76  1  0
 29 77  1  0
 30 78  1  0
 30 79  1  0
 32 80  1  0
 32 81  1  0
 32 82  1  0
M  END
>  <meeko>  (4) 
{"is_sidechain": [false], "intermolecular_energy": 2.731, "internal_energy": -0.839}

$$$$
EPH_relaxed_0001_pdb2pqr_Repair_134_r2_0001_out
     RDKit          3D

 82 86  0  0  0  0  0  0  0  0999 V2000
    2.4780   17.0670   -0.0480 C   0  0  0  0  0  0  0  0  0  0  0  0
    2.2530   17.0580   -1.5630 C   0  0  2  0  0  0  0  0  0  0  0  0
    1.6010   18.3640   -2.0610 C   0  0  0  0  0  0  0  0  0  0  0  0
    0.0800   18.2760   -2.2060 C   0  0  0  0  0  0  0  0  0  0  0  0
   -0.6120   19.3870   -1.4760 C   0  0  2  0  0  0  0  0  0  0  0  0
   -0.0110   19.7460   -0.2240 O   0  0  0  0  0  0  0  0  0  0  0  0
   -1.3370   19.1970   -0.1570 C   0  0  0  0  0  0  0  0  0  0  0  0
   -1.4090   17.8580    0.5080 C   0  0  0  0  0  0  0  0  0  0  0  0
   -2.3830   20.1940    0.2350 C   0  0  0  0  0  0  0  0  0  0  0  0
    1.3890   15.8640   -1.9530 C   0  0  1  0  0  0  0  0  0  0  0  0
    0.7810   16.0050   -3.3740 C   0  0  0  0  0  0  0  0  0  0  0  0
    0.7360   14.5800   -3.9840 C   0  0  0  0  0  0  0  0  0  0  0  0
    1.0030   13.6350   -2.7890 C   0  0  1  0  0  0  0  0  0  0  0  0
   -0.3730   13.5050   -2.0650 C   0  0  0  0  0  0  0  0  0  0  0  0
    1.6070   12.2360   -3.1370 C   0  0  2  0  0  0  0  0  0  0  0  0
    0.7170   11.3420   -4.0180 C   0  0  0  0  0  0  0  0  0  0  0  0
   -0.2150   10.4420   -3.2770 C   0  0  0  0  0  0  0  0  0  0  0  0
   -0.1390   10.1460   -1.9660 C   0  0  0  0  0  0  0  0  0  0  0  0
    1.0240   10.6600   -1.1080 C   0  0  1  0  0  0  0  0  0  0  0  0
    1.5810    9.5000   -0.2420 C   0  0  0  0  0  0  0  0  0  0  0  0
    0.4990    8.8200    0.5910 C   0  0  0  0  0  0  0  0  0  0  0  0
   -0.6120    8.2710   -0.3020 C   0  0  2  0  0  0  0  0  0  0  0  0
   -0.0800    7.2050   -1.0950 O   0  0  0  0  0  0  0  0  0  0  0  0
   -1.2420    9.3480   -1.2280 C   0  0  0  0  0  0  0  0  0  0  0  0
   -2.0750   10.3410   -0.3800 C   0  0  0  0  0  0  0  0  0  0  0  0
   -2.2470    8.6360   -2.1730 C   0  0  0  0  0  0  0  0  0  0  0  0
    2.1670   11.4420   -1.8880 C   0  0  1  0  0  0  0  0  0  0  0  0
    3.2230   10.4350   -2.4370 C   0  0  0  0  0  0  0  0  0  0  0  0
    2.9300   12.3790   -0.8780 C   0  0  0  0  0  0  0  0  0  0  0  0
    2.3520   13.7910   -0.6670 C   0  0  0  0  0  0  0  0  0  0  0  0
    2.0780   14.4770   -2.0090 C   0  0  2  0  0  0  0  0  0  0  0  0
    3.4470   14.6420   -2.7510 C   0  0  0  0  0  0  0  0  0  0  0  0
    1.5069   17.0282    0.4671 H   0  0  0  0  0  0  0  0  0  0  0  0
    3.0803   16.1922    0.2384 H   0  0  0  0  0  0  0  0  0  0  0  0
    3.0085   17.9871    0.2384 H   0  0  0  0  0  0  0  0  0  0  0  0
    3.2392   16.9767   -2.0434 H   0  0  0  0  0  0  0  0  0  0  0  0
    1.8358   19.1646   -1.3442 H   0  0  0  0  0  0  0  0  0  0  0  0
    2.0083   18.5649   -3.0629 H   0  0  0  0  0  0  0  0  0  0  0  0
   -0.1803   18.3343   -3.2732 H   0  0  0  0  0  0  0  0  0  0  0  0
   -0.2511   17.3215   -1.7709 H   0  0  0  0  0  0  0  0  0  0  0  0
   -0.9165   19.8529   -2.4248 H   0  0  0  0  0  0  0  0  0  0  0  0
   -1.4019   17.9901    1.6000 H   0  0  0  0  0  0  0  0  0  0  0  0
   -2.3359   17.3482    0.2064 H   0  0  0  0  0  0  0  0  0  0  0  0
   -0.5422   17.2517    0.2064 H   0  0  0  0  0  0  0  0  0  0  0  0
   -2.4426   20.2508    1.3319 H   0  0  0  0  0  0  0  0  0  0  0  0
   -2.1178   21.1820   -0.1695 H   0  0  0  0  0  0  0  0  0  0  0  0
   -3.3571   19.8817   -0.1695 H   0  0  0  0  0  0  0  0  0  0  0  0
    0.6577   15.8887   -1.1316 H   0  0  0  0  0  0  0  0  0  0  0  0
   -0.2347   16.4228   -3.3118 H   0  0  0  0  0  0  0  0  0  0  0  0
    1.3839   16.6825   -3.9964 H   0  0  0  0  0  0  0  0  0  0  0  0
   -0.2508   14.3778   -4.4259 H   0  0  0  0  0  0  0  0  0  0  0  0
    1.4711   14.4488   -4.7917 H   0  0  0  0  0  0  0  0  0  0  0  0
   -0.2173   13.5197   -0.9762 H   0  0  0  0  0  0  0  0  0  0  0  0
   -1.0204   14.3460   -2.3542 H   0  0  0  0  0  0  0  0  0  0  0  0
   -0.8514   12.5577   -2.3542 H   0  0  0  0  0  0  0  0  0  0  0  0
    2.4735   12.5023   -3.7601 H   0  0  0  0  0  0  0  0  0  0  0  0
    0.1148   11.9955   -4.6663 H   0  0  0  0  0  0  0  0  0  0  0  0
    1.4015   10.6822   -4.5712 H   0  0  0  0  0  0  0  0  0  0  0  0
   -1.0330    9.9817   -3.8506 H   0  0  0  0  0  0  0  0  0  0  0  0
    0.6013   11.4406   -0.4584 H   0  0  0  0  0  0  0  0  0  0  0  0
    2.0370    8.7514   -0.9066 H   0  0  0  0  0  0  0  0  0  0  0  0
    2.3187    9.9270    0.4534 H   0  0  0  0  0  0  0  0  0  0  0  0
    0.9484    7.9911    1.1575 H   0  0  0  0  0  0  0  0  0  0  0  0
    0.0644    9.5626    1.2763 H   0  0  0  0  0  0  0  0  0  0  0  0
   -1.4183    7.9133    0.3553 H   0  0  0  0  0  0  0  0  0  0  0  0
   -0.4320    7.3050   -1.9960 H   0  0  0  0  0  0  0  0  0  0  0  0
   -1.9073   10.1411    0.6886 H   0  0  0  0  0  0  0  0  0  0  0  0
   -1.7666   11.3708   -0.6132 H   0  0  0  0  0  0  0  0  0  0  0  0
   -3.1428   10.2164   -0.6132 H   0  0  0  0  0  0  0  0  0  0  0  0
   -2.9995    8.1029   -1.5734 H   0  0  0  0  0  0  0  0  0  0  0  0
   -2.7460    9.3832   -2.8076 H   0  0  0  0  0  0  0  0  0  0  0  0
   -1.7076    7.9174   -2.8076 H   0  0  0  0  0  0  0  0  0  0  0  0
    3.7357    9.9461   -1.5955 H   0  0  0  0  0  0  0  0  0  0  0  0
    2.7194    9.6742   -3.0515 H   0  0  0  0  0  0  0  0  0  0  0  0
    3.9590   10.9742   -3.0515 H   0  0  0  0  0  0  0  0  0  0  0  0
    2.9416   11.8748    0.0996 H   0  0  0  0  0  0  0  0  0  0  0  0
    3.9215   12.5384   -1.3268 H   0  0  0  0  0  0  0  0  0  0  0  0
    1.4106   13.7140   -0.1033 H   0  0  0  0  0  0  0  0  0  0  0  0
    3.0863   14.3911   -0.1096 H   0  0  0  0  0  0  0  0  0  0  0  0
    4.2555   14.7394   -2.0115 H   0  0  0  0  0  0  0  0  0  0  0  0
    3.6311   13.7595   -3.3814 H   0  0  0  0  0  0  0  0  0  0  0  0
    3.4161   15.5429   -3.3814 H   0  0  0  0  0  0  0  0  0  0  0  0
  1  2  1  0
  2  3  1  0
  3  4  1  0
  4  5  1  0
  5  6  1  0
  6  7  1  0
  7  8  1  0
  7  9  1  0
  2 10  1  0
 10 11  1  0
 11 12  1  0
 12 13  1  0
 13 14  1  1
 13 15  1  0
 15 16  1  0
 16 17  1  0
 17 18  2  0
 18 19  1  0
 19 20  1  0
 20 21  1  0
 21 22  1  0
 22 23  1  0
 22 24  1  0
 24 25  1  0
 24 26  1  0
 19 27  1  0
 27 28  1  6
 27 29  1  0
 29 30  1  0
 30 31  1  0
 31 32  1  6
  7  5  1  0
 31 10  1  0
 31 13  1  0
 27 15  1  0
 24 18  1  0
  1 33  1  0
  1 34  1  0
  1 35  1  0
  2 36  1  6
  3 37  1  0
  3 38  1  0
  4 39  1  0
  4 40  1  0
  5 41  1  6
  8 42  1  0
  8 43  1  0
  8 44  1  0
  9 45  1  0
  9 46  1  0
  9 47  1  0
 10 48  1  1
 11 49  1  0
 11 50  1  0
 12 51  1  0
 12 52  1  0
 14 53  1  0
 14 54  1  0
 14 55  1  0
 15 56  1  6
 16 57  1  0
 16 58  1  0
 17 59  1  0
 19 60  1  1
 20 61  1  0
 20 62  1  0
 21 63  1  0
 21 64  1  0
 22 65  1  1
 23 66  1  0
 25 67  1  0
 25 68  1  0
 25 69  1  0
 26 70  1  0
 26 71  1  0
 26 72  1  0
 28 73  1  0
 28 74  1  0
 28 75  1  0
 29 76  1  0
 29 77  1  0
 30 78  1  0
 30 79  1  0
 32 80  1  0
 32 81  1  0
 32 82  1  0
M  END
>  <meeko>  (5) 
{"is_sidechain": [false], "intermolecular_energy": 2.731, "internal_energy": -0.839}

$$$$
EPH_relaxed_0001_pdb2pqr_Repair_134_r2_0001_out
     RDKit          3D

 82 86  0  0  0  0  0  0  0  0999 V2000
   -0.6410    7.8670   -0.6070 C   0  0  0  0  0  0  0  0  0  0  0  0
   -1.0640    9.2250   -0.0410 C   0  0  2  0  0  0  0  0  0  0  0  0
   -2.3310    9.7720   -0.7290 C   0  0  0  0  0  0  0  0  0  0  0  0
   -3.6360    9.2970   -0.0840 C   0  0  0  0  0  0  0  0  0  0  0  0
   -4.0270    7.9330   -0.5650 C   0  0  2  0  0  0  0  0  0  0  0  0
   -4.1320    7.8070   -1.9890 O   0  0  0  0  0  0  0  0  0  0  0  0
   -5.3500    7.6330   -1.2460 C   0  0  0  0  0  0  0  0  0  0  0  0
   -6.3660    8.7060   -1.4830 C   0  0  0  0  0  0  0  0  0  0  0  0
   -5.8560    6.2240   -1.2380 C   0  0  0  0  0  0  0  0  0  0  0  0
    0.0780   10.2250   -0.1800 C   0  0  1  0  0  0  0  0  0  0  0  0
    1.4710    9.5410   -0.2040 C   0  0  0  0  0  0  0  0  0  0  0  0
    2.3590   10.3700   -1.1660 C   0  0  0  0  0  0  0  0  0  0  0  0
    1.5650   11.6760   -1.4030 C   0  0  1  0  0  0  0  0  0  0  0  0
    1.8710   12.5630   -0.1550 C   0  0  0  0  0  0  0  0  0  0  0  0
    1.8640   12.4350   -2.7370 C   0  0  2  0  0  0  0  0  0  0  0  0
    3.3080   12.9450   -2.8880 C   0  0  0  0  0  0  0  0  0  0  0  0
    3.5540   14.3250   -2.3760 C   0  0  0  0  0  0  0  0  0  0  0  0
    2.6030   15.2300   -2.0780 C   0  0  0  0  0  0  0  0  0  0  0  0
    1.1220   14.9320   -2.3430 C   0  0  1  0  0  0  0  0  0  0  0  0
    0.4640   16.1530   -3.0390 C   0  0  0  0  0  0  0  0  0  0  0  0
    0.6690   17.4490   -2.2610 C   0  0  0  0  0  0  0  0  0  0  0  0
    2.1550   17.7410   -2.0690 C   0  0  2  0  0  0  0  0  0  0  0  0
    2.7390   18.0200   -3.3450 O   0  0  0  0  0  0  0  0  0  0  0  0
    2.9240   16.5770   -1.3850 C   0  0  0  0  0  0  0  0  0  0  0  0
    2.4980   16.4730    0.1010 C   0  0  0  0  0  0  0  0  0  0  0  0
    4.4340   16.9410   -1.3790 C   0  0  0  0  0  0  0  0  0  0  0  0
    0.8130   13.5640   -3.0900 C   0  0  1  0  0  0  0  0  0  0  0  0
    0.8850   13.7720   -4.6340 C   0  0  0  0  0  0  0  0  0  0  0  0
   -0.6660   13.1260   -2.7700 C   0  0  0  0  0  0  0  0  0  0  0  0
   -0.8800   12.2770   -1.5020 C   0  0  0  0  0  0  0  0  0  0  0  0
    0.1030   11.1030   -1.4560 C   0  0  2  0  0  0  0  0  0  0  0  0
   -0.1950   10.1810   -2.6880 C   0  0  0  0  0  0  0  0  0  0  0  0
   -0.4256    7.1756    0.2210 H   0  0  0  0  0  0  0  0  0  0  0  0
   -1.4542    7.4577   -1.2244 H   0  0  0  0  0  0  0  0  0  0  0  0
    0.2608    7.9919   -1.2244 H   0  0  0  0  0  0  0  0  0  0  0  0
   -1.3031    9.0800    1.0229 H   0  0  0  0  0  0  0  0  0  0  0  0
   -2.3024   10.8708   -0.6862 H   0  0  0  0  0  0  0  0  0  0  0  0
   -2.3257    9.3917   -1.7611 H   0  0  0  0  0  0  0  0  0  0  0  0
   -3.5035    9.2657    1.0075 H   0  0  0  0  0  0  0  0  0  0  0  0
   -4.4333   10.0012   -0.3641 H   0  0  0  0  0  0  0  0  0  0  0  0
   -3.5097    7.4604    0.2830 H   0  0  0  0  0  0  0  0  0  0  0  0
   -6.7278    9.0881   -0.5171 H   0  0  0  0  0  0  0  0  0  0  0  0
   -5.9063    9.5268   -2.0531 H   0  0  0  0  0  0  0  0  0  0  0  0
   -7.2106    8.2917   -2.0531 H   0  0  0  0  0  0  0  0  0  0  0  0
   -5.9781    5.8841   -0.1990 H   0  0  0  0  0  0  0  0  0  0  0  0
   -6.8262    6.1799   -1.7546 H   0  0  0  0  0  0  0  0  0  0  0  0
   -5.1356    5.5727   -1.7546 H   0  0  0  0  0  0  0  0  0  0  0  0
   -0.1162   10.8509    0.7034 H   0  0  0  0  0  0  0  0  0  0  0  0
    1.9081    9.5360    0.8054 H   0  0  0  0  0  0  0  0  0  0  0  0
    1.3926    8.4965   -0.5399 H   0  0  0  0  0  0  0  0  0  0  0  0
    3.3339   10.5866   -0.7048 H   0  0  0  0  0  0  0  0  0  0  0  0
    2.5706    9.8348   -2.1034 H   0  0  0  0  0  0  0  0  0  0  0  0
    1.6725   11.9877    0.7613 H   0  0  0  0  0  0  0  0  0  0  0  0
    2.9271   12.8702   -0.1735 H   0  0  0  0  0  0  0  0  0  0  0  0
    1.2290   13.4560   -0.1735 H   0  0  0  0  0  0  0  0  0  0  0  0
    1.7465   11.6423   -3.4906 H   0  0  0  0  0  0  0  0  0  0  0  0
    3.9702   12.2569   -2.3420 H   0  0  0  0  0  0  0  0  0  0  0  0
    3.5058   12.9821   -3.9694 H   0  0  0  0  0  0  0  0  0  0  0  0
    4.6012   14.6284   -2.2297 H   0  0  0  0  0  0  0  0  0  0  0  0
    0.6627   14.7730   -1.3562 H   0  0  0  0  0  0  0  0  0  0  0  0
    0.9054   16.2687   -4.0399 H   0  0  0  0  0  0  0  0  0  0  0  0
   -0.6182   15.9635   -3.0938 H   0  0  0  0  0  0  0  0  0  0  0  0
    0.2079   18.2790   -2.8164 H   0  0  0  0  0  0  0  0  0  0  0  0
    0.2015   17.3418   -1.2711 H   0  0  0  0  0  0  0  0  0  0  0  0
    2.2368   18.6082   -1.3973 H   0  0  0  0  0  0  0  0  0  0  0  0
    2.9090   18.9760   -3.3880 H   0  0  0  0  0  0  0  0  0  0  0  0
    3.3635   16.6843    0.7462 H   0  0  0  0  0  0  0  0  0  0  0  0
    1.7010   17.2030    0.3059 H   0  0  0  0  0  0  0  0  0  0  0  0
    2.1270   15.4579    0.3059 H   0  0  0  0  0  0  0  0  0  0  0  0
    4.7866   17.0260   -0.3405 H   0  0  0  0  0  0  0  0  0  0  0  0
    5.0029   16.1543   -1.8961 H   0  0  0  0  0  0  0  0  0  0  0  0
    4.5819   17.9005   -1.8961 H   0  0  0  0  0  0  0  0  0  0  0  0
    1.2378   14.7911   -4.8506 H   0  0  0  0  0  0  0  0  0  0  0  0
    1.5827   13.0420   -5.0702 H   0  0  0  0  0  0  0  0  0  0  0  0
   -0.1147   13.6296   -5.0702 H   0  0  0  0  0  0  0  0  0  0  0  0
   -1.2683   14.0403   -2.6639 H   0  0  0  0  0  0  0  0  0  0  0  0
   -0.9606   12.4744   -3.6059 H   0  0  0  0  0  0  0  0  0  0  0  0
   -0.7268   12.9096   -0.6153 H   0  0  0  0  0  0  0  0  0  0  0  0
   -1.9044   11.8764   -1.5168 H   0  0  0  0  0  0  0  0  0  0  0  0
   -0.5154    9.1896   -2.3351 H   0  0  0  0  0  0  0  0  0  0  0  0
   -0.9940   10.6294   -3.2968 H   0  0  0  0  0  0  0  0  0  0  0  0
    0.7153   10.0769   -3.2968 H   0  0  0  0  0  0  0  0  0  0  0  0
  1  2  1  0
  2  3  1  0
  3  4  1  0
  4  5  1  0
  5  6  1  0
  6  7  1  0
  7  8  1  0
  7  9  1  0
  2 10  1  0
 10 11  1  0
 11 12  1  0
 12 13  1  0
 13 14  1  1
 13 15  1  0
 15 16  1  0
 16 17  1  0
 17 18  2  0
 18 19  1  0
 19 20  1  0
 20 21  1  0
 21 22  1  0
 22 23  1  0
 22 24  1  0
 24 25  1  0
 24 26  1  0
 19 27  1  0
 27 28  1  6
 27 29  1  0
 29 30  1  0
 30 31  1  0
 31 32  1  6
  7  5  1  0
 31 10  1  0
 31 13  1  0
 27 15  1  0
 24 18  1  0
  1 33  1  0
  1 34  1  0
  1 35  1  0
  2 36  1  1
  3 37  1  0
  3 38  1  0
  4 39  1  0
  4 40  1  0
  5 41  1  1
  8 42  1  0
  8 43  1  0
  8 44  1  0
  9 45  1  0
  9 46  1  0
  9 47  1  0
 10 48  1  1
 11 49  1  0
 11 50  1  0
 12 51  1  0
 12 52  1  0
 14 53  1  0
 14 54  1  0
 14 55  1  0
 15 56  1  6
 16 57  1  0
 16 58  1  0
 17 59  1  0
 19 60  1  1
 20 61  1  0
 20 62  1  0
 21 63  1  0
 21 64  1  0
 22 65  1  1
 23 66  1  0
 25 67  1  0
 25 68  1  0
 25 69  1  0
 26 70  1  0
 26 71  1  0
 26 72  1  0
 28 73  1  0
 28 74  1  0
 28 75  1  0
 29 76  1  0
 29 77  1  0
 30 78  1  0
 30 79  1  0
 32 80  1  0
 32 81  1  0
 32 82  1  0
M  END
>  <meeko>  (6) 
{"is_sidechain": [false], "intermolecular_energy": 2.731, "internal_energy": -0.839}

$$$$
EPH_relaxed_0001_pdb2pqr_Repair_134_r2_0001_out
     RDKit          3D

 82 86  0  0  0  0  0  0  0  0999 V2000
    3.6810   17.9240   -1.3380 C   0  0  0  0  0  0  0  0  0  0  0  0
    2.6520   17.4650   -2.3750 C   0  0  2  0  0  0  0  0  0  0  0  0
    1.2320   17.9650   -2.0450 C   0  0  0  0  0  0  0  0  0  0  0  0
    1.1660   18.8530   -0.7990 C   0  0  0  0  0  0  0  0  0  0  0  0
   -0.0850   19.6780   -0.7720 C   0  0  2  0  0  0  0  0  0  0  0  0
   -0.4400   20.1840    0.5210 O   0  0  0  0  0  0  0  0  0  0  0  0
   -1.3570   19.2470   -0.0660 C   0  0  0  0  0  0  0  0  0  0  0  0
   -1.4420   17.9420    0.6610 C   0  0  0  0  0  0  0  0  0  0  0  0
   -2.6550   19.8590   -0.4930 C   0  0  0  0  0  0  0  0  0  0  0  0
    2.6590   15.9450   -2.4760 C   0  0  1  0  0  0  0  0  0  0  0  0
    4.0870   15.3650   -2.6600 C   0  0  0  0  0  0  0  0  0  0  0  0
    4.1220   14.0140   -1.9000 C   0  0  0  0  0  0  0  0  0  0  0  0
    2.6390   13.7020   -1.5900 C   0  0  1  0  0  0  0  0  0  0  0  0
    2.0740   13.0890   -2.9090 C   0  0  0  0  0  0  0  0  0  0  0  0
    2.3710   12.7740   -0.3610 C   0  0  2  0  0  0  0  0  0  0  0  0
    2.9450   11.3510   -0.4790 C   0  0  0  0  0  0  0  0  0  0  0  0
    2.0280   10.3420   -1.0860 C   0  0  0  0  0  0  0  0  0  0  0  0
    0.7010   10.4940   -1.2580 C   0  0  0  0  0  0  0  0  0  0  0  0
   -0.0240   11.7390   -0.7320 C   0  0  1  0  0  0  0  0  0  0  0  0
   -1.3160   11.3110    0.0120 C   0  0  0  0  0  0  0  0  0  0  0  0
   -2.2190   10.4290   -0.8450 C   0  0  0  0  0  0  0  0  0  0  0  0
   -1.4810    9.1730   -1.3000 C   0  0  2  0  0  0  0  0  0  0  0  0
   -1.2060    8.3590   -0.1560 O   0  0  0  0  0  0  0  0  0  0  0  0
   -0.1560    9.4790   -2.0540 C   0  0  0  0  0  0  0  0  0  0  0  0
   -0.4750   10.0940   -3.4390 C   0  0  0  0  0  0  0  0  0  0  0  0
    0.5580    8.1290   -2.3320 C   0  0  0  0  0  0  0  0  0  0  0  0
    0.8620   12.7500    0.1170 C   0  0  1  0  0  0  0  0  0  0  0  0
    0.8760   12.3180    1.6150 C   0  0  0  0  0  0  0  0  0  0  0  0
    0.1980   14.1770    0.0720 C   0  0  0  0  0  0  0  0  0  0  0  0
    0.5950   15.0920   -1.1020 C   0  0  0  0  0  0  0  0  0  0  0  0
    2.1170   15.1490   -1.2630 C   0  0  2  0  0  0  0  0  0  0  0  0
    2.7130   15.7820    0.0410 C   0  0  0  0  0  0  0  0  0  0  0  0
    3.2860   17.7478   -0.3266 H   0  0  0  0  0  0  0  0  0  0  0  0
    4.6140   17.3567   -1.4712 H   0  0  0  0  0  0  0  0  0  0  0  0
    3.8822   18.9972   -1.4712 H   0  0  0  0  0  0  0  0  0  0  0  0
    2.9390   17.9031   -3.3423 H   0  0  0  0  0  0  0  0  0  0  0  0
    0.8591   18.5429   -2.9035 H   0  0  0  0  0  0  0  0  0  0  0  0
    0.6179   17.0759   -1.8390 H   0  0  0  0  0  0  0  0  0  0  0  0
    1.1910   18.2139    0.0960 H   0  0  0  0  0  0  0  0  0  0  0  0
    2.0274   19.5368   -0.8192 H   0  0  0  0  0  0  0  0  0  0  0  0
    0.1051   20.0420   -1.7925 H   0  0  0  0  0  0  0  0  0  0  0  0
   -1.4301   18.1250    1.7456 H   0  0  0  0  0  0  0  0  0  0  0  0
   -2.3755   17.4292    0.3859 H   0  0  0  0  0  0  0  0  0  0  0  0
   -0.5830   17.3124    0.3859 H   0  0  0  0  0  0  0  0  0  0  0  0
   -3.2404   20.1350    0.3965 H   0  0  0  0  0  0  0  0  0  0  0  0
   -2.4561   20.7582   -1.0946 H   0  0  0  0  0  0  0  0  0  0  0  0
   -3.2221   19.1334   -1.0946 H   0  0  0  0  0  0  0  0  0  0  0  0
    1.9907   15.8148   -3.3400 H   0  0  0  0  0  0  0  0  0  0  0  0
    4.2960   15.2044   -3.7280 H   0  0  0  0  0  0  0  0  0  0  0  0
    4.8479   16.0573   -2.2704 H   0  0  0  0  0  0  0  0  0  0  0  0
    4.5613   13.2258   -2.5291 H   0  0  0  0  0  0  0  0  0  0  0  0
    4.7370   14.0635   -0.9893 H   0  0  0  0  0  0  0  0  0  0  0  0
    1.3471   12.3003   -2.6649 H   0  0  0  0  0  0  0  0  0  0  0  0
    1.5779   13.8760   -3.4960 H   0  0  0  0  0  0  0  0  0  0  0  0
    2.8987   12.6586   -3.4960 H   0  0  0  0  0  0  0  0  0  0  0  0
    2.9507   13.2649    0.4346 H   0  0  0  0  0  0  0  0  0  0  0  0
    3.8529   11.4010   -1.0980 H   0  0  0  0  0  0  0  0  0  0  0  0
    3.1319   11.0119    0.5506 H   0  0  0  0  0  0  0  0  0  0  0  0
    2.4738    9.3939   -1.4213 H   0  0  0  0  0  0  0  0  0  0  0  0
   -0.2844   12.3361   -1.6184 H   0  0  0  0  0  0  0  0  0  0  0  0
   -1.0335   10.7528    0.9168 H   0  0  0  0  0  0  0  0  0  0  0  0
   -1.8775   12.2241    0.2588 H   0  0  0  0  0  0  0  0  0  0  0  0
   -3.1000   10.1353   -0.2555 H   0  0  0  0  0  0  0  0  0  0  0  0
   -2.5245   10.9988   -1.7349 H   0  0  0  0  0  0  0  0  0  0  0  0
   -2.1337    8.6483   -2.0132 H   0  0  0  0  0  0  0  0  0  0  0  0
   -1.3560    7.4330   -0.4100 H   0  0  0  0  0  0  0  0  0  0  0  0
   -0.9776   11.0630   -3.3030 H   0  0  0  0  0  0  0  0  0  0  0  0
    0.4603   10.2415   -3.9989 H   0  0  0  0  0  0  0  0  0  0  0  0
   -1.1343    9.4144   -3.9989 H   0  0  0  0  0  0  0  0  0  0  0  0
    0.8135    7.6459   -1.3773 H   0  0  0  0  0  0  0  0  0  0  0  0
   -0.1107    7.4723   -2.9078 H   0  0  0  0  0  0  0  0  0  0  0  0
    1.4772    8.3121   -2.9078 H   0  0  0  0  0  0  0  0  0  0  0  0
    0.8470   13.2123    2.2548 H   0  0  0  0  0  0  0  0  0  0  0  0
   -0.0022   11.6894    1.8235 H   0  0  0  0  0  0  0  0  0  0  0  0
    1.7931   11.7475    1.8235 H   0  0  0  0  0  0  0  0  0  0  0  0
   -0.8920   14.0355    0.0295 H   0  0  0  0  0  0  0  0  0  0  0  0
    0.5617   14.6919    0.9735 H   0  0  0  0  0  0  0  0  0  0  0  0
    0.1496   14.7016   -2.0289 H   0  0  0  0  0  0  0  0  0  0  0  0
    0.2262   16.1075   -0.8952 H   0  0  0  0  0  0  0  0  0  0  0  0
    2.2609   15.3019    0.9214 H   0  0  0  0  0  0  0  0  0  0  0  0
    3.8021   15.6285    0.0584 H   0  0  0  0  0  0  0  0  0  0  0  0
    2.4943   16.8599    0.0584 H   0  0  0  0  0  0  0  0  0  0  0  0
  1  2  1  0
  2  3  1  0
  3  4  1  0
  4  5  1  0
  5  6  1  0
  6  7  1  0
  7  8  1  0
  7  9  1  0
  2 10  1  0
 10 11  1  0
 11 12  1  0
 12 13  1  0
 13 14  1  6
 13 15  1  0
 15 16  1  0
 16 17  1  0
 17 18  2  0
 18 19  1  0
 19 20  1  0
 20 21  1  0
 21 22  1  0
 22 23  1  0
 22 24  1  0
 24 25  1  0
 24 26  1  0
 19 27  1  0
 27 28  1  1
 27 29  1  0
 29 30  1  0
 30 31  1  0
 31 32  1  1
  7  5  1  0
 31 10  1  0
 31 13  1  0
 27 15  1  0
 24 18  1  0
  1 33  1  0
  1 34  1  0
  1 35  1  0
  2 36  1  6
  3 37  1  0
  3 38  1  0
  4 39  1  0
  4 40  1  0
  5 41  1  6
  8 42  1  0
  8 43  1  0
  8 44  1  0
  9 45  1  0
  9 46  1  0
  9 47  1  0
 10 48  1  6
 11 49  1  0
 11 50  1  0
 12 51  1  0
 12 52  1  0
 14 53  1  0
 14 54  1  0
 14 55  1  0
 15 56  1  1
 16 57  1  0
 16 58  1  0
 17 59  1  0
 19 60  1  6
 20 61  1  0
 20 62  1  0
 21 63  1  0
 21 64  1  0
 22 65  1  6
 23 66  1  0
 25 67  1  0
 25 68  1  0
 25 69  1  0
 26 70  1  0
 26 71  1  0
 26 72  1  0
 28 73  1  0
 28 74  1  0
 28 75  1  0
 29 76  1  0
 29 77  1  0
 30 78  1  0
 30 79  1  0
 32 80  1  0
 32 81  1  0
 32 82  1  0
M  END
>  <meeko>  (7) 
{"is_sidechain": [false], "intermolecular_energy": 2.731, "internal_energy": -0.839}

$$$$
EPH_relaxed_0001_pdb2pqr_Repair_134_r2_0001_out
     RDKit          3D

 82 86  0  0  0  0  0  0  0  0999 V2000
    4.0090   18.2050    0.0150 C   0  0  0  0  0  0  0  0  0  0  0  0
    4.0710   16.9740   -0.8940 C   0  0  2  0  0  0  0  0  0  0  0  0
    4.1960   17.3570   -2.3820 C   0  0  0  0  0  0  0  0  0  0  0  0
    5.6370   17.3480   -2.9010 C   0  0  0  0  0  0  0  0  0  0  0  0
    5.9180   16.1350   -3.7350 C   0  0  2  0  0  0  0  0  0  0  0  0
    6.9200   15.2600   -3.2010 O   0  0  0  0  0  0  0  0  0  0  0  0
    7.2360   15.8980   -4.4490 C   0  0  0  0  0  0  0  0  0  0  0  0
    8.3590   16.8840   -4.3620 C   0  0  0  0  0  0  0  0  0  0  0  0
    7.2590   14.9610   -5.6160 C   0  0  0  0  0  0  0  0  0  0  0  0
    2.8350   16.1080   -0.6810 C   0  0  1  0  0  0  0  0  0  0  0  0
    1.5360   16.9450   -0.5360 C   0  0  0  0  0  0  0  0  0  0  0  0
    0.3990   16.1230   -1.1950 C   0  0  0  0  0  0  0  0  0  0  0  0
    1.0020   14.7140   -1.3970 C   0  0  1  0  0  0  0  0  0  0  0  0
    0.8710   14.0180   -0.0060 C   0  0  0  0  0  0  0  0  0  0  0  0
    0.3720   13.8490   -2.5370 C   0  0  2  0  0  0  0  0  0  0  0  0
   -1.1150   13.5010   -2.3450 C   0  0  0  0  0  0  0  0  0  0  0  0
   -1.3830   12.2270   -1.6140 C   0  0  0  0  0  0  0  0  0  0  0  0
   -0.4810   11.2550   -1.3800 C   0  0  0  0  0  0  0  0  0  0  0  0
    0.9380   11.3430   -1.9550 C   0  0  1  0  0  0  0  0  0  0  0  0
    1.3240    9.9810   -2.5900 C   0  0  0  0  0  0  0  0  0  0  0  0
    1.1580    8.8150   -1.6200 C   0  0  0  0  0  0  0  0  0  0  0  0
   -0.2800    8.7260   -1.1160 C   0  0  2  0  0  0  0  0  0  0  0  0
   -1.1320    8.3750   -2.2110 O   0  0  0  0  0  0  0  0  0  0  0  0
   -0.7830   10.0440   -0.4640 C   0  0  0  0  0  0  0  0  0  0  0  0
   -0.0600   10.2650    0.8880 C   0  0  0  0  0  0  0  0  0  0  0  0
   -2.2880    9.8660   -0.1270 C   0  0  0  0  0  0  0  0  0  0  0  0
    1.2190   12.5700   -2.9240 C   0  0  1  0  0  0  0  0  0  0  0  0
    0.8200   12.1970   -4.3850 C   0  0  0  0  0  0  0  0  0  0  0  0
    2.7660   12.8630   -2.9480 C   0  0  0  0  0  0  0  0  0  0  0  0
    3.3100   13.8190   -1.8690 C   0  0  0  0  0  0  0  0  0  0  0  0
    2.4720   15.0990   -1.8000 C   0  0  2  0  0  0  0  0  0  0  0  0
    2.6030   15.8320   -3.1780 C   0  0  0  0  0  0  0  0  0  0  0  0
    4.0251   17.8849    1.0673 H   0  0  0  0  0  0  0  0  0  0  0  0
    4.8757   18.8523   -0.1847 H   0  0  0  0  0  0  0  0  0  0  0  0
    3.0817   18.7619   -0.1847 H   0  0  0  0  0  0  0  0  0  0  0  0
    4.9735   16.4069   -0.6222 H   0  0  0  0  0  0  0  0  0  0  0  0
    3.6086   16.6409   -2.9755 H   0  0  0  0  0  0  0  0  0  0  0  0
    3.8251   18.3878   -2.4809 H   0  0  0  0  0  0  0  0  0  0  0  0
    5.8012   18.2472   -3.5129 H   0  0  0  0  0  0  0  0  0  0  0  0
    6.3137   17.3324   -2.0340 H   0  0  0  0  0  0  0  0  0  0  0  0
    4.8746   16.1026   -4.0817 H   0  0  0  0  0  0  0  0  0  0  0  0
    8.5888   17.0857   -3.3054 H   0  0  0  0  0  0  0  0  0  0  0  0
    9.2493   16.4705   -4.8584 H   0  0  0  0  0  0  0  0  0  0  0  0
    8.0641   17.8203   -4.8584 H   0  0  0  0  0  0  0  0  0  0  0  0
    7.2845   13.9231   -5.2525 H   0  0  0  0  0  0  0  0  0  0  0  0
    6.3568   15.1136   -6.2266 H   0  0  0  0  0  0  0  0  0  0  0  0
    8.1526   15.1577   -6.2266 H   0  0  0  0  0  0  0  0  0  0  0  0
    3.1425   15.5686    0.2270 H   0  0  0  0  0  0  0  0  0  0  0  0
    1.3124   17.1163    0.5273 H   0  0  0  0  0  0  0  0  0  0  0  0
    1.6434   17.9279   -1.0180 H   0  0  0  0  0  0  0  0  0  0  0  0
   -0.4801   16.0781   -0.5353 H   0  0  0  0  0  0  0  0  0  0  0  0
    0.0561   16.5691   -2.1402 H   0  0  0  0  0  0  0  0  0  0  0  0
    1.0112   14.7628    0.7913 H   0  0  0  0  0  0  0  0  0  0  0  0
   -0.1279   13.5665    0.0855 H   0  0  0  0  0  0  0  0  0  0  0  0
    1.6374   13.2342    0.0855 H   0  0  0  0  0  0  0  0  0  0  0  0
    0.4114   14.5304   -3.3996 H   0  0  0  0  0  0  0  0  0  0  0  0
   -1.5860   14.3209   -1.7829 H   0  0  0  0  0  0  0  0  0  0  0  0
   -1.5284   13.3647   -3.3552 H   0  0  0  0  0  0  0  0  0  0  0  0
   -2.4034   12.0691   -1.2346 H   0  0  0  0  0  0  0  0  0  0  0  0
    1.5990   11.5584   -1.1025 H   0  0  0  0  0  0  0  0  0  0  0  0
    0.6816    9.8055   -3.4655 H   0  0  0  0  0  0  0  0  0  0  0  0
    2.3862   10.0328   -2.8710 H   0  0  0  0  0  0  0  0  0  0  0  0
    1.4177    7.8784   -2.1350 H   0  0  0  0  0  0  0  0  0  0  0  0
    1.8228    8.9771   -0.7587 H   0  0  0  0  0  0  0  0  0  0  0  0
   -0.3069    7.9570   -0.3299 H   0  0  0  0  0  0  0  0  0  0  0  0
   -1.9180    8.9460   -2.1670 H   0  0  0  0  0  0  0  0  0  0  0  0
   -0.7545   10.0527    1.7142 H   0  0  0  0  0  0  0  0  0  0  0  0
    0.8065    9.5907    0.9549 H   0  0  0  0  0  0  0  0  0  0  0  0
    0.2814   11.3085    0.9549 H   0  0  0  0  0  0  0  0  0  0  0  0
   -2.4199    9.8504    0.9650 H   0  0  0  0  0  0  0  0  0  0  0  0
   -2.8607   10.7027   -0.5536 H   0  0  0  0  0  0  0  0  0  0  0  0
   -2.6497    8.9188   -0.5536 H   0  0  0  0  0  0  0  0  0  0  0  0
    0.0166   11.4459   -4.3653 H   0  0  0  0  0  0  0  0  0  0  0  0
    0.4677   13.0971   -4.9100 H   0  0  0  0  0  0  0  0  0  0  0  0
    1.6944   11.7849   -4.9100 H   0  0  0  0  0  0  0  0  0  0  0  0
    3.2883   11.9016   -2.8344 H   0  0  0  0  0  0  0  0  0  0  0  0
    2.9464   13.3763   -3.9040 H   0  0  0  0  0  0  0  0  0  0  0  0
    3.2783   13.3147   -0.8919 H   0  0  0  0  0  0  0  0  0  0  0  0
    4.3442   14.0896   -2.1284 H   0  0  0  0  0  0  0  0  0  0  0  0
    2.7942   16.9018   -3.0076 H   0  0  0  0  0  0  0  0  0  0  0  0
    3.4375   15.3965   -3.7471 H   0  0  0  0  0  0  0  0  0  0  0  0
    1.6693   15.7125   -3.7471 H   0  0  0  0  0  0  0  0  0  0  0  0
  1  2  1  0
  2  3  1  0
  3  4  1  0
  4  5  1  0
  5  6  1  0
  6  7  1  0
  7  8  1  0
  7  9  1  0
  2 10  1  0
 10 11  1  0
 11 12  1  0
 12 13  1  0
 13 14  1  1
 13 15  1  0
 15 16  1  0
 16 17  1  0
 17 18  2  0
 18 19  1  0
 19 20  1  0
 20 21  1  0
 21 22  1  0
 22 23  1  0
 22 24  1  0
 24 25  1  0
 24 26  1  0
 19 27  1  0
 27 28  1  6
 27 29  1  0
 29 30  1  0
 30 31  1  0
 31 32  1  6
  7  5  1  0
 31 10  1  0
 31 13  1  0
 27 15  1  0
 24 18  1  0
  1 33  1  0
  1 34  1  0
  1 35  1  0
  2 36  1  1
  3 37  1  0
  3 38  1  0
  4 39  1  0
  4 40  1  0
  5 41  1  6
  8 42  1  0
  8 43  1  0
  8 44  1  0
  9 45  1  0
  9 46  1  0
  9 47  1  0
 10 48  1  1
 11 49  1  0
 11 50  1  0
 12 51  1  0
 12 52  1  0
 14 53  1  0
 14 54  1  0
 14 55  1  0
 15 56  1  6
 16 57  1  0
 16 58  1  0
 17 59  1  0
 19 60  1  1
 20 61  1  0
 20 62  1  0
 21 63  1  0
 21 64  1  0
 22 65  1  1
 23 66  1  0
 25 67  1  0
 25 68  1  0
 25 69  1  0
 26 70  1  0
 26 71  1  0
 26 72  1  0
 28 73  1  0
 28 74  1  0
 28 75  1  0
 29 76  1  0
 29 77  1  0
 30 78  1  0
 30 79  1  0
 32 80  1  0
 32 81  1  0
 32 82  1  0
M  END
>  <meeko>  (8) 
{"is_sidechain": [false], "intermolecular_energy": 2.731, "internal_energy": -0.839}

$$$$
EPH_relaxed_0001_pdb2pqr_Repair_134_r2_0001_out
     RDKit          3D

 82 86  0  0  0  0  0  0  0  0999 V2000
   -2.5530    7.6000   -3.0640 C   0  0  0  0  0  0  0  0  0  0  0  0
   -2.8720    7.8840   -1.5940 C   0  0  2  0  0  0  0  0  0  0  0  0
   -4.3880    7.8550   -1.3120 C   0  0  0  0  0  0  0  0  0  0  0  0
   -5.1030    6.6430   -1.9150 C   0  0  0  0  0  0  0  0  0  0  0  0
   -6.3040    7.0490   -2.7150 C   0  0  2  0  0  0  0  0  0  0  0  0
   -6.8820    8.3040   -2.3320 O   0  0  0  0  0  0  0  0  0  0  0  0
   -7.7030    7.1410   -2.1350 C   0  0  0  0  0  0  0  0  0  0  0  0
   -7.9740    6.8230   -0.6980 C   0  0  0  0  0  0  0  0  0  0  0  0
   -8.8710    7.0630   -3.0690 C   0  0  0  0  0  0  0  0  0  0  0  0
   -2.2920    9.2340   -1.1880 C   0  0  1  0  0  0  0  0  0  0  0  0
   -2.8160    9.7190    0.1900 C   0  0  0  0  0  0  0  0  0  0  0  0
   -1.6480   10.4780    0.8710 C   0  0  0  0  0  0  0  0  0  0  0  0
   -0.6120   10.6930   -0.2580 C   0  0  1  0  0  0  0  0  0  0  0  0
   -1.1290   11.9380   -1.0450 C   0  0  0  0  0  0  0  0  0  0  0  0
    0.8740   10.8720    0.1920 C   0  0  2  0  0  0  0  0  0  0  0  0
    1.1460   12.1050    1.0710 C   0  0  0  0  0  0  0  0  0  0  0  0
    1.5160   13.3470    0.3290 C   0  0  0  0  0  0  0  0  0  0  0  0
    1.9020   13.4030   -0.9590 C   0  0  0  0  0  0  0  0  0  0  0  0
    2.0930   12.1220   -1.7800 C   0  0  1  0  0  0  0  0  0  0  0  0
    3.4350   12.1990   -2.5560 C   0  0  0  0  0  0  0  0  0  0  0  0
    3.5470   13.4600   -3.4070 C   0  0  0  0  0  0  0  0  0  0  0  0
    3.4100   14.7130   -2.5460 C   0  0  2  0  0  0  0  0  0  0  0  0
    4.5400   14.7980   -1.6720 O   0  0  0  0  0  0  0  0  0  0  0  0
    2.1000   14.7430   -1.7110 C   0  0  0  0  0  0  0  0  0  0  0  0
    0.8870   14.9550   -2.6510 C   0  0  0  0  0  0  0  0  0  0  0  0
    2.1530   15.9870   -0.7830 C   0  0  0  0  0  0  0  0  0  0  0  0
    1.9260   10.7570   -0.9840 C   0  0  1  0  0  0  0  0  0  0  0  0
    3.2830   10.3530   -0.3300 C   0  0  0  0  0  0  0  0  0  0  0  0
    1.5640    9.6100   -2.0000 C   0  0  0  0  0  0  0  0  0  0  0  0
    0.0700    9.4050   -2.3130 C   0  0  0  0  0  0  0  0  0  0  0  0
   -0.7550    9.3280   -1.0250 C   0  0  2  0  0  0  0  0  0  0  0  0
   -0.2720    8.0720   -0.2220 C   0  0  0  0  0  0  0  0  0  0  0  0
   -1.7328    6.8698   -3.1267 H   0  0  0  0  0  0  0  0  0  0  0  0
   -3.4457    7.1923   -3.5608 H   0  0  0  0  0  0  0  0  0  0  0  0
   -2.2513    8.5339   -3.5608 H   0  0  0  0  0  0  0  0  0  0  0  0
   -2.4101    7.0854   -0.9949 H   0  0  0  0  0  0  0  0  0  0  0  0
   -4.5383    7.8403   -0.2224 H   0  0  0  0  0  0  0  0  0  0  0  0
   -4.8198    8.7503   -1.7832 H   0  0  0  0  0  0  0  0  0  0  0  0
   -4.4024    6.1060   -2.5714 H   0  0  0  0  0  0  0  0  0  0  0  0
   -5.4422    5.9995   -1.0899 H   0  0  0  0  0  0  0  0  0  0  0  0
   -5.9078    6.5461   -3.6095 H   0  0  0  0  0  0  0  0  0  0  0  0
   -7.3945    7.5030   -0.0564 H   0  0  0  0  0  0  0  0  0  0  0  0
   -9.0470    6.9487   -0.4907 H   0  0  0  0  0  0  0  0  0  0  0  0
   -7.6798    5.7836   -0.4907 H   0  0  0  0  0  0  0  0  0  0  0  0
   -9.8024    7.0008   -2.4870 H   0  0  0  0  0  0  0  0  0  0  0  0
   -8.8941    7.9616   -3.7030 H   0  0  0  0  0  0  0  0  0  0  0  0
   -8.7744    6.1693   -3.7030 H   0  0  0  0  0  0  0  0  0  0  0  0
   -2.6164    9.8396   -2.0471 H   0  0  0  0  0  0  0  0  0  0  0  0
   -3.6758   10.3913    0.0530 H   0  0  0  0  0  0  0  0  0  0  0  0
   -3.1487    8.8711    0.8067 H   0  0  0  0  0  0  0  0  0  0  0  0
   -1.9926   11.4431    1.2708 H   0  0  0  0  0  0  0  0  0  0  0  0
   -1.2284    9.9214    1.7220 H   0  0  0  0  0  0  0  0  0  0  0  0
   -1.4510   12.7133   -0.3342 H   0  0  0  0  0  0  0  0  0  0  0  0
   -0.3207   12.3334   -1.6777 H   0  0  0  0  0  0  0  0  0  0  0  0
   -1.9796   11.6446   -1.6777 H   0  0  0  0  0  0  0  0  0  0  0  0
    1.0287   10.0002    0.8448 H   0  0  0  0  0  0  0  0  0  0  0  0
    0.2366   12.3149    1.6533 H   0  0  0  0  0  0  0  0  0  0  0  0
    2.0173   11.8502    1.6923 H   0  0  0  0  0  0  0  0  0  0  0  0
    1.4691   14.2966    0.8821 H   0  0  0  0  0  0  0  0  0  0  0  0
    1.2531   12.0877   -2.4895 H   0  0  0  0  0  0  0  0  0  0  0  0
    4.2625   12.1880   -1.8313 H   0  0  0  0  0  0  0  0  0  0  0  0
    3.4789   11.3337   -3.2338 H   0  0  0  0  0  0  0  0  0  0  0  0
    4.5272   13.4716   -3.9062 H   0  0  0  0  0  0  0  0  0  0  0  0
    2.7367   13.4548   -4.1508 H   0  0  0  0  0  0  0  0  0  0  0  0
    3.3678   15.5768   -3.2258 H   0  0  0  0  0  0  0  0  0  0  0  0
    4.2160   15.0740   -0.7980 H   0  0  0  0  0  0  0  0  0  0  0  0
   -0.0200   15.1135   -2.0491 H   0  0  0  0  0  0  0  0  0  0  0  0
    1.0645   15.8357   -3.2857 H   0  0  0  0  0  0  0  0  0  0  0  0
    0.7552   14.0663   -3.2857 H   0  0  0  0  0  0  0  0  0  0  0  0
    2.1391   15.6615    0.2677 H   0  0  0  0  0  0  0  0  0  0  0  0
    3.0760   16.5521   -0.9797 H   0  0  0  0  0  0  0  0  0  0  0  0
    1.2814   16.6286   -0.9797 H   0  0  0  0  0  0  0  0  0  0  0  0
    3.1852   10.3821    0.7653 H   0  0  0  0  0  0  0  0  0  0  0  0
    3.5542    9.3352   -0.6470 H   0  0  0  0  0  0  0  0  0  0  0  0
    4.0667   11.0568   -0.6470 H   0  0  0  0  0  0  0  0  0  0  0  0
    2.0752    9.8320   -2.9484 H   0  0  0  0  0  0  0  0  0  0  0  0
    1.8855    8.6793   -1.5096 H   0  0  0  0  0  0  0  0  0  0  0  0
   -0.2893   10.2487   -2.9205 H   0  0  0  0  0  0  0  0  0  0  0  0
   -0.0466    8.4584   -2.8610 H   0  0  0  0  0  0  0  0  0  0  0  0
   -0.3497    8.2741    0.8565 H   0  0  0  0  0  0  0  0  0  0  0  0
   -0.9019    7.2077   -0.4794 H   0  0  0  0  0  0  0  0  0  0  0  0
    0.7747    7.8525   -0.4794 H   0  0  0  0  0  0  0  0  0  0  0  0
  1  2  1  0
  2  3  1  0
  3  4  1  0
  4  5  1  0
  5  6  1  0
  6  7  1  0
  7  8  1  0
  7  9  1  0
  2 10  1  0
 10 11  1  0
 11 12  1  0
 12 13  1  0
 13 14  1  6
 13 15  1  0
 15 16  1  0
 16 17  1  0
 17 18  2  0
 18 19  1  0
 19 20  1  0
 20 21  1  0
 21 22  1  0
 22 23  1  0
 22 24  1  0
 24 25  1  0
 24 26  1  0
 19 27  1  0
 27 28  1  1
 27 29  1  0
 29 30  1  0
 30 31  1  0
 31 32  1  1
  7  5  1  0
 31 10  1  0
 31 13  1  0
 27 15  1  0
 24 18  1  0
  1 33  1  0
  1 34  1  0
  1 35  1  0
  2 36  1  1
  3 37  1  0
  3 38  1  0
  4 39  1  0
  4 40  1  0
  5 41  1  6
  8 42  1  0
  8 43  1  0
  8 44  1  0
  9 45  1  0
  9 46  1  0
  9 47  1  0
 10 48  1  6
 11 49  1  0
 11 50  1  0
 12 51  1  0
 12 52  1  0
 14 53  1  0
 14 54  1  0
 14 55  1  0
 15 56  1  1
 16 57  1  0
 16 58  1  0
 17 59  1  0
 19 60  1  6
 20 61  1  0
 20 62  1  0
 21 63  1  0
 21 64  1  0
 22 65  1  6
 23 66  1  0
 25 67  1  0
 25 68  1  0
 25 69  1  0
 26 70  1  0
 26 71  1  0
 26 72  1  0
 28 73  1  0
 28 74  1  0
 28 75  1  0
 29 76  1  0
 29 77  1  0
 30 78  1  0
 30 79  1  0
 32 80  1  0
 32 81  1  0
 32 82  1  0
M  END
>  <meeko>  (9) 
{"is_sidechain": [false], "intermolecular_energy": 2.731, "internal_energy": -0.839}

$$$$
EPH_relaxed_0001_pdb2pqr_Repair_134_r2_0001_out
     RDKit          3D

 82 86  0  0  0  0  0  0  0  0999 V2000
    4.3480   17.6100   -2.6180 C   0  0  0  0  0  0  0  0  0  0  0  0
    2.9690   17.1290   -2.1570 C   0  0  2  0  0  0  0  0  0  0  0  0
    2.6760   17.5220   -0.6950 C   0  0  0  0  0  0  0  0  0  0  0  0
    3.8630   18.1760    0.0160 C   0  0  0  0  0  0  0  0  0  0  0  0
    3.4530   18.8090    1.3120 C   0  0  2  0  0  0  0  0  0  0  0  0
    3.8130   20.1910    1.4430 O   0  0  0  0  0  0  0  0  0  0  0  0
    4.4410   19.2820    2.3610 C   0  0  0  0  0  0  0  0  0  0  0  0
    5.9180   19.1400    2.1630 C   0  0  0  0  0  0  0  0  0  0  0  0
    3.9690   19.4290    3.7740 C   0  0  0  0  0  0  0  0  0  0  0  0
    2.8650   15.6170   -2.3200 C   0  0  1  0  0  0  0  0  0  0  0  0
    4.2420   14.9480   -2.5770 C   0  0  0  0  0  0  0  0  0  0  0  0
    4.2050   13.5660   -1.8750 C   0  0  0  0  0  0  0  0  0  0  0  0
    2.7140   13.3450   -1.5260 C   0  0  1  0  0  0  0  0  0  0  0  0
    2.0650   12.8310   -2.8490 C   0  0  0  0  0  0  0  0  0  0  0  0
    2.4200   12.3860   -0.3270 C   0  0  2  0  0  0  0  0  0  0  0  0
    2.8880   10.9330   -0.5240 C   0  0  0  0  0  0  0  0  0  0  0  0
    1.8820   10.0170   -1.1400 C   0  0  0  0  0  0  0  0  0  0  0  0
    0.5650   10.2680   -1.2590 C   0  0  0  0  0  0  0  0  0  0  0  0
   -0.0520   11.5370   -0.6570 C   0  0  1  0  0  0  0  0  0  0  0  0
   -1.3480   11.1680    0.1130 C   0  0  0  0  0  0  0  0  0  0  0  0
   -2.3380   10.3890   -0.7480 C   0  0  0  0  0  0  0  0  0  0  0  0
   -1.7050    9.1050   -1.2790 C   0  0  2  0  0  0  0  0  0  0  0  0
   -1.4530    8.2260   -0.1790 O   0  0  0  0  0  0  0  0  0  0  0  0
   -0.3870    9.3510   -2.0650 C   0  0  0  0  0  0  0  0  0  0  0  0
   -0.7060   10.0460   -3.4120 C   0  0  0  0  0  0  0  0  0  0  0  0
    0.2200    7.9680   -2.4230 C   0  0  0  0  0  0  0  0  0  0  0  0
    0.9290   12.4460    0.2010 C   0  0  1  0  0  0  0  0  0  0  0  0
    0.9600   11.9490    1.6780 C   0  0  0  0  0  0  0  0  0  0  0  0
    0.3670   13.9170    0.2380 C   0  0  0  0  0  0  0  0  0  0  0  0
    0.7900   14.8520   -0.9110 C   0  0  0  0  0  0  0  0  0  0  0  0
    2.3070   14.8090   -1.1220 C   0  0  2  0  0  0  0  0  0  0  0  0
    2.9870   15.3420    0.1850 C   0  0  0  0  0  0  0  0  0  0  0  0
    4.9729   17.8280   -1.7394 H   0  0  0  0  0  0  0  0  0  0  0  0
    4.8266   16.8257   -3.2229 H   0  0  0  0  0  0  0  0  0  0  0  0
    4.2350   18.5218   -3.2229 H   0  0  0  0  0  0  0  0  0  0  0  0
    2.2173   17.6241   -2.7893 H   0  0  0  0  0  0  0  0  0  0  0  0
    1.8340   18.2298   -0.6877 H   0  0  0  0  0  0  0  0  0  0  0  0
    2.4481   16.5930   -0.1519 H   0  0  0  0  0  0  0  0  0  0  0  0
    4.6239   17.4081    0.2193 H   0  0  0  0  0  0  0  0  0  0  0  0
    4.2633   18.9639   -0.6389 H   0  0  0  0  0  0  0  0  0  0  0  0
    2.5641   18.1639    1.3735 H   0  0  0  0  0  0  0  0  0  0  0  0
    6.4163   19.0921    3.1425 H   0  0  0  0  0  0  0  0  0  0  0  0
    6.1256   18.2178    1.6005 H   0  0  0  0  0  0  0  0  0  0  0  0
    6.2975   20.0058    1.6005 H   0  0  0  0  0  0  0  0  0  0  0  0
    4.7880   19.1739    4.4626 H   0  0  0  0  0  0  0  0  0  0  0  0
    3.6531   20.4681    3.9489 H   0  0  0  0  0  0  0  0  0  0  0  0
    3.1190   18.7530    3.9489 H   0  0  0  0  0  0  0  0  0  0  0  0
    2.1618   15.5705   -3.1646 H   0  0  0  0  0  0  0  0  0  0  0  0
    4.4054   14.8200   -3.6572 H   0  0  0  0  0  0  0  0  0  0  0  0
    5.0619   15.5682   -2.1858 H   0  0  0  0  0  0  0  0  0  0  0  0
    4.5665   12.7773   -2.5511 H   0  0  0  0  0  0  0  0  0  0  0  0
    4.8509   13.5328   -0.9852 H   0  0  0  0  0  0  0  0  0  0  0  0
    1.2233   12.1644   -2.6097 H   0  0  0  0  0  0  0  0  0  0  0  0
    1.6995   13.6872   -3.4349 H   0  0  0  0  0  0  0  0  0  0  0  0
    2.8147   12.2791   -3.4349 H   0  0  0  0  0  0  0  0  0  0  0  0
    3.0571   12.8005    0.4682 H   0  0  0  0  0  0  0  0  0  0  0  0
    3.7767   10.9470   -1.1720 H   0  0  0  0  0  0  0  0  0  0  0  0
    3.0837   10.5370    0.4834 H   0  0  0  0  0  0  0  0  0  0  0  0
    2.2484    9.0557   -1.5295 H   0  0  0  0  0  0  0  0  0  0  0  0
   -0.2961   12.1891   -1.5086 H   0  0  0  0  0  0  0  0  0  0  0  0
   -1.0777   10.5528    0.9839 H   0  0  0  0  0  0  0  0  0  0  0  0
   -1.8352   12.1065    0.4161 H   0  0  0  0  0  0  0  0  0  0  0  0
   -3.2188   10.1322   -0.1412 H   0  0  0  0  0  0  0  0  0  0  0  0
   -2.6303   11.0165   -1.6028 H   0  0  0  0  0  0  0  0  0  0  0  0
   -2.4146    8.6572   -1.9903 H   0  0  0  0  0  0  0  0  0  0  0  0
   -0.5700    8.4360    0.1690 H   0  0  0  0  0  0  0  0  0  0  0  0
   -1.1577   11.0302   -3.2188 H   0  0  0  0  0  0  0  0  0  0  0  0
    0.2229   10.1753   -3.9869 H   0  0  0  0  0  0  0  0  0  0  0  0
   -1.4097    9.4260   -3.9869 H   0  0  0  0  0  0  0  0  0  0  0  0
    0.4595    7.4223   -1.4984 H   0  0  0  0  0  0  0  0  0  0  0  0
   -0.5071    7.3899   -3.0121 H   0  0  0  0  0  0  0  0  0  0  0  0
    1.1377    8.1118   -3.0121 H   0  0  0  0  0  0  0  0  0  0  0  0
    0.9061   12.8129    2.3568 H   0  0  0  0  0  0  0  0  0  0  0  0
    0.1015   11.2858    1.8598 H   0  0  0  0  0  0  0  0  0  0  0  0
    1.8943   11.3976    1.8598 H   0  0  0  0  0  0  0  0  0  0  0  0
   -0.7311   13.8539    0.2284 H   0  0  0  0  0  0  0  0  0  0  0  0
    0.7954   14.3657    1.1464 H   0  0  0  0  0  0  0  0  0  0  0  0
    0.2886   14.5340   -1.8370 H   0  0  0  0  0  0  0  0  0  0  0  0
    0.5008   15.8809   -0.6508 H   0  0  0  0  0  0  0  0  0  0  0  0
    2.4652   14.9330    1.0628 H   0  0  0  0  0  0  0  0  0  0  0  0
    4.0407   15.0267    0.2049 H   0  0  0  0  0  0  0  0  0  0  0  0
    2.9325   16.4405    0.2049 H   0  0  0  0  0  0  0  0  0  0  0  0
  1  2  1  0
  2  3  1  0
  3  4  1  0
  4  5  1  0
  5  6  1  0
  6  7  1  0
  7  8  1  0
  7  9  1  0
  2 10  1  0
 10 11  1  0
 11 12  1  0
 12 13  1  0
 13 14  1  6
 13 15  1  0
 15 16  1  0
 16 17  1  0
 17 18  2  0
 18 19  1  0
 19 20  1  0
 20 21  1  0
 21 22  1  0
 22 23  1  0
 22 24  1  0
 24 25  1  0
 24 26  1  0
 19 27  1  0
 27 28  1  1
 27 29  1  0
 29 30  1  0
 30 31  1  0
 31 32  1  1
  7  5  1  0
 31 10  1  0
 31 13  1  0
 27 15  1  0
 24 18  1  0
  1 33  1  0
  1 34  1  0
  1 35  1  0
  2 36  1  6
  3 37  1  0
  3 38  1  0
  4 39  1  0
  4 40  1  0
  5 41  1  1
  8 42  1  0
  8 43  1  0
  8 44  1  0
  9 45  1  0
  9 46  1  0
  9 47  1  0
 10 48  1  6
 11 49  1  0
 11 50  1  0
 12 51  1  0
 12 52  1  0
 14 53  1  0
 14 54  1  0
 14 55  1  0
 15 56  1  1
 16 57  1  0
 16 58  1  0
 17 59  1  0
 19 60  1  6
 20 61  1  0
 20 62  1  0
 21 63  1  0
 21 64  1  0
 22 65  1  6
 23 66  1  0
 25 67  1  0
 25 68  1  0
 25 69  1  0
 26 70  1  0
 26 71  1  0
 26 72  1  0
 28 73  1  0
 28 74  1  0
 28 75  1  0
 29 76  1  0
 29 77  1  0
 30 78  1  0
 30 79  1  0
 32 80  1  0
 32 81  1  0
 32 82  1  0
M  END
>  <meeko>  (10) 
{"is_sidechain": [false], "intermolecular_energy": 2.731, "internal_energy": -0.839}

$$$$
EPH_relaxed_0001_pdb2pqr_Repair_134_r2_0001_out
     RDKit          3D

 82 86  0  0  0  0  0  0  0  0999 V2000
    0.3870   17.8050   -0.1620 C   0  0  0  0  0  0  0  0  0  0  0  0
    1.2850   17.1310   -1.2030 C   0  0  2  0  0  0  0  0  0  0  0  0
    1.6130   18.0700   -2.3810 C   0  0  0  0  0  0  0  0  0  0  0  0
    3.1130   18.3130   -2.5750 C   0  0  0  0  0  0  0  0  0  0  0  0
    3.9210   17.1050   -2.2110 C   0  0  2  0  0  0  0  0  0  0  0  0
    5.0700   17.3760   -1.3970 O   0  0  0  0  0  0  0  0  0  0  0  0
    5.3330   16.8610   -2.7120 C   0  0  0  0  0  0  0  0  0  0  0  0
    6.0170   17.8350   -3.6200 C   0  0  0  0  0  0  0  0  0  0  0  0
    5.8580   15.4600   -2.7180 C   0  0  0  0  0  0  0  0  0  0  0  0
    0.6190   15.8610   -1.7190 C   0  0  1  0  0  0  0  0  0  0  0  0
    0.1820   15.9770   -3.2040 C   0  0  0  0  0  0  0  0  0  0  0  0
    0.3760   14.5750   -3.8370 C   0  0  0  0  0  0  0  0  0  0  0  0
    0.5970   13.6300   -2.6330 C   0  0  1  0  0  0  0  0  0  0  0  0
   -0.8360   13.3260   -2.0940 C   0  0  0  0  0  0  0  0  0  0  0  0
    1.3950   12.3170   -2.9220 C   0  0  2  0  0  0  0  0  0  0  0  0
    0.7300   11.3570   -3.9240 C   0  0  0  0  0  0  0  0  0  0  0  0
   -0.1810   10.3380   -3.3230 C   0  0  0  0  0  0  0  0  0  0  0  0
   -0.2370   10.0120   -2.0180 C   0  0  0  0  0  0  0  0  0  0  0  0
    0.7430   10.6260   -1.0100 C   0  0  1  0  0  0  0  0  0  0  0  0
    1.3140    9.5090   -0.0970 C   0  0  0  0  0  0  0  0  0  0  0  0
    0.2200    8.6890    0.5790 C   0  0  0  0  0  0  0  0  0  0  0  0
   -0.7000    8.0480   -0.4580 C   0  0  2  0  0  0  0  0  0  0  0  0
    0.0450    7.0710   -1.1930 O   0  0  0  0  0  0  0  0  0  0  0  0
   -1.3270    9.0760   -1.4400 C   0  0  0  0  0  0  0  0  0  0  0  0
   -2.3670    9.9440   -0.6910 C   0  0  0  0  0  0  0  0  0  0  0  0
   -2.1170    8.2850   -2.5180 C   0  0  0  0  0  0  0  0  0  0  0  0
    1.8790   11.5530   -1.6240 C   0  0  1  0  0  0  0  0  0  0  0  0
    3.1030   10.6850   -2.0480 C   0  0  0  0  0  0  0  0  0  0  0  0
    2.3970   12.5370   -0.5090 C   0  0  0  0  0  0  0  0  0  0  0  0
    1.6410   13.8700   -0.3530 C   0  0  0  0  0  0  0  0  0  0  0  0
    1.4610   14.5610   -1.7080 C   0  0  2  0  0  0  0  0  0  0  0  0
    2.8860   14.8990   -2.2650 C   0  0  0  0  0  0  0  0  0  0  0  0
    0.7359   17.5431    0.8478 H   0  0  0  0  0  0  0  0  0  0  0  0
    0.4291   18.8964   -0.2930 H   0  0  0  0  0  0  0  0  0  0  0  0
   -0.6492   17.4597   -0.2930 H   0  0  0  0  0  0  0  0  0  0  0  0
    2.2343   16.8782   -0.7080 H   0  0  0  0  0  0  0  0  0  0  0  0
    1.2113   17.6242   -3.3029 H   0  0  0  0  0  0  0  0  0  0  0  0
    1.1562   19.0443   -2.1526 H   0  0  0  0  0  0  0  0  0  0  0  0
    3.3003   18.5627   -3.6298 H   0  0  0  0  0  0  0  0  0  0  0  0
    3.4150   19.1395   -1.9149 H   0  0  0  0  0  0  0  0  0  0  0  0
    3.0199   16.4742   -2.2070 H   0  0  0  0  0  0  0  0  0  0  0  0
    6.5460   18.5884   -3.0179 H   0  0  0  0  0  0  0  0  0  0  0  0
    6.7388   17.3000   -4.2547 H   0  0  0  0  0  0  0  0  0  0  0  0
    5.2688   18.3323   -4.2547 H   0  0  0  0  0  0  0  0  0  0  0  0
    5.9881   15.1128   -1.6824 H   0  0  0  0  0  0  0  0  0  0  0  0
    5.1449   14.8034   -3.2380 H   0  0  0  0  0  0  0  0  0  0  0  0
    6.8270   15.4338   -3.2380 H   0  0  0  0  0  0  0  0  0  0  0  0
   -0.2070   15.7798   -0.9971 H   0  0  0  0  0  0  0  0  0  0  0  0
   -0.8742   16.2779   -3.2658 H   0  0  0  0  0  0  0  0  0  0  0  0
    0.7773   16.7356   -3.7333 H   0  0  0  0  0  0  0  0  0  0  0  0
   -0.5183   14.2781   -4.4045 H   0  0  0  0  0  0  0  0  0  0  0  0
    1.2165   14.5504   -4.5461 H   0  0  0  0  0  0  0  0  0  0  0  0
   -0.8223   13.3289   -0.9941 H   0  0  0  0  0  0  0  0  0  0  0  0
   -1.5342   14.0960   -2.4540 H   0  0  0  0  0  0  0  0  0  0  0  0
   -1.1614   12.3388   -2.4540 H   0  0  0  0  0  0  0  0  0  0  0  0
    2.2976   12.6955   -3.4241 H   0  0  0  0  0  0  0  0  0  0  0  0
    0.1447   11.9592   -4.6344 H   0  0  0  0  0  0  0  0  0  0  0  0
    1.5490   10.7931   -4.3944 H   0  0  0  0  0  0  0  0  0  0  0  0
   -0.8640    9.8090   -4.0040 H   0  0  0  0  0  0  0  0  0  0  0  0
    0.1562   11.3359   -0.4086 H   0  0  0  0  0  0  0  0  0  0  0  0
    1.9323    8.8355   -0.7087 H   0  0  0  0  0  0  0  0  0  0  0  0
    1.9044    9.9942    0.6943 H   0  0  0  0  0  0  0  0  0  0  0  0
    0.6855    7.8980    1.1854 H   0  0  0  0  0  0  0  0  0  0  0  0
   -0.3789    9.3580    1.2144 H   0  0  0  0  0  0  0  0  0  0  0  0
   -1.5367    7.5839    0.0846 H   0  0  0  0  0  0  0  0  0  0  0  0
   -0.5780    6.6040   -1.7750 H   0  0  0  0  0  0  0  0  0  0  0  0
   -2.2281    9.8281    0.3940 H   0  0  0  0  0  0  0  0  0  0  0  0
   -2.2305   10.9999   -0.9674 H   0  0  0  0  0  0  0  0  0  0  0  0
   -3.3815    9.6208   -0.9674 H   0  0  0  0  0  0  0  0  0  0  0  0
   -2.8122    7.5889   -2.0260 H   0  0  0  0  0  0  0  0  0  0  0  0
   -2.6847    8.9876   -3.1458 H   0  0  0  0  0  0  0  0  0  0  0  0
   -1.4137    7.7182   -3.1458 H   0  0  0  0  0  0  0  0  0  0  0  0
    3.6209   10.3178   -1.1497 H   0  0  0  0  0  0  0  0  0  0  0  0
    2.7563    9.8298   -2.6467 H   0  0  0  0  0  0  0  0  0  0  0  0
    3.7954   11.2951   -2.6467 H   0  0  0  0  0  0  0  0  0  0  0  0
    2.3409   12.0080    0.4538 H   0  0  0  0  0  0  0  0  0  0  0  0
    3.4134   12.8176   -0.8224 H   0  0  0  0  0  0  0  0  0  0  0  0
    0.6512   13.6731    0.0846 H   0  0  0  0  0  0  0  0  0  0  0  0
    2.2276   14.5309    0.3021 H   0  0  0  0  0  0  0  0  0  0  0  0
    3.5782   15.0632   -1.4260 H   0  0  0  0  0  0  0  0  0  0  0  0
    3.2474   14.0617   -2.8800 H   0  0  0  0  0  0  0  0  0  0  0  0
    2.8328   15.8095   -2.8800 H   0  0  0  0  0  0  0  0  0  0  0  0
  1  2  1  0
  2  3  1  0
  3  4  1  0
  4  5  1  0
  5  6  1  0
  6  7  1  0
  7  8  1  0
  7  9  1  0
  2 10  1  0
 10 11  1  0
 11 12  1  0
 12 13  1  0
 13 14  1  1
 13 15  1  0
 15 16  1  0
 16 17  1  0
 17 18  2  0
 18 19  1  0
 19 20  1  0
 20 21  1  0
 21 22  1  0
 22 23  1  0
 22 24  1  0
 24 25  1  0
 24 26  1  0
 19 27  1  0
 27 28  1  6
 27 29  1  0
 29 30  1  0
 30 31  1  0
 31 32  1  6
  7  5  1  0
 31 10  1  0
 31 13  1  0
 27 15  1  0
 24 18  1  0
  1 33  1  0
  1 34  1  0
  1 35  1  0
  2 36  1  1
  3 37  1  0
  3 38  1  0
  4 39  1  0
  4 40  1  0
  5 41  1  1
  8 42  1  0
  8 43  1  0
  8 44  1  0
  9 45  1  0
  9 46  1  0
  9 47  1  0
 10 48  1  1
 11 49  1  0
 11 50  1  0
 12 51  1  0
 12 52  1  0
 14 53  1  0
 14 54  1  0
 14 55  1  0
 15 56  1  6
 16 57  1  0
 16 58  1  0
 17 59  1  0
 19 60  1  1
 20 61  1  0
 20 62  1  0
 21 63  1  0
 21 64  1  0
 22 65  1  1
 23 66  1  0
 25 67  1  0
 25 68  1  0
 25 69  1  0
 26 70  1  0
 26 71  1  0
 26 72  1  0
 28 73  1  0
 28 74  1  0
 28 75  1  0
 29 76  1  0
 29 77  1  0
 30 78  1  0
 30 79  1  0
 32 80  1  0
 32 81  1  0
 32 82  1  0
M  END
>  <meeko>  (11) 
{"is_sidechain": [false], "intermolecular_energy": 2.731, "internal_energy": -0.839}

$$$$
EPH_relaxed_0001_pdb2pqr_Repair_134_r2_0001_out
     RDKit          3D

 82 86  0  0  0  0  0  0  0  0999 V2000
    1.0390    8.6710   -0.3620 C   0  0  0  0  0  0  0  0  0  0  0  0
   -0.0470    9.4440   -1.1150 C   0  0  2  0  0  0  0  0  0  0  0  0
   -0.7850    8.5600   -2.1400 C   0  0  0  0  0  0  0  0  0  0  0  0
   -2.2740    8.3760   -1.8340 C   0  0  0  0  0  0  0  0  0  0  0  0
   -2.8530    7.2120   -2.5800 C   0  0  2  0  0  0  0  0  0  0  0  0
   -3.8640    7.5560   -3.5360 O   0  0  0  0  0  0  0  0  0  0  0  0
   -4.2910    6.7510   -2.4250 C   0  0  0  0  0  0  0  0  0  0  0  0
   -5.2380    7.4460   -1.4980 C   0  0  0  0  0  0  0  0  0  0  0  0
   -4.6340    5.3420   -2.7980 C   0  0  0  0  0  0  0  0  0  0  0  0
    0.5650   10.6520   -1.8140 C   0  0  1  0  0  0  0  0  0  0  0  0
    0.1940   10.7230   -3.3190 C   0  0  0  0  0  0  0  0  0  0  0  0
    0.0540   12.2250   -3.6750 C   0  0  0  0  0  0  0  0  0  0  0  0
    0.6660   12.9710   -2.4670 C   0  0  1  0  0  0  0  0  0  0  0  0
    2.2080   12.9290   -2.7090 C   0  0  0  0  0  0  0  0  0  0  0  0
    0.1600   14.4310   -2.2280 C   0  0  2  0  0  0  0  0  0  0  0  0
    0.4650   15.4230   -3.3640 C   0  0  0  0  0  0  0  0  0  0  0  0
    1.7620   16.1520   -3.2420 C   0  0  0  0  0  0  0  0  0  0  0  0
    2.5120   16.2330   -2.1270 C   0  0  0  0  0  0  0  0  0  0  0  0
    2.0240   15.6300   -0.8040 C   0  0  1  0  0  0  0  0  0  0  0  0
    2.2400   16.6530    0.3420 C   0  0  0  0  0  0  0  0  0  0  0  0
    3.6820   17.1460    0.4230 C   0  0  0  0  0  0  0  0  0  0  0  0
    4.1120   17.7910   -0.8930 C   0  0  2  0  0  0  0  0  0  0  0  0
    3.3570   18.9910   -1.0850 O   0  0  0  0  0  0  0  0  0  0  0  0
    3.9300   16.8570   -2.1210 C   0  0  0  0  0  0  0  0  0  0  0  0
    4.9660   15.7070   -2.0590 C   0  0  0  0  0  0  0  0  0  0  0  0
    4.2650   17.6750   -3.3970 C   0  0  0  0  0  0  0  0  0  0  0  0
    0.5520   15.0300   -0.8160 C   0  0  1  0  0  0  0  0  0  0  0  0
   -0.4830   16.1540   -0.5060 C   0  0  0  0  0  0  0  0  0  0  0  0
    0.4190   13.9710    0.3410 C   0  0  0  0  0  0  0  0  0  0  0  0
    0.8220   12.5220    0.0070 C   0  0  0  0  0  0  0  0  0  0  0  0
    0.1620   12.0550   -1.2940 C   0  0  2  0  0  0  0  0  0  0  0  0
   -1.3890   12.0660   -1.0730 C   0  0  0  0  0  0  0  0  0  0  0  0
    0.8835    8.7817    0.7213 H   0  0  0  0  0  0  0  0  0  0  0  0
    0.9860    7.6063   -0.6331 H   0  0  0  0  0  0  0  0  0  0  0  0
    2.0277    9.0697   -0.6331 H   0  0  0  0  0  0  0  0  0  0  0  0
   -0.7882    9.7789   -0.3744 H   0  0  0  0  0  0  0  0  0  0  0  0
   -0.6891    9.0248   -3.1324 H   0  0  0  0  0  0  0  0  0  0  0  0
   -0.3222    7.5630   -2.0974 H   0  0  0  0  0  0  0  0  0  0  0  0
   -2.3977    8.2048   -0.7545 H   0  0  0  0  0  0  0  0  0  0  0  0
   -2.8046    9.2856   -2.1520 H   0  0  0  0  0  0  0  0  0  0  0  0
   -1.8955    6.6730   -2.5292 H   0  0  0  0  0  0  0  0  0  0  0  0
   -4.9521    7.2362   -0.4567 H   0  0  0  0  0  0  0  0  0  0  0  0
   -5.1976    8.5304   -1.6779 H   0  0  0  0  0  0  0  0  0  0  0  0
   -6.2604    7.0823   -1.6779 H   0  0  0  0  0  0  0  0  0  0  0  0
   -4.7791    4.7460   -1.8849 H   0  0  0  0  0  0  0  0  0  0  0  0
   -5.5601    5.3349   -3.3915 H   0  0  0  0  0  0  0  0  0  0  0  0
   -3.8148    4.9100   -3.3915 H   0  0  0  0  0  0  0  0  0  0  0  0
    1.6289   10.4648   -1.6065 H   0  0  0  0  0  0  0  0  0  0  0  0
    0.9867   10.2620   -3.9266 H   0  0  0  0  0  0  0  0  0  0  0  0
   -0.7413   10.1805   -3.5211 H   0  0  0  0  0  0  0  0  0  0  0  0
    0.6072   12.4588   -4.5966 H   0  0  0  0  0  0  0  0  0  0  0  0
   -0.9913   12.5146   -3.8581 H   0  0  0  0  0  0  0  0  0  0  0  0
    2.7308   12.9148   -1.7413 H   0  0  0  0  0  0  0  0  0  0  0  0
    2.4653   12.0235   -3.2781 H   0  0  0  0  0  0  0  0  0  0  0  0
    2.5142   13.8191   -3.2781 H   0  0  0  0  0  0  0  0  0  0  0  0
   -0.9327   14.3042   -2.2291 H   0  0  0  0  0  0  0  0  0  0  0  0
    0.4776   14.8626   -4.3105 H   0  0  0  0  0  0  0  0  0  0  0  0
   -0.3215   16.1907   -3.3174 H   0  0  0  0  0  0  0  0  0  0  0  0
    2.1366   16.6666   -4.1392 H   0  0  0  0  0  0  0  0  0  0  0  0
    2.6433   14.7376   -0.6303 H   0  0  0  0  0  0  0  0  0  0  0  0
    1.5810   17.5172    0.1719 H   0  0  0  0  0  0  0  0  0  0  0  0
    2.0069   16.1462    1.2900 H   0  0  0  0  0  0  0  0  0  0  0  0
    3.7643   17.8875    1.2313 H   0  0  0  0  0  0  0  0  0  0  0  0
    4.3371   16.2853    0.6232 H   0  0  0  0  0  0  0  0  0  0  0  0
    5.1884   18.0057   -0.8198 H   0  0  0  0  0  0  0  0  0  0  0  0
    2.4190   18.7730   -0.9570 H   0  0  0  0  0  0  0  0  0  0  0  0
    5.1834   15.4656   -1.0081 H   0  0  0  0  0  0  0  0  0  0  0  0
    4.5578   14.8182   -2.5625 H   0  0  0  0  0  0  0  0  0  0  0  0
    5.8924   16.0205   -2.5625 H   0  0  0  0  0  0  0  0  0  0  0  0
    4.6672   18.6571   -3.1078 H   0  0  0  0  0  0  0  0  0  0  0  0
    5.0137   17.1334   -3.9937 H   0  0  0  0  0  0  0  0  0  0  0  0
    3.3514   17.8141   -3.9937 H   0  0  0  0  0  0  0  0  0  0  0  0
   -0.5867   16.2666    0.5833 H   0  0  0  0  0  0  0  0  0  0  0  0
   -0.1356   17.1026   -0.9413 H   0  0  0  0  0  0  0  0  0  0  0  0
   -1.4570   15.8858   -0.9413 H   0  0  0  0  0  0  0  0  0  0  0  0
    1.0518   14.3084    1.1751 H   0  0  0  0  0  0  0  0  0  0  0  0
   -0.6566   13.9255    0.5669 H   0  0  0  0  0  0  0  0  0  0  0  0
    1.9150   12.4693   -0.1050 H   0  0  0  0  0  0  0  0  0  0  0  0
    0.4865   11.8674    0.8249 H   0  0  0  0  0  0  0  0  0  0  0  0
   -1.6057   12.0675    0.0054 H   0  0  0  0  0  0  0  0  0  0  0  0
   -1.8188   12.9672   -1.5346 H   0  0  0  0  0  0  0  0  0  0  0  0
   -1.8315   11.1710   -1.5346 H   0  0  0  0  0  0  0  0  0  0  0  0
  1  2  1  0
  2  3  1  0
  3  4  1  0
  4  5  1  0
  5  6  1  0
  6  7  1  0
  7  8  1  0
  7  9  1  0
  2 10  1  0
 10 11  1  0
 11 12  1  0
 12 13  1  0
 13 14  1  6
 13 15  1  0
 15 16  1  0
 16 17  1  0
 17 18  2  0
 18 19  1  0
 19 20  1  0
 20 21  1  0
 21 22  1  0
 22 23  1  0
 22 24  1  0
 24 25  1  0
 24 26  1  0
 19 27  1  0
 27 28  1  1
 27 29  1  0
 29 30  1  0
 30 31  1  0
 31 32  1  1
  7  5  1  0
 31 10  1  0
 31 13  1  0
 27 15  1  0
 24 18  1  0
  1 33  1  0
  1 34  1  0
  1 35  1  0
  2 36  1  1
  3 37  1  0
  3 38  1  0
  4 39  1  0
  4 40  1  0
  5 41  1  6
  8 42  1  0
  8 43  1  0
  8 44  1  0
  9 45  1  0
  9 46  1  0
  9 47  1  0
 10 48  1  6
 11 49  1  0
 11 50  1  0
 12 51  1  0
 12 52  1  0
 14 53  1  0
 14 54  1  0
 14 55  1  0
 15 56  1  1
 16 57  1  0
 16 58  1  0
 17 59  1  0
 19 60  1  1
 20 61  1  0
 20 62  1  0
 21 63  1  0
 21 64  1  0
 22 65  1  1
 23 66  1  0
 25 67  1  0
 25 68  1  0
 25 69  1  0
 26 70  1  0
 26 71  1  0
 26 72  1  0
 28 73  1  0
 28 74  1  0
 28 75  1  0
 29 76  1  0
 29 77  1  0
 30 78  1  0
 30 79  1  0
 32 80  1  0
 32 81  1  0
 32 82  1  0
M  END
>  <meeko>  (12) 
{"is_sidechain": [false], "intermolecular_energy": 2.731, "internal_energy": -0.839}

$$$$
EPH_relaxed_0001_pdb2pqr_Repair_134_r2_0001_out
     RDKit          3D

 82 86  0  0  0  0  0  0  0  0999 V2000
   -5.0930    5.9510   -1.8000 C   0  0  0  0  0  0  0  0  0  0  0  0
   -5.4320    7.4440   -1.8140 C   0  0  2  0  0  0  0  0  0  0  0  0
   -5.2240    8.1000   -0.4340 C   0  0  0  0  0  0  0  0  0  0  0  0
   -4.1590    9.2000   -0.4300 C   0  0  0  0  0  0  0  0  0  0  0  0
   -2.8100    8.6670   -0.8070 C   0  0  2  0  0  0  0  0  0  0  0  0
   -1.7660    8.9650    0.1290 O   0  0  0  0  0  0  0  0  0  0  0  0
   -1.6340    9.5520   -1.1760 C   0  0  0  0  0  0  0  0  0  0  0  0
   -1.7530   11.0440   -1.1860 C   0  0  0  0  0  0  0  0  0  0  0  0
   -0.5250    8.9650   -1.9920 C   0  0  0  0  0  0  0  0  0  0  0  0
   -6.8710    7.6450   -2.2750 C   0  0  1  0  0  0  0  0  0  0  0  0
   -7.1680    6.9470   -3.6280 C   0  0  0  0  0  0  0  0  0  0  0  0
   -8.6340    6.4470   -3.5620 C   0  0  0  0  0  0  0  0  0  0  0  0
   -9.2320    7.1560   -2.3240 C   0  0  1  0  0  0  0  0  0  0  0  0
   -9.6090    8.5860   -2.8230 C   0  0  0  0  0  0  0  0  0  0  0  0
  -10.4440    6.4450   -1.6390 C   0  0  2  0  0  0  0  0  0  0  0  0
  -11.6980    6.2980   -2.5190 C   0  0  0  0  0  0  0  0  0  0  0  0
  -12.6720    7.4260   -2.4350 C   0  0  0  0  0  0  0  0  0  0  0  0
  -12.6910    8.3740   -1.4790 C   0  0  0  0  0  0  0  0  0  0  0  0
  -11.7230    8.3120   -0.2900 C   0  0  1  0  0  0  0  0  0  0  0  0
  -12.5020    8.5760    1.0260 C   0  0  0  0  0  0  0  0  0  0  0  0
  -13.2950    9.8780    0.9850 C   0  0  0  0  0  0  0  0  0  0  0  0
  -14.2870    9.8770   -0.1750 C   0  0  2  0  0  0  0  0  0  0  0  0
  -15.2860    8.8840    0.0740 O   0  0  0  0  0  0  0  0  0  0  0  0
  -13.6180    9.6120   -1.5530 C   0  0  0  0  0  0  0  0  0  0  0  0
  -12.7620   10.8360   -1.9600 C   0  0  0  0  0  0  0  0  0  0  0  0
  -14.7440    9.4960   -2.6150 C   0  0  0  0  0  0  0  0  0  0  0  0
  -10.8070    7.0160   -0.2080 C   0  0  1  0  0  0  0  0  0  0  0  0
  -11.5600    5.8790    0.5480 C   0  0  0  0  0  0  0  0  0  0  0  0
   -9.5260    7.3450    0.6470 C   0  0  0  0  0  0  0  0  0  0  0  0
   -8.3190    7.9350   -0.1080 C   0  0  0  0  0  0  0  0  0  0  0  0
   -7.9950    7.1060   -1.3550 C   0  0  2  0  0  0  0  0  0  0  0  0
   -7.5900    5.6680   -0.8820 C   0  0  0  0  0  0  0  0  0  0  0  0
   -5.0139    5.6027   -0.7596 H   0  0  0  0  0  0  0  0  0  0  0  0
   -5.8866    5.3900   -2.3152 H   0  0  0  0  0  0  0  0  0  0  0  0
   -4.1349    5.7877   -2.3152 H   0  0  0  0  0  0  0  0  0  0  0  0
   -4.7436    7.9335   -2.5187 H   0  0  0  0  0  0  0  0  0  0  0  0
   -6.1790    8.5400   -0.1111 H   0  0  0  0  0  0  0  0  0  0  0  0
   -4.8739    7.3109    0.2477 H   0  0  0  0  0  0  0  0  0  0  0  0
   -4.4485    9.9791   -1.1505 H   0  0  0  0  0  0  0  0  0  0  0  0
   -4.0933    9.6099    0.5887 H   0  0  0  0  0  0  0  0  0  0  0  0
   -3.2661    7.7999   -1.3071 H   0  0  0  0  0  0  0  0  0  0  0  0
   -1.7827   11.4164   -0.1514 H   0  0  0  0  0  0  0  0  0  0  0  0
   -0.8866   11.4775   -1.7070 H   0  0  0  0  0  0  0  0  0  0  0  0
   -2.6772   11.3346   -1.7070 H   0  0  0  0  0  0  0  0  0  0  0  0
    0.2464    8.5567   -1.3225 H   0  0  0  0  0  0  0  0  0  0  0  0
   -0.9233    8.1596   -2.6266 H   0  0  0  0  0  0  0  0  0  0  0  0
   -0.0830    9.7473   -2.6266 H   0  0  0  0  0  0  0  0  0  0  0  0
   -6.9030    8.7442   -2.3034 H   0  0  0  0  0  0  0  0  0  0  0  0
   -7.0483    7.6606   -4.4565 H   0  0  0  0  0  0  0  0  0  0  0  0
   -6.4736    6.1118   -3.8019 H   0  0  0  0  0  0  0  0  0  0  0  0
   -9.1819    6.7287   -4.4733 H   0  0  0  0  0  0  0  0  0  0  0  0
   -8.6984    5.3514   -3.4873 H   0  0  0  0  0  0  0  0  0  0  0  0
   -9.7821    9.2426   -1.9576 H   0  0  0  0  0  0  0  0  0  0  0  0
   -8.7868    8.9906   -3.4316 H   0  0  0  0  0  0  0  0  0  0  0  0
  -10.5238    8.5327   -3.4316 H   0  0  0  0  0  0  0  0  0  0  0  0
  -10.0629    5.4241   -1.4888 H   0  0  0  0  0  0  0  0  0  0  0  0
  -11.3704    6.2091   -3.5653 H   0  0  0  0  0  0  0  0  0  0  0  0
  -12.2287    5.4095   -2.1463 H   0  0  0  0  0  0  0  0  0  0  0  0
  -13.4393    7.4880   -3.2207 H   0  0  0  0  0  0  0  0  0  0  0  0
  -10.9868    9.1125   -0.4550 H   0  0  0  0  0  0  0  0  0  0  0  0
  -13.2002    7.7431    1.1956 H   0  0  0  0  0  0  0  0  0  0  0  0
  -11.7657    8.6590    1.8390 H   0  0  0  0  0  0  0  0  0  0  0  0
  -13.8463    9.9935    1.9299 H   0  0  0  0  0  0  0  0  0  0  0  0
  -12.5922   10.7125    0.8449 H   0  0  0  0  0  0  0  0  0  0  0  0
  -14.7311   10.8818   -0.2304 H   0  0  0  0  0  0  0  0  0  0  0  0
  -15.8540    9.2110    0.7930 H   0  0  0  0  0  0  0  0  0  0  0  0
  -12.4030   11.3493   -1.0558 H   0  0  0  0  0  0  0  0  0  0  0  0
  -11.9014   10.4995   -2.5567 H   0  0  0  0  0  0  0  0  0  0  0  0
  -13.3734   11.5289   -2.5567 H   0  0  0  0  0  0  0  0  0  0  0  0
  -15.7158    9.3959   -2.1095 H   0  0  0  0  0  0  0  0  0  0  0  0
  -14.7491   10.3984   -3.2440 H   0  0  0  0  0  0  0  0  0  0  0  0
  -14.5650    8.6115   -3.2440 H   0  0  0  0  0  0  0  0  0  0  0  0
  -11.4594    6.0309    1.6328 H   0  0  0  0  0  0  0  0  0  0  0  0
  -12.6247    5.8979    0.2723 H   0  0  0  0  0  0  0  0  0  0  0  0
  -11.1271    4.9061    0.2723 H   0  0  0  0  0  0  0  0  0  0  0  0
   -9.8199    8.0685    1.4217 H   0  0  0  0  0  0  0  0  0  0  0  0
   -9.1789    6.3742    1.0305 H   0  0  0  0  0  0  0  0  0  0  0  0
   -8.5533    8.9659   -0.4119 H   0  0  0  0  0  0  0  0  0  0  0  0
   -7.4454    7.9203    0.5603 H   0  0  0  0  0  0  0  0  0  0  0  0
   -7.5801    5.6328    0.2174 H   0  0  0  0  0  0  0  0  0  0  0  0
   -8.3173    4.9374   -1.2657 H   0  0  0  0  0  0  0  0  0  0  0  0
   -6.5883    5.4243   -1.2657 H   0  0  0  0  0  0  0  0  0  0  0  0
  1  2  1  0
  2  3  1  0
  3  4  1  0
  4  5  1  0
  5  6  1  0
  6  7  1  0
  7  8  1  0
  7  9  1  0
  2 10  1  0
 10 11  1  0
 11 12  1  0
 12 13  1  0
 13 14  1  6
 13 15  1  0
 15 16  1  0
 16 17  1  0
 17 18  2  0
 18 19  1  0
 19 20  1  0
 20 21  1  0
 21 22  1  0
 22 23  1  0
 22 24  1  0
 24 25  1  0
 24 26  1  0
 19 27  1  0
 27 28  1  1
 27 29  1  0
 29 30  1  0
 30 31  1  0
 31 32  1  1
  7  5  1  0
 31 10  1  0
 31 13  1  0
 27 15  1  0
 24 18  1  0
  1 33  1  0
  1 34  1  0
  1 35  1  0
  2 36  1  6
  3 37  1  0
  3 38  1  0
  4 39  1  0
  4 40  1  0
  5 41  1  6
  8 42  1  0
  8 43  1  0
  8 44  1  0
  9 45  1  0
  9 46  1  0
  9 47  1  0
 10 48  1  6
 11 49  1  0
 11 50  1  0
 12 51  1  0
 12 52  1  0
 14 53  1  0
 14 54  1  0
 14 55  1  0
 15 56  1  1
 16 57  1  0
 16 58  1  0
 17 59  1  0
 19 60  1  6
 20 61  1  0
 20 62  1  0
 21 63  1  0
 21 64  1  0
 22 65  1  6
 23 66  1  0
 25 67  1  0
 25 68  1  0
 25 69  1  0
 26 70  1  0
 26 71  1  0
 26 72  1  0
 28 73  1  0
 28 74  1  0
 28 75  1  0
 29 76  1  0
 29 77  1  0
 30 78  1  0
 30 79  1  0
 32 80  1  0
 32 81  1  0
 32 82  1  0
M  END
>  <meeko>  (13) 
{"is_sidechain": [false], "intermolecular_energy": 2.731, "internal_energy": -0.839}

$$$$
EPH_relaxed_0001_pdb2pqr_Repair_134_r2_0001_out
     RDKit          3D

 82 86  0  0  0  0  0  0  0  0999 V2000
    1.4650   17.7260   -2.6450 C   0  0  0  0  0  0  0  0  0  0  0  0
    2.7670   17.0780   -2.1670 C   0  0  2  0  0  0  0  0  0  0  0  0
    3.9970   17.6240   -2.9190 C   0  0  0  0  0  0  0  0  0  0  0  0
    5.3330   17.1570   -2.3330 C   0  0  0  0  0  0  0  0  0  0  0  0
    6.4960   17.6690   -3.1290 C   0  0  2  0  0  0  0  0  0  0  0  0
    6.2810   17.7070   -4.5460 O   0  0  0  0  0  0  0  0  0  0  0  0
    7.3010   16.8070   -4.0830 C   0  0  0  0  0  0  0  0  0  0  0  0
    6.9760   15.3610   -4.2920 C   0  0  0  0  0  0  0  0  0  0  0  0
    8.6910   17.2370   -4.4370 C   0  0  0  0  0  0  0  0  0  0  0  0
    2.6850   15.5650   -2.3320 C   0  0  1  0  0  0  0  0  0  0  0  0
    4.0670   14.9190   -2.6150 C   0  0  0  0  0  0  0  0  0  0  0  0
    4.0670   13.5360   -1.9150 C   0  0  0  0  0  0  0  0  0  0  0  0
    2.5870   13.2890   -1.5390 C   0  0  1  0  0  0  0  0  0  0  0  0
    1.9210   12.7670   -2.8510 C   0  0  0  0  0  0  0  0  0  0  0  0
    2.3310   12.3230   -0.3370 C   0  0  2  0  0  0  0  0  0  0  0  0
    2.8190   10.8790   -0.5460 C   0  0  0  0  0  0  0  0  0  0  0  0
    1.8180    9.9470   -1.1440 C   0  0  0  0  0  0  0  0  0  0  0  0
    0.4940   10.1760   -1.2380 C   0  0  0  0  0  0  0  0  0  0  0  0
   -0.1330   11.4340   -0.6220 C   0  0  1  0  0  0  0  0  0  0  0  0
   -1.4070   11.0420    0.1710 C   0  0  0  0  0  0  0  0  0  0  0  0
   -2.4000   10.2480   -0.6730 C   0  0  0  0  0  0  0  0  0  0  0  0
   -1.7560    8.9760   -1.2190 C   0  0  2  0  0  0  0  0  0  0  0  0
   -1.4690    8.0980   -0.1250 O   0  0  0  0  0  0  0  0  0  0  0  0
   -0.4570    9.2450   -2.0280 C   0  0  0  0  0  0  0  0  0  0  0  0
   -0.8130    9.9370   -3.3680 C   0  0  0  0  0  0  0  0  0  0  0  0
    0.1660    7.8730   -2.4010 C   0  0  0  0  0  0  0  0  0  0  0  0
    0.8500   12.3580    0.2190 C   0  0  1  0  0  0  0  0  0  0  0  0
    0.9160   11.8590    1.6940 C   0  0  0  0  0  0  0  0  0  0  0  0
    0.2640   13.8180    0.2690 C   0  0  0  0  0  0  0  0  0  0  0  0
    0.6500   14.7620   -0.8850 C   0  0  0  0  0  0  0  0  0  0  0  0
    2.1630   14.7450   -1.1250 C   0  0  2  0  0  0  0  0  0  0  0  0
    2.8580   15.2870    0.1700 C   0  0  0  0  0  0  0  0  0  0  0  0
    0.8633   18.0255   -1.7742 H   0  0  0  0  0  0  0  0  0  0  0  0
    1.6983   18.6131   -3.2521 H   0  0  0  0  0  0  0  0  0  0  0  0
    0.8979   17.0050   -3.2521 H   0  0  0  0  0  0  0  0  0  0  0  0
    2.8916   17.3300   -1.1035 H   0  0  0  0  0  0  0  0  0  0  0  0
    3.9409   17.2900   -3.9656 H   0  0  0  0  0  0  0  0  0  0  0  0
    3.9705   18.7198   -2.8267 H   0  0  0  0  0  0  0  0  0  0  0  0
    5.4178   17.5258   -1.3001 H   0  0  0  0  0  0  0  0  0  0  0  0
    5.3548   16.0576   -2.3616 H   0  0  0  0  0  0  0  0  0  0  0  0
    6.7946   18.3368   -2.3075 H   0  0  0  0  0  0  0  0  0  0  0  0
    6.8646   14.8655   -3.3163 H   0  0  0  0  0  0  0  0  0  0  0  0
    6.0360   15.2744   -4.8567 H   0  0  0  0  0  0  0  0  0  0  0  0
    7.7885   14.8805   -4.8567 H   0  0  0  0  0  0  0  0  0  0  0  0
    9.2656   17.4147   -3.5160 H   0  0  0  0  0  0  0  0  0  0  0  0
    9.1797   16.4480   -5.0275 H   0  0  0  0  0  0  0  0  0  0  0  0
    8.6488   18.1641   -5.0275 H   0  0  0  0  0  0  0  0  0  0  0  0
    1.9676   15.5093   -3.1640 H   0  0  0  0  0  0  0  0  0  0  0  0
    4.2123   14.7951   -3.6983 H   0  0  0  0  0  0  0  0  0  0  0  0
    4.8833   15.5523   -2.2375 H   0  0  0  0  0  0  0  0  0  0  0  0
    4.4295   12.7545   -2.5990 H   0  0  0  0  0  0  0  0  0  0  0  0
    4.7298   13.5126   -1.0375 H   0  0  0  0  0  0  0  0  0  0  0  0
    1.0786   12.1068   -2.5970 H   0  0  0  0  0  0  0  0  0  0  0  0
    1.5535   13.6201   -3.4402 H   0  0  0  0  0  0  0  0  0  0  0  0
    2.6616   12.2063   -3.4402 H   0  0  0  0  0  0  0  0  0  0  0  0
    2.9759   12.7460    0.4473 H   0  0  0  0  0  0  0  0  0  0  0  0
    3.6947   10.9092   -1.2110 H   0  0  0  0  0  0  0  0  0  0  0  0
    3.0401   10.4848    0.4568 H   0  0  0  0  0  0  0  0  0  0  0  0
    2.1934    8.9925   -1.5415 H   0  0  0  0  0  0  0  0  0  0  0  0
   -0.4048   12.0837   -1.4670 H   0  0  0  0  0  0  0  0  0  0  0  0
   -1.1100   10.4297    1.0353 H   0  0  0  0  0  0  0  0  0  0  0  0
   -1.9041   11.9716    0.4853 H   0  0  0  0  0  0  0  0  0  0  0  0
   -3.2647    9.9752   -0.0502 H   0  0  0  0  0  0  0  0  0  0  0  0
   -2.7188   10.8723   -1.5207 H   0  0  0  0  0  0  0  0  0  0  0  0
   -2.4713    8.5186   -1.9184 H   0  0  0  0  0  0  0  0  0  0  0  0
   -1.7800    8.5310    0.6880 H   0  0  0  0  0  0  0  0  0  0  0  0
   -1.3075   10.8982   -3.1642 H   0  0  0  0  0  0  0  0  0  0  0  0
    0.1066   10.1129   -3.9455 H   0  0  0  0  0  0  0  0  0  0  0  0
   -1.4908    9.2911   -3.9455 H   0  0  0  0  0  0  0  0  0  0  0  0
    0.4162    7.3220   -1.4824 H   0  0  0  0  0  0  0  0  0  0  0  0
   -0.5561    7.2910   -2.9925 H   0  0  0  0  0  0  0  0  0  0  0  0
    1.0794    8.0337   -2.9925 H   0  0  0  0  0  0  0  0  0  0  0  0
    0.8028   12.7146    2.3760 H   0  0  0  0  0  0  0  0  0  0  0  0
    0.1055   11.1373    1.8735 H   0  0  0  0  0  0  0  0  0  0  0  0
    1.8863   11.3728    1.8735 H   0  0  0  0  0  0  0  0  0  0  0  0
   -0.8329   13.7360    0.2789 H   0  0  0  0  0  0  0  0  0  0  0  0
    0.7009   14.2724    1.1705 H   0  0  0  0  0  0  0  0  0  0  0  0
    0.1366   14.4377   -1.8022 H   0  0  0  0  0  0  0  0  0  0  0  0
    0.3491   15.7854   -0.6164 H   0  0  0  0  0  0  0  0  0  0  0  0
    2.3446   14.8866    1.0566 H   0  0  0  0  0  0  0  0  0  0  0  0
    3.9110   14.9693    0.1814 H   0  0  0  0  0  0  0  0  0  0  0  0
    2.8064   16.3857    0.1814 H   0  0  0  0  0  0  0  0  0  0  0  0
  1  2  1  0
  2  3  1  0
  3  4  1  0
  4  5  1  0
  5  6  1  0
  6  7  1  0
  7  8  1  0
  7  9  1  0
  2 10  1  0
 10 11  1  0
 11 12  1  0
 12 13  1  0
 13 14  1  6
 13 15  1  0
 15 16  1  0
 16 17  1  0
 17 18  2  0
 18 19  1  0
 19 20  1  0
 20 21  1  0
 21 22  1  0
 22 23  1  0
 22 24  1  0
 24 25  1  0
 24 26  1  0
 19 27  1  0
 27 28  1  1
 27 29  1  0
 29 30  1  0
 30 31  1  0
 31 32  1  1
  7  5  1  0
 31 10  1  0
 31 13  1  0
 27 15  1  0
 24 18  1  0
  1 33  1  0
  1 34  1  0
  1 35  1  0
  2 36  1  1
  3 37  1  0
  3 38  1  0
  4 39  1  0
  4 40  1  0
  5 41  1  1
  8 42  1  0
  8 43  1  0
  8 44  1  0
  9 45  1  0
  9 46  1  0
  9 47  1  0
 10 48  1  6
 11 49  1  0
 11 50  1  0
 12 51  1  0
 12 52  1  0
 14 53  1  0
 14 54  1  0
 14 55  1  0
 15 56  1  1
 16 57  1  0
 16 58  1  0
 17 59  1  0
 19 60  1  6
 20 61  1  0
 20 62  1  0
 21 63  1  0
 21 64  1  0
 22 65  1  6
 23 66  1  0
 25 67  1  0
 25 68  1  0
 25 69  1  0
 26 70  1  0
 26 71  1  0
 26 72  1  0
 28 73  1  0
 28 74  1  0
 28 75  1  0
 29 76  1  0
 29 77  1  0
 30 78  1  0
 30 79  1  0
 32 80  1  0
 32 81  1  0
 32 82  1  0
M  END
>  <meeko>  (14) 
{"is_sidechain": [false], "intermolecular_energy": 2.731, "internal_energy": -0.839}

$$$$
EPH_relaxed_0001_pdb2pqr_Repair_134_r2_0001_out
     RDKit          3D

 82 86  0  0  0  0  0  0  0  0999 V2000
    2.0180   18.2750   -2.8990 C   0  0  0  0  0  0  0  0  0  0  0  0
    3.3690   17.8140   -2.3450 C   0  0  2  0  0  0  0  0  0  0  0  0
    4.4420   17.7040   -3.4470 C   0  0  0  0  0  0  0  0  0  0  0  0
    5.6440   16.8410   -3.0520 C   0  0  0  0  0  0  0  0  0  0  0  0
    5.2880   15.3860   -2.9980 C   0  0  2  0  0  0  0  0  0  0  0  0
    6.3010   14.5420   -2.4360 O   0  0  0  0  0  0  0  0  0  0  0  0
    5.9890   14.3220   -3.8210 C   0  0  0  0  0  0  0  0  0  0  0  0
    7.1030   14.6690   -4.7580 C   0  0  0  0  0  0  0  0  0  0  0  0
    5.2760   13.0320   -4.0810 C   0  0  0  0  0  0  0  0  0  0  0  0
    3.2100   16.4730   -1.6370 C   0  0  1  0  0  0  0  0  0  0  0  0
    3.4590   16.5720   -0.1080 C   0  0  0  0  0  0  0  0  0  0  0  0
    2.4910   15.5680    0.5690 C   0  0  0  0  0  0  0  0  0  0  0  0
    1.9590   14.6960   -0.5930 C   0  0  1  0  0  0  0  0  0  0  0  0
    3.0790   13.6380   -0.8450 C   0  0  0  0  0  0  0  0  0  0  0  0
    0.5670   14.0200   -0.3680 C   0  0  2  0  0  0  0  0  0  0  0  0
    0.5090   13.0160    0.7960 C   0  0  0  0  0  0  0  0  0  0  0  0
    0.8230   11.6020    0.4350 C   0  0  0  0  0  0  0  0  0  0  0  0
    0.8600   11.1040   -0.8150 C   0  0  0  0  0  0  0  0  0  0  0  0
    0.4720   11.9700   -2.0200 C   0  0  1  0  0  0  0  0  0  0  0  0
   -0.4800   11.1700   -2.9470 C   0  0  0  0  0  0  0  0  0  0  0  0
    0.1020    9.8220   -3.3610 C   0  0  0  0  0  0  0  0  0  0  0  0
    0.4200    8.9670   -2.1370 C   0  0  2  0  0  0  0  0  0  0  0  0
   -0.8050    8.6170   -1.4870 O   0  0  0  0  0  0  0  0  0  0  0  0
    1.3660    9.6730   -1.1250 C   0  0  0  0  0  0  0  0  0  0  0  0
    2.7880    9.7800   -1.7290 C   0  0  0  0  0  0  0  0  0  0  0  0
    1.4930    8.7620    0.1250 C   0  0  0  0  0  0  0  0  0  0  0  0
   -0.0810   13.4200   -1.6810 C   0  0  1  0  0  0  0  0  0  0  0  0
   -1.6190   13.3580   -1.4300 C   0  0  0  0  0  0  0  0  0  0  0  0
    0.1260   14.3550   -2.9320 C   0  0  0  0  0  0  0  0  0  0  0  0
    1.4770   15.0880   -3.0350 C   0  0  0  0  0  0  0  0  0  0  0  0
    1.8240   15.7870   -1.7160 C   0  0  2  0  0  0  0  0  0  0  0  0
    0.7260   16.8720   -1.4480 C   0  0  0  0  0  0  0  0  0  0  0  0
    1.3394   18.5066   -2.0648 H   0  0  0  0  0  0  0  0  0  0  0  0
    2.1621   19.1748   -3.5151 H   0  0  0  0  0  0  0  0  0  0  0  0
    1.5820   17.4748   -3.5151 H   0  0  0  0  0  0  0  0  0  0  0  0
    3.7097   18.5753   -1.6278 H   0  0  0  0  0  0  0  0  0  0  0  0
    3.9773   17.2636   -4.3415 H   0  0  0  0  0  0  0  0  0  0  0  0
    4.8217   18.7203   -3.6285 H   0  0  0  0  0  0  0  0  0  0  0  0
    6.4448   16.9848   -3.7923 H   0  0  0  0  0  0  0  0  0  0  0  0
    5.9738   17.1508   -2.0494 H   0  0  0  0  0  0  0  0  0  0  0  0
    4.2242   15.6277   -2.8569 H   0  0  0  0  0  0  0  0  0  0  0  0
    7.9959   14.9471   -4.1790 H   0  0  0  0  0  0  0  0  0  0  0  0
    7.3331   13.8000   -5.3919 H   0  0  0  0  0  0  0  0  0  0  0  0
    6.7989   15.5150   -5.3919 H   0  0  0  0  0  0  0  0  0  0  0  0
    5.0142   12.5583   -3.1234 H   0  0  0  0  0  0  0  0  0  0  0  0
    4.3588   13.2293   -4.6554 H   0  0  0  0  0  0  0  0  0  0  0  0
    5.9310   12.3603   -4.6554 H   0  0  0  0  0  0  0  0  0  0  0  0
    3.9542   15.8824   -2.1914 H   0  0  0  0  0  0  0  0  0  0  0  0
    4.5014   16.3081    0.1238 H   0  0  0  0  0  0  0  0  0  0  0  0
    3.2838   17.5954    0.2551 H   0  0  0  0  0  0  0  0  0  0  0  0
    3.0252   14.9498    1.3056 H   0  0  0  0  0  0  0  0  0  0  0  0
    1.6815   16.0730    1.1165 H   0  0  0  0  0  0  0  0  0  0  0  0
    3.4637   13.2746    0.1193 H   0  0  0  0  0  0  0  0  0  0  0  0
    2.6644   12.7941   -1.4159 H   0  0  0  0  0  0  0  0  0  0  0  0
    3.8980   14.0999   -1.4159 H   0  0  0  0  0  0  0  0  0  0  0  0
   -0.0606   14.8695   -0.0606 H   0  0  0  0  0  0  0  0  0  0  0  0
    1.2307   13.3399    1.5604 H   0  0  0  0  0  0  0  0  0  0  0  0
   -0.5338   13.0162    1.1462 H   0  0  0  0  0  0  0  0  0  0  0  0
    1.0427   10.9085    1.2601 H   0  0  0  0  0  0  0  0  0  0  0  0
    1.4096   12.1916   -2.5508 H   0  0  0  0  0  0  0  0  0  0  0  0
   -1.4269   10.9966   -2.4147 H   0  0  0  0  0  0  0  0  0  0  0  0
   -0.6317   11.7628   -3.8611 H   0  0  0  0  0  0  0  0  0  0  0  0
   -0.6283    9.2924   -3.9904 H   0  0  0  0  0  0  0  0  0  0  0  0
    1.0337    9.9978   -3.9186 H   0  0  0  0  0  0  0  0  0  0  0  0
    0.9514    8.0711   -2.4904 H   0  0  0  0  0  0  0  0  0  0  0  0
   -1.5330    8.9970   -2.0080 H   0  0  0  0  0  0  0  0  0  0  0  0
    3.5280    9.8357   -0.9170 H   0  0  0  0  0  0  0  0  0  0  0  0
    2.9904    8.8945   -2.3495 H   0  0  0  0  0  0  0  0  0  0  0  0
    2.8556   10.6858   -2.3495 H   0  0  0  0  0  0  0  0  0  0  0  0
    1.4077    9.3741    1.0350 H   0  0  0  0  0  0  0  0  0  0  0  0
    0.6911    8.0091    0.1130 H   0  0  0  0  0  0  0  0  0  0  0  0
    2.4702    8.2571    0.1130 H   0  0  0  0  0  0  0  0  0  0  0  0
   -1.8138   13.3501   -0.3474 H   0  0  0  0  0  0  0  0  0  0  0  0
   -2.1002   14.2375   -1.8828 H   0  0  0  0  0  0  0  0  0  0  0  0
   -2.0278   12.4426   -1.8828 H   0  0  0  0  0  0  0  0  0  0  0  0
    0.0144   13.7345   -3.8334 H   0  0  0  0  0  0  0  0  0  0  0  0
   -0.6258   15.1507   -2.8243 H   0  0  0  0  0  0  0  0  0  0  0  0
    2.2649   14.3585   -3.2737 H   0  0  0  0  0  0  0  0  0  0  0  0
    1.4038   15.8486   -3.8263 H   0  0  0  0  0  0  0  0  0  0  0  0
    0.5952   17.0012   -0.3635 H   0  0  0  0  0  0  0  0  0  0  0  0
    1.0372   17.8271   -1.8962 H   0  0  0  0  0  0  0  0  0  0  0  0
   -0.2254   16.5494   -1.8962 H   0  0  0  0  0  0  0  0  0  0  0  0
  1  2  1  0
  2  3  1  0
  3  4  1  0
  4  5  1  0
  5  6  1  0
  6  7  1  0
  7  8  1  0
  7  9  1  0
  2 10  1  0
 10 11  1  0
 11 12  1  0
 12 13  1  0
 13 14  1  6
 13 15  1  0
 15 16  1  0
 16 17  1  0
 17 18  2  0
 18 19  1  0
 19 20  1  0
 20 21  1  0
 21 22  1  0
 22 23  1  0
 22 24  1  0
 24 25  1  0
 24 26  1  0
 19 27  1  0
 27 28  1  1
 27 29  1  0
 29 30  1  0
 30 31  1  0
 31 32  1  1
  7  5  1  0
 31 10  1  0
 31 13  1  0
 27 15  1  0
 24 18  1  0
  1 33  1  0
  1 34  1  0
  1 35  1  0
  2 36  1  1
  3 37  1  0
  3 38  1  0
  4 39  1  0
  4 40  1  0
  5 41  1  1
  8 42  1  0
  8 43  1  0
  8 44  1  0
  9 45  1  0
  9 46  1  0
  9 47  1  0
 10 48  1  6
 11 49  1  0
 11 50  1  0
 12 51  1  0
 12 52  1  0
 14 53  1  0
 14 54  1  0
 14 55  1  0
 15 56  1  1
 16 57  1  0
 16 58  1  0
 17 59  1  0
 19 60  1  6
 20 61  1  0
 20 62  1  0
 21 63  1  0
 21 64  1  0
 22 65  1  6
 23 66  1  0
 25 67  1  0
 25 68  1  0
 25 69  1  0
 26 70  1  0
 26 71  1  0
 26 72  1  0
 28 73  1  0
 28 74  1  0
 28 75  1  0
 29 76  1  0
 29 77  1  0
 30 78  1  0
 30 79  1  0
 32 80  1  0
 32 81  1  0
 32 82  1  0
M  END
>  <meeko>  (15) 
{"is_sidechain": [false], "intermolecular_energy": 2.731, "internal_energy": -0.839}

$$$$
EPH_relaxed_0001_pdb2pqr_Repair_134_r2_0001_out
     RDKit          3D

 82 86  0  0  0  0  0  0  0  0999 V2000
    2.8500   10.1860   -3.0490 C   0  0  0  0  0  0  0  0  0  0  0  0
    1.5650   10.1660   -2.2160 C   0  0  2  0  0  0  0  0  0  0  0  0
    0.3050   10.0340   -3.0950 C   0  0  0  0  0  0  0  0  0  0  0  0
   -0.7100    9.0170   -2.5680 C   0  0  0  0  0  0  0  0  0  0  0  0
   -0.8900    9.1320   -1.0840 C   0  0  2  0  0  0  0  0  0  0  0  0
   -2.2560    9.1560   -0.6470 O   0  0  0  0  0  0  0  0  0  0  0  0
   -1.4920   10.3490   -0.4070 C   0  0  0  0  0  0  0  0  0  0  0  0
   -1.9510   11.5350   -1.1970 C   0  0  0  0  0  0  0  0  0  0  0  0
   -1.1870   10.5880    1.0390 C   0  0  0  0  0  0  0  0  0  0  0  0
    1.4770   11.4290   -1.3670 C   0  0  1  0  0  0  0  0  0  0  0  0
    2.3050   11.3270   -0.0580 C   0  0  0  0  0  0  0  0  0  0  0  0
    2.8700   12.7430    0.2240 C   0  0  0  0  0  0  0  0  0  0  0  0
    2.0870   13.6740   -0.7310 C   0  0  1  0  0  0  0  0  0  0  0  0
    0.7270   13.9350   -0.0100 C   0  0  0  0  0  0  0  0  0  0  0  0
    2.7940   15.0100   -1.1290 C   0  0  2  0  0  0  0  0  0  0  0  0
    3.0800   15.9700    0.0380 C   0  0  0  0  0  0  0  0  0  0  0  0
    1.9990   16.9580    0.3300 C   0  0  0  0  0  0  0  0  0  0  0  0
    0.9740   17.2600   -0.4880 C   0  0  0  0  0  0  0  0  0  0  0  0
    0.8830   16.6530   -1.8940 C   0  0  1  0  0  0  0  0  0  0  0  0
    0.5450   17.7680   -2.9180 C   0  0  0  0  0  0  0  0  0  0  0  0
   -0.7080   18.5520   -2.5380 C   0  0  0  0  0  0  0  0  0  0  0  0
   -0.5560   19.1880   -1.1590 C   0  0  2  0  0  0  0  0  0  0  0  0
    0.4600   20.1930   -1.2250 O   0  0  0  0  0  0  0  0  0  0  0  0
   -0.2050   18.1620   -0.0460 C   0  0  0  0  0  0  0  0  0  0  0  0
   -1.4300   17.2570    0.2340 C   0  0  0  0  0  0  0  0  0  0  0  0
    0.0600   18.9510    1.2650 C   0  0  0  0  0  0  0  0  0  0  0  0
    2.1190   15.7630   -2.3460 C   0  0  1  0  0  0  0  0  0  0  0  0
    3.2220   16.6660   -2.9780 C   0  0  0  0  0  0  0  0  0  0  0  0
    1.6530   14.7730   -3.4780 C   0  0  0  0  0  0  0  0  0  0  0  0
    1.0720   13.4210   -3.0230 C   0  0  0  0  0  0  0  0  0  0  0  0
    1.9890   12.7480   -1.9980 C   0  0  2  0  0  0  0  0  0  0  0  0
    3.3580   12.4530   -2.7010 C   0  0  0  0  0  0  0  0  0  0  0  0
    3.7217   10.1996   -2.3782 H   0  0  0  0  0  0  0  0  0  0  0  0
    2.8896    9.2884   -3.6836 H   0  0  0  0  0  0  0  0  0  0  0  0
    2.8617   11.0844   -3.6836 H   0  0  0  0  0  0  0  0  0  0  0  0
    1.6069    9.2811   -1.5640 H   0  0  0  0  0  0  0  0  0  0  0  0
   -0.1850   11.0173   -3.1492 H   0  0  0  0  0  0  0  0  0  0  0  0
    0.6371    9.6752   -4.0804 H   0  0  0  0  0  0  0  0  0  0  0  0
   -1.6784    9.1923   -3.0593 H   0  0  0  0  0  0  0  0  0  0  0  0
   -0.3322    8.0082   -2.7907 H   0  0  0  0  0  0  0  0  0  0  0  0
    0.0389    8.5711   -0.9034 H   0  0  0  0  0  0  0  0  0  0  0  0
   -2.2609   12.3358   -0.5095 H   0  0  0  0  0  0  0  0  0  0  0  0
   -1.1271   11.8945   -1.8310 H   0  0  0  0  0  0  0  0  0  0  0  0
   -2.8023   11.2461   -1.8310 H   0  0  0  0  0  0  0  0  0  0  0  0
   -1.9008   10.0287    1.6616 H   0  0  0  0  0  0  0  0  0  0  0  0
   -0.1641   10.2485    1.2590 H   0  0  0  0  0  0  0  0  0  0  0  0
   -1.2720   11.6624    1.2590 H   0  0  0  0  0  0  0  0  0  0  0  0
    0.3875   11.4797   -1.2240 H   0  0  0  0  0  0  0  0  0  0  0  0
    1.6614   11.0033    0.7733 H   0  0  0  0  0  0  0  0  0  0  0  0
    3.1159   10.5907   -0.1594 H   0  0  0  0  0  0  0  0  0  0  0  0
    2.6972   13.0282    1.2722 H   0  0  0  0  0  0  0  0  0  0  0  0
    3.9566   12.7981    0.0616 H   0  0  0  0  0  0  0  0  0  0  0  0
    0.8780   13.9060    1.0792 H   0  0  0  0  0  0  0  0  0  0  0  0
    0.3417   14.9235   -0.3006 H   0  0  0  0  0  0  0  0  0  0  0  0
    0.0031   13.1594   -0.3006 H   0  0  0  0  0  0  0  0  0  0  0  0
    3.7780   14.6616   -1.4759 H   0  0  0  0  0  0  0  0  0  0  0  0
    3.2423   15.3662    0.9430 H   0  0  0  0  0  0  0  0  0  0  0  0
    3.9590   16.5598   -0.2612 H   0  0  0  0  0  0  0  0  0  0  0  0
    2.0444   17.4834    1.2954 H   0  0  0  0  0  0  0  0  0  0  0  0
    0.0638   15.9199   -1.8567 H   0  0  0  0  0  0  0  0  0  0  0  0
    1.3940   18.4653   -2.9730 H   0  0  0  0  0  0  0  0  0  0  0  0
    0.3547   17.2842   -3.8874 H   0  0  0  0  0  0  0  0  0  0  0  0
   -0.8771   19.3436   -3.2829 H   0  0  0  0  0  0  0  0  0  0  0  0
   -1.5618   17.8589   -2.5128 H   0  0  0  0  0  0  0  0  0  0  0  0
   -1.5289   19.6236   -0.8875 H   0  0  0  0  0  0  0  0  0  0  0  0
    0.8120   20.3160   -0.3270 H   0  0  0  0  0  0  0  0  0  0  0  0
   -1.5692   17.1541    1.3203 H   0  0  0  0  0  0  0  0  0  0  0  0
   -2.3292   17.7094   -0.2097 H   0  0  0  0  0  0  0  0  0  0  0  0
   -1.2618   16.2646   -0.2097 H   0  0  0  0  0  0  0  0  0  0  0  0
   -0.1562   18.3073    2.1304 H   0  0  0  0  0  0  0  0  0  0  0  0
    1.1134   19.2663    1.2966 H   0  0  0  0  0  0  0  0  0  0  0  0
   -0.5895   19.8383    1.2966 H   0  0  0  0  0  0  0  0  0  0  0  0
    3.8066   17.1446   -2.1785 H   0  0  0  0  0  0  0  0  0  0  0  0
    3.8877   16.0502   -3.6007 H   0  0  0  0  0  0  0  0  0  0  0  0
    2.7498   17.4402   -3.6007 H   0  0  0  0  0  0  0  0  0  0  0  0
    0.8801   15.2849   -4.0702 H   0  0  0  0  0  0  0  0  0  0  0  0
    2.5680   14.5204   -4.0338 H   0  0  0  0  0  0  0  0  0  0  0  0
    0.0848   13.5885   -2.5675 H   0  0  0  0  0  0  0  0  0  0  0  0
    0.9844   12.7635   -3.9005 H   0  0  0  0  0  0  0  0  0  0  0  0
    4.1332   12.2860   -1.9386 H   0  0  0  0  0  0  0  0  0  0  0  0
    3.2617   11.5550   -3.3289 H   0  0  0  0  0  0  0  0  0  0  0  0
    3.6401   13.3110   -3.3289 H   0  0  0  0  0  0  0  0  0  0  0  0
  1  2  1  0
  2  3  1  0
  3  4  1  0
  4  5  1  0
  5  6  1  0
  6  7  1  0
  7  8  1  0
  7  9  1  0
  2 10  1  0
 10 11  1  0
 11 12  1  0
 12 13  1  0
 13 14  1  1
 13 15  1  0
 15 16  1  0
 16 17  1  0
 17 18  2  0
 18 19  1  0
 19 20  1  0
 20 21  1  0
 21 22  1  0
 22 23  1  0
 22 24  1  0
 24 25  1  0
 24 26  1  0
 19 27  1  0
 27 28  1  6
 27 29  1  0
 29 30  1  0
 30 31  1  0
 31 32  1  6
  7  5  1  0
 31 10  1  0
 31 13  1  0
 27 15  1  0
 24 18  1  0
  1 33  1  0
  1 34  1  0
  1 35  1  0
  2 36  1  1
  3 37  1  0
  3 38  1  0
  4 39  1  0
  4 40  1  0
  5 41  1  1
  8 42  1  0
  8 43  1  0
  8 44  1  0
  9 45  1  0
  9 46  1  0
  9 47  1  0
 10 48  1  1
 11 49  1  0
 11 50  1  0
 12 51  1  0
 12 52  1  0
 14 53  1  0
 14 54  1  0
 14 55  1  0
 15 56  1  6
 16 57  1  0
 16 58  1  0
 17 59  1  0
 19 60  1  1
 20 61  1  0
 20 62  1  0
 21 63  1  0
 21 64  1  0
 22 65  1  1
 23 66  1  0
 25 67  1  0
 25 68  1  0
 25 69  1  0
 26 70  1  0
 26 71  1  0
 26 72  1  0
 28 73  1  0
 28 74  1  0
 28 75  1  0
 29 76  1  0
 29 77  1  0
 30 78  1  0
 30 79  1  0
 32 80  1  0
 32 81  1  0
 32 82  1  0
M  END
>  <meeko>  (16) 
{"is_sidechain": [false], "intermolecular_energy": 2.731, "internal_energy": -0.839}

$$$$
EPH_relaxed_0001_pdb2pqr_Repair_134_r2_0001_out
     RDKit          3D

 82 86  0  0  0  0  0  0  0  0999 V2000
   -0.2950   10.4020   -2.2530 C   0  0  0  0  0  0  0  0  0  0  0  0
    0.6400   10.2500   -1.0500 C   0  0  2  0  0  0  0  0  0  0  0  0
   -0.1350   10.1320    0.2770 C   0  0  0  0  0  0  0  0  0  0  0  0
    0.6370   10.6570    1.4900 C   0  0  0  0  0  0  0  0  0  0  0  0
   -0.1190   11.7370    2.2040 C   0  0  2  0  0  0  0  0  0  0  0  0
    0.4730   13.0400    2.1170 O   0  0  0  0  0  0  0  0  0  0  0  0
    0.4100   12.4590    3.4290 C   0  0  0  0  0  0  0  0  0  0  0  0
    1.7480   12.1280    4.0130 C   0  0  0  0  0  0  0  0  0  0  0  0
   -0.5680   13.1330    4.3400 C   0  0  0  0  0  0  0  0  0  0  0  0
    1.6020   11.4310   -0.9880 C   0  0  1  0  0  0  0  0  0  0  0  0
    2.9440   11.1470   -1.7160 C   0  0  0  0  0  0  0  0  0  0  0  0
    3.3980   12.4860   -2.3530 C   0  0  0  0  0  0  0  0  0  0  0  0
    2.4920   13.5560   -1.7010 C   0  0  1  0  0  0  0  0  0  0  0  0
    3.1480   13.8470   -0.3150 C   0  0  0  0  0  0  0  0  0  0  0  0
    2.2710   14.8680   -2.5220 C   0  0  2  0  0  0  0  0  0  0  0  0
    3.5430   15.6920   -2.7900 C   0  0  0  0  0  0  0  0  0  0  0  0
    3.8630   16.7240   -1.7600 C   0  0  0  0  0  0  0  0  0  0  0  0
    3.0160   17.1760   -0.8160 C   0  0  0  0  0  0  0  0  0  0  0  0
    1.5540   16.7110   -0.7820 C   0  0  1  0  0  0  0  0  0  0  0  0
    0.6250   17.9390   -0.5910 C   0  0  0  0  0  0  0  0  0  0  0  0
    1.0010   18.7720    0.6300 C   0  0  0  0  0  0  0  0  0  0  0  0
    2.4420   19.2640    0.5320 C   0  0  2  0  0  0  0  0  0  0  0  0
    2.5390   20.1940   -0.5510 O   0  0  0  0  0  0  0  0  0  0  0  0
    3.4690   18.1160    0.3280 C   0  0  0  0  0  0  0  0  0  0  0  0
    3.5810   17.2810    1.6280 C   0  0  0  0  0  0  0  0  0  0  0  0
    4.8650   18.7580    0.1030 C   0  0  0  0  0  0  0  0  0  0  0  0
    1.0950   15.7790   -1.9840 C   0  0  1  0  0  0  0  0  0  0  0  0
    0.6240   16.6540   -3.1860 C   0  0  0  0  0  0  0  0  0  0  0  0
   -0.1560   14.9360   -1.5330 C   0  0  0  0  0  0  0  0  0  0  0  0
    0.1270   13.5930   -0.8330 C   0  0  0  0  0  0  0  0  0  0  0  0
    1.1370   12.7620   -1.6300 C   0  0  2  0  0  0  0  0  0  0  0  0
    0.4950   12.4350   -3.0210 C   0  0  0  0  0  0  0  0  0  0  0  0
   -1.3231   10.5691   -1.8995 H   0  0  0  0  0  0  0  0  0  0  0  0
    0.0273   11.2595   -2.8619 H   0  0  0  0  0  0  0  0  0  0  0  0
   -0.2609    9.4865   -2.8619 H   0  0  0  0  0  0  0  0  0  0  0  0
    1.2051    9.3161   -1.1859 H   0  0  0  0  0  0  0  0  0  0  0  0
   -1.0694   10.7052    0.1855 H   0  0  0  0  0  0  0  0  0  0  0  0
   -0.3147    9.0606    0.4498 H   0  0  0  0  0  0  0  0  0  0  0  0
    0.8137    9.8249    2.1874 H   0  0  0  0  0  0  0  0  0  0  0  0
    1.5871   11.0818    1.1339 H   0  0  0  0  0  0  0  0  0  0  0  0
   -1.0760   11.2348    1.9995 H   0  0  0  0  0  0  0  0  0  0  0  0
    1.6830   12.1441    5.1110 H   0  0  0  0  0  0  0  0  0  0  0  0
    2.0564   11.1265    3.6786 H   0  0  0  0  0  0  0  0  0  0  0  0
    2.4878   12.8702    3.6786 H   0  0  0  0  0  0  0  0  0  0  0  0
   -0.2879   12.9399    5.3861 H   0  0  0  0  0  0  0  0  0  0  0  0
   -0.5578   14.2167    4.1517 H   0  0  0  0  0  0  0  0  0  0  0  0
   -1.5771   12.7376    4.1517 H   0  0  0  0  0  0  0  0  0  0  0  0
    1.6811   11.5472    0.1030 H   0  0  0  0  0  0  0  0  0  0  0  0
    3.6981   10.7945   -0.9969 H   0  0  0  0  0  0  0  0  0  0  0  0
    2.8213   10.3665   -2.4813 H   0  0  0  0  0  0  0  0  0  0  0  0
    4.4563   12.6839   -2.1277 H   0  0  0  0  0  0  0  0  0  0  0  0
    3.3098   12.4771   -3.4494 H   0  0  0  0  0  0  0  0  0  0  0  0
    2.4603   13.5419    0.4875 H   0  0  0  0  0  0  0  0  0  0  0  0
    4.0872   13.2811   -0.2278 H   0  0  0  0  0  0  0  0  0  0  0  0
    3.3588   14.9231   -0.2278 H   0  0  0  0  0  0  0  0  0  0  0  0
    1.9529   14.4823   -3.5018 H   0  0  0  0  0  0  0  0  0  0  0  0
    4.3927   14.9959   -2.8492 H   0  0  0  0  0  0  0  0  0  0  0  0
    3.3581   16.2419   -3.7246 H   0  0  0  0  0  0  0  0  0  0  0  0
    4.8765   17.1513   -1.7734 H   0  0  0  0  0  0  0  0  0  0  0  0
    1.4679   16.0395    0.0850 H   0  0  0  0  0  0  0  0  0  0  0  0
    0.6924   18.5748   -1.4861 H   0  0  0  0  0  0  0  0  0  0  0  0
   -0.3975   17.5637   -0.4373 H   0  0  0  0  0  0  0  0  0  0  0  0
    0.3280   19.6397    0.6949 H   0  0  0  0  0  0  0  0  0  0  0  0
    0.9052   18.1428    1.5272 H   0  0  0  0  0  0  0  0  0  0  0  0
    2.6928   19.7423    1.4903 H   0  0  0  0  0  0  0  0  0  0  0  0
    1.8730   19.9450   -1.2140 H   0  0  0  0  0  0  0  0  0  0  0  0
    3.4918   17.9460    2.4997 H   0  0  0  0  0  0  0  0  0  0  0  0
    2.7752   16.5327    1.6537 H   0  0  0  0  0  0  0  0  0  0  0  0
    4.5555   16.7715    1.6537 H   0  0  0  0  0  0  0  0  0  0  0  0
    5.3311   18.9724    1.0760 H   0  0  0  0  0  0  0  0  0  0  0  0
    5.5016   18.0622   -0.4632 H   0  0  0  0  0  0  0  0  0  0  0  0
    4.7511   19.6942   -0.4632 H   0  0  0  0  0  0  0  0  0  0  0  0
    0.1344   17.5635   -2.8078 H   0  0  0  0  0  0  0  0  0  0  0  0
    1.4935   16.9335   -3.7990 H   0  0  0  0  0  0  0  0  0  0  0  0
   -0.0882   16.0821   -3.7990 H   0  0  0  0  0  0  0  0  0  0  0  0
   -0.7424   15.5560   -0.8389 H   0  0  0  0  0  0  0  0  0  0  0  0
   -0.6756   14.6706   -2.4655 H   0  0  0  0  0  0  0  0  0  0  0  0
    0.5338   13.7887    0.1701 H   0  0  0  0  0  0  0  0  0  0  0  0
   -0.8145   13.0285   -0.7631 H   0  0  0  0  0  0  0  0  0  0  0  0
   -0.4758   11.9405   -2.8696 H   0  0  0  0  0  0  0  0  0  0  0  0
    0.3474   13.3678   -3.5851 H   0  0  0  0  0  0  0  0  0  0  0  0
    1.1627   11.7671   -3.5851 H   0  0  0  0  0  0  0  0  0  0  0  0
  1  2  1  0
  2  3  1  0
  3  4  1  0
  4  5  1  0
  5  6  1  0
  6  7  1  0
  7  8  1  0
  7  9  1  0
  2 10  1  0
 10 11  1  0
 11 12  1  0
 12 13  1  0
 13 14  1  1
 13 15  1  0
 15 16  1  0
 16 17  1  0
 17 18  2  0
 18 19  1  0
 19 20  1  0
 20 21  1  0
 21 22  1  0
 22 23  1  0
 22 24  1  0
 24 25  1  0
 24 26  1  0
 19 27  1  0
 27 28  1  6
 27 29  1  0
 29 30  1  0
 30 31  1  0
 31 32  1  6
  7  5  1  0
 31 10  1  0
 31 13  1  0
 27 15  1  0
 24 18  1  0
  1 33  1  0
  1 34  1  0
  1 35  1  0
  2 36  1  6
  3 37  1  0
  3 38  1  0
  4 39  1  0
  4 40  1  0
  5 41  1  1
  8 42  1  0
  8 43  1  0
  8 44  1  0
  9 45  1  0
  9 46  1  0
  9 47  1  0
 10 48  1  1
 11 49  1  0
 11 50  1  0
 12 51  1  0
 12 52  1  0
 14 53  1  0
 14 54  1  0
 14 55  1  0
 15 56  1  6
 16 57  1  0
 16 58  1  0
 17 59  1  0
 19 60  1  1
 20 61  1  0
 20 62  1  0
 21 63  1  0
 21 64  1  0
 22 65  1  1
 23 66  1  0
 25 67  1  0
 25 68  1  0
 25 69  1  0
 26 70  1  0
 26 71  1  0
 26 72  1  0
 28 73  1  0
 28 74  1  0
 28 75  1  0
 29 76  1  0
 29 77  1  0
 30 78  1  0
 30 79  1  0
 32 80  1  0
 32 81  1  0
 32 82  1  0
M  END
>  <meeko>  (17) 
{"is_sidechain": [false], "intermolecular_energy": 2.731, "internal_energy": -0.839}

$$$$
EPH_relaxed_0001_pdb2pqr_Repair_134_r2_0001_out
     RDKit          3D

 82 86  0  0  0  0  0  0  0  0999 V2000
   -0.1990    8.3160   -3.2510 C   0  0  0  0  0  0  0  0  0  0  0  0
   -0.7990    8.7410   -1.9080 C   0  0  2  0  0  0  0  0  0  0  0  0
   -2.1760    8.0950   -1.6570 C   0  0  0  0  0  0  0  0  0  0  0  0
   -2.7080    7.2960   -2.8500 C   0  0  0  0  0  0  0  0  0  0  0  0
   -4.1970    7.4110   -2.9750 C   0  0  2  0  0  0  0  0  0  0  0  0
   -4.9150    7.2510   -1.7440 O   0  0  0  0  0  0  0  0  0  0  0  0
   -5.1480    6.2500   -2.7480 C   0  0  0  0  0  0  0  0  0  0  0  0
   -4.6450    4.8900   -2.3800 C   0  0  0  0  0  0  0  0  0  0  0  0
   -6.5140    6.3150   -3.3580 C   0  0  0  0  0  0  0  0  0  0  0  0
   -0.9180   10.2590   -1.8490 C   0  0  1  0  0  0  0  0  0  0  0  0
   -2.2450   10.7300   -1.1960 C   0  0  0  0  0  0  0  0  0  0  0  0
   -1.9210   12.0270   -0.4110 C   0  0  0  0  0  0  0  0  0  0  0  0
   -0.5150   12.4410   -0.9030 C   0  0  1  0  0  0  0  0  0  0  0  0
   -0.7630   13.1730   -2.2590 C   0  0  0  0  0  0  0  0  0  0  0  0
    0.3320   13.3150    0.0790 C   0  0  2  0  0  0  0  0  0  0  0  0
   -0.2720   14.6900    0.4130 C   0  0  0  0  0  0  0  0  0  0  0  0
    0.1410   15.8050   -0.4900 C   0  0  0  0  0  0  0  0  0  0  0  0
    1.1770   15.7720   -1.3490 C   0  0  0  0  0  0  0  0  0  0  0  0
    2.1180   14.5620   -1.4030 C   0  0  1  0  0  0  0  0  0  0  0  0
    3.5900   15.0510   -1.4190 C   0  0  0  0  0  0  0  0  0  0  0  0
    3.8620   16.0520   -2.5370 C   0  0  0  0  0  0  0  0  0  0  0  0
    2.9470   17.2680   -2.4150 C   0  0  2  0  0  0  0  0  0  0  0  0
    3.2940   17.9890   -1.2290 O   0  0  0  0  0  0  0  0  0  0  0  0
    1.4380   16.8980   -2.3800 C   0  0  0  0  0  0  0  0  0  0  0  0
    0.9930   16.3930   -3.7750 C   0  0  0  0  0  0  0  0  0  0  0  0
    0.6340   18.1990   -2.1130 C   0  0  0  0  0  0  0  0  0  0  0  0
    1.8600   13.4350   -0.3130 C   0  0  1  0  0  0  0  0  0  0  0  0
    2.6300   13.7770    0.9990 C   0  0  0  0  0  0  0  0  0  0  0  0
    2.4530   12.0720   -0.8330 C   0  0  0  0  0  0  0  0  0  0  0  0
    1.5270   11.1970   -1.7000 C   0  0  0  0  0  0  0  0  0  0  0  0
    0.1570   11.0250   -1.0370 C   0  0  2  0  0  0  0  0  0  0  0  0
    0.3720   10.2710    0.3200 C   0  0  0  0  0  0  0  0  0  0  0  0
    0.6870    7.6884   -3.0746 H   0  0  0  0  0  0  0  0  0  0  0  0
   -0.9456    7.7442   -3.8216 H   0  0  0  0  0  0  0  0  0  0  0  0
    0.0927    9.2100   -3.8216 H   0  0  0  0  0  0  0  0  0  0  0  0
   -0.1203    8.3901   -1.1167 H   0  0  0  0  0  0  0  0  0  0  0  0
   -2.0894    7.4165   -0.7955 H   0  0  0  0  0  0  0  0  0  0  0  0
   -2.8872    8.9144   -1.4762 H   0  0  0  0  0  0  0  0  0  0  0  0
   -2.2425    7.6777   -3.7707 H   0  0  0  0  0  0  0  0  0  0  0  0
   -2.4582    6.2365   -2.6917 H   0  0  0  0  0  0  0  0  0  0  0  0
   -4.0960    8.1315   -3.8000 H   0  0  0  0  0  0  0  0  0  0  0  0
   -4.6102    4.7959   -1.2846 H   0  0  0  0  0  0  0  0  0  0  0  0
   -5.3198    4.1255   -2.7924 H   0  0  0  0  0  0  0  0  0  0  0  0
   -3.6351    4.7486   -2.7924 H   0  0  0  0  0  0  0  0  0  0  0  0
   -7.2705    6.3510   -2.5602 H   0  0  0  0  0  0  0  0  0  0  0  0
   -6.5948    7.2180   -3.9809 H   0  0  0  0  0  0  0  0  0  0  0  0
   -6.6802    5.4237   -3.9809 H   0  0  0  0  0  0  0  0  0  0  0  0
   -0.8197   10.4935   -2.9192 H   0  0  0  0  0  0  0  0  0  0  0  0
   -2.9973   10.9347   -1.9719 H   0  0  0  0  0  0  0  0  0  0  0  0
   -2.6537    9.9563   -0.5294 H   0  0  0  0  0  0  0  0  0  0  0  0
   -2.6579   12.8118   -0.6369 H   0  0  0  0  0  0  0  0  0  0  0  0
   -1.9532   11.8741    0.6779 H   0  0  0  0  0  0  0  0  0  0  0  0
   -1.1104   14.1983   -2.0640 H   0  0  0  0  0  0  0  0  0  0  0  0
    0.1739   13.2065   -2.8343 H   0  0  0  0  0  0  0  0  0  0  0  0
   -1.5274   12.6301   -2.8343 H   0  0  0  0  0  0  0  0  0  0  0  0
    0.2872   12.7334    1.0116 H   0  0  0  0  0  0  0  0  0  0  0  0
   -1.3673   14.6010    0.3639 H   0  0  0  0  0  0  0  0  0  0  0  0
    0.1046   14.9528    1.4125 H   0  0  0  0  0  0  0  0  0  0  0  0
   -0.4510   16.7313   -0.4500 H   0  0  0  0  0  0  0  0  0  0  0  0
    1.8890   14.0396   -2.3435 H   0  0  0  0  0  0  0  0  0  0  0  0
    3.8126   15.5307   -0.4545 H   0  0  0  0  0  0  0  0  0  0  0  0
    4.2311   14.1742   -1.5929 H   0  0  0  0  0  0  0  0  0  0  0  0
    4.9096   16.3823   -2.4775 H   0  0  0  0  0  0  0  0  0  0  0  0
    3.6676   15.5617   -3.5023 H   0  0  0  0  0  0  0  0  0  0  0  0
    3.0972   17.8855   -3.3129 H   0  0  0  0  0  0  0  0  0  0  0  0
    2.5570   18.5900   -1.0240 H   0  0  0  0  0  0  0  0  0  0  0  0
    0.2701   15.5727   -3.6546 H   0  0  0  0  0  0  0  0  0  0  0  0
    0.5226   17.2176   -4.3306 H   0  0  0  0  0  0  0  0  0  0  0  0
    1.8703   16.0301   -4.3306 H   0  0  0  0  0  0  0  0  0  0  0  0
    0.5379   18.3545   -1.0283 H   0  0  0  0  0  0  0  0  0  0  0  0
    1.1613   19.0543   -2.5608 H   0  0  0  0  0  0  0  0  0  0  0  0
   -0.3668   18.1100   -2.5608 H   0  0  0  0  0  0  0  0  0  0  0  0
    2.0135   13.5032    1.8679 H   0  0  0  0  0  0  0  0  0  0  0  0
    3.5744   13.2137    1.0273 H   0  0  0  0  0  0  0  0  0  0  0  0
    2.8453   14.8554    1.0273 H   0  0  0  0  0  0  0  0  0  0  0  0
    3.3467   12.3044   -1.4307 H   0  0  0  0  0  0  0  0  0  0  0  0
    2.6456   11.4778    0.0725 H   0  0  0  0  0  0  0  0  0  0  0  0
    1.3943   11.6759   -2.6813 H   0  0  0  0  0  0  0  0  0  0  0  0
    1.9882   10.2050   -1.8151 H   0  0  0  0  0  0  0  0  0  0  0  0
    0.1761   10.9582    1.1563 H   0  0  0  0  0  0  0  0  0  0  0  0
   -0.3183    9.4165    0.3781 H   0  0  0  0  0  0  0  0  0  0  0  0
    1.4091    9.9091    0.3781 H   0  0  0  0  0  0  0  0  0  0  0  0
  1  2  1  0
  2  3  1  0
  3  4  1  0
  4  5  1  0
  5  6  1  0
  6  7  1  0
  7  8  1  0
  7  9  1  0
  2 10  1  0
 10 11  1  0
 11 12  1  0
 12 13  1  0
 13 14  1  6
 13 15  1  0
 15 16  1  0
 16 17  1  0
 17 18  2  0
 18 19  1  0
 19 20  1  0
 20 21  1  0
 21 22  1  0
 22 23  1  0
 22 24  1  0
 24 25  1  0
 24 26  1  0
 19 27  1  0
 27 28  1  1
 27 29  1  0
 29 30  1  0
 30 31  1  0
 31 32  1  1
  7  5  1  0
 31 10  1  0
 31 13  1  0
 27 15  1  0
 24 18  1  0
  1 33  1  0
  1 34  1  0
  1 35  1  0
  2 36  1  1
  3 37  1  0
  3 38  1  0
  4 39  1  0
  4 40  1  0
  5 41  1  6
  8 42  1  0
  8 43  1  0
  8 44  1  0
  9 45  1  0
  9 46  1  0
  9 47  1  0
 10 48  1  6
 11 49  1  0
 11 50  1  0
 12 51  1  0
 12 52  1  0
 14 53  1  0
 14 54  1  0
 14 55  1  0
 15 56  1  1
 16 57  1  0
 16 58  1  0
 17 59  1  0
 19 60  1  6
 20 61  1  0
 20 62  1  0
 21 63  1  0
 21 64  1  0
 22 65  1  6
 23 66  1  0
 25 67  1  0
 25 68  1  0
 25 69  1  0
 26 70  1  0
 26 71  1  0
 26 72  1  0
 28 73  1  0
 28 74  1  0
 28 75  1  0
 29 76  1  0
 29 77  1  0
 30 78  1  0
 30 79  1  0
 32 80  1  0
 32 81  1  0
 32 82  1  0
M  END
>  <meeko>  (18) 
{"is_sidechain": [false], "intermolecular_energy": 2.731, "internal_energy": -0.839}

$$$$
