EPH_relaxed_0001_pdb2pqr_Repair_215_r2_0001_out
     RDKit          3D

 82 86  0  0  0  0  0  0  0  0999 V2000
   -1.6880    8.5880   -1.8880 C   0  0  0  0  0  0  0  0  0  0  0  0
   -2.0640    9.1080   -0.4980 C   0  0  2  0  0  0  0  0  0  0  0  0
   -3.5580    9.4750   -0.3990 C   0  0  0  0  0  0  0  0  0  0  0  0
   -4.4830    8.2600   -0.2780 C   0  0  0  0  0  0  0  0  0  0  0  0
   -5.1780    7.9610   -1.5720 C   0  0  2  0  0  0  0  0  0  0  0  0
   -6.3640    8.7320   -1.8060 O   0  0  0  0  0  0  0  0  0  0  0  0
   -6.5480    7.3150   -1.6560 C   0  0  0  0  0  0  0  0  0  0  0  0
   -7.3040    6.9270   -0.4240 C   0  0  0  0  0  0  0  0  0  0  0  0
   -6.9340    6.6190   -2.9240 C   0  0  0  0  0  0  0  0  0  0  0  0
   -1.2060   10.3180   -0.1460 C   0  0  1  0  0  0  0  0  0  0  0  0
   -0.1690   10.0130    0.9660 C   0  0  0  0  0  0  0  0  0  0  0  0
    1.0970   10.8450    0.6390 C   0  0  0  0  0  0  0  0  0  0  0  0
    0.6360   11.8440   -0.4480 C   0  0  1  0  0  0  0  0  0  0  0  0
   -0.0700   12.9940    0.3370 C   0  0  0  0  0  0  0  0  0  0  0  0
    1.7500   12.3930   -1.3990 C   0  0  2  0  0  0  0  0  0  0  0  0
    2.8540   13.2110   -0.7060 C   0  0  0  0  0  0  0  0  0  0  0  0
    2.5990   14.6790   -0.6160 C   0  0  0  0  0  0  0  0  0  0  0  0
    1.6710   15.3560   -1.3170 C   0  0  0  0  0  0  0  0  0  0  0  0
    0.8230   14.6540   -2.3850 C   0  0  1  0  0  0  0  0  0  0  0  0
    0.7870   15.5210   -3.6710 C   0  0  0  0  0  0  0  0  0  0  0  0
    0.3200   16.9480   -3.4010 C   0  0  0  0  0  0  0  0  0  0  0  0
    1.2230   17.6330   -2.3780 C   0  0  2  0  0  0  0  0  0  0  0  0
    2.5210   17.8080   -2.9530 O   0  0  0  0  0  0  0  0  0  0  0  0
    1.3440   16.8450   -1.0440 C   0  0  0  0  0  0  0  0  0  0  0  0
    0.0010   16.9140   -0.2750 C   0  0  0  0  0  0  0  0  0  0  0  0
    2.3910   17.5690   -0.1550 C   0  0  0  0  0  0  0  0  0  0  0  0
    1.1980   13.1380   -2.6820 C   0  0  1  0  0  0  0  0  0  0  0  0
    2.3260   13.0690   -3.7560 C   0  0  0  0  0  0  0  0  0  0  0  0
   -0.0530   12.4110   -3.3030 C   0  0  0  0  0  0  0  0  0  0  0  0
   -1.0550   11.7850   -2.3150 C   0  0  0  0  0  0  0  0  0  0  0  0
   -0.3340   10.9230   -1.2750 C   0  0  2  0  0  0  0  0  0  0  0  0
    0.3680    9.7450   -2.0330 C   0  0  0  0  0  0  0  0  0  0  0  0
   -1.0462    7.7004   -1.7862 H   0  0  0  0  0  0  0  0  0  0  0  0
   -2.6016    8.3187   -2.4383 H   0  0  0  0  0  0  0  0  0  0  0  0
   -1.1460    9.3712   -2.4383 H   0  0  0  0  0  0  0  0  0  0  0  0
   -1.8756    8.2966    0.2204 H   0  0  0  0  0  0  0  0  0  0  0  0
   -3.7016   10.1106    0.4872 H   0  0  0  0  0  0  0  0  0  0  0  0
   -3.8252    9.9911   -1.3329 H   0  0  0  0  0  0  0  0  0  0  0  0
   -3.8851    7.3847    0.0160 H   0  0  0  0  0  0  0  0  0  0  0  0
   -5.2491    8.4863    0.4783 H   0  0  0  0  0  0  0  0  0  0  0  0
   -4.2204    7.7256   -2.0594 H   0  0  0  0  0  0  0  0  0  0  0  0
   -6.7297    7.2218    0.4667 H   0  0  0  0  0  0  0  0  0  0  0  0
   -8.2791    7.4361   -0.4166 H   0  0  0  0  0  0  0  0  0  0  0  0
   -7.4589    5.8380   -0.4166 H   0  0  0  0  0  0  0  0  0  0  0  0
   -7.4546    5.6804   -2.6832 H   0  0  0  0  0  0  0  0  0  0  0  0
   -7.6010    7.2682   -3.5102 H   0  0  0  0  0  0  0  0  0  0  0  0
   -6.0301    6.3970   -3.5102 H   0  0  0  0  0  0  0  0  0  0  0  0
   -1.9965   11.0272    0.1406 H   0  0  0  0  0  0  0  0  0  0  0  0
   -0.5702   10.3042    1.9480 H   0  0  0  0  0  0  0  0  0  0  0  0
    0.0640    8.9386    1.0041 H   0  0  0  0  0  0  0  0  0  0  0  0
    1.4521   11.3795    1.5324 H   0  0  0  0  0  0  0  0  0  0  0  0
    1.9338   10.2164    0.3005 H   0  0  0  0  0  0  0  0  0  0  0  0
    0.0370   12.8197    1.4178 H   0  0  0  0  0  0  0  0  0  0  0  0
    0.3932   13.9562    0.0732 H   0  0  0  0  0  0  0  0  0  0  0  0
   -1.1377   13.0164    0.0732 H   0  0  0  0  0  0  0  0  0  0  0  0
    2.2364   11.4709   -1.7499 H   0  0  0  0  0  0  0  0  0  0  0  0
    2.9730   12.8234    0.3166 H   0  0  0  0  0  0  0  0  0  0  0  0
    3.7537   13.0962   -1.3283 H   0  0  0  0  0  0  0  0  0  0  0  0
    3.2225   15.2563    0.0825 H   0  0  0  0  0  0  0  0  0  0  0  0
   -0.1893   14.5708   -1.9626 H   0  0  0  0  0  0  0  0  0  0  0  0
    1.7989   15.5564   -4.1009 H   0  0  0  0  0  0  0  0  0  0  0  0
    0.0686   15.0600   -4.3647 H   0  0  0  0  0  0  0  0  0  0  0  0
    0.3436   17.5185   -4.3412 H   0  0  0  0  0  0  0  0  0  0  0  0
   -0.7030   16.9125   -2.9984 H   0  0  0  0  0  0  0  0  0  0  0  0
    0.7651   18.6018   -2.1297 H   0  0  0  0  0  0  0  0  0  0  0  0
    3.1040   18.1640   -2.2610 H   0  0  0  0  0  0  0  0  0  0  0  0
    0.1973   16.9039    0.8073 H   0  0  0  0  0  0  0  0  0  0  0  0
   -0.5279   17.8405   -0.5431 H   0  0  0  0  0  0  0  0  0  0  0  0
   -0.6200   16.0466   -0.5431 H   0  0  0  0  0  0  0  0  0  0  0  0
    2.1498   17.4022    0.9052 H   0  0  0  0  0  0  0  0  0  0  0  0
    3.3933   17.1701   -0.3702 H   0  0  0  0  0  0  0  0  0  0  0  0
    2.3716   18.6476   -0.3702 H   0  0  0  0  0  0  0  0  0  0  0  0
    3.3044   13.0092   -3.2568 H   0  0  0  0  0  0  0  0  0  0  0  0
    2.1799   12.1781   -4.3845 H   0  0  0  0  0  0  0  0  0  0  0  0
    2.2896   13.9711   -4.3845 H   0  0  0  0  0  0  0  0  0  0  0  0
   -0.5998   13.1488   -3.9085 H   0  0  0  0  0  0  0  0  0  0  0  0
    0.3594   11.5633   -3.8698 H   0  0  0  0  0  0  0  0  0  0  0  0
   -1.6018   12.5884   -1.7997 H   0  0  0  0  0  0  0  0  0  0  0  0
   -1.7504   11.1458   -2.8788 H   0  0  0  0  0  0  0  0  0  0  0  0
    0.7891    9.0383   -1.3027 H   0  0  0  0  0  0  0  0  0  0  0  0
   -0.3677    9.2250   -2.6642 H   0  0  0  0  0  0  0  0  0  0  0  0
    1.1754   10.1446   -2.6642 H   0  0  0  0  0  0  0  0  0  0  0  0
  1  2  1  0
  2  3  1  0
  3  4  1  0
  4  5  1  0
  5  6  1  0
  6  7  1  0
  7  8  1  0
  7  9  1  0
  2 10  1  0
 10 11  1  0
 11 12  1  0
 12 13  1  0
 13 14  1  1
 13 15  1  0
 15 16  1  0
 16 17  1  0
 17 18  2  0
 18 19  1  0
 19 20  1  0
 20 21  1  0
 21 22  1  0
 22 23  1  0
 22 24  1  0
 24 25  1  0
 24 26  1  0
 19 27  1  0
 27 28  1  6
 27 29  1  0
 29 30  1  0
 30 31  1  0
 31 32  1  6
  7  5  1  0
 31 10  1  0
 31 13  1  0
 27 15  1  0
 24 18  1  0
  1 33  1  0
  1 34  1  0
  1 35  1  0
  2 36  1  1
  3 37  1  0
  3 38  1  0
  4 39  1  0
  4 40  1  0
  5 41  1  6
  8 42  1  0
  8 43  1  0
  8 44  1  0
  9 45  1  0
  9 46  1  0
  9 47  1  0
 10 48  1  1
 11 49  1  0
 11 50  1  0
 12 51  1  0
 12 52  1  0
 14 53  1  0
 14 54  1  0
 14 55  1  0
 15 56  1  6
 16 57  1  0
 16 58  1  0
 17 59  1  0
 19 60  1  1
 20 61  1  0
 20 62  1  0
 21 63  1  0
 21 64  1  0
 22 65  1  1
 23 66  1  0
 25 67  1  0
 25 68  1  0
 25 69  1  0
 26 70  1  0
 26 71  1  0
 26 72  1  0
 28 73  1  0
 28 74  1  0
 28 75  1  0
 29 76  1  0
 29 77  1  0
 30 78  1  0
 30 79  1  0
 32 80  1  0
 32 81  1  0
 32 82  1  0
M  END
>  <meeko>  (1) 
{"is_sidechain": [false], "intermolecular_energy": 2.731, "internal_energy": -0.839}

$$$$
EPH_relaxed_0001_pdb2pqr_Repair_215_r2_0001_out
     RDKit          3D

 82 86  0  0  0  0  0  0  0  0999 V2000
    2.2260   18.0720   -2.6420 C   0  0  0  0  0  0  0  0  0  0  0  0
    0.8560   17.7110   -2.0620 C   0  0  2  0  0  0  0  0  0  0  0  0
    0.8210   17.8430   -0.5260 C   0  0  0  0  0  0  0  0  0  0  0  0
    0.6910   19.2880   -0.0360 C   0  0  0  0  0  0  0  0  0  0  0  0
   -0.1850   19.3840    1.1770 C   0  0  2  0  0  0  0  0  0  0  0  0
   -1.1250   18.3120    1.3230 O   0  0  0  0  0  0  0  0  0  0  0  0
   -1.6830   19.6190    1.1100 C   0  0  0  0  0  0  0  0  0  0  0  0
   -2.3910   19.7720   -0.1990 C   0  0  0  0  0  0  0  0  0  0  0  0
   -2.3730   20.1830    2.3130 C   0  0  0  0  0  0  0  0  0  0  0  0
    0.4750   16.2930   -2.4720 C   0  0  1  0  0  0  0  0  0  0  0  0
    0.6130   16.0550   -3.9990 C   0  0  0  0  0  0  0  0  0  0  0  0
    1.0790   14.5880   -4.1820 C   0  0  0  0  0  0  0  0  0  0  0  0
    0.8750   13.9370   -2.7940 C   0  0  1  0  0  0  0  0  0  0  0  0
   -0.6430   13.5800   -2.7380 C   0  0  0  0  0  0  0  0  0  0  0  0
    1.7720   12.6970   -2.4730 C   0  0  2  0  0  0  0  0  0  0  0  0
    1.5600   11.4830   -3.3940 C   0  0  0  0  0  0  0  0  0  0  0  0
    0.5300   10.5050   -2.9330 C   0  0  0  0  0  0  0  0  0  0  0  0
    0.0090   10.4440   -1.6940 C   0  0  0  0  0  0  0  0  0  0  0  0
    0.5240   11.3600   -0.5770 C   0  0  1  0  0  0  0  0  0  0  0  0
    0.7590   10.5260    0.7100 C   0  0  0  0  0  0  0  0  0  0  0  0
   -0.4760    9.7340    1.1280 C   0  0  0  0  0  0  0  0  0  0  0  0
   -0.9230    8.7930    0.0130 C   0  0  2  0  0  0  0  0  0  0  0  0
    0.0760    7.7840   -0.1680 O   0  0  0  0  0  0  0  0  0  0  0  0
   -1.1810    9.5200   -1.3370 C   0  0  0  0  0  0  0  0  0  0  0  0
   -2.4570   10.3920   -1.2220 C   0  0  0  0  0  0  0  0  0  0  0  0
   -1.4880    8.4410   -2.4100 C   0  0  0  0  0  0  0  0  0  0  0  0
    1.7710   12.2730   -0.9490 C   0  0  1  0  0  0  0  0  0  0  0  0
    3.0960   11.4900   -0.7030 C   0  0  0  0  0  0  0  0  0  0  0  0
    1.8040   13.5160    0.0180 C   0  0  0  0  0  0  0  0  0  0  0  0
    0.9940   14.7530   -0.4130 C   0  0  0  0  0  0  0  0  0  0  0  0
    1.3020   15.1320   -1.8650 C   0  0  2  0  0  0  0  0  0  0  0  0
    2.8180   15.5170   -1.9480 C   0  0  0  0  0  0  0  0  0  0  0  0
    2.9341   18.2586   -1.8211 H   0  0  0  0  0  0  0  0  0  0  0  0
    2.5930   17.2399   -3.2608 H   0  0  0  0  0  0  0  0  0  0  0  0
    2.1353   18.9769   -3.2608 H   0  0  0  0  0  0  0  0  0  0  0  0
    0.1259   18.4252   -2.4706 H   0  0  0  0  0  0  0  0  0  0  0  0
   -0.0377   17.2692   -0.1474 H   0  0  0  0  0  0  0  0  0  0  0  0
    1.7805   17.4601   -0.1481 H   0  0  0  0  0  0  0  0  0  0  0  0
    1.6912   19.6709    0.2150 H   0  0  0  0  0  0  0  0  0  0  0  0
    0.2320   19.8831   -0.8392 H   0  0  0  0  0  0  0  0  0  0  0  0
    0.6153   19.8808    1.7450 H   0  0  0  0  0  0  0  0  0  0  0  0
   -3.4515   20.0012   -0.0177 H   0  0  0  0  0  0  0  0  0  0  0  0
   -1.9313   20.5915   -0.7709 H   0  0  0  0  0  0  0  0  0  0  0  0
   -2.3108   18.8358   -0.7709 H   0  0  0  0  0  0  0  0  0  0  0  0
   -1.8968   19.7937    3.2250 H   0  0  0  0  0  0  0  0  0  0  0  0
   -2.2962   21.2802    2.2990 H   0  0  0  0  0  0  0  0  0  0  0  0
   -3.4330   19.8894    2.2990 H   0  0  0  0  0  0  0  0  0  0  0  0
   -0.5560   16.2606   -2.0899 H   0  0  0  0  0  0  0  0  0  0  0  0
   -0.3563   16.2094   -4.4957 H   0  0  0  0  0  0  0  0  0  0  0  0
    1.3330   16.7569   -4.4449 H   0  0  0  0  0  0  0  0  0  0  0  0
    0.4691   14.0790   -4.9429 H   0  0  0  0  0  0  0  0  0  0  0  0
    2.1223   14.5217   -4.5243 H   0  0  0  0  0  0  0  0  0  0  0  0
   -0.9635   13.5046   -1.6884 H   0  0  0  0  0  0  0  0  0  0  0  0
   -1.2234   14.3661   -3.2431 H   0  0  0  0  0  0  0  0  0  0  0  0
   -0.8122   12.6176   -3.2431 H   0  0  0  0  0  0  0  0  0  0  0  0
    2.7813   13.0714   -2.6991 H   0  0  0  0  0  0  0  0  0  0  0  0
    1.2561   11.8558   -4.3833 H   0  0  0  0  0  0  0  0  0  0  0  0
    2.5151   10.9375   -3.4032 H   0  0  0  0  0  0  0  0  0  0  0  0
    0.1664    9.7724   -3.6686 H   0  0  0  0  0  0  0  0  0  0  0  0
   -0.2696   12.1012   -0.4013 H   0  0  0  0  0  0  0  0  0  0  0  0
    1.5844    9.8220    0.5280 H   0  0  0  0  0  0  0  0  0  0  0  0
    0.9967   11.2274    1.5234 H   0  0  0  0  0  0  0  0  0  0  0  0
   -0.2381    9.1426    2.0245 H   0  0  0  0  0  0  0  0  0  0  0  0
   -1.2918   10.4410    1.3392 H   0  0  0  0  0  0  0  0  0  0  0  0
   -1.8827    8.3517    0.3201 H   0  0  0  0  0  0  0  0  0  0  0  0
   -0.3820    6.9400   -0.3170 H   0  0  0  0  0  0  0  0  0  0  0  0
   -2.6954   10.5549   -0.1606 H   0  0  0  0  0  0  0  0  0  0  0  0
   -2.2839   11.3616   -1.7119 H   0  0  0  0  0  0  0  0  0  0  0  0
   -3.2974    9.8785   -1.7119 H   0  0  0  0  0  0  0  0  0  0  0  0
   -1.7567    7.4967   -1.9140 H   0  0  0  0  0  0  0  0  0  0  0  0
   -2.3263    8.7767   -3.0382 H   0  0  0  0  0  0  0  0  0  0  0  0
   -0.5986    8.2851   -3.0382 H   0  0  0  0  0  0  0  0  0  0  0  0
    3.2668   11.3891    0.3790 H   0  0  0  0  0  0  0  0  0  0  0  0
    3.0212   10.4909   -1.1572 H   0  0  0  0  0  0  0  0  0  0  0  0
    3.9351   12.0374   -1.1572 H   0  0  0  0  0  0  0  0  0  0  0  0
    1.4171   13.1885    0.9942 H   0  0  0  0  0  0  0  0  0  0  0  0
    2.8530   13.8471    0.0253 H   0  0  0  0  0  0  0  0  0  0  0  0
   -0.0792   14.5309   -0.3191 H   0  0  0  0  0  0  0  0  0  0  0  0
    1.2710   15.5969    0.2359 H   0  0  0  0  0  0  0  0  0  0  0  0
    3.2261   15.6207   -0.9318 H   0  0  0  0  0  0  0  0  0  0  0  0
    3.3673   14.7299   -2.4852 H   0  0  0  0  0  0  0  0  0  0  0  0
    2.9252   16.4709   -2.4852 H   0  0  0  0  0  0  0  0  0  0  0  0
  1  2  1  0
  2  3  1  0
  3  4  1  0
  4  5  1  0
  5  6  1  0
  6  7  1  0
  7  8  1  0
  7  9  1  0
  2 10  1  0
 10 11  1  0
 11 12  1  0
 12 13  1  0
 13 14  1  1
 13 15  1  0
 15 16  1  0
 16 17  1  0
 17 18  2  0
 18 19  1  0
 19 20  1  0
 20 21  1  0
 21 22  1  0
 22 23  1  0
 22 24  1  0
 24 25  1  0
 24 26  1  0
 19 27  1  0
 27 28  1  6
 27 29  1  0
 29 30  1  0
 30 31  1  0
 31 32  1  1
  7  5  1  0
 31 10  1  0
 31 13  1  0
 27 15  1  0
 24 18  1  0
  1 33  1  0
  1 34  1  0
  1 35  1  0
  2 36  1  6
  3 37  1  0
  3 38  1  0
  4 39  1  0
  4 40  1  0
  5 41  1  1
  8 42  1  0
  8 43  1  0
  8 44  1  0
  9 45  1  0
  9 46  1  0
  9 47  1  0
 10 48  1  1
 11 49  1  0
 11 50  1  0
 12 51  1  0
 12 52  1  0
 14 53  1  0
 14 54  1  0
 14 55  1  0
 15 56  1  6
 16 57  1  0
 16 58  1  0
 17 59  1  0
 19 60  1  1
 20 61  1  0
 20 62  1  0
 21 63  1  0
 21 64  1  0
 22 65  1  1
 23 66  1  0
 25 67  1  0
 25 68  1  0
 25 69  1  0
 26 70  1  0
 26 71  1  0
 26 72  1  0
 28 73  1  0
 28 74  1  0
 28 75  1  0
 29 76  1  0
 29 77  1  0
 30 78  1  0
 30 79  1  0
 32 80  1  0
 32 81  1  0
 32 82  1  0
M  END
>  <meeko>  (2) 
{"is_sidechain": [false], "intermolecular_energy": 2.731, "internal_energy": -0.839}

$$$$
EPH_relaxed_0001_pdb2pqr_Repair_215_r2_0001_out
     RDKit          3D

 82 86  0  0  0  0  0  0  0  0999 V2000
    4.1690   17.5310   -0.0810 C   0  0  0  0  0  0  0  0  0  0  0  0
    2.7580   18.1230   -0.1400 C   0  0  2  0  0  0  0  0  0  0  0  0
    2.4780   19.0780    1.0370 C   0  0  0  0  0  0  0  0  0  0  0  0
    3.7170   19.8340    1.5240 C   0  0  0  0  0  0  0  0  0  0  0  0
    4.2420   19.2690    2.8090 C   0  0  2  0  0  0  0  0  0  0  0  0
    5.0010   20.1910    3.6030 O   0  0  0  0  0  0  0  0  0  0  0  0
    5.7180   19.0570    3.0890 C   0  0  0  0  0  0  0  0  0  0  0  0
    6.7620   19.4060    2.0750 C   0  0  0  0  0  0  0  0  0  0  0  0
    6.1120   18.0670    4.1400 C   0  0  0  0  0  0  0  0  0  0  0  0
    1.7240   17.0020   -0.1590 C   0  0  1  0  0  0  0  0  0  0  0  0
    0.3000   17.5090   -0.5110 C   0  0  0  0  0  0  0  0  0  0  0  0
   -0.3830   16.3870   -1.3350 C   0  0  0  0  0  0  0  0  0  0  0  0
    0.5330   15.1540   -1.1480 C   0  0  1  0  0  0  0  0  0  0  0  0
    0.1260   14.5580    0.2360 C   0  0  0  0  0  0  0  0  0  0  0  0
    0.4780   14.0750   -2.2790 C   0  0  2  0  0  0  0  0  0  0  0  0
   -0.8890   13.3940   -2.4650 C   0  0  0  0  0  0  0  0  0  0  0  0
   -1.0980   12.1540   -1.6600 C   0  0  0  0  0  0  0  0  0  0  0  0
   -0.1320   11.4510   -1.0400 C   0  0  0  0  0  0  0  0  0  0  0  0
    1.3450   11.8350   -1.1980 C   0  0  1  0  0  0  0  0  0  0  0  0
    2.1820   10.5620   -1.4910 C   0  0  0  0  0  0  0  0  0  0  0  0
    1.9720    9.4700   -0.4470 C   0  0  0  0  0  0  0  0  0  0  0  0
    0.5000    9.0750   -0.3610 C   0  0  2  0  0  0  0  0  0  0  0  0
    0.1190    8.4440   -1.5870 O   0  0  0  0  0  0  0  0  0  0  0  0
   -0.4420   10.2790   -0.0780 C   0  0  0  0  0  0  0  0  0  0  0  0
   -0.2330   10.7730    1.3750 C   0  0  0  0  0  0  0  0  0  0  0  0
   -1.9060    9.7680   -0.1560 C   0  0  0  0  0  0  0  0  0  0  0  0
    1.6500   13.0140   -2.2200 C   0  0  1  0  0  0  0  0  0  0  0  0
    1.8070   12.4420   -3.6620 C   0  0  0  0  0  0  0  0  0  0  0  0
    3.0330   13.6700   -1.8500 C   0  0  0  0  0  0  0  0  0  0  0  0
    3.0060   14.8110   -0.8150 C   0  0  0  0  0  0  0  0  0  0  0  0
    1.9410   15.8510   -1.1730 C   0  0  2  0  0  0  0  0  0  0  0  0
    2.3350   16.4840   -2.5510 C   0  0  0  0  0  0  0  0  0  0  0  0
    4.4700   17.4047    0.9694 H   0  0  0  0  0  0  0  0  0  0  0  0
    4.1778   16.5533   -0.5850 H   0  0  0  0  0  0  0  0  0  0  0  0
    4.8728   18.2097   -0.5850 H   0  0  0  0  0  0  0  0  0  0  0  0
    2.6855   18.7118   -1.0663 H   0  0  0  0  0  0  0  0  0  0  0  0
    1.7261   19.8139    0.7159 H   0  0  0  0  0  0  0  0  0  0  0  0
    2.1280   18.4595    1.8766 H   0  0  0  0  0  0  0  0  0  0  0  0
    4.5020   19.7636    0.7566 H   0  0  0  0  0  0  0  0  0  0  0  0
    3.4317   20.8814    1.7014 H   0  0  0  0  0  0  0  0  0  0  0  0
    3.3709   18.6033    2.8991 H   0  0  0  0  0  0  0  0  0  0  0  0
    7.6842   19.7143    2.5894 H   0  0  0  0  0  0  0  0  0  0  0  0
    6.9693   18.5283    1.4452 H   0  0  0  0  0  0  0  0  0  0  0  0
    6.3998   20.2319    1.4452 H   0  0  0  0  0  0  0  0  0  0  0  0
    5.9392   18.5011    5.1358 H   0  0  0  0  0  0  0  0  0  0  0  0
    5.5087   17.1540    4.0283 H   0  0  0  0  0  0  0  0  0  0  0  0
    7.1777   17.8182    4.0283 H   0  0  0  0  0  0  0  0  0  0  0  0
    1.8416   16.6254    0.8678 H   0  0  0  0  0  0  0  0  0  0  0  0
   -0.2707   17.7044    0.4088 H   0  0  0  0  0  0  0  0  0  0  0  0
    0.3449   18.4476   -1.0828 H   0  0  0  0  0  0  0  0  0  0  0  0
   -1.3931   16.1825   -0.9504 H   0  0  0  0  0  0  0  0  0  0  0  0
   -0.5037   16.6608   -2.3935 H   0  0  0  0  0  0  0  0  0  0  0  0
    0.5490   15.1774    1.0406 H   0  0  0  0  0  0  0  0  0  0  0  0
   -0.9706   14.5448    0.3214 H   0  0  0  0  0  0  0  0  0  0  0  0
    0.5128   13.5318    0.3214 H   0  0  0  0  0  0  0  0  0  0  0  0
    0.6377   14.6759   -3.1864 H   0  0  0  0  0  0  0  0  0  0  0  0
   -1.6697   14.1166   -2.1852 H   0  0  0  0  0  0  0  0  0  0  0  0
   -0.9337   13.0837   -3.5194 H   0  0  0  0  0  0  0  0  0  0  0  0
   -2.1294   11.7834   -1.5656 H   0  0  0  0  0  0  0  0  0  0  0  0
    1.6507   12.2701   -0.2350 H   0  0  0  0  0  0  0  0  0  0  0  0
    1.8916   10.1683   -2.4762 H   0  0  0  0  0  0  0  0  0  0  0  0
    3.2439   10.8478   -1.4658 H   0  0  0  0  0  0  0  0  0  0  0  0
    2.5663    8.5870   -0.7248 H   0  0  0  0  0  0  0  0  0  0  0  0
    2.2907    9.8546    0.5331 H   0  0  0  0  0  0  0  0  0  0  0  0
    0.3929    8.3861    0.4899 H   0  0  0  0  0  0  0  0  0  0  0  0
   -0.8260    8.6240   -1.7300 H   0  0  0  0  0  0  0  0  0  0  0  0
   -0.5626    9.9939    2.0781 H   0  0  0  0  0  0  0  0  0  0  0  0
    0.8332   10.9880    1.5394 H   0  0  0  0  0  0  0  0  0  0  0  0
   -0.8211   11.6879    1.5394 H   0  0  0  0  0  0  0  0  0  0  0  0
   -2.3009    9.6301    0.8614 H   0  0  0  0  0  0  0  0  0  0  0  0
   -2.5231   10.5039   -0.6923 H   0  0  0  0  0  0  0  0  0  0  0  0
   -1.9312    8.8079   -0.6923 H   0  0  0  0  0  0  0  0  0  0  0  0
    2.0978   11.3826   -3.6066 H   0  0  0  0  0  0  0  0  0  0  0  0
    0.8509   12.5322   -4.1984 H   0  0  0  0  0  0  0  0  0  0  0  0
    2.5831   13.0077   -4.1984 H   0  0  0  0  0  0  0  0  0  0  0  0
    3.6824   12.8759   -1.4529 H   0  0  0  0  0  0  0  0  0  0  0  0
    3.3895   14.1345   -2.7812 H   0  0  0  0  0  0  0  0  0  0  0  0
    2.7806   14.3919    0.1767 H   0  0  0  0  0  0  0  0  0  0  0  0
    3.9895   15.3036   -0.8105 H   0  0  0  0  0  0  0  0  0  0  0  0
    2.9092   17.4065   -2.3800 H   0  0  0  0  0  0  0  0  0  0  0  0
    2.9487   15.7703   -3.1203 H   0  0  0  0  0  0  0  0  0  0  0  0
    1.4237   16.7196   -3.1203 H   0  0  0  0  0  0  0  0  0  0  0  0
  1  2  1  0
  2  3  1  0
  3  4  1  0
  4  5  1  0
  5  6  1  0
  6  7  1  0
  7  8  1  0
  7  9  1  0
  2 10  1  0
 10 11  1  0
 11 12  1  0
 12 13  1  0
 13 14  1  1
 13 15  1  0
 15 16  1  0
 16 17  1  0
 17 18  2  0
 18 19  1  0
 19 20  1  0
 20 21  1  0
 21 22  1  0
 22 23  1  0
 22 24  1  0
 24 25  1  0
 24 26  1  0
 19 27  1  0
 27 28  1  6
 27 29  1  0
 29 30  1  0
 30 31  1  0
 31 32  1  6
  7  5  1  0
 31 10  1  0
 31 13  1  0
 27 15  1  0
 24 18  1  0
  1 33  1  0
  1 34  1  0
  1 35  1  0
  2 36  1  6
  3 37  1  0
  3 38  1  0
  4 39  1  0
  4 40  1  0
  5 41  1  1
  8 42  1  0
  8 43  1  0
  8 44  1  0
  9 45  1  0
  9 46  1  0
  9 47  1  0
 10 48  1  1
 11 49  1  0
 11 50  1  0
 12 51  1  0
 12 52  1  0
 14 53  1  0
 14 54  1  0
 14 55  1  0
 15 56  1  6
 16 57  1  0
 16 58  1  0
 17 59  1  0
 19 60  1  1
 20 61  1  0
 20 62  1  0
 21 63  1  0
 21 64  1  0
 22 65  1  1
 23 66  1  0
 25 67  1  0
 25 68  1  0
 25 69  1  0
 26 70  1  0
 26 71  1  0
 26 72  1  0
 28 73  1  0
 28 74  1  0
 28 75  1  0
 29 76  1  0
 29 77  1  0
 30 78  1  0
 30 79  1  0
 32 80  1  0
 32 81  1  0
 32 82  1  0
M  END
>  <meeko>  (3) 
{"is_sidechain": [false], "intermolecular_energy": 2.731, "internal_energy": -0.839}

$$$$
EPH_relaxed_0001_pdb2pqr_Repair_215_r2_0001_out
     RDKit          3D

 82 86  0  0  0  0  0  0  0  0999 V2000
    2.2000   18.0020   -2.5460 C   0  0  0  0  0  0  0  0  0  0  0  0
    0.6790   17.8540   -2.6290 C   0  0  2  0  0  0  0  0  0  0  0  0
   -0.0220   18.3270   -1.3390 C   0  0  0  0  0  0  0  0  0  0  0  0
    0.7120   17.9230   -0.0570 C   0  0  0  0  0  0  0  0  0  0  0  0
    1.2700   19.1150    0.6610 C   0  0  2  0  0  0  0  0  0  0  0  0
    2.1710   19.9140   -0.1160 O   0  0  0  0  0  0  0  0  0  0  0  0
    2.7340   19.2580    1.0320 C   0  0  0  0  0  0  0  0  0  0  0  0
    3.7310   18.1950    0.6980 C   0  0  0  0  0  0  0  0  0  0  0  0
    3.1020   20.1940    2.1410 C   0  0  0  0  0  0  0  0  0  0  0  0
    0.3130   16.4030   -2.9190 C   0  0  1  0  0  0  0  0  0  0  0  0
    0.3920   16.0580   -4.4300 C   0  0  0  0  0  0  0  0  0  0  0  0
    0.8820   14.5900   -4.5280 C   0  0  0  0  0  0  0  0  0  0  0  0
    0.7510   14.0380   -3.0890 C   0  0  1  0  0  0  0  0  0  0  0  0
   -0.7560   13.6570   -2.9420 C   0  0  0  0  0  0  0  0  0  0  0  0
    1.6870   12.8420   -2.7200 C   0  0  2  0  0  0  0  0  0  0  0  0
    1.4640   11.5600   -3.5420 C   0  0  0  0  0  0  0  0  0  0  0  0
    0.4770   10.5990   -2.9680 C   0  0  0  0  0  0  0  0  0  0  0  0
    0.0090   10.6180   -1.7060 C   0  0  0  0  0  0  0  0  0  0  0  0
    0.5500   11.6230   -0.6800 C   0  0  1  0  0  0  0  0  0  0  0  0
    0.8580   10.8880    0.6510 C   0  0  0  0  0  0  0  0  0  0  0  0
   -0.3410   10.1050    1.1780 C   0  0  0  0  0  0  0  0  0  0  0  0
   -0.8140    9.0770    0.1530 C   0  0  2  0  0  0  0  0  0  0  0  0
    0.1990    8.0780    0.0020 O   0  0  0  0  0  0  0  0  0  0  0  0
   -1.1450    9.7000   -1.2320 C   0  0  0  0  0  0  0  0  0  0  0  0
   -2.4330   10.5530   -1.1250 C   0  0  0  0  0  0  0  0  0  0  0  0
   -1.4720    8.5400   -2.2110 C   0  0  0  0  0  0  0  0  0  0  0  0
    1.7600   12.5300   -1.1700 C   0  0  1  0  0  0  0  0  0  0  0  0
    3.1110   11.7910   -0.9270 C   0  0  0  0  0  0  0  0  0  0  0  0
    1.8060   13.8400   -0.2970 C   0  0  0  0  0  0  0  0  0  0  0  0
    0.9520   15.0270   -0.7800 C   0  0  0  0  0  0  0  0  0  0  0  0
    1.1900   15.3050   -2.2680 C   0  0  2  0  0  0  0  0  0  0  0  0
    2.6920   15.7120   -2.4440 C   0  0  0  0  0  0  0  0  0  0  0  0
    2.5084   18.0320   -1.4905 H   0  0  0  0  0  0  0  0  0  0  0  0
    2.6794   17.1463   -3.0439 H   0  0  0  0  0  0  0  0  0  0  0  0
    2.5054   18.9341   -3.0439 H   0  0  0  0  0  0  0  0  0  0  0  0
    0.3283   18.4969   -3.4498 H   0  0  0  0  0  0  0  0  0  0  0  0
   -0.0959   19.4242   -1.3660 H   0  0  0  0  0  0  0  0  0  0  0  0
   -1.0084   17.8409   -1.3119 H   0  0  0  0  0  0  0  0  0  0  0  0
    0.0072   17.4034    0.6088 H   0  0  0  0  0  0  0  0  0  0  0  0
    1.5497   17.2660   -0.3338 H   0  0  0  0  0  0  0  0  0  0  0  0
    0.3462   19.2234    1.2482 H   0  0  0  0  0  0  0  0  0  0  0  0
    4.1340   17.7653    1.6270 H   0  0  0  0  0  0  0  0  0  0  0  0
    3.2412   17.4044    0.1106 H   0  0  0  0  0  0  0  0  0  0  0  0
    4.5514   18.6332    0.1106 H   0  0  0  0  0  0  0  0  0  0  0  0
    2.9110   19.7083    3.1093 H   0  0  0  0  0  0  0  0  0  0  0  0
    4.1685   20.4521    2.0643 H   0  0  0  0  0  0  0  0  0  0  0  0
    2.4968   21.1093    2.0643 H   0  0  0  0  0  0  0  0  0  0  0  0
   -0.6997   16.3786   -2.4902 H   0  0  0  0  0  0  0  0  0  0  0  0
   -0.6004   16.1580   -4.8939 H   0  0  0  0  0  0  0  0  0  0  0  0
    1.0772   16.7393   -4.9557 H   0  0  0  0  0  0  0  0  0  0  0  0
    0.2517   14.0158   -5.2230 H   0  0  0  0  0  0  0  0  0  0  0  0
    1.9110   14.5183   -4.9102 H   0  0  0  0  0  0  0  0  0  0  0  0
   -1.0152   13.5915   -1.8750 H   0  0  0  0  0  0  0  0  0  0  0  0
   -1.3774   14.4263   -3.4237 H   0  0  0  0  0  0  0  0  0  0  0  0
   -0.9371   12.6848   -3.4237 H   0  0  0  0  0  0  0  0  0  0  0  0
    2.6773   13.2179   -3.0168 H   0  0  0  0  0  0  0  0  0  0  0  0
    1.1106   11.8540   -4.5413 H   0  0  0  0  0  0  0  0  0  0  0  0
    2.4299   11.0339   -3.5538 H   0  0  0  0  0  0  0  0  0  0  0  0
    0.0999    9.8078   -3.6327 H   0  0  0  0  0  0  0  0  0  0  0  0
   -0.2517   12.3597   -0.5232 H   0  0  0  0  0  0  0  0  0  0  0  0
    1.6899   10.1882    0.4831 H   0  0  0  0  0  0  0  0  0  0  0  0
    1.1152   11.6500    1.4015 H   0  0  0  0  0  0  0  0  0  0  0  0
   -0.0527    9.5846    2.1033 H   0  0  0  0  0  0  0  0  0  0  0  0
   -1.1625   10.8099    1.3734 H   0  0  0  0  0  0  0  0  0  0  0  0
   -1.7499    8.6399    0.5312 H   0  0  0  0  0  0  0  0  0  0  0  0
    0.2690    7.8710   -0.9450 H   0  0  0  0  0  0  0  0  0  0  0  0
   -2.6782   10.7154   -0.0651 H   0  0  0  0  0  0  0  0  0  0  0  0
   -2.2719   11.5236   -1.6170 H   0  0  0  0  0  0  0  0  0  0  0  0
   -3.2638   10.0259   -1.6170 H   0  0  0  0  0  0  0  0  0  0  0  0
   -1.7266    7.6367   -1.6372 H   0  0  0  0  0  0  0  0  0  0  0  0
   -2.3250    8.8244   -2.8447 H   0  0  0  0  0  0  0  0  0  0  0  0
   -0.5961    8.3371   -2.8447 H   0  0  0  0  0  0  0  0  0  0  0  0
    3.2869   11.6948    0.1546 H   0  0  0  0  0  0  0  0  0  0  0  0
    3.0686   10.7904   -1.3821 H   0  0  0  0  0  0  0  0  0  0  0  0
    3.9307   12.3664   -1.3821 H   0  0  0  0  0  0  0  0  0  0  0  0
    1.4673   13.5769    0.7159 H   0  0  0  0  0  0  0  0  0  0  0  0
    2.8468   14.1905   -0.3588 H   0  0  0  0  0  0  0  0  0  0  0  0
   -0.1112   14.7925   -0.6234 H   0  0  0  0  0  0  0  0  0  0  0  0
    1.2379   15.9209   -0.2063 H   0  0  0  0  0  0  0  0  0  0  0  0
    3.1562   15.8378   -1.4547 H   0  0  0  0  0  0  0  0  0  0  0  0
    3.2223   14.9252   -3.0005 H   0  0  0  0  0  0  0  0  0  0  0  0
    2.7525   16.6589   -3.0005 H   0  0  0  0  0  0  0  0  0  0  0  0
  1  2  1  0
  2  3  1  0
  3  4  1  0
  4  5  1  0
  5  6  1  0
  6  7  1  0
  7  8  1  0
  7  9  1  0
  2 10  1  0
 10 11  1  0
 11 12  1  0
 12 13  1  0
 13 14  1  1
 13 15  1  0
 15 16  1  0
 16 17  1  0
 17 18  2  0
 18 19  1  0
 19 20  1  0
 20 21  1  0
 21 22  1  0
 22 23  1  0
 22 24  1  0
 24 25  1  0
 24 26  1  0
 19 27  1  0
 27 28  1  6
 27 29  1  0
 29 30  1  0
 30 31  1  0
 31 32  1  1
  7  5  1  0
 31 10  1  0
 31 13  1  0
 27 15  1  0
 24 18  1  0
  1 33  1  0
  1 34  1  0
  1 35  1  0
  2 36  1  6
  3 37  1  0
  3 38  1  0
  4 39  1  0
  4 40  1  0
  5 41  1  1
  8 42  1  0
  8 43  1  0
  8 44  1  0
  9 45  1  0
  9 46  1  0
  9 47  1  0
 10 48  1  1
 11 49  1  0
 11 50  1  0
 12 51  1  0
 12 52  1  0
 14 53  1  0
 14 54  1  0
 14 55  1  0
 15 56  1  6
 16 57  1  0
 16 58  1  0
 17 59  1  0
 19 60  1  1
 20 61  1  0
 20 62  1  0
 21 63  1  0
 21 64  1  0
 22 65  1  1
 23 66  1  0
 25 67  1  0
 25 68  1  0
 25 69  1  0
 26 70  1  0
 26 71  1  0
 26 72  1  0
 28 73  1  0
 28 74  1  0
 28 75  1  0
 29 76  1  0
 29 77  1  0
 30 78  1  0
 30 79  1  0
 32 80  1  0
 32 81  1  0
 32 82  1  0
M  END
>  <meeko>  (4) 
{"is_sidechain": [false], "intermolecular_energy": 2.731, "internal_energy": -0.839}

$$$$
EPH_relaxed_0001_pdb2pqr_Repair_215_r2_0001_out
     RDKit          3D

 82 86  0  0  0  0  0  0  0  0999 V2000
   -3.3960    9.3070    0.5160 C   0  0  0  0  0  0  0  0  0  0  0  0
   -2.5700    9.6750   -0.7200 C   0  0  2  0  0  0  0  0  0  0  0  0
   -1.9050    8.4410   -1.3610 C   0  0  0  0  0  0  0  0  0  0  0  0
   -2.8240    7.6710   -2.3130 C   0  0  0  0  0  0  0  0  0  0  0  0
   -4.2600    7.7670   -1.8950 C   0  0  2  0  0  0  0  0  0  0  0  0
   -4.8000    6.5660   -1.3290 O   0  0  0  0  0  0  0  0  0  0  0  0
   -5.3810    6.9980   -2.5700 C   0  0  0  0  0  0  0  0  0  0  0  0
   -5.1140    6.0780   -3.7190 C   0  0  0  0  0  0  0  0  0  0  0  0
   -6.7810    7.5080   -2.4340 C   0  0  0  0  0  0  0  0  0  0  0  0
   -1.5100   10.7050   -0.3490 C   0  0  1  0  0  0  0  0  0  0  0  0
   -0.4090   10.1220    0.5770 C   0  0  0  0  0  0  0  0  0  0  0  0
    0.9210   10.8160    0.1820 C   0  0  0  0  0  0  0  0  0  0  0  0
    0.4910   12.0010   -0.7140 C   0  0  1  0  0  0  0  0  0  0  0  0
    0.0550   13.1210    0.2820 C   0  0  0  0  0  0  0  0  0  0  0  0
    1.5580   12.5180   -1.7340 C   0  0  2  0  0  0  0  0  0  0  0  0
    2.8420   13.0850   -1.1040 C   0  0  0  0  0  0  0  0  0  0  0  0
    2.8180   14.5490   -0.8150 C   0  0  0  0  0  0  0  0  0  0  0  0
    1.9250   15.4290   -1.3070 C   0  0  0  0  0  0  0  0  0  0  0  0
    0.8670   14.9900   -2.3280 C   0  0  1  0  0  0  0  0  0  0  0  0
    0.8130   16.0150   -3.4910 C   0  0  0  0  0  0  0  0  0  0  0  0
    0.5950   17.4430   -3.0020 C   0  0  0  0  0  0  0  0  0  0  0  0
    1.6990   17.8630   -2.0350 C   0  0  2  0  0  0  0  0  0  0  0  0
    2.9360   17.9390   -2.7510 O   0  0  0  0  0  0  0  0  0  0  0  0
    1.8540   16.8990   -0.8260 C   0  0  0  0  0  0  0  0  0  0  0  0
    0.6330   17.0440    0.1150 C   0  0  0  0  0  0  0  0  0  0  0  0
    3.0900   17.3560   -0.0060 C   0  0  0  0  0  0  0  0  0  0  0  0
    0.9790   13.4900   -2.8410 C   0  0  1  0  0  0  0  0  0  0  0  0
    1.9550   13.4140   -4.0540 C   0  0  0  0  0  0  0  0  0  0  0  0
   -0.4280   13.0220   -3.3720 C   0  0  0  0  0  0  0  0  0  0  0  0
   -1.3920   12.4100   -2.3380 C   0  0  0  0  0  0  0  0  0  0  0  0
   -0.6920   11.3320   -1.5060 C   0  0  2  0  0  0  0  0  0  0  0  0
   -0.2620   10.1810   -2.4780 C   0  0  0  0  0  0  0  0  0  0  0  0
   -2.8292    9.5595    1.4243 H   0  0  0  0  0  0  0  0  0  0  0  0
   -4.3416    9.8690    0.5057 H   0  0  0  0  0  0  0  0  0  0  0  0
   -3.6105    8.2282    0.5057 H   0  0  0  0  0  0  0  0  0  0  0  0
   -3.2586   10.1026   -1.4636 H   0  0  0  0  0  0  0  0  0  0  0  0
   -1.0225    8.7762   -1.9257 H   0  0  0  0  0  0  0  0  0  0  0  0
   -1.6437    7.7550   -0.5418 H   0  0  0  0  0  0  0  0  0  0  0  0
   -2.7187    8.0881   -3.3254 H   0  0  0  0  0  0  0  0  0  0  0  0
   -2.5304    6.6111   -2.2910 H   0  0  0  0  0  0  0  0  0  0  0  0
   -4.1412    8.8319   -1.6465 H   0  0  0  0  0  0  0  0  0  0  0  0
   -4.8265    5.0875   -3.3365 H   0  0  0  0  0  0  0  0  0  0  0  0
   -6.0221    5.9847   -4.3327 H   0  0  0  0  0  0  0  0  0  0  0  0
   -4.2970    6.4853   -4.3327 H   0  0  0  0  0  0  0  0  0  0  0  0
   -7.0355    7.6007   -1.3679 H   0  0  0  0  0  0  0  0  0  0  0  0
   -6.8610    8.4930   -2.9171 H   0  0  0  0  0  0  0  0  0  0  0  0
   -7.4758    6.8052   -2.9171 H   0  0  0  0  0  0  0  0  0  0  0  0
   -2.1499   11.4693    0.1161 H   0  0  0  0  0  0  0  0  0  0  0  0
   -0.6484   10.3331    1.6297 H   0  0  0  0  0  0  0  0  0  0  0  0
   -0.3341    9.0305    0.4632 H   0  0  0  0  0  0  0  0  0  0  0  0
    1.4510   11.1771    1.0757 H   0  0  0  0  0  0  0  0  0  0  0  0
    1.6115   10.1322   -0.3333 H   0  0  0  0  0  0  0  0  0  0  0  0
    0.1926   12.7674    1.3145 H   0  0  0  0  0  0  0  0  0  0  0  0
    0.6695   14.0182    0.1167 H   0  0  0  0  0  0  0  0  0  0  0  0
   -1.0044   13.3666    0.1167 H   0  0  0  0  0  0  0  0  0  0  0  0
    1.8606   11.5935   -2.2476 H   0  0  0  0  0  0  0  0  0  0  0  0
    3.0187   12.5545   -0.1567 H   0  0  0  0  0  0  0  0  0  0  0  0
    3.6379   12.9349   -1.8483 H   0  0  0  0  0  0  0  0  0  0  0  0
    3.5953   14.9425   -0.1435 H   0  0  0  0  0  0  0  0  0  0  0  0
   -0.0921   14.9860   -1.7895 H   0  0  0  0  0  0  0  0  0  0  0  0
    1.7635   15.9725   -4.0430 H   0  0  0  0  0  0  0  0  0  0  0  0
   -0.0398   15.7478   -4.1324 H   0  0  0  0  0  0  0  0  0  0  0  0
    0.5954   18.1235   -3.8663 H   0  0  0  0  0  0  0  0  0  0  0  0
   -0.3697   17.4904   -2.4755 H   0  0  0  0  0  0  0  0  0  0  0  0
    1.4189   18.8429   -1.6212 H   0  0  0  0  0  0  0  0  0  0  0  0
    3.0730   17.0840   -3.1930 H   0  0  0  0  0  0  0  0  0  0  0  0
    0.9697   17.0040    1.1614 H   0  0  0  0  0  0  0  0  0  0  0  0
    0.1368   18.0074   -0.0739 H   0  0  0  0  0  0  0  0  0  0  0  0
   -0.0750   16.2236   -0.0739 H   0  0  0  0  0  0  0  0  0  0  0  0
    2.8681   17.2739    1.0683 H   0  0  0  0  0  0  0  0  0  0  0  0
    3.9504   16.7166   -0.2525 H   0  0  0  0  0  0  0  0  0  0  0  0
    3.3275   18.4014   -0.2525 H   0  0  0  0  0  0  0  0  0  0  0  0
    2.9892   13.3335   -3.6880 H   0  0  0  0  0  0  0  0  0  0  0  0
    1.7126   12.5320   -4.6650 H   0  0  0  0  0  0  0  0  0  0  0  0
    1.8520   14.3229   -4.6650 H   0  0  0  0  0  0  0  0  0  0  0  0
   -0.9256   13.8983   -3.8130 H   0  0  0  0  0  0  0  0  0  0  0  0
   -0.2123   12.2091   -4.0810 H   0  0  0  0  0  0  0  0  0  0  0  0
   -1.7522   13.2044   -1.6677 H   0  0  0  0  0  0  0  0  0  0  0  0
   -2.2336   11.9473   -2.8743 H   0  0  0  0  0  0  0  0  0  0  0  0
    0.0638    9.3089   -1.8921 H   0  0  0  0  0  0  0  0  0  0  0  0
   -1.1153    9.8987   -3.1122 H   0  0  0  0  0  0  0  0  0  0  0  0
    0.5674   10.5273   -3.1122 H   0  0  0  0  0  0  0  0  0  0  0  0
  1  2  1  0
  2  3  1  0
  3  4  1  0
  4  5  1  0
  5  6  1  0
  6  7  1  0
  7  8  1  0
  7  9  1  0
  2 10  1  0
 10 11  1  0
 11 12  1  0
 12 13  1  0
 13 14  1  1
 13 15  1  0
 15 16  1  0
 16 17  1  0
 17 18  2  0
 18 19  1  0
 19 20  1  0
 20 21  1  0
 21 22  1  0
 22 23  1  0
 22 24  1  0
 24 25  1  0
 24 26  1  0
 19 27  1  0
 27 28  1  6
 27 29  1  0
 29 30  1  0
 30 31  1  0
 31 32  1  6
  7  5  1  0
 31 10  1  0
 31 13  1  0
 27 15  1  0
 24 18  1  0
  1 33  1  0
  1 34  1  0
  1 35  1  0
  2 36  1  6
  3 37  1  0
  3 38  1  0
  4 39  1  0
  4 40  1  0
  5 41  1  1
  8 42  1  0
  8 43  1  0
  8 44  1  0
  9 45  1  0
  9 46  1  0
  9 47  1  0
 10 48  1  1
 11 49  1  0
 11 50  1  0
 12 51  1  0
 12 52  1  0
 14 53  1  0
 14 54  1  0
 14 55  1  0
 15 56  1  6
 16 57  1  0
 16 58  1  0
 17 59  1  0
 19 60  1  1
 20 61  1  0
 20 62  1  0
 21 63  1  0
 21 64  1  0
 22 65  1  1
 23 66  1  0
 25 67  1  0
 25 68  1  0
 25 69  1  0
 26 70  1  0
 26 71  1  0
 26 72  1  0
 28 73  1  0
 28 74  1  0
 28 75  1  0
 29 76  1  0
 29 77  1  0
 30 78  1  0
 30 79  1  0
 32 80  1  0
 32 81  1  0
 32 82  1  0
M  END
>  <meeko>  (5) 
{"is_sidechain": [false], "intermolecular_energy": 2.731, "internal_energy": -0.839}

$$$$
EPH_relaxed_0001_pdb2pqr_Repair_215_r2_0001_out
     RDKit          3D

 82 86  0  0  0  0  0  0  0  0999 V2000
    3.6990   17.9750    0.9010 C   0  0  0  0  0  0  0  0  0  0  0  0
    2.6830   18.4140   -0.1560 C   0  0  2  0  0  0  0  0  0  0  0  0
    1.9500   19.7100    0.2460 C   0  0  0  0  0  0  0  0  0  0  0  0
    0.9850   19.5320    1.4210 C   0  0  0  0  0  0  0  0  0  0  0  0
   -0.3370   20.1860    1.1570 C   0  0  2  0  0  0  0  0  0  0  0  0
   -1.2400   20.1810    2.2710 O   0  0  0  0  0  0  0  0  0  0  0  0
   -1.6510   19.4300    1.1170 C   0  0  0  0  0  0  0  0  0  0  0  0
   -1.7080   17.9510    1.3420 C   0  0  0  0  0  0  0  0  0  0  0  0
   -2.8050   20.0380    0.3810 C   0  0  0  0  0  0  0  0  0  0  0  0
    1.6740   17.2990   -0.4020 C   0  0  1  0  0  0  0  0  0  0  0  0
    0.4480   17.7750   -1.2270 C   0  0  0  0  0  0  0  0  0  0  0  0
    0.0230   16.5830   -2.1230 C   0  0  0  0  0  0  0  0  0  0  0  0
    0.7950   15.3710   -1.5530 C   0  0  1  0  0  0  0  0  0  0  0  0
   -0.0430   14.9060   -0.3210 C   0  0  0  0  0  0  0  0  0  0  0  0
    1.0640   14.1930   -2.5460 C   0  0  2  0  0  0  0  0  0  0  0  0
   -0.1960   13.5010   -3.0930 C   0  0  0  0  0  0  0  0  0  0  0  0
   -0.6860   12.3410   -2.2900 C   0  0  0  0  0  0  0  0  0  0  0  0
    0.0160   11.6960   -1.3400 C   0  0  0  0  0  0  0  0  0  0  0  0
    1.4790   12.0590   -1.0580 C   0  0  1  0  0  0  0  0  0  0  0  0
    2.3260   10.7630   -0.9620 C   0  0  0  0  0  0  0  0  0  0  0  0
    1.7650    9.7720    0.0540 C   0  0  0  0  0  0  0  0  0  0  0  0
    0.3280    9.3900   -0.2940 C   0  0  2  0  0  0  0  0  0  0  0  0
    0.3320    8.6500   -1.5180 O   0  0  0  0  0  0  0  0  0  0  0  0
   -0.6170   10.6170   -0.4270 C   0  0  0  0  0  0  0  0  0  0  0  0
   -0.8580   11.2420    0.9690 C   0  0  0  0  0  0  0  0  0  0  0  0
   -1.9980   10.1040   -0.9180 C   0  0  0  0  0  0  0  0  0  0  0  0
    2.1250   13.1390   -2.0290 C   0  0  1  0  0  0  0  0  0  0  0  0
    2.7070   12.4370   -3.2940 C   0  0  0  0  0  0  0  0  0  0  0  0
    3.3420   13.8230   -1.3010 C   0  0  0  0  0  0  0  0  0  0  0  0
    3.0280   15.0540   -0.4300 C   0  0  0  0  0  0  0  0  0  0  0  0
    2.1620   16.0600   -1.1930 C   0  0  2  0  0  0  0  0  0  0  0  0
    2.9870   16.5630   -2.4270 C   0  0  0  0  0  0  0  0  0  0  0  0
    3.2849   18.1539    1.9042 H   0  0  0  0  0  0  0  0  0  0  0  0
    3.9149   16.9033    0.7792 H   0  0  0  0  0  0  0  0  0  0  0  0
    4.6274   18.5522    0.7792 H   0  0  0  0  0  0  0  0  0  0  0  0
    3.2384   18.6230   -1.0822 H   0  0  0  0  0  0  0  0  0  0  0  0
    2.7024   20.4622    0.5254 H   0  0  0  0  0  0  0  0  0  0  0  0
    1.3477   20.0207   -0.6204 H   0  0  0  0  0  0  0  0  0  0  0  0
    0.8235   18.4571    1.5898 H   0  0  0  0  0  0  0  0  0  0  0  0
    1.4319   20.0076    2.3065 H   0  0  0  0  0  0  0  0  0  0  0  0
    0.1272   20.8956    0.4563 H   0  0  0  0  0  0  0  0  0  0  0  0
   -1.7160   17.7445    2.4224 H   0  0  0  0  0  0  0  0  0  0  0  0
   -2.6224   17.5455    0.8845 H   0  0  0  0  0  0  0  0  0  0  0  0
   -0.8275   17.4763    0.8845 H   0  0  0  0  0  0  0  0  0  0  0  0
   -3.5384   20.4244    1.1040 H   0  0  0  0  0  0  0  0  0  0  0  0
   -2.4434   20.8627   -0.2508 H   0  0  0  0  0  0  0  0  0  0  0  0
   -3.2807   19.2735   -0.2508 H   0  0  0  0  0  0  0  0  0  0  0  0
    1.4525   17.0175    0.6380 H   0  0  0  0  0  0  0  0  0  0  0  0
   -0.3756   18.0559   -0.5541 H   0  0  0  0  0  0  0  0  0  0  0  0
    0.6987   18.6568   -1.8349 H   0  0  0  0  0  0  0  0  0  0  0  0
   -1.0625   16.4169   -2.0589 H   0  0  0  0  0  0  0  0  0  0  0  0
    0.2485   16.7588   -3.1852 H   0  0  0  0  0  0  0  0  0  0  0  0
    0.4759   15.1939    0.6052 H   0  0  0  0  0  0  0  0  0  0  0  0
   -1.0335   15.3835   -0.3500 H   0  0  0  0  0  0  0  0  0  0  0  0
   -0.1620   13.8128   -0.3500 H   0  0  0  0  0  0  0  0  0  0  0  0
    1.5188   14.7075   -3.4054 H   0  0  0  0  0  0  0  0  0  0  0  0
   -1.0020   14.2483   -3.1376 H   0  0  0  0  0  0  0  0  0  0  0  0
    0.0826   13.0945   -4.0764 H   0  0  0  0  0  0  0  0  0  0  0  0
   -1.7066   11.9837   -2.4920 H   0  0  0  0  0  0  0  0  0  0  0  0
    1.4811   12.5786   -0.0884 H   0  0  0  0  0  0  0  0  0  0  0  0
    2.3466   10.2810   -1.9506 H   0  0  0  0  0  0  0  0  0  0  0  0
    3.3353   11.0472   -0.6295 H   0  0  0  0  0  0  0  0  0  0  0  0
    2.3884    8.8657    0.0553 H   0  0  0  0  0  0  0  0  0  0  0  0
    1.7724   10.2447    1.0472 H   0  0  0  0  0  0  0  0  0  0  0  0
   -0.0626    8.7827    0.5358 H   0  0  0  0  0  0  0  0  0  0  0  0
   -0.5450    8.7520   -1.9260 H   0  0  0  0  0  0  0  0  0  0  0  0
   -0.5787   10.5176    1.7482 H   0  0  0  0  0  0  0  0  0  0  0  0
   -0.2453   12.1493    1.0753 H   0  0  0  0  0  0  0  0  0  0  0  0
   -1.9213   11.5031    1.0753 H   0  0  0  0  0  0  0  0  0  0  0  0
   -2.6315    9.8687   -0.0500 H   0  0  0  0  0  0  0  0  0  0  0  0
   -2.4831   10.8819   -1.5259 H   0  0  0  0  0  0  0  0  0  0  0  0
   -1.8576    9.1980   -1.5259 H   0  0  0  0  0  0  0  0  0  0  0  0
    3.3808   11.6243   -2.9850 H   0  0  0  0  0  0  0  0  0  0  0  0
    1.8839   12.0225   -3.8947 H   0  0  0  0  0  0  0  0  0  0  0  0
    3.2668   13.1690   -3.8947 H   0  0  0  0  0  0  0  0  0  0  0  0
    3.8094   13.0672   -0.6527 H   0  0  0  0  0  0  0  0  0  0  0  0
    3.9862   14.1993   -2.1093 H   0  0  0  0  0  0  0  0  0  0  0  0
    2.4902   14.7282    0.4726 H   0  0  0  0  0  0  0  0  0  0  0  0
    3.9757   15.5423   -0.1590 H   0  0  0  0  0  0  0  0  0  0  0  0
    3.8772   17.1057   -2.0763 H   0  0  0  0  0  0  0  0  0  0  0  0
    3.2990   15.7013   -3.0354 H   0  0  0  0  0  0  0  0  0  0  0  0
    2.3639   17.2350   -3.0354 H   0  0  0  0  0  0  0  0  0  0  0  0
  1  2  1  0
  2  3  1  0
  3  4  1  0
  4  5  1  0
  5  6  1  0
  6  7  1  0
  7  8  1  0
  7  9  1  0
  2 10  1  0
 10 11  1  0
 11 12  1  0
 12 13  1  0
 13 14  1  1
 13 15  1  0
 15 16  1  0
 16 17  1  0
 17 18  2  0
 18 19  1  0
 19 20  1  0
 20 21  1  0
 21 22  1  0
 22 23  1  0
 22 24  1  0
 24 25  1  0
 24 26  1  0
 19 27  1  0
 27 28  1  6
 27 29  1  0
 29 30  1  0
 30 31  1  0
 31 32  1  6
  7  5  1  0
 31 10  1  0
 31 13  1  0
 27 15  1  0
 24 18  1  0
  1 33  1  0
  1 34  1  0
  1 35  1  0
  2 36  1  6
  3 37  1  0
  3 38  1  0
  4 39  1  0
  4 40  1  0
  5 41  1  6
  8 42  1  0
  8 43  1  0
  8 44  1  0
  9 45  1  0
  9 46  1  0
  9 47  1  0
 10 48  1  1
 11 49  1  0
 11 50  1  0
 12 51  1  0
 12 52  1  0
 14 53  1  0
 14 54  1  0
 14 55  1  0
 15 56  1  6
 16 57  1  0
 16 58  1  0
 17 59  1  0
 19 60  1  1
 20 61  1  0
 20 62  1  0
 21 63  1  0
 21 64  1  0
 22 65  1  1
 23 66  1  0
 25 67  1  0
 25 68  1  0
 25 69  1  0
 26 70  1  0
 26 71  1  0
 26 72  1  0
 28 73  1  0
 28 74  1  0
 28 75  1  0
 29 76  1  0
 29 77  1  0
 30 78  1  0
 30 79  1  0
 32 80  1  0
 32 81  1  0
 32 82  1  0
M  END
>  <meeko>  (6) 
{"is_sidechain": [false], "intermolecular_energy": 2.731, "internal_energy": -0.839}

$$$$
EPH_relaxed_0001_pdb2pqr_Repair_215_r2_0001_out
     RDKit          3D

 82 86  0  0  0  0  0  0  0  0999 V2000
   -5.1630    5.8150   -1.8170 C   0  0  0  0  0  0  0  0  0  0  0  0
   -5.4740    7.3140   -1.8440 C   0  0  2  0  0  0  0  0  0  0  0  0
   -5.2460    7.9790   -0.4720 C   0  0  0  0  0  0  0  0  0  0  0  0
   -4.2160    9.1110   -0.4990 C   0  0  0  0  0  0  0  0  0  0  0  0
   -2.8320    8.5950   -0.7550 C   0  0  2  0  0  0  0  0  0  0  0  0
   -1.8660    8.9510    0.2430 O   0  0  0  0  0  0  0  0  0  0  0  0
   -1.6490    9.4920   -1.0710 C   0  0  0  0  0  0  0  0  0  0  0  0
   -1.7970   10.9790   -1.1490 C   0  0  0  0  0  0  0  0  0  0  0  0
   -0.4710    8.9000   -1.7790 C   0  0  0  0  0  0  0  0  0  0  0  0
   -6.9100    7.5390   -2.3000 C   0  0  1  0  0  0  0  0  0  0  0  0
   -7.2280    6.8330   -3.6450 C   0  0  0  0  0  0  0  0  0  0  0  0
   -8.7030    6.3630   -3.5650 C   0  0  0  0  0  0  0  0  0  0  0  0
   -9.2810    7.0960   -2.3320 C   0  0  1  0  0  0  0  0  0  0  0  0
   -9.6320    8.5280   -2.8450 C   0  0  0  0  0  0  0  0  0  0  0  0
  -10.5030    6.4170   -1.6340 C   0  0  2  0  0  0  0  0  0  0  0  0
  -11.7640    6.2860   -2.5070 C   0  0  0  0  0  0  0  0  0  0  0  0
  -12.7150    7.4340   -2.4300 C   0  0  0  0  0  0  0  0  0  0  0  0
  -12.7100    8.3910   -1.4830 C   0  0  0  0  0  0  0  0  0  0  0  0
  -11.7380    8.3230   -0.2990 C   0  0  1  0  0  0  0  0  0  0  0  0
  -12.5050    8.6150    1.0180 C   0  0  0  0  0  0  0  0  0  0  0  0
  -13.2720    9.9330    0.9680 C   0  0  0  0  0  0  0  0  0  0  0  0
  -14.2700    9.9390   -0.1870 C   0  0  2  0  0  0  0  0  0  0  0  0
  -15.2870    8.9690    0.0770 O   0  0  0  0  0  0  0  0  0  0  0  0
  -13.6130    9.6470   -1.5660 C   0  0  0  0  0  0  0  0  0  0  0  0
  -12.7350   10.8500   -1.9900 C   0  0  0  0  0  0  0  0  0  0  0  0
  -14.7460    9.5420   -2.6220 C   0  0  0  0  0  0  0  0  0  0  0  0
  -10.8470    7.0100   -0.2080 C   0  0  1  0  0  0  0  0  0  0  0  0
  -11.6190    5.8960    0.5640 C   0  0  0  0  0  0  0  0  0  0  0  0
   -9.5560    7.3220    0.6380 C   0  0  0  0  0  0  0  0  0  0  0  0
   -8.3420    7.8800   -0.1290 C   0  0  0  0  0  0  0  0  0  0  0  0
   -8.0400    7.0320   -1.3690 C   0  0  2  0  0  0  0  0  0  0  0  0
   -7.6610    5.5910   -0.8830 C   0  0  0  0  0  0  0  0  0  0  0  0
   -5.0922    5.4739   -0.7736 H   0  0  0  0  0  0  0  0  0  0  0  0
   -5.9661    5.2646   -2.3290 H   0  0  0  0  0  0  0  0  0  0  0  0
   -4.2072    5.6295   -2.3290 H   0  0  0  0  0  0  0  0  0  0  0  0
   -4.7802    7.7830   -2.5573 H   0  0  0  0  0  0  0  0  0  0  0  0
   -6.2044    8.3901   -0.1221 H   0  0  0  0  0  0  0  0  0  0  0  0
   -4.8515    7.2022    0.1995 H   0  0  0  0  0  0  0  0  0  0  0  0
   -4.4855    9.8193   -1.2962 H   0  0  0  0  0  0  0  0  0  0  0  0
   -4.2219    9.6037    0.4845 H   0  0  0  0  0  0  0  0  0  0  0  0
   -3.2328    7.6999   -1.2532 H   0  0  0  0  0  0  0  0  0  0  0  0
   -1.8386   11.3972   -0.1324 H   0  0  0  0  0  0  0  0  0  0  0  0
   -0.9369   11.4054   -1.6860 H   0  0  0  0  0  0  0  0  0  0  0  0
   -2.7243   11.2275   -1.6860 H   0  0  0  0  0  0  0  0  0  0  0  0
    0.2560    8.5346   -1.0388 H   0  0  0  0  0  0  0  0  0  0  0  0
   -0.8049    8.0626   -2.4093 H   0  0  0  0  0  0  0  0  0  0  0  0
    0.0017    9.6676   -2.4093 H   0  0  0  0  0  0  0  0  0  0  0  0
   -6.9200    8.6382   -2.3397 H   0  0  0  0  0  0  0  0  0  0  0  0
   -7.0991    7.5356   -4.4815 H   0  0  0  0  0  0  0  0  0  0  0  0
   -6.5510    5.9828   -3.8147 H   0  0  0  0  0  0  0  0  0  0  0  0
   -9.2503    6.6456   -4.4764 H   0  0  0  0  0  0  0  0  0  0  0  0
   -8.7878    5.2698   -3.4774 H   0  0  0  0  0  0  0  0  0  0  0  0
   -9.7956    9.1954   -1.9860 H   0  0  0  0  0  0  0  0  0  0  0  0
   -8.8016    8.9127   -3.4552 H   0  0  0  0  0  0  0  0  0  0  0  0
  -10.5462    8.4850   -3.4552 H   0  0  0  0  0  0  0  0  0  0  0  0
  -10.1421    5.3902   -1.4744 H   0  0  0  0  0  0  0  0  0  0  0  0
  -11.4432    6.1801   -3.5538 H   0  0  0  0  0  0  0  0  0  0  0  0
  -12.3104    5.4119   -2.1230 H   0  0  0  0  0  0  0  0  0  0  0  0
  -13.4846    7.5040   -3.2128 H   0  0  0  0  0  0  0  0  0  0  0  0
  -10.9877    9.1077   -0.4759 H   0  0  0  0  0  0  0  0  0  0  0  0
  -13.2191    7.7980    1.1988 H   0  0  0  0  0  0  0  0  0  0  0  0
  -11.7633    8.6906    1.8268 H   0  0  0  0  0  0  0  0  0  0  0  0
  -13.8157   10.0694    1.9145 H   0  0  0  0  0  0  0  0  0  0  0  0
  -12.5537   10.7521    0.8160 H   0  0  0  0  0  0  0  0  0  0  0  0
  -14.6949   10.9516   -0.2505 H   0  0  0  0  0  0  0  0  0  0  0  0
  -16.1100    9.2860   -0.3340 H   0  0  0  0  0  0  0  0  0  0  0  0
  -12.3597   11.3642   -1.0929 H   0  0  0  0  0  0  0  0  0  0  0  0
  -11.8853   10.4907   -2.5891 H   0  0  0  0  0  0  0  0  0  0  0  0
  -13.3363   11.5497   -2.5891 H   0  0  0  0  0  0  0  0  0  0  0  0
  -15.7161    9.4521   -2.1113 H   0  0  0  0  0  0  0  0  0  0  0  0
  -14.7453   10.4441   -3.2515 H   0  0  0  0  0  0  0  0  0  0  0  0
  -14.5795    8.6554   -3.2515 H   0  0  0  0  0  0  0  0  0  0  0  0
  -11.5081    6.0560    1.6466 H   0  0  0  0  0  0  0  0  0  0  0  0
  -12.6849    5.9348    0.2949 H   0  0  0  0  0  0  0  0  0  0  0  0
  -11.2085    4.9116    0.2949 H   0  0  0  0  0  0  0  0  0  0  0  0
   -9.8317    8.0590    1.4066 H   0  0  0  0  0  0  0  0  0  0  0  0
   -9.2264    6.3487    1.0305 H   0  0  0  0  0  0  0  0  0  0  0  0
   -8.5578    8.9120   -0.4426 H   0  0  0  0  0  0  0  0  0  0  0  0
   -7.4655    7.8548    0.5352 H   0  0  0  0  0  0  0  0  0  0  0  0
   -7.6541    5.5649    0.2167 H   0  0  0  0  0  0  0  0  0  0  0  0
   -8.4000    4.8699   -1.2623 H   0  0  0  0  0  0  0  0  0  0  0  0
   -6.6628    5.3268   -1.2623 H   0  0  0  0  0  0  0  0  0  0  0  0
  1  2  1  0
  2  3  1  0
  3  4  1  0
  4  5  1  0
  5  6  1  0
  6  7  1  0
  7  8  1  0
  7  9  1  0
  2 10  1  0
 10 11  1  0
 11 12  1  0
 12 13  1  0
 13 14  1  6
 13 15  1  0
 15 16  1  0
 16 17  1  0
 17 18  2  0
 18 19  1  0
 19 20  1  0
 20 21  1  0
 21 22  1  0
 22 23  1  0
 22 24  1  0
 24 25  1  0
 24 26  1  0
 19 27  1  0
 27 28  1  1
 27 29  1  0
 29 30  1  0
 30 31  1  0
 31 32  1  1
  7  5  1  0
 31 10  1  0
 31 13  1  0
 27 15  1  0
 24 18  1  0
  1 33  1  0
  1 34  1  0
  1 35  1  0
  2 36  1  6
  3 37  1  0
  3 38  1  0
  4 39  1  0
  4 40  1  0
  5 41  1  6
  8 42  1  0
  8 43  1  0
  8 44  1  0
  9 45  1  0
  9 46  1  0
  9 47  1  0
 10 48  1  6
 11 49  1  0
 11 50  1  0
 12 51  1  0
 12 52  1  0
 14 53  1  0
 14 54  1  0
 14 55  1  0
 15 56  1  1
 16 57  1  0
 16 58  1  0
 17 59  1  0
 19 60  1  6
 20 61  1  0
 20 62  1  0
 21 63  1  0
 21 64  1  0
 22 65  1  6
 23 66  1  0
 25 67  1  0
 25 68  1  0
 25 69  1  0
 26 70  1  0
 26 71  1  0
 26 72  1  0
 28 73  1  0
 28 74  1  0
 28 75  1  0
 29 76  1  0
 29 77  1  0
 30 78  1  0
 30 79  1  0
 32 80  1  0
 32 81  1  0
 32 82  1  0
M  END
>  <meeko>  (7) 
{"is_sidechain": [false], "intermolecular_energy": 2.731, "internal_energy": -0.839}

$$$$
EPH_relaxed_0001_pdb2pqr_Repair_215_r2_0001_out
     RDKit          3D

 82 86  0  0  0  0  0  0  0  0999 V2000
   -0.1250   10.0720   -2.8030 C   0  0  0  0  0  0  0  0  0  0  0  0
   -0.5800   10.2000   -1.3460 C   0  0  2  0  0  0  0  0  0  0  0  0
   -2.1150   10.1390   -1.2090 C   0  0  0  0  0  0  0  0  0  0  0  0
   -2.6150    8.9210   -0.4290 C   0  0  0  0  0  0  0  0  0  0  0  0
   -4.1070    8.7960   -0.4930 C   0  0  2  0  0  0  0  0  0  0  0  0
   -4.6220    7.5300   -0.0580 O   0  0  0  0  0  0  0  0  0  0  0  0
   -4.8280    7.8560   -1.4420 C   0  0  0  0  0  0  0  0  0  0  0  0
   -4.0750    6.9780   -2.3920 C   0  0  0  0  0  0  0  0  0  0  0  0
   -6.2560    8.1440   -1.7870 C   0  0  0  0  0  0  0  0  0  0  0  0
   -0.0560   11.5010   -0.7510 C   0  0  1  0  0  0  0  0  0  0  0  0
    1.1600   11.2810    0.1890 C   0  0  0  0  0  0  0  0  0  0  0  0
    2.0920   12.5080    0.0100 C   0  0  0  0  0  0  0  0  0  0  0  0
    1.2350   13.5380   -0.7630 C   0  0  1  0  0  0  0  0  0  0  0  0
    0.3440   14.2150    0.3250 C   0  0  0  0  0  0  0  0  0  0  0  0
    2.0200   14.5950   -1.6060 C   0  0  2  0  0  0  0  0  0  0  0  0
    2.9330   15.5300   -0.7940 C   0  0  0  0  0  0  0  0  0  0  0  0
    2.2940   16.7950   -0.3230 C   0  0  0  0  0  0  0  0  0  0  0  0
    1.1320   17.3000   -0.7770 C   0  0  0  0  0  0  0  0  0  0  0  0
    0.3830   16.6320   -1.9370 C   0  0  1  0  0  0  0  0  0  0  0  0
   -0.0580   17.7130   -2.9590 C   0  0  0  0  0  0  0  0  0  0  0  0
   -0.8640   18.8350   -2.3130 C   0  0  0  0  0  0  0  0  0  0  0  0
   -0.0640   19.5120   -1.2030 C   0  0  2  0  0  0  0  0  0  0  0  0
    1.0490   20.1940   -1.7880 O   0  0  0  0  0  0  0  0  0  0  0  0
    0.4420   18.5200   -0.1190 C   0  0  0  0  0  0  0  0  0  0  0  0
   -0.7570   18.0080    0.7180 C   0  0  0  0  0  0  0  0  0  0  0  0
    1.3510   19.3080    0.8620 C   0  0  0  0  0  0  0  0  0  0  0  0
    1.1230   15.4060   -2.6270 C   0  0  1  0  0  0  0  0  0  0  0  0
    2.0780   15.9230   -3.7460 C   0  0  0  0  0  0  0  0  0  0  0  0
    0.0550   14.4950   -3.3390 C   0  0  0  0  0  0  0  0  0  0  0  0
   -0.5980   13.3920   -2.4850 C   0  0  0  0  0  0  0  0  0  0  0  0
    0.4620   12.5770   -1.7380 C   0  0  2  0  0  0  0  0  0  0  0  0
    1.3600   11.8660   -2.8070 C   0  0  0  0  0  0  0  0  0  0  0  0
    0.9335    9.7742   -2.8317 H   0  0  0  0  0  0  0  0  0  0  0  0
   -0.7341    9.3103   -3.3118 H   0  0  0  0  0  0  0  0  0  0  0  0
   -0.2477   11.0395   -3.3118 H   0  0  0  0  0  0  0  0  0  0  0  0
   -0.1651    9.3441   -0.7934 H   0  0  0  0  0  0  0  0  0  0  0  0
   -2.4536   11.0473   -0.6891 H   0  0  0  0  0  0  0  0  0  0  0  0
   -2.5257   10.0600   -2.2264 H   0  0  0  0  0  0  0  0  0  0  0  0
   -2.1626    8.0139   -0.8562 H   0  0  0  0  0  0  0  0  0  0  0  0
   -2.3264    9.0467    0.6250 H   0  0  0  0  0  0  0  0  0  0  0  0
   -4.2291    9.8686   -0.2819 H   0  0  0  0  0  0  0  0  0  0  0  0
   -3.4620    6.2633   -1.8233 H   0  0  0  0  0  0  0  0  0  0  0  0
   -4.7866    6.4280   -3.0254 H   0  0  0  0  0  0  0  0  0  0  0  0
   -3.4230    7.5974   -3.0254 H   0  0  0  0  0  0  0  0  0  0  0  0
   -6.8400    8.2618   -0.8623 H   0  0  0  0  0  0  0  0  0  0  0  0
   -6.3111    9.0713   -2.3761 H   0  0  0  0  0  0  0  0  0  0  0  0
   -6.6662    7.3105   -2.3761 H   0  0  0  0  0  0  0  0  0  0  0  0
   -0.9697   11.8566   -0.2524 H   0  0  0  0  0  0  0  0  0  0  0  0
    0.8232   11.2104    1.2338 H   0  0  0  0  0  0  0  0  0  0  0  0
    1.6856   10.3466   -0.0574 H   0  0  0  0  0  0  0  0  0  0  0  0
    2.3959   12.9109    0.9874 H   0  0  0  0  0  0  0  0  0  0  0  0
    3.0201   12.2533   -0.5227 H   0  0  0  0  0  0  0  0  0  0  0  0
    0.7103   13.9367    1.3242 H   0  0  0  0  0  0  0  0  0  0  0  0
    0.3902   15.3079    0.2088 H   0  0  0  0  0  0  0  0  0  0  0  0
   -0.6965   13.8776    0.2088 H   0  0  0  0  0  0  0  0  0  0  0  0
    2.6945   13.9651   -2.2045 H   0  0  0  0  0  0  0  0  0  0  0  0
    3.2853   14.9777    0.0897 H   0  0  0  0  0  0  0  0  0  0  0  0
    3.7415   15.8330   -1.4756 H   0  0  0  0  0  0  0  0  0  0  0  0
    2.8172   17.3618    0.4612 H   0  0  0  0  0  0  0  0  0  0  0  0
   -0.5025   16.1547   -1.4920 H   0  0  0  0  0  0  0  0  0  0  0  0
    0.8401   18.1463   -3.4234 H   0  0  0  0  0  0  0  0  0  0  0  0
   -0.7035   17.2245   -3.7037 H   0  0  0  0  0  0  0  0  0  0  0  0
   -1.1198   19.5817   -3.0792 H   0  0  0  0  0  0  0  0  0  0  0  0
   -1.7769   18.4046   -1.8755 H   0  0  0  0  0  0  0  0  0  0  0  0
   -0.7382   20.2157   -0.6929 H   0  0  0  0  0  0  0  0  0  0  0  0
    0.7010   20.8050   -2.4600 H   0  0  0  0  0  0  0  0  0  0  0  0
   -0.5255   18.1069    1.7888 H   0  0  0  0  0  0  0  0  0  0  0  0
   -1.6511   18.6028    0.4797 H   0  0  0  0  0  0  0  0  0  0  0  0
   -0.9457   16.9508    0.4797 H   0  0  0  0  0  0  0  0  0  0  0  0
    1.0705   19.0648    1.8975 H   0  0  0  0  0  0  0  0  0  0  0  0
    2.4016   19.0301    0.6919 H   0  0  0  0  0  0  0  0  0  0  0  0
    1.2250   20.3874    0.6919 H   0  0  0  0  0  0  0  0  0  0  0  0
    2.9570   16.3989   -3.2869 H   0  0  0  0  0  0  0  0  0  0  0  0
    2.4029   15.0776   -4.3703 H   0  0  0  0  0  0  0  0  0  0  0  0
    1.5477   16.6572   -4.3703 H   0  0  0  0  0  0  0  0  0  0  0  0
   -0.7484   15.1499   -3.7073 H   0  0  0  0  0  0  0  0  0  0  0  0
    0.6105   13.9602   -4.1235 H   0  0  0  0  0  0  0  0  0  0  0  0
   -1.2757   13.8569   -1.7538 H   0  0  0  0  0  0  0  0  0  0  0  0
   -1.1548   12.7164   -3.1510 H   0  0  0  0  0  0  0  0  0  0  0  0
    2.1249   11.2604   -2.2990 H   0  0  0  0  0  0  0  0  0  0  0  0
    0.7353   11.2151   -3.4363 H   0  0  0  0  0  0  0  0  0  0  0  0
    1.8503   12.6234   -3.4363 H   0  0  0  0  0  0  0  0  0  0  0  0
  1  2  1  0
  2  3  1  0
  3  4  1  0
  4  5  1  0
  5  6  1  0
  6  7  1  0
  7  8  1  0
  7  9  1  0
  2 10  1  0
 10 11  1  0
 11 12  1  0
 12 13  1  0
 13 14  1  1
 13 15  1  0
 15 16  1  0
 16 17  1  0
 17 18  2  0
 18 19  1  0
 19 20  1  0
 20 21  1  0
 21 22  1  0
 22 23  1  0
 22 24  1  0
 24 25  1  0
 24 26  1  0
 19 27  1  0
 27 28  1  6
 27 29  1  0
 29 30  1  0
 30 31  1  0
 31 32  1  6
  7  5  1  0
 31 10  1  0
 31 13  1  0
 27 15  1  0
 24 18  1  0
  1 33  1  0
  1 34  1  0
  1 35  1  0
  2 36  1  1
  3 37  1  0
  3 38  1  0
  4 39  1  0
  4 40  1  0
  5 41  1  1
  8 42  1  0
  8 43  1  0
  8 44  1  0
  9 45  1  0
  9 46  1  0
  9 47  1  0
 10 48  1  1
 11 49  1  0
 11 50  1  0
 12 51  1  0
 12 52  1  0
 14 53  1  0
 14 54  1  0
 14 55  1  0
 15 56  1  6
 16 57  1  0
 16 58  1  0
 17 59  1  0
 19 60  1  1
 20 61  1  0
 20 62  1  0
 21 63  1  0
 21 64  1  0
 22 65  1  1
 23 66  1  0
 25 67  1  0
 25 68  1  0
 25 69  1  0
 26 70  1  0
 26 71  1  0
 26 72  1  0
 28 73  1  0
 28 74  1  0
 28 75  1  0
 29 76  1  0
 29 77  1  0
 30 78  1  0
 30 79  1  0
 32 80  1  0
 32 81  1  0
 32 82  1  0
M  END
>  <meeko>  (8) 
{"is_sidechain": [false], "intermolecular_energy": 2.731, "internal_energy": -0.839}

$$$$
EPH_relaxed_0001_pdb2pqr_Repair_215_r2_0001_out
     RDKit          3D

 82 86  0  0  0  0  0  0  0  0999 V2000
    0.4230    8.8510   -2.5390 C   0  0  0  0  0  0  0  0  0  0  0  0
    1.1860   10.0140   -3.1800 C   0  0  2  0  0  0  0  0  0  0  0  0
    2.6790   10.0130   -2.7930 C   0  0  0  0  0  0  0  0  0  0  0  0
    3.5920   10.6160   -3.8630 C   0  0  0  0  0  0  0  0  0  0  0  0
    4.9820   10.8360   -3.3460 C   0  0  2  0  0  0  0  0  0  0  0  0
    5.5950   12.0580   -3.7780 O   0  0  0  0  0  0  0  0  0  0  0  0
    6.2130   10.8430   -4.2330 C   0  0  0  0  0  0  0  0  0  0  0  0
    6.1120   10.6250   -5.7100 C   0  0  0  0  0  0  0  0  0  0  0  0
    7.5460   10.5750   -3.6070 C   0  0  0  0  0  0  0  0  0  0  0  0
    0.5460   11.3380   -2.7820 C   0  0  1  0  0  0  0  0  0  0  0  0
   -0.8300   11.1520   -2.0880 C   0  0  0  0  0  0  0  0  0  0  0  0
   -0.9460   12.2680   -1.0180 C   0  0  0  0  0  0  0  0  0  0  0  0
    0.2020   13.2490   -1.3520 C   0  0  1  0  0  0  0  0  0  0  0  0
   -0.3510   14.1320   -2.5140 C   0  0  0  0  0  0  0  0  0  0  0  0
    0.7330   14.1210   -0.1670 C   0  0  2  0  0  0  0  0  0  0  0  0
   -0.2980   15.0820    0.4480 C   0  0  0  0  0  0  0  0  0  0  0  0
   -0.3450   16.4440   -0.1630 C   0  0  0  0  0  0  0  0  0  0  0  0
    0.5950   16.9720   -0.9680 C   0  0  0  0  0  0  0  0  0  0  0  0
    1.8970   16.2150   -1.2620 C   0  0  1  0  0  0  0  0  0  0  0  0
    3.1020   17.1810   -1.1120 C   0  0  0  0  0  0  0  0  0  0  0  0
    2.9530   18.4380   -1.9630 C   0  0  0  0  0  0  0  0  0  0  0  0
    1.6770   19.1940   -1.6020 C   0  0  2  0  0  0  0  0  0  0  0  0
    1.8040   19.7040   -0.2710 O   0  0  0  0  0  0  0  0  0  0  0  0
    0.3960   18.3190   -1.7070 C   0  0  0  0  0  0  0  0  0  0  0  0
    0.0920   18.0170   -3.1950 C   0  0  0  0  0  0  0  0  0  0  0  0
   -0.8000   19.1580   -1.1810 C   0  0  0  0  0  0  0  0  0  0  0  0
    2.1020   14.8550   -0.4660 C   0  0  1  0  0  0  0  0  0  0  0  0
    2.7640   15.1420    0.9160 C   0  0  0  0  0  0  0  0  0  0  0  0
    3.1100   13.9420   -1.2600 C   0  0  0  0  0  0  0  0  0  0  0  0
    2.5100   13.0170   -2.3350 C   0  0  0  0  0  0  0  0  0  0  0  0
    1.3200   12.2300   -1.7790 C   0  0  2  0  0  0  0  0  0  0  0  0
    1.8500   11.3150   -0.6220 C   0  0  0  0  0  0  0  0  0  0  0  0
    0.4784    8.9355   -1.4437 H   0  0  0  0  0  0  0  0  0  0  0  0
   -0.6297    8.8838   -2.8565 H   0  0  0  0  0  0  0  0  0  0  0  0
    0.8722    7.8984   -2.8565 H   0  0  0  0  0  0  0  0  0  0  0  0
    1.1277    9.8862   -4.2710 H   0  0  0  0  0  0  0  0  0  0  0  0
    2.7981   10.5945   -1.8669 H   0  0  0  0  0  0  0  0  0  0  0  0
    2.9786    8.9618   -2.6698 H   0  0  0  0  0  0  0  0  0  0  0  0
    3.6355    9.9304   -4.7221 H   0  0  0  0  0  0  0  0  0  0  0  0
    3.1773   11.5913   -4.1577 H   0  0  0  0  0  0  0  0  0  0  0  0
    4.7463   10.2990   -2.4154 H   0  0  0  0  0  0  0  0  0  0  0  0
    5.6569    9.6428   -5.9054 H   0  0  0  0  0  0  0  0  0  0  0  0
    5.4875   11.4135   -6.1552 H   0  0  0  0  0  0  0  0  0  0  0  0
    7.1173   10.6584   -6.1552 H   0  0  0  0  0  0  0  0  0  0  0  0
    7.4473   10.5948   -2.5116 H   0  0  0  0  0  0  0  0  0  0  0  0
    7.9081    9.5861   -3.9247 H   0  0  0  0  0  0  0  0  0  0  0  0
    8.2622   11.3471   -3.9247 H   0  0  0  0  0  0  0  0  0  0  0  0
    0.5068   11.8264   -3.7668 H   0  0  0  0  0  0  0  0  0  0  0  0
   -1.6416   11.2474   -2.8244 H   0  0  0  0  0  0  0  0  0  0  0  0
   -0.9094   10.1554   -1.6293 H   0  0  0  0  0  0  0  0  0  0  0  0
   -1.9208   12.7728   -1.0875 H   0  0  0  0  0  0  0  0  0  0  0  0
   -0.8730   11.8734    0.0062 H   0  0  0  0  0  0  0  0  0  0  0  0
   -0.8908   14.9939   -2.0947 H   0  0  0  0  0  0  0  0  0  0  0  0
    0.4852   14.4890   -3.1332 H   0  0  0  0  0  0  0  0  0  0  0  0
   -1.0372   13.5355   -3.1332 H   0  0  0  0  0  0  0  0  0  0  0  0
    0.9378   13.3677    0.6079 H   0  0  0  0  0  0  0  0  0  0  0  0
   -1.2935   14.6267    0.3403 H   0  0  0  0  0  0  0  0  0  0  0  0
    0.0089   15.2284    1.4941 H   0  0  0  0  0  0  0  0  0  0  0  0
   -1.2219   17.0680    0.0642 H   0  0  0  0  0  0  0  0  0  0  0  0
    1.8216   15.8716   -2.3043 H   0  0  0  0  0  0  0  0  0  0  0  0
    3.1867   17.4779   -0.0562 H   0  0  0  0  0  0  0  0  0  0  0  0
    4.0013   16.6492   -1.4563 H   0  0  0  0  0  0  0  0  0  0  0  0
    3.8200   19.0931   -1.7921 H   0  0  0  0  0  0  0  0  0  0  0  0
    2.8974   18.1410   -3.0207 H   0  0  0  0  0  0  0  0  0  0  0  0
    1.5597   20.0101   -2.3302 H   0  0  0  0  0  0  0  0  0  0  0  0
    1.3100   19.1100    0.3200 H   0  0  0  0  0  0  0  0  0  0  0  0
   -0.6870   17.2431   -3.2603 H   0  0  0  0  0  0  0  0  0  0  0  0
   -0.2595   18.9338   -3.6908 H   0  0  0  0  0  0  0  0  0  0  0  0
    1.0065   17.6595   -3.6908 H   0  0  0  0  0  0  0  0  0  0  0  0
   -0.7948   19.1544   -0.0810 H   0  0  0  0  0  0  0  0  0  0  0  0
   -0.7104   20.1923   -1.5447 H   0  0  0  0  0  0  0  0  0  0  0  0
   -1.7420   18.7217   -1.5447 H   0  0  0  0  0  0  0  0  0  0  0  0
    2.0762   14.8438    1.7210 H   0  0  0  0  0  0  0  0  0  0  0  0
    3.6987   14.5683    1.0010 H   0  0  0  0  0  0  0  0  0  0  0  0
    2.9842   16.2164    1.0010 H   0  0  0  0  0  0  0  0  0  0  0  0
    3.8365   14.6020   -1.7567 H   0  0  0  0  0  0  0  0  0  0  0  0
    3.5410   13.2662   -0.5067 H   0  0  0  0  0  0  0  0  0  0  0  0
    2.1722   13.6264   -3.1862 H   0  0  0  0  0  0  0  0  0  0  0  0
    3.2836   12.3034   -2.6551 H   0  0  0  0  0  0  0  0  0  0  0  0
    1.5903   11.7634    0.3483 H   0  0  0  0  0  0  0  0  0  0  0  0
    1.3887   10.3196   -0.7012 H   0  0  0  0  0  0  0  0  0  0  0  0
    2.9430   11.2199   -0.7012 H   0  0  0  0  0  0  0  0  0  0  0  0
  1  2  1  0
  2  3  1  0
  3  4  1  0
  4  5  1  0
  5  6  1  0
  6  7  1  0
  7  8  1  0
  7  9  1  0
  2 10  1  0
 10 11  1  0
 11 12  1  0
 12 13  1  0
 13 14  1  6
 13 15  1  0
 15 16  1  0
 16 17  1  0
 17 18  2  0
 18 19  1  0
 19 20  1  0
 20 21  1  0
 21 22  1  0
 22 23  1  0
 22 24  1  0
 24 25  1  0
 24 26  1  0
 19 27  1  0
 27 28  1  1
 27 29  1  0
 29 30  1  0
 30 31  1  0
 31 32  1  1
  7  5  1  0
 31 10  1  0
 31 13  1  0
 27 15  1  0
 24 18  1  0
  1 33  1  0
  1 34  1  0
  1 35  1  0
  2 36  1  6
  3 37  1  0
  3 38  1  0
  4 39  1  0
  4 40  1  0
  5 41  1  1
  8 42  1  0
  8 43  1  0
  8 44  1  0
  9 45  1  0
  9 46  1  0
  9 47  1  0
 10 48  1  6
 11 49  1  0
 11 50  1  0
 12 51  1  0
 12 52  1  0
 14 53  1  0
 14 54  1  0
 14 55  1  0
 15 56  1  1
 16 57  1  0
 16 58  1  0
 17 59  1  0
 19 60  1  6
 20 61  1  0
 20 62  1  0
 21 63  1  0
 21 64  1  0
 22 65  1  6
 23 66  1  0
 25 67  1  0
 25 68  1  0
 25 69  1  0
 26 70  1  0
 26 71  1  0
 26 72  1  0
 28 73  1  0
 28 74  1  0
 28 75  1  0
 29 76  1  0
 29 77  1  0
 30 78  1  0
 30 79  1  0
 32 80  1  0
 32 81  1  0
 32 82  1  0
M  END
>  <meeko>  (9) 
{"is_sidechain": [false], "intermolecular_energy": 2.731, "internal_energy": -0.839}

$$$$
EPH_relaxed_0001_pdb2pqr_Repair_215_r2_0001_out
     RDKit          3D

 82 86  0  0  0  0  0  0  0  0999 V2000
    2.3220   19.6600   -0.8260 C   0  0  0  0  0  0  0  0  0  0  0  0
    2.0450   18.6990   -1.9860 C   0  0  2  0  0  0  0  0  0  0  0  0
    0.5630   18.7110   -2.4080 C   0  0  0  0  0  0  0  0  0  0  0  0
   -0.2660   19.7960   -1.7170 C   0  0  0  0  0  0  0  0  0  0  0  0
   -1.3540   19.2080   -0.8700 C   0  0  2  0  0  0  0  0  0  0  0  0
   -2.2130   20.1700   -0.2450 O   0  0  0  0  0  0  0  0  0  0  0  0
   -1.4180   19.3630    0.6380 C   0  0  0  0  0  0  0  0  0  0  0  0
   -0.3740   20.1290    1.3880 C   0  0  0  0  0  0  0  0  0  0  0  0
   -2.2130   18.3690    1.4260 C   0  0  0  0  0  0  0  0  0  0  0  0
    2.4670   17.2860   -1.6010 C   0  0  1  0  0  0  0  0  0  0  0  0
    3.3470   17.2520   -0.3230 C   0  0  0  0  0  0  0  0  0  0  0  0
    2.9820   15.9500    0.4360 C   0  0  0  0  0  0  0  0  0  0  0  0
    2.1600   15.1230   -0.5790 C   0  0  1  0  0  0  0  0  0  0  0  0
    3.2230   14.4400   -1.4950 C   0  0  0  0  0  0  0  0  0  0  0  0
    1.1630   14.0810    0.0240 C   0  0  2  0  0  0  0  0  0  0  0  0
    1.8140   12.9580    0.8500 C   0  0  0  0  0  0  0  0  0  0  0  0
    2.1880   11.7350    0.0800 C   0  0  0  0  0  0  0  0  0  0  0  0
    1.7560   11.4270   -1.1570 C   0  0  0  0  0  0  0  0  0  0  0  0
    0.7210   12.3050   -1.8710 C   0  0  1  0  0  0  0  0  0  0  0  0
   -0.3800   11.4070   -2.4940 C   0  0  0  0  0  0  0  0  0  0  0  0
    0.1930   10.3240   -3.4030 C   0  0  0  0  0  0  0  0  0  0  0  0
    1.1730    9.4360   -2.6420 C   0  0  2  0  0  0  0  0  0  0  0  0
    0.4520    8.6950   -1.6530 O   0  0  0  0  0  0  0  0  0  0  0  0
    2.3230   10.2320   -1.9630 C   0  0  0  0  0  0  0  0  0  0  0  0
    3.2810   10.7870   -3.0460 C   0  0  0  0  0  0  0  0  0  0  0  0
    3.1570    9.2360   -1.1140 C   0  0  0  0  0  0  0  0  0  0  0  0
    0.1200   13.5030   -1.0160 C   0  0  1  0  0  0  0  0  0  0  0  0
   -1.1050   13.0050   -0.1900 C   0  0  0  0  0  0  0  0  0  0  0  0
   -0.4250   14.6100   -1.9950 C   0  0  0  0  0  0  0  0  0  0  0  0
    0.5800   15.6810   -2.4610 C   0  0  0  0  0  0  0  0  0  0  0  0
    1.3410   16.2730   -1.2720 C   0  0  2  0  0  0  0  0  0  0  0  0
    0.3000   16.9870   -0.3440 C   0  0  0  0  0  0  0  0  0  0  0  0
    2.1708   19.1353    0.1289 H   0  0  0  0  0  0  0  0  0  0  0  0
    3.3601   20.0187   -0.8869 H   0  0  0  0  0  0  0  0  0  0  0  0
    1.6341   20.5162   -0.8869 H   0  0  0  0  0  0  0  0  0  0  0  0
    2.6356   19.0410   -2.8486 H   0  0  0  0  0  0  0  0  0  0  0  0
    0.5129   18.8752   -3.4945 H   0  0  0  0  0  0  0  0  0  0  0  0
    0.1364   17.7421   -2.1091 H   0  0  0  0  0  0  0  0  0  0  0  0
    0.3968   20.3983   -1.0782 H   0  0  0  0  0  0  0  0  0  0  0  0
   -0.7348   20.4165   -2.4949 H   0  0  0  0  0  0  0  0  0  0  0  0
   -1.4178   18.3261   -1.5244 H   0  0  0  0  0  0  0  0  0  0  0  0
   -0.5373   20.0092    2.4692 H   0  0  0  0  0  0  0  0  0  0  0  0
    0.6227   19.7463    1.1231 H   0  0  0  0  0  0  0  0  0  0  0  0
   -0.4399   21.1946    1.1231 H   0  0  0  0  0  0  0  0  0  0  0  0
   -2.0667   18.5519    2.5008 H   0  0  0  0  0  0  0  0  0  0  0  0
   -3.2796   18.4733    1.1781 H   0  0  0  0  0  0  0  0  0  0  0  0
   -1.8768   17.3514    1.1781 H   0  0  0  0  0  0  0  0  0  0  0  0
    2.9825   16.9887   -2.5261 H   0  0  0  0  0  0  0  0  0  0  0  0
    4.4124   17.2451   -0.5966 H   0  0  0  0  0  0  0  0  0  0  0  0
    3.1683   18.1382    0.3037 H   0  0  0  0  0  0  0  0  0  0  0  0
    3.8908   15.4066    0.7339 H   0  0  0  0  0  0  0  0  0  0  0  0
    2.4218   16.1501    1.3613 H   0  0  0  0  0  0  0  0  0  0  0  0
    3.9849   13.9505   -0.8706 H   0  0  0  0  0  0  0  0  0  0  0  0
    2.7312   13.6884   -2.1300 H   0  0  0  0  0  0  0  0  0  0  0  0
    3.7022   15.1997   -2.1300 H   0  0  0  0  0  0  0  0  0  0  0  0
    0.5931   14.6890    0.7420 H   0  0  0  0  0  0  0  0  0  0  0  0
    2.7272   13.3614    1.3119 H   0  0  0  0  0  0  0  0  0  0  0  0
    1.0556   12.6381    1.5798 H   0  0  0  0  0  0  0  0  0  0  0  0
    2.8748   11.0254    0.5646 H   0  0  0  0  0  0  0  0  0  0  0  0
    1.2674   12.8315   -2.6674 H   0  0  0  0  0  0  0  0  0  0  0  0
   -0.9426   10.9240   -1.6815 H   0  0  0  0  0  0  0  0  0  0  0  0
   -1.0274   12.0502   -3.1082 H   0  0  0  0  0  0  0  0  0  0  0  0
   -0.6303    9.7042   -3.7879 H   0  0  0  0  0  0  0  0  0  0  0  0
    0.7293   10.8088   -4.2320 H   0  0  0  0  0  0  0  0  0  0  0  0
    1.6462    8.7655   -3.3744 H   0  0  0  0  0  0  0  0  0  0  0  0
   -0.4440    9.0690   -1.6000 H   0  0  0  0  0  0  0  0  0  0  0  0
    4.1353   11.2819   -2.5610 H   0  0  0  0  0  0  0  0  0  0  0  0
    3.6443    9.9595   -3.6731 H   0  0  0  0  0  0  0  0  0  0  0  0
    2.7438   11.5138   -3.6731 H   0  0  0  0  0  0  0  0  0  0  0  0
    2.9898    9.4357   -0.0453 H   0  0  0  0  0  0  0  0  0  0  0  0
    2.8476    8.2066   -1.3475 H   0  0  0  0  0  0  0  0  0  0  0  0
    4.2248    9.3598   -1.3475 H   0  0  0  0  0  0  0  0  0  0  0  0
   -0.8841   13.0948    0.8838 H   0  0  0  0  0  0  0  0  0  0  0  0
   -1.9858   13.6164   -0.4355 H   0  0  0  0  0  0  0  0  0  0  0  0
   -1.3093   11.9524   -0.4355 H   0  0  0  0  0  0  0  0  0  0  0  0
   -0.8091   14.1015   -2.8916 H   0  0  0  0  0  0  0  0  0  0  0  0
   -1.1826   15.1586   -1.4161 H   0  0  0  0  0  0  0  0  0  0  0  0
    1.2988   15.2219   -3.1557 H   0  0  0  0  0  0  0  0  0  0  0  0
    0.0250   16.4893   -2.9596 H   0  0  0  0  0  0  0  0  0  0  0  0
    0.5630   16.8066    0.7088 H   0  0  0  0  0  0  0  0  0  0  0  0
    0.3111   18.0685   -0.5446 H   0  0  0  0  0  0  0  0  0  0  0  0
   -0.7049   16.5872   -0.5446 H   0  0  0  0  0  0  0  0  0  0  0  0
  1  2  1  0
  2  3  1  0
  3  4  1  0
  4  5  1  0
  5  6  1  0
  6  7  1  0
  7  8  1  0
  7  9  1  0
  2 10  1  0
 10 11  1  0
 11 12  1  0
 12 13  1  0
 13 14  1  6
 13 15  1  0
 15 16  1  0
 16 17  1  0
 17 18  2  0
 18 19  1  0
 19 20  1  0
 20 21  1  0
 21 22  1  0
 22 23  1  0
 22 24  1  0
 24 25  1  0
 24 26  1  0
 19 27  1  0
 27 28  1  1
 27 29  1  0
 29 30  1  0
 30 31  1  0
 31 32  1  1
  7  5  1  0
 31 10  1  0
 31 13  1  0
 27 15  1  0
 24 18  1  0
  1 33  1  0
  1 34  1  0
  1 35  1  0
  2 36  1  6
  3 37  1  0
  3 38  1  0
  4 39  1  0
  4 40  1  0
  5 41  1  1
  8 42  1  0
  8 43  1  0
  8 44  1  0
  9 45  1  0
  9 46  1  0
  9 47  1  0
 10 48  1  6
 11 49  1  0
 11 50  1  0
 12 51  1  0
 12 52  1  0
 14 53  1  0
 14 54  1  0
 14 55  1  0
 15 56  1  1
 16 57  1  0
 16 58  1  0
 17 59  1  0
 19 60  1  6
 20 61  1  0
 20 62  1  0
 21 63  1  0
 21 64  1  0
 22 65  1  6
 23 66  1  0
 25 67  1  0
 25 68  1  0
 25 69  1  0
 26 70  1  0
 26 71  1  0
 26 72  1  0
 28 73  1  0
 28 74  1  0
 28 75  1  0
 29 76  1  0
 29 77  1  0
 30 78  1  0
 30 79  1  0
 32 80  1  0
 32 81  1  0
 32 82  1  0
M  END
>  <meeko>  (10) 
{"is_sidechain": [false], "intermolecular_energy": 2.731, "internal_energy": -0.839}

$$$$
EPH_relaxed_0001_pdb2pqr_Repair_215_r2_0001_out
     RDKit          3D

 82 86  0  0  0  0  0  0  0  0999 V2000
   -3.7350    7.2190   -3.4030 C   0  0  0  0  0  0  0  0  0  0  0  0
   -3.7600    7.2950   -1.8740 C   0  0  2  0  0  0  0  0  0  0  0  0
   -5.1760    7.0780   -1.3040 C   0  0  0  0  0  0  0  0  0  0  0  0
   -6.2900    7.2520   -2.3410 C   0  0  0  0  0  0  0  0  0  0  0  0
   -7.6210    7.4780   -1.6910 C   0  0  2  0  0  0  0  0  0  0  0  0
   -8.2240    6.3020   -1.1360 O   0  0  0  0  0  0  0  0  0  0  0  0
   -8.9220    6.9150   -2.2320 C   0  0  0  0  0  0  0  0  0  0  0  0
   -8.9550    6.0820   -3.4750 C   0  0  0  0  0  0  0  0  0  0  0  0
  -10.2070    7.5740   -1.8360 C   0  0  0  0  0  0  0  0  0  0  0  0
   -3.2130    8.6410   -1.4110 C   0  0  1  0  0  0  0  0  0  0  0  0
   -3.8280    9.1050   -0.0640 C   0  0  0  0  0  0  0  0  0  0  0  0
   -2.7110    9.8580    0.7020 C   0  0  0  0  0  0  0  0  0  0  0  0
   -1.6040   10.0910   -0.3520 C   0  0  1  0  0  0  0  0  0  0  0  0
   -2.0720   11.3460   -1.1540 C   0  0  0  0  0  0  0  0  0  0  0  0
   -0.1510   10.2670    0.1980 C   0  0  2  0  0  0  0  0  0  0  0  0
    0.0580   11.4890    1.1100 C   0  0  0  0  0  0  0  0  0  0  0  0
    0.4710   12.7420    0.4120 C   0  0  0  0  0  0  0  0  0  0  0  0
    0.9420   12.8180   -0.8470 C   0  0  0  0  0  0  0  0  0  0  0  0
    1.1920   11.5490   -1.6710 C   0  0  1  0  0  0  0  0  0  0  0  0
    2.5810   11.6400   -2.3550 C   0  0  0  0  0  0  0  0  0  0  0  0
    2.7450   12.9140   -3.1790 C   0  0  0  0  0  0  0  0  0  0  0  0
    2.5470   14.1540   -2.3120 C   0  0  2  0  0  0  0  0  0  0  0  0
    3.6160   14.2290   -1.3640 O   0  0  0  0  0  0  0  0  0  0  0  0
    1.1840   14.1680   -1.5650 C   0  0  0  0  0  0  0  0  0  0  0  0
    0.0360   14.3910   -2.5810 C   0  0  0  0  0  0  0  0  0  0  0  0
    1.1710   15.3990   -0.6190 C   0  0  0  0  0  0  0  0  0  0  0  0
    0.9770   10.1720   -0.9070 C   0  0  1  0  0  0  0  0  0  0  0  0
    2.2890    9.7620   -0.1700 C   0  0  0  0  0  0  0  0  0  0  0  0
    0.6880    9.0390   -1.9610 C   0  0  0  0  0  0  0  0  0  0  0  0
   -0.7820    8.8340   -2.3750 C   0  0  0  0  0  0  0  0  0  0  0  0
   -1.6900    8.7370   -1.1460 C   0  0  2  0  0  0  0  0  0  0  0  0
   -1.2570    7.4710   -0.3300 C   0  0  0  0  0  0  0  0  0  0  0  0
   -3.4054    6.2170   -3.7150 H   0  0  0  0  0  0  0  0  0  0  0  0
   -4.7440    7.4121   -3.7963 H   0  0  0  0  0  0  0  0  0  0  0  0
   -3.0377    7.9734   -3.7963 H   0  0  0  0  0  0  0  0  0  0  0  0
   -3.1230    6.4834   -1.4926 H   0  0  0  0  0  0  0  0  0  0  0  0
   -5.2347    6.0569   -0.8991 H   0  0  0  0  0  0  0  0  0  0  0  0
   -5.3329    7.8452   -0.5315 H   0  0  0  0  0  0  0  0  0  0  0  0
   -6.0526    8.1170   -2.9777 H   0  0  0  0  0  0  0  0  0  0  0  0
   -6.3513    6.3294   -2.9369 H   0  0  0  0  0  0  0  0  0  0  0  0
   -7.3262    8.4930   -1.3862 H   0  0  0  0  0  0  0  0  0  0  0  0
   -8.9972    5.0173   -3.2019 H   0  0  0  0  0  0  0  0  0  0  0  0
   -9.8435    6.3438   -4.0684 H   0  0  0  0  0  0  0  0  0  0  0  0
   -8.0486    6.2727   -4.0684 H   0  0  0  0  0  0  0  0  0  0  0  0
  -10.2776    7.6102   -0.7389 H   0  0  0  0  0  0  0  0  0  0  0  0
  -10.2338    8.5971   -2.2391 H   0  0  0  0  0  0  0  0  0  0  0  0
  -11.0535    6.9988   -2.2391 H   0  0  0  0  0  0  0  0  0  0  0  0
   -3.4829    9.2579   -2.2808 H   0  0  0  0  0  0  0  0  0  0  0  0
   -4.6799    9.7762   -0.2478 H   0  0  0  0  0  0  0  0  0  0  0  0
   -4.1967    8.2474    0.5179 H   0  0  0  0  0  0  0  0  0  0  0  0
   -3.0851   10.8166    1.0907 H   0  0  0  0  0  0  0  0  0  0  0  0
   -2.3465    9.2912    1.5714 H   0  0  0  0  0  0  0  0  0  0  0  0
   -2.3681   12.1399   -0.4526 H   0  0  0  0  0  0  0  0  0  0  0  0
   -1.2473   11.7050   -1.7873 H   0  0  0  0  0  0  0  0  0  0  0  0
   -2.9304   11.0773   -1.7873 H   0  0  0  0  0  0  0  0  0  0  0  0
   -0.0370    9.3861    0.8469 H   0  0  0  0  0  0  0  0  0  0  0  0
   -0.8885   11.6879    1.6340 H   0  0  0  0  0  0  0  0  0  0  0  0
    0.8878   11.2280    1.7833 H   0  0  0  0  0  0  0  0  0  0  0  0
    0.3831   13.6835    0.9740 H   0  0  0  0  0  0  0  0  0  0  0  0
    0.4011   11.5228   -2.4350 H   0  0  0  0  0  0  0  0  0  0  0  0
    3.3589   11.6203   -1.5775 H   0  0  0  0  0  0  0  0  0  0  0  0
    2.6723   10.7847   -3.0407 H   0  0  0  0  0  0  0  0  0  0  0  0
    3.7561   12.9351   -3.6117 H   0  0  0  0  0  0  0  0  0  0  0  0
    1.9856   12.9174   -3.9748 H   0  0  0  0  0  0  0  0  0  0  0  0
    2.5470   15.0275   -2.9806 H   0  0  0  0  0  0  0  0  0  0  0  0
    3.4810   15.0310   -0.8320 H   0  0  0  0  0  0  0  0  0  0  0  0
   -0.9034   14.5735   -2.0386 H   0  0  0  0  0  0  0  0  0  0  0  0
    0.2694   15.2606   -3.2129 H   0  0  0  0  0  0  0  0  0  0  0  0
   -0.0731   13.4973   -3.2129 H   0  0  0  0  0  0  0  0  0  0  0  0
    1.1746   15.0578    0.4268 H   0  0  0  0  0  0  0  0  0  0  0  0
    2.0627   16.0152   -0.8068 H   0  0  0  0  0  0  0  0  0  0  0  0
    0.2665   15.9962   -0.8068 H   0  0  0  0  0  0  0  0  0  0  0  0
    2.1297    9.8118    0.9173 H   0  0  0  0  0  0  0  0  0  0  0  0
    2.5634    8.7353   -0.4537 H   0  0  0  0  0  0  0  0  0  0  0  0
    3.0992   10.4498   -0.4537 H   0  0  0  0  0  0  0  0  0  0  0  0
    1.2598    9.2765   -2.8702 H   0  0  0  0  0  0  0  0  0  0  0  0
    0.9805    8.1022   -1.4642 H   0  0  0  0  0  0  0  0  0  0  0  0
   -1.1035    9.6850   -2.9935 H   0  0  0  0  0  0  0  0  0  0  0  0
   -0.8585    7.8946   -2.9421 H   0  0  0  0  0  0  0  0  0  0  0  0
   -1.3304    7.6857    0.7463 H   0  0  0  0  0  0  0  0  0  0  0  0
   -1.9181    6.6287   -0.5818 H   0  0  0  0  0  0  0  0  0  0  0  0
   -0.2185    7.2100   -0.5818 H   0  0  0  0  0  0  0  0  0  0  0  0
  1  2  1  0
  2  3  1  0
  3  4  1  0
  4  5  1  0
  5  6  1  0
  6  7  1  0
  7  8  1  0
  7  9  1  0
  2 10  1  0
 10 11  1  0
 11 12  1  0
 12 13  1  0
 13 14  1  6
 13 15  1  0
 15 16  1  0
 16 17  1  0
 17 18  2  0
 18 19  1  0
 19 20  1  0
 20 21  1  0
 21 22  1  0
 22 23  1  0
 22 24  1  0
 24 25  1  0
 24 26  1  0
 19 27  1  0
 27 28  1  1
 27 29  1  0
 29 30  1  0
 30 31  1  0
 31 32  1  1
  7  5  1  0
 31 10  1  0
 31 13  1  0
 27 15  1  0
 24 18  1  0
  1 33  1  0
  1 34  1  0
  1 35  1  0
  2 36  1  1
  3 37  1  0
  3 38  1  0
  4 39  1  0
  4 40  1  0
  5 41  1  1
  8 42  1  0
  8 43  1  0
  8 44  1  0
  9 45  1  0
  9 46  1  0
  9 47  1  0
 10 48  1  6
 11 49  1  0
 11 50  1  0
 12 51  1  0
 12 52  1  0
 14 53  1  0
 14 54  1  0
 14 55  1  0
 15 56  1  1
 16 57  1  0
 16 58  1  0
 17 59  1  0
 19 60  1  6
 20 61  1  0
 20 62  1  0
 21 63  1  0
 21 64  1  0
 22 65  1  6
 23 66  1  0
 25 67  1  0
 25 68  1  0
 25 69  1  0
 26 70  1  0
 26 71  1  0
 26 72  1  0
 28 73  1  0
 28 74  1  0
 28 75  1  0
 29 76  1  0
 29 77  1  0
 30 78  1  0
 30 79  1  0
 32 80  1  0
 32 81  1  0
 32 82  1  0
M  END
>  <meeko>  (11) 
{"is_sidechain": [false], "intermolecular_energy": 2.731, "internal_energy": -0.839}

$$$$
EPH_relaxed_0001_pdb2pqr_Repair_215_r2_0001_out
     RDKit          3D

 82 86  0  0  0  0  0  0  0  0999 V2000
   -0.8620   16.3480   -5.8320 C   0  0  0  0  0  0  0  0  0  0  0  0
    0.2260   15.6450   -6.6490 C   0  0  2  0  0  0  0  0  0  0  0  0
   -0.1830   15.4620   -8.1240 C   0  0  0  0  0  0  0  0  0  0  0  0
    0.4450   16.4910   -9.0690 C   0  0  0  0  0  0  0  0  0  0  0  0
    1.8470   16.1160   -9.4430 C   0  0  2  0  0  0  0  0  0  0  0  0
    2.3090   16.6820  -10.6770 O   0  0  0  0  0  0  0  0  0  0  0  0
    2.1900   15.2510  -10.6420 C   0  0  0  0  0  0  0  0  0  0  0  0
    1.1250   14.7060  -11.5410 C   0  0  0  0  0  0  0  0  0  0  0  0
    3.5050   14.5360  -10.6550 C   0  0  0  0  0  0  0  0  0  0  0  0
    0.5500   14.2910   -6.0270 C   0  0  1  0  0  0  0  0  0  0  0  0
    1.8140   13.6370   -6.6450 C   0  0  0  0  0  0  0  0  0  0  0  0
    2.5270   12.8720   -5.5010 C   0  0  0  0  0  0  0  0  0  0  0  0
    1.4900   12.8320   -4.3540 C   0  0  1  0  0  0  0  0  0  0  0  0
    0.5350   11.6520   -4.7170 C   0  0  0  0  0  0  0  0  0  0  0  0
    2.0650   12.6840   -2.9070 C   0  0  2  0  0  0  0  0  0  0  0  0
    2.8380   11.3800   -2.6430 C   0  0  0  0  0  0  0  0  0  0  0  0
    2.0160   10.2450   -2.1290 C   0  0  0  0  0  0  0  0  0  0  0  0
    0.7740   10.3450   -1.6210 C   0  0  0  0  0  0  0  0  0  0  0  0
    0.1080   11.7140   -1.4350 C   0  0  1  0  0  0  0  0  0  0  0  0
   -0.5350   11.7900   -0.0250 C   0  0  0  0  0  0  0  0  0  0  0  0
   -1.4930   10.6330    0.2440 C   0  0  0  0  0  0  0  0  0  0  0  0
   -0.7800    9.2910    0.1050 C   0  0  2  0  0  0  0  0  0  0  0  0
    0.1890    9.1730    1.1520 O   0  0  0  0  0  0  0  0  0  0  0  0
   -0.0850    9.1050   -1.2730 C   0  0  0  0  0  0  0  0  0  0  0  0
   -1.1570    8.9300   -2.3760 C   0  0  0  0  0  0  0  0  0  0  0  0
    0.7140    7.7740   -1.2290 C   0  0  0  0  0  0  0  0  0  0  0  0
    1.0160   12.9770   -1.7590 C   0  0  1  0  0  0  0  0  0  0  0  0
    1.8380   13.3800   -0.4970 C   0  0  0  0  0  0  0  0  0  0  0  0
    0.0890   14.2050   -2.0960 C   0  0  0  0  0  0  0  0  0  0  0  0
   -0.3480   14.3640   -3.5640 C   0  0  0  0  0  0  0  0  0  0  0  0
    0.8540   14.2610   -4.5080 C   0  0  2  0  0  0  0  0  0  0  0  0
    1.8220   15.4490   -4.1810 C   0  0  0  0  0  0  0  0  0  0  0  0
   -0.6578   16.2161   -4.7592 H   0  0  0  0  0  0  0  0  0  0  0  0
   -0.8674   17.4208   -6.0750 H   0  0  0  0  0  0  0  0  0  0  0  0
   -1.8423   15.9121   -6.0750 H   0  0  0  0  0  0  0  0  0  0  0  0
    1.1196   16.2862   -6.6309 H   0  0  0  0  0  0  0  0  0  0  0  0
    0.1272   14.4577   -8.4484 H   0  0  0  0  0  0  0  0  0  0  0  0
   -1.2729   15.6014   -8.1752 H   0  0  0  0  0  0  0  0  0  0  0  0
   -0.1634   16.5535   -9.9833 H   0  0  0  0  0  0  0  0  0  0  0  0
    0.4759   17.4601   -8.5495 H   0  0  0  0  0  0  0  0  0  0  0  0
    2.1397   16.0593   -8.3842 H   0  0  0  0  0  0  0  0  0  0  0  0
    0.3094   14.2886  -10.9322 H   0  0  0  0  0  0  0  0  0  0  0  0
    0.7322   15.5139  -12.1758 H   0  0  0  0  0  0  0  0  0  0  0  0
    1.5505   13.9148  -12.1758 H   0  0  0  0  0  0  0  0  0  0  0  0
    3.8350   14.3566   -9.6211 H   0  0  0  0  0  0  0  0  0  0  0  0
    3.3941   13.5740  -11.1767 H   0  0  0  0  0  0  0  0  0  0  0  0
    4.2522   15.1521  -11.1767 H   0  0  0  0  0  0  0  0  0  0  0  0
   -0.3928   13.7630   -6.2327 H   0  0  0  0  0  0  0  0  0  0  0  0
    1.5266   12.9394   -7.4454 H   0  0  0  0  0  0  0  0  0  0  0  0
    2.4767   14.3969   -7.0848 H   0  0  0  0  0  0  0  0  0  0  0  0
    2.7919   11.8534   -5.8209 H   0  0  0  0  0  0  0  0  0  0  0  0
    3.4669   13.3562   -5.1974 H   0  0  0  0  0  0  0  0  0  0  0  0
    0.1589   11.1873   -3.7936 H   0  0  0  0  0  0  0  0  0  0  0  0
   -0.3116   12.0336   -5.3066 H   0  0  0  0  0  0  0  0  0  0  0  0
    1.0847   10.9035   -5.3066 H   0  0  0  0  0  0  0  0  0  0  0  0
    2.8138   13.4888   -2.8671 H   0  0  0  0  0  0  0  0  0  0  0  0
    3.3024   11.0627   -3.5883 H   0  0  0  0  0  0  0  0  0  0  0  0
    3.5655   11.6122   -1.8513 H   0  0  0  0  0  0  0  0  0  0  0  0
    2.4638    9.2411   -2.1689 H   0  0  0  0  0  0  0  0  0  0  0  0
   -0.6736   11.7784   -2.2064 H   0  0  0  0  0  0  0  0  0  0  0  0
    0.2654   11.7678    0.7293 H   0  0  0  0  0  0  0  0  0  0  0  0
   -1.1150   12.7231    0.0278 H   0  0  0  0  0  0  0  0  0  0  0  0
   -1.8909   10.7251    1.2654 H   0  0  0  0  0  0  0  0  0  0  0  0
   -2.3094   10.6747   -0.4921 H   0  0  0  0  0  0  0  0  0  0  0  0
   -1.5440    8.5031    0.1794 H   0  0  0  0  0  0  0  0  0  0  0  0
    0.2340   10.0300    1.6090 H   0  0  0  0  0  0  0  0  0  0  0  0
   -2.1402    8.7695   -1.9096 H   0  0  0  0  0  0  0  0  0  0  0  0
   -1.1910    9.8345   -3.0011 H   0  0  0  0  0  0  0  0  0  0  0  0
   -0.9016    8.0617   -3.0011 H   0  0  0  0  0  0  0  0  0  0  0  0
    0.8875    7.4849   -0.1819 H   0  0  0  0  0  0  0  0  0  0  0  0
    0.1402    6.9849   -1.7369 H   0  0  0  0  0  0  0  0  0  0  0  0
    1.6803    7.9094   -1.7369 H   0  0  0  0  0  0  0  0  0  0  0  0
    1.2776   13.1052    0.4088 H   0  0  0  0  0  0  0  0  0  0  0  0
    2.8036   12.8531   -0.5047 H   0  0  0  0  0  0  0  0  0  0  0  0
    2.0128   14.4660   -0.5047 H   0  0  0  0  0  0  0  0  0  0  0  0
   -0.8217   14.1115   -1.4862 H   0  0  0  0  0  0  0  0  0  0  0  0
    0.6998   15.0940   -1.8801 H   0  0  0  0  0  0  0  0  0  0  0  0
   -1.0696   13.5718   -3.8125 H   0  0  0  0  0  0  0  0  0  0  0  0
   -0.8073   15.3558   -3.6878 H   0  0  0  0  0  0  0  0  0  0  0  0
    1.9118   15.5592   -3.0902 H   0  0  0  0  0  0  0  0  0  0  0  0
    2.8131   15.2436   -4.6116 H   0  0  0  0  0  0  0  0  0  0  0  0
    1.4206   16.3782   -4.6116 H   0  0  0  0  0  0  0  0  0  0  0  0
  1  2  1  0
  2  3  1  0
  3  4  1  0
  4  5  1  0
  5  6  1  0
  6  7  1  0
  7  8  1  0
  7  9  1  0
  2 10  1  0
 10 11  1  0
 11 12  1  0
 12 13  1  0
 13 14  1  6
 13 15  1  0
 15 16  1  0
 16 17  1  0
 17 18  2  0
 18 19  1  0
 19 20  1  0
 20 21  1  0
 21 22  1  0
 22 23  1  0
 22 24  1  0
 24 25  1  0
 24 26  1  0
 19 27  1  0
 27 28  1  1
 27 29  1  0
 29 30  1  0
 30 31  1  0
 31 32  1  1
  7  5  1  0
 31 10  1  0
 31 13  1  0
 27 15  1  0
 24 18  1  0
  1 33  1  0
  1 34  1  0
  1 35  1  0
  2 36  1  6
  3 37  1  0
  3 38  1  0
  4 39  1  0
  4 40  1  0
  5 41  1  1
  8 42  1  0
  8 43  1  0
  8 44  1  0
  9 45  1  0
  9 46  1  0
  9 47  1  0
 10 48  1  1
 11 49  1  0
 11 50  1  0
 12 51  1  0
 12 52  1  0
 14 53  1  0
 14 54  1  0
 14 55  1  0
 15 56  1  6
 16 57  1  0
 16 58  1  0
 17 59  1  0
 19 60  1  6
 20 61  1  0
 20 62  1  0
 21 63  1  0
 21 64  1  0
 22 65  1  1
 23 66  1  0
 25 67  1  0
 25 68  1  0
 25 69  1  0
 26 70  1  0
 26 71  1  0
 26 72  1  0
 28 73  1  0
 28 74  1  0
 28 75  1  0
 29 76  1  0
 29 77  1  0
 30 78  1  0
 30 79  1  0
 32 80  1  0
 32 81  1  0
 32 82  1  0
M  END
>  <meeko>  (12) 
{"is_sidechain": [false], "intermolecular_energy": 2.731, "internal_energy": -0.839}

$$$$
EPH_relaxed_0001_pdb2pqr_Repair_215_r2_0001_out
     RDKit          3D

 82 86  0  0  0  0  0  0  0  0999 V2000
   -2.2770    7.8380   -2.1800 C   0  0  0  0  0  0  0  0  0  0  0  0
   -2.1980    8.4370   -0.7730 C   0  0  2  0  0  0  0  0  0  0  0  0
   -3.5600    8.4040   -0.0500 C   0  0  0  0  0  0  0  0  0  0  0  0
   -4.7610    8.5040   -0.9950 C   0  0  0  0  0  0  0  0  0  0  0  0
   -5.5930    7.2580   -0.9690 C   0  0  2  0  0  0  0  0  0  0  0  0
   -5.6730    6.5650   -2.2210 O   0  0  0  0  0  0  0  0  0  0  0  0
   -6.9040    7.1120   -1.7190 C   0  0  0  0  0  0  0  0  0  0  0  0
   -7.4570    8.2280   -2.5480 C   0  0  0  0  0  0  0  0  0  0  0  0
   -7.8800    6.0750   -1.2580 C   0  0  0  0  0  0  0  0  0  0  0  0
   -1.6820    9.8690   -0.8460 C   0  0  1  0  0  0  0  0  0  0  0  0
   -1.2590   10.4230    0.5410 C   0  0  0  0  0  0  0  0  0  0  0  0
   -0.0430   11.3540    0.2980 C   0  0  0  0  0  0  0  0  0  0  0  0
   -0.0140   11.5670   -1.2340 C   0  0  1  0  0  0  0  0  0  0  0  0
   -1.0770   12.6770   -1.5040 C   0  0  0  0  0  0  0  0  0  0  0  0
    1.3740   11.9330   -1.8540 C   0  0  2  0  0  0  0  0  0  0  0  0
    1.9760   13.2620   -1.3680 C   0  0  0  0  0  0  0  0  0  0  0  0
    1.6120   14.4620   -2.1780 C   0  0  0  0  0  0  0  0  0  0  0  0
    1.0710   14.4380   -3.4100 C   0  0  0  0  0  0  0  0  0  0  0  0
    0.8610   13.1130   -4.1530 C   0  0  1  0  0  0  0  0  0  0  0  0
    1.3660   13.2520   -5.6130 C   0  0  0  0  0  0  0  0  0  0  0  0
    0.7340   14.4350   -6.3410 C   0  0  0  0  0  0  0  0  0  0  0  0
    1.0140   15.7420   -5.6020 C   0  0  2  0  0  0  0  0  0  0  0  0
    2.4170   16.0170   -5.6690 O   0  0  0  0  0  0  0  0  0  0  0  0
    0.5570   15.7170   -4.1170 C   0  0  0  0  0  0  0  0  0  0  0  0
   -0.9910   15.7210   -4.0490 C   0  0  0  0  0  0  0  0  0  0  0  0
    1.0240   17.0390   -3.4510 C   0  0  0  0  0  0  0  0  0  0  0  0
    1.4290   11.8160   -3.4320 C   0  0  1  0  0  0  0  0  0  0  0  0
    2.9280   11.6100   -3.8100 C   0  0  0  0  0  0  0  0  0  0  0  0
    0.6590   10.5510   -3.9660 C   0  0  0  0  0  0  0  0  0  0  0  0
   -0.6430   10.1710   -3.2350 C   0  0  0  0  0  0  0  0  0  0  0  0
   -0.4290   10.1300   -1.7190 C   0  0  2  0  0  0  0  0  0  0  0  0
    0.6200    9.0070   -1.4140 C   0  0  0  0  0  0  0  0  0  0  0  0
   -2.4205    6.7498   -2.1077 H   0  0  0  0  0  0  0  0  0  0  0  0
   -3.1241    8.2844   -2.7215 H   0  0  0  0  0  0  0  0  0  0  0  0
   -1.3432    8.0495   -2.7215 H   0  0  0  0  0  0  0  0  0  0  0  0
   -1.4995    7.8193   -0.1894 H   0  0  0  0  0  0  0  0  0  0  0  0
   -3.6345    7.4587    0.5075 H   0  0  0  0  0  0  0  0  0  0  0  0
   -3.5955    9.2838    0.6093 H   0  0  0  0  0  0  0  0  0  0  0  0
   -5.3856    9.3560   -0.6885 H   0  0  0  0  0  0  0  0  0  0  0  0
   -4.3813    8.6410   -2.0182 H   0  0  0  0  0  0  0  0  0  0  0  0
   -5.3173    7.0676    0.0787 H   0  0  0  0  0  0  0  0  0  0  0  0
   -7.8477    9.0164   -1.8878 H   0  0  0  0  0  0  0  0  0  0  0  0
   -6.6602    8.6428   -3.1828 H   0  0  0  0  0  0  0  0  0  0  0  0
   -8.2697    7.8453   -3.1828 H   0  0  0  0  0  0  0  0  0  0  0  0
   -7.9002    6.0536   -0.1584 H   0  0  0  0  0  0  0  0  0  0  0  0
   -8.8826    6.3202   -1.6384 H   0  0  0  0  0  0  0  0  0  0  0  0
   -7.5745    5.0891   -1.6384 H   0  0  0  0  0  0  0  0  0  0  0  0
   -2.5598   10.3588   -1.2927 H   0  0  0  0  0  0  0  0  0  0  0  0
   -2.0869   10.9906    0.9909 H   0  0  0  0  0  0  0  0  0  0  0  0
   -0.9999    9.6062    1.2306 H   0  0  0  0  0  0  0  0  0  0  0  0
   -0.1773   12.3125    0.8208 H   0  0  0  0  0  0  0  0  0  0  0  0
    0.8951   10.9221    0.6768 H   0  0  0  0  0  0  0  0  0  0  0  0
   -1.4509   13.0674   -0.5460 H   0  0  0  0  0  0  0  0  0  0  0  0
   -0.6161   13.4942   -2.0782 H   0  0  0  0  0  0  0  0  0  0  0  0
   -1.9134   12.2518   -2.0782 H   0  0  0  0  0  0  0  0  0  0  0  0
    2.0277   11.1451   -1.4516 H   0  0  0  0  0  0  0  0  0  0  0  0
    1.6348   13.4323   -0.3362 H   0  0  0  0  0  0  0  0  0  0  0  0
    3.0668   13.1530   -1.4595 H   0  0  0  0  0  0  0  0  0  0  0  0
    1.8019   15.4486   -1.7303 H   0  0  0  0  0  0  0  0  0  0  0  0
   -0.2239   12.9313   -4.1490 H   0  0  0  0  0  0  0  0  0  0  0  0
    2.4572   13.3900   -5.5970 H   0  0  0  0  0  0  0  0  0  0  0  0
    1.0814   12.3370   -6.1531 H   0  0  0  0  0  0  0  0  0  0  0  0
    1.1525   14.4985   -7.3563 H   0  0  0  0  0  0  0  0  0  0  0  0
   -0.3544   14.2811   -6.3832 H   0  0  0  0  0  0  0  0  0  0  0  0
    0.4295   16.5321   -6.0960 H   0  0  0  0  0  0  0  0  0  0  0  0
    2.8390   15.5770   -4.9120 H   0  0  0  0  0  0  0  0  0  0  0  0
   -1.3118   15.7218   -2.9968 H   0  0  0  0  0  0  0  0  0  0  0  0
   -1.3778   16.6201   -4.5510 H   0  0  0  0  0  0  0  0  0  0  0  0
   -1.3824   14.8239   -4.5510 H   0  0  0  0  0  0  0  0  0  0  0  0
    0.9861   16.9317   -2.3569 H   0  0  0  0  0  0  0  0  0  0  0  0
    2.0553   17.2619   -3.7621 H   0  0  0  0  0  0  0  0  0  0  0  0
    0.3616   17.8602   -3.7621 H   0  0  0  0  0  0  0  0  0  0  0  0
    3.5294   11.5273   -2.8927 H   0  0  0  0  0  0  0  0  0  0  0  0
    3.0336   10.6889   -4.4020 H   0  0  0  0  0  0  0  0  0  0  0  0
    3.2782   12.4685   -4.4020 H   0  0  0  0  0  0  0  0  0  0  0  0
    0.4069   10.7354   -5.0207 H   0  0  0  0  0  0  0  0  0  0  0  0
    1.3418    9.7054   -3.7966 H   0  0  0  0  0  0  0  0  0  0  0  0
   -1.4176   10.9161   -3.4690 H   0  0  0  0  0  0  0  0  0  0  0  0
   -0.9555    9.1716   -3.5721 H   0  0  0  0  0  0  0  0  0  0  0  0
    0.7277    8.8917   -0.3254 H   0  0  0  0  0  0  0  0  0  0  0  0
    0.2781    8.0573   -1.8512 H   0  0  0  0  0  0  0  0  0  0  0  0
    1.5908    9.2835   -1.8512 H   0  0  0  0  0  0  0  0  0  0  0  0
  1  2  1  0
  2  3  1  0
  3  4  1  0
  4  5  1  0
  5  6  1  0
  6  7  1  0
  7  8  1  0
  7  9  1  0
  2 10  1  0
 10 11  1  0
 11 12  1  0
 12 13  1  0
 13 14  1  1
 13 15  1  0
 15 16  1  0
 16 17  1  0
 17 18  2  0
 18 19  1  0
 19 20  1  0
 20 21  1  0
 21 22  1  0
 22 23  1  0
 22 24  1  0
 24 25  1  0
 24 26  1  0
 19 27  1  0
 27 28  1  1
 27 29  1  0
 29 30  1  0
 30 31  1  0
 31 32  1  6
  7  5  1  0
 31 10  1  0
 31 13  1  0
 27 15  1  0
 24 18  1  0
  1 33  1  0
  1 34  1  0
  1 35  1  0
  2 36  1  1
  3 37  1  0
  3 38  1  0
  4 39  1  0
  4 40  1  0
  5 41  1  1
  8 42  1  0
  8 43  1  0
  8 44  1  0
  9 45  1  0
  9 46  1  0
  9 47  1  0
 10 48  1  6
 11 49  1  0
 11 50  1  0
 12 51  1  0
 12 52  1  0
 14 53  1  0
 14 54  1  0
 14 55  1  0
 15 56  1  1
 16 57  1  0
 16 58  1  0
 17 59  1  0
 19 60  1  6
 20 61  1  0
 20 62  1  0
 21 63  1  0
 21 64  1  0
 22 65  1  6
 23 66  1  0
 25 67  1  0
 25 68  1  0
 25 69  1  0
 26 70  1  0
 26 71  1  0
 26 72  1  0
 28 73  1  0
 28 74  1  0
 28 75  1  0
 29 76  1  0
 29 77  1  0
 30 78  1  0
 30 79  1  0
 32 80  1  0
 32 81  1  0
 32 82  1  0
M  END
>  <meeko>  (13) 
{"is_sidechain": [false], "intermolecular_energy": 2.731, "internal_energy": -0.839}

$$$$
EPH_relaxed_0001_pdb2pqr_Repair_215_r2_0001_out
     RDKit          3D

 82 86  0  0  0  0  0  0  0  0999 V2000
   -0.2050   18.9800   -2.0850 C   0  0  0  0  0  0  0  0  0  0  0  0
    0.6360   18.3730   -0.9580 C   0  0  2  0  0  0  0  0  0  0  0  0
    1.8190   19.2800   -0.5640 C   0  0  0  0  0  0  0  0  0  0  0  0
    2.1230   19.2750    0.9370 C   0  0  0  0  0  0  0  0  0  0  0  0
    3.5980   19.3020    1.2030 C   0  0  2  0  0  0  0  0  0  0  0  0
    4.0490   18.3460    2.1720 O   0  0  0  0  0  0  0  0  0  0  0  0
    4.2010   19.7300    2.5280 C   0  0  0  0  0  0  0  0  0  0  0  0
    3.3410   20.1620    3.6740 C   0  0  0  0  0  0  0  0  0  0  0  0
    5.6240   20.1940    2.5500 C   0  0  0  0  0  0  0  0  0  0  0  0
    1.1490   16.9990   -1.3760 C   0  0  1  0  0  0  0  0  0  0  0  0
    2.6860   16.9760   -1.5920 C   0  0  0  0  0  0  0  0  0  0  0  0
    3.1820   15.5810   -1.1320 C   0  0  0  0  0  0  0  0  0  0  0  0
    1.8930   14.7400   -0.9810 C   0  0  1  0  0  0  0  0  0  0  0  0
    1.5450   14.2770   -2.4310 C   0  0  0  0  0  0  0  0  0  0  0  0
    1.9680   13.5310    0.0080 C   0  0  2  0  0  0  0  0  0  0  0  0
    2.9830   12.4390   -0.3730 C   0  0  0  0  0  0  0  0  0  0  0  0
    2.4470   11.3410   -1.2300 C   0  0  0  0  0  0  0  0  0  0  0  0
    1.1430   11.0810   -1.4440 C   0  0  0  0  0  0  0  0  0  0  0  0
    0.0520   11.8730   -0.7120 C   0  0  1  0  0  0  0  0  0  0  0  0
   -1.0120   10.8920   -0.1520 C   0  0  0  0  0  0  0  0  0  0  0  0
   -1.5810    9.9710   -1.2270 C   0  0  0  0  0  0  0  0  0  0  0  0
   -0.4720    9.1580   -1.8910 C   0  0  2  0  0  0  0  0  0  0  0  0
    0.0750    8.2520   -0.9280 O   0  0  0  0  0  0  0  0  0  0  0  0
    0.6620   10.0390   -2.4840 C   0  0  0  0  0  0  0  0  0  0  0  0
    0.1350   10.8000   -3.7260 C   0  0  0  0  0  0  0  0  0  0  0  0
    1.7820    9.0940   -2.9970 C   0  0  0  0  0  0  0  0  0  0  0  0
    0.5620   12.9090    0.3800 C   0  0  1  0  0  0  0  0  0  0  0  0
    0.7410   12.1910    1.7520 C   0  0  0  0  0  0  0  0  0  0  0  0
   -0.5420   14.0110    0.5970 C   0  0  0  0  0  0  0  0  0  0  0  0
   -0.4910   15.2380   -0.3340 C   0  0  0  0  0  0  0  0  0  0  0  0
    0.9220   15.8260   -0.3900 C   0  0  2  0  0  0  0  0  0  0  0  0
    1.2920   16.3200    1.0500 C   0  0  0  0  0  0  0  0  0  0  0  0
   -1.0251   19.5719   -1.6525 H   0  0  0  0  0  0  0  0  0  0  0  0
    0.4287   19.6303   -2.7059 H   0  0  0  0  0  0  0  0  0  0  0  0
   -0.6226   18.1737   -2.7059 H   0  0  0  0  0  0  0  0  0  0  0  0
   -0.0129   18.2752   -0.0752 H   0  0  0  0  0  0  0  0  0  0  0  0
    2.7150   18.9357   -1.1013 H   0  0  0  0  0  0  0  0  0  0  0  0
    1.5393   20.3094   -0.8327 H   0  0  0  0  0  0  0  0  0  0  0  0
    1.6613   20.1609    1.3974 H   0  0  0  0  0  0  0  0  0  0  0  0
    1.7134   18.3492    1.3672 H   0  0  0  0  0  0  0  0  0  0  0  0
    3.8037   19.6064    0.1662 H   0  0  0  0  0  0  0  0  0  0  0  0
    3.8400   19.9114    4.6217 H   0  0  0  0  0  0  0  0  0  0  0  0
    3.1786   21.2487    3.6213 H   0  0  0  0  0  0  0  0  0  0  0  0
    2.3723   19.6435    3.6213 H   0  0  0  0  0  0  0  0  0  0  0  0
    5.9581   20.3029    3.5924 H   0  0  0  0  0  0  0  0  0  0  0  0
    6.2582   19.4561    2.0369 H   0  0  0  0  0  0  0  0  0  0  0  0
    5.7014   21.1639    2.0369 H   0  0  0  0  0  0  0  0  0  0  0  0
    0.5505   16.8469   -2.2863 H   0  0  0  0  0  0  0  0  0  0  0  0
    2.9213   17.1299   -2.6555 H   0  0  0  0  0  0  0  0  0  0  0  0
    3.1770   17.7777   -1.0208 H   0  0  0  0  0  0  0  0  0  0  0  0
    3.8490   15.1377   -1.8861 H   0  0  0  0  0  0  0  0  0  0  0  0
    3.7600   15.6307   -0.1974 H   0  0  0  0  0  0  0  0  0  0  0  0
    0.8846   13.3984   -2.3868 H   0  0  0  0  0  0  0  0  0  0  0  0
    1.0346   15.0928   -2.9639 H   0  0  0  0  0  0  0  0  0  0  0  0
    2.4706   14.0136   -2.9639 H   0  0  0  0  0  0  0  0  0  0  0  0
    2.3612   13.9987    0.9227 H   0  0  0  0  0  0  0  0  0  0  0  0
    3.8115   12.9191   -0.9145 H   0  0  0  0  0  0  0  0  0  0  0  0
    3.2894   11.9657    0.5715 H   0  0  0  0  0  0  0  0  0  0  0  0
    3.1789   10.6889   -1.7291 H   0  0  0  0  0  0  0  0  0  0  0  0
   -0.4059   12.5294   -1.4666 H   0  0  0  0  0  0  0  0  0  0  0  0
   -0.5459   10.2751    0.6304 H   0  0  0  0  0  0  0  0  0  0  0  0
   -1.8426   11.4924    0.2475 H   0  0  0  0  0  0  0  0  0  0  0  0
   -2.3049    9.2831   -0.7656 H   0  0  0  0  0  0  0  0  0  0  0  0
   -2.0720   10.5877   -1.9942 H   0  0  0  0  0  0  0  0  0  0  0  0
   -0.9211    8.6154   -2.7360 H   0  0  0  0  0  0  0  0  0  0  0  0
    0.5430    8.7810   -0.2590 H   0  0  0  0  0  0  0  0  0  0  0  0
   -0.4632   11.6638   -3.4002 H   0  0  0  0  0  0  0  0  0  0  0  0
    0.9853   11.1497   -4.3299 H   0  0  0  0  0  0  0  0  0  0  0  0
   -0.4914   10.1270   -4.3299 H   0  0  0  0  0  0  0  0  0  0  0  0
    2.3084    8.6499   -2.1393 H   0  0  0  0  0  0  0  0  0  0  0  0
    1.3364    8.2949   -3.6076 H   0  0  0  0  0  0  0  0  0  0  0  0
    2.4947    9.6678   -3.6076 H   0  0  0  0  0  0  0  0  0  0  0  0
    0.5623   12.9078    2.5670 H   0  0  0  0  0  0  0  0  0  0  0  0
    0.0220   11.3620    1.8286 H   0  0  0  0  0  0  0  0  0  0  0  0
    1.7650   11.7965    1.8286 H   0  0  0  0  0  0  0  0  0  0  0  0
   -1.5225   13.5311    0.4617 H   0  0  0  0  0  0  0  0  0  0  0  0
   -0.3585   14.4076    1.6065 H   0  0  0  0  0  0  0  0  0  0  0  0
   -0.7945   14.9341   -1.3467 H   0  0  0  0  0  0  0  0  0  0  0  0
   -1.1745   16.0050    0.0592 H   0  0  0  0  0  0  0  0  0  0  0  0
    0.8072   15.6727    1.7956 H   0  0  0  0  0  0  0  0  0  0  0  0
    2.3832   16.2787    1.1827 H   0  0  0  0  0  0  0  0  0  0  0  0
    0.9455   17.3555    1.1827 H   0  0  0  0  0  0  0  0  0  0  0  0
  1  2  1  0
  2  3  1  0
  3  4  1  0
  4  5  1  0
  5  6  1  0
  6  7  1  0
  7  8  1  0
  7  9  1  0
  2 10  1  0
 10 11  1  0
 11 12  1  0
 12 13  1  0
 13 14  1  6
 13 15  1  0
 15 16  1  0
 16 17  1  0
 17 18  2  0
 18 19  1  0
 19 20  1  0
 20 21  1  0
 21 22  1  0
 22 23  1  0
 22 24  1  0
 24 25  1  0
 24 26  1  0
 19 27  1  0
 27 28  1  1
 27 29  1  0
 29 30  1  0
 30 31  1  0
 31 32  1  1
  7  5  1  0
 31 10  1  0
 31 13  1  0
 27 15  1  0
 24 18  1  0
  1 33  1  0
  1 34  1  0
  1 35  1  0
  2 36  1  1
  3 37  1  0
  3 38  1  0
  4 39  1  0
  4 40  1  0
  5 41  1  6
  8 42  1  0
  8 43  1  0
  8 44  1  0
  9 45  1  0
  9 46  1  0
  9 47  1  0
 10 48  1  6
 11 49  1  0
 11 50  1  0
 12 51  1  0
 12 52  1  0
 14 53  1  0
 14 54  1  0
 14 55  1  0
 15 56  1  1
 16 57  1  0
 16 58  1  0
 17 59  1  0
 19 60  1  6
 20 61  1  0
 20 62  1  0
 21 63  1  0
 21 64  1  0
 22 65  1  6
 23 66  1  0
 25 67  1  0
 25 68  1  0
 25 69  1  0
 26 70  1  0
 26 71  1  0
 26 72  1  0
 28 73  1  0
 28 74  1  0
 28 75  1  0
 29 76  1  0
 29 77  1  0
 30 78  1  0
 30 79  1  0
 32 80  1  0
 32 81  1  0
 32 82  1  0
M  END
>  <meeko>  (14) 
{"is_sidechain": [false], "intermolecular_energy": 2.731, "internal_energy": -0.839}

$$$$
EPH_relaxed_0001_pdb2pqr_Repair_215_r2_0001_out
     RDKit          3D

 82 86  0  0  0  0  0  0  0  0999 V2000
    1.9770   10.9370   -5.1820 C   0  0  0  0  0  0  0  0  0  0  0  0
    1.3660   10.7850   -3.7860 C   0  0  2  0  0  0  0  0  0  0  0  0
    0.2560    9.7170   -3.7500 C   0  0  0  0  0  0  0  0  0  0  0  0
    0.3920    8.7250   -2.5920 C   0  0  0  0  0  0  0  0  0  0  0  0
   -0.2950    9.2200   -1.3550 C   0  0  2  0  0  0  0  0  0  0  0  0
   -0.6620    8.1940   -0.4230 O   0  0  0  0  0  0  0  0  0  0  0  0
   -1.7450    8.9200   -1.0270 C   0  0  0  0  0  0  0  0  0  0  0  0
   -2.5970    8.0950   -1.9400 C   0  0  0  0  0  0  0  0  0  0  0  0
   -2.4660    9.8260   -0.0780 C   0  0  0  0  0  0  0  0  0  0  0  0
    0.8160   12.1250   -3.3110 C   0  0  1  0  0  0  0  0  0  0  0  0
   -0.6850   12.0500   -2.9220 C   0  0  0  0  0  0  0  0  0  0  0  0
   -0.8870   13.0220   -1.7310 C   0  0  0  0  0  0  0  0  0  0  0  0
    0.4110   13.8620   -1.6880 C   0  0  1  0  0  0  0  0  0  0  0  0
    0.2130   14.9600   -2.7800 C   0  0  0  0  0  0  0  0  0  0  0  0
    0.7850   14.4860   -0.3040 C   0  0  2  0  0  0  0  0  0  0  0  0
   -0.2320   15.4970    0.2530 C   0  0  0  0  0  0  0  0  0  0  0  0
    0.0050   16.9190   -0.1360 C   0  0  0  0  0  0  0  0  0  0  0  0
    1.1450   17.4070   -0.6610 C   0  0  0  0  0  0  0  0  0  0  0  0
    2.3830   16.5150   -0.8220 C   0  0  1  0  0  0  0  0  0  0  0  0
    3.6350   17.2690   -0.3020 C   0  0  0  0  0  0  0  0  0  0  0  0
    3.8100   18.6350   -0.9590 C   0  0  0  0  0  0  0  0  0  0  0  0
    2.5830   19.5130   -0.7270 C   0  0  2  0  0  0  0  0  0  0  0  0
    2.4930   19.8210    0.6680 O   0  0  0  0  0  0  0  0  0  0  0  0
    1.2590   18.8530   -1.2030 C   0  0  0  0  0  0  0  0  0  0  0  0
    1.2330   18.7960   -2.7500 C   0  0  0  0  0  0  0  0  0  0  0  0
    0.0860   19.7800   -0.7830 C   0  0  0  0  0  0  0  0  0  0  0  0
    2.2620   15.0480   -0.2250 C   0  0  1  0  0  0  0  0  0  0  0  0
    2.6560   15.0530    1.2840 C   0  0  0  0  0  0  0  0  0  0  0  0
    3.2990   14.1110   -0.9510 C   0  0  0  0  0  0  0  0  0  0  0  0
    2.8280   13.4300   -2.2500 C   0  0  0  0  0  0  0  0  0  0  0  0
    1.4660   12.7570   -2.0550 C   0  0  2  0  0  0  0  0  0  0  0  0
    1.6390   11.6320   -0.9770 C   0  0  0  0  0  0  0  0  0  0  0  0
    3.0407   11.2016   -5.0899 H   0  0  0  0  0  0  0  0  0  0  0  0
    1.8814    9.9877   -5.7294 H   0  0  0  0  0  0  0  0  0  0  0  0
    1.4478   11.7309   -5.7294 H   0  0  0  0  0  0  0  0  0  0  0  0
    2.1663   10.4505   -3.1096 H   0  0  0  0  0  0  0  0  0  0  0  0
   -0.7139   10.2275   -3.6575 H   0  0  0  0  0  0  0  0  0  0  0  0
    0.3386    9.1368   -4.6809 H   0  0  0  0  0  0  0  0  0  0  0  0
   -0.0568    7.7658   -2.8896 H   0  0  0  0  0  0  0  0  0  0  0  0
    1.4619    8.6060   -2.3660 H   0  0  0  0  0  0  0  0  0  0  0  0
    0.2749   10.1603   -1.3861 H   0  0  0  0  0  0  0  0  0  0  0  0
   -3.2602    7.4528   -1.3419 H   0  0  0  0  0  0  0  0  0  0  0  0
   -3.2033    8.7582   -2.5746 H   0  0  0  0  0  0  0  0  0  0  0  0
   -1.9537    7.4677   -2.5746 H   0  0  0  0  0  0  0  0  0  0  0  0
   -2.2332    9.5335    0.9565 H   0  0  0  0  0  0  0  0  0  0  0  0
   -2.1445   10.8644   -0.2466 H   0  0  0  0  0  0  0  0  0  0  0  0
   -3.5500    9.7458   -0.2466 H   0  0  0  0  0  0  0  0  0  0  0  0
    1.0363   12.7386   -4.1969 H   0  0  0  0  0  0  0  0  0  0  0  0
   -1.3124   12.3566   -3.7719 H   0  0  0  0  0  0  0  0  0  0  0  0
   -0.9713   11.0240   -2.6476 H   0  0  0  0  0  0  0  0  0  0  0  0
   -1.7616   13.6672   -1.9005 H   0  0  0  0  0  0  0  0  0  0  0  0
   -1.0713   12.4906   -0.7857 H   0  0  0  0  0  0  0  0  0  0  0  0
    0.0378   15.9318   -2.2953 H   0  0  0  0  0  0  0  0  0  0  0  0
    1.1148   15.0203   -3.4071 H   0  0  0  0  0  0  0  0  0  0  0  0
   -0.6530   14.7015   -3.4071 H   0  0  0  0  0  0  0  0  0  0  0  0
    0.7379   13.6159    0.3673 H   0  0  0  0  0  0  0  0  0  0  0  0
   -1.2306   15.2080   -0.1065 H   0  0  0  0  0  0  0  0  0  0  0  0
   -0.1305   15.4596    1.3477 H   0  0  0  0  0  0  0  0  0  0  0  0
   -0.8216   17.6279    0.0194 H   0  0  0  0  0  0  0  0  0  0  0  0
    2.4834   16.3248   -1.9008 H   0  0  0  0  0  0  0  0  0  0  0  0
    3.5356   17.4103    0.7843 H   0  0  0  0  0  0  0  0  0  0  0  0
    4.5179   16.6625   -0.5522 H   0  0  0  0  0  0  0  0  0  0  0  0
    4.6935   19.1303   -0.5299 H   0  0  0  0  0  0  0  0  0  0  0  0
    3.9384   18.4900   -2.0418 H   0  0  0  0  0  0  0  0  0  0  0  0
    2.7121   20.4256   -1.3274 H   0  0  0  0  0  0  0  0  0  0  0  0
    3.4000   19.8930    1.0120 H   0  0  0  0  0  0  0  0  0  0  0  0
    0.7968   17.8397   -3.0744 H   0  0  0  0  0  0  0  0  0  0  0  0
    0.6247   19.6266   -3.1374 H   0  0  0  0  0  0  0  0  0  0  0  0
    2.2590   18.8812   -3.1374 H   0  0  0  0  0  0  0  0  0  0  0  0
    0.0291   19.8250    0.3146 H   0  0  0  0  0  0  0  0  0  0  0  0
    0.2559   20.7905   -1.1831 H   0  0  0  0  0  0  0  0  0  0  0  0
   -0.8579   19.3812   -1.1831 H   0  0  0  0  0  0  0  0  0  0  0  0
    1.7453   15.0414    1.9008 H   0  0  0  0  0  0  0  0  0  0  0  0
    3.2617   14.1625    1.5078 H   0  0  0  0  0  0  0  0  0  0  0  0
    3.2389   15.9586    1.5078 H   0  0  0  0  0  0  0  0  0  0  0  0
    4.1828   14.7187   -1.1952 H   0  0  0  0  0  0  0  0  0  0  0  0
    3.4866   13.2879   -0.2458 H   0  0  0  0  0  0  0  0  0  0  0  0
    2.7445   14.1875   -3.0433 H   0  0  0  0  0  0  0  0  0  0  0  0
    3.5626   12.6598   -2.5279 H   0  0  0  0  0  0  0  0  0  0  0  0
    1.5711   12.0737    0.0281 H   0  0  0  0  0  0  0  0  0  0  0  0
    0.8459   10.8799   -1.1014 H   0  0  0  0  0  0  0  0  0  0  0  0
    2.6214   11.1530   -1.1014 H   0  0  0  0  0  0  0  0  0  0  0  0
  1  2  1  0
  2  3  1  0
  3  4  1  0
  4  5  1  0
  5  6  1  0
  6  7  1  0
  7  8  1  0
  7  9  1  0
  2 10  1  0
 10 11  1  0
 11 12  1  0
 12 13  1  0
 13 14  1  6
 13 15  1  0
 15 16  1  0
 16 17  1  0
 17 18  2  0
 18 19  1  0
 19 20  1  0
 20 21  1  0
 21 22  1  0
 22 23  1  0
 22 24  1  0
 24 25  1  0
 24 26  1  0
 19 27  1  0
 27 28  1  1
 27 29  1  0
 29 30  1  0
 30 31  1  0
 31 32  1  1
  7  5  1  0
 31 10  1  0
 31 13  1  0
 27 15  1  0
 24 18  1  0
  1 33  1  0
  1 34  1  0
  1 35  1  0
  2 36  1  1
  3 37  1  0
  3 38  1  0
  4 39  1  0
  4 40  1  0
  5 41  1  1
  8 42  1  0
  8 43  1  0
  8 44  1  0
  9 45  1  0
  9 46  1  0
  9 47  1  0
 10 48  1  6
 11 49  1  0
 11 50  1  0
 12 51  1  0
 12 52  1  0
 14 53  1  0
 14 54  1  0
 14 55  1  0
 15 56  1  1
 16 57  1  0
 16 58  1  0
 17 59  1  0
 19 60  1  6
 20 61  1  0
 20 62  1  0
 21 63  1  0
 21 64  1  0
 22 65  1  6
 23 66  1  0
 25 67  1  0
 25 68  1  0
 25 69  1  0
 26 70  1  0
 26 71  1  0
 26 72  1  0
 28 73  1  0
 28 74  1  0
 28 75  1  0
 29 76  1  0
 29 77  1  0
 30 78  1  0
 30 79  1  0
 32 80  1  0
 32 81  1  0
 32 82  1  0
M  END
>  <meeko>  (15) 
{"is_sidechain": [false], "intermolecular_energy": 2.731, "internal_energy": -0.839}

$$$$
EPH_relaxed_0001_pdb2pqr_Repair_215_r2_0001_out
     RDKit          3D

 82 86  0  0  0  0  0  0  0  0999 V2000
    1.9620   19.4390   -1.9300 C   0  0  0  0  0  0  0  0  0  0  0  0
    0.7310   19.2890   -1.0320 C   0  0  2  0  0  0  0  0  0  0  0  0
    0.8300   20.1550    0.2400 C   0  0  0  0  0  0  0  0  0  0  0  0
    1.2630   19.3740    1.4840 C   0  0  0  0  0  0  0  0  0  0  0  0
    2.6110   19.8110    1.9720 C   0  0  2  0  0  0  0  0  0  0  0  0
    3.5290   20.1890    0.9370 O   0  0  0  0  0  0  0  0  0  0  0  0
    3.8880   19.0340    1.7120 C   0  0  0  0  0  0  0  0  0  0  0  0
    3.8780   17.7540    0.9360 C   0  0  0  0  0  0  0  0  0  0  0  0
    5.0580   19.2560    2.6190 C   0  0  0  0  0  0  0  0  0  0  0  0
    0.5400   17.8260   -0.6530 C   0  0  1  0  0  0  0  0  0  0  0  0
   -0.7800   17.5780    0.1260 C   0  0  0  0  0  0  0  0  0  0  0  0
   -1.2980   16.1820   -0.3060 C   0  0  0  0  0  0  0  0  0  0  0  0
   -0.1070   15.5380   -1.0540 C   0  0  1  0  0  0  0  0  0  0  0  0
    0.8210   14.9830    0.0730 C   0  0  0  0  0  0  0  0  0  0  0  0
   -0.4650   14.4340   -2.1020 C   0  0  2  0  0  0  0  0  0  0  0  0
   -1.1530   13.1840   -1.5250 C   0  0  0  0  0  0  0  0  0  0  0  0
   -0.2330   12.0880   -1.1020 C   0  0  0  0  0  0  0  0  0  0  0  0
    1.0660   11.9830   -1.4390 C   0  0  0  0  0  0  0  0  0  0  0  0
    1.7110   12.9810   -2.4090 C   0  0  1  0  0  0  0  0  0  0  0  0
    2.5470   12.2110   -3.4650 C   0  0  0  0  0  0  0  0  0  0  0  0
    3.5670   11.2710   -2.8310 C   0  0  0  0  0  0  0  0  0  0  0  0
    2.8820   10.2560   -1.9190 C   0  0  2  0  0  0  0  0  0  0  0  0
    2.0770    9.3860   -2.7210 O   0  0  0  0  0  0  0  0  0  0  0  0
    2.0030   10.9160   -0.8200 C   0  0  0  0  0  0  0  0  0  0  0  0
    2.9110   11.6130    0.2230 C   0  0  0  0  0  0  0  0  0  0  0  0
    1.2580    9.7850   -0.0610 C   0  0  0  0  0  0  0  0  0  0  0  0
    0.7280   14.0440   -3.0650 C   0  0  1  0  0  0  0  0  0  0  0  0
    0.0840   13.4480   -4.3540 C   0  0  0  0  0  0  0  0  0  0  0  0
    1.5610   15.2990   -3.5250 C   0  0  0  0  0  0  0  0  0  0  0  0
    1.7780   16.4090   -2.4790 C   0  0  0  0  0  0  0  0  0  0  0  0
    0.4570   16.7960   -1.8080 C   0  0  2  0  0  0  0  0  0  0  0  0
   -0.4890   17.3780   -2.9130 C   0  0  0  0  0  0  0  0  0  0  0  0
    2.8606   19.5485   -1.3051 H   0  0  0  0  0  0  0  0  0  0  0  0
    2.0635   18.5466   -2.5650 H   0  0  0  0  0  0  0  0  0  0  0  0
    1.8463   20.3297   -2.5650 H   0  0  0  0  0  0  0  0  0  0  0  0
   -0.1402   19.6418   -1.6034 H   0  0  0  0  0  0  0  0  0  0  0  0
    1.5632   20.9549    0.0594 H   0  0  0  0  0  0  0  0  0  0  0  0
   -0.1778   20.5472    0.4412 H   0  0  0  0  0  0  0  0  0  0  0  0
    0.5245   19.5378    2.2826 H   0  0  0  0  0  0  0  0  0  0  0  0
    1.3243   18.3089    1.2159 H   0  0  0  0  0  0  0  0  0  0  0  0
    2.1706   20.2194    2.8936 H   0  0  0  0  0  0  0  0  0  0  0  0
    3.8714   16.9028    1.6328 H   0  0  0  0  0  0  0  0  0  0  0  0
    2.9795   17.7163    0.3025 H   0  0  0  0  0  0  0  0  0  0  0  0
    4.7758   17.7023    0.3025 H   0  0  0  0  0  0  0  0  0  0  0  0
    4.7272   19.1932    3.6662 H   0  0  0  0  0  0  0  0  0  0  0  0
    5.8207   18.4865    2.4286 H   0  0  0  0  0  0  0  0  0  0  0  0
    5.4858   20.2513    2.4286 H   0  0  0  0  0  0  0  0  0  0  0  0
    1.4596   17.6652   -0.0713 H   0  0  0  0  0  0  0  0  0  0  0  0
   -0.5892   17.5928    1.2092 H   0  0  0  0  0  0  0  0  0  0  0  0
   -1.5216   18.3601   -0.0938 H   0  0  0  0  0  0  0  0  0  0  0  0
   -1.5749   15.5815    0.5730 H   0  0  0  0  0  0  0  0  0  0  0  0
   -2.1988   16.2474   -0.9340 H   0  0  0  0  0  0  0  0  0  0  0  0
    0.3966   15.2368    1.0556 H   0  0  0  0  0  0  0  0  0  0  0  0
    0.8990   13.8898   -0.0214 H   0  0  0  0  0  0  0  0  0  0  0  0
    1.8210   15.4315   -0.0214 H   0  0  0  0  0  0  0  0  0  0  0  0
   -1.2249   14.9340   -2.7206 H   0  0  0  0  0  0  0  0  0  0  0  0
   -1.7393   13.4934   -0.6472 H   0  0  0  0  0  0  0  0  0  0  0  0
   -1.7650   12.7700   -2.3399 H   0  0  0  0  0  0  0  0  0  0  0  0
   -0.6519   11.2988   -0.4603 H   0  0  0  0  0  0  0  0  0  0  0  0
    2.3726   13.6137   -1.7991 H   0  0  0  0  0  0  0  0  0  0  0  0
    1.8641   11.6191   -4.0922 H   0  0  0  0  0  0  0  0  0  0  0  0
    3.1007   12.9533   -4.0586 H   0  0  0  0  0  0  0  0  0  0  0  0
    4.1050   10.7345   -3.6264 H   0  0  0  0  0  0  0  0  0  0  0  0
    4.2668   11.8681   -2.2279 H   0  0  0  0  0  0  0  0  0  0  0  0
    3.6713    9.6966   -1.3954 H   0  0  0  0  0  0  0  0  0  0  0  0
    2.3760    9.4740   -3.6420 H   0  0  0  0  0  0  0  0  0  0  0  0
    2.5719   11.3527    1.2365 H   0  0  0  0  0  0  0  0  0  0  0  0
    3.9499   11.2782    0.0867 H   0  0  0  0  0  0  0  0  0  0  0  0
    2.8561   12.7031    0.0867 H   0  0  0  0  0  0  0  0  0  0  0  0
    1.3610    9.9413    1.0230 H   0  0  0  0  0  0  0  0  0  0  0  0
    0.1925    9.8002   -0.3341 H   0  0  0  0  0  0  0  0  0  0  0  0
    1.6926    8.8121   -0.3341 H   0  0  0  0  0  0  0  0  0  0  0  0
   -0.6966   12.7256   -4.0735 H   0  0  0  0  0  0  0  0  0  0  0  0
   -0.3629   14.2582   -4.9489 H   0  0  0  0  0  0  0  0  0  0  0  0
    0.8572   12.9398   -4.9489 H   0  0  0  0  0  0  0  0  0  0  0  0
    2.5520   14.9426   -3.8427 H   0  0  0  0  0  0  0  0  0  0  0  0
    0.9626   15.7661   -4.3210 H   0  0  0  0  0  0  0  0  0  0  0  0
    2.4791   16.0484   -1.7119 H   0  0  0  0  0  0  0  0  0  0  0  0
    2.1858   17.2951   -2.9875 H   0  0  0  0  0  0  0  0  0  0  0  0
   -1.3334   17.8975   -2.4364 H   0  0  0  0  0  0  0  0  0  0  0  0
    0.0717   18.0875   -3.5392 H   0  0  0  0  0  0  0  0  0  0  0  0
   -0.8695   16.5576   -3.5392 H   0  0  0  0  0  0  0  0  0  0  0  0
  1  2  1  0
  2  3  1  0
  3  4  1  0
  4  5  1  0
  5  6  1  0
  6  7  1  0
  7  8  1  0
  7  9  1  0
  2 10  1  0
 10 11  1  0
 11 12  1  0
 12 13  1  0
 13 14  1  1
 13 15  1  0
 15 16  1  0
 16 17  1  0
 17 18  2  0
 18 19  1  0
 19 20  1  0
 20 21  1  0
 21 22  1  0
 22 23  1  0
 22 24  1  0
 24 25  1  0
 24 26  1  0
 19 27  1  0
 27 28  1  6
 27 29  1  0
 29 30  1  0
 30 31  1  0
 31 32  1  6
  7  5  1  0
 31 10  1  0
 31 13  1  0
 27 15  1  0
 24 18  1  0
  1 33  1  0
  1 34  1  0
  1 35  1  0
  2 36  1  6
  3 37  1  0
  3 38  1  0
  4 39  1  0
  4 40  1  0
  5 41  1  1
  8 42  1  0
  8 43  1  0
  8 44  1  0
  9 45  1  0
  9 46  1  0
  9 47  1  0
 10 48  1  1
 11 49  1  0
 11 50  1  0
 12 51  1  0
 12 52  1  0
 14 53  1  0
 14 54  1  0
 14 55  1  0
 15 56  1  6
 16 57  1  0
 16 58  1  0
 17 59  1  0
 19 60  1  1
 20 61  1  0
 20 62  1  0
 21 63  1  0
 21 64  1  0
 22 65  1  1
 23 66  1  0
 25 67  1  0
 25 68  1  0
 25 69  1  0
 26 70  1  0
 26 71  1  0
 26 72  1  0
 28 73  1  0
 28 74  1  0
 28 75  1  0
 29 76  1  0
 29 77  1  0
 30 78  1  0
 30 79  1  0
 32 80  1  0
 32 81  1  0
 32 82  1  0
M  END
>  <meeko>  (16) 
{"is_sidechain": [false], "intermolecular_energy": 2.731, "internal_energy": -0.839}

$$$$
EPH_relaxed_0001_pdb2pqr_Repair_215_r2_0001_out
     RDKit          3D

 82 86  0  0  0  0  0  0  0  0999 V2000
    1.3160   18.5960   -1.8900 C   0  0  0  0  0  0  0  0  0  0  0  0
    0.6330   17.3080   -1.4230 C   0  0  2  0  0  0  0  0  0  0  0  0
   -0.0570   17.4800   -0.0540 C   0  0  0  0  0  0  0  0  0  0  0  0
    0.1740   18.8530    0.5830 C   0  0  0  0  0  0  0  0  0  0  0  0
   -0.7260   19.0750    1.7610 C   0  0  2  0  0  0  0  0  0  0  0  0
   -1.8210   18.1570    1.8590 O   0  0  0  0  0  0  0  0  0  0  0  0
   -2.1670   19.5340    1.6380 C   0  0  0  0  0  0  0  0  0  0  0  0
   -2.7900   19.7980    0.3040 C   0  0  0  0  0  0  0  0  0  0  0  0
   -2.8120   20.1910    2.8180 C   0  0  0  0  0  0  0  0  0  0  0  0
    1.6500   16.1750   -1.3540 C   0  0  1  0  0  0  0  0  0  0  0  0
    1.9730   15.7490    0.1020 C   0  0  0  0  0  0  0  0  0  0  0  0
    2.2140   14.2180    0.0780 C   0  0  0  0  0  0  0  0  0  0  0  0
    2.3500   13.8690   -1.4230 C   0  0  1  0  0  0  0  0  0  0  0  0
    3.8230   14.2330   -1.7880 C   0  0  0  0  0  0  0  0  0  0  0  0
    2.0020   12.3980   -1.8240 C   0  0  2  0  0  0  0  0  0  0  0  0
    2.9020   11.3200   -1.1950 C   0  0  0  0  0  0  0  0  0  0  0  0
    4.1110   10.9540   -1.9910 C   0  0  0  0  0  0  0  0  0  0  0  0
    4.3150   11.2560   -3.2860 C   0  0  0  0  0  0  0  0  0  0  0  0
    3.2280   11.9530   -4.1140 C   0  0  1  0  0  0  0  0  0  0  0  0
    3.0760   11.2340   -5.4800 C   0  0  0  0  0  0  0  0  0  0  0  0
    4.3980   11.1220   -6.2320 C   0  0  0  0  0  0  0  0  0  0  0  0
    5.4360   10.3720   -5.4010 C   0  0  2  0  0  0  0  0  0  0  0  0
    5.0160    9.0120   -5.2560 O   0  0  0  0  0  0  0  0  0  0  0  0
    5.6670   11.0000   -3.9970 C   0  0  0  0  0  0  0  0  0  0  0  0
    6.4020   12.3540   -4.1480 C   0  0  0  0  0  0  0  0  0  0  0  0
    6.6280   10.0690   -3.2100 C   0  0  0  0  0  0  0  0  0  0  0  0
    1.8340   12.1730   -3.3810 C   0  0  1  0  0  0  0  0  0  0  0  0
    0.9370   10.9100   -3.5550 C   0  0  0  0  0  0  0  0  0  0  0  0
    1.0690   13.3610   -4.0780 C   0  0  0  0  0  0  0  0  0  0  0  0
    1.3660   14.7790   -3.5560 C   0  0  0  0  0  0  0  0  0  0  0  0
    1.2670   14.8340   -2.0290 C   0  0  2  0  0  0  0  0  0  0  0  0
   -0.2100   14.4940   -1.6330 C   0  0  0  0  0  0  0  0  0  0  0  0
    1.6278   19.1840   -1.0142 H   0  0  0  0  0  0  0  0  0  0  0  0
    2.1990   18.3440   -2.4957 H   0  0  0  0  0  0  0  0  0  0  0  0
    0.6120   19.1855   -2.4957 H   0  0  0  0  0  0  0  0  0  0  0  0
   -0.1475   17.0626   -2.1583 H   0  0  0  0  0  0  0  0  0  0  0  0
   -1.1392   17.3379   -0.1902 H   0  0  0  0  0  0  0  0  0  0  0  0
    0.3821   16.7330    0.6236 H   0  0  0  0  0  0  0  0  0  0  0  0
    1.2203   18.9203    0.9158 H   0  0  0  0  0  0  0  0  0  0  0  0
   -0.0499   19.6229   -0.1701 H   0  0  0  0  0  0  0  0  0  0  0  0
    0.1165   19.4430    2.3650 H   0  0  0  0  0  0  0  0  0  0  0  0
   -3.7943   20.2236    0.4461 H   0  0  0  0  0  0  0  0  0  0  0  0
   -2.1665   20.5092   -0.2576 H   0  0  0  0  0  0  0  0  0  0  0  0
   -2.8673   18.8553   -0.2576 H   0  0  0  0  0  0  0  0  0  0  0  0
   -2.3972   19.7685    3.7450 H   0  0  0  0  0  0  0  0  0  0  0  0
   -2.6155   21.2729    2.7881 H   0  0  0  0  0  0  0  0  0  0  0  0
   -3.8973   20.0145    2.7881 H   0  0  0  0  0  0  0  0  0  0  0  0
    2.4849   16.6440   -1.8952 H   0  0  0  0  0  0  0  0  0  0  0  0
    2.8750   16.2688    0.4573 H   0  0  0  0  0  0  0  0  0  0  0  0
    1.1474   16.0079    0.7812 H   0  0  0  0  0  0  0  0  0  0  0  0
    3.1351   13.9611    0.6216 H   0  0  0  0  0  0  0  0  0  0  0  0
    1.4007   13.6596    0.5646 H   0  0  0  0  0  0  0  0  0  0  0  0
    4.4046   14.3767   -0.8654 H   0  0  0  0  0  0  0  0  0  0  0  0
    4.2668   13.4175   -2.3779 H   0  0  0  0  0  0  0  0  0  0  0  0
    3.8359   15.1613   -2.3779 H   0  0  0  0  0  0  0  0  0  0  0  0
    1.0087   12.2594   -1.3722 H   0  0  0  0  0  0  0  0  0  0  0  0
    3.2392   11.6883   -0.2149 H   0  0  0  0  0  0  0  0  0  0  0  0
    2.2891   10.4085   -1.1363 H   0  0  0  0  0  0  0  0  0  0  0  0
    4.9018   10.3897   -1.4750 H   0  0  0  0  0  0  0  0  0  0  0  0
    3.5794   12.9832   -4.2727 H   0  0  0  0  0  0  0  0  0  0  0  0
    2.6836   10.2216   -5.3039 H   0  0  0  0  0  0  0  0  0  0  0  0
    2.3900   11.8322   -6.0978 H   0  0  0  0  0  0  0  0  0  0  0  0
    4.2313   10.5799   -7.1745 H   0  0  0  0  0  0  0  0  0  0  0  0
    4.7748   12.1357   -6.4330 H   0  0  0  0  0  0  0  0  0  0  0  0
    6.3952   10.4365   -5.9355 H   0  0  0  0  0  0  0  0  0  0  0  0
    5.6920    8.5490   -4.7340 H   0  0  0  0  0  0  0  0  0  0  0  0
    6.6244   12.7636   -3.1516 H   0  0  0  0  0  0  0  0  0  0  0  0
    7.3413   12.2018   -4.6998 H   0  0  0  0  0  0  0  0  0  0  0  0
    5.7626   13.0587   -4.6998 H   0  0  0  0  0  0  0  0  0  0  0  0
    6.4774   10.2149   -2.1302 H   0  0  0  0  0  0  0  0  0  0  0  0
    6.4189    9.0211   -3.4711 H   0  0  0  0  0  0  0  0  0  0  0  0
    7.6688   10.3112   -3.4711 H   0  0  0  0  0  0  0  0  0  0  0  0
    0.6590   10.5185   -2.5653 H   0  0  0  0  0  0  0  0  0  0  0  0
    0.0273   11.1802   -4.1112 H   0  0  0  0  0  0  0  0  0  0  0  0
    1.4918   10.1401   -4.1112 H   0  0  0  0  0  0  0  0  0  0  0  0
    1.3249   13.3397   -5.1476 H   0  0  0  0  0  0  0  0  0  0  0  0
    0.0057   13.1889   -3.8551 H   0  0  0  0  0  0  0  0  0  0  0  0
    2.3822   15.0691   -3.8612 H   0  0  0  0  0  0  0  0  0  0  0  0
    0.6237   15.4711   -3.9803 H   0  0  0  0  0  0  0  0  0  0  0  0
   -0.3002   14.4732   -0.5369 H   0  0  0  0  0  0  0  0  0  0  0  0
   -0.8849   15.2603   -2.0420 H   0  0  0  0  0  0  0  0  0  0  0  0
   -0.4820   13.5098   -2.0420 H   0  0  0  0  0  0  0  0  0  0  0  0
  1  2  1  0
  2  3  1  0
  3  4  1  0
  4  5  1  0
  5  6  1  0
  6  7  1  0
  7  8  1  0
  7  9  1  0
  2 10  1  0
 10 11  1  0
 11 12  1  0
 12 13  1  0
 13 14  1  6
 13 15  1  0
 15 16  1  0
 16 17  1  0
 17 18  2  0
 18 19  1  0
 19 20  1  0
 20 21  1  0
 21 22  1  0
 22 23  1  0
 22 24  1  0
 24 25  1  0
 24 26  1  0
 19 27  1  0
 27 28  1  1
 27 29  1  0
 29 30  1  0
 30 31  1  0
 31 32  1  6
  7  5  1  0
 31 10  1  0
 31 13  1  0
 27 15  1  0
 24 18  1  0
  1 33  1  0
  1 34  1  0
  1 35  1  0
  2 36  1  6
  3 37  1  0
  3 38  1  0
  4 39  1  0
  4 40  1  0
  5 41  1  1
  8 42  1  0
  8 43  1  0
  8 44  1  0
  9 45  1  0
  9 46  1  0
  9 47  1  0
 10 48  1  6
 11 49  1  0
 11 50  1  0
 12 51  1  0
 12 52  1  0
 14 53  1  0
 14 54  1  0
 14 55  1  0
 15 56  1  1
 16 57  1  0
 16 58  1  0
 17 59  1  0
 19 60  1  6
 20 61  1  0
 20 62  1  0
 21 63  1  0
 21 64  1  0
 22 65  1  6
 23 66  1  0
 25 67  1  0
 25 68  1  0
 25 69  1  0
 26 70  1  0
 26 71  1  0
 26 72  1  0
 28 73  1  0
 28 74  1  0
 28 75  1  0
 29 76  1  0
 29 77  1  0
 30 78  1  0
 30 79  1  0
 32 80  1  0
 32 81  1  0
 32 82  1  0
M  END
>  <meeko>  (17) 
{"is_sidechain": [false], "intermolecular_energy": 2.731, "internal_energy": -0.839}

$$$$
EPH_relaxed_0001_pdb2pqr_Repair_215_r2_0001_out
     RDKit          3D

 82 86  0  0  0  0  0  0  0  0999 V2000
    0.7050    9.3400   -0.0760 C   0  0  0  0  0  0  0  0  0  0  0  0
   -0.4570   10.3320   -0.1760 C   0  0  2  0  0  0  0  0  0  0  0  0
   -1.0390   10.4030   -1.6020 C   0  0  0  0  0  0  0  0  0  0  0  0
   -0.1080    9.8340   -2.6760 C   0  0  0  0  0  0  0  0  0  0  0  0
    0.0210   10.7610   -3.8460 C   0  0  2  0  0  0  0  0  0  0  0  0
    0.6260   10.1780   -5.0080 O   0  0  0  0  0  0  0  0  0  0  0  0
    1.3530   11.2490   -4.3840 C   0  0  0  0  0  0  0  0  0  0  0  0
    2.6480   10.8250   -3.7640 C   0  0  0  0  0  0  0  0  0  0  0  0
    1.3810   12.5090   -5.1910 C   0  0  0  0  0  0  0  0  0  0  0  0
    0.0020   11.7160    0.2690 C   0  0  1  0  0  0  0  0  0  0  0  0
    1.1300   11.6580    1.3330 C   0  0  0  0  0  0  0  0  0  0  0  0
    2.0640   12.8660    1.0610 C   0  0  0  0  0  0  0  0  0  0  0  0
    1.2720   13.7570    0.0750 C   0  0  1  0  0  0  0  0  0  0  0  0
    0.2820   14.5640    0.9720 C   0  0  0  0  0  0  0  0  0  0  0  0
    2.1210   14.6990   -0.8400 C   0  0  2  0  0  0  0  0  0  0  0  0
    2.9500   15.7590   -0.0940 C   0  0  0  0  0  0  0  0  0  0  0  0
    2.2600   17.0640    0.1320 C   0  0  0  0  0  0  0  0  0  0  0  0
    1.1400   17.4750   -0.4910 C   0  0  0  0  0  0  0  0  0  0  0  0
    0.5030   16.6320   -1.6040 C   0  0  1  0  0  0  0  0  0  0  0  0
    0.1470   17.5460   -2.8050 C   0  0  0  0  0  0  0  0  0  0  0  0
   -0.7230   18.7320   -2.4010 C   0  0  0  0  0  0  0  0  0  0  0  0
   -0.0310   19.5780   -1.3350 C   0  0  2  0  0  0  0  0  0  0  0  0
    1.1240   20.1930   -1.9130 O   0  0  0  0  0  0  0  0  0  0  0  0
    0.3830   18.7620   -0.0790 C   0  0  0  0  0  0  0  0  0  0  0  0
   -0.8810   18.3500    0.7150 C   0  0  0  0  0  0  0  0  0  0  0  0
    1.1950   19.7010    0.8540 C   0  0  0  0  0  0  0  0  0  0  0  0
    1.3120   15.3360   -2.0410 C   0  0  1  0  0  0  0  0  0  0  0  0
    2.3590   15.7070   -3.1360 C   0  0  0  0  0  0  0  0  0  0  0  0
    0.3190   14.3110   -2.7050 C   0  0  0  0  0  0  0  0  0  0  0  0
   -0.3990   13.3270   -1.7610 C   0  0  0  0  0  0  0  0  0  0  0  0
    0.5970   12.6500   -0.8140 C   0  0  2  0  0  0  0  0  0  0  0  0
    1.5930   11.8130   -1.6870 C   0  0  0  0  0  0  0  0  0  0  0  0
    0.9318    9.1464    0.9828 H   0  0  0  0  0  0  0  0  0  0  0  0
    0.4259    8.3974   -0.5695 H   0  0  0  0  0  0  0  0  0  0  0  0
    1.5922    9.7635   -0.5695 H   0  0  0  0  0  0  0  0  0  0  0  0
   -1.2566    9.9736    0.4890 H   0  0  0  0  0  0  0  0  0  0  0  0
   -1.9803    9.8341   -1.6216 H   0  0  0  0  0  0  0  0  0  0  0  0
   -1.1869   11.4676   -1.8361 H   0  0  0  0  0  0  0  0  0  0  0  0
    0.8876    9.6743   -2.2364 H   0  0  0  0  0  0  0  0  0  0  0  0
   -0.5373    8.8869   -3.0349 H   0  0  0  0  0  0  0  0  0  0  0  0
   -0.8969   11.2931   -3.5556 H   0  0  0  0  0  0  0  0  0  0  0  0
    2.5570   10.8548   -2.6682 H   0  0  0  0  0  0  0  0  0  0  0  0
    2.8898    9.8008   -4.0841 H   0  0  0  0  0  0  0  0  0  0  0  0
    3.4487   11.5079   -4.0841 H   0  0  0  0  0  0  0  0  0  0  0  0
    1.4003   13.3768   -4.5153 H   0  0  0  0  0  0  0  0  0  0  0  0
    2.2796   12.5182   -5.8254 H   0  0  0  0  0  0  0  0  0  0  0  0
    0.4837   12.5581   -5.8254 H   0  0  0  0  0  0  0  0  0  0  0  0
   -0.9552   12.1204    0.6299 H   0  0  0  0  0  0  0  0  0  0  0  0
    0.7016   11.7304    2.3436 H   0  0  0  0  0  0  0  0  0  0  0  0
    1.6831   10.7092    1.2710 H   0  0  0  0  0  0  0  0  0  0  0  0
    2.2756   13.4109    1.9928 H   0  0  0  0  0  0  0  0  0  0  0  0
    3.0381   12.5570    0.6540 H   0  0  0  0  0  0  0  0  0  0  0  0
    0.5114   14.3770    2.0314 H   0  0  0  0  0  0  0  0  0  0  0  0
    0.3859   15.6380    0.7584 H   0  0  0  0  0  0  0  0  0  0  0  0
   -0.7491   14.2457    0.7584 H   0  0  0  0  0  0  0  0  0  0  0  0
    2.8521   14.0052   -1.2807 H   0  0  0  0  0  0  0  0  0  0  0  0
    3.2263   15.3459    0.8873 H   0  0  0  0  0  0  0  0  0  0  0  0
    3.8143   15.9787   -0.7380 H   0  0  0  0  0  0  0  0  0  0  0  0
    2.7049   17.7473    0.8703 H   0  0  0  0  0  0  0  0  0  0  0  0
   -0.4155   16.2047   -1.1752 H   0  0  0  0  0  0  0  0  0  0  0  0
    1.0797   17.9272   -3.2464 H   0  0  0  0  0  0  0  0  0  0  0  0
   -0.4252   16.9427   -3.5251 H   0  0  0  0  0  0  0  0  0  0  0  0
   -0.9155   19.3555   -3.2865 H   0  0  0  0  0  0  0  0  0  0  0  0
   -1.6678   18.3497   -1.9872 H   0  0  0  0  0  0  0  0  0  0  0  0
   -0.7533   20.3338   -0.9928 H   0  0  0  0  0  0  0  0  0  0  0  0
    1.8520   20.1090   -1.2740 H   0  0  0  0  0  0  0  0  0  0  0  0
   -0.6747   18.4172    1.7934 H   0  0  0  0  0  0  0  0  0  0  0  0
   -1.7114   19.0240    0.4578 H   0  0  0  0  0  0  0  0  0  0  0  0
   -1.1548   17.3161    0.4578 H   0  0  0  0  0  0  0  0  0  0  0  0
    0.9792   19.4514    1.9033 H   0  0  0  0  0  0  0  0  0  0  0  0
    2.2699   19.5709    0.6598 H   0  0  0  0  0  0  0  0  0  0  0  0
    0.9111   20.7458    0.6598 H   0  0  0  0  0  0  0  0  0  0  0  0
    3.2914   16.0374   -2.6548 H   0  0  0  0  0  0  0  0  0  0  0  0
    2.5620   14.8261   -3.7627 H   0  0  0  0  0  0  0  0  0  0  0  0
    1.9620   16.5192   -3.7627 H   0  0  0  0  0  0  0  0  0  0  0  0
   -0.4536   14.8901   -3.2321 H   0  0  0  0  0  0  0  0  0  0  0  0
    0.9464   13.6816   -3.3533 H   0  0  0  0  0  0  0  0  0  0  0  0
   -1.1437   13.8769   -1.1668 H   0  0  0  0  0  0  0  0  0  0  0  0
   -0.8879   12.5514   -2.3688 H   0  0  0  0  0  0  0  0  0  0  0  0
    2.2685   11.2453   -1.0301 H   0  0  0  0  0  0  0  0  0  0  0  0
    1.0271   11.1154   -2.3219 H   0  0  0  0  0  0  0  0  0  0  0  0
    2.1827   12.4906   -2.3219 H   0  0  0  0  0  0  0  0  0  0  0  0
  1  2  1  0
  2  3  1  0
  3  4  1  0
  4  5  1  0
  5  6  1  0
  6  7  1  0
  7  8  1  0
  7  9  1  0
  2 10  1  0
 10 11  1  0
 11 12  1  0
 12 13  1  0
 13 14  1  1
 13 15  1  0
 15 16  1  0
 16 17  1  0
 17 18  2  0
 18 19  1  0
 19 20  1  0
 20 21  1  0
 21 22  1  0
 22 23  1  0
 22 24  1  0
 24 25  1  0
 24 26  1  0
 19 27  1  0
 27 28  1  6
 27 29  1  0
 29 30  1  0
 30 31  1  0
 31 32  1  6
  7  5  1  0
 31 10  1  0
 31 13  1  0
 27 15  1  0
 24 18  1  0
  1 33  1  0
  1 34  1  0
  1 35  1  0
  2 36  1  1
  3 37  1  0
  3 38  1  0
  4 39  1  0
  4 40  1  0
  5 41  1  6
  8 42  1  0
  8 43  1  0
  8 44  1  0
  9 45  1  0
  9 46  1  0
  9 47  1  0
 10 48  1  1
 11 49  1  0
 11 50  1  0
 12 51  1  0
 12 52  1  0
 14 53  1  0
 14 54  1  0
 14 55  1  0
 15 56  1  6
 16 57  1  0
 16 58  1  0
 17 59  1  0
 19 60  1  1
 20 61  1  0
 20 62  1  0
 21 63  1  0
 21 64  1  0
 22 65  1  1
 23 66  1  0
 25 67  1  0
 25 68  1  0
 25 69  1  0
 26 70  1  0
 26 71  1  0
 26 72  1  0
 28 73  1  0
 28 74  1  0
 28 75  1  0
 29 76  1  0
 29 77  1  0
 30 78  1  0
 30 79  1  0
 32 80  1  0
 32 81  1  0
 32 82  1  0
M  END
>  <meeko>  (18) 
{"is_sidechain": [false], "intermolecular_energy": 2.731, "internal_energy": -0.839}

$$$$
EPH_relaxed_0001_pdb2pqr_Repair_215_r2_0001_out
     RDKit          3D

 82 86  0  0  0  0  0  0  0  0999 V2000
    0.8930   14.8990   -2.6320 C   0  0  0  0  0  0  0  0  0  0  0  0
    1.1580   14.2260   -3.9810 C   0  0  2  0  0  0  0  0  0  0  0  0
    0.4540   14.9560   -5.1430 C   0  0  0  0  0  0  0  0  0  0  0  0
    0.9840   14.5670   -6.5260 C   0  0  0  0  0  0  0  0  0  0  0  0
    0.7600   15.6560   -7.5310 C   0  0  2  0  0  0  0  0  0  0  0  0
    0.4150   15.1960   -8.8450 O   0  0  0  0  0  0  0  0  0  0  0  0
    1.6670   15.8920   -8.7250 C   0  0  0  0  0  0  0  0  0  0  0  0
    2.8670   15.0340   -8.9740 C   0  0  0  0  0  0  0  0  0  0  0  0
    1.6680   17.2440   -9.3660 C   0  0  0  0  0  0  0  0  0  0  0  0
    0.7090   12.7700   -3.9340 C   0  0  1  0  0  0  0  0  0  0  0  0
    1.8400   11.7830   -4.3240 C   0  0  0  0  0  0  0  0  0  0  0  0
    1.6450   10.5120   -3.4570 C   0  0  0  0  0  0  0  0  0  0  0  0
    0.2340   10.6710   -2.8450 C   0  0  1  0  0  0  0  0  0  0  0  0
   -0.7450   10.2070   -3.9690 C   0  0  0  0  0  0  0  0  0  0  0  0
   -0.0270    9.9130   -1.5030 C   0  0  2  0  0  0  0  0  0  0  0  0
    0.0790    8.3800   -1.5890 C   0  0  0  0  0  0  0  0  0  0  0  0
   -1.1940    7.6700   -1.9110 C   0  0  0  0  0  0  0  0  0  0  0  0
   -2.4270    8.2050   -1.8450 C   0  0  0  0  0  0  0  0  0  0  0  0
   -2.6400    9.6300   -1.3160 C   0  0  1  0  0  0  0  0  0  0  0  0
   -3.8160    9.6360   -0.3050 C   0  0  0  0  0  0  0  0  0  0  0  0
   -5.0910    9.0340   -0.8870 C   0  0  0  0  0  0  0  0  0  0  0  0
   -4.8550    7.5980   -1.3480 C   0  0  2  0  0  0  0  0  0  0  0  0
   -4.5920    6.7830   -0.2020 O   0  0  0  0  0  0  0  0  0  0  0  0
   -3.6850    7.4660   -2.3630 C   0  0  0  0  0  0  0  0  0  0  0  0
   -4.0960    8.0960   -3.7170 C   0  0  0  0  0  0  0  0  0  0  0  0
   -3.4600    5.9540   -2.6380 C   0  0  0  0  0  0  0  0  0  0  0  0
   -1.3460   10.3600   -0.7510 C   0  0  1  0  0  0  0  0  0  0  0  0
   -1.1450   10.0000    0.7530 C   0  0  0  0  0  0  0  0  0  0  0  0
   -1.5680   11.9180   -0.8090 C   0  0  0  0  0  0  0  0  0  0  0  0
   -1.1800   12.6270   -2.1200 C   0  0  0  0  0  0  0  0  0  0  0  0
    0.2270   12.2190   -2.5680 C   0  0  2  0  0  0  0  0  0  0  0  0
    1.2360   12.6930   -1.4670 C   0  0  0  0  0  0  0  0  0  0  0  0
    1.1644   14.2098   -1.8188 H   0  0  0  0  0  0  0  0  0  0  0  0
    1.4978   15.8145   -2.5539 H   0  0  0  0  0  0  0  0  0  0  0  0
   -0.1736   15.1564   -2.5539 H   0  0  0  0  0  0  0  0  0  0  0  0
    2.2410   14.2754   -4.1670 H   0  0  0  0  0  0  0  0  0  0  0  0
   -0.6193   14.7182   -5.1030 H   0  0  0  0  0  0  0  0  0  0  0  0
    0.6512   16.0305   -5.0139 H   0  0  0  0  0  0  0  0  0  0  0  0
    2.0631   14.3672   -6.4511 H   0  0  0  0  0  0  0  0  0  0  0  0
    0.4403   13.6720   -6.8627 H   0  0  0  0  0  0  0  0  0  0  0  0
    0.3771   16.3302   -6.7507 H   0  0  0  0  0  0  0  0  0  0  0  0
    3.3015   14.7233   -8.0124 H   0  0  0  0  0  0  0  0  0  0  0  0
    2.5685   14.1433   -9.5463 H   0  0  0  0  0  0  0  0  0  0  0  0
    3.6133   15.6045   -9.5463 H   0  0  0  0  0  0  0  0  0  0  0  0
    1.6686   18.0196   -8.5860 H   0  0  0  0  0  0  0  0  0  0  0  0
    2.5662   17.3525   -9.9916 H   0  0  0  0  0  0  0  0  0  0  0  0
    0.7699   17.3538   -9.9916 H   0  0  0  0  0  0  0  0  0  0  0  0
   -0.1324   12.8134   -4.6412 H   0  0  0  0  0  0  0  0  0  0  0  0
    1.7683   11.5277   -5.3916 H   0  0  0  0  0  0  0  0  0  0  0  0
    2.8303   12.2299   -4.1518 H   0  0  0  0  0  0  0  0  0  0  0  0
    1.6991    9.6059   -4.0783 H   0  0  0  0  0  0  0  0  0  0  0  0
    2.4244   10.4078   -2.6878 H   0  0  0  0  0  0  0  0  0  0  0  0
   -1.6497    9.7782   -3.5133 H   0  0  0  0  0  0  0  0  0  0  0  0
   -1.0222   11.0695   -4.5929 H   0  0  0  0  0  0  0  0  0  0  0  0
   -0.2529    9.4463   -4.5929 H   0  0  0  0  0  0  0  0  0  0  0  0
    0.8199   10.2372   -0.8804 H   0  0  0  0  0  0  0  0  0  0  0  0
    0.8128    8.1333   -2.3704 H   0  0  0  0  0  0  0  0  0  0  0  0
    0.3725    8.0384   -0.5854 H   0  0  0  0  0  0  0  0  0  0  0  0
   -1.1177    6.6199   -2.2294 H   0  0  0  0  0  0  0  0  0  0  0  0
   -2.8970   10.2446   -2.1913 H   0  0  0  0  0  0  0  0  0  0  0  0
   -3.5229    9.0526    0.5803 H   0  0  0  0  0  0  0  0  0  0  0  0
   -4.0291   10.6839   -0.0471 H   0  0  0  0  0  0  0  0  0  0  0  0
   -5.8763    9.0404   -0.1168 H   0  0  0  0  0  0  0  0  0  0  0  0
   -5.3988    9.6354   -1.7551 H   0  0  0  0  0  0  0  0  0  0  0  0
   -5.7637    7.2655   -1.8711 H   0  0  0  0  0  0  0  0  0  0  0  0
   -3.6540    6.8940    0.0290 H   0  0  0  0  0  0  0  0  0  0  0  0
   -4.6886    9.0044   -3.5339 H   0  0  0  0  0  0  0  0  0  0  0  0
   -3.1934    8.3562   -4.2894 H   0  0  0  0  0  0  0  0  0  0  0  0
   -4.6978    7.3748   -4.2894 H   0  0  0  0  0  0  0  0  0  0  0  0
   -3.3799    5.4154   -1.6822 H   0  0  0  0  0  0  0  0  0  0  0  0
   -4.3088    5.5557   -3.2133 H   0  0  0  0  0  0  0  0  0  0  0  0
   -2.5320    5.8201   -3.2133 H   0  0  0  0  0  0  0  0  0  0  0  0
   -1.5853   10.7886    1.3808 H   0  0  0  0  0  0  0  0  0  0  0  0
   -1.6381    9.0409    0.9695 H   0  0  0  0  0  0  0  0  0  0  0  0
   -0.0698    9.9166    0.9695 H   0  0  0  0  0  0  0  0  0  0  0  0
   -2.6367   12.1086   -0.6314 H   0  0  0  0  0  0  0  0  0  0  0  0
   -0.8924   12.3333   -0.0467 H   0  0  0  0  0  0  0  0  0  0  0  0
   -1.9010   12.3531   -2.9043 H   0  0  0  0  0  0  0  0  0  0  0  0
   -1.1923   13.7134   -1.9483 H   0  0  0  0  0  0  0  0  0  0  0  0
    0.8125   12.4941   -0.4715 H   0  0  0  0  0  0  0  0  0  0  0  0
    2.1838   12.1459   -1.5783 H   0  0  0  0  0  0  0  0  0  0  0  0
    1.4200   13.7718   -1.5783 H   0  0  0  0  0  0  0  0  0  0  0  0
  1  2  1  0
  2  3  1  0
  3  4  1  0
  4  5  1  0
  5  6  1  0
  6  7  1  0
  7  8  1  0
  7  9  1  0
  2 10  1  0
 10 11  1  0
 11 12  1  0
 12 13  1  0
 13 14  1  6
 13 15  1  0
 15 16  1  0
 16 17  1  0
 17 18  2  0
 18 19  1  0
 19 20  1  0
 20 21  1  0
 21 22  1  0
 22 23  1  0
 22 24  1  0
 24 25  1  0
 24 26  1  0
 19 27  1  0
 27 28  1  1
 27 29  1  0
 29 30  1  0
 30 31  1  0
 31 32  1  1
  7  5  1  0
 31 10  1  0
 31 13  1  0
 27 15  1  0
 24 18  1  0
  1 33  1  0
  1 34  1  0
  1 35  1  0
  2 36  1  6
  3 37  1  0
  3 38  1  0
  4 39  1  0
  4 40  1  0
  5 41  1  1
  8 42  1  0
  8 43  1  0
  8 44  1  0
  9 45  1  0
  9 46  1  0
  9 47  1  0
 10 48  1  6
 11 49  1  0
 11 50  1  0
 12 51  1  0
 12 52  1  0
 14 53  1  0
 14 54  1  0
 14 55  1  0
 15 56  1  1
 16 57  1  0
 16 58  1  0
 17 59  1  0
 19 60  1  6
 20 61  1  0
 20 62  1  0
 21 63  1  0
 21 64  1  0
 22 65  1  6
 23 66  1  0
 25 67  1  0
 25 68  1  0
 25 69  1  0
 26 70  1  0
 26 71  1  0
 26 72  1  0
 28 73  1  0
 28 74  1  0
 28 75  1  0
 29 76  1  0
 29 77  1  0
 30 78  1  0
 30 79  1  0
 32 80  1  0
 32 81  1  0
 32 82  1  0
M  END
>  <meeko>  (19) 
{"is_sidechain": [false], "intermolecular_energy": 2.731, "internal_energy": -0.839}

$$$$
EPH_relaxed_0001_pdb2pqr_Repair_215_r2_0001_out
     RDKit          3D

 82 86  0  0  0  0  0  0  0  0999 V2000
   -2.4240    7.7770   -0.0630 C   0  0  0  0  0  0  0  0  0  0  0  0
   -3.0330    9.1820   -0.0450 C   0  0  2  0  0  0  0  0  0  0  0  0
   -4.5310    9.1710   -0.4120 C   0  0  0  0  0  0  0  0  0  0  0  0
   -5.1490    7.7700   -0.4300 C   0  0  0  0  0  0  0  0  0  0  0  0
   -5.8240    7.4790   -1.7360 C   0  0  2  0  0  0  0  0  0  0  0  0
   -6.7660    8.4740   -2.1590 O   0  0  0  0  0  0  0  0  0  0  0  0
   -7.3050    7.1750   -1.8640 C   0  0  0  0  0  0  0  0  0  0  0  0
   -8.2010    7.1460   -0.6650 C   0  0  0  0  0  0  0  0  0  0  0  0
   -7.7820    6.4310   -3.0720 C   0  0  0  0  0  0  0  0  0  0  0  0
   -2.2690   10.0920   -0.9990 C   0  0  1  0  0  0  0  0  0  0  0  0
   -2.9180   11.4960   -1.1330 C   0  0  0  0  0  0  0  0  0  0  0  0
   -1.7580   12.5090   -1.3110 C   0  0  0  0  0  0  0  0  0  0  0  0
   -0.5170   11.6340   -1.6050 C   0  0  1  0  0  0  0  0  0  0  0  0
   -0.6190   11.2920   -3.1250 C   0  0  0  0  0  0  0  0  0  0  0  0
    0.8700   12.2590   -1.2460 C   0  0  2  0  0  0  0  0  0  0  0  0
    1.2300   13.5380   -2.0210 C   0  0  0  0  0  0  0  0  0  0  0  0
    1.9730   13.3230   -3.2980 C   0  0  0  0  0  0  0  0  0  0  0  0
    2.5860   12.1810   -3.6630 C   0  0  0  0  0  0  0  0  0  0  0  0
    2.6510   10.9820   -2.7080 C   0  0  1  0  0  0  0  0  0  0  0  0
    4.0950   10.4160   -2.6860 C   0  0  0  0  0  0  0  0  0  0  0  0
    4.6140   10.0800   -4.0810 C   0  0  0  0  0  0  0  0  0  0  0  0
    4.5880   11.3110   -4.9840 C   0  0  2  0  0  0  0  0  0  0  0  0
    5.5380   12.2630   -4.4930 O   0  0  0  0  0  0  0  0  0  0  0  0
    3.1850   11.9730   -5.0760 C   0  0  0  0  0  0  0  0  0  0  0  0
    2.2290   11.0570   -5.8800 C   0  0  0  0  0  0  0  0  0  0  0  0
    3.3270   13.2810   -5.9010 C   0  0  0  0  0  0  0  0  0  0  0  0
    2.0680   11.2240   -1.2500 C   0  0  1  0  0  0  0  0  0  0  0  0
    3.1740   11.8200   -0.3270 C   0  0  0  0  0  0  0  0  0  0  0  0
    1.6640    9.8390   -0.6210 C   0  0  0  0  0  0  0  0  0  0  0  0
    0.2390    9.3320   -0.9150 C   0  0  0  0  0  0  0  0  0  0  0  0
   -0.7990   10.4250   -0.6410 C   0  0  2  0  0  0  0  0  0  0  0  0
   -0.7360   10.7740    0.8850 C   0  0  0  0  0  0  0  0  0  0  0  0
   -2.2733    7.4294    0.9697 H   0  0  0  0  0  0  0  0  0  0  0  0
   -3.1047    7.0890   -0.5858 H   0  0  0  0  0  0  0  0  0  0  0  0
   -1.4565    7.8034   -0.5858 H   0  0  0  0  0  0  0  0  0  0  0  0
   -2.9483    9.5660    0.9823 H   0  0  0  0  0  0  0  0  0  0  0  0
   -5.0739    9.7808    0.3252 H   0  0  0  0  0  0  0  0  0  0  0  0
   -4.6154    9.5732   -1.4323 H   0  0  0  0  0  0  0  0  0  0  0  0
   -4.3541    7.0275   -0.2663 H   0  0  0  0  0  0  0  0  0  0  0  0
   -5.9061    7.7188    0.3664 H   0  0  0  0  0  0  0  0  0  0  0  0
   -4.9292    6.9587   -2.1083 H   0  0  0  0  0  0  0  0  0  0  0  0
   -7.5903    7.1658    0.2497 H   0  0  0  0  0  0  0  0  0  0  0  0
   -8.8646    8.0231   -0.6818 H   0  0  0  0  0  0  0  0  0  0  0  0
   -8.8065    6.2278   -0.6818 H   0  0  0  0  0  0  0  0  0  0  0  0
   -8.3506    5.5441   -2.7556 H   0  0  0  0  0  0  0  0  0  0  0  0
   -8.4291    7.0858   -3.6741 H   0  0  0  0  0  0  0  0  0  0  0  0
   -6.9169    6.1163   -3.6741 H   0  0  0  0  0  0  0  0  0  0  0  0
   -2.3038    9.4755   -1.9093 H   0  0  0  0  0  0  0  0  0  0  0  0
   -3.5832   11.5240   -2.0086 H   0  0  0  0  0  0  0  0  0  0  0  0
   -3.5220   11.7385   -0.2462 H   0  0  0  0  0  0  0  0  0  0  0  0
   -1.9617   13.1888   -2.1515 H   0  0  0  0  0  0  0  0  0  0  0  0
   -1.6195   13.1444   -0.4238 H   0  0  0  0  0  0  0  0  0  0  0  0
   -0.9315   10.2442   -3.2449 H   0  0  0  0  0  0  0  0  0  0  0  0
   -1.3594   11.9521   -3.6005 H   0  0  0  0  0  0  0  0  0  0  0  0
    0.3620   11.4387   -3.6005 H   0  0  0  0  0  0  0  0  0  0  0  0
    0.7234   12.5739   -0.2023 H   0  0  0  0  0  0  0  0  0  0  0  0
    0.2948   14.0668   -2.2570 H   0  0  0  0  0  0  0  0  0  0  0  0
    1.9067   14.1087   -1.3680 H   0  0  0  0  0  0  0  0  0  0  0  0
    2.0239   14.1686   -3.9997 H   0  0  0  0  0  0  0  0  0  0  0  0
    1.9610   10.2294   -3.1173 H   0  0  0  0  0  0  0  0  0  0  0  0
    4.7606   11.1658   -2.2334 H   0  0  0  0  0  0  0  0  0  0  0  0
    4.0789    9.4836   -2.1026 H   0  0  0  0  0  0  0  0  0  0  0  0
    5.6481    9.7134   -4.0018 H   0  0  0  0  0  0  0  0  0  0  0  0
    3.9650    9.3083   -4.5206 H   0  0  0  0  0  0  0  0  0  0  0  0
    4.8462   10.9802   -6.0008 H   0  0  0  0  0  0  0  0  0  0  0  0
    6.4200   11.9720   -4.7800 H   0  0  0  0  0  0  0  0  0  0  0  0
    1.6140   10.4678   -5.1839 H   0  0  0  0  0  0  0  0  0  0  0  0
    1.5757   11.6749   -6.5135 H   0  0  0  0  0  0  0  0  0  0  0  0
    2.8184   10.3779   -6.5135 H   0  0  0  0  0  0  0  0  0  0  0  0
    3.4200   14.1376   -5.2171 H   0  0  0  0  0  0  0  0  0  0  0  0
    4.2237   13.2190   -6.5351 H   0  0  0  0  0  0  0  0  0  0  0  0
    2.4379   13.4129   -6.5351 H   0  0  0  0  0  0  0  0  0  0  0  0
    2.8936   11.6689    0.7259 H   0  0  0  0  0  0  0  0  0  0  0  0
    4.1305   11.3152   -0.5278 H   0  0  0  0  0  0  0  0  0  0  0  0
    3.2783   12.8965   -0.5278 H   0  0  0  0  0  0  0  0  0  0  0  0
    2.3701    9.0840   -0.9971 H   0  0  0  0  0  0  0  0  0  0  0  0
    1.6946    9.9970    0.4672 H   0  0  0  0  0  0  0  0  0  0  0  0
    0.1747    9.0313   -1.9711 H   0  0  0  0  0  0  0  0  0  0  0  0
    0.0287    8.4756   -0.2575 H   0  0  0  0  0  0  0  0  0  0  0  0
   -0.9007    9.8616    1.4769 H   0  0  0  0  0  0  0  0  0  0  0  0
    0.2523   11.1932    1.1248 H   0  0  0  0  0  0  0  0  0  0  0  0
   -1.5154   11.5123    1.1248 H   0  0  0  0  0  0  0  0  0  0  0  0
  1  2  1  0
  2  3  1  0
  3  4  1  0
  4  5  1  0
  5  6  1  0
  6  7  1  0
  7  8  1  0
  7  9  1  0
  2 10  1  0
 10 11  1  0
 11 12  1  0
 12 13  1  0
 13 14  1  6
 13 15  1  0
 15 16  1  0
 16 17  1  0
 17 18  2  0
 18 19  1  0
 19 20  1  0
 20 21  1  0
 21 22  1  0
 22 23  1  0
 22 24  1  0
 24 25  1  0
 24 26  1  0
 19 27  1  0
 27 28  1  1
 27 29  1  0
 29 30  1  0
 30 31  1  0
 31 32  1  1
  7  5  1  0
 31 10  1  0
 31 13  1  0
 27 15  1  0
 24 18  1  0
  1 33  1  0
  1 34  1  0
  1 35  1  0
  2 36  1  1
  3 37  1  0
  3 38  1  0
  4 39  1  0
  4 40  1  0
  5 41  1  6
  8 42  1  0
  8 43  1  0
  8 44  1  0
  9 45  1  0
  9 46  1  0
  9 47  1  0
 10 48  1  6
 11 49  1  0
 11 50  1  0
 12 51  1  0
 12 52  1  0
 14 53  1  0
 14 54  1  0
 14 55  1  0
 15 56  1  1
 16 57  1  0
 16 58  1  0
 17 59  1  0
 19 60  1  6
 20 61  1  0
 20 62  1  0
 21 63  1  0
 21 64  1  0
 22 65  1  6
 23 66  1  0
 25 67  1  0
 25 68  1  0
 25 69  1  0
 26 70  1  0
 26 71  1  0
 26 72  1  0
 28 73  1  0
 28 74  1  0
 28 75  1  0
 29 76  1  0
 29 77  1  0
 30 78  1  0
 30 79  1  0
 32 80  1  0
 32 81  1  0
 32 82  1  0
M  END
>  <meeko>  (20) 
{"is_sidechain": [false], "intermolecular_energy": 2.731, "internal_energy": -0.839}

$$$$
