EPH_relaxed_0001_pdb2pqr_Repair_349_r2_0001_out
     RDKit          3D

 82 86  0  0  0  0  0  0  0  0999 V2000
   -0.7710    8.0140   -1.9440 C   0  0  0  0  0  0  0  0  0  0  0  0
   -1.4770    8.6890   -0.7650 C   0  0  2  0  0  0  0  0  0  0  0  0
   -2.9510    9.0140   -1.0790 C   0  0  0  0  0  0  0  0  0  0  0  0
   -3.7270    7.8360   -1.6760 C   0  0  0  0  0  0  0  0  0  0  0  0
   -5.1720    7.8680   -1.2810 C   0  0  2  0  0  0  0  0  0  0  0  0
   -5.7110    6.6020   -0.8790 O   0  0  0  0  0  0  0  0  0  0  0  0
   -6.2700    7.1790   -2.0700 C   0  0  0  0  0  0  0  0  0  0  0  0
   -5.9690    6.4110   -3.3190 C   0  0  0  0  0  0  0  0  0  0  0  0
   -7.6790    7.6580   -1.9040 C   0  0  0  0  0  0  0  0  0  0  0  0
   -0.7350    9.9620   -0.3750 C   0  0  1  0  0  0  0  0  0  0  0  0
    0.3260    9.7200    0.7310 C   0  0  0  0  0  0  0  0  0  0  0  0
    1.5100   10.6760    0.4320 C   0  0  0  0  0  0  0  0  0  0  0  0
    0.9600   11.6600   -0.6260 C   0  0  1  0  0  0  0  0  0  0  0  0
    0.1500   12.7150    0.1900 C   0  0  0  0  0  0  0  0  0  0  0  0
    2.0180   12.3370   -1.5570 C   0  0  2  0  0  0  0  0  0  0  0  0
    3.0420   13.2320   -0.8370 C   0  0  0  0  0  0  0  0  0  0  0  0
    2.6530   14.6670   -0.7040 C   0  0  0  0  0  0  0  0  0  0  0  0
    1.6660   15.2770   -1.3880 C   0  0  0  0  0  0  0  0  0  0  0  0
    0.8870   14.5310   -2.4780 C   0  0  1  0  0  0  0  0  0  0  0  0
    0.7720   15.4290   -3.7380 C   0  0  0  0  0  0  0  0  0  0  0  0
    0.1750   16.7980   -3.4280 C   0  0  0  0  0  0  0  0  0  0  0  0
    1.0100   17.5330   -2.3820 C   0  0  2  0  0  0  0  0  0  0  0  0
    2.2870   17.8440   -2.9470 O   0  0  0  0  0  0  0  0  0  0  0  0
    1.2030   16.7200   -1.0710 C   0  0  0  0  0  0  0  0  0  0  0  0
   -0.1400   16.6420   -0.3040 C   0  0  0  0  0  0  0  0  0  0  0  0
    2.1790   17.5110   -0.1580 C   0  0  0  0  0  0  0  0  0  0  0  0
    1.4000   13.0660   -2.8180 C   0  0  1  0  0  0  0  0  0  0  0  0
    2.5300   13.1330   -3.8910 C   0  0  0  0  0  0  0  0  0  0  0  0
    0.2220   12.2460   -3.4650 C   0  0  0  0  0  0  0  0  0  0  0  0
   -0.7190   11.5010   -2.4990 C   0  0  0  0  0  0  0  0  0  0  0  0
    0.0790   10.6780   -1.4820 C   0  0  2  0  0  0  0  0  0  0  0  0
    0.8870    9.5930   -2.2730 C   0  0  0  0  0  0  0  0  0  0  0  0
   -0.0247    7.3005   -1.5647 H   0  0  0  0  0  0  0  0  0  0  0  0
   -1.5112    7.4791   -2.5572 H   0  0  0  0  0  0  0  0  0  0  0  0
   -0.2699    8.7775   -2.5572 H   0  0  0  0  0  0  0  0  0  0  0  0
   -1.4675    7.9801    0.0760 H   0  0  0  0  0  0  0  0  0  0  0  0
   -3.4461    9.3186   -0.1451 H   0  0  0  0  0  0  0  0  0  0  0  0
   -2.9503    9.8143   -1.8337 H   0  0  0  0  0  0  0  0  0  0  0  0
   -3.6560    7.8814   -2.7728 H   0  0  0  0  0  0  0  0  0  0  0  0
   -3.2865    6.9045   -1.2910 H   0  0  0  0  0  0  0  0  0  0  0  0
   -5.0698    8.8951   -0.9006 H   0  0  0  0  0  0  0  0  0  0  0  0
   -5.5795    5.4171   -3.0534 H   0  0  0  0  0  0  0  0  0  0  0  0
   -6.8894    6.2980   -3.9107 H   0  0  0  0  0  0  0  0  0  0  0  0
   -5.2169    6.9535   -3.9107 H   0  0  0  0  0  0  0  0  0  0  0  0
   -7.9152    7.7383   -0.8327 H   0  0  0  0  0  0  0  0  0  0  0  0
   -7.7894    8.6441   -2.3787 H   0  0  0  0  0  0  0  0  0  0  0  0
   -8.3675    6.9434   -2.3787 H   0  0  0  0  0  0  0  0  0  0  0  0
   -1.5879   10.5866   -0.0709 H   0  0  0  0  0  0  0  0  0  0  0  0
   -0.1004    9.9429    1.7202 H   0  0  0  0  0  0  0  0  0  0  0  0
    0.6573    8.6711    0.7378 H   0  0  0  0  0  0  0  0  0  0  0  0
    1.8137   11.2142    1.3420 H   0  0  0  0  0  0  0  0  0  0  0  0
    2.4012   10.1376    0.0772 H   0  0  0  0  0  0  0  0  0  0  0  0
    0.2899   12.5327    1.2657 H   0  0  0  0  0  0  0  0  0  0  0  0
    0.5069   13.7249   -0.0603 H   0  0  0  0  0  0  0  0  0  0  0  0
   -0.9179   12.6310   -0.0603 H   0  0  0  0  0  0  0  0  0  0  0  0
    2.5869   11.4744   -1.9341 H   0  0  0  0  0  0  0  0  0  0  0  0
    3.1962   12.8266    0.1739 H   0  0  0  0  0  0  0  0  0  0  0  0
    3.9484   13.2191   -1.4601 H   0  0  0  0  0  0  0  0  0  0  0  0
    3.2205   15.2780    0.0134 H   0  0  0  0  0  0  0  0  0  0  0  0
   -0.1132   14.3416   -2.0613 H   0  0  0  0  0  0  0  0  0  0  0  0
    1.7766   15.5705   -4.1631 H   0  0  0  0  0  0  0  0  0  0  0  0
    0.0996   14.9244   -4.4474 H   0  0  0  0  0  0  0  0  0  0  0  0
    0.1466   17.3958   -4.3510 H   0  0  0  0  0  0  0  0  0  0  0  0
   -0.8407   16.6563   -3.0303 H   0  0  0  0  0  0  0  0  0  0  0  0
    0.4639   18.4474   -2.1070 H   0  0  0  0  0  0  0  0  0  0  0  0
    2.8090   17.0230   -2.9650 H   0  0  0  0  0  0  0  0  0  0  0  0
    0.0548   16.6533    0.7786 H   0  0  0  0  0  0  0  0  0  0  0  0
   -0.7665   17.5053   -0.5729 H   0  0  0  0  0  0  0  0  0  0  0  0
   -0.6623   15.7120   -0.5729 H   0  0  0  0  0  0  0  0  0  0  0  0
    1.9358   17.3139    0.8965 H   0  0  0  0  0  0  0  0  0  0  0  0
    3.2118   17.1919   -0.3619 H   0  0  0  0  0  0  0  0  0  0  0  0
    2.0808   18.5875   -0.3619 H   0  0  0  0  0  0  0  0  0  0  0  0
    3.5079   13.1910   -3.3906 H   0  0  0  0  0  0  0  0  0  0  0  0
    2.4927   12.2311   -4.5196 H   0  0  0  0  0  0  0  0  0  0  0  0
    2.3864   14.0242   -4.5196 H   0  0  0  0  0  0  0  0  0  0  0  0
   -0.3900   12.9482   -4.0502 H   0  0  0  0  0  0  0  0  0  0  0  0
    0.7110   11.4573   -4.0556 H   0  0  0  0  0  0  0  0  0  0  0  0
   -1.3378   12.2348   -1.9619 H   0  0  0  0  0  0  0  0  0  0  0  0
   -1.3525   10.8177   -3.0836 H   0  0  0  0  0  0  0  0  0  0  0  0
    1.3887    8.9193   -1.5628 H   0  0  0  0  0  0  0  0  0  0  0  0
    0.1994    9.0126   -2.9057 H   0  0  0  0  0  0  0  0  0  0  0  0
    1.6401   10.0855   -2.9057 H   0  0  0  0  0  0  0  0  0  0  0  0
  1  2  1  0
  2  3  1  0
  3  4  1  0
  4  5  1  0
  5  6  1  0
  6  7  1  0
  7  8  1  0
  7  9  1  0
  2 10  1  0
 10 11  1  0
 11 12  1  0
 12 13  1  0
 13 14  1  1
 13 15  1  0
 15 16  1  0
 16 17  1  0
 17 18  2  0
 18 19  1  0
 19 20  1  0
 20 21  1  0
 21 22  1  0
 22 23  1  0
 22 24  1  0
 24 25  1  0
 24 26  1  0
 19 27  1  0
 27 28  1  6
 27 29  1  0
 29 30  1  0
 30 31  1  0
 31 32  1  6
  7  5  1  0
 31 10  1  0
 31 13  1  0
 27 15  1  0
 24 18  1  0
  1 33  1  0
  1 34  1  0
  1 35  1  0
  2 36  1  1
  3 37  1  0
  3 38  1  0
  4 39  1  0
  4 40  1  0
  5 41  1  1
  8 42  1  0
  8 43  1  0
  8 44  1  0
  9 45  1  0
  9 46  1  0
  9 47  1  0
 10 48  1  1
 11 49  1  0
 11 50  1  0
 12 51  1  0
 12 52  1  0
 14 53  1  0
 14 54  1  0
 14 55  1  0
 15 56  1  6
 16 57  1  0
 16 58  1  0
 17 59  1  0
 19 60  1  1
 20 61  1  0
 20 62  1  0
 21 63  1  0
 21 64  1  0
 22 65  1  1
 23 66  1  0
 25 67  1  0
 25 68  1  0
 25 69  1  0
 26 70  1  0
 26 71  1  0
 26 72  1  0
 28 73  1  0
 28 74  1  0
 28 75  1  0
 29 76  1  0
 29 77  1  0
 30 78  1  0
 30 79  1  0
 32 80  1  0
 32 81  1  0
 32 82  1  0
M  END
>  <meeko>  (1) 
{"is_sidechain": [false], "intermolecular_energy": 2.731, "internal_energy": -0.839}

$$$$
EPH_relaxed_0001_pdb2pqr_Repair_349_r2_0001_out
     RDKit          3D

 82 86  0  0  0  0  0  0  0  0999 V2000
    2.2850   19.8630   -0.8700 C   0  0  0  0  0  0  0  0  0  0  0  0
    2.0910   18.9180    0.3200 C   0  0  2  0  0  0  0  0  0  0  0  0
    3.4340   18.4610    0.9230 C   0  0  0  0  0  0  0  0  0  0  0  0
    3.7430   19.0900    2.2850 C   0  0  0  0  0  0  0  0  0  0  0  0
    5.2180   19.1590    2.5410 C   0  0  2  0  0  0  0  0  0  0  0  0
    5.7380   18.0860    3.3380 O   0  0  0  0  0  0  0  0  0  0  0  0
    5.8180   19.4000    3.9140 C   0  0  0  0  0  0  0  0  0  0  0  0
    4.9540   19.5890    5.1210 C   0  0  0  0  0  0  0  0  0  0  0  0
    7.2130   19.9360    4.0010 C   0  0  0  0  0  0  0  0  0  0  0  0
    1.2720   17.7060   -0.1070 C   0  0  1  0  0  0  0  0  0  0  0  0
    0.1280   18.0730   -1.0900 C   0  0  0  0  0  0  0  0  0  0  0  0
   -0.0140   16.8850   -2.0750 C   0  0  0  0  0  0  0  0  0  0  0  0
    0.8120   15.7450   -1.4340 C   0  0  1  0  0  0  0  0  0  0  0  0
   -0.1290   15.1260   -0.3550 C   0  0  0  0  0  0  0  0  0  0  0  0
    1.3640   14.6570   -2.4120 C   0  0  2  0  0  0  0  0  0  0  0  0
    0.2900   13.8490   -3.1610 C   0  0  0  0  0  0  0  0  0  0  0  0
   -0.1620   12.6020   -2.4760 C   0  0  0  0  0  0  0  0  0  0  0  0
    0.4700   11.9980   -1.4530 C   0  0  0  0  0  0  0  0  0  0  0  0
    1.8220   12.5170   -0.9460 C   0  0  1  0  0  0  0  0  0  0  0  0
    2.7990   11.3260   -0.7650 C   0  0  0  0  0  0  0  0  0  0  0  0
    2.2250   10.2280    0.1250 C   0  0  0  0  0  0  0  0  0  0  0  0
    0.9110    9.6970   -0.4430 C   0  0  2  0  0  0  0  0  0  0  0  0
    1.1810    9.0230   -1.6760 O   0  0  0  0  0  0  0  0  0  0  0  0
   -0.1490   10.8090   -0.6770 C   0  0  0  0  0  0  0  0  0  0  0  0
   -0.6630   11.3340    0.6860 C   0  0  0  0  0  0  0  0  0  0  0  0
   -1.3720   10.1630   -1.3830 C   0  0  0  0  0  0  0  0  0  0  0  0
    2.4620   13.7110   -1.7770 C   0  0  1  0  0  0  0  0  0  0  0  0
    3.3010   13.1440   -2.9620 C   0  0  0  0  0  0  0  0  0  0  0  0
    3.4680   14.4970   -0.8560 C   0  0  0  0  0  0  0  0  0  0  0  0
    2.8830   15.6390   -0.0030 C   0  0  0  0  0  0  0  0  0  0  0  0
    2.0180   16.5720   -0.8550 C   0  0  2  0  0  0  0  0  0  0  0  0
    2.9430   17.2270   -1.9370 C   0  0  0  0  0  0  0  0  0  0  0  0
    2.4934   20.8783   -0.5017 H   0  0  0  0  0  0  0  0  0  0  0  0
    3.1302   19.5140   -1.4814 H   0  0  0  0  0  0  0  0  0  0  0  0
    1.3706   19.8752   -1.4814 H   0  0  0  0  0  0  0  0  0  0  0  0
    1.5514   19.4747    1.1004 H   0  0  0  0  0  0  0  0  0  0  0  0
    3.4066   17.3680    1.0434 H   0  0  0  0  0  0  0  0  0  0  0  0
    4.2247   18.7873    0.2313 H   0  0  0  0  0  0  0  0  0  0  0  0
    3.3287   20.1087    2.3096 H   0  0  0  0  0  0  0  0  0  0  0  0
    3.2884   18.4611    3.0646 H   0  0  0  0  0  0  0  0  0  0  0  0
    5.3890   19.6393    1.5663 H   0  0  0  0  0  0  0  0  0  0  0  0
    5.5595   19.4565    6.0297 H   0  0  0  0  0  0  0  0  0  0  0  0
    4.5256   20.6021    5.1103 H   0  0  0  0  0  0  0  0  0  0  0  0
    4.1417   18.8473    5.1103 H   0  0  0  0  0  0  0  0  0  0  0  0
    7.4984   20.0457    5.0576 H   0  0  0  0  0  0  0  0  0  0  0  0
    7.9050   19.2397    3.5046 H   0  0  0  0  0  0  0  0  0  0  0  0
    7.2607   20.9165    3.5046 H   0  0  0  0  0  0  0  0  0  0  0  0
    0.9392   17.3516    0.8797 H   0  0  0  0  0  0  0  0  0  0  0  0
   -0.8120   18.2221   -0.5385 H   0  0  0  0  0  0  0  0  0  0  0  0
    0.3531   19.0063   -1.6269 H   0  0  0  0  0  0  0  0  0  0  0  0
   -1.0687   16.5898   -2.1778 H   0  0  0  0  0  0  0  0  0  0  0  0
    0.3382   17.1374   -3.0861 H   0  0  0  0  0  0  0  0  0  0  0  0
    0.2492   15.3748    0.6475 H   0  0  0  0  0  0  0  0  0  0  0  0
   -1.1435   15.5337   -0.4758 H   0  0  0  0  0  0  0  0  0  0  0  0
   -0.1563   14.0330   -0.4758 H   0  0  0  0  0  0  0  0  0  0  0  0
    1.8705   15.2628   -3.1778 H   0  0  0  0  0  0  0  0  0  0  0  0
   -0.5875   14.4974   -3.3007 H   0  0  0  0  0  0  0  0  0  0  0  0
    0.7541   13.5270   -4.1049 H   0  0  0  0  0  0  0  0  0  0  0  0
   -1.0908   12.1373   -2.8384 H   0  0  0  0  0  0  0  0  0  0  0  0
    1.6216   12.9864    0.0284 H   0  0  0  0  0  0  0  0  0  0  0  0
    3.0206   10.8984   -1.7540 H   0  0  0  0  0  0  0  0  0  0  0  0
    3.7069   11.7104   -0.2772 H   0  0  0  0  0  0  0  0  0  0  0  0
    2.9488    9.4023    0.1903 H   0  0  0  0  0  0  0  0  0  0  0  0
    2.0317   10.6495    1.1225 H   0  0  0  0  0  0  0  0  0  0  0  0
    0.4842    9.0085    0.3012 H   0  0  0  0  0  0  0  0  0  0  0  0
    0.4110    9.1500   -2.2560 H   0  0  0  0  0  0  0  0  0  0  0  0
   -0.1461   10.8060    1.5009 H   0  0  0  0  0  0  0  0  0  0  0  0
   -0.4623   12.4128    0.7627 H   0  0  0  0  0  0  0  0  0  0  0  0
   -1.7458   11.1562    0.7627 H   0  0  0  0  0  0  0  0  0  0  0  0
   -2.0777    9.7903   -0.6260 H   0  0  0  0  0  0  0  0  0  0  0  0
   -1.8718   10.9147   -2.0116 H   0  0  0  0  0  0  0  0  0  0  0  0
   -1.0328    9.3264   -2.0116 H   0  0  0  0  0  0  0  0  0  0  0  0
    4.1516   12.5692   -2.5670 H   0  0  0  0  0  0  0  0  0  0  0  0
    2.6688   12.4872   -3.5776 H   0  0  0  0  0  0  0  0  0  0  0  0
    3.6746   13.9755   -3.5776 H   0  0  0  0  0  0  0  0  0  0  0  0
    3.9274   13.7707   -0.1694 H   0  0  0  0  0  0  0  0  0  0  0  0
    4.1698   14.9855   -1.5480 H   0  0  0  0  0  0  0  0  0  0  0  0
    2.2656   15.2089    0.7994 H   0  0  0  0  0  0  0  0  0  0  0  0
    3.7144   16.2214    0.4209 H   0  0  0  0  0  0  0  0  0  0  0  0
    3.7439   17.7941   -1.4400 H   0  0  0  0  0  0  0  0  0  0  0  0
    3.3863   16.4404   -2.5653 H   0  0  0  0  0  0  0  0  0  0  0  0
    2.3482   17.9063   -2.5653 H   0  0  0  0  0  0  0  0  0  0  0  0
  1  2  1  0
  2  3  1  0
  3  4  1  0
  4  5  1  0
  5  6  1  0
  6  7  1  0
  7  8  1  0
  7  9  1  0
  2 10  1  0
 10 11  1  0
 11 12  1  0
 12 13  1  0
 13 14  1  1
 13 15  1  0
 15 16  1  0
 16 17  1  0
 17 18  2  0
 18 19  1  0
 19 20  1  0
 20 21  1  0
 21 22  1  0
 22 23  1  0
 22 24  1  0
 24 25  1  0
 24 26  1  0
 19 27  1  0
 27 28  1  6
 27 29  1  0
 29 30  1  0
 30 31  1  0
 31 32  1  6
  7  5  1  0
 31 10  1  0
 31 13  1  0
 27 15  1  0
 24 18  1  0
  1 33  1  0
  1 34  1  0
  1 35  1  0
  2 36  1  1
  3 37  1  0
  3 38  1  0
  4 39  1  0
  4 40  1  0
  5 41  1  6
  8 42  1  0
  8 43  1  0
  8 44  1  0
  9 45  1  0
  9 46  1  0
  9 47  1  0
 10 48  1  1
 11 49  1  0
 11 50  1  0
 12 51  1  0
 12 52  1  0
 14 53  1  0
 14 54  1  0
 14 55  1  0
 15 56  1  6
 16 57  1  0
 16 58  1  0
 17 59  1  0
 19 60  1  1
 20 61  1  0
 20 62  1  0
 21 63  1  0
 21 64  1  0
 22 65  1  1
 23 66  1  0
 25 67  1  0
 25 68  1  0
 25 69  1  0
 26 70  1  0
 26 71  1  0
 26 72  1  0
 28 73  1  0
 28 74  1  0
 28 75  1  0
 29 76  1  0
 29 77  1  0
 30 78  1  0
 30 79  1  0
 32 80  1  0
 32 81  1  0
 32 82  1  0
M  END
>  <meeko>  (2) 
{"is_sidechain": [false], "intermolecular_energy": 2.731, "internal_energy": -0.839}

$$$$
EPH_relaxed_0001_pdb2pqr_Repair_349_r2_0001_out
     RDKit          3D

 82 86  0  0  0  0  0  0  0  0999 V2000
    0.2480   18.3200   -0.0200 C   0  0  0  0  0  0  0  0  0  0  0  0
    1.4210   17.3680   -0.2710 C   0  0  2  0  0  0  0  0  0  0  0  0
    2.5870   18.0630   -1.0020 C   0  0  0  0  0  0  0  0  0  0  0  0
    3.8110   18.3080   -0.1160 C   0  0  0  0  0  0  0  0  0  0  0  0
    3.4220   18.8160    1.2390 C   0  0  2  0  0  0  0  0  0  0  0  0
    3.7380   20.1940    1.4750 O   0  0  0  0  0  0  0  0  0  0  0  0
    4.4260   19.2370    2.2960 C   0  0  0  0  0  0  0  0  0  0  0  0
    5.9000   19.1670    2.0430 C   0  0  0  0  0  0  0  0  0  0  0  0
    3.9940   19.2500    3.7290 C   0  0  0  0  0  0  0  0  0  0  0  0
    0.9480   16.1610   -1.0730 C   0  0  1  0  0  0  0  0  0  0  0  0
    1.0010   16.4040   -2.6050 C   0  0  0  0  0  0  0  0  0  0  0  0
    1.3810   15.0510   -3.2600 C   0  0  0  0  0  0  0  0  0  0  0  0
    1.2110   14.0090   -2.1290 C   0  0  1  0  0  0  0  0  0  0  0  0
   -0.3200   13.7050   -2.0930 C   0  0  0  0  0  0  0  0  0  0  0  0
    2.0560   12.7010   -2.2620 C   0  0  2  0  0  0  0  0  0  0  0  0
    1.7380   11.8410   -3.4970 C   0  0  0  0  0  0  0  0  0  0  0  0
    0.6830   10.8040   -3.2980 C   0  0  0  0  0  0  0  0  0  0  0  0
    0.2190   10.3800   -2.1080 C   0  0  0  0  0  0  0  0  0  0  0  0
    0.8340   10.8850   -0.7970 C   0  0  1  0  0  0  0  0  0  0  0  0
    1.0870    9.6850    0.1530 C   0  0  0  0  0  0  0  0  0  0  0  0
   -0.1660    8.8460    0.3820 C   0  0  0  0  0  0  0  0  0  0  0  0
   -0.7140    8.3130   -0.9390 C   0  0  2  0  0  0  0  0  0  0  0  0
    0.2210    7.3770   -1.4830 O   0  0  0  0  0  0  0  0  0  0  0  0
   -0.9990    9.4310   -1.9800 C   0  0  0  0  0  0  0  0  0  0  0  0
   -2.2210   10.2680   -1.5250 C   0  0  0  0  0  0  0  0  0  0  0  0
   -1.4120    8.7500   -3.3120 C   0  0  0  0  0  0  0  0  0  0  0  0
    2.1060   11.8250   -0.9450 C   0  0  1  0  0  0  0  0  0  0  0  0
    3.4000   10.9590   -1.0350 C   0  0  0  0  0  0  0  0  0  0  0  0
    2.2500   12.7050    0.3530 C   0  0  0  0  0  0  0  0  0  0  0  0
    1.4850   14.0420    0.3750 C   0  0  0  0  0  0  0  0  0  0  0  0
    1.7420   14.8410   -0.9060 C   0  0  2  0  0  0  0  0  0  0  0  0
    3.2710   15.1820   -0.9590 C   0  0  0  0  0  0  0  0  0  0  0  0
    0.0991   18.4408    1.0632 H   0  0  0  0  0  0  0  0  0  0  0  0
    0.4671   19.2989   -0.4714 H   0  0  0  0  0  0  0  0  0  0  0  0
   -0.6648   17.9041   -0.4714 H   0  0  0  0  0  0  0  0  0  0  0  0
    1.7960   17.0390    0.7094 H   0  0  0  0  0  0  0  0  0  0  0  0
    2.8923   17.4305   -1.8486 H   0  0  0  0  0  0  0  0  0  0  0  0
    2.2216   19.0491   -1.3247 H   0  0  0  0  0  0  0  0  0  0  0  0
    4.3605   17.3624    0.0021 H   0  0  0  0  0  0  0  0  0  0  0  0
    4.4381   19.0706   -0.6010 H   0  0  0  0  0  0  0  0  0  0  0  0
    2.5584   18.1354    1.2715 H   0  0  0  0  0  0  0  0  0  0  0  0
    6.4360   19.1415    3.0032 H   0  0  0  0  0  0  0  0  0  0  0  0
    6.1309   18.2569    1.4700 H   0  0  0  0  0  0  0  0  0  0  0  0
    6.2161   20.0511    1.4700 H   0  0  0  0  0  0  0  0  0  0  0  0
    4.8806   19.2233    4.3795 H   0  0  0  0  0  0  0  0  0  0  0  0
    3.4190   20.1659    3.9303 H   0  0  0  0  0  0  0  0  0  0  0  0
    3.3649   18.3704    3.9303 H   0  0  0  0  0  0  0  0  0  0  0  0
   -0.0635   16.0472   -0.6561 H   0  0  0  0  0  0  0  0  0  0  0  0
    0.0186   16.7386   -2.9696 H   0  0  0  0  0  0  0  0  0  0  0  0
    1.7349   17.1840   -2.8559 H   0  0  0  0  0  0  0  0  0  0  0  0
    0.7092   14.8244   -4.1011 H   0  0  0  0  0  0  0  0  0  0  0  0
    2.4014   15.0582   -3.6709 H   0  0  0  0  0  0  0  0  0  0  0  0
   -0.6561   13.6383   -1.0477 H   0  0  0  0  0  0  0  0  0  0  0  0
   -0.8662   14.5122   -2.6030 H   0  0  0  0  0  0  0  0  0  0  0  0
   -0.5164   12.7503   -2.6030 H   0  0  0  0  0  0  0  0  0  0  0  0
    3.0712   13.0921   -2.4243 H   0  0  0  0  0  0  0  0  0  0  0  0
    1.4065   12.5127   -4.3026 H   0  0  0  0  0  0  0  0  0  0  0  0
    2.6624   11.2931   -3.7322 H   0  0  0  0  0  0  0  0  0  0  0  0
    0.2483   10.3481   -4.1997 H   0  0  0  0  0  0  0  0  0  0  0  0
    0.0890   11.5615   -0.3528 H   0  0  0  0  0  0  0  0  0  0  0  0
    1.8648    9.0441   -0.2879 H   0  0  0  0  0  0  0  0  0  0  0  0
    1.4001   10.0901    1.1266 H   0  0  0  0  0  0  0  0  0  0  0  0
    0.0832    7.9980    1.0368 H   0  0  0  0  0  0  0  0  0  0  0  0
   -0.9330    9.4806    0.8500 H   0  0  0  0  0  0  0  0  0  0  0  0
   -1.6791    7.8308   -0.7241 H   0  0  0  0  0  0  0  0  0  0  0  0
    1.0680    7.8400   -1.5970 H   0  0  0  0  0  0  0  0  0  0  0  0
   -2.2589   10.2940   -0.4260 H   0  0  0  0  0  0  0  0  0  0  0  0
   -2.1283   11.2931   -1.9130 H   0  0  0  0  0  0  0  0  0  0  0  0
   -3.1433    9.8111   -1.9130 H   0  0  0  0  0  0  0  0  0  0  0  0
   -1.9711    7.8280   -3.0945 H   0  0  0  0  0  0  0  0  0  0  0  0
   -2.0467    9.4354   -3.8928 H   0  0  0  0  0  0  0  0  0  0  0  0
   -0.5108    8.5039   -3.8928 H   0  0  0  0  0  0  0  0  0  0  0  0
    3.7539   10.7221   -0.0208 H   0  0  0  0  0  0  0  0  0  0  0  0
    3.1798   10.0256   -1.5738 H   0  0  0  0  0  0  0  0  0  0  0  0
    4.1789   11.5185   -1.5738 H   0  0  0  0  0  0  0  0  0  0  0  0
    1.8945   12.1044    1.2032 H   0  0  0  0  0  0  0  0  0  0  0  0
    3.3138   12.9817    0.3962 H   0  0  0  0  0  0  0  0  0  0  0  0
    0.4075   13.8388    0.4624 H   0  0  0  0  0  0  0  0  0  0  0  0
    1.8359   14.6331    1.2337 H   0  0  0  0  0  0  0  0  0  0  0  0
    3.6629   15.2694    0.0651 H   0  0  0  0  0  0  0  0  0  0  0  0
    3.8071   14.3813   -1.4896 H   0  0  0  0  0  0  0  0  0  0  0  0
    3.4161   16.1346   -1.4896 H   0  0  0  0  0  0  0  0  0  0  0  0
  1  2  1  0
  2  3  1  0
  3  4  1  0
  4  5  1  0
  5  6  1  0
  6  7  1  0
  7  8  1  0
  7  9  1  0
  2 10  1  0
 10 11  1  0
 11 12  1  0
 12 13  1  0
 13 14  1  1
 13 15  1  0
 15 16  1  0
 16 17  1  0
 17 18  2  0
 18 19  1  0
 19 20  1  0
 20 21  1  0
 21 22  1  0
 22 23  1  0
 22 24  1  0
 24 25  1  0
 24 26  1  0
 19 27  1  0
 27 28  1  6
 27 29  1  0
 29 30  1  0
 30 31  1  0
 31 32  1  6
  7  5  1  0
 31 10  1  0
 31 13  1  0
 27 15  1  0
 24 18  1  0
  1 33  1  0
  1 34  1  0
  1 35  1  0
  2 36  1  1
  3 37  1  0
  3 38  1  0
  4 39  1  0
  4 40  1  0
  5 41  1  1
  8 42  1  0
  8 43  1  0
  8 44  1  0
  9 45  1  0
  9 46  1  0
  9 47  1  0
 10 48  1  1
 11 49  1  0
 11 50  1  0
 12 51  1  0
 12 52  1  0
 14 53  1  0
 14 54  1  0
 14 55  1  0
 15 56  1  6
 16 57  1  0
 16 58  1  0
 17 59  1  0
 19 60  1  1
 20 61  1  0
 20 62  1  0
 21 63  1  0
 21 64  1  0
 22 65  1  1
 23 66  1  0
 25 67  1  0
 25 68  1  0
 25 69  1  0
 26 70  1  0
 26 71  1  0
 26 72  1  0
 28 73  1  0
 28 74  1  0
 28 75  1  0
 29 76  1  0
 29 77  1  0
 30 78  1  0
 30 79  1  0
 32 80  1  0
 32 81  1  0
 32 82  1  0
M  END
>  <meeko>  (3) 
{"is_sidechain": [false], "intermolecular_energy": 2.731, "internal_energy": -0.839}

$$$$
EPH_relaxed_0001_pdb2pqr_Repair_349_r2_0001_out
     RDKit          3D

 82 86  0  0  0  0  0  0  0  0999 V2000
    2.3190   17.9550   -2.6430 C   0  0  0  0  0  0  0  0  0  0  0  0
    1.0120   17.5260   -1.9690 C   0  0  2  0  0  0  0  0  0  0  0  0
    1.1130   17.5630   -0.4310 C   0  0  0  0  0  0  0  0  0  0  0  0
    0.8410   18.9450    0.1700 C   0  0  0  0  0  0  0  0  0  0  0  0
   -0.5910   19.0960    0.5880 C   0  0  2  0  0  0  0  0  0  0  0  0
   -1.5060   18.2180   -0.0810 O   0  0  0  0  0  0  0  0  0  0  0  0
   -1.6790   19.6220   -0.3290 C   0  0  0  0  0  0  0  0  0  0  0  0
   -1.3820   20.0340   -1.7370 C   0  0  0  0  0  0  0  0  0  0  0  0
   -2.9180   20.1940    0.2870 C   0  0  0  0  0  0  0  0  0  0  0  0
    0.6250   16.1260   -2.4310 C   0  0  1  0  0  0  0  0  0  0  0  0
    0.7860   15.9370   -3.9630 C   0  0  0  0  0  0  0  0  0  0  0  0
    1.2420   14.4720   -4.1880 C   0  0  0  0  0  0  0  0  0  0  0  0
    1.0080   13.7780   -2.8260 C   0  0  1  0  0  0  0  0  0  0  0  0
   -0.5140   13.4340   -2.8060 C   0  0  0  0  0  0  0  0  0  0  0  0
    1.8880   12.5190   -2.5320 C   0  0  2  0  0  0  0  0  0  0  0  0
    1.6800   11.3380   -3.4960 C   0  0  0  0  0  0  0  0  0  0  0  0
    0.6330   10.3560   -3.0850 C   0  0  0  0  0  0  0  0  0  0  0  0
    0.0910   10.2590   -1.8570 C   0  0  0  0  0  0  0  0  0  0  0  0
    0.5960   11.1330   -0.7010 C   0  0  1  0  0  0  0  0  0  0  0  0
    0.8030   10.2540    0.5600 C   0  0  0  0  0  0  0  0  0  0  0  0
   -0.4470    9.4610    0.9310 C   0  0  0  0  0  0  0  0  0  0  0  0
   -0.8850    8.5610   -0.2220 C   0  0  2  0  0  0  0  0  0  0  0  0
    0.1070    7.5500   -0.4190 O   0  0  0  0  0  0  0  0  0  0  0  0
   -1.1140    9.3360   -1.5500 C   0  0  0  0  0  0  0  0  0  0  0  0
   -2.3820   10.2160   -1.4270 C   0  0  0  0  0  0  0  0  0  0  0  0
   -1.4130    8.2960   -2.6630 C   0  0  0  0  0  0  0  0  0  0  0  0
    1.8580   12.0450   -1.0230 C   0  0  1  0  0  0  0  0  0  0  0  0
    3.1710   11.2400   -0.7820 C   0  0  0  0  0  0  0  0  0  0  0  0
    1.8870   13.2540   -0.0150 C   0  0  0  0  0  0  0  0  0  0  0  0
    1.0960   14.5140   -0.4170 C   0  0  0  0  0  0  0  0  0  0  0  0
    1.4310   14.9370   -1.8510 C   0  0  2  0  0  0  0  0  0  0  0  0
    2.9520   15.3100   -1.8970 C   0  0  0  0  0  0  0  0  0  0  0  0
    3.0654   18.2000   -1.8730 H   0  0  0  0  0  0  0  0  0  0  0  0
    2.6952   17.1332   -3.2700 H   0  0  0  0  0  0  0  0  0  0  0  0
    2.1350   18.8399   -3.2700 H   0  0  0  0  0  0  0  0  0  0  0  0
    0.2343   18.2448   -2.2667 H   0  0  0  0  0  0  0  0  0  0  0  0
    0.3805   16.8541   -0.0176 H   0  0  0  0  0  0  0  0  0  0  0  0
    2.1478   17.2966   -0.1700 H   0  0  0  0  0  0  0  0  0  0  0  0
    1.4858   19.0841    1.0502 H   0  0  0  0  0  0  0  0  0  0  0  0
    1.0552   19.7016   -0.5992 H   0  0  0  0  0  0  0  0  0  0  0  0
   -0.2883   19.3730    1.6086 H   0  0  0  0  0  0  0  0  0  0  0  0
   -0.7388   20.9263   -1.7300 H   0  0  0  0  0  0  0  0  0  0  0  0
   -0.8659   19.2140   -2.2579 H   0  0  0  0  0  0  0  0  0  0  0  0
   -2.3231   20.2644   -2.2579 H   0  0  0  0  0  0  0  0  0  0  0  0
   -2.8340   20.1552    1.3831 H   0  0  0  0  0  0  0  0  0  0  0  0
   -3.0387   21.2389   -0.0348 H   0  0  0  0  0  0  0  0  0  0  0  0
   -3.7916   19.6081   -0.0348 H   0  0  0  0  0  0  0  0  0  0  0  0
   -0.4119   16.0915   -2.0653 H   0  0  0  0  0  0  0  0  0  0  0  0
   -0.1736   16.1170   -4.4697 H   0  0  0  0  0  0  0  0  0  0  0  0
    1.5198   16.6463   -4.3733 H   0  0  0  0  0  0  0  0  0  0  0  0
    0.6406   13.9946   -4.9757 H   0  0  0  0  0  0  0  0  0  0  0  0
    2.2901   14.4066   -4.5153 H   0  0  0  0  0  0  0  0  0  0  0  0
   -0.8586   13.3561   -1.7643 H   0  0  0  0  0  0  0  0  0  0  0  0
   -1.0761   14.2278   -3.3198 H   0  0  0  0  0  0  0  0  0  0  0  0
   -0.6801   12.4757   -3.3198 H   0  0  0  0  0  0  0  0  0  0  0  0
    2.9043   12.8907   -2.7296 H   0  0  0  0  0  0  0  0  0  0  0  0
    1.3967   11.7462   -4.4774 H   0  0  0  0  0  0  0  0  0  0  0  0
    2.6298   10.7833   -3.5071 H   0  0  0  0  0  0  0  0  0  0  0  0
    0.2744    9.6523   -3.8507 H   0  0  0  0  0  0  0  0  0  0  0  0
   -0.1934   11.8756   -0.5126 H   0  0  0  0  0  0  0  0  0  0  0  0
    1.6243    9.5481    0.3671 H   0  0  0  0  0  0  0  0  0  0  0  0
    1.0352   10.9245    1.4005 H   0  0  0  0  0  0  0  0  0  0  0  0
   -0.2300    8.8382    1.8113 H   0  0  0  0  0  0  0  0  0  0  0  0
   -1.2593   10.1692    1.1514 H   0  0  0  0  0  0  0  0  0  0  0  0
   -1.8535    8.1181    0.0533 H   0  0  0  0  0  0  0  0  0  0  0  0
   -0.1770    6.7590    0.0700 H   0  0  0  0  0  0  0  0  0  0  0  0
   -2.6146   10.3774   -0.3641 H   0  0  0  0  0  0  0  0  0  0  0  0
   -2.2040   11.1857   -1.9148 H   0  0  0  0  0  0  0  0  0  0  0  0
   -3.2282    9.7100   -1.9148 H   0  0  0  0  0  0  0  0  0  0  0  0
   -1.6891    7.3357   -2.2029 H   0  0  0  0  0  0  0  0  0  0  0  0
   -2.2441    8.6558   -3.2874 H   0  0  0  0  0  0  0  0  0  0  0  0
   -0.5177    8.1595   -3.2874 H   0  0  0  0  0  0  0  0  0  0  0  0
    3.3431   11.1345    0.2993 H   0  0  0  0  0  0  0  0  0  0  0  0
    3.0787   10.2431   -1.2376 H   0  0  0  0  0  0  0  0  0  0  0  0
    4.0176   11.7744   -1.2376 H   0  0  0  0  0  0  0  0  0  0  0  0
    1.4808   12.8979    0.9433 H   0  0  0  0  0  0  0  0  0  0  0  0
    2.9389   13.5739    0.0200 H   0  0  0  0  0  0  0  0  0  0  0  0
    0.0192   14.3005   -0.3470 H   0  0  0  0  0  0  0  0  0  0  0  0
    1.3710   15.3331    0.2638 H   0  0  0  0  0  0  0  0  0  0  0  0
    3.3375   15.4045   -0.8711 H   0  0  0  0  0  0  0  0  0  0  0  0
    3.5071   14.5214   -2.4261 H   0  0  0  0  0  0  0  0  0  0  0  0
    3.0793   16.2660   -2.4261 H   0  0  0  0  0  0  0  0  0  0  0  0
  1  2  1  0
  2  3  1  0
  3  4  1  0
  4  5  1  0
  5  6  1  0
  6  7  1  0
  7  8  1  0
  7  9  1  0
  2 10  1  0
 10 11  1  0
 11 12  1  0
 12 13  1  0
 13 14  1  1
 13 15  1  0
 15 16  1  0
 16 17  1  0
 17 18  2  0
 18 19  1  0
 19 20  1  0
 20 21  1  0
 21 22  1  0
 22 23  1  0
 22 24  1  0
 24 25  1  0
 24 26  1  0
 19 27  1  0
 27 28  1  1
 27 29  1  0
 29 30  1  0
 30 31  1  0
 31 32  1  1
  7  5  1  0
 31 10  1  0
 31 13  1  0
 27 15  1  0
 24 18  1  0
  1 33  1  0
  1 34  1  0
  1 35  1  0
  2 36  1  6
  3 37  1  0
  3 38  1  0
  4 39  1  0
  4 40  1  0
  5 41  1  1
  8 42  1  0
  8 43  1  0
  8 44  1  0
  9 45  1  0
  9 46  1  0
  9 47  1  0
 10 48  1  6
 11 49  1  0
 11 50  1  0
 12 51  1  0
 12 52  1  0
 14 53  1  0
 14 54  1  0
 14 55  1  0
 15 56  1  6
 16 57  1  0
 16 58  1  0
 17 59  1  0
 19 60  1  1
 20 61  1  0
 20 62  1  0
 21 63  1  0
 21 64  1  0
 22 65  1  1
 23 66  1  0
 25 67  1  0
 25 68  1  0
 25 69  1  0
 26 70  1  0
 26 71  1  0
 26 72  1  0
 28 73  1  0
 28 74  1  0
 28 75  1  0
 29 76  1  0
 29 77  1  0
 30 78  1  0
 30 79  1  0
 32 80  1  0
 32 81  1  0
 32 82  1  0
M  END
>  <meeko>  (4) 
{"is_sidechain": [false], "intermolecular_energy": 2.731, "internal_energy": -0.839}

$$$$
EPH_relaxed_0001_pdb2pqr_Repair_349_r2_0001_out
     RDKit          3D

 82 86  0  0  0  0  0  0  0  0999 V2000
    2.6830   19.2410   -0.9770 C   0  0  0  0  0  0  0  0  0  0  0  0
    2.4740   18.2430   -2.1190 C   0  0  2  0  0  0  0  0  0  0  0  0
    1.0540   18.3300   -2.7140 C   0  0  0  0  0  0  0  0  0  0  0  0
    0.2500   19.5340   -2.2130 C   0  0  0  0  0  0  0  0  0  0  0  0
   -1.0510   19.1140   -1.5980 C   0  0  2  0  0  0  0  0  0  0  0  0
   -1.9360   20.1940   -1.2750 O   0  0  0  0  0  0  0  0  0  0  0  0
   -1.4390   19.4290   -0.1660 C   0  0  0  0  0  0  0  0  0  0  0  0
   -0.5250   20.1940    0.7400 C   0  0  0  0  0  0  0  0  0  0  0  0
   -2.4800   18.5810    0.4970 C   0  0  0  0  0  0  0  0  0  0  0  0
    2.7460   16.8260   -1.6270 C   0  0  1  0  0  0  0  0  0  0  0  0
    3.6160   16.7960   -0.3420 C   0  0  0  0  0  0  0  0  0  0  0  0
    3.1170   15.5990    0.5080 C   0  0  0  0  0  0  0  0  0  0  0  0
    2.2160   14.7880   -0.4520 C   0  0  1  0  0  0  0  0  0  0  0  0
    3.2050   13.9330   -1.3050 C   0  0  0  0  0  0  0  0  0  0  0  0
    1.1160   13.9010    0.2170 C   0  0  2  0  0  0  0  0  0  0  0  0
    1.6460   12.7820    1.1300 C   0  0  0  0  0  0  0  0  0  0  0  0
    1.8930   11.4730    0.4550 C   0  0  0  0  0  0  0  0  0  0  0  0
    1.4330   11.1200   -0.7600 C   0  0  0  0  0  0  0  0  0  0  0  0
    0.4960   12.0450   -1.5470 C   0  0  1  0  0  0  0  0  0  0  0  0
   -0.6910   11.2210   -2.1110 C   0  0  0  0  0  0  0  0  0  0  0  0
   -0.2310   10.0210   -2.9330 C   0  0  0  0  0  0  0  0  0  0  0  0
    0.6510    9.0950   -2.1000 C   0  0  2  0  0  0  0  0  0  0  0  0
   -0.1450    8.5080   -1.0650 O   0  0  0  0  0  0  0  0  0  0  0  0
    1.8750    9.8170   -1.4710 C   0  0  0  0  0  0  0  0  0  0  0  0
    2.8880   10.1890   -2.5820 C   0  0  0  0  0  0  0  0  0  0  0  0
    2.6010    8.8060   -0.5430 C   0  0  0  0  0  0  0  0  0  0  0  0
    0.0210   13.3580   -0.7880 C   0  0  1  0  0  0  0  0  0  0  0  0
   -1.2500   13.0510    0.0620 C   0  0  0  0  0  0  0  0  0  0  0  0
   -0.4060   14.4400   -1.8500 C   0  0  0  0  0  0  0  0  0  0  0  0
    0.7050   15.3640   -2.3840 C   0  0  0  0  0  0  0  0  0  0  0  0
    1.5220   15.9620   -1.2350 C   0  0  2  0  0  0  0  0  0  0  0  0
    0.5580   16.8450   -0.3720 C   0  0  0  0  0  0  0  0  0  0  0  0
    2.5745   18.7228   -0.0128 H   0  0  0  0  0  0  0  0  0  0  0  0
    3.6914   19.6745   -1.0488 H   0  0  0  0  0  0  0  0  0  0  0  0
    1.9333   20.0427   -1.0488 H   0  0  0  0  0  0  0  0  0  0  0  0
    3.1835   18.5021   -2.9186 H   0  0  0  0  0  0  0  0  0  0  0  0
    1.1396   18.4004   -3.8084 H   0  0  0  0  0  0  0  0  0  0  0  0
    0.5146   17.4267   -2.3929 H   0  0  0  0  0  0  0  0  0  0  0  0
    0.8442   20.0707   -1.4587 H   0  0  0  0  0  0  0  0  0  0  0  0
    0.0292   20.1816   -3.0743 H   0  0  0  0  0  0  0  0  0  0  0  0
   -1.0469   18.1756   -2.1719 H   0  0  0  0  0  0  0  0  0  0  0  0
   -0.7824   19.9785    1.7875 H   0  0  0  0  0  0  0  0  0  0  0  0
    0.5159   19.8940    0.5491 H   0  0  0  0  0  0  0  0  0  0  0  0
   -0.6370   21.2715    0.5491 H   0  0  0  0  0  0  0  0  0  0  0  0
   -2.3789   18.6634    1.5892 H   0  0  0  0  0  0  0  0  0  0  0  0
   -3.4801   18.9247    0.1944 H   0  0  0  0  0  0  0  0  0  0  0  0
   -2.3457   17.5320    0.1944 H   0  0  0  0  0  0  0  0  0  0  0  0
    3.2286   16.4095   -2.5234 H   0  0  0  0  0  0  0  0  0  0  0  0
    4.6753   16.6585   -0.6048 H   0  0  0  0  0  0  0  0  0  0  0  0
    3.5293   17.7400    0.2159 H   0  0  0  0  0  0  0  0  0  0  0  0
    3.9641   14.9886    0.8542 H   0  0  0  0  0  0  0  0  0  0  0  0
    2.5789   15.9238    1.4107 H   0  0  0  0  0  0  0  0  0  0  0  0
    3.8660   13.3615   -0.6368 H   0  0  0  0  0  0  0  0  0  0  0  0
    2.6356   13.2380   -1.9396 H   0  0  0  0  0  0  0  0  0  0  0  0
    3.8103   14.5969   -1.9396 H   0  0  0  0  0  0  0  0  0  0  0  0
    0.6105   14.6153    0.8835 H   0  0  0  0  0  0  0  0  0  0  0  0
    2.5952   13.1225    1.5695 H   0  0  0  0  0  0  0  0  0  0  0  0
    0.8578   12.5971    1.8747 H   0  0  0  0  0  0  0  0  0  0  0  0
    2.5025   10.7346    0.9965 H   0  0  0  0  0  0  0  0  0  0  0  0
    1.0947   12.4519   -2.3752 H   0  0  0  0  0  0  0  0  0  0  0  0
   -1.3007   10.8595   -1.2698 H   0  0  0  0  0  0  0  0  0  0  0  0
   -1.2690   11.8797   -2.7759 H   0  0  0  0  0  0  0  0  0  0  0  0
   -1.1131    9.4625   -3.2794 H   0  0  0  0  0  0  0  0  0  0  0  0
    0.3541   10.3860   -3.7900 H   0  0  0  0  0  0  0  0  0  0  0  0
    1.0535    8.3265   -2.7763 H   0  0  0  0  0  0  0  0  0  0  0  0
   -0.9620    9.0300   -0.9900 H   0  0  0  0  0  0  0  0  0  0  0  0
    3.8261   10.5335   -2.1224 H   0  0  0  0  0  0  0  0  0  0  0  0
    3.0883    9.3058   -3.2063 H   0  0  0  0  0  0  0  0  0  0  0  0
    2.4690   10.9919   -3.2063 H   0  0  0  0  0  0  0  0  0  0  0  0
    2.4109    9.0708    0.5076 H   0  0  0  0  0  0  0  0  0  0  0  0
    2.2237    7.7916   -0.7395 H   0  0  0  0  0  0  0  0  0  0  0  0
    3.6828    8.8393   -0.7395 H   0  0  0  0  0  0  0  0  0  0  0  0
   -0.9994   13.1115    1.1314 H   0  0  0  0  0  0  0  0  0  0  0  0
   -2.0344   13.7855   -0.1729 H   0  0  0  0  0  0  0  0  0  0  0  0
   -1.6127   12.0394   -0.1729 H   0  0  0  0  0  0  0  0  0  0  0  0
   -0.8397   13.9092   -2.7103 H   0  0  0  0  0  0  0  0  0  0  0  0
   -1.1038   15.1048   -1.3197 H   0  0  0  0  0  0  0  0  0  0  0  0
    1.3735   14.7828   -3.0361 H   0  0  0  0  0  0  0  0  0  0  0  0
    0.2370   16.1859   -2.9456 H   0  0  0  0  0  0  0  0  0  0  0  0
    0.7537   16.6658    0.6955 H   0  0  0  0  0  0  0  0  0  0  0  0
    0.7283   17.9070   -0.6027 H   0  0  0  0  0  0  0  0  0  0  0  0
   -0.4850   16.5824   -0.6027 H   0  0  0  0  0  0  0  0  0  0  0  0
  1  2  1  0
  2  3  1  0
  3  4  1  0
  4  5  1  0
  5  6  1  0
  6  7  1  0
  7  8  1  0
  7  9  1  0
  2 10  1  0
 10 11  1  0
 11 12  1  0
 12 13  1  0
 13 14  1  6
 13 15  1  0
 15 16  1  0
 16 17  1  0
 17 18  2  0
 18 19  1  0
 19 20  1  0
 20 21  1  0
 21 22  1  0
 22 23  1  0
 22 24  1  0
 24 25  1  0
 24 26  1  0
 19 27  1  0
 27 28  1  1
 27 29  1  0
 29 30  1  0
 30 31  1  0
 31 32  1  1
  7  5  1  0
 31 10  1  0
 31 13  1  0
 27 15  1  0
 24 18  1  0
  1 33  1  0
  1 34  1  0
  1 35  1  0
  2 36  1  6
  3 37  1  0
  3 38  1  0
  4 39  1  0
  4 40  1  0
  5 41  1  6
  8 42  1  0
  8 43  1  0
  8 44  1  0
  9 45  1  0
  9 46  1  0
  9 47  1  0
 10 48  1  6
 11 49  1  0
 11 50  1  0
 12 51  1  0
 12 52  1  0
 14 53  1  0
 14 54  1  0
 14 55  1  0
 15 56  1  1
 16 57  1  0
 16 58  1  0
 17 59  1  0
 19 60  1  6
 20 61  1  0
 20 62  1  0
 21 63  1  0
 21 64  1  0
 22 65  1  6
 23 66  1  0
 25 67  1  0
 25 68  1  0
 25 69  1  0
 26 70  1  0
 26 71  1  0
 26 72  1  0
 28 73  1  0
 28 74  1  0
 28 75  1  0
 29 76  1  0
 29 77  1  0
 30 78  1  0
 30 79  1  0
 32 80  1  0
 32 81  1  0
 32 82  1  0
M  END
>  <meeko>  (5) 
{"is_sidechain": [false], "intermolecular_energy": 2.731, "internal_energy": -0.839}

$$$$
EPH_relaxed_0001_pdb2pqr_Repair_349_r2_0001_out
     RDKit          3D

 82 86  0  0  0  0  0  0  0  0999 V2000
    0.3360    8.8190   -2.3080 C   0  0  0  0  0  0  0  0  0  0  0  0
    1.0790    9.9550   -3.0160 C   0  0  2  0  0  0  0  0  0  0  0  0
    2.5840    9.9620   -2.6810 C   0  0  0  0  0  0  0  0  0  0  0  0
    3.4600   10.5430   -3.7940 C   0  0  0  0  0  0  0  0  0  0  0  0
    4.8570   10.8060   -3.3190 C   0  0  2  0  0  0  0  0  0  0  0  0
    5.4410   12.0170   -3.8180 O   0  0  0  0  0  0  0  0  0  0  0  0
    6.0680   10.7930   -4.2340 C   0  0  0  0  0  0  0  0  0  0  0  0
    5.9370   10.5080   -5.6980 C   0  0  0  0  0  0  0  0  0  0  0  0
    7.4190   10.5720   -3.6290 C   0  0  0  0  0  0  0  0  0  0  0  0
    0.4560   11.2950   -2.6440 C   0  0  1  0  0  0  0  0  0  0  0  0
   -0.9000   11.1390   -1.9060 C   0  0  0  0  0  0  0  0  0  0  0  0
   -0.9810   12.2890   -0.8700 C   0  0  0  0  0  0  0  0  0  0  0  0
    0.1620   13.2530   -1.2670 C   0  0  1  0  0  0  0  0  0  0  0  0
   -0.4190   14.1010   -2.4420 C   0  0  0  0  0  0  0  0  0  0  0  0
    0.7290   14.1590   -0.1260 C   0  0  2  0  0  0  0  0  0  0  0  0
   -0.2800   15.1460    0.4860 C   0  0  0  0  0  0  0  0  0  0  0  0
   -0.3370   16.4870   -0.1670 C   0  0  0  0  0  0  0  0  0  0  0  0
    0.5830   16.9840   -1.0150 C   0  0  0  0  0  0  0  0  0  0  0  0
    1.8720   16.2110   -1.3190 C   0  0  1  0  0  0  0  0  0  0  0  0
    3.0850   17.1740   -1.2340 C   0  0  0  0  0  0  0  0  0  0  0  0
    2.9190   18.4040   -2.1210 C   0  0  0  0  0  0  0  0  0  0  0  0
    1.6570   19.1780   -1.7500 C   0  0  2  0  0  0  0  0  0  0  0  0
    1.8230   19.7300   -0.4400 O   0  0  0  0  0  0  0  0  0  0  0  0
    0.3700   18.3070   -1.7900 C   0  0  0  0  0  0  0  0  0  0  0  0
    0.0230   17.9600   -3.2590 C   0  0  0  0  0  0  0  0  0  0  0  0
   -0.8070   19.1700   -1.2590 C   0  0  0  0  0  0  0  0  0  0  0  0
    2.0940   14.8760   -0.4860 C   0  0  1  0  0  0  0  0  0  0  0  0
    2.7950   15.2040    0.8670 C   0  0  0  0  0  0  0  0  0  0  0  0
    3.0750   13.9330   -1.2780 C   0  0  0  0  0  0  0  0  0  0  0  0
    2.4410   12.9760   -2.3060 C   0  0  0  0  0  0  0  0  0  0  0  0
    1.2620   12.2140   -1.6910 C   0  0  2  0  0  0  0  0  0  0  0  0
    1.8200   11.3340   -0.5210 C   0  0  0  0  0  0  0  0  0  0  0  0
    0.4206    8.9483   -1.2189 H   0  0  0  0  0  0  0  0  0  0  0  0
   -0.7249    8.8378   -2.5982 H   0  0  0  0  0  0  0  0  0  0  0  0
    0.7784    7.8546   -2.5982 H   0  0  0  0  0  0  0  0  0  0  0  0
    0.9829    9.7887   -4.0991 H   0  0  0  0  0  0  0  0  0  0  0  0
    2.7345   10.5623   -1.7716 H   0  0  0  0  0  0  0  0  0  0  0  0
    2.8882    8.9134   -2.5471 H   0  0  0  0  0  0  0  0  0  0  0  0
    3.4960    9.8281   -4.6293 H   0  0  0  0  0  0  0  0  0  0  0  0
    3.0202   11.4995   -4.1128 H   0  0  0  0  0  0  0  0  0  0  0  0
    4.6507   10.3068   -2.3608 H   0  0  0  0  0  0  0  0  0  0  0  0
    5.4814    9.5168   -5.8393 H   0  0  0  0  0  0  0  0  0  0  0  0
    5.3006   11.2740   -6.1652 H   0  0  0  0  0  0  0  0  0  0  0  0
    6.9327   10.5238   -6.1652 H   0  0  0  0  0  0  0  0  0  0  0  0
    7.3363   10.5855   -2.5322 H   0  0  0  0  0  0  0  0  0  0  0  0
    7.8118    9.5977   -3.9551 H   0  0  0  0  0  0  0  0  0  0  0  0
    8.1018   11.3704   -3.9551 H   0  0  0  0  0  0  0  0  0  0  0  0
    0.3912   11.7516   -3.6426 H   0  0  0  0  0  0  0  0  0  0  0  0
   -1.7317   11.2150   -2.6219 H   0  0  0  0  0  0  0  0  0  0  0  0
   -0.9705   10.1581   -1.4131 H   0  0  0  0  0  0  0  0  0  0  0  0
   -1.9551   12.7966   -0.9286 H   0  0  0  0  0  0  0  0  0  0  0  0
   -0.8812   11.9269    0.1639 H   0  0  0  0  0  0  0  0  0  0  0  0
   -0.9966   14.9441   -2.0351 H   0  0  0  0  0  0  0  0  0  0  0  0
    0.4061   14.4858   -3.0594 H   0  0  0  0  0  0  0  0  0  0  0  0
   -1.0758   13.4706   -3.0594 H   0  0  0  0  0  0  0  0  0  0  0  0
    0.9507   13.4293    0.6667 H   0  0  0  0  0  0  0  0  0  0  0  0
   -1.2805   14.6934    0.4207 H   0  0  0  0  0  0  0  0  0  0  0  0
    0.0566   15.3243    1.5179 H   0  0  0  0  0  0  0  0  0  0  0  0
   -1.2042   17.1231    0.0642 H   0  0  0  0  0  0  0  0  0  0  0  0
    1.7647   15.8343   -2.3469 H   0  0  0  0  0  0  0  0  0  0  0  0
    3.2005   17.5043   -0.1912 H   0  0  0  0  0  0  0  0  0  0  0  0
    3.9715   16.6260   -1.5858 H   0  0  0  0  0  0  0  0  0  0  0  0
    3.7934   19.0594   -1.9949 H   0  0  0  0  0  0  0  0  0  0  0  0
    2.8335   18.0737   -3.1667 H   0  0  0  0  0  0  0  0  0  0  0  0
    1.5234   19.9703   -2.5013 H   0  0  0  0  0  0  0  0  0  0  0  0
    0.9390   19.8270   -0.0470 H   0  0  0  0  0  0  0  0  0  0  0  0
   -0.7547   17.1823   -3.2782 H   0  0  0  0  0  0  0  0  0  0  0  0
   -0.3465   18.8607   -3.7711 H   0  0  0  0  0  0  0  0  0  0  0  0
    0.9237   17.5905   -3.7711 H   0  0  0  0  0  0  0  0  0  0  0  0
   -0.7989   19.1641   -0.1590 H   0  0  0  0  0  0  0  0  0  0  0  0
   -0.6968   20.2029   -1.6209 H   0  0  0  0  0  0  0  0  0  0  0  0
   -1.7589   18.7543   -1.6209 H   0  0  0  0  0  0  0  0  0  0  0  0
    2.1445   14.8996    1.7002 H   0  0  0  0  0  0  0  0  0  0  0  0
    3.7482   14.6584    0.9278 H   0  0  0  0  0  0  0  0  0  0  0  0
    2.9870   16.2854    0.9278 H   0  0  0  0  0  0  0  0  0  0  0  0
    3.7898   14.5730   -1.8160 H   0  0  0  0  0  0  0  0  0  0  0  0
    3.5241   13.2796   -0.5155 H   0  0  0  0  0  0  0  0  0  0  0  0
    2.0828   13.5589   -3.1673 H   0  0  0  0  0  0  0  0  0  0  0  0
    3.2020   12.2480   -2.6237 H   0  0  0  0  0  0  0  0  0  0  0  0
    1.5359   11.7821    0.4426 H   0  0  0  0  0  0  0  0  0  0  0  0
    1.3994   10.3201   -0.5921 H   0  0  0  0  0  0  0  0  0  0  0  0
    2.9165   11.2820   -0.5921 H   0  0  0  0  0  0  0  0  0  0  0  0
  1  2  1  0
  2  3  1  0
  3  4  1  0
  4  5  1  0
  5  6  1  0
  6  7  1  0
  7  8  1  0
  7  9  1  0
  2 10  1  0
 10 11  1  0
 11 12  1  0
 12 13  1  0
 13 14  1  6
 13 15  1  0
 15 16  1  0
 16 17  1  0
 17 18  2  0
 18 19  1  0
 19 20  1  0
 20 21  1  0
 21 22  1  0
 22 23  1  0
 22 24  1  0
 24 25  1  0
 24 26  1  0
 19 27  1  0
 27 28  1  1
 27 29  1  0
 29 30  1  0
 30 31  1  0
 31 32  1  1
  7  5  1  0
 31 10  1  0
 31 13  1  0
 27 15  1  0
 24 18  1  0
  1 33  1  0
  1 34  1  0
  1 35  1  0
  2 36  1  6
  3 37  1  0
  3 38  1  0
  4 39  1  0
  4 40  1  0
  5 41  1  1
  8 42  1  0
  8 43  1  0
  8 44  1  0
  9 45  1  0
  9 46  1  0
  9 47  1  0
 10 48  1  6
 11 49  1  0
 11 50  1  0
 12 51  1  0
 12 52  1  0
 14 53  1  0
 14 54  1  0
 14 55  1  0
 15 56  1  1
 16 57  1  0
 16 58  1  0
 17 59  1  0
 19 60  1  6
 20 61  1  0
 20 62  1  0
 21 63  1  0
 21 64  1  0
 22 65  1  6
 23 66  1  0
 25 67  1  0
 25 68  1  0
 25 69  1  0
 26 70  1  0
 26 71  1  0
 26 72  1  0
 28 73  1  0
 28 74  1  0
 28 75  1  0
 29 76  1  0
 29 77  1  0
 30 78  1  0
 30 79  1  0
 32 80  1  0
 32 81  1  0
 32 82  1  0
M  END
>  <meeko>  (6) 
{"is_sidechain": [false], "intermolecular_energy": 2.731, "internal_energy": -0.839}

$$$$
EPH_relaxed_0001_pdb2pqr_Repair_349_r2_0001_out
     RDKit          3D

 82 86  0  0  0  0  0  0  0  0999 V2000
    2.1540   19.1400   -2.2640 C   0  0  0  0  0  0  0  0  0  0  0  0
    1.6390   19.1170   -0.8220 C   0  0  2  0  0  0  0  0  0  0  0  0
    2.6750   19.6780    0.1730 C   0  0  0  0  0  0  0  0  0  0  0  0
    3.5170   18.5990    0.8580 C   0  0  0  0  0  0  0  0  0  0  0  0
    3.7000   18.8820    2.3180 C   0  0  2  0  0  0  0  0  0  0  0  0
    4.1980   20.1930    2.6160 O   0  0  0  0  0  0  0  0  0  0  0  0
    5.0550   19.0950    2.9660 C   0  0  0  0  0  0  0  0  0  0  0  0
    6.3200   19.0320    2.1690 C   0  0  0  0  0  0  0  0  0  0  0  0
    5.1850   18.8780    4.4420 C   0  0  0  0  0  0  0  0  0  0  0  0
    1.2560   17.6950   -0.4290 C   0  0  1  0  0  0  0  0  0  0  0  0
   -0.0330   17.6410    0.4330 C   0  0  0  0  0  0  0  0  0  0  0  0
   -0.7810   16.3420    0.0380 C   0  0  0  0  0  0  0  0  0  0  0  0
    0.2490   15.5330   -0.7850 C   0  0  1  0  0  0  0  0  0  0  0  0
    1.1550   14.8370    0.2800 C   0  0  0  0  0  0  0  0  0  0  0  0
   -0.3360   14.5040   -1.8060 C   0  0  2  0  0  0  0  0  0  0  0  0
   -1.1640   13.3670   -1.1840 C   0  0  0  0  0  0  0  0  0  0  0  0
   -0.3930   12.1410   -0.8200 C   0  0  0  0  0  0  0  0  0  0  0  0
    0.8510   11.8470   -1.2410 C   0  0  0  0  0  0  0  0  0  0  0  0
    1.5740   12.7450   -2.2520 C   0  0  1  0  0  0  0  0  0  0  0  0
    2.2160   11.8680   -3.3590 C   0  0  0  0  0  0  0  0  0  0  0  0
    3.1230   10.7810   -2.7910 C   0  0  0  0  0  0  0  0  0  0  0  0
    2.3530    9.8720   -1.8360 C   0  0  2  0  0  0  0  0  0  0  0  0
    1.3780    9.1390   -2.5820 O   0  0  0  0  0  0  0  0  0  0  0  0
    1.6560   10.6470   -0.6830 C   0  0  0  0  0  0  0  0  0  0  0  0
    2.7230   11.1910    0.2990 C   0  0  0  0  0  0  0  0  0  0  0  0
    0.8010    9.6330    0.1250 C   0  0  0  0  0  0  0  0  0  0  0  0
    0.7210   13.9490   -2.8440 C   0  0  1  0  0  0  0  0  0  0  0  0
   -0.0870   13.4660   -4.0880 C   0  0  0  0  0  0  0  0  0  0  0  0
    1.7010   15.0690   -3.3580 C   0  0  0  0  0  0  0  0  0  0  0  0
    2.1490   16.1250   -2.3310 C   0  0  0  0  0  0  0  0  0  0  0  0
    0.9460   16.7000   -1.5750 C   0  0  2  0  0  0  0  0  0  0  0  0
    0.0290   17.4250   -2.6170 C   0  0  0  0  0  0  0  0  0  0  0  0
    3.2529   19.1891   -2.2601 H   0  0  0  0  0  0  0  0  0  0  0  0
    1.8296   18.2265   -2.7838 H   0  0  0  0  0  0  0  0  0  0  0  0
    1.7494   20.0210   -2.7838 H   0  0  0  0  0  0  0  0  0  0  0  0
    0.7522   19.7663   -0.7768 H   0  0  0  0  0  0  0  0  0  0  0  0
    3.3515   20.3519   -0.3731 H   0  0  0  0  0  0  0  0  0  0  0  0
    2.1132   20.1974    0.9633 H   0  0  0  0  0  0  0  0  0  0  0  0
    3.0133   17.6278    0.7436 H   0  0  0  0  0  0  0  0  0  0  0  0
    4.5097   18.5867    0.3842 H   0  0  0  0  0  0  0  0  0  0  0  0
    2.8542   18.2272    2.5746 H   0  0  0  0  0  0  0  0  0  0  0  0
    7.1816   18.9891    2.8515 H   0  0  0  0  0  0  0  0  0  0  0  0
    6.3095   18.1333    1.5348 H   0  0  0  0  0  0  0  0  0  0  0  0
    6.3988   19.9273    1.5348 H   0  0  0  0  0  0  0  0  0  0  0  0
    4.6915   19.7017    4.9786 H   0  0  0  0  0  0  0  0  0  0  0  0
    4.7090   17.9249    4.7158 H   0  0  0  0  0  0  0  0  0  0  0  0
    6.2500   18.8480    4.7158 H   0  0  0  0  0  0  0  0  0  0  0  0
    2.1761   17.3931    0.0928 H   0  0  0  0  0  0  0  0  0  0  0  0
    0.2266   17.6186    1.5017 H   0  0  0  0  0  0  0  0  0  0  0  0
   -0.6615   18.5270    0.2596 H   0  0  0  0  0  0  0  0  0  0  0  0
   -1.0874   15.7826    0.9342 H   0  0  0  0  0  0  0  0  0  0  0  0
   -1.7004   16.5466   -0.5301 H   0  0  0  0  0  0  0  0  0  0  0  0
    0.8069   15.1044    1.2886 H   0  0  0  0  0  0  0  0  0  0  0  0
    1.1009   13.7460    0.1507 H   0  0  0  0  0  0  0  0  0  0  0  0
    2.1952   15.1704    0.1507 H   0  0  0  0  0  0  0  0  0  0  0  0
   -1.0507   15.1164   -2.3753 H   0  0  0  0  0  0  0  0  0  0  0  0
   -1.6392   13.7533   -0.2702 H   0  0  0  0  0  0  0  0  0  0  0  0
   -1.8823   13.0561   -1.9569 H   0  0  0  0  0  0  0  0  0  0  0  0
   -0.8829   11.4176   -0.1517 H   0  0  0  0  0  0  0  0  0  0  0  0
    2.3609   13.2663   -1.6871 H   0  0  0  0  0  0  0  0  0  0  0  0
    1.4135   11.3898   -3.9398 H   0  0  0  0  0  0  0  0  0  0  0  0
    2.8350   12.5244   -3.9883 H   0  0  0  0  0  0  0  0  0  0  0  0
    3.5231   10.1771   -3.6188 H   0  0  0  0  0  0  0  0  0  0  0  0
    3.9414   11.2617   -2.2350 H   0  0  0  0  0  0  0  0  0  0  0  0
    3.0812    9.1958   -1.3644 H   0  0  0  0  0  0  0  0  0  0  0  0
    1.7260    9.0160   -3.4810 H   0  0  0  0  0  0  0  0  0  0  0  0
    2.3898   11.0211    1.3335 H   0  0  0  0  0  0  0  0  0  0  0  0
    3.6765   10.6690    0.1305 H   0  0  0  0  0  0  0  0  0  0  0  0
    2.8606   12.2693    0.1305 H   0  0  0  0  0  0  0  0  0  0  0  0
    0.9470    9.8061    1.2014 H   0  0  0  0  0  0  0  0  0  0  0  0
   -0.2614    9.7663   -0.1271 H   0  0  0  0  0  0  0  0  0  0  0  0
    1.1119    8.6084   -0.1271 H   0  0  0  0  0  0  0  0  0  0  0  0
   -0.9868   12.9282   -3.7546 H   0  0  0  0  0  0  0  0  0  0  0  0
   -0.3828   14.3355   -4.6933 H   0  0  0  0  0  0  0  0  0  0  0  0
    0.5388   12.7937   -4.6933 H   0  0  0  0  0  0  0  0  0  0  0  0
    2.6048   14.5710   -3.7389 H   0  0  0  0  0  0  0  0  0  0  0  0
    1.1287   15.6273   -4.1135 H   0  0  0  0  0  0  0  0  0  0  0  0
    2.8366   15.6575   -1.6108 H   0  0  0  0  0  0  0  0  0  0  0  0
    2.6509   16.9443   -2.8666 H   0  0  0  0  0  0  0  0  0  0  0  0
   -0.7270   18.0227   -2.0868 H   0  0  0  0  0  0  0  0  0  0  0  0
    0.6420   18.0853   -3.2481 H   0  0  0  0  0  0  0  0  0  0  0  0
   -0.4721   16.6762   -3.2481 H   0  0  0  0  0  0  0  0  0  0  0  0
  1  2  1  0
  2  3  1  0
  3  4  1  0
  4  5  1  0
  5  6  1  0
  6  7  1  0
  7  8  1  0
  7  9  1  0
  2 10  1  0
 10 11  1  0
 11 12  1  0
 12 13  1  0
 13 14  1  1
 13 15  1  0
 15 16  1  0
 16 17  1  0
 17 18  2  0
 18 19  1  0
 19 20  1  0
 20 21  1  0
 21 22  1  0
 22 23  1  0
 22 24  1  0
 24 25  1  0
 24 26  1  0
 19 27  1  0
 27 28  1  6
 27 29  1  0
 29 30  1  0
 30 31  1  0
 31 32  1  6
  7  5  1  0
 31 10  1  0
 31 13  1  0
 27 15  1  0
 24 18  1  0
  1 33  1  0
  1 34  1  0
  1 35  1  0
  2 36  1  6
  3 37  1  0
  3 38  1  0
  4 39  1  0
  4 40  1  0
  5 41  1  1
  8 42  1  0
  8 43  1  0
  8 44  1  0
  9 45  1  0
  9 46  1  0
  9 47  1  0
 10 48  1  1
 11 49  1  0
 11 50  1  0
 12 51  1  0
 12 52  1  0
 14 53  1  0
 14 54  1  0
 14 55  1  0
 15 56  1  6
 16 57  1  0
 16 58  1  0
 17 59  1  0
 19 60  1  1
 20 61  1  0
 20 62  1  0
 21 63  1  0
 21 64  1  0
 22 65  1  1
 23 66  1  0
 25 67  1  0
 25 68  1  0
 25 69  1  0
 26 70  1  0
 26 71  1  0
 26 72  1  0
 28 73  1  0
 28 74  1  0
 28 75  1  0
 29 76  1  0
 29 77  1  0
 30 78  1  0
 30 79  1  0
 32 80  1  0
 32 81  1  0
 32 82  1  0
M  END
>  <meeko>  (7) 
{"is_sidechain": [false], "intermolecular_energy": 2.731, "internal_energy": -0.839}

$$$$
EPH_relaxed_0001_pdb2pqr_Repair_349_r2_0001_out
     RDKit          3D

 82 86  0  0  0  0  0  0  0  0999 V2000
   -5.3480    5.7420   -1.5530 C   0  0  0  0  0  0  0  0  0  0  0  0
   -5.5200    7.2130   -1.9430 C   0  0  2  0  0  0  0  0  0  0  0  0
   -5.1420    8.1670   -0.7930 C   0  0  0  0  0  0  0  0  0  0  0  0
   -3.6470    8.1730   -0.4650 C   0  0  0  0  0  0  0  0  0  0  0  0
   -2.8540    8.9070   -1.5040 C   0  0  2  0  0  0  0  0  0  0  0  0
   -1.9540    8.0860   -2.2610 O   0  0  0  0  0  0  0  0  0  0  0  0
   -1.3500    9.0920   -1.4320 C   0  0  0  0  0  0  0  0  0  0  0  0
   -0.5490    8.5420   -0.2930 C   0  0  0  0  0  0  0  0  0  0  0  0
   -0.7300   10.2160   -2.2030 C   0  0  0  0  0  0  0  0  0  0  0  0
   -6.9580    7.4690   -2.3810 C   0  0  1  0  0  0  0  0  0  0  0  0
   -7.3020    6.7830   -3.7310 C   0  0  0  0  0  0  0  0  0  0  0  0
   -8.7850    6.3390   -3.6410 C   0  0  0  0  0  0  0  0  0  0  0  0
   -9.3360    7.0680   -2.3930 C   0  0  1  0  0  0  0  0  0  0  0  0
   -9.6670    8.5120   -2.8860 C   0  0  0  0  0  0  0  0  0  0  0  0
  -10.5630    6.4030   -1.6900 C   0  0  2  0  0  0  0  0  0  0  0  0
  -11.8340    6.3050   -2.5510 C   0  0  0  0  0  0  0  0  0  0  0  0
  -12.7640    7.4680   -2.4500 C   0  0  0  0  0  0  0  0  0  0  0  0
  -12.7320    8.4140   -1.4930 C   0  0  0  0  0  0  0  0  0  0  0  0
  -11.7490    8.3150   -0.3190 C   0  0  1  0  0  0  0  0  0  0  0  0
  -12.4960    8.6050    1.0090 C   0  0  0  0  0  0  0  0  0  0  0  0
  -13.2400    9.9370    0.9820 C   0  0  0  0  0  0  0  0  0  0  0  0
  -14.2500    9.9750   -0.1620 C   0  0  2  0  0  0  0  0  0  0  0  0
  -15.2820    9.0200    0.1020 O   0  0  0  0  0  0  0  0  0  0  0  0
  -13.6130    9.6860   -1.5510 C   0  0  0  0  0  0  0  0  0  0  0  0
  -12.7180   10.8790   -1.9710 C   0  0  0  0  0  0  0  0  0  0  0  0
  -14.7590    9.6150   -2.5960 C   0  0  0  0  0  0  0  0  0  0  0  0
  -10.8810    6.9850   -0.2530 C   0  0  1  0  0  0  0  0  0  0  0  0
  -11.6650    5.8760    0.5140 C   0  0  0  0  0  0  0  0  0  0  0  0
   -9.5760    7.2640    0.5820 C   0  0  0  0  0  0  0  0  0  0  0  0
   -8.3600    7.8090   -0.1910 C   0  0  0  0  0  0  0  0  0  0  0  0
   -8.0860    6.9710   -1.4440 C   0  0  2  0  0  0  0  0  0  0  0  0
   -7.7280    5.5180   -0.9790 C   0  0  0  0  0  0  0  0  0  0  0  0
   -5.3375    5.6521   -0.4567 H   0  0  0  0  0  0  0  0  0  0  0  0
   -6.1836    5.1544   -1.9611 H   0  0  0  0  0  0  0  0  0  0  0  0
   -4.3994    5.3630   -1.9611 H   0  0  0  0  0  0  0  0  0  0  0  0
   -4.8343    7.4164   -2.7787 H   0  0  0  0  0  0  0  0  0  0  0  0
   -5.4395    9.1874   -1.0762 H   0  0  0  0  0  0  0  0  0  0  0  0
   -5.6669    7.8111    0.1057 H   0  0  0  0  0  0  0  0  0  0  0  0
   -3.4977    8.6623    0.5088 H   0  0  0  0  0  0  0  0  0  0  0  0
   -3.2974    7.1303   -0.4402 H   0  0  0  0  0  0  0  0  0  0  0  0
   -3.6780    9.6178   -1.6649 H   0  0  0  0  0  0  0  0  0  0  0  0
   -1.0033    8.8539    0.6590 H   0  0  0  0  0  0  0  0  0  0  0  0
   -0.5360    7.4436   -0.3506 H   0  0  0  0  0  0  0  0  0  0  0  0
    0.4808    8.9244   -0.3506 H   0  0  0  0  0  0  0  0  0  0  0  0
   -0.3203   10.9588   -1.5027 H   0  0  0  0  0  0  0  0  0  0  0  0
    0.0793    9.8236   -2.8363 H   0  0  0  0  0  0  0  0  0  0  0  0
   -1.4936   10.6912   -2.8363 H   0  0  0  0  0  0  0  0  0  0  0  0
   -6.9499    8.5686   -2.4081 H   0  0  0  0  0  0  0  0  0  0  0  0
   -7.1684    7.4921   -4.5613 H   0  0  0  0  0  0  0  0  0  0  0  0
   -6.6423    5.9226   -3.9166 H   0  0  0  0  0  0  0  0  0  0  0  0
   -9.3366    6.6425   -4.5430 H   0  0  0  0  0  0  0  0  0  0  0  0
   -8.8893    5.2466   -3.5657 H   0  0  0  0  0  0  0  0  0  0  0  0
   -9.8179    9.1703   -2.0177 H   0  0  0  0  0  0  0  0  0  0  0  0
   -8.8327    8.8922   -3.4938 H   0  0  0  0  0  0  0  0  0  0  0  0
  -10.5836    8.4908   -3.4938 H   0  0  0  0  0  0  0  0  0  0  0  0
  -10.2197    5.3679   -1.5458 H   0  0  0  0  0  0  0  0  0  0  0  0
  -11.5256    6.2068   -3.6023 H   0  0  0  0  0  0  0  0  0  0  0  0
  -12.3917    5.4358   -2.1723 H   0  0  0  0  0  0  0  0  0  0  0  0
  -13.5412    7.5598   -3.2230 H   0  0  0  0  0  0  0  0  0  0  0  0
  -10.9871    9.0888   -0.4943 H   0  0  0  0  0  0  0  0  0  0  0  0
  -13.2224    7.7987    1.1885 H   0  0  0  0  0  0  0  0  0  0  0  0
  -11.7445    8.6580    1.8105 H   0  0  0  0  0  0  0  0  0  0  0  0
  -13.7712   10.0720    1.9357 H   0  0  0  0  0  0  0  0  0  0  0  0
  -12.5085   10.7446    0.8313 H   0  0  0  0  0  0  0  0  0  0  0  0
  -14.6567   10.9959   -0.2094 H   0  0  0  0  0  0  0  0  0  0  0  0
  -15.6730    9.2390    0.9640 H   0  0  0  0  0  0  0  0  0  0  0  0
  -12.3375   11.3862   -1.0721 H   0  0  0  0  0  0  0  0  0  0  0  0
  -11.8721   10.5099   -2.5695 H   0  0  0  0  0  0  0  0  0  0  0  0
  -13.3090   11.5879   -2.5695 H   0  0  0  0  0  0  0  0  0  0  0  0
  -15.7264    9.5551   -2.0758 H   0  0  0  0  0  0  0  0  0  0  0  0
  -14.7368   10.5162   -3.2263 H   0  0  0  0  0  0  0  0  0  0  0  0
  -14.6258    8.7234   -3.2263 H   0  0  0  0  0  0  0  0  0  0  0  0
  -11.5549    6.0317    1.5973 H   0  0  0  0  0  0  0  0  0  0  0  0
  -12.7299    5.9255    0.2428 H   0  0  0  0  0  0  0  0  0  0  0  0
  -11.2631    4.8886    0.2428 H   0  0  0  0  0  0  0  0  0  0  0  0
   -9.8303    7.9969    1.3619 H   0  0  0  0  0  0  0  0  0  0  0  0
   -9.2599    6.2803    0.9593 H   0  0  0  0  0  0  0  0  0  0  0  0
   -8.5601    8.8485   -0.4900 H   0  0  0  0  0  0  0  0  0  0  0  0
   -7.4774    7.7597    0.4637 H   0  0  0  0  0  0  0  0  0  0  0  0
   -7.7179    5.4768    0.1202 H   0  0  0  0  0  0  0  0  0  0  0  0
   -8.4795    4.8137   -1.3654 H   0  0  0  0  0  0  0  0  0  0  0  0
   -6.7354    5.2435   -1.3654 H   0  0  0  0  0  0  0  0  0  0  0  0
  1  2  1  0
  2  3  1  0
  3  4  1  0
  4  5  1  0
  5  6  1  0
  6  7  1  0
  7  8  1  0
  7  9  1  0
  2 10  1  0
 10 11  1  0
 11 12  1  0
 12 13  1  0
 13 14  1  6
 13 15  1  0
 15 16  1  0
 16 17  1  0
 17 18  2  0
 18 19  1  0
 19 20  1  0
 20 21  1  0
 21 22  1  0
 22 23  1  0
 22 24  1  0
 24 25  1  0
 24 26  1  0
 19 27  1  0
 27 28  1  1
 27 29  1  0
 29 30  1  0
 30 31  1  0
 31 32  1  1
  7  5  1  0
 31 10  1  0
 31 13  1  0
 27 15  1  0
 24 18  1  0
  1 33  1  0
  1 34  1  0
  1 35  1  0
  2 36  1  6
  3 37  1  0
  3 38  1  0
  4 39  1  0
  4 40  1  0
  5 41  1  6
  8 42  1  0
  8 43  1  0
  8 44  1  0
  9 45  1  0
  9 46  1  0
  9 47  1  0
 10 48  1  6
 11 49  1  0
 11 50  1  0
 12 51  1  0
 12 52  1  0
 14 53  1  0
 14 54  1  0
 14 55  1  0
 15 56  1  1
 16 57  1  0
 16 58  1  0
 17 59  1  0
 19 60  1  6
 20 61  1  0
 20 62  1  0
 21 63  1  0
 21 64  1  0
 22 65  1  6
 23 66  1  0
 25 67  1  0
 25 68  1  0
 25 69  1  0
 26 70  1  0
 26 71  1  0
 26 72  1  0
 28 73  1  0
 28 74  1  0
 28 75  1  0
 29 76  1  0
 29 77  1  0
 30 78  1  0
 30 79  1  0
 32 80  1  0
 32 81  1  0
 32 82  1  0
M  END
>  <meeko>  (8) 
{"is_sidechain": [false], "intermolecular_energy": 2.731, "internal_energy": -0.839}

$$$$
EPH_relaxed_0001_pdb2pqr_Repair_349_r2_0001_out
     RDKit          3D

 82 86  0  0  0  0  0  0  0  0999 V2000
   -1.2660   16.4970   -6.0290 C   0  0  0  0  0  0  0  0  0  0  0  0
   -0.0330   15.8090   -6.6220 C   0  0  2  0  0  0  0  0  0  0  0  0
   -0.2370   15.4240   -8.1010 C   0  0  0  0  0  0  0  0  0  0  0  0
    0.3790   16.4200   -9.0870 C   0  0  0  0  0  0  0  0  0  0  0  0
    1.7940   16.0630   -9.4260 C   0  0  2  0  0  0  0  0  0  0  0  0
    2.2950   16.6720  -10.6230 O   0  0  0  0  0  0  0  0  0  0  0  0
    2.1810   15.2400  -10.6400 C   0  0  0  0  0  0  0  0  0  0  0  0
    1.1500   14.7230  -11.5930 C   0  0  0  0  0  0  0  0  0  0  0  0
    3.4990   14.5300  -10.6330 C   0  0  0  0  0  0  0  0  0  0  0  0
    0.3140   14.5700   -5.8040 C   0  0  1  0  0  0  0  0  0  0  0  0
    1.3780   13.6760   -6.4950 C   0  0  0  0  0  0  0  0  0  0  0  0
    2.2520   13.0680   -5.3690 C   0  0  0  0  0  0  0  0  0  0  0  0
    1.4680   13.3590   -4.0670 C   0  0  1  0  0  0  0  0  0  0  0  0
    0.3790   12.2430   -3.9970 C   0  0  0  0  0  0  0  0  0  0  0  0
    2.3120   13.4250   -2.7530 C   0  0  2  0  0  0  0  0  0  0  0  0
    3.0290   12.1180   -2.3710 C   0  0  0  0  0  0  0  0  0  0  0  0
    2.2500   11.1960   -1.4920 C   0  0  0  0  0  0  0  0  0  0  0  0
    1.1460   11.5260   -0.7970 C   0  0  0  0  0  0  0  0  0  0  0  0
    0.6290   12.9700   -0.7770 C   0  0  1  0  0  0  0  0  0  0  0  0
    0.2910   13.3800    0.6800 C   0  0  0  0  0  0  0  0  0  0  0  0
   -0.6720   12.4070    1.3530 C   0  0  0  0  0  0  0  0  0  0  0  0
   -0.0970   10.9930    1.3660 C   0  0  2  0  0  0  0  0  0  0  0  0
    1.0520   10.9700    2.2190 O   0  0  0  0  0  0  0  0  0  0  0  0
    0.2900   10.4750   -0.0470 C   0  0  0  0  0  0  0  0  0  0  0  0
   -0.9920   10.2130   -0.8750 C   0  0  0  0  0  0  0  0  0  0  0  0
    0.9860    9.0980    0.1220 C   0  0  0  0  0  0  0  0  0  0  0  0
    1.5400   14.0420   -1.5170 C   0  0  1  0  0  0  0  0  0  0  0  0
    2.6260   14.5840   -0.5380 C   0  0  0  0  0  0  0  0  0  0  0  0
    0.6520   15.2780   -1.9230 C   0  0  0  0  0  0  0  0  0  0  0  0
   -0.0600   15.2030   -3.2870 C   0  0  0  0  0  0  0  0  0  0  0  0
    0.9160   14.7940   -4.3940 C   0  0  2  0  0  0  0  0  0  0  0  0
    2.0110   15.9090   -4.5030 C   0  0  0  0  0  0  0  0  0  0  0  0
   -1.2105   16.4660   -4.9308 H   0  0  0  0  0  0  0  0  0  0  0  0
   -1.2989   17.5439   -6.3651 H   0  0  0  0  0  0  0  0  0  0  0  0
   -2.1742   15.9753   -6.3651 H   0  0  0  0  0  0  0  0  0  0  0  0
    0.7989   16.5275   -6.5804 H   0  0  0  0  0  0  0  0  0  0  0  0
    0.2224   14.4389   -8.2699 H   0  0  0  0  0  0  0  0  0  0  0  0
   -1.3215   15.4186   -8.2850 H   0  0  0  0  0  0  0  0  0  0  0  0
   -0.2187   16.4230  -10.0105 H   0  0  0  0  0  0  0  0  0  0  0  0
    0.3804   17.4133   -8.6143 H   0  0  0  0  0  0  0  0  0  0  0  0
    2.0510   15.9718   -8.3603 H   0  0  0  0  0  0  0  0  0  0  0  0
    0.3068   14.3002  -11.0271 H   0  0  0  0  0  0  0  0  0  0  0  0
    0.7900   15.5472  -12.2263 H   0  0  0  0  0  0  0  0  0  0  0  0
    1.5952   13.9415  -12.2263 H   0  0  0  0  0  0  0  0  0  0  0  0
    3.8175   14.3584   -9.5942 H   0  0  0  0  0  0  0  0  0  0  0  0
    3.3980   13.5642  -11.1498 H   0  0  0  0  0  0  0  0  0  0  0  0
    4.2499   15.1457  -11.1498 H   0  0  0  0  0  0  0  0  0  0  0  0
   -0.6860   14.1197   -5.7193 H   0  0  0  0  0  0  0  0  0  0  0  0
    0.8862   12.8752   -7.0667 H   0  0  0  0  0  0  0  0  0  0  0  0
    1.9900   14.2617   -7.1967 H   0  0  0  0  0  0  0  0  0  0  0  0
    2.3747   11.9846   -5.5146 H   0  0  0  0  0  0  0  0  0  0  0  0
    3.2654   13.4954   -5.3504 H   0  0  0  0  0  0  0  0  0  0  0  0
    0.1557   12.0141   -2.9445 H   0  0  0  0  0  0  0  0  0  0  0  0
   -0.5359   12.5915   -4.4986 H   0  0  0  0  0  0  0  0  0  0  0  0
    0.7497   11.3369   -4.4986 H   0  0  0  0  0  0  0  0  0  0  0  0
    3.1080   14.1356   -3.0202 H   0  0  0  0  0  0  0  0  0  0  0  0
    3.2707   11.5793   -3.2991 H   0  0  0  0  0  0  0  0  0  0  0  0
    3.9147   12.4155   -1.7905 H   0  0  0  0  0  0  0  0  0  0  0  0
    2.6088   10.1598   -1.4053 H   0  0  0  0  0  0  0  0  0  0  0  0
   -0.2866   12.9735   -1.3866 H   0  0  0  0  0  0  0  0  0  0  0  0
    1.2236   13.4127    1.2625 H   0  0  0  0  0  0  0  0  0  0  0  0
   -0.1991   14.3642    0.6448 H   0  0  0  0  0  0  0  0  0  0  0  0
   -0.8487   12.7335    2.3885 H   0  0  0  0  0  0  0  0  0  0  0  0
   -1.6151   12.3977    0.7868 H   0  0  0  0  0  0  0  0  0  0  0  0
   -0.8833   10.3212    1.7408 H   0  0  0  0  0  0  0  0  0  0  0  0
    1.7500   11.4890    1.7850 H   0  0  0  0  0  0  0  0  0  0  0  0
   -1.8389   10.0399   -0.1947 H   0  0  0  0  0  0  0  0  0  0  0  0
   -1.2037   11.0864   -1.5093 H   0  0  0  0  0  0  0  0  0  0  0  0
   -0.8441    9.3265   -1.5093 H   0  0  0  0  0  0  0  0  0  0  0  0
    1.0995    8.8735    1.1928 H   0  0  0  0  0  0  0  0  0  0  0  0
    0.3743    8.3172   -0.3535 H   0  0  0  0  0  0  0  0  0  0  0  0
    1.9775    9.1275   -0.3535 H   0  0  0  0  0  0  0  0  0  0  0  0
    2.2988   14.4207    0.4994 H   0  0  0  0  0  0  0  0  0  0  0  0
    3.5737   14.0532   -0.7114 H   0  0  0  0  0  0  0  0  0  0  0  0
    2.7716   15.6604   -0.7114 H   0  0  0  0  0  0  0  0  0  0  0  0
   -0.1212   15.4006   -1.1502 H   0  0  0  0  0  0  0  0  0  0  0  0
    1.3538   16.1206   -2.0103 H   0  0  0  0  0  0  0  0  0  0  0  0
   -0.8701   14.4611   -3.2296 H   0  0  0  0  0  0  0  0  0  0  0  0
   -0.4644   16.1976   -3.5263 H   0  0  0  0  0  0  0  0  0  0  0  0
    2.3179   16.2215   -3.4939 H   0  0  0  0  0  0  0  0  0  0  0  0
    2.8828   15.5149   -5.0458 H   0  0  0  0  0  0  0  0  0  0  0  0
    1.6012   16.7735   -5.0458 H   0  0  0  0  0  0  0  0  0  0  0  0
  1  2  1  0
  2  3  1  0
  3  4  1  0
  4  5  1  0
  5  6  1  0
  6  7  1  0
  7  8  1  0
  7  9  1  0
  2 10  1  0
 10 11  1  0
 11 12  1  0
 12 13  1  0
 13 14  1  1
 13 15  1  0
 15 16  1  0
 16 17  1  0
 17 18  2  0
 18 19  1  0
 19 20  1  0
 20 21  1  0
 21 22  1  0
 22 23  1  0
 22 24  1  0
 24 25  1  0
 24 26  1  0
 19 27  1  0
 27 28  1  1
 27 29  1  0
 29 30  1  0
 30 31  1  0
 31 32  1  6
  7  5  1  0
 31 10  1  0
 31 13  1  0
 27 15  1  0
 24 18  1  0
  1 33  1  0
  1 34  1  0
  1 35  1  0
  2 36  1  6
  3 37  1  0
  3 38  1  0
  4 39  1  0
  4 40  1  0
  5 41  1  1
  8 42  1  0
  8 43  1  0
  8 44  1  0
  9 45  1  0
  9 46  1  0
  9 47  1  0
 10 48  1  1
 11 49  1  0
 11 50  1  0
 12 51  1  0
 12 52  1  0
 14 53  1  0
 14 54  1  0
 14 55  1  0
 15 56  1  6
 16 57  1  0
 16 58  1  0
 17 59  1  0
 19 60  1  6
 20 61  1  0
 20 62  1  0
 21 63  1  0
 21 64  1  0
 22 65  1  1
 23 66  1  0
 25 67  1  0
 25 68  1  0
 25 69  1  0
 26 70  1  0
 26 71  1  0
 26 72  1  0
 28 73  1  0
 28 74  1  0
 28 75  1  0
 29 76  1  0
 29 77  1  0
 30 78  1  0
 30 79  1  0
 32 80  1  0
 32 81  1  0
 32 82  1  0
M  END
>  <meeko>  (9) 
{"is_sidechain": [false], "intermolecular_energy": 2.731, "internal_energy": -0.839}

$$$$
EPH_relaxed_0001_pdb2pqr_Repair_349_r2_0001_out
     RDKit          3D

 82 86  0  0  0  0  0  0  0  0999 V2000
   -0.7440   10.4040   -3.1620 C   0  0  0  0  0  0  0  0  0  0  0  0
   -0.1670   10.0980   -1.7780 C   0  0  2  0  0  0  0  0  0  0  0  0
   -1.1250    9.2420   -0.9250 C   0  0  0  0  0  0  0  0  0  0  0  0
   -2.5760    9.2710   -1.4130 C   0  0  0  0  0  0  0  0  0  0  0  0
   -3.2250    7.9240   -1.3020 C   0  0  2  0  0  0  0  0  0  0  0  0
   -3.9320    7.5020   -2.4760 O   0  0  0  0  0  0  0  0  0  0  0  0
   -4.7280    7.7180   -1.3000 C   0  0  0  0  0  0  0  0  0  0  0  0
   -5.6740    8.8720   -1.4100 C   0  0  0  0  0  0  0  0  0  0  0  0
   -5.2770    6.4590   -0.7040 C   0  0  0  0  0  0  0  0  0  0  0  0
    0.1560   11.3980   -1.0500 C   0  0  1  0  0  0  0  0  0  0  0  0
    1.2330   11.2150    0.0520 C   0  0  0  0  0  0  0  0  0  0  0  0
    2.0780   12.5150    0.0730 C   0  0  0  0  0  0  0  0  0  0  0  0
    1.2640   13.5220   -0.7730 C   0  0  1  0  0  0  0  0  0  0  0  0
    0.1690   14.0680    0.1970 C   0  0  0  0  0  0  0  0  0  0  0  0
    2.0760   14.6810   -1.4380 C   0  0  2  0  0  0  0  0  0  0  0  0
    2.7800   15.6320   -0.4540 C   0  0  0  0  0  0  0  0  0  0  0  0
    1.9770   16.8170   -0.0280 C   0  0  0  0  0  0  0  0  0  0  0  0
    0.8580   17.2600   -0.6300 C   0  0  0  0  0  0  0  0  0  0  0  0
    0.3450   16.6070   -1.9210 C   0  0  1  0  0  0  0  0  0  0  0  0
   -0.0250   17.7100   -2.9470 C   0  0  0  0  0  0  0  0  0  0  0  0
   -1.0080   18.7300   -2.3800 C   0  0  0  0  0  0  0  0  0  0  0  0
   -0.4390   19.4000   -1.1320 C   0  0  2  0  0  0  0  0  0  0  0  0
    0.6900   20.1940   -1.5090 O   0  0  0  0  0  0  0  0  0  0  0  0
   -0.0200   18.3870   -0.0300 C   0  0  0  0  0  0  0  0  0  0  0  0
   -1.2830   17.7400    0.5900 C   0  0  0  0  0  0  0  0  0  0  0  0
    0.6670   19.1810    1.1130 C   0  0  0  0  0  0  0  0  0  0  0  0
    1.2770   15.4810   -2.5450 C   0  0  1  0  0  0  0  0  0  0  0  0
    2.3420   16.1300   -3.4810 C   0  0  0  0  0  0  0  0  0  0  0  0
    0.4040   14.5360   -3.4520 C   0  0  0  0  0  0  0  0  0  0  0  0
   -0.2760   13.3400   -2.7590 C   0  0  0  0  0  0  0  0  0  0  0  0
    0.7250   12.5640   -1.8970 C   0  0  2  0  0  0  0  0  0  0  0  0
    1.8260   11.9840   -2.8480 C   0  0  0  0  0  0  0  0  0  0  0  0
   -1.7108   10.9167   -3.0510 H   0  0  0  0  0  0  0  0  0  0  0  0
   -0.0472   11.0511   -3.7149 H   0  0  0  0  0  0  0  0  0  0  0  0
   -0.8888    9.4641   -3.7149 H   0  0  0  0  0  0  0  0  0  0  0  0
    0.7541    9.5152   -1.9259 H   0  0  0  0  0  0  0  0  0  0  0  0
   -0.7722    8.2003   -0.9462 H   0  0  0  0  0  0  0  0  0  0  0  0
   -1.1185    9.6667    0.0897 H   0  0  0  0  0  0  0  0  0  0  0  0
   -3.1426    9.9910   -0.8043 H   0  0  0  0  0  0  0  0  0  0  0  0
   -2.5757    9.5654   -2.4729 H   0  0  0  0  0  0  0  0  0  0  0  0
   -2.4308    7.5701   -0.6283 H   0  0  0  0  0  0  0  0  0  0  0  0
   -5.9542    9.2138   -0.4027 H   0  0  0  0  0  0  0  0  0  0  0  0
   -5.1871    9.6947   -1.9541 H   0  0  0  0  0  0  0  0  0  0  0  0
   -6.5762    8.5559   -1.9541 H   0  0  0  0  0  0  0  0  0  0  0  0
   -5.2464    6.5291    0.3933 H   0  0  0  0  0  0  0  0  0  0  0  0
   -6.3172    6.3205   -1.0337 H   0  0  0  0  0  0  0  0  0  0  0  0
   -4.6707    5.6025   -1.0337 H   0  0  0  0  0  0  0  0  0  0  0  0
   -0.8471   11.6555   -0.6792 H   0  0  0  0  0  0  0  0  0  0  0  0
    0.7523   11.0600    1.0292 H   0  0  0  0  0  0  0  0  0  0  0  0
    1.8636   10.3377   -0.1543 H   0  0  0  0  0  0  0  0  0  0  0  0
    2.2004   12.8822    1.1026 H   0  0  0  0  0  0  0  0  0  0  0  0
    3.0922   12.3602   -0.3238 H   0  0  0  0  0  0  0  0  0  0  0  0
    0.4884   13.9087    1.2375 H   0  0  0  0  0  0  0  0  0  0  0  0
    0.0244   15.1437    0.0184 H   0  0  0  0  0  0  0  0  0  0  0  0
   -0.7772   13.5362    0.0184 H   0  0  0  0  0  0  0  0  0  0  0  0
    2.8804   14.1384   -1.9562 H   0  0  0  0  0  0  0  0  0  0  0  0
    3.0414   15.0569    0.4465 H   0  0  0  0  0  0  0  0  0  0  0  0
    3.6534   16.0325   -0.9896 H   0  0  0  0  0  0  0  0  0  0  0  0
    2.3300   17.3746    0.8520 H   0  0  0  0  0  0  0  0  0  0  0  0
   -0.5558   16.0418   -1.6397 H   0  0  0  0  0  0  0  0  0  0  0  0
    0.8939   18.2349   -3.2473 H   0  0  0  0  0  0  0  0  0  0  0  0
   -0.5096   17.2198   -3.8043 H   0  0  0  0  0  0  0  0  0  0  0  0
   -1.2089   19.4982   -3.1413 H   0  0  0  0  0  0  0  0  0  0  0  0
   -1.9368   18.2081   -2.1061 H   0  0  0  0  0  0  0  0  0  0  0  0
   -1.2361   20.0226   -0.6996 H   0  0  0  0  0  0  0  0  0  0  0  0
    1.4920   19.6910   -1.2870 H   0  0  0  0  0  0  0  0  0  0  0  0
   -1.2125   17.7761    1.6871 H   0  0  0  0  0  0  0  0  0  0  0  0
   -2.1763   18.2915    0.2616 H   0  0  0  0  0  0  0  0  0  0  0  0
   -1.3573   16.6928    0.2616 H   0  0  0  0  0  0  0  0  0  0  0  0
    0.3296   18.7910    2.0846 H   0  0  0  0  0  0  0  0  0  0  0  0
    1.7584   19.0697    1.0322 H   0  0  0  0  0  0  0  0  0  0  0  0
    0.4000   20.2450    1.0322 H   0  0  0  0  0  0  0  0  0  0  0  0
    3.1240   16.6066   -2.8716 H   0  0  0  0  0  0  0  0  0  0  0  0
    2.7940   15.3537   -4.1158 H   0  0  0  0  0  0  0  0  0  0  0  0
    1.8593   16.8876   -4.1158 H   0  0  0  0  0  0  0  0  0  0  0  0
   -0.3869   15.1500   -3.9076 H   0  0  0  0  0  0  0  0  0  0  0  0
    1.1114   14.0898   -4.1665 H   0  0  0  0  0  0  0  0  0  0  0  0
   -1.0906   13.7104   -2.1192 H   0  0  0  0  0  0  0  0  0  0  0  0
   -0.6705   12.6645   -3.5323 H   0  0  0  0  0  0  0  0  0  0  0  0
    2.6409   11.5547   -2.2466 H   0  0  0  0  0  0  0  0  0  0  0  0
    1.3866   11.2003   -3.4827 H   0  0  0  0  0  0  0  0  0  0  0  0
    2.2238   12.7896   -3.4827 H   0  0  0  0  0  0  0  0  0  0  0  0
  1  2  1  0
  2  3  1  0
  3  4  1  0
  4  5  1  0
  5  6  1  0
  6  7  1  0
  7  8  1  0
  7  9  1  0
  2 10  1  0
 10 11  1  0
 11 12  1  0
 12 13  1  0
 13 14  1  1
 13 15  1  0
 15 16  1  0
 16 17  1  0
 17 18  2  0
 18 19  1  0
 19 20  1  0
 20 21  1  0
 21 22  1  0
 22 23  1  0
 22 24  1  0
 24 25  1  0
 24 26  1  0
 19 27  1  0
 27 28  1  6
 27 29  1  0
 29 30  1  0
 30 31  1  0
 31 32  1  6
  7  5  1  0
 31 10  1  0
 31 13  1  0
 27 15  1  0
 24 18  1  0
  1 33  1  0
  1 34  1  0
  1 35  1  0
  2 36  1  6
  3 37  1  0
  3 38  1  0
  4 39  1  0
  4 40  1  0
  5 41  1  1
  8 42  1  0
  8 43  1  0
  8 44  1  0
  9 45  1  0
  9 46  1  0
  9 47  1  0
 10 48  1  1
 11 49  1  0
 11 50  1  0
 12 51  1  0
 12 52  1  0
 14 53  1  0
 14 54  1  0
 14 55  1  0
 15 56  1  6
 16 57  1  0
 16 58  1  0
 17 59  1  0
 19 60  1  1
 20 61  1  0
 20 62  1  0
 21 63  1  0
 21 64  1  0
 22 65  1  1
 23 66  1  0
 25 67  1  0
 25 68  1  0
 25 69  1  0
 26 70  1  0
 26 71  1  0
 26 72  1  0
 28 73  1  0
 28 74  1  0
 28 75  1  0
 29 76  1  0
 29 77  1  0
 30 78  1  0
 30 79  1  0
 32 80  1  0
 32 81  1  0
 32 82  1  0
M  END
>  <meeko>  (10) 
{"is_sidechain": [false], "intermolecular_energy": 2.731, "internal_energy": -0.839}

$$$$
EPH_relaxed_0001_pdb2pqr_Repair_349_r2_0001_out
     RDKit          3D

 82 86  0  0  0  0  0  0  0  0999 V2000
    0.0900   17.8550   -2.4930 C   0  0  0  0  0  0  0  0  0  0  0  0
   -0.1780   16.8930   -1.3320 C   0  0  2  0  0  0  0  0  0  0  0  0
   -0.3210   17.6330    0.0130 C   0  0  0  0  0  0  0  0  0  0  0  0
    0.3930   18.9870    0.0500 C   0  0  0  0  0  0  0  0  0  0  0  0
    1.6930   18.9080    0.7930 C   0  0  2  0  0  0  0  0  0  0  0  0
    2.6240   19.9530    0.4810 O   0  0  0  0  0  0  0  0  0  0  0  0
    3.0230   18.6200    0.1230 C   0  0  0  0  0  0  0  0  0  0  0  0
    3.1200   18.3900   -1.3530 C   0  0  0  0  0  0  0  0  0  0  0  0
    4.1430   18.0800    0.9570 C   0  0  0  0  0  0  0  0  0  0  0  0
    0.9400   15.8610   -1.2430 C   0  0  1  0  0  0  0  0  0  0  0  0
    1.2130   15.3990    0.2130 C   0  0  0  0  0  0  0  0  0  0  0  0
    1.6050   13.9010    0.1410 C   0  0  0  0  0  0  0  0  0  0  0  0
    1.8670   13.6380   -1.3600 C   0  0  1  0  0  0  0  0  0  0  0  0
    3.3170   14.1590   -1.6110 C   0  0  0  0  0  0  0  0  0  0  0  0
    1.6930   12.1620   -1.8440 C   0  0  2  0  0  0  0  0  0  0  0  0
    2.6540   11.1470   -1.2020 C   0  0  0  0  0  0  0  0  0  0  0  0
    3.9400   10.9370   -1.9300 C   0  0  0  0  0  0  0  0  0  0  0  0
    4.1940   11.3190   -3.1960 C   0  0  0  0  0  0  0  0  0  0  0  0
    3.0960   11.9470   -4.0640 C   0  0  1  0  0  0  0  0  0  0  0  0
    3.1010   11.2820   -5.4660 C   0  0  0  0  0  0  0  0  0  0  0  0
    4.4720   11.3330   -6.1320 C   0  0  0  0  0  0  0  0  0  0  0  0
    5.5260   10.6480   -5.2660 C   0  0  2  0  0  0  0  0  0  0  0  0
    5.2340    9.2480   -5.2060 O   0  0  0  0  0  0  0  0  0  0  0  0
    5.6060   11.2270   -3.8250 C   0  0  0  0  0  0  0  0  0  0  0  0
    6.2110   12.6520   -3.8700 C   0  0  0  0  0  0  0  0  0  0  0  0
    6.6040   10.3570   -3.0150 C   0  0  0  0  0  0  0  0  0  0  0  0
    1.6450   11.9970   -3.4170 C   0  0  1  0  0  0  0  0  0  0  0  0
    0.8890   10.6630   -3.7020 C   0  0  0  0  0  0  0  0  0  0  0  0
    0.8110   13.1370   -4.1130 C   0  0  0  0  0  0  0  0  0  0  0  0
    0.9330   14.5510   -3.5150 C   0  0  0  0  0  0  0  0  0  0  0  0
    0.7340   14.5230   -1.9960 C   0  0  2  0  0  0  0  0  0  0  0  0
   -0.7240   14.0240   -1.7140 C   0  0  0  0  0  0  0  0  0  0  0  0
    0.3652   18.8427   -2.0947 H   0  0  0  0  0  0  0  0  0  0  0  0
    0.9139   17.4656   -3.1091 H   0  0  0  0  0  0  0  0  0  0  0  0
   -0.8165   17.9477   -3.1091 H   0  0  0  0  0  0  0  0  0  0  0  0
   -1.1340   16.3879   -1.5343 H   0  0  0  0  0  0  0  0  0  0  0  0
   -1.3911   17.7994    0.2057 H   0  0  0  0  0  0  0  0  0  0  0  0
    0.1502   17.0002    0.7795 H   0  0  0  0  0  0  0  0  0  0  0  0
    0.5911   19.3139   -0.9814 H   0  0  0  0  0  0  0  0  0  0  0  0
   -0.2577   19.7037    0.5724 H   0  0  0  0  0  0  0  0  0  0  0  0
    1.1948   18.4609    1.6659 H   0  0  0  0  0  0  0  0  0  0  0  0
    3.5411   17.3915   -1.5416 H   0  0  0  0  0  0  0  0  0  0  0  0
    2.1175   18.4558   -1.8010 H   0  0  0  0  0  0  0  0  0  0  0  0
    3.7726   19.1538   -1.8010 H   0  0  0  0  0  0  0  0  0  0  0  0
    3.8969   18.1987    2.0225 H   0  0  0  0  0  0  0  0  0  0  0  0
    4.2874   17.0133    0.7306 H   0  0  0  0  0  0  0  0  0  0  0  0
    5.0675   18.6313    0.7306 H   0  0  0  0  0  0  0  0  0  0  0  0
    1.7560   16.4333   -1.7083 H   0  0  0  0  0  0  0  0  0  0  0  0
    2.0356   15.9853    0.6485 H   0  0  0  0  0  0  0  0  0  0  0  0
    0.3257   15.5450    0.8465 H   0  0  0  0  0  0  0  0  0  0  0  0
    2.5117   13.7080    0.7331 H   0  0  0  0  0  0  0  0  0  0  0  0
    0.8220   13.2449    0.5490 H   0  0  0  0  0  0  0  0  0  0  0  0
    3.8145   14.3378   -0.6464 H   0  0  0  0  0  0  0  0  0  0  0  0
    3.8828   13.4079   -2.1818 H   0  0  0  0  0  0  0  0  0  0  0  0
    3.2754   15.0984   -2.1818 H   0  0  0  0  0  0  0  0  0  0  0  0
    0.6923   11.9066   -1.4654 H   0  0  0  0  0  0  0  0  0  0  0  0
    2.8916   11.4989   -0.1872 H   0  0  0  0  0  0  0  0  0  0  0  0
    2.1317   10.1791   -1.2221 H   0  0  0  0  0  0  0  0  0  0  0  0
    4.7488   10.4269   -1.3862 H   0  0  0  0  0  0  0  0  0  0  0  0
    3.3523   13.0128   -4.1556 H   0  0  0  0  0  0  0  0  0  0  0  0
    2.8002   10.2294   -5.3582 H   0  0  0  0  0  0  0  0  0  0  0  0
    2.3991   11.8402   -6.1030 H   0  0  0  0  0  0  0  0  0  0  0  0
    4.4186   10.8226   -7.1050 H   0  0  0  0  0  0  0  0  0  0  0  0
    4.7583   12.3867   -6.2651 H   0  0  0  0  0  0  0  0  0  0  0  0
    6.5055   10.8304   -5.7322 H   0  0  0  0  0  0  0  0  0  0  0  0
    4.3280    9.1220   -5.5350 H   0  0  0  0  0  0  0  0  0  0  0  0
    6.3660   13.0171   -2.8440 H   0  0  0  0  0  0  0  0  0  0  0  0
    7.1751   12.6245   -4.3990 H   0  0  0  0  0  0  0  0  0  0  0  0
    5.5216   13.3265   -4.3990 H   0  0  0  0  0  0  0  0  0  0  0  0
    6.4318   10.5071   -1.9390 H   0  0  0  0  0  0  0  0  0  0  0  0
    6.4536    9.2966   -3.2660 H   0  0  0  0  0  0  0  0  0  0  0  0
    7.6339   10.6507   -3.2660 H   0  0  0  0  0  0  0  0  0  0  0  0
    0.6178   10.1845   -2.7494 H   0  0  0  0  0  0  0  0  0  0  0  0
   -0.0234   10.8746   -4.2788 H   0  0  0  0  0  0  0  0  0  0  0  0
    1.5394    9.9890   -4.2788 H   0  0  0  0  0  0  0  0  0  0  0  0
    1.1332   13.1910   -5.1634 H   0  0  0  0  0  0  0  0  0  0  0  0
   -0.2417   12.8530   -3.9676 H   0  0  0  0  0  0  0  0  0  0  0  0
    1.9325   14.9517   -3.7397 H   0  0  0  0  0  0  0  0  0  0  0  0
    0.1540   15.1881   -3.9591 H   0  0  0  0  0  0  0  0  0  0  0  0
   -0.8886   13.9677   -0.6278 H   0  0  0  0  0  0  0  0  0  0  0  0
   -1.4444   14.7267   -2.1581 H   0  0  0  0  0  0  0  0  0  0  0  0
   -0.8627   13.0272   -2.1581 H   0  0  0  0  0  0  0  0  0  0  0  0
  1  2  1  0
  2  3  1  0
  3  4  1  0
  4  5  1  0
  5  6  1  0
  6  7  1  0
  7  8  1  0
  7  9  1  0
  2 10  1  0
 10 11  1  0
 11 12  1  0
 12 13  1  0
 13 14  1  6
 13 15  1  0
 15 16  1  0
 16 17  1  0
 17 18  2  0
 18 19  1  0
 19 20  1  0
 20 21  1  0
 21 22  1  0
 22 23  1  0
 22 24  1  0
 24 25  1  0
 24 26  1  0
 19 27  1  0
 27 28  1  1
 27 29  1  0
 29 30  1  0
 30 31  1  0
 31 32  1  6
  7  5  1  0
 31 10  1  0
 31 13  1  0
 27 15  1  0
 24 18  1  0
  1 33  1  0
  1 34  1  0
  1 35  1  0
  2 36  1  6
  3 37  1  0
  3 38  1  0
  4 39  1  0
  4 40  1  0
  5 41  1  1
  8 42  1  0
  8 43  1  0
  8 44  1  0
  9 45  1  0
  9 46  1  0
  9 47  1  0
 10 48  1  6
 11 49  1  0
 11 50  1  0
 12 51  1  0
 12 52  1  0
 14 53  1  0
 14 54  1  0
 14 55  1  0
 15 56  1  1
 16 57  1  0
 16 58  1  0
 17 59  1  0
 19 60  1  6
 20 61  1  0
 20 62  1  0
 21 63  1  0
 21 64  1  0
 22 65  1  6
 23 66  1  0
 25 67  1  0
 25 68  1  0
 25 69  1  0
 26 70  1  0
 26 71  1  0
 26 72  1  0
 28 73  1  0
 28 74  1  0
 28 75  1  0
 29 76  1  0
 29 77  1  0
 30 78  1  0
 30 79  1  0
 32 80  1  0
 32 81  1  0
 32 82  1  0
M  END
>  <meeko>  (11) 
{"is_sidechain": [false], "intermolecular_energy": 2.731, "internal_energy": -0.839}

$$$$
EPH_relaxed_0001_pdb2pqr_Repair_349_r2_0001_out
     RDKit          3D

 82 86  0  0  0  0  0  0  0  0999 V2000
   -0.0750    9.3170   -2.2370 C   0  0  0  0  0  0  0  0  0  0  0  0
    1.0070   10.2940   -2.7040 C   0  0  2  0  0  0  0  0  0  0  0  0
    2.3960    9.6300   -2.7790 C   0  0  0  0  0  0  0  0  0  0  0  0
    3.3280   10.2660   -3.8140 C   0  0  0  0  0  0  0  0  0  0  0  0
    4.7090   10.4680   -3.2670 C   0  0  2  0  0  0  0  0  0  0  0  0
    5.2310   11.7920   -3.4340 O   0  0  0  0  0  0  0  0  0  0  0  0
    5.9210   10.7460   -4.1370 C   0  0  0  0  0  0  0  0  0  0  0  0
    5.8080   10.8360   -5.6260 C   0  0  0  0  0  0  0  0  0  0  0  0
    7.2800   10.4450   -3.5870 C   0  0  0  0  0  0  0  0  0  0  0  0
    1.0560   11.5000   -1.7730 C   0  0  1  0  0  0  0  0  0  0  0  0
    2.1290   11.3540   -0.6620 C   0  0  0  0  0  0  0  0  0  0  0  0
    2.7010   12.7710   -0.4030 C   0  0  0  0  0  0  0  0  0  0  0  0
    1.7200   13.7250   -1.1230 C   0  0  1  0  0  0  0  0  0  0  0  0
    0.5230   13.8900   -0.1350 C   0  0  0  0  0  0  0  0  0  0  0  0
    2.2990   15.1090   -1.5640 C   0  0  2  0  0  0  0  0  0  0  0  0
    2.7850   16.0090   -0.4150 C   0  0  0  0  0  0  0  0  0  0  0  0
    1.7570   16.9350    0.1480 C   0  0  0  0  0  0  0  0  0  0  0  0
    0.5830   17.2450   -0.4320 C   0  0  0  0  0  0  0  0  0  0  0  0
    0.2310   16.7190   -1.8290 C   0  0  1  0  0  0  0  0  0  0  0  0
   -0.3320   17.8790   -2.6920 C   0  0  0  0  0  0  0  0  0  0  0  0
   -1.5050   18.5890   -2.0240 C   0  0  0  0  0  0  0  0  0  0  0  0
   -1.1000   19.1490   -0.6620 C   0  0  2  0  0  0  0  0  0  0  0  0
   -0.1440   20.1940   -0.8600 O   0  0  0  0  0  0  0  0  0  0  0  0
   -0.5090   18.0730    0.2910 C   0  0  0  0  0  0  0  0  0  0  0  0
   -1.6300   17.1060    0.7450 C   0  0  0  0  0  0  0  0  0  0  0  0
   -0.0110   18.7930    1.5730 C   0  0  0  0  0  0  0  0  0  0  0  0
    1.3760   15.9060   -2.5730 C   0  0  1  0  0  0  0  0  0  0  0  0
    2.3080   16.8870   -3.3480 C   0  0  0  0  0  0  0  0  0  0  0  0
    0.7220   14.9680   -3.6540 C   0  0  0  0  0  0  0  0  0  0  0  0
    0.2790   13.5690   -3.1840 C   0  0  0  0  0  0  0  0  0  0  0  0
    1.3980   12.8730   -2.4040 C   0  0  2  0  0  0  0  0  0  0  0  0
    2.6080   12.6730   -3.3790 C   0  0  0  0  0  0  0  0  0  0  0  0
   -0.0993    9.2950   -1.1375 H   0  0  0  0  0  0  0  0  0  0  0  0
   -1.0535    9.6436   -2.6190 H   0  0  0  0  0  0  0  0  0  0  0  0
    0.1503    8.3104   -2.6190 H   0  0  0  0  0  0  0  0  0  0  0  0
    0.7415   10.6197   -3.7206 H   0  0  0  0  0  0  0  0  0  0  0  0
    2.8714    9.7070   -1.7900 H   0  0  0  0  0  0  0  0  0  0  0  0
    2.2368    8.5865   -3.0885 H   0  0  0  0  0  0  0  0  0  0  0  0
    3.3858    9.6080   -4.6936 H   0  0  0  0  0  0  0  0  0  0  0  0
    2.9190   11.2507   -4.0843 H   0  0  0  0  0  0  0  0  0  0  0  0
    4.5263    9.7327   -2.4695 H   0  0  0  0  0  0  0  0  0  0  0  0
    4.9729   11.5012   -5.8908 H   0  0  0  0  0  0  0  0  0  0  0  0
    6.7436   11.2391   -6.0410 H   0  0  0  0  0  0  0  0  0  0  0  0
    5.6245    9.8340   -6.0410 H   0  0  0  0  0  0  0  0  0  0  0  0
    7.2408   10.4537   -2.4877 H   0  0  0  0  0  0  0  0  0  0  0  0
    7.6048    9.4532   -3.9345 H   0  0  0  0  0  0  0  0  0  0  0  0
    7.9932   11.2069   -3.9345 H   0  0  0  0  0  0  0  0  0  0  0  0
    0.0155   11.4989   -1.4161 H   0  0  0  0  0  0  0  0  0  0  0  0
    1.6718   10.9565    0.2561 H   0  0  0  0  0  0  0  0  0  0  0  0
    2.9233   10.6578   -0.9694 H   0  0  0  0  0  0  0  0  0  0  0  0
    2.7313   12.9865    0.6753 H   0  0  0  0  0  0  0  0  0  0  0  0
    3.7323   12.8782   -0.7702 H   0  0  0  0  0  0  0  0  0  0  0  0
    0.8921   13.8391    0.9000 H   0  0  0  0  0  0  0  0  0  0  0  0
    0.0393   14.8633   -0.3043 H   0  0  0  0  0  0  0  0  0  0  0  0
   -0.2060   13.0839   -0.3043 H   0  0  0  0  0  0  0  0  0  0  0  0
    3.2035   14.8202   -2.1194 H   0  0  0  0  0  0  0  0  0  0  0  0
    3.1397   15.3595    0.3989 H   0  0  0  0  0  0  0  0  0  0  0  0
    3.5710   16.6496   -0.8415 H   0  0  0  0  0  0  0  0  0  0  0  0
    1.9783   17.4030    1.1186 H   0  0  0  0  0  0  0  0  0  0  0  0
   -0.5449   15.9538   -1.6790 H   0  0  0  0  0  0  0  0  0  0  0  0
    0.4706   18.6109   -2.8657 H   0  0  0  0  0  0  0  0  0  0  0  0
   -0.6968   17.4467   -3.6354 H   0  0  0  0  0  0  0  0  0  0  0  0
   -1.8396   19.4156   -2.6681 H   0  0  0  0  0  0  0  0  0  0  0  0
   -2.3178   17.8625   -1.8773 H   0  0  0  0  0  0  0  0  0  0  0  0
   -2.0108   19.5306   -0.1773 H   0  0  0  0  0  0  0  0  0  0  0  0
    0.0690   20.5670    0.0120 H   0  0  0  0  0  0  0  0  0  0  0  0
   -1.6652   17.0756    1.8440 H   0  0  0  0  0  0  0  0  0  0  0  0
   -2.5972   17.4578    0.3567 H   0  0  0  0  0  0  0  0  0  0  0  0
   -1.4239   16.0976    0.3567 H   0  0  0  0  0  0  0  0  0  0  0  0
   -0.3806   18.2587    2.4606 H   0  0  0  0  0  0  0  0  0  0  0  0
    1.0889   18.8043    1.5834 H   0  0  0  0  0  0  0  0  0  0  0  0
   -0.3884   19.8262    1.5834 H   0  0  0  0  0  0  0  0  0  0  0  0
    2.8822   17.4913   -2.6303 H   0  0  0  0  0  0  0  0  0  0  0  0
    3.0008   16.3122   -3.9802 H   0  0  0  0  0  0  0  0  0  0  0  0
    1.6985   17.5494   -3.9802 H   0  0  0  0  0  0  0  0  0  0  0  0
   -0.1663   15.4834   -4.0480 H   0  0  0  0  0  0  0  0  0  0  0  0
    1.5152   14.7851   -4.3939 H   0  0  0  0  0  0  0  0  0  0  0  0
   -0.6031   13.6701   -2.5347 H   0  0  0  0  0  0  0  0  0  0  0  0
    0.0381   12.9617   -4.0689 H   0  0  0  0  0  0  0  0  0  0  0  0
    3.5279   12.5209   -2.7954 H   0  0  0  0  0  0  0  0  0  0  0  0
    2.4263   11.7927   -4.0131 H   0  0  0  0  0  0  0  0  0  0  0  0
    2.7193   13.5649   -4.0131 H   0  0  0  0  0  0  0  0  0  0  0  0
  1  2  1  0
  2  3  1  0
  3  4  1  0
  4  5  1  0
  5  6  1  0
  6  7  1  0
  7  8  1  0
  7  9  1  0
  2 10  1  0
 10 11  1  0
 11 12  1  0
 12 13  1  0
 13 14  1  1
 13 15  1  0
 15 16  1  0
 16 17  1  0
 17 18  2  0
 18 19  1  0
 19 20  1  0
 20 21  1  0
 21 22  1  0
 22 23  1  0
 22 24  1  0
 24 25  1  0
 24 26  1  0
 19 27  1  0
 27 28  1  6
 27 29  1  0
 29 30  1  0
 30 31  1  0
 31 32  1  6
  7  5  1  0
 31 10  1  0
 31 13  1  0
 27 15  1  0
 24 18  1  0
  1 33  1  0
  1 34  1  0
  1 35  1  0
  2 36  1  6
  3 37  1  0
  3 38  1  0
  4 39  1  0
  4 40  1  0
  5 41  1  1
  8 42  1  0
  8 43  1  0
  8 44  1  0
  9 45  1  0
  9 46  1  0
  9 47  1  0
 10 48  1  1
 11 49  1  0
 11 50  1  0
 12 51  1  0
 12 52  1  0
 14 53  1  0
 14 54  1  0
 14 55  1  0
 15 56  1  6
 16 57  1  0
 16 58  1  0
 17 59  1  0
 19 60  1  1
 20 61  1  0
 20 62  1  0
 21 63  1  0
 21 64  1  0
 22 65  1  1
 23 66  1  0
 25 67  1  0
 25 68  1  0
 25 69  1  0
 26 70  1  0
 26 71  1  0
 26 72  1  0
 28 73  1  0
 28 74  1  0
 28 75  1  0
 29 76  1  0
 29 77  1  0
 30 78  1  0
 30 79  1  0
 32 80  1  0
 32 81  1  0
 32 82  1  0
M  END
>  <meeko>  (12) 
{"is_sidechain": [false], "intermolecular_energy": 2.731, "internal_energy": -0.839}

$$$$
EPH_relaxed_0001_pdb2pqr_Repair_349_r2_0001_out
     RDKit          3D

 82 86  0  0  0  0  0  0  0  0999 V2000
   -0.5300   18.6680   -2.3470 C   0  0  0  0  0  0  0  0  0  0  0  0
    0.4100   18.2470   -1.2140 C   0  0  2  0  0  0  0  0  0  0  0  0
    1.5350   19.2740   -0.9800 C   0  0  0  0  0  0  0  0  0  0  0  0
    1.7220   19.6580    0.4910 C   0  0  0  0  0  0  0  0  0  0  0  0
    3.1690   19.6630    0.8820 C   0  0  2  0  0  0  0  0  0  0  0  0
    3.6130   18.4760    1.5510 O   0  0  0  0  0  0  0  0  0  0  0  0
    3.6460   19.6880    2.3220 C   0  0  0  0  0  0  0  0  0  0  0  0
    2.6790   19.7090    3.4640 C   0  0  0  0  0  0  0  0  0  0  0  0
    5.0290   20.1820    2.6100 C   0  0  0  0  0  0  0  0  0  0  0  0
    1.0080   16.8780   -1.5170 C   0  0  1  0  0  0  0  0  0  0  0  0
    2.5600   16.8850   -1.4880 C   0  0  0  0  0  0  0  0  0  0  0  0
    3.0030   15.5090   -0.9270 C   0  0  0  0  0  0  0  0  0  0  0  0
    1.7230   14.6420   -0.9650 C   0  0  1  0  0  0  0  0  0  0  0  0
    1.6170   14.1470   -2.4410 C   0  0  0  0  0  0  0  0  0  0  0  0
    1.6640   13.4530    0.0480 C   0  0  2  0  0  0  0  0  0  0  0  0
    2.7470   12.3770   -0.1450 C   0  0  0  0  0  0  0  0  0  0  0  0
    2.3740   11.2530   -1.0550 C   0  0  0  0  0  0  0  0  0  0  0  0
    1.1260   10.9610   -1.4650 C   0  0  0  0  0  0  0  0  0  0  0  0
   -0.0820   11.7410   -0.9310 C   0  0  1  0  0  0  0  0  0  0  0  0
   -1.2020   10.7470   -0.5250 C   0  0  0  0  0  0  0  0  0  0  0  0
   -1.5770    9.7950   -1.6570 C   0  0  0  0  0  0  0  0  0  0  0  0
   -0.3620    8.9950   -2.1220 C   0  0  2  0  0  0  0  0  0  0  0  0
    0.0440    8.1180   -1.0670 O   0  0  0  0  0  0  0  0  0  0  0  0
    0.8350    9.8910   -2.5470 C   0  0  0  0  0  0  0  0  0  0  0  0
    0.4960   10.6190   -3.8710 C   0  0  0  0  0  0  0  0  0  0  0  0
    2.0390    8.9620   -2.8580 C   0  0  0  0  0  0  0  0  0  0  0  0
    0.2290   12.8060    0.2070 C   0  0  1  0  0  0  0  0  0  0  0  0
    0.2030   12.1160    1.6050 C   0  0  0  0  0  0  0  0  0  0  0  0
   -0.9160   13.8880    0.2250 C   0  0  0  0  0  0  0  0  0  0  0  0
   -0.7420   15.0990   -0.7110 C   0  0  0  0  0  0  0  0  0  0  0  0
    0.6510   15.7170   -0.5560 C   0  0  2  0  0  0  0  0  0  0  0  0
    0.7790   16.2440    0.9140 C   0  0  0  0  0  0  0  0  0  0  0  0
   -1.4555   19.0825   -1.9207 H   0  0  0  0  0  0  0  0  0  0  0  0
   -0.0378   19.4317   -2.9671 H   0  0  0  0  0  0  0  0  0  0  0  0
   -0.7720   17.7923   -2.9671 H   0  0  0  0  0  0  0  0  0  0  0  0
   -0.1863   18.1963   -0.2910 H   0  0  0  0  0  0  0  0  0  0  0  0
    2.4784   18.8460   -1.3498 H   0  0  0  0  0  0  0  0  0  0  0  0
    1.2506   20.1904   -1.5178 H   0  0  0  0  0  0  0  0  0  0  0  0
    1.3053   20.6630    0.6530 H   0  0  0  0  0  0  0  0  0  0  0  0
    1.2018   18.9117    1.1095 H   0  0  0  0  0  0  0  0  0  0  0  0
    3.4270   20.2795    0.0083 H   0  0  0  0  0  0  0  0  0  0  0  0
    3.2333   19.6970    4.4141 H   0  0  0  0  0  0  0  0  0  0  0  0
    2.0660   20.6207    3.4087 H   0  0  0  0  0  0  0  0  0  0  0  0
    2.0270   18.8248    3.4087 H   0  0  0  0  0  0  0  0  0  0  0  0
    5.1799   20.2359    3.6983 H   0  0  0  0  0  0  0  0  0  0  0  0
    5.7639   19.4908    2.1717 H   0  0  0  0  0  0  0  0  0  0  0  0
    5.1597   21.1824    2.1717 H   0  0  0  0  0  0  0  0  0  0  0  0
    0.5628   16.6973   -2.5065 H   0  0  0  0  0  0  0  0  0  0  0  0
    2.9572   17.0255   -2.5041 H   0  0  0  0  0  0  0  0  0  0  0  0
    2.9397   17.7070   -0.8634 H   0  0  0  0  0  0  0  0  0  0  0  0
    3.7897   15.0679   -1.5567 H   0  0  0  0  0  0  0  0  0  0  0  0
    3.4238   15.5875    0.0863 H   0  0  0  0  0  0  0  0  0  0  0  0
    1.3867   13.0714   -2.4514 H   0  0  0  0  0  0  0  0  0  0  0  0
    0.8166   14.6984   -2.9561 H   0  0  0  0  0  0  0  0  0  0  0  0
    2.5730   14.3222   -2.9561 H   0  0  0  0  0  0  0  0  0  0  0  0
    1.8988   13.9461    1.0029 H   0  0  0  0  0  0  0  0  0  0  0  0
    3.6420   12.8657   -0.5575 H   0  0  0  0  0  0  0  0  0  0  0  0
    2.9083   11.9263    0.8454 H   0  0  0  0  0  0  0  0  0  0  0  0
    3.1879   10.6098   -1.4208 H   0  0  0  0  0  0  0  0  0  0  0  0
   -0.4271   12.3735   -1.7622 H   0  0  0  0  0  0  0  0  0  0  0  0
   -0.8534   10.1542    0.3335 H   0  0  0  0  0  0  0  0  0  0  0  0
   -2.0964   11.3359   -0.2734 H   0  0  0  0  0  0  0  0  0  0  0  0
   -2.3513    9.0995   -1.3009 H   0  0  0  0  0  0  0  0  0  0  0  0
   -1.9527   10.3875   -2.5043 H   0  0  0  0  0  0  0  0  0  0  0  0
   -0.6624    8.4283   -3.0157 H   0  0  0  0  0  0  0  0  0  0  0  0
    1.0050    8.2120   -0.9600 H   0  0  0  0  0  0  0  0  0  0  0  0
    0.0414   11.5952   -3.6467 H   0  0  0  0  0  0  0  0  0  0  0  0
    1.4171   10.7686   -4.4534 H   0  0  0  0  0  0  0  0  0  0  0  0
   -0.2113   10.0103   -4.4534 H   0  0  0  0  0  0  0  0  0  0  0  0
    2.4879    8.6156   -1.9154 H   0  0  0  0  0  0  0  0  0  0  0  0
    1.6925    8.0949   -3.4395 H   0  0  0  0  0  0  0  0  0  0  0  0
    2.7898    9.5171   -3.4395 H   0  0  0  0  0  0  0  0  0  0  0  0
    0.2319   12.8829    2.3930 H   0  0  0  0  0  0  0  0  0  0  0  0
   -0.7181   11.5230    1.7041 H   0  0  0  0  0  0  0  0  0  0  0  0
    1.0769   11.4553    1.7041 H   0  0  0  0  0  0  0  0  0  0  0  0
   -1.8538   13.3847   -0.0528 H   0  0  0  0  0  0  0  0  0  0  0  0
   -0.9010   14.3060    1.2424 H   0  0  0  0  0  0  0  0  0  0  0  0
   -0.8761   14.7710   -1.7523 H   0  0  0  0  0  0  0  0  0  0  0  0
   -1.4933   15.8575   -0.4460 H   0  0  0  0  0  0  0  0  0  0  0  0
    0.5793   15.4218    1.6170 H   0  0  0  0  0  0  0  0  0  0  0  0
    1.7965   16.6281    1.0785 H   0  0  0  0  0  0  0  0  0  0  0  0
    0.0510   17.0521    1.0785 H   0  0  0  0  0  0  0  0  0  0  0  0
  1  2  1  0
  2  3  1  0
  3  4  1  0
  4  5  1  0
  5  6  1  0
  6  7  1  0
  7  8  1  0
  7  9  1  0
  2 10  1  0
 10 11  1  0
 11 12  1  0
 12 13  1  0
 13 14  1  6
 13 15  1  0
 15 16  1  0
 16 17  1  0
 17 18  2  0
 18 19  1  0
 19 20  1  0
 20 21  1  0
 21 22  1  0
 22 23  1  0
 22 24  1  0
 24 25  1  0
 24 26  1  0
 19 27  1  0
 27 28  1  1
 27 29  1  0
 29 30  1  0
 30 31  1  0
 31 32  1  1
  7  5  1  0
 31 10  1  0
 31 13  1  0
 27 15  1  0
 24 18  1  0
  1 33  1  0
  1 34  1  0
  1 35  1  0
  2 36  1  1
  3 37  1  0
  3 38  1  0
  4 39  1  0
  4 40  1  0
  5 41  1  6
  8 42  1  0
  8 43  1  0
  8 44  1  0
  9 45  1  0
  9 46  1  0
  9 47  1  0
 10 48  1  6
 11 49  1  0
 11 50  1  0
 12 51  1  0
 12 52  1  0
 14 53  1  0
 14 54  1  0
 14 55  1  0
 15 56  1  1
 16 57  1  0
 16 58  1  0
 17 59  1  0
 19 60  1  6
 20 61  1  0
 20 62  1  0
 21 63  1  0
 21 64  1  0
 22 65  1  6
 23 66  1  0
 25 67  1  0
 25 68  1  0
 25 69  1  0
 26 70  1  0
 26 71  1  0
 26 72  1  0
 28 73  1  0
 28 74  1  0
 28 75  1  0
 29 76  1  0
 29 77  1  0
 30 78  1  0
 30 79  1  0
 32 80  1  0
 32 81  1  0
 32 82  1  0
M  END
>  <meeko>  (13) 
{"is_sidechain": [false], "intermolecular_energy": 2.731, "internal_energy": -0.839}

$$$$
EPH_relaxed_0001_pdb2pqr_Repair_349_r2_0001_out
     RDKit          3D

 82 86  0  0  0  0  0  0  0  0999 V2000
    2.5730   16.2850   -7.3480 C   0  0  0  0  0  0  0  0  0  0  0  0
    1.4410   15.2630   -7.2150 C   0  0  2  0  0  0  0  0  0  0  0  0
    0.2060   15.6530   -8.0510 C   0  0  0  0  0  0  0  0  0  0  0  0
    0.5510   16.3340   -9.3790 C   0  0  0  0  0  0  0  0  0  0  0  0
    1.9450   16.0100   -9.8210 C   0  0  2  0  0  0  0  0  0  0  0  0
    2.3160   16.5680  -11.0890 O   0  0  0  0  0  0  0  0  0  0  0  0
    2.2610   15.1340  -11.0190 C   0  0  0  0  0  0  0  0  0  0  0  0
    1.1740   14.5260  -11.8490 C   0  0  0  0  0  0  0  0  0  0  0  0
    3.6030   14.4750  -11.0900 C   0  0  0  0  0  0  0  0  0  0  0  0
    1.0500   15.1090   -5.7500 C   0  0  1  0  0  0  0  0  0  0  0  0
   -0.2640   15.8560   -5.4000 C   0  0  0  0  0  0  0  0  0  0  0  0
   -0.9960   14.9980   -4.3360 C   0  0  0  0  0  0  0  0  0  0  0  0
    0.0620   13.9710   -3.8680 C   0  0  1  0  0  0  0  0  0  0  0  0
    0.9360   14.7410   -2.8290 C   0  0  0  0  0  0  0  0  0  0  0  0
   -0.4890   12.6320   -3.2780 C   0  0  2  0  0  0  0  0  0  0  0  0
   -1.3330   12.7790   -2.0000 C   0  0  0  0  0  0  0  0  0  0  0  0
   -0.5690   12.7020   -0.7200 C   0  0  0  0  0  0  0  0  0  0  0  0
    0.6880   12.2400   -0.5850 C   0  0  0  0  0  0  0  0  0  0  0  0
    1.4390   11.6410   -1.7810 C   0  0  1  0  0  0  0  0  0  0  0  0
    2.1160   10.3120   -1.3550 C   0  0  0  0  0  0  0  0  0  0  0  0
    3.0090   10.4780   -0.1290 C   0  0  0  0  0  0  0  0  0  0  0  0
    2.2140   11.0210    1.0560 C   0  0  2  0  0  0  0  0  0  0  0  0
    1.2630   10.0320    1.4650 O   0  0  0  0  0  0  0  0  0  0  0  0
    1.4790   12.3540    0.7410 C   0  0  0  0  0  0  0  0  0  0  0  0
    2.5140   13.4960    0.5940 C   0  0  0  0  0  0  0  0  0  0  0  0
    0.6030   12.7180    1.9700 C   0  0  0  0  0  0  0  0  0  0  0  0
    0.6010   11.4950   -3.1240 C   0  0  1  0  0  0  0  0  0  0  0  0
   -0.1680   10.1380   -3.1270 C   0  0  0  0  0  0  0  0  0  0  0  0
    1.5920   11.4460   -4.3460 C   0  0  0  0  0  0  0  0  0  0  0  0
    2.0050   12.7980   -4.9600 C   0  0  0  0  0  0  0  0  0  0  0  0
    0.7790   13.6730   -5.2340 C   0  0  2  0  0  0  0  0  0  0  0  0
   -0.1090   12.9340   -6.2930 C   0  0  0  0  0  0  0  0  0  0  0  0
    2.9110   16.5902   -6.3467 H   0  0  0  0  0  0  0  0  0  0  0  0
    3.4126   15.8329   -7.8964 H   0  0  0  0  0  0  0  0  0  0  0  0
    2.2088   17.1662   -7.8964 H   0  0  0  0  0  0  0  0  0  0  0  0
    1.8135   14.3037   -7.6036 H   0  0  0  0  0  0  0  0  0  0  0  0
   -0.3688   14.7405   -8.2678 H   0  0  0  0  0  0  0  0  0  0  0  0
   -0.3678   16.3795   -7.4569 H   0  0  0  0  0  0  0  0  0  0  0  0
   -0.1559   15.9922  -10.1493 H   0  0  0  0  0  0  0  0  0  0  0  0
    0.4807   17.4223   -9.2352 H   0  0  0  0  0  0  0  0  0  0  0  0
    2.2956   15.9888   -8.7786 H   0  0  0  0  0  0  0  0  0  0  0  0
    0.4058   14.0963  -11.1893 H   0  0  0  0  0  0  0  0  0  0  0  0
    0.7202   15.3013  -12.4838 H   0  0  0  0  0  0  0  0  0  0  0  0
    1.5971   13.7336  -12.4838 H   0  0  0  0  0  0  0  0  0  0  0  0
    3.9759   14.2919  -10.0715 H   0  0  0  0  0  0  0  0  0  0  0  0
    3.5138   13.5182  -11.6254 H   0  0  0  0  0  0  0  0  0  0  0  0
    4.3056   15.1306  -11.6254 H   0  0  0  0  0  0  0  0  0  0  0  0
    1.9545   15.5157   -5.2740 H   0  0  0  0  0  0  0  0  0  0  0  0
   -0.0365   16.8521   -4.9924 H   0  0  0  0  0  0  0  0  0  0  0  0
   -0.8896   15.9951   -6.2940 H   0  0  0  0  0  0  0  0  0  0  0  0
   -1.3288   15.6235   -3.4946 H   0  0  0  0  0  0  0  0  0  0  0  0
   -1.8979   14.5139   -4.7388 H   0  0  0  0  0  0  0  0  0  0  0  0
    0.6233   14.4655   -1.8110 H   0  0  0  0  0  0  0  0  0  0  0  0
    1.9940   14.4761   -2.9719 H   0  0  0  0  0  0  0  0  0  0  0  0
    0.8066   15.8240   -2.9719 H   0  0  0  0  0  0  0  0  0  0  0  0
   -1.1883   12.3005   -4.0597 H   0  0  0  0  0  0  0  0  0  0  0  0
   -1.8380   13.7556   -2.0364 H   0  0  0  0  0  0  0  0  0  0  0  0
   -2.0263   11.9250   -1.9928 H   0  0  0  0  0  0  0  0  0  0  0  0
   -1.0766   13.0528    0.1907 H   0  0  0  0  0  0  0  0  0  0  0  0
    2.2062   12.3790   -2.0580 H   0  0  0  0  0  0  0  0  0  0  0  0
    1.3326    9.5753   -1.1236 H   0  0  0  0  0  0  0  0  0  0  0  0
    2.7514    9.9783   -2.1886 H   0  0  0  0  0  0  0  0  0  0  0  0
    3.4350    9.5005    0.1410 H   0  0  0  0  0  0  0  0  0  0  0  0
    3.8092   11.1926   -0.3718 H   0  0  0  0  0  0  0  0  0  0  0  0
    2.9303   11.2405    1.8615 H   0  0  0  0  0  0  0  0  0  0  0  0
    1.7570    9.2280    1.6980 H   0  0  0  0  0  0  0  0  0  0  0  0
    2.8252   13.8394    1.5916 H   0  0  0  0  0  0  0  0  0  0  0  0
    3.3916   13.1268    0.0430 H   0  0  0  0  0  0  0  0  0  0  0  0
    2.0606   14.3331    0.0430 H   0  0  0  0  0  0  0  0  0  0  0  0
    1.1542   12.4889    2.8939 H   0  0  0  0  0  0  0  0  0  0  0  0
    0.3617   13.7909    1.9434 H   0  0  0  0  0  0  0  0  0  0  0  0
   -0.3276   12.1321    1.9434 H   0  0  0  0  0  0  0  0  0  0  0  0
   -0.3498    9.8173   -2.0906 H   0  0  0  0  0  0  0  0  0  0  0  0
   -1.1297   10.2627   -3.6463 H   0  0  0  0  0  0  0  0  0  0  0  0
    0.4331    9.3771   -3.6463 H   0  0  0  0  0  0  0  0  0  0  0  0
    2.5087   10.9387   -4.0110 H   0  0  0  0  0  0  0  0  0  0  0  0
    1.0414   10.9242   -5.1426 H   0  0  0  0  0  0  0  0  0  0  0  0
    2.6721   13.3223   -4.2599 H   0  0  0  0  0  0  0  0  0  0  0  0
    2.5200   12.6075   -5.9132 H   0  0  0  0  0  0  0  0  0  0  0  0
   -0.8554   12.3128   -5.7763 H   0  0  0  0  0  0  0  0  0  0  0  0
   -0.6219   13.6756   -6.9230 H   0  0  0  0  0  0  0  0  0  0  0  0
    0.5271   12.2949   -6.9230 H   0  0  0  0  0  0  0  0  0  0  0  0
  1  2  1  0
  2  3  1  0
  3  4  1  0
  4  5  1  0
  5  6  1  0
  6  7  1  0
  7  8  1  0
  7  9  1  0
  2 10  1  0
 10 11  1  0
 11 12  1  0
 12 13  1  0
 13 14  1  1
 13 15  1  0
 15 16  1  0
 16 17  1  0
 17 18  2  0
 18 19  1  0
 19 20  1  0
 20 21  1  0
 21 22  1  0
 22 23  1  0
 22 24  1  0
 24 25  1  0
 24 26  1  0
 19 27  1  0
 27 28  1  1
 27 29  1  0
 29 30  1  0
 30 31  1  0
 31 32  1  6
  7  5  1  0
 31 10  1  0
 31 13  1  0
 27 15  1  0
 24 18  1  0
  1 33  1  0
  1 34  1  0
  1 35  1  0
  2 36  1  6
  3 37  1  0
  3 38  1  0
  4 39  1  0
  4 40  1  0
  5 41  1  1
  8 42  1  0
  8 43  1  0
  8 44  1  0
  9 45  1  0
  9 46  1  0
  9 47  1  0
 10 48  1  1
 11 49  1  0
 11 50  1  0
 12 51  1  0
 12 52  1  0
 14 53  1  0
 14 54  1  0
 14 55  1  0
 15 56  1  6
 16 57  1  0
 16 58  1  0
 17 59  1  0
 19 60  1  6
 20 61  1  0
 20 62  1  0
 21 63  1  0
 21 64  1  0
 22 65  1  1
 23 66  1  0
 25 67  1  0
 25 68  1  0
 25 69  1  0
 26 70  1  0
 26 71  1  0
 26 72  1  0
 28 73  1  0
 28 74  1  0
 28 75  1  0
 29 76  1  0
 29 77  1  0
 30 78  1  0
 30 79  1  0
 32 80  1  0
 32 81  1  0
 32 82  1  0
M  END
>  <meeko>  (14) 
{"is_sidechain": [false], "intermolecular_energy": 2.731, "internal_energy": -0.839}

$$$$
EPH_relaxed_0001_pdb2pqr_Repair_349_r2_0001_out
     RDKit          3D

 82 86  0  0  0  0  0  0  0  0999 V2000
   -0.0910    9.3980   -4.3000 C   0  0  0  0  0  0  0  0  0  0  0  0
    0.1940    9.6250   -2.8130 C   0  0  2  0  0  0  0  0  0  0  0  0
   -0.4930    8.5700   -1.9220 C   0  0  0  0  0  0  0  0  0  0  0  0
   -2.0220    8.6330   -1.9620 C   0  0  0  0  0  0  0  0  0  0  0  0
   -2.6100    7.4220   -2.6200 C   0  0  2  0  0  0  0  0  0  0  0  0
   -3.6560    7.7000   -3.5600 O   0  0  0  0  0  0  0  0  0  0  0  0
   -4.0360    6.9550   -2.3920 C   0  0  0  0  0  0  0  0  0  0  0  0
   -4.9610    7.6920   -1.4750 C   0  0  0  0  0  0  0  0  0  0  0  0
   -4.3730    5.5240   -2.6720 C   0  0  0  0  0  0  0  0  0  0  0  0
   -0.2550   11.0230   -2.4060 C   0  0  1  0  0  0  0  0  0  0  0  0
   -1.4620   11.0030   -1.4310 C   0  0  0  0  0  0  0  0  0  0  0  0
   -1.2720   12.1950   -0.4580 C   0  0  0  0  0  0  0  0  0  0  0  0
   -0.1550   13.0490   -1.1020 C   0  0  1  0  0  0  0  0  0  0  0  0
   -0.8790   13.8950   -2.1970 C   0  0  0  0  0  0  0  0  0  0  0  0
    0.6720   13.9510   -0.1290 C   0  0  2  0  0  0  0  0  0  0  0  0
   -0.1360   15.0370    0.6010 C   0  0  0  0  0  0  0  0  0  0  0  0
   -0.2170   16.3520   -0.1000 C   0  0  0  0  0  0  0  0  0  0  0  0
    0.5660   16.7430   -1.1230 C   0  0  0  0  0  0  0  0  0  0  0  0
    1.7220   15.8600   -1.6120 C   0  0  1  0  0  0  0  0  0  0  0  0
    2.9950   16.7270   -1.7940 C   0  0  0  0  0  0  0  0  0  0  0  0
    2.7570   17.9310   -2.7000 C   0  0  0  0  0  0  0  0  0  0  0  0
    1.6410   18.8160   -2.1500 C   0  0  2  0  0  0  0  0  0  0  0  0
    2.0810   19.4020   -0.9210 O   0  0  0  0  0  0  0  0  0  0  0  0
    0.3100   18.0480   -1.9160 C   0  0  0  0  0  0  0  0  0  0  0  0
   -0.3210   17.6730   -3.2790 C   0  0  0  0  0  0  0  0  0  0  0  0
   -0.6870   19.0200   -1.2280 C   0  0  0  0  0  0  0  0  0  0  0  0
    1.9960   14.5440   -0.7630 C   0  0  1  0  0  0  0  0  0  0  0  0
    2.9530   14.8670    0.4250 C   0  0  0  0  0  0  0  0  0  0  0  0
    2.7480   13.4970   -1.6670 C   0  0  0  0  0  0  0  0  0  0  0  0
    1.8720   12.5540   -2.5140 C   0  0  0  0  0  0  0  0  0  0  0  0
    0.7740   11.9110   -1.6610 C   0  0  2  0  0  0  0  0  0  0  0  0
    1.4710   11.0360   -0.5650 C   0  0  0  0  0  0  0  0  0  0  0  0
   -0.9472    8.7161   -4.4093 H   0  0  0  0  0  0  0  0  0  0  0  0
   -0.3249   10.3600   -4.7795 H   0  0  0  0  0  0  0  0  0  0  0  0
    0.7943    8.9549   -4.7795 H   0  0  0  0  0  0  0  0  0  0  0  0
    1.2794    9.5251   -2.6648 H   0  0  0  0  0  0  0  0  0  0  0  0
   -0.1775    7.5717   -2.2595 H   0  0  0  0  0  0  0  0  0  0  0  0
   -0.1895    8.7776   -0.8853 H   0  0  0  0  0  0  0  0  0  0  0  0
   -2.4030    8.6995   -0.9322 H   0  0  0  0  0  0  0  0  0  0  0  0
   -2.3134    9.5170   -2.5482 H   0  0  0  0  0  0  0  0  0  0  0  0
   -1.6447    6.8970   -2.5698 H   0  0  0  0  0  0  0  0  0  0  0  0
   -4.6906    7.4766   -0.4307 H   0  0  0  0  0  0  0  0  0  0  0  0
   -4.8765    8.7730   -1.6601 H   0  0  0  0  0  0  0  0  0  0  0  0
   -5.9958    7.3681   -1.6601 H   0  0  0  0  0  0  0  0  0  0  0  0
   -4.5000    4.9845   -1.7218 H   0  0  0  0  0  0  0  0  0  0  0  0
   -5.3076    5.4737   -3.2500 H   0  0  0  0  0  0  0  0  0  0  0  0
   -3.5591    5.0619   -3.2500 H   0  0  0  0  0  0  0  0  0  0  0  0
   -0.4682   11.4448   -3.3993 H   0  0  0  0  0  0  0  0  0  0  0  0
   -2.4024   11.1169   -1.9902 H   0  0  0  0  0  0  0  0  0  0  0  0
   -1.5110   10.0504   -0.8832 H   0  0  0  0  0  0  0  0  0  0  0  0
   -2.2021   12.7755   -0.3685 H   0  0  0  0  0  0  0  0  0  0  0  0
   -1.0123   11.8663    0.5591 H   0  0  0  0  0  0  0  0  0  0  0  0
   -1.5218   14.6461   -1.7146 H   0  0  0  0  0  0  0  0  0  0  0  0
   -0.1302   14.4014   -2.8238 H   0  0  0  0  0  0  0  0  0  0  0  0
   -1.4950   13.2334   -2.8238 H   0  0  0  0  0  0  0  0  0  0  0  0
    0.9812   13.2367    0.6482 H   0  0  0  0  0  0  0  0  0  0  0  0
   -1.1609   14.6623    0.7397 H   0  0  0  0  0  0  0  0  0  0  0  0
    0.3954   15.2281    1.5450 H   0  0  0  0  0  0  0  0  0  0  0  0
   -0.9813   17.0620    0.2488 H   0  0  0  0  0  0  0  0  0  0  0  0
    1.4049   15.4546   -2.5841 H   0  0  0  0  0  0  0  0  0  0  0  0
    3.3207   17.0871   -0.8070 H   0  0  0  0  0  0  0  0  0  0  0  0
    3.7627   16.0982   -2.2685 H   0  0  0  0  0  0  0  0  0  0  0  0
    3.6836   18.5200   -2.7667 H   0  0  0  0  0  0  0  0  0  0  0  0
    2.4592   17.5682   -3.6948 H   0  0  0  0  0  0  0  0  0  0  0  0
    1.4293   19.5879   -2.9045 H   0  0  0  0  0  0  0  0  0  0  0  0
    1.3610   19.9650   -0.5890 H   0  0  0  0  0  0  0  0  0  0  0  0
   -1.2554   17.1177   -3.1101 H   0  0  0  0  0  0  0  0  0  0  0  0
   -0.5368   18.5895   -3.8477 H   0  0  0  0  0  0  0  0  0  0  0  0
    0.3809   17.0453   -3.8477 H   0  0  0  0  0  0  0  0  0  0  0  0
   -0.5934   18.9288   -0.1358 H   0  0  0  0  0  0  0  0  0  0  0  0
   -0.4599   20.0529   -1.5305 H   0  0  0  0  0  0  0  0  0  0  0  0
   -1.7138   18.7667   -1.5305 H   0  0  0  0  0  0  0  0  0  0  0  0
    2.4294   14.6903    1.3761 H   0  0  0  0  0  0  0  0  0  0  0  0
    3.8396   14.2183    0.3685 H   0  0  0  0  0  0  0  0  0  0  0  0
    3.2651   15.9203    0.3685 H   0  0  0  0  0  0  0  0  0  0  0  0
    3.3963   14.0576   -2.3565 H   0  0  0  0  0  0  0  0  0  0  0  0
    3.2812   12.8402   -0.9639 H   0  0  0  0  0  0  0  0  0  0  0  0
    1.4053   13.1298   -3.3268 H   0  0  0  0  0  0  0  0  0  0  0  0
    2.5097   11.7568   -2.9235 H   0  0  0  0  0  0  0  0  0  0  0  0
    1.1820   11.3988    0.4324 H   0  0  0  0  0  0  0  0  0  0  0  0
    1.1578    9.9877   -0.6788 H   0  0  0  0  0  0  0  0  0  0  0  0
    2.5628   11.1069   -0.6788 H   0  0  0  0  0  0  0  0  0  0  0  0
  1  2  1  0
  2  3  1  0
  3  4  1  0
  4  5  1  0
  5  6  1  0
  6  7  1  0
  7  8  1  0
  7  9  1  0
  2 10  1  0
 10 11  1  0
 11 12  1  0
 12 13  1  0
 13 14  1  6
 13 15  1  0
 15 16  1  0
 16 17  1  0
 17 18  2  0
 18 19  1  0
 19 20  1  0
 20 21  1  0
 21 22  1  0
 22 23  1  0
 22 24  1  0
 24 25  1  0
 24 26  1  0
 19 27  1  0
 27 28  1  1
 27 29  1  0
 29 30  1  0
 30 31  1  0
 31 32  1  1
  7  5  1  0
 31 10  1  0
 31 13  1  0
 27 15  1  0
 24 18  1  0
  1 33  1  0
  1 34  1  0
  1 35  1  0
  2 36  1  6
  3 37  1  0
  3 38  1  0
  4 39  1  0
  4 40  1  0
  5 41  1  6
  8 42  1  0
  8 43  1  0
  8 44  1  0
  9 45  1  0
  9 46  1  0
  9 47  1  0
 10 48  1  6
 11 49  1  0
 11 50  1  0
 12 51  1  0
 12 52  1  0
 14 53  1  0
 14 54  1  0
 14 55  1  0
 15 56  1  1
 16 57  1  0
 16 58  1  0
 17 59  1  0
 19 60  1  6
 20 61  1  0
 20 62  1  0
 21 63  1  0
 21 64  1  0
 22 65  1  6
 23 66  1  0
 25 67  1  0
 25 68  1  0
 25 69  1  0
 26 70  1  0
 26 71  1  0
 26 72  1  0
 28 73  1  0
 28 74  1  0
 28 75  1  0
 29 76  1  0
 29 77  1  0
 30 78  1  0
 30 79  1  0
 32 80  1  0
 32 81  1  0
 32 82  1  0
M  END
>  <meeko>  (15) 
{"is_sidechain": [false], "intermolecular_energy": 2.731, "internal_energy": -0.839}

$$$$
EPH_relaxed_0001_pdb2pqr_Repair_349_r2_0001_out
     RDKit          3D

 82 86  0  0  0  0  0  0  0  0999 V2000
   -1.2440    7.6280   -2.1390 C   0  0  0  0  0  0  0  0  0  0  0  0
   -1.5620    8.3290   -0.8160 C   0  0  2  0  0  0  0  0  0  0  0  0
   -3.0610    8.2520   -0.4630 C   0  0  0  0  0  0  0  0  0  0  0  0
   -3.9630    7.9710   -1.6680 C   0  0  0  0  0  0  0  0  0  0  0  0
   -5.3790    7.7110   -1.2510 C   0  0  2  0  0  0  0  0  0  0  0  0
   -5.6760    6.3390   -0.9630 O   0  0  0  0  0  0  0  0  0  0  0  0
   -6.3640    6.9140   -2.0860 C   0  0  0  0  0  0  0  0  0  0  0  0
   -5.9720    6.3260   -3.4050 C   0  0  0  0  0  0  0  0  0  0  0  0
   -7.8280    7.1200   -1.8550 C   0  0  0  0  0  0  0  0  0  0  0  0
   -1.1150    9.7850   -0.8790 C   0  0  1  0  0  0  0  0  0  0  0  0
   -0.6020   10.3120    0.4870 C   0  0  0  0  0  0  0  0  0  0  0  0
    0.5490   11.3050    0.1800 C   0  0  0  0  0  0  0  0  0  0  0  0
    0.4410   11.5690   -1.3400 C   0  0  1  0  0  0  0  0  0  0  0  0
   -0.6880   12.6370   -1.4830 C   0  0  0  0  0  0  0  0  0  0  0  0
    1.7550   12.0170   -2.0580 C   0  0  2  0  0  0  0  0  0  0  0  0
    2.3380   13.3560   -1.5750 C   0  0  0  0  0  0  0  0  0  0  0  0
    1.8570   14.5640   -2.3090 C   0  0  0  0  0  0  0  0  0  0  0  0
    1.2170   14.5560   -3.4920 C   0  0  0  0  0  0  0  0  0  0  0  0
    1.0020   13.2470   -4.2630 C   0  0  1  0  0  0  0  0  0  0  0  0
    1.3780   13.4570   -5.7540 C   0  0  0  0  0  0  0  0  0  0  0  0
    0.6380   14.6330   -6.3840 C   0  0  0  0  0  0  0  0  0  0  0  0
    0.9220   15.9260   -5.6240 C   0  0  2  0  0  0  0  0  0  0  0  0
    2.3010   16.2680   -5.7950 O   0  0  0  0  0  0  0  0  0  0  0  0
    0.5910   15.8320   -4.1080 C   0  0  0  0  0  0  0  0  0  0  0  0
   -0.9440   15.7630   -3.9140 C   0  0  0  0  0  0  0  0  0  0  0  0
    1.0550   17.1520   -3.4360 C   0  0  0  0  0  0  0  0  0  0  0  0
    1.6840   11.9550   -3.6380 C   0  0  1  0  0  0  0  0  0  0  0  0
    3.1530   11.8300   -4.1450 C   0  0  0  0  0  0  0  0  0  0  0  0
    0.9260   10.6740   -4.1530 C   0  0  0  0  0  0  0  0  0  0  0  0
   -0.2930   10.2110   -3.3320 C   0  0  0  0  0  0  0  0  0  0  0  0
    0.0490   10.1310   -1.8410 C   0  0  2  0  0  0  0  0  0  0  0  0
    1.1660    9.0470   -1.6640 C   0  0  0  0  0  0  0  0  0  0  0  0
   -0.7975    6.6437   -1.9344 H   0  0  0  0  0  0  0  0  0  0  0  0
   -2.1709    7.4972   -2.7167 H   0  0  0  0  0  0  0  0  0  0  0  0
   -0.5351    8.2393   -2.7167 H   0  0  0  0  0  0  0  0  0  0  0  0
   -1.0095    7.8046   -0.0224 H   0  0  0  0  0  0  0  0  0  0  0  0
   -3.2037    7.4470    0.2729 H   0  0  0  0  0  0  0  0  0  0  0  0
   -3.3495    9.2373   -0.0681 H   0  0  0  0  0  0  0  0  0  0  0  0
   -3.9432    8.8423   -2.3392 H   0  0  0  0  0  0  0  0  0  0  0  0
   -3.5848    7.0725   -2.1777 H   0  0  0  0  0  0  0  0  0  0  0  0
   -5.4458    8.7011   -0.7764 H   0  0  0  0  0  0  0  0  0  0  0  0
   -5.3689    5.4213   -3.2384 H   0  0  0  0  0  0  0  0  0  0  0  0
   -6.8768    6.0640   -3.9731 H   0  0  0  0  0  0  0  0  0  0  0  0
   -5.3822    7.0604   -3.9731 H   0  0  0  0  0  0  0  0  0  0  0  0
   -8.0282    7.1482   -0.7737 H   0  0  0  0  0  0  0  0  0  0  0  0
   -8.1409    8.0710   -2.3107 H   0  0  0  0  0  0  0  0  0  0  0  0
   -8.3912    6.2922   -2.3107 H   0  0  0  0  0  0  0  0  0  0  0  0
   -2.0471   10.2484   -1.2345 H   0  0  0  0  0  0  0  0  0  0  0  0
   -1.4130   10.8264    1.0233 H   0  0  0  0  0  0  0  0  0  0  0  0
   -0.2515    9.4855    1.1227 H   0  0  0  0  0  0  0  0  0  0  0  0
    0.4179   12.2387    0.7466 H   0  0  0  0  0  0  0  0  0  0  0  0
    1.5330   10.9043    0.4651 H   0  0  0  0  0  0  0  0  0  0  0  0
   -1.0223   12.9532   -0.4839 H   0  0  0  0  0  0  0  0  0  0  0  0
   -0.3015   13.5077   -2.0330 H   0  0  0  0  0  0  0  0  0  0  0  0
   -1.5359   12.2028   -2.0330 H   0  0  0  0  0  0  0  0  0  0  0  0
    2.4721   11.2460   -1.7397 H   0  0  0  0  0  0  0  0  0  0  0  0
    2.0766   13.4771   -0.5134 H   0  0  0  0  0  0  0  0  0  0  0  0
    3.4210   13.2999   -1.7590 H   0  0  0  0  0  0  0  0  0  0  0  0
    2.0416   15.5431   -1.8429 H   0  0  0  0  0  0  0  0  0  0  0  0
   -0.0699   13.0154   -4.1773 H   0  0  0  0  0  0  0  0  0  0  0  0
    2.4599   13.6440   -5.8218 H   0  0  0  0  0  0  0  0  0  0  0  0
    1.0890   12.5483   -6.3024 H   0  0  0  0  0  0  0  0  0  0  0  0
    0.9675   14.7487   -7.4271 H   0  0  0  0  0  0  0  0  0  0  0  0
   -0.4425   14.4311   -6.3423 H   0  0  0  0  0  0  0  0  0  0  0  0
    0.2650   16.7038   -6.0403 H   0  0  0  0  0  0  0  0  0  0  0  0
    2.8100   15.4390   -5.8110 H   0  0  0  0  0  0  0  0  0  0  0  0
   -1.1776   15.7525   -2.8391 H   0  0  0  0  0  0  0  0  0  0  0  0
   -1.4126   16.6410   -4.3825 H   0  0  0  0  0  0  0  0  0  0  0  0
   -1.3320   14.8465   -4.3825 H   0  0  0  0  0  0  0  0  0  0  0  0
    1.0157   17.0402   -2.3424 H   0  0  0  0  0  0  0  0  0  0  0  0
    2.0864   17.3778   -3.7447 H   0  0  0  0  0  0  0  0  0  0  0  0
    0.3917   17.9735   -3.7447 H   0  0  0  0  0  0  0  0  0  0  0  0
    3.8345   11.7720   -3.2835 H   0  0  0  0  0  0  0  0  0  0  0  0
    3.2543   10.9200   -4.7546 H   0  0  0  0  0  0  0  0  0  0  0  0
    3.4066   12.7098   -4.7546 H   0  0  0  0  0  0  0  0  0  0  0  0
    0.5789   10.8815   -5.1760 H   0  0  0  0  0  0  0  0  0  0  0  0
    1.6560    9.8552   -4.0711 H   0  0  0  0  0  0  0  0  0  0  0  0
   -1.1159   10.9269   -3.4746 H   0  0  0  0  0  0  0  0  0  0  0  0
   -0.5895    9.2099   -3.6782 H   0  0  0  0  0  0  0  0  0  0  0  0
    1.3434    8.8749   -0.5921 H   0  0  0  0  0  0  0  0  0  0  0  0
    0.8440    8.1079   -2.1378 H   0  0  0  0  0  0  0  0  0  0  0  0
    2.0950    9.3970   -2.1378 H   0  0  0  0  0  0  0  0  0  0  0  0
  1  2  1  0
  2  3  1  0
  3  4  1  0
  4  5  1  0
  5  6  1  0
  6  7  1  0
  7  8  1  0
  7  9  1  0
  2 10  1  0
 10 11  1  0
 11 12  1  0
 12 13  1  0
 13 14  1  1
 13 15  1  0
 15 16  1  0
 16 17  1  0
 17 18  2  0
 18 19  1  0
 19 20  1  0
 20 21  1  0
 21 22  1  0
 22 23  1  0
 22 24  1  0
 24 25  1  0
 24 26  1  0
 19 27  1  0
 27 28  1  6
 27 29  1  0
 29 30  1  0
 30 31  1  0
 31 32  1  6
  7  5  1  0
 31 10  1  0
 31 13  1  0
 27 15  1  0
 24 18  1  0
  1 33  1  0
  1 34  1  0
  1 35  1  0
  2 36  1  1
  3 37  1  0
  3 38  1  0
  4 39  1  0
  4 40  1  0
  5 41  1  1
  8 42  1  0
  8 43  1  0
  8 44  1  0
  9 45  1  0
  9 46  1  0
  9 47  1  0
 10 48  1  6
 11 49  1  0
 11 50  1  0
 12 51  1  0
 12 52  1  0
 14 53  1  0
 14 54  1  0
 14 55  1  0
 15 56  1  1
 16 57  1  0
 16 58  1  0
 17 59  1  0
 19 60  1  6
 20 61  1  0
 20 62  1  0
 21 63  1  0
 21 64  1  0
 22 65  1  6
 23 66  1  0
 25 67  1  0
 25 68  1  0
 25 69  1  0
 26 70  1  0
 26 71  1  0
 26 72  1  0
 28 73  1  0
 28 74  1  0
 28 75  1  0
 29 76  1  0
 29 77  1  0
 30 78  1  0
 30 79  1  0
 32 80  1  0
 32 81  1  0
 32 82  1  0
M  END
>  <meeko>  (16) 
{"is_sidechain": [false], "intermolecular_energy": 2.731, "internal_energy": -0.839}

$$$$
EPH_relaxed_0001_pdb2pqr_Repair_349_r2_0001_out
     RDKit          3D

 82 86  0  0  0  0  0  0  0  0999 V2000
    2.0920   18.7430   -1.1300 C   0  0  0  0  0  0  0  0  0  0  0  0
    2.5160   17.7800   -2.2420 C   0  0  2  0  0  0  0  0  0  0  0  0
    1.5020   17.7500   -3.4030 C   0  0  0  0  0  0  0  0  0  0  0  0
    1.0570   16.3390   -3.7960 C   0  0  0  0  0  0  0  0  0  0  0  0
    0.8350   16.2180   -5.2730 C   0  0  2  0  0  0  0  0  0  0  0  0
   -0.3820   15.5570   -5.6440 O   0  0  0  0  0  0  0  0  0  0  0  0
    0.8380   14.8940   -6.0140 C   0  0  0  0  0  0  0  0  0  0  0  0
    1.0680   13.6000   -5.2980 C   0  0  0  0  0  0  0  0  0  0  0  0
    1.1030   14.8990   -7.4870 C   0  0  0  0  0  0  0  0  0  0  0  0
    2.6990   16.3780   -1.6740 C   0  0  1  0  0  0  0  0  0  0  0  0
    3.6850   16.3430   -0.4760 C   0  0  0  0  0  0  0  0  0  0  0  0
    3.1610   15.2610    0.5030 C   0  0  0  0  0  0  0  0  0  0  0  0
    2.0950   14.4860   -0.3060 C   0  0  1  0  0  0  0  0  0  0  0  0
    2.9080   13.4800   -1.1810 C   0  0  0  0  0  0  0  0  0  0  0  0
    0.9860   13.7620    0.5260 C   0  0  2  0  0  0  0  0  0  0  0  0
    1.4940   12.6550    1.4660 C   0  0  0  0  0  0  0  0  0  0  0  0
    1.5470   11.2870    0.8710 C   0  0  0  0  0  0  0  0  0  0  0  0
    0.9370   10.9050   -0.2670 C   0  0  0  0  0  0  0  0  0  0  0  0
    0.0200   11.8690   -1.0300 C   0  0  1  0  0  0  0  0  0  0  0  0
   -1.2910   11.1360   -1.4200 C   0  0  0  0  0  0  0  0  0  0  0  0
   -1.0320    9.8440   -2.1890 C   0  0  0  0  0  0  0  0  0  0  0  0
   -0.1640    8.8880   -1.3740 C   0  0  2  0  0  0  0  0  0  0  0  0
   -0.9060    8.4540   -0.2300 O   0  0  0  0  0  0  0  0  0  0  0  0
    1.1800    9.5200   -0.9160 C   0  0  0  0  0  0  0  0  0  0  0  0
    2.1080    9.7130   -2.1400 C   0  0  0  0  0  0  0  0  0  0  0  0
    1.8940    8.5030    0.0140 C   0  0  0  0  0  0  0  0  0  0  0  0
   -0.2500   13.2700   -0.3310 C   0  0  1  0  0  0  0  0  0  0  0  0
   -1.4540   13.1510    0.6530 C   0  0  0  0  0  0  0  0  0  0  0  0
   -0.6740   14.3180   -1.4270 C   0  0  0  0  0  0  0  0  0  0  0  0
    0.4620   15.0870   -2.1290 C   0  0  0  0  0  0  0  0  0  0  0  0
    1.4420   15.6710   -1.1070 C   0  0  2  0  0  0  0  0  0  0  0  0
    0.6580   16.7030   -0.2270 C   0  0  0  0  0  0  0  0  0  0  0  0
    2.2940   18.2842   -0.1509 H   0  0  0  0  0  0  0  0  0  0  0  0
    2.6607   19.6803   -1.2201 H   0  0  0  0  0  0  0  0  0  0  0  0
    1.0167   18.9564   -1.2201 H   0  0  0  0  0  0  0  0  0  0  0  0
    3.4713   18.1442   -2.6479 H   0  0  0  0  0  0  0  0  0  0  0  0
    0.6127   18.3233   -3.1021 H   0  0  0  0  0  0  0  0  0  0  0  0
    2.0048   18.1841   -4.2798 H   0  0  0  0  0  0  0  0  0  0  0  0
    1.8348   15.6227   -3.4928 H   0  0  0  0  0  0  0  0  0  0  0  0
    0.1048   16.1263   -3.2880 H   0  0  0  0  0  0  0  0  0  0  0  0
    1.3635   17.1657   -5.4534 H   0  0  0  0  0  0  0  0  0  0  0  0
    1.0375   13.7715   -4.2119 H   0  0  0  0  0  0  0  0  0  0  0  0
    0.2835   12.8816   -5.5779 H   0  0  0  0  0  0  0  0  0  0  0  0
    2.0520   13.1959   -5.5779 H   0  0  0  0  0  0  0  0  0  0  0  0
    2.1884   14.9195   -7.6642 H   0  0  0  0  0  0  0  0  0  0  0  0
    0.6746   13.9926   -7.9397 H   0  0  0  0  0  0  0  0  0  0  0  0
    0.6407   15.7886   -7.9397 H   0  0  0  0  0  0  0  0  0  0  0  0
    3.0485   15.8568   -2.5775 H   0  0  0  0  0  0  0  0  0  0  0  0
    4.6951   16.0815   -0.8243 H   0  0  0  0  0  0  0  0  0  0  0  0
    3.7442   17.3252    0.0157 H   0  0  0  0  0  0  0  0  0  0  0  0
    3.9761   14.5907    0.8134 H   0  0  0  0  0  0  0  0  0  0  0  0
    2.7492   15.6971    1.4251 H   0  0  0  0  0  0  0  0  0  0  0  0
    3.4641   12.7918   -0.5274 H   0  0  0  0  0  0  0  0  0  0  0  0
    2.2177   12.9052   -1.8160 H   0  0  0  0  0  0  0  0  0  0  0  0
    3.6148   14.0343   -1.8160 H   0  0  0  0  0  0  0  0  0  0  0  0
    0.6202   14.5661    1.1814 H   0  0  0  0  0  0  0  0  0  0  0  0
    2.5102   12.9242    1.7900 H   0  0  0  0  0  0  0  0  0  0  0  0
    0.7683   12.5999    2.2908 H   0  0  0  0  0  0  0  0  0  0  0  0
    2.1339   10.5269    1.4075 H   0  0  0  0  0  0  0  0  0  0  0  0
    0.5710   12.1586   -1.9369 H   0  0  0  0  0  0  0  0  0  0  0  0
   -1.8466   10.8946   -0.5018 H   0  0  0  0  0  0  0  0  0  0  0  0
   -1.8657   11.8059   -2.0764 H   0  0  0  0  0  0  0  0  0  0  0  0
   -1.9936    9.3576   -2.4097 H   0  0  0  0  0  0  0  0  0  0  0  0
   -0.5025   10.0906   -3.1211 H   0  0  0  0  0  0  0  0  0  0  0  0
    0.0943    8.0401   -2.0254 H   0  0  0  0  0  0  0  0  0  0  0  0
   -0.3970    7.7460    0.2000 H   0  0  0  0  0  0  0  0  0  0  0  0
    3.1306    9.9257   -1.7949 H   0  0  0  0  0  0  0  0  0  0  0  0
    2.1093    8.7959   -2.7474 H   0  0  0  0  0  0  0  0  0  0  0  0
    1.7435   10.5546   -2.7474 H   0  0  0  0  0  0  0  0  0  0  0  0
    1.7056    8.7713    1.0640 H   0  0  0  0  0  0  0  0  0  0  0  0
    1.5061    7.4924   -0.1814 H   0  0  0  0  0  0  0  0  0  0  0  0
    2.9763    8.5245   -0.1814 H   0  0  0  0  0  0  0  0  0  0  0  0
   -1.0859   13.1874    1.6889 H   0  0  0  0  0  0  0  0  0  0  0  0
   -2.1510   13.9846    0.4821 H   0  0  0  0  0  0  0  0  0  0  0  0
   -1.9743   12.1970    0.4821 H   0  0  0  0  0  0  0  0  0  0  0  0
   -1.2394   13.7792   -2.2016 H   0  0  0  0  0  0  0  0  0  0  0  0
   -1.2487   15.0840   -0.8858 H   0  0  0  0  0  0  0  0  0  0  0  0
    1.0039   14.3995   -2.7950 H   0  0  0  0  0  0  0  0  0  0  0  0
    0.0217   15.9142   -2.7051 H   0  0  0  0  0  0  0  0  0  0  0  0
    0.8269   16.4806    0.8370 H   0  0  0  0  0  0  0  0  0  0  0  0
    1.0135   17.7198   -0.4500 H   0  0  0  0  0  0  0  0  0  0  0  0
   -0.4169   16.6332   -0.4500 H   0  0  0  0  0  0  0  0  0  0  0  0
  1  2  1  0
  2  3  1  0
  3  4  1  0
  4  5  1  0
  5  6  1  0
  6  7  1  0
  7  8  1  0
  7  9  1  0
  2 10  1  0
 10 11  1  0
 11 12  1  0
 12 13  1  0
 13 14  1  6
 13 15  1  0
 15 16  1  0
 16 17  1  0
 17 18  2  0
 18 19  1  0
 19 20  1  0
 20 21  1  0
 21 22  1  0
 22 23  1  0
 22 24  1  0
 24 25  1  0
 24 26  1  0
 19 27  1  0
 27 28  1  1
 27 29  1  0
 29 30  1  0
 30 31  1  0
 31 32  1  1
  7  5  1  0
 31 10  1  0
 31 13  1  0
 27 15  1  0
 24 18  1  0
  1 33  1  0
  1 34  1  0
  1 35  1  0
  2 36  1  6
  3 37  1  0
  3 38  1  0
  4 39  1  0
  4 40  1  0
  5 41  1  6
  8 42  1  0
  8 43  1  0
  8 44  1  0
  9 45  1  0
  9 46  1  0
  9 47  1  0
 10 48  1  6
 11 49  1  0
 11 50  1  0
 12 51  1  0
 12 52  1  0
 14 53  1  0
 14 54  1  0
 14 55  1  0
 15 56  1  1
 16 57  1  0
 16 58  1  0
 17 59  1  0
 19 60  1  6
 20 61  1  0
 20 62  1  0
 21 63  1  0
 21 64  1  0
 22 65  1  6
 23 66  1  0
 25 67  1  0
 25 68  1  0
 25 69  1  0
 26 70  1  0
 26 71  1  0
 26 72  1  0
 28 73  1  0
 28 74  1  0
 28 75  1  0
 29 76  1  0
 29 77  1  0
 30 78  1  0
 30 79  1  0
 32 80  1  0
 32 81  1  0
 32 82  1  0
M  END
>  <meeko>  (17) 
{"is_sidechain": [false], "intermolecular_energy": 2.731, "internal_energy": -0.839}

$$$$
EPH_relaxed_0001_pdb2pqr_Repair_349_r2_0001_out
     RDKit          3D

 82 86  0  0  0  0  0  0  0  0999 V2000
   -1.8340   14.0930    0.5420 C   0  0  0  0  0  0  0  0  0  0  0  0
   -0.5180   14.8700    0.4480 C   0  0  2  0  0  0  0  0  0  0  0  0
   -0.5780   15.9880   -0.6120 C   0  0  0  0  0  0  0  0  0  0  0  0
    0.0060   17.3200   -0.1350 C   0  0  0  0  0  0  0  0  0  0  0  0
   -0.9850   18.1030    0.6710 C   0  0  2  0  0  0  0  0  0  0  0  0
   -2.3580   17.8160    0.3750 O   0  0  0  0  0  0  0  0  0  0  0  0
   -1.9100   19.1480    0.0750 C   0  0  0  0  0  0  0  0  0  0  0  0
   -1.8880   19.4670   -1.3860 C   0  0  0  0  0  0  0  0  0  0  0  0
   -2.4840   20.1940    0.9790 C   0  0  0  0  0  0  0  0  0  0  0  0
    0.6280   13.9150    0.1340 C   0  0  1  0  0  0  0  0  0  0  0  0
    0.7980   12.8110    1.2120 C   0  0  0  0  0  0  0  0  0  0  0  0
    1.2510   11.5280    0.4690 C   0  0  0  0  0  0  0  0  0  0  0  0
    1.6460   12.0140   -0.9450 C   0  0  1  0  0  0  0  0  0  0  0  0
    3.0900   12.5830   -0.7850 C   0  0  0  0  0  0  0  0  0  0  0  0
    1.5680   10.9500   -2.0880 C   0  0  2  0  0  0  0  0  0  0  0  0
    2.5120    9.7460   -1.9240 C   0  0  0  0  0  0  0  0  0  0  0  0
    3.8600    9.9030   -2.5440 C   0  0  0  0  0  0  0  0  0  0  0  0
    4.2020   10.8430   -3.4460 C   0  0  0  0  0  0  0  0  0  0  0  0
    3.1550   11.8160   -4.0040 C   0  0  1  0  0  0  0  0  0  0  0  0
    3.3010   11.9030   -5.5460 C   0  0  0  0  0  0  0  0  0  0  0  0
    4.7190   12.2590   -5.9810 C   0  0  0  0  0  0  0  0  0  0  0  0
    5.7240   11.2370   -5.4550 C   0  0  2  0  0  0  0  0  0  0  0  0
    5.4820    9.9810   -6.0970 O   0  0  0  0  0  0  0  0  0  0  0  0
    5.6630   11.0560   -3.9130 C   0  0  0  0  0  0  0  0  0  0  0  0
    6.2150   12.3250   -3.2180 C   0  0  0  0  0  0  0  0  0  0  0  0
    6.6240    9.8980   -3.5300 C   0  0  0  0  0  0  0  0  0  0  0  0
    1.6550   11.5580   -3.5460 C   0  0  1  0  0  0  0  0  0  0  0  0
    0.9770   10.5280   -4.5000 C   0  0  0  0  0  0  0  0  0  0  0  0
    0.8390   12.8970   -3.6860 C   0  0  0  0  0  0  0  0  0  0  0  0
    0.8570   13.8520   -2.4770 C   0  0  0  0  0  0  0  0  0  0  0  0
    0.5360   13.1020   -1.1810 C   0  0  2  0  0  0  0  0  0  0  0  0
   -0.9200   12.5370   -1.3040 C   0  0  0  0  0  0  0  0  0  0  0  0
   -2.0943   13.9393    1.5996 H   0  0  0  0  0  0  0  0  0  0  0  0
   -2.6332   14.6641    0.0469 H   0  0  0  0  0  0  0  0  0  0  0  0
   -1.7199   13.1173    0.0469 H   0  0  0  0  0  0  0  0  0  0  0  0
   -0.3461   15.3491    1.4232 H   0  0  0  0  0  0  0  0  0  0  0  0
   -0.0137   15.6583   -1.4968 H   0  0  0  0  0  0  0  0  0  0  0  0
   -1.6409   16.1640   -0.8338 H   0  0  0  0  0  0  0  0  0  0  0  0
    0.8913   17.1190    0.4862 H   0  0  0  0  0  0  0  0  0  0  0  0
    0.2729   17.9143   -1.0213 H   0  0  0  0  0  0  0  0  0  0  0  0
   -0.2998   18.1289    1.5311 H   0  0  0  0  0  0  0  0  0  0  0  0
   -1.8129   20.5559   -1.5225 H   0  0  0  0  0  0  0  0  0  0  0  0
   -1.0214   18.9781   -1.8551 H   0  0  0  0  0  0  0  0  0  0  0  0
   -2.8135   19.1016   -1.8551 H   0  0  0  0  0  0  0  0  0  0  0  0
   -2.3233   19.9011    2.0271 H   0  0  0  0  0  0  0  0  0  0  0  0
   -1.9879   21.1568    0.7871 H   0  0  0  0  0  0  0  0  0  0  0  0
   -3.5626   20.2927    0.7871 H   0  0  0  0  0  0  0  0  0  0  0  0
    1.4571   14.6354    0.0733 H   0  0  0  0  0  0  0  0  0  0  0  0
    1.5594   13.1125    1.9464 H   0  0  0  0  0  0  0  0  0  0  0  0
   -0.1428   12.6415    1.7562 H   0  0  0  0  0  0  0  0  0  0  0  0
    2.1124   11.0692    0.9765 H   0  0  0  0  0  0  0  0  0  0  0  0
    0.4621   10.7619    0.4412 H   0  0  0  0  0  0  0  0  0  0  0  0
    3.3304   12.6777    0.2842 H   0  0  0  0  0  0  0  0  0  0  0  0
    3.8081   11.9006   -1.2632 H   0  0  0  0  0  0  0  0  0  0  0  0
    3.1495   13.5718   -1.2632 H   0  0  0  0  0  0  0  0  0  0  0  0
    0.5502   10.5500   -1.9691 H   0  0  0  0  0  0  0  0  0  0  0  0
    2.6518    9.5680   -0.8475 H   0  0  0  0  0  0  0  0  0  0  0  0
    2.0309    8.9086   -2.4506 H   0  0  0  0  0  0  0  0  0  0  0  0
    4.6406    9.1907   -2.2386 H   0  0  0  0  0  0  0  0  0  0  0  0
    3.3760   12.7942   -3.5519 H   0  0  0  0  0  0  0  0  0  0  0  0
    3.0330   10.9288   -5.9809 H   0  0  0  0  0  0  0  0  0  0  0  0
    2.6331   12.7023   -5.8997 H   0  0  0  0  0  0  0  0  0  0  0  0
    4.7648   12.2762   -7.0799 H   0  0  0  0  0  0  0  0  0  0  0  0
    4.9748   13.2467   -5.5698 H   0  0  0  0  0  0  0  0  0  0  0  0
    6.7310   11.6143   -5.6866 H   0  0  0  0  0  0  0  0  0  0  0  0
    4.6050   10.0280   -6.5150 H   0  0  0  0  0  0  0  0  0  0  0  0
    6.1600   12.1987   -2.1267 H   0  0  0  0  0  0  0  0  0  0  0  0
    7.2621   12.4806   -3.5168 H   0  0  0  0  0  0  0  0  0  0  0  0
    5.6149   13.1971   -3.5168 H   0  0  0  0  0  0  0  0  0  0  0  0
    6.6876    9.8214   -2.4345 H   0  0  0  0  0  0  0  0  0  0  0  0
    6.2415    8.9526   -3.9421 H   0  0  0  0  0  0  0  0  0  0  0  0
    7.6238   10.0997   -3.9421 H   0  0  0  0  0  0  0  0  0  0  0  0
    0.4686    9.7557   -3.9041 H   0  0  0  0  0  0  0  0  0  0  0  0
    0.2418   11.0446   -5.1345 H   0  0  0  0  0  0  0  0  0  0  0  0
    1.7422   10.0570   -5.1345 H   0  0  0  0  0  0  0  0  0  0  0  0
    1.2449   13.4452   -4.5490 H   0  0  0  0  0  0  0  0  0  0  0  0
   -0.2106   12.5845   -3.7900 H   0  0  0  0  0  0  0  0  0  0  0  0
    1.8553   14.3062   -2.3921 H   0  0  0  0  0  0  0  0  0  0  0  0
    0.0928   14.6279   -2.6316 H   0  0  0  0  0  0  0  0  0  0  0  0
   -1.3367   12.3753   -0.2989 H   0  0  0  0  0  0  0  0  0  0  0  0
   -1.5477   13.2568   -1.8497 H   0  0  0  0  0  0  0  0  0  0  0  0
   -0.8979   11.5822   -1.8497 H   0  0  0  0  0  0  0  0  0  0  0  0
  1  2  1  0
  2  3  1  0
  3  4  1  0
  4  5  1  0
  5  6  1  0
  6  7  1  0
  7  8  1  0
  7  9  1  0
  2 10  1  0
 10 11  1  0
 11 12  1  0
 12 13  1  0
 13 14  1  1
 13 15  1  0
 15 16  1  0
 16 17  1  0
 17 18  2  0
 18 19  1  0
 19 20  1  0
 20 21  1  0
 21 22  1  0
 22 23  1  0
 22 24  1  0
 24 25  1  0
 24 26  1  0
 19 27  1  0
 27 28  1  6
 27 29  1  0
 29 30  1  0
 30 31  1  0
 31 32  1  6
  7  5  1  0
 31 10  1  0
 31 13  1  0
 27 15  1  0
 24 18  1  0
  1 33  1  0
  1 34  1  0
  1 35  1  0
  2 36  1  1
  3 37  1  0
  3 38  1  0
  4 39  1  0
  4 40  1  0
  5 41  1  1
  8 42  1  0
  8 43  1  0
  8 44  1  0
  9 45  1  0
  9 46  1  0
  9 47  1  0
 10 48  1  6
 11 49  1  0
 11 50  1  0
 12 51  1  0
 12 52  1  0
 14 53  1  0
 14 54  1  0
 14 55  1  0
 15 56  1  6
 16 57  1  0
 16 58  1  0
 17 59  1  0
 19 60  1  1
 20 61  1  0
 20 62  1  0
 21 63  1  0
 21 64  1  0
 22 65  1  1
 23 66  1  0
 25 67  1  0
 25 68  1  0
 25 69  1  0
 26 70  1  0
 26 71  1  0
 26 72  1  0
 28 73  1  0
 28 74  1  0
 28 75  1  0
 29 76  1  0
 29 77  1  0
 30 78  1  0
 30 79  1  0
 32 80  1  0
 32 81  1  0
 32 82  1  0
M  END
>  <meeko>  (18) 
{"is_sidechain": [false], "intermolecular_energy": 2.731, "internal_energy": -0.839}

$$$$
