EPH_relaxed_0001_pdb2pqr_Repair_356_r2_0001_out
     RDKit          3D

 82 86  0  0  0  0  0  0  0  0999 V2000
   -0.1980   17.0890   -1.0640 C   0  0  0  0  0  0  0  0  0  0  0  0
   -0.5860   15.7940   -0.3440 C   0  0  2  0  0  0  0  0  0  0  0  0
   -0.9460   16.0380    1.1350 C   0  0  0  0  0  0  0  0  0  0  0  0
   -1.4080   17.4680    1.4290 C   0  0  0  0  0  0  0  0  0  0  0  0
   -0.7220   18.4650    0.5440 C   0  0  2  0  0  0  0  0  0  0  0  0
   -0.7250   19.8090    1.0420 O   0  0  0  0  0  0  0  0  0  0  0  0
   -1.4500   19.5830   -0.1780 C   0  0  0  0  0  0  0  0  0  0  0  0
   -2.9300   19.7610   -0.0490 C   0  0  0  0  0  0  0  0  0  0  0  0
   -0.8060   20.1940   -1.3840 C   0  0  0  0  0  0  0  0  0  0  0  0
    0.5510   14.7840   -0.4440 C   0  0  1  0  0  0  0  0  0  0  0  0
    0.6730   13.8950    0.8230 C   0  0  0  0  0  0  0  0  0  0  0  0
    1.1240   12.4920    0.3430 C   0  0  0  0  0  0  0  0  0  0  0  0
    1.5630   12.7040   -1.1250 C   0  0  1  0  0  0  0  0  0  0  0  0
    3.0130   13.2750   -1.0310 C   0  0  0  0  0  0  0  0  0  0  0  0
    1.4970   11.4480   -2.0540 C   0  0  2  0  0  0  0  0  0  0  0  0
    2.4140   10.2830   -1.6440 C   0  0  0  0  0  0  0  0  0  0  0  0
    3.7810   10.3070   -2.2440 C   0  0  0  0  0  0  0  0  0  0  0  0
    4.1620   11.0590   -3.2930 C   0  0  0  0  0  0  0  0  0  0  0  0
    3.1480   11.9250   -4.0510 C   0  0  1  0  0  0  0  0  0  0  0  0
    3.3340   11.7250   -5.5780 C   0  0  0  0  0  0  0  0  0  0  0  0
    4.7700   11.9770   -6.0300 C   0  0  0  0  0  0  0  0  0  0  0  0
    5.7420   11.0570   -5.2960 C   0  0  2  0  0  0  0  0  0  0  0  0
    5.4950    9.7070   -5.7030 O   0  0  0  0  0  0  0  0  0  0  0  0
    5.6380   11.1640   -3.7490 C   0  0  0  0  0  0  0  0  0  0  0  0
    6.1940   12.5330   -3.2840 C   0  0  0  0  0  0  0  0  0  0  0  0
    6.5690   10.0850   -3.1320 C   0  0  0  0  0  0  0  0  0  0  0  0
    1.6320   11.7760   -3.5970 C   0  0  1  0  0  0  0  0  0  0  0  0
    0.9610   10.5950   -4.3630 C   0  0  0  0  0  0  0  0  0  0  0  0
    0.8430   13.0760   -4.0040 C   0  0  0  0  0  0  0  0  0  0  0  0
    0.8470   14.2370   -2.9910 C   0  0  0  0  0  0  0  0  0  0  0  0
    0.4790   13.7430   -1.5890 C   0  0  2  0  0  0  0  0  0  0  0  0
   -0.9830   13.1830   -1.6470 C   0  0  0  0  0  0  0  0  0  0  0  0
    0.0348   17.8660   -0.3210 H   0  0  0  0  0  0  0  0  0  0  0  0
    0.6853   16.9077   -1.6940 H   0  0  0  0  0  0  0  0  0  0  0  0
   -1.0354   17.4233   -1.6940 H   0  0  0  0  0  0  0  0  0  0  0  0
   -1.4828   15.3946   -0.8402 H   0  0  0  0  0  0  0  0  0  0  0  0
   -1.7556   15.3474    1.4137 H   0  0  0  0  0  0  0  0  0  0  0  0
   -0.0301   15.8697    1.7204 H   0  0  0  0  0  0  0  0  0  0  0  0
   -2.4937   17.5329    1.2645 H   0  0  0  0  0  0  0  0  0  0  0  0
   -1.1529   17.7032    2.4728 H   0  0  0  0  0  0  0  0  0  0  0  0
   -0.0114   17.7014    0.1948 H   0  0  0  0  0  0  0  0  0  0  0  0
   -3.2039   19.7939    1.0158 H   0  0  0  0  0  0  0  0  0  0  0  0
   -3.2298   20.7017   -0.5340 H   0  0  0  0  0  0  0  0  0  0  0  0
   -3.4443   18.9182   -0.5340 H   0  0  0  0  0  0  0  0  0  0  0  0
   -0.0424   20.9185   -1.0645 H   0  0  0  0  0  0  0  0  0  0  0  0
   -0.3331   19.4046   -1.9867 H   0  0  0  0  0  0  0  0  0  0  0  0
   -1.5694   20.7077   -1.9867 H   0  0  0  0  0  0  0  0  0  0  0  0
    1.3936   15.4708   -0.6123 H   0  0  0  0  0  0  0  0  0  0  0  0
    1.4192   14.3176    1.5119 H   0  0  0  0  0  0  0  0  0  0  0  0
   -0.2852   13.8395    1.3603 H   0  0  0  0  0  0  0  0  0  0  0  0
    1.9645   12.1254    0.9505 H   0  0  0  0  0  0  0  0  0  0  0  0
    0.3240   11.7427    0.4350 H   0  0  0  0  0  0  0  0  0  0  0  0
    3.2954   13.3862    0.0263 H   0  0  0  0  0  0  0  0  0  0  0  0
    3.7117   12.5849   -1.5265 H   0  0  0  0  0  0  0  0  0  0  0  0
    3.0535   14.2562   -1.5265 H   0  0  0  0  0  0  0  0  0  0  0  0
    0.4699   11.0888   -1.8923 H   0  0  0  0  0  0  0  0  0  0  0  0
    2.5225   10.3046   -0.5496 H   0  0  0  0  0  0  0  0  0  0  0  0
    1.9320    9.3687   -2.0205 H   0  0  0  0  0  0  0  0  0  0  0  0
    4.5414    9.6545   -1.7900 H   0  0  0  0  0  0  0  0  0  0  0  0
    3.3765   12.9664   -3.7804 H   0  0  0  0  0  0  0  0  0  0  0  0
    3.0598   10.6910   -5.8343 H   0  0  0  0  0  0  0  0  0  0  0  0
    2.6893   12.4535   -6.0914 H   0  0  0  0  0  0  0  0  0  0  0  0
    4.8450   11.7907   -7.1115 H   0  0  0  0  0  0  0  0  0  0  0  0
    5.0325   13.0203   -5.8004 H   0  0  0  0  0  0  0  0  0  0  0  0
    6.7611   11.3728   -5.5637 H   0  0  0  0  0  0  0  0  0  0  0  0
    6.3570    9.2790   -5.8390 H   0  0  0  0  0  0  0  0  0  0  0  0
    6.2085   12.5686   -2.1847 H   0  0  0  0  0  0  0  0  0  0  0  0
    7.2163   12.6633   -3.6686 H   0  0  0  0  0  0  0  0  0  0  0  0
    5.5520   13.3392   -3.6686 H   0  0  0  0  0  0  0  0  0  0  0  0
    6.5196   10.1422   -2.0346 H   0  0  0  0  0  0  0  0  0  0  0  0
    6.2434    9.0875   -3.4622 H   0  0  0  0  0  0  0  0  0  0  0  0
    7.6034   10.2610   -3.4622 H   0  0  0  0  0  0  0  0  0  0  0  0
    0.5516    9.8744   -3.6398 H   0  0  0  0  0  0  0  0  0  0  0  0
    0.1481   10.9825   -4.9948 H   0  0  0  0  0  0  0  0  0  0  0  0
    1.7100   10.0951   -4.9948 H   0  0  0  0  0  0  0  0  0  0  0  0
    1.2800   13.4507   -4.9413 H   0  0  0  0  0  0  0  0  0  0  0  0
   -0.2088   12.7628   -4.0786 H   0  0  0  0  0  0  0  0  0  0  0  0
    1.8508   14.6859   -2.9623 H   0  0  0  0  0  0  0  0  0  0  0  0
    0.1011   14.9810   -3.3075 H   0  0  0  0  0  0  0  0  0  0  0  0
   -1.3610   13.0382   -0.6242 H   0  0  0  0  0  0  0  0  0  0  0  0
   -1.6285   13.8975   -2.1788 H   0  0  0  0  0  0  0  0  0  0  0  0
   -0.9860   12.2201   -2.1788 H   0  0  0  0  0  0  0  0  0  0  0  0
  1  2  1  0
  2  3  1  0
  3  4  1  0
  4  5  1  0
  5  6  1  0
  6  7  1  0
  7  8  1  0
  7  9  1  0
  2 10  1  0
 10 11  1  0
 11 12  1  0
 12 13  1  0
 13 14  1  1
 13 15  1  0
 15 16  1  0
 16 17  1  0
 17 18  2  0
 18 19  1  0
 19 20  1  0
 20 21  1  0
 21 22  1  0
 22 23  1  0
 22 24  1  0
 24 25  1  0
 24 26  1  0
 19 27  1  0
 27 28  1  6
 27 29  1  0
 29 30  1  0
 30 31  1  0
 31 32  1  6
  7  5  1  0
 31 10  1  0
 31 13  1  0
 27 15  1  0
 24 18  1  0
  1 33  1  0
  1 34  1  0
  1 35  1  0
  2 36  1  6
  3 37  1  0
  3 38  1  0
  4 39  1  0
  4 40  1  0
  5 41  1  6
  8 42  1  0
  8 43  1  0
  8 44  1  0
  9 45  1  0
  9 46  1  0
  9 47  1  0
 10 48  1  6
 11 49  1  0
 11 50  1  0
 12 51  1  0
 12 52  1  0
 14 53  1  0
 14 54  1  0
 14 55  1  0
 15 56  1  6
 16 57  1  0
 16 58  1  0
 17 59  1  0
 19 60  1  6
 20 61  1  0
 20 62  1  0
 21 63  1  0
 21 64  1  0
 22 65  1  6
 23 66  1  0
 25 67  1  0
 25 68  1  0
 25 69  1  0
 26 70  1  0
 26 71  1  0
 26 72  1  0
 28 73  1  0
 28 74  1  0
 28 75  1  0
 29 76  1  0
 29 77  1  0
 30 78  1  0
 30 79  1  0
 32 80  1  0
 32 81  1  0
 32 82  1  0
M  END
>  <meeko>  (1) 
{"is_sidechain": [false], "intermolecular_energy": 2.731, "internal_energy": -0.839}

$$$$
EPH_relaxed_0001_pdb2pqr_Repair_356_r2_0001_out
     RDKit          3D

 82 86  0  0  0  0  0  0  0  0999 V2000
    0.0340   17.3220   -0.5580 C   0  0  0  0  0  0  0  0  0  0  0  0
   -0.4590   15.9420   -0.1140 C   0  0  2  0  0  0  0  0  0  0  0  0
   -0.9680   15.9480    1.3410 C   0  0  0  0  0  0  0  0  0  0  0  0
   -1.0290   14.5570    1.9770 C   0  0  0  0  0  0  0  0  0  0  0  0
   -1.3550   14.6290    3.4380 C   0  0  2  0  0  0  0  0  0  0  0  0
   -0.2250   14.8440    4.2940 O   0  0  0  0  0  0  0  0  0  0  0  0
   -0.9070   13.5890    4.4480 C   0  0  0  0  0  0  0  0  0  0  0  0
   -0.0950   12.4010    4.0370 C   0  0  0  0  0  0  0  0  0  0  0  0
   -1.6630   13.4680    5.7340 C   0  0  0  0  0  0  0  0  0  0  0  0
    0.6570   14.9160   -0.2720 C   0  0  1  0  0  0  0  0  0  0  0  0
    0.8230   14.0160    0.9820 C   0  0  0  0  0  0  0  0  0  0  0  0
    1.2300   12.6100    0.4720 C   0  0  0  0  0  0  0  0  0  0  0  0
    1.6080   12.8270   -1.0120 C   0  0  1  0  0  0  0  0  0  0  0  0
    3.0680   13.3770   -0.9780 C   0  0  0  0  0  0  0  0  0  0  0  0
    1.4810   11.5800   -1.9470 C   0  0  2  0  0  0  0  0  0  0  0  0
    2.3990   10.3990   -1.5860 C   0  0  0  0  0  0  0  0  0  0  0  0
    3.7380   10.4070   -2.2460 C   0  0  0  0  0  0  0  0  0  0  0  0
    4.0840   11.1630   -3.3050 C   0  0  0  0  0  0  0  0  0  0  0  0
    3.0500   12.0490   -4.0110 C   0  0  1  0  0  0  0  0  0  0  0  0
    3.1660   11.8590   -5.5460 C   0  0  0  0  0  0  0  0  0  0  0  0
    4.5830   12.0930   -6.0590 C   0  0  0  0  0  0  0  0  0  0  0  0
    5.5730   11.1530   -5.3760 C   0  0  2  0  0  0  0  0  0  0  0  0
    5.2880    9.8110   -5.7810 O   0  0  0  0  0  0  0  0  0  0  0  0
    5.5400   11.2500   -3.8260 C   0  0  0  0  0  0  0  0  0  0  0  0
    6.1360   12.6070   -3.3760 C   0  0  0  0  0  0  0  0  0  0  0  0
    6.4800   10.1530   -3.2580 C   0  0  0  0  0  0  0  0  0  0  0  0
    1.5540   11.9180   -3.4910 C   0  0  1  0  0  0  0  0  0  0  0  0
    0.8320   10.7540   -4.2360 C   0  0  0  0  0  0  0  0  0  0  0  0
    0.7660   13.2330   -3.8540 C   0  0  0  0  0  0  0  0  0  0  0  0
    0.8320   14.3860   -2.8340 C   0  0  0  0  0  0  0  0  0  0  0  0
    0.5190   13.8860   -1.4200 C   0  0  2  0  0  0  0  0  0  0  0  0
   -0.9520   13.3470   -1.4180 C   0  0  0  0  0  0  0  0  0  0  0  0
    0.2532   17.9357    0.3282 H   0  0  0  0  0  0  0  0  0  0  0  0
    0.9473   17.2087   -1.1606 H   0  0  0  0  0  0  0  0  0  0  0  0
   -0.7443   17.8130   -1.1606 H   0  0  0  0  0  0  0  0  0  0  0  0
   -1.3076   15.6701   -0.7590 H   0  0  0  0  0  0  0  0  0  0  0  0
   -0.2937   16.5756    1.9423 H   0  0  0  0  0  0  0  0  0  0  0  0
   -1.9965   16.3375    1.3203 H   0  0  0  0  0  0  0  0  0  0  0  0
   -1.8042   13.9658    1.4675 H   0  0  0  0  0  0  0  0  0  0  0  0
   -0.0403   14.0871    1.8692 H   0  0  0  0  0  0  0  0  0  0  0  0
   -2.3388   15.0703    3.2204 H   0  0  0  0  0  0  0  0  0  0  0  0
    0.2647   11.8748    4.9335 H   0  0  0  0  0  0  0  0  0  0  0  0
   -0.7179   11.7207    3.4377 H   0  0  0  0  0  0  0  0  0  0  0  0
    0.7651   12.7343    3.4377 H   0  0  0  0  0  0  0  0  0  0  0  0
   -0.9683   13.5792    6.5796 H   0  0  0  0  0  0  0  0  0  0  0  0
   -2.4301   14.2548    5.7838 H   0  0  0  0  0  0  0  0  0  0  0  0
   -2.1462   12.4811    5.7838 H   0  0  0  0  0  0  0  0  0  0  0  0
    1.5014   15.5918   -0.4730 H   0  0  0  0  0  0  0  0  0  0  0  0
    1.6063   14.4222    1.6389 H   0  0  0  0  0  0  0  0  0  0  0  0
   -0.1103   13.9709    1.5624 H   0  0  0  0  0  0  0  0  0  0  0  0
    2.0902   12.2252    1.0395 H   0  0  0  0  0  0  0  0  0  0  0  0
    0.4227   11.8727    0.5931 H   0  0  0  0  0  0  0  0  0  0  0  0
    3.3899   13.4983    0.0668 H   0  0  0  0  0  0  0  0  0  0  0  0
    3.7382   12.6697   -1.4884 H   0  0  0  0  0  0  0  0  0  0  0  0
    3.1050   14.3507   -1.4884 H   0  0  0  0  0  0  0  0  0  0  0  0
    0.4563   11.2353   -1.7442 H   0  0  0  0  0  0  0  0  0  0  0  0
    2.5566   10.4114   -0.4974 H   0  0  0  0  0  0  0  0  0  0  0  0
    1.8873    9.4946   -1.9469 H   0  0  0  0  0  0  0  0  0  0  0  0
    4.5072    9.7385   -1.8320 H   0  0  0  0  0  0  0  0  0  0  0  0
    3.3048   13.0851   -3.7434 H   0  0  0  0  0  0  0  0  0  0  0  0
    2.8651   10.8314   -5.7978 H   0  0  0  0  0  0  0  0  0  0  0  0
    2.5108   12.6016   -6.0247 H   0  0  0  0  0  0  0  0  0  0  0  0
    4.6070   11.9144   -7.1441 H   0  0  0  0  0  0  0  0  0  0  0  0
    4.8711   13.1303   -5.8333 H   0  0  0  0  0  0  0  0  0  0  0  0
    6.5839   11.4554   -5.6869 H   0  0  0  0  0  0  0  0  0  0  0  0
    5.0750    9.3010   -4.9810 H   0  0  0  0  0  0  0  0  0  0  0  0
    6.1559   12.6524   -2.2771 H   0  0  0  0  0  0  0  0  0  0  0  0
    7.1600   12.7050   -3.7657 H   0  0  0  0  0  0  0  0  0  0  0  0
    5.5153   13.4273   -3.7657 H   0  0  0  0  0  0  0  0  0  0  0  0
    6.4551   10.1820   -2.1587 H   0  0  0  0  0  0  0  0  0  0  0  0
    6.1435    9.1654   -3.6064 H   0  0  0  0  0  0  0  0  0  0  0  0
    7.5075   10.3342   -3.6064 H   0  0  0  0  0  0  0  0  0  0  0  0
    0.4010   10.0592   -3.5001 H   0  0  0  0  0  0  0  0  0  0  0  0
    0.0296   11.1642   -4.8667 H   0  0  0  0  0  0  0  0  0  0  0  0
    1.5561   10.2174   -4.8667 H   0  0  0  0  0  0  0  0  0  0  0  0
    1.1664   13.6086   -4.8072 H   0  0  0  0  0  0  0  0  0  0  0  0
   -0.2925   12.9354   -3.8841 H   0  0  0  0  0  0  0  0  0  0  0  0
    1.8426   14.8202   -2.8466 H   0  0  0  0  0  0  0  0  0  0  0  0
    0.0840   15.1432   -3.1118 H   0  0  0  0  0  0  0  0  0  0  0  0
   -1.2950   13.2213   -0.3804 H   0  0  0  0  0  0  0  0  0  0  0  0
   -1.6059   14.0639   -1.9361 H   0  0  0  0  0  0  0  0  0  0  0  0
   -0.9879   12.3773   -1.9361 H   0  0  0  0  0  0  0  0  0  0  0  0
  1  2  1  0
  2  3  1  0
  3  4  1  0
  4  5  1  0
  5  6  1  0
  6  7  1  0
  7  8  1  0
  7  9  1  0
  2 10  1  0
 10 11  1  0
 11 12  1  0
 12 13  1  0
 13 14  1  1
 13 15  1  0
 15 16  1  0
 16 17  1  0
 17 18  2  0
 18 19  1  0
 19 20  1  0
 20 21  1  0
 21 22  1  0
 22 23  1  0
 22 24  1  0
 24 25  1  0
 24 26  1  0
 19 27  1  0
 27 28  1  6
 27 29  1  0
 29 30  1  0
 30 31  1  0
 31 32  1  6
  7  5  1  0
 31 10  1  0
 31 13  1  0
 27 15  1  0
 24 18  1  0
  1 33  1  0
  1 34  1  0
  1 35  1  0
  2 36  1  6
  3 37  1  0
  3 38  1  0
  4 39  1  0
  4 40  1  0
  5 41  1  6
  8 42  1  0
  8 43  1  0
  8 44  1  0
  9 45  1  0
  9 46  1  0
  9 47  1  0
 10 48  1  6
 11 49  1  0
 11 50  1  0
 12 51  1  0
 12 52  1  0
 14 53  1  0
 14 54  1  0
 14 55  1  0
 15 56  1  6
 16 57  1  0
 16 58  1  0
 17 59  1  0
 19 60  1  6
 20 61  1  0
 20 62  1  0
 21 63  1  0
 21 64  1  0
 22 65  1  6
 23 66  1  0
 25 67  1  0
 25 68  1  0
 25 69  1  0
 26 70  1  0
 26 71  1  0
 26 72  1  0
 28 73  1  0
 28 74  1  0
 28 75  1  0
 29 76  1  0
 29 77  1  0
 30 78  1  0
 30 79  1  0
 32 80  1  0
 32 81  1  0
 32 82  1  0
M  END
>  <meeko>  (2) 
{"is_sidechain": [false], "intermolecular_energy": 2.731, "internal_energy": -0.839}

$$$$
EPH_relaxed_0001_pdb2pqr_Repair_356_r2_0001_out
     RDKit          3D

 82 86  0  0  0  0  0  0  0  0999 V2000
   -1.4160   15.4140    0.9500 C   0  0  0  0  0  0  0  0  0  0  0  0
   -0.1750   16.0200    0.2870 C   0  0  2  0  0  0  0  0  0  0  0  0
   -0.5130   16.7300   -1.0390 C   0  0  0  0  0  0  0  0  0  0  0  0
   -0.2240   18.2330   -1.0240 C   0  0  0  0  0  0  0  0  0  0  0  0
    1.2110   18.5190   -0.6990 C   0  0  2  0  0  0  0  0  0  0  0  0
    1.7790   19.6220   -1.4160 O   0  0  0  0  0  0  0  0  0  0  0  0
    2.3460   18.3290   -1.6870 C   0  0  0  0  0  0  0  0  0  0  0  0
    2.0970   17.8340   -3.0770 C   0  0  0  0  0  0  0  0  0  0  0  0
    3.7350   18.1570   -1.1560 C   0  0  0  0  0  0  0  0  0  0  0  0
    0.8680   14.9350    0.0460 C   0  0  1  0  0  0  0  0  0  0  0  0
    1.0000   13.9580    1.2440 C   0  0  0  0  0  0  0  0  0  0  0  0
    1.3040   12.5590    0.6490 C   0  0  0  0  0  0  0  0  0  0  0  0
    1.6630   12.8340   -0.8300 C   0  0  1  0  0  0  0  0  0  0  0  0
    3.1570   13.2860   -0.8030 C   0  0  0  0  0  0  0  0  0  0  0  0
    1.4350   11.6520   -1.8280 C   0  0  2  0  0  0  0  0  0  0  0  0
    2.2810   10.3960   -1.5550 C   0  0  0  0  0  0  0  0  0  0  0  0
    3.6040   10.3550   -2.2470 C   0  0  0  0  0  0  0  0  0  0  0  0
    3.9750   11.1450   -3.2720 C   0  0  0  0  0  0  0  0  0  0  0  0
    2.9860   12.1340   -3.9020 C   0  0  1  0  0  0  0  0  0  0  0  0
    3.0570   12.0220   -5.4480 C   0  0  0  0  0  0  0  0  0  0  0  0
    4.4750   12.1940   -5.9830 C   0  0  0  0  0  0  0  0  0  0  0  0
    5.4160   11.1550   -5.3770 C   0  0  2  0  0  0  0  0  0  0  0  0
    5.0350    9.8580   -5.8470 O   0  0  0  0  0  0  0  0  0  0  0  0
    5.4220   11.1670   -3.8230 C   0  0  0  0  0  0  0  0  0  0  0  0
    6.1150   12.4560   -3.3150 C   0  0  0  0  0  0  0  0  0  0  0  0
    6.3010    9.9820   -3.3400 C   0  0  0  0  0  0  0  0  0  0  0  0
    1.4960   12.0700   -3.3530 C   0  0  1  0  0  0  0  0  0  0  0  0
    0.6840   10.9980   -4.1410 C   0  0  0  0  0  0  0  0  0  0  0  0
    0.7890   13.4500   -3.6230 C   0  0  0  0  0  0  0  0  0  0  0  0
    0.9520   14.5380   -2.5450 C   0  0  0  0  0  0  0  0  0  0  0  0
    0.6380   13.9810   -1.1530 C   0  0  2  0  0  0  0  0  0  0  0  0
   -0.8650   13.5390   -1.1430 C   0  0  0  0  0  0  0  0  0  0  0  0
   -1.3097   15.4659    2.0436 H   0  0  0  0  0  0  0  0  0  0  0  0
   -2.3088   15.9775    0.6412 H   0  0  0  0  0  0  0  0  0  0  0  0
   -1.5206   14.3634    0.6412 H   0  0  0  0  0  0  0  0  0  0  0  0
    0.2295   16.7784    0.9734 H   0  0  0  0  0  0  0  0  0  0  0  0
    0.0830   16.2699   -1.8409 H   0  0  0  0  0  0  0  0  0  0  0  0
   -1.5949   16.6126   -1.1995 H   0  0  0  0  0  0  0  0  0  0  0  0
   -0.4549   18.6502   -2.0153 H   0  0  0  0  0  0  0  0  0  0  0  0
   -0.8500   18.6945   -0.2462 H   0  0  0  0  0  0  0  0  0  0  0  0
    1.0693   18.1758    0.3364 H   0  0  0  0  0  0  0  0  0  0  0  0
    1.6031   16.8521   -3.0336 H   0  0  0  0  0  0  0  0  0  0  0  0
    1.4501   18.5466   -3.6096 H   0  0  0  0  0  0  0  0  0  0  0  0
    3.0548   17.7394   -3.6096 H   0  0  0  0  0  0  0  0  0  0  0  0
    3.7101   18.1601   -0.0563 H   0  0  0  0  0  0  0  0  0  0  0  0
    4.1474   17.2009   -1.5108 H   0  0  0  0  0  0  0  0  0  0  0  0
    4.3681   18.9836   -1.5108 H   0  0  0  0  0  0  0  0  0  0  0  0
    1.7507   15.5649   -0.1387 H   0  0  0  0  0  0  0  0  0  0  0  0
    1.8212   14.2758    1.9033 H   0  0  0  0  0  0  0  0  0  0  0  0
    0.0774   13.9405    1.8428 H   0  0  0  0  0  0  0  0  0  0  0  0
    2.1495   12.0895    1.1730 H   0  0  0  0  0  0  0  0  0  0  0  0
    0.4537   11.8686    0.7506 H   0  0  0  0  0  0  0  0  0  0  0  0
    3.4907   13.3870    0.2403 H   0  0  0  0  0  0  0  0  0  0  0  0
    3.7766   12.5351   -1.3151 H   0  0  0  0  0  0  0  0  0  0  0  0
    3.2564   14.2544   -1.3151 H   0  0  0  0  0  0  0  0  0  0  0  0
    0.3945   11.3632   -1.6182 H   0  0  0  0  0  0  0  0  0  0  0  0
    2.4621   10.3371   -0.4716 H   0  0  0  0  0  0  0  0  0  0  0  0
    1.7036    9.5480   -1.9519 H   0  0  0  0  0  0  0  0  0  0  0  0
    4.3370    9.6171   -1.8889 H   0  0  0  0  0  0  0  0  0  0  0  0
    3.3127   13.1352   -3.5844 H   0  0  0  0  0  0  0  0  0  0  0  0
    2.6852   11.0309   -5.7471 H   0  0  0  0  0  0  0  0  0  0  0  0
    2.4410   12.8300   -5.8697 H   0  0  0  0  0  0  0  0  0  0  0  0
    4.4641   12.0757   -7.0766 H   0  0  0  0  0  0  0  0  0  0  0  0
    4.8349   13.1966   -5.7085 H   0  0  0  0  0  0  0  0  0  0  0  0
    6.4376   11.4087   -5.6965 H   0  0  0  0  0  0  0  0  0  0  0  0
    5.0560    9.2520   -5.0870 H   0  0  0  0  0  0  0  0  0  0  0  0
    6.1180   12.4615   -2.2150 H   0  0  0  0  0  0  0  0  0  0  0  0
    7.1506   12.4856   -3.6846 H   0  0  0  0  0  0  0  0  0  0  0  0
    5.5685   13.3362   -3.6846 H   0  0  0  0  0  0  0  0  0  0  0  0
    6.3164    9.9613   -2.2403 H   0  0  0  0  0  0  0  0  0  0  0  0
    5.8834    9.0375   -3.7187 H   0  0  0  0  0  0  0  0  0  0  0  0
    7.3261   10.1076   -3.7187 H   0  0  0  0  0  0  0  0  0  0  0  0
    0.1764   10.3279   -3.4316 H   0  0  0  0  0  0  0  0  0  0  0  0
   -0.0647   11.4971   -4.7738 H   0  0  0  0  0  0  0  0  0  0  0  0
    1.3672   10.4125   -4.7738 H   0  0  0  0  0  0  0  0  0  0  0  0
    1.1922   13.8516   -4.5644 H   0  0  0  0  0  0  0  0  0  0  0  0
   -0.2871   13.2227   -3.6413 H   0  0  0  0  0  0  0  0  0  0  0  0
    1.9882   14.9070   -2.5598 H   0  0  0  0  0  0  0  0  0  0  0  0
    0.2493   15.3558   -2.7626 H   0  0  0  0  0  0  0  0  0  0  0  0
   -1.2104   13.4374   -0.1036 H   0  0  0  0  0  0  0  0  0  0  0  0
   -1.4733   14.2963   -1.6592 H   0  0  0  0  0  0  0  0  0  0  0  0
   -0.9665   12.5730   -1.6592 H   0  0  0  0  0  0  0  0  0  0  0  0
  1  2  1  0
  2  3  1  0
  3  4  1  0
  4  5  1  0
  5  6  1  0
  6  7  1  0
  7  8  1  0
  7  9  1  0
  2 10  1  0
 10 11  1  0
 11 12  1  0
 12 13  1  0
 13 14  1  1
 13 15  1  0
 15 16  1  0
 16 17  1  0
 17 18  2  0
 18 19  1  0
 19 20  1  0
 20 21  1  0
 21 22  1  0
 22 23  1  0
 22 24  1  0
 24 25  1  0
 24 26  1  0
 19 27  1  0
 27 28  1  6
 27 29  1  0
 29 30  1  0
 30 31  1  0
 31 32  1  6
  7  5  1  0
 31 10  1  0
 31 13  1  0
 27 15  1  0
 24 18  1  0
  1 33  1  0
  1 34  1  0
  1 35  1  0
  2 36  1  1
  3 37  1  0
  3 38  1  0
  4 39  1  0
  4 40  1  0
  5 41  1  1
  8 42  1  0
  8 43  1  0
  8 44  1  0
  9 45  1  0
  9 46  1  0
  9 47  1  0
 10 48  1  6
 11 49  1  0
 11 50  1  0
 12 51  1  0
 12 52  1  0
 14 53  1  0
 14 54  1  0
 14 55  1  0
 15 56  1  1
 16 57  1  0
 16 58  1  0
 17 59  1  0
 19 60  1  6
 20 61  1  0
 20 62  1  0
 21 63  1  0
 21 64  1  0
 22 65  1  6
 23 66  1  0
 25 67  1  0
 25 68  1  0
 25 69  1  0
 26 70  1  0
 26 71  1  0
 26 72  1  0
 28 73  1  0
 28 74  1  0
 28 75  1  0
 29 76  1  0
 29 77  1  0
 30 78  1  0
 30 79  1  0
 32 80  1  0
 32 81  1  0
 32 82  1  0
M  END
>  <meeko>  (3) 
{"is_sidechain": [false], "intermolecular_energy": 2.731, "internal_energy": -0.839}

$$$$
EPH_relaxed_0001_pdb2pqr_Repair_356_r2_0001_out
     RDKit          3D

 82 86  0  0  0  0  0  0  0  0999 V2000
    0.4840    9.0440   -2.6980 C   0  0  0  0  0  0  0  0  0  0  0  0
    1.3680   10.0030   -3.5010 C   0  0  2  0  0  0  0  0  0  0  0  0
    2.8570    9.8760   -3.1230 C   0  0  0  0  0  0  0  0  0  0  0  0
    3.7970   10.6480   -4.0530 C   0  0  0  0  0  0  0  0  0  0  0  0
    5.1590   10.8150   -3.4500 C   0  0  2  0  0  0  0  0  0  0  0  0
    5.8170   12.0430   -3.7880 O   0  0  0  0  0  0  0  0  0  0  0  0
    6.4370   10.8390   -4.2670 C   0  0  0  0  0  0  0  0  0  0  0  0
    6.4150   10.6930   -5.7560 C   0  0  0  0  0  0  0  0  0  0  0  0
    7.7290   10.5140   -3.5830 C   0  0  0  0  0  0  0  0  0  0  0  0
    0.8990   11.4390   -3.2940 C   0  0  1  0  0  0  0  0  0  0  0  0
   -0.6450   11.5530   -3.1840 C   0  0  0  0  0  0  0  0  0  0  0  0
   -0.9380   12.6890   -2.1700 C   0  0  0  0  0  0  0  0  0  0  0  0
    0.4190   13.4060   -1.9850 C   0  0  1  0  0  0  0  0  0  0  0  0
    0.5380   14.3620   -3.2130 C   0  0  0  0  0  0  0  0  0  0  0  0
    0.6180   14.1720   -0.6370 C   0  0  2  0  0  0  0  0  0  0  0  0
   -0.3590   15.3370   -0.3980 C   0  0  0  0  0  0  0  0  0  0  0  0
    0.1010   16.6670   -0.8960 C   0  0  0  0  0  0  0  0  0  0  0  0
    1.3610   16.9750   -1.2540 C   0  0  0  0  0  0  0  0  0  0  0  0
    2.5000   15.9620   -1.0790 C   0  0  1  0  0  0  0  0  0  0  0  0
    3.7210   16.6620   -0.4270 C   0  0  0  0  0  0  0  0  0  0  0  0
    4.1600   17.9060   -1.1920 C   0  0  0  0  0  0  0  0  0  0  0  0
    3.0180   18.9150   -1.2940 C   0  0  2  0  0  0  0  0  0  0  0  0
    2.7250   19.4130    0.0150 O   0  0  0  0  0  0  0  0  0  0  0  0
    1.7300   18.3200   -1.9280 C   0  0  0  0  0  0  0  0  0  0  0  0
    1.9640   18.0590   -3.4360 C   0  0  0  0  0  0  0  0  0  0  0  0
    0.6140   19.3970   -1.8420 C   0  0  0  0  0  0  0  0  0  0  0  0
    2.1130   14.6040   -0.3500 C   0  0  1  0  0  0  0  0  0  0  0  0
    2.2390   14.7750    1.1950 C   0  0  0  0  0  0  0  0  0  0  0  0
    3.1460   13.4880   -0.7590 C   0  0  0  0  0  0  0  0  0  0  0  0
    2.8330   12.6860   -2.0360 C   0  0  0  0  0  0  0  0  0  0  0  0
    1.3900   12.1710   -2.0200 C   0  0  2  0  0  0  0  0  0  0  0  0
    1.2460   11.1890   -0.8070 C   0  0  0  0  0  0  0  0  0  0  0  0
    0.6409    9.2142   -1.6226 H   0  0  0  0  0  0  0  0  0  0  0  0
   -0.5723    9.2233   -2.9473 H   0  0  0  0  0  0  0  0  0  0  0  0
    0.7485    8.0058   -2.9473 H   0  0  0  0  0  0  0  0  0  0  0  0
    1.2728    9.7295   -4.5622 H   0  0  0  0  0  0  0  0  0  0  0  0
    2.9893   10.2586   -2.1002 H   0  0  0  0  0  0  0  0  0  0  0  0
    3.1210    8.8118   -3.2110 H   0  0  0  0  0  0  0  0  0  0  0  0
    3.8917   10.0979   -5.0009 H   0  0  0  0  0  0  0  0  0  0  0  0
    3.3703   11.6482   -4.2188 H   0  0  0  0  0  0  0  0  0  0  0  0
    4.8621   10.2398   -2.5606 H   0  0  0  0  0  0  0  0  0  0  0  0
    6.2558    9.6367   -6.0185 H   0  0  0  0  0  0  0  0  0  0  0  0
    5.5984   11.3013   -6.1720 H   0  0  0  0  0  0  0  0  0  0  0  0
    7.3746   11.0337   -6.1720 H   0  0  0  0  0  0  0  0  0  0  0  0
    7.5860   10.5500   -2.4929 H   0  0  0  0  0  0  0  0  0  0  0  0
    8.0559    9.5056   -3.8768 H   0  0  0  0  0  0  0  0  0  0  0  0
    8.4941   11.2477   -3.8768 H   0  0  0  0  0  0  0  0  0  0  0  0
    1.3363   11.9065   -4.1886 H   0  0  0  0  0  0  0  0  0  0  0  0
   -1.0775   11.7997   -4.1648 H   0  0  0  0  0  0  0  0  0  0  0  0
   -1.0888   10.6028   -2.8521 H   0  0  0  0  0  0  0  0  0  0  0  0
   -1.6921   13.3823   -2.5708 H   0  0  0  0  0  0  0  0  0  0  0  0
   -1.3409   12.3070   -1.2204 H   0  0  0  0  0  0  0  0  0  0  0  0
    0.6667   15.3963   -2.8614 H   0  0  0  0  0  0  0  0  0  0  0  0
    1.4068   14.0708   -3.8216 H   0  0  0  0  0  0  0  0  0  0  0  0
   -0.3757   14.2927   -3.8216 H   0  0  0  0  0  0  0  0  0  0  0  0
    0.3588   13.4061    0.1088 H   0  0  0  0  0  0  0  0  0  0  0  0
   -1.3066   15.0947   -0.9014 H   0  0  0  0  0  0  0  0  0  0  0  0
   -0.4530   15.4365    0.6935 H   0  0  0  0  0  0  0  0  0  0  0  0
   -0.6541   17.4627   -0.9772 H   0  0  0  0  0  0  0  0  0  0  0  0
    2.7630   15.6219   -2.0915 H   0  0  0  0  0  0  0  0  0  0  0  0
    3.4529   16.9553    0.5987 H   0  0  0  0  0  0  0  0  0  0  0  0
    4.5593   15.9499   -0.4388 H   0  0  0  0  0  0  0  0  0  0  0  0
    5.0063   18.3721   -0.6662 H   0  0  0  0  0  0  0  0  0  0  0  0
    4.4563   17.6070   -2.2083 H   0  0  0  0  0  0  0  0  0  0  0  0
    3.3505   19.7239   -1.9612 H   0  0  0  0  0  0  0  0  0  0  0  0
    2.8990   20.3690    0.0120 H   0  0  0  0  0  0  0  0  0  0  0  0
    2.6937   17.2451   -3.5583 H   0  0  0  0  0  0  0  0  0  0  0  0
    1.0135   17.7737   -3.9106 H   0  0  0  0  0  0  0  0  0  0  0  0
    2.3510   18.9728   -3.9106 H   0  0  0  0  0  0  0  0  0  0  0  0
    0.3919   19.6114   -0.7862 H   0  0  0  0  0  0  0  0  0  0  0  0
    0.9536   20.3174   -2.3394 H   0  0  0  0  0  0  0  0  0  0  0  0
   -0.2938   19.0249   -2.3394 H   0  0  0  0  0  0  0  0  0  0  0  0
    1.6592   13.9881    1.6995 H   0  0  0  0  0  0  0  0  0  0  0  0
    3.2964   14.6960    1.4876 H   0  0  0  0  0  0  0  0  0  0  0  0
    1.8503   15.7616    1.4876 H   0  0  0  0  0  0  0  0  0  0  0  0
    4.1220   13.9746   -0.9026 H   0  0  0  0  0  0  0  0  0  0  0  0
    3.1132   12.7523    0.0581 H   0  0  0  0  0  0  0  0  0  0  0  0
    2.9736   13.3356   -2.9125 H   0  0  0  0  0  0  0  0  0  0  0  0
    3.5131   11.8228   -2.0837 H   0  0  0  0  0  0  0  0  0  0  0  0
    1.3288   11.7534    0.1335 H   0  0  0  0  0  0  0  0  0  0  0  0
    0.2654   10.6925   -0.8516 H   0  0  0  0  0  0  0  0  0  0  0  0
    2.0427   10.4319   -0.8516 H   0  0  0  0  0  0  0  0  0  0  0  0
  1  2  1  0
  2  3  1  0
  3  4  1  0
  4  5  1  0
  5  6  1  0
  6  7  1  0
  7  8  1  0
  7  9  1  0
  2 10  1  0
 10 11  1  0
 11 12  1  0
 12 13  1  0
 13 14  1  6
 13 15  1  0
 15 16  1  0
 16 17  1  0
 17 18  2  0
 18 19  1  0
 19 20  1  0
 20 21  1  0
 21 22  1  0
 22 23  1  0
 22 24  1  0
 24 25  1  0
 24 26  1  0
 19 27  1  0
 27 28  1  1
 27 29  1  0
 29 30  1  0
 30 31  1  0
 31 32  1  1
  7  5  1  0
 31 10  1  0
 31 13  1  0
 27 15  1  0
 24 18  1  0
  1 33  1  0
  1 34  1  0
  1 35  1  0
  2 36  1  6
  3 37  1  0
  3 38  1  0
  4 39  1  0
  4 40  1  0
  5 41  1  1
  8 42  1  0
  8 43  1  0
  8 44  1  0
  9 45  1  0
  9 46  1  0
  9 47  1  0
 10 48  1  6
 11 49  1  0
 11 50  1  0
 12 51  1  0
 12 52  1  0
 14 53  1  0
 14 54  1  0
 14 55  1  0
 15 56  1  1
 16 57  1  0
 16 58  1  0
 17 59  1  0
 19 60  1  6
 20 61  1  0
 20 62  1  0
 21 63  1  0
 21 64  1  0
 22 65  1  6
 23 66  1  0
 25 67  1  0
 25 68  1  0
 25 69  1  0
 26 70  1  0
 26 71  1  0
 26 72  1  0
 28 73  1  0
 28 74  1  0
 28 75  1  0
 29 76  1  0
 29 77  1  0
 30 78  1  0
 30 79  1  0
 32 80  1  0
 32 81  1  0
 32 82  1  0
M  END
>  <meeko>  (4) 
{"is_sidechain": [false], "intermolecular_energy": 2.731, "internal_energy": -0.839}

$$$$
EPH_relaxed_0001_pdb2pqr_Repair_356_r2_0001_out
     RDKit          3D

 82 86  0  0  0  0  0  0  0  0999 V2000
    2.9850   16.1730   -7.9560 C   0  0  0  0  0  0  0  0  0  0  0  0
    1.7330   15.3100   -7.7810 C   0  0  2  0  0  0  0  0  0  0  0  0
    0.5510   15.8240   -8.6270 C   0  0  0  0  0  0  0  0  0  0  0  0
    0.1750   14.8970   -9.7870 C   0  0  0  0  0  0  0  0  0  0  0  0
    0.7940   15.3450  -11.0770 C   0  0  2  0  0  0  0  0  0  0  0  0
    1.0940   14.2870  -11.9960 O   0  0  0  0  0  0  0  0  0  0  0  0
    2.2190   15.0160  -11.4800 C   0  0  0  0  0  0  0  0  0  0  0  0
    3.1140   14.2080  -10.5940 C   0  0  0  0  0  0  0  0  0  0  0  0
    2.8940   15.8840  -12.4970 C   0  0  0  0  0  0  0  0  0  0  0  0
    1.3380   15.2600   -6.3100 C   0  0  1  0  0  0  0  0  0  0  0  0
    0.0500   16.0710   -6.0100 C   0  0  0  0  0  0  0  0  0  0  0  0
   -0.7110   15.3070   -4.8950 C   0  0  0  0  0  0  0  0  0  0  0  0
    0.3120   14.2760   -4.3630 C   0  0  1  0  0  0  0  0  0  0  0  0
    1.2120   15.0780   -3.3720 C   0  0  0  0  0  0  0  0  0  0  0  0
   -0.2840   12.9950   -3.6920 C   0  0  2  0  0  0  0  0  0  0  0  0
   -1.1220   13.2500   -2.4270 C   0  0  0  0  0  0  0  0  0  0  0  0
   -0.3610   13.2260   -1.1430 C   0  0  0  0  0  0  0  0  0  0  0  0
    0.8800   12.7320   -0.9780 C   0  0  0  0  0  0  0  0  0  0  0  0
    1.6100   12.0340   -2.1330 C   0  0  1  0  0  0  0  0  0  0  0  0
    2.2410   10.7120   -1.6230 C   0  0  0  0  0  0  0  0  0  0  0  0
    3.1400   10.9230   -0.4080 C   0  0  0  0  0  0  0  0  0  0  0  0
    2.3640   11.5660    0.7390 C   0  0  2  0  0  0  0  0  0  0  0  0
    1.3800   10.6370    1.2060 O   0  0  0  0  0  0  0  0  0  0  0  0
    1.6740   12.9010    0.3400 C   0  0  0  0  0  0  0  0  0  0  0  0
    2.7470   13.9960    0.1240 C   0  0  0  0  0  0  0  0  0  0  0  0
    0.8110   13.3700    1.5430 C   0  0  0  0  0  0  0  0  0  0  0  0
    0.7670   11.8330   -3.4660 C   0  0  1  0  0  0  0  0  0  0  0  0
   -0.0470   10.5060   -3.3850 C   0  0  0  0  0  0  0  0  0  0  0  0
    1.7550   11.6750   -4.6810 C   0  0  0  0  0  0  0  0  0  0  0  0
    2.2140   12.9710   -5.3760 C   0  0  0  0  0  0  0  0  0  0  0  0
    1.0180   13.8690   -5.7070 C   0  0  2  0  0  0  0  0  0  0  0  0
    0.1050   13.0960   -6.7190 C   0  0  0  0  0  0  0  0  0  0  0  0
    3.3825   16.4470   -6.9676 H   0  0  0  0  0  0  0  0  0  0  0  0
    3.7458   15.6066   -8.5131 H   0  0  0  0  0  0  0  0  0  0  0  0
    2.7264   17.0856   -8.5131 H   0  0  0  0  0  0  0  0  0  0  0  0
    1.9765   14.2974   -8.1350 H   0  0  0  0  0  0  0  0  0  0  0  0
   -0.3250   15.9317   -7.9705 H   0  0  0  0  0  0  0  0  0  0  0  0
    0.8644   16.7813   -9.0691 H   0  0  0  0  0  0  0  0  0  0  0  0
    0.5247   13.8795   -9.5581 H   0  0  0  0  0  0  0  0  0  0  0  0
   -0.9184   14.9206   -9.9046 H   0  0  0  0  0  0  0  0  0  0  0  0
    0.2376   16.2932  -11.0418 H   0  0  0  0  0  0  0  0  0  0  0  0
    2.8775   14.4215   -9.5412 H   0  0  0  0  0  0  0  0  0  0  0  0
    2.9594   13.1376  -10.7947 H   0  0  0  0  0  0  0  0  0  0  0  0
    4.1631   14.4709  -10.7947 H   0  0  0  0  0  0  0  0  0  0  0  0
    3.4915   16.6524  -11.9846 H   0  0  0  0  0  0  0  0  0  0  0  0
    3.5521   15.2672  -13.1267 H   0  0  0  0  0  0  0  0  0  0  0  0
    2.1341   16.3699  -13.1267 H   0  0  0  0  0  0  0  0  0  0  0  0
    2.2560   15.6639   -5.8582 H   0  0  0  0  0  0  0  0  0  0  0  0
    0.3110   17.0826   -5.6656 H   0  0  0  0  0  0  0  0  0  0  0  0
   -0.5708   16.1740   -6.9123 H   0  0  0  0  0  0  0  0  0  0  0  0
   -1.0214   15.9950   -4.0948 H   0  0  0  0  0  0  0  0  0  0  0  0
   -1.6297   14.8302   -5.2674 H   0  0  0  0  0  0  0  0  0  0  0  0
    0.9318   14.8283   -2.3380 H   0  0  0  0  0  0  0  0  0  0  0  0
    2.2668   14.8150   -3.5397 H   0  0  0  0  0  0  0  0  0  0  0  0
    1.0718   16.1561   -3.5397 H   0  0  0  0  0  0  0  0  0  0  0  0
   -0.9943   12.6391   -4.4528 H   0  0  0  0  0  0  0  0  0  0  0  0
   -1.5928   14.2394   -2.5248 H   0  0  0  0  0  0  0  0  0  0  0  0
   -1.8444   12.4225   -2.3683 H   0  0  0  0  0  0  0  0  0  0  0  0
   -0.8567   13.6480   -0.2563 H   0  0  0  0  0  0  0  0  0  0  0  0
    2.4020   12.7264   -2.4544 H   0  0  0  0  0  0  0  0  0  0  0  0
    1.4326   10.0188   -1.3473 H   0  0  0  0  0  0  0  0  0  0  0  0
    2.8644   10.3054   -2.4330 H   0  0  0  0  0  0  0  0  0  0  0  0
    3.5320    9.9501   -0.0768 H   0  0  0  0  0  0  0  0  0  0  0  0
    3.9648   11.5927   -0.6932 H   0  0  0  0  0  0  0  0  0  0  0  0
    3.0873   11.8116    1.5305 H   0  0  0  0  0  0  0  0  0  0  0  0
    0.7910   10.4320    0.4610 H   0  0  0  0  0  0  0  0  0  0  0  0
    3.1024   14.3587    1.0998 H   0  0  0  0  0  0  0  0  0  0  0  0
    3.5920   13.5751   -0.4406 H   0  0  0  0  0  0  0  0  0  0  0  0
    2.3090   14.8323   -0.4406 H   0  0  0  0  0  0  0  0  0  0  0  0
    1.3131   13.0971    2.4829 H   0  0  0  0  0  0  0  0  0  0  0  0
    0.6832   14.4617    1.4991 H   0  0  0  0  0  0  0  0  0  0  0  0
   -0.1745   12.8834    1.4991 H   0  0  0  0  0  0  0  0  0  0  0  0
   -0.2103   10.2398   -2.3303 H   0  0  0  0  0  0  0  0  0  0  0  0
   -1.0181   10.6405   -3.8838 H   0  0  0  0  0  0  0  0  0  0  0  0
    0.5130    9.7013   -3.8838 H   0  0  0  0  0  0  0  0  0  0  0  0
    2.6538   11.1579   -4.3140 H   0  0  0  0  0  0  0  0  0  0  0  0
    1.1862   11.1246   -5.4449 H   0  0  0  0  0  0  0  0  0  0  0  0
    2.8981   13.5147   -4.7079 H   0  0  0  0  0  0  0  0  0  0  0  0
    2.7227   12.7045   -6.3142 H   0  0  0  0  0  0  0  0  0  0  0  0
   -0.6198   12.4823   -6.1640 H   0  0  0  0  0  0  0  0  0  0  0  0
   -0.4334   13.8170   -7.3517 H   0  0  0  0  0  0  0  0  0  0  0  0
    0.7273   12.4461   -7.3517 H   0  0  0  0  0  0  0  0  0  0  0  0
  1  2  1  0
  2  3  1  0
  3  4  1  0
  4  5  1  0
  5  6  1  0
  6  7  1  0
  7  8  1  0
  7  9  1  0
  2 10  1  0
 10 11  1  0
 11 12  1  0
 12 13  1  0
 13 14  1  1
 13 15  1  0
 15 16  1  0
 16 17  1  0
 17 18  2  0
 18 19  1  0
 19 20  1  0
 20 21  1  0
 21 22  1  0
 22 23  1  0
 22 24  1  0
 24 25  1  0
 24 26  1  0
 19 27  1  0
 27 28  1  1
 27 29  1  0
 29 30  1  0
 30 31  1  0
 31 32  1  6
  7  5  1  0
 31 10  1  0
 31 13  1  0
 27 15  1  0
 24 18  1  0
  1 33  1  0
  1 34  1  0
  1 35  1  0
  2 36  1  6
  3 37  1  0
  3 38  1  0
  4 39  1  0
  4 40  1  0
  5 41  1  6
  8 42  1  0
  8 43  1  0
  8 44  1  0
  9 45  1  0
  9 46  1  0
  9 47  1  0
 10 48  1  1
 11 49  1  0
 11 50  1  0
 12 51  1  0
 12 52  1  0
 14 53  1  0
 14 54  1  0
 14 55  1  0
 15 56  1  6
 16 57  1  0
 16 58  1  0
 17 59  1  0
 19 60  1  6
 20 61  1  0
 20 62  1  0
 21 63  1  0
 21 64  1  0
 22 65  1  1
 23 66  1  0
 25 67  1  0
 25 68  1  0
 25 69  1  0
 26 70  1  0
 26 71  1  0
 26 72  1  0
 28 73  1  0
 28 74  1  0
 28 75  1  0
 29 76  1  0
 29 77  1  0
 30 78  1  0
 30 79  1  0
 32 80  1  0
 32 81  1  0
 32 82  1  0
M  END
>  <meeko>  (5) 
{"is_sidechain": [false], "intermolecular_energy": 2.731, "internal_energy": -0.839}

$$$$
EPH_relaxed_0001_pdb2pqr_Repair_356_r2_0001_out
     RDKit          3D

 82 86  0  0  0  0  0  0  0  0999 V2000
    0.9480   20.0700   -2.0150 C   0  0  0  0  0  0  0  0  0  0  0  0
    1.2210   19.7570   -0.5410 C   0  0  2  0  0  0  0  0  0  0  0  0
    2.6740   20.0780   -0.1380 C   0  0  0  0  0  0  0  0  0  0  0  0
    2.8920   20.1490    1.3760 C   0  0  0  0  0  0  0  0  0  0  0  0
    4.3400   20.0110    1.7350 C   0  0  2  0  0  0  0  0  0  0  0  0
    4.7440   18.6830    2.0920 O   0  0  0  0  0  0  0  0  0  0  0  0
    4.8280   19.6720    3.1310 C   0  0  0  0  0  0  0  0  0  0  0  0
    3.8700   19.4520    4.2600 C   0  0  0  0  0  0  0  0  0  0  0  0
    6.2300   20.0340    3.5070 C   0  0  0  0  0  0  0  0  0  0  0  0
    0.9140   18.2910   -0.2560 C   0  0  1  0  0  0  0  0  0  0  0  0
   -0.4750   18.0900    0.4080 C   0  0  0  0  0  0  0  0  0  0  0  0
   -1.0410   16.7530   -0.1360 C   0  0  0  0  0  0  0  0  0  0  0  0
    0.1640   16.0710   -0.8260 C   0  0  1  0  0  0  0  0  0  0  0  0
    0.9670   15.4050    0.3340 C   0  0  0  0  0  0  0  0  0  0  0  0
   -0.1770   15.0460   -1.9560 C   0  0  2  0  0  0  0  0  0  0  0  0
   -0.9810   13.8160   -1.5000 C   0  0  0  0  0  0  0  0  0  0  0  0
   -0.1640   12.6430   -1.0690 C   0  0  0  0  0  0  0  0  0  0  0  0
    1.1490   12.4720   -1.3140 C   0  0  0  0  0  0  0  0  0  0  0  0
    1.9260   13.4740   -2.1780 C   0  0  1  0  0  0  0  0  0  0  0  0
    2.7930   12.7050   -3.2090 C   0  0  0  0  0  0  0  0  0  0  0  0
    3.7030   11.6710   -2.5530 C   0  0  0  0  0  0  0  0  0  0  0  0
    2.8890   10.6590   -1.7500 C   0  0  2  0  0  0  0  0  0  0  0  0
    2.0990    9.8820   -2.6550 O   0  0  0  0  0  0  0  0  0  0  0  0
    1.9690   11.3190   -0.6850 C   0  0  0  0  0  0  0  0  0  0  0  0
    2.8330   11.9050    0.4590 C   0  0  0  0  0  0  0  0  0  0  0  0
    1.1010   10.2020   -0.0460 C   0  0  0  0  0  0  0  0  0  0  0  0
    1.0620   14.6280   -2.8480 C   0  0  1  0  0  0  0  0  0  0  0  0
    0.4850   14.1380   -4.2110 C   0  0  0  0  0  0  0  0  0  0  0  0
    2.0010   15.8480   -3.1760 C   0  0  0  0  0  0  0  0  0  0  0  0
    2.2030   16.8900   -2.0590 C   0  0  0  0  0  0  0  0  0  0  0  0
    0.8600   17.3270   -1.4670 C   0  0  2  0  0  0  0  0  0  0  0  0
    0.0380   18.0210   -2.6070 C   0  0  0  0  0  0  0  0  0  0  0  0
    0.2265   20.8972   -2.0867 H   0  0  0  0  0  0  0  0  0  0  0  0
    1.8876   20.3592   -2.5086 H   0  0  0  0  0  0  0  0  0  0  0  0
    0.5338   19.1784   -2.5086 H   0  0  0  0  0  0  0  0  0  0  0  0
    0.5619   20.3997    0.0611 H   0  0  0  0  0  0  0  0  0  0  0  0
    3.3288   19.2943   -0.5467 H   0  0  0  0  0  0  0  0  0  0  0  0
    2.9073   21.0737   -0.5432 H   0  0  0  0  0  0  0  0  0  0  0  0
    2.5244   21.1183    1.7439 H   0  0  0  0  0  0  0  0  0  0  0  0
    2.3430   19.3167    1.8406 H   0  0  0  0  0  0  0  0  0  0  0  0
    4.6145   20.8112    1.0319 H   0  0  0  0  0  0  0  0  0  0  0  0
    4.3977   19.5732    5.2175 H   0  0  0  0  0  0  0  0  0  0  0  0
    3.0531   20.1859    4.1961 H   0  0  0  0  0  0  0  0  0  0  0  0
    3.4552   18.4352    4.1961 H   0  0  0  0  0  0  0  0  0  0  0  0
    6.3212   20.0576    4.6030 H   0  0  0  0  0  0  0  0  0  0  0  0
    6.9244   19.2857    3.0973 H   0  0  0  0  0  0  0  0  0  0  0  0
    6.4753   21.0249    3.0973 H   0  0  0  0  0  0  0  0  0  0  0  0
    1.7742   18.0433    0.3833 H   0  0  0  0  0  0  0  0  0  0  0  0
   -0.3684   18.0392    1.5016 H   0  0  0  0  0  0  0  0  0  0  0  0
   -1.1489   18.9279    0.1760 H   0  0  0  0  0  0  0  0  0  0  0  0
   -1.4217   16.1293    0.6862 H   0  0  0  0  0  0  0  0  0  0  0  0
   -1.8842   16.9068   -0.8254 H   0  0  0  0  0  0  0  0  0  0  0  0
    0.5622   15.7407    1.3001 H   0  0  0  0  0  0  0  0  0  0  0  0
    0.8791   14.3110    0.2599 H   0  0  0  0  0  0  0  0  0  0  0  0
    2.0259   15.6936    0.2599 H   0  0  0  0  0  0  0  0  0  0  0  0
   -0.8547   15.6238   -2.6016 H   0  0  0  0  0  0  0  0  0  0  0  0
   -1.6140   14.1188   -0.6529 H   0  0  0  0  0  0  0  0  0  0  0  0
   -1.5513   13.4825   -2.3795 H   0  0  0  0  0  0  0  0  0  0  0  0
   -0.6780   11.8517   -0.5036 H   0  0  0  0  0  0  0  0  0  0  0  0
    2.5745   14.0326   -1.4871 H   0  0  0  0  0  0  0  0  0  0  0  0
    2.1261   12.1898   -3.9160 H   0  0  0  0  0  0  0  0  0  0  0  0
    3.4346   13.4387   -3.7189 H   0  0  0  0  0  0  0  0  0  0  0  0
    4.2671   11.1405   -3.3343 H   0  0  0  0  0  0  0  0  0  0  0  0
    4.3897   12.1912   -1.8690 H   0  0  0  0  0  0  0  0  0  0  0  0
    3.6000   10.0256   -1.1992 H   0  0  0  0  0  0  0  0  0  0  0  0
    2.7080    9.3750   -3.2170 H   0  0  0  0  0  0  0  0  0  0  0  0
    2.4036   11.6137    1.4289 H   0  0  0  0  0  0  0  0  0  0  0  0
    3.8587   11.5154    0.3803 H   0  0  0  0  0  0  0  0  0  0  0  0
    2.8504   13.0020    0.3803 H   0  0  0  0  0  0  0  0  0  0  0  0
    1.1579   10.2753    1.0501 H   0  0  0  0  0  0  0  0  0  0  0  0
    0.0558   10.3207   -0.3676 H   0  0  0  0  0  0  0  0  0  0  0  0
    1.4742    9.2185   -0.3676 H   0  0  0  0  0  0  0  0  0  0  0  0
   -0.3418   13.4359   -4.0280 H   0  0  0  0  0  0  0  0  0  0  0  0
    0.1135   15.0008   -4.7833 H   0  0  0  0  0  0  0  0  0  0  0  0
    1.2762   13.6316   -4.7833 H   0  0  0  0  0  0  0  0  0  0  0  0
    2.9905   15.4452   -3.4380 H   0  0  0  0  0  0  0  0  0  0  0  0
    1.4942   16.3909   -3.9875 H   0  0  0  0  0  0  0  0  0  0  0  0
    2.8206   16.4488   -1.2628 H   0  0  0  0  0  0  0  0  0  0  0  0
    2.7005   17.7721   -2.4883 H   0  0  0  0  0  0  0  0  0  0  0  0
   -0.7306   18.6699   -2.1619 H   0  0  0  0  0  0  0  0  0  0  0  0
    0.7133   18.6263   -3.2296 H   0  0  0  0  0  0  0  0  0  0  0  0
   -0.4455   17.2538   -3.2296 H   0  0  0  0  0  0  0  0  0  0  0  0
  1  2  1  0
  2  3  1  0
  3  4  1  0
  4  5  1  0
  5  6  1  0
  6  7  1  0
  7  8  1  0
  7  9  1  0
  2 10  1  0
 10 11  1  0
 11 12  1  0
 12 13  1  0
 13 14  1  1
 13 15  1  0
 15 16  1  0
 16 17  1  0
 17 18  2  0
 18 19  1  0
 19 20  1  0
 20 21  1  0
 21 22  1  0
 22 23  1  0
 22 24  1  0
 24 25  1  0
 24 26  1  0
 19 27  1  0
 27 28  1  6
 27 29  1  0
 29 30  1  0
 30 31  1  0
 31 32  1  6
  7  5  1  0
 31 10  1  0
 31 13  1  0
 27 15  1  0
 24 18  1  0
  1 33  1  0
  1 34  1  0
  1 35  1  0
  2 36  1  1
  3 37  1  0
  3 38  1  0
  4 39  1  0
  4 40  1  0
  5 41  1  6
  8 42  1  0
  8 43  1  0
  8 44  1  0
  9 45  1  0
  9 46  1  0
  9 47  1  0
 10 48  1  1
 11 49  1  0
 11 50  1  0
 12 51  1  0
 12 52  1  0
 14 53  1  0
 14 54  1  0
 14 55  1  0
 15 56  1  6
 16 57  1  0
 16 58  1  0
 17 59  1  0
 19 60  1  1
 20 61  1  0
 20 62  1  0
 21 63  1  0
 21 64  1  0
 22 65  1  1
 23 66  1  0
 25 67  1  0
 25 68  1  0
 25 69  1  0
 26 70  1  0
 26 71  1  0
 26 72  1  0
 28 73  1  0
 28 74  1  0
 28 75  1  0
 29 76  1  0
 29 77  1  0
 30 78  1  0
 30 79  1  0
 32 80  1  0
 32 81  1  0
 32 82  1  0
M  END
>  <meeko>  (6) 
{"is_sidechain": [false], "intermolecular_energy": 2.731, "internal_energy": -0.839}

$$$$
EPH_relaxed_0001_pdb2pqr_Repair_356_r2_0001_out
     RDKit          3D

 82 86  0  0  0  0  0  0  0  0999 V2000
  -14.6130    6.2910   -0.3850 C   0  0  0  0  0  0  0  0  0  0  0  0
  -13.4020    7.0440    0.1720 C   0  0  2  0  0  0  0  0  0  0  0  0
  -13.7720    8.4580    0.6610 C   0  0  0  0  0  0  0  0  0  0  0  0
  -14.8240    9.1540   -0.2070 C   0  0  0  0  0  0  0  0  0  0  0  0
  -14.2860   10.4050   -0.8340 C   0  0  2  0  0  0  0  0  0  0  0  0
  -15.2860   11.3520   -1.2320 O   0  0  0  0  0  0  0  0  0  0  0  0
  -14.5050   10.7720   -2.2890 C   0  0  0  0  0  0  0  0  0  0  0  0
  -15.2870    9.8860   -3.2080 C   0  0  0  0  0  0  0  0  0  0  0  0
  -13.5560   11.7320   -2.9360 C   0  0  0  0  0  0  0  0  0  0  0  0
  -12.3100    7.1290   -0.8880 C   0  0  1  0  0  0  0  0  0  0  0  0
  -12.5660    8.2600   -1.9200 C   0  0  0  0  0  0  0  0  0  0  0  0
  -11.1780    8.8300   -2.3120 C   0  0  0  0  0  0  0  0  0  0  0  0
  -10.1640    7.8020   -1.7570 C   0  0  1  0  0  0  0  0  0  0  0  0
  -10.1330    6.6570   -2.8160 C   0  0  0  0  0  0  0  0  0  0  0  0
   -8.7300    8.3440   -1.4500 C   0  0  2  0  0  0  0  0  0  0  0  0
   -7.9600    8.8800   -2.6690 C   0  0  0  0  0  0  0  0  0  0  0  0
   -7.1210    7.8730   -3.3860 C   0  0  0  0  0  0  0  0  0  0  0  0
   -6.7650    6.6680   -2.9060 C   0  0  0  0  0  0  0  0  0  0  0  0
   -7.1330    6.2490   -1.4760 C   0  0  1  0  0  0  0  0  0  0  0  0
   -5.8910    5.6300   -0.7820 C   0  0  0  0  0  0  0  0  0  0  0  0
   -5.2810    4.4860   -1.5860 C   0  0  0  0  0  0  0  0  0  0  0  0
   -4.8750    4.9560   -2.9810 C   0  0  2  0  0  0  0  0  0  0  0  0
   -3.7980    5.8900   -2.8580 O   0  0  0  0  0  0  0  0  0  0  0  0
   -6.0440    5.6060   -3.7730 C   0  0  0  0  0  0  0  0  0  0  0  0
   -7.0740    4.5200   -4.1680 C   0  0  0  0  0  0  0  0  0  0  0  0
   -5.4680    6.1630   -5.1030 C   0  0  0  0  0  0  0  0  0  0  0  0
   -7.8370    7.3630   -0.5870 C   0  0  1  0  0  0  0  0  0  0  0  0
   -6.7590    8.2430    0.1150 C   0  0  0  0  0  0  0  0  0  0  0  0
   -8.6550    6.6620    0.5610 C   0  0  0  0  0  0  0  0  0  0  0  0
  -10.1060    6.2580    0.2340 C   0  0  0  0  0  0  0  0  0  0  0  0
  -10.8690    7.4240   -0.4030 C   0  0  2  0  0  0  0  0  0  0  0  0
  -10.9360    8.5830    0.6480 C   0  0  0  0  0  0  0  0  0  0  0  0
  -15.2235    5.9114    0.4476 H   0  0  0  0  0  0  0  0  0  0  0  0
  -15.2171    6.9730   -1.0014 H   0  0  0  0  0  0  0  0  0  0  0  0
  -14.2686    5.4476   -1.0014 H   0  0  0  0  0  0  0  0  0  0  0  0
  -13.0333    6.4800    1.0414 H   0  0  0  0  0  0  0  0  0  0  0  0
  -14.1640    8.3795    1.6858 H   0  0  0  0  0  0  0  0  0  0  0  0
  -12.8571    9.0664    0.6070 H   0  0  0  0  0  0  0  0  0  0  0  0
  -15.1422    8.4647   -1.0030 H   0  0  0  0  0  0  0  0  0  0  0  0
  -15.6717    9.4305    0.4372 H   0  0  0  0  0  0  0  0  0  0  0  0
  -13.3782   10.3535   -0.2149 H   0  0  0  0  0  0  0  0  0  0  0  0
  -15.8998    9.1917   -2.6144 H   0  0  0  0  0  0  0  0  0  0  0  0
  -15.9413   10.5020   -3.8424 H   0  0  0  0  0  0  0  0  0  0  0  0
  -14.5945    9.3133   -3.8424 H   0  0  0  0  0  0  0  0  0  0  0  0
  -13.0084   12.2859   -2.1593 H   0  0  0  0  0  0  0  0  0  0  0  0
  -12.8424   11.1763   -3.5621 H   0  0  0  0  0  0  0  0  0  0  0  0
  -14.1198   12.4392   -3.5621 H   0  0  0  0  0  0  0  0  0  0  0  0
  -12.3680    6.1085   -1.2944 H   0  0  0  0  0  0  0  0  0  0  0  0
  -13.0737    7.8550   -2.8078 H   0  0  0  0  0  0  0  0  0  0  0  0
  -13.2096    9.0444   -1.4951 H   0  0  0  0  0  0  0  0  0  0  0  0
  -11.0872    8.9140   -3.4050 H   0  0  0  0  0  0  0  0  0  0  0  0
  -11.0122    9.8397   -1.9083 H   0  0  0  0  0  0  0  0  0  0  0  0
  -10.1067    5.6841   -2.3034 H   0  0  0  0  0  0  0  0  0  0  0  0
  -11.0331    6.7155   -3.4457 H   0  0  0  0  0  0  0  0  0  0  0  0
   -9.2374    6.7641   -3.4457 H   0  0  0  0  0  0  0  0  0  0  0  0
   -8.9396    9.2213   -0.8204 H   0  0  0  0  0  0  0  0  0  0  0  0
   -8.6927    9.2830   -3.3837 H   0  0  0  0  0  0  0  0  0  0  0  0
   -7.2624    9.6365   -2.2802 H   0  0  0  0  0  0  0  0  0  0  0  0
   -6.7641    8.1397   -4.3918 H   0  0  0  0  0  0  0  0  0  0  0  0
   -7.9224    5.4894   -1.5749 H   0  0  0  0  0  0  0  0  0  0  0  0
   -5.1312    6.4149   -0.6534 H   0  0  0  0  0  0  0  0  0  0  0  0
   -6.2183    5.2209    0.1852 H   0  0  0  0  0  0  0  0  0  0  0  0
   -4.3913    4.1102   -1.0595 H   0  0  0  0  0  0  0  0  0  0  0  0
   -6.0322    3.6890   -1.6885 H   0  0  0  0  0  0  0  0  0  0  0  0
   -4.5662    4.0676   -3.5515 H   0  0  0  0  0  0  0  0  0  0  0  0
   -3.3680    5.7310   -2.0010 H   0  0  0  0  0  0  0  0  0  0  0  0
   -7.5001    4.0708   -3.2588 H   0  0  0  0  0  0  0  0  0  0  0  0
   -7.8786    4.9768   -4.7629 H   0  0  0  0  0  0  0  0  0  0  0  0
   -6.5753    3.7407   -4.7629 H   0  0  0  0  0  0  0  0  0  0  0  0
   -4.6934    6.9121   -4.8819 H   0  0  0  0  0  0  0  0  0  0  0  0
   -5.0269    5.3401   -5.6847 H   0  0  0  0  0  0  0  0  0  0  0  0
   -6.2756    6.6314   -5.6847 H   0  0  0  0  0  0  0  0  0  0  0  0
   -6.8672    8.1546    1.2061 H   0  0  0  0  0  0  0  0  0  0  0  0
   -5.7565    7.9020   -0.1828 H   0  0  0  0  0  0  0  0  0  0  0  0
   -6.8924    9.2935   -0.1828 H   0  0  0  0  0  0  0  0  0  0  0  0
   -8.1119    5.7491    0.8468 H   0  0  0  0  0  0  0  0  0  0  0  0
   -8.7390    7.4170    1.3566 H   0  0  0  0  0  0  0  0  0  0  0  0
  -10.0944    5.4100   -0.4665 H   0  0  0  0  0  0  0  0  0  0  0  0
  -10.6115    5.9772    1.1697 H   0  0  0  0  0  0  0  0  0  0  0  0
  -10.9115    8.1595    1.6629 H   0  0  0  0  0  0  0  0  0  0  0  0
  -10.0751    9.2536    0.5097 H   0  0  0  0  0  0  0  0  0  0  0  0
  -11.8684    9.1500    0.5097 H   0  0  0  0  0  0  0  0  0  0  0  0
  1  2  1  0
  2  3  1  0
  3  4  1  0
  4  5  1  0
  5  6  1  0
  6  7  1  0
  7  8  1  0
  7  9  1  0
  2 10  1  0
 10 11  1  0
 11 12  1  0
 12 13  1  0
 13 14  1  6
 13 15  1  0
 15 16  1  0
 16 17  1  0
 17 18  2  0
 18 19  1  0
 19 20  1  0
 20 21  1  0
 21 22  1  0
 22 23  1  0
 22 24  1  0
 24 25  1  0
 24 26  1  0
 19 27  1  0
 27 28  1  1
 27 29  1  0
 29 30  1  0
 30 31  1  0
 31 32  1  1
  7  5  1  0
 31 10  1  0
 31 13  1  0
 27 15  1  0
 24 18  1  0
  1 33  1  0
  1 34  1  0
  1 35  1  0
  2 36  1  1
  3 37  1  0
  3 38  1  0
  4 39  1  0
  4 40  1  0
  5 41  1  1
  8 42  1  0
  8 43  1  0
  8 44  1  0
  9 45  1  0
  9 46  1  0
  9 47  1  0
 10 48  1  6
 11 49  1  0
 11 50  1  0
 12 51  1  0
 12 52  1  0
 14 53  1  0
 14 54  1  0
 14 55  1  0
 15 56  1  1
 16 57  1  0
 16 58  1  0
 17 59  1  0
 19 60  1  6
 20 61  1  0
 20 62  1  0
 21 63  1  0
 21 64  1  0
 22 65  1  6
 23 66  1  0
 25 67  1  0
 25 68  1  0
 25 69  1  0
 26 70  1  0
 26 71  1  0
 26 72  1  0
 28 73  1  0
 28 74  1  0
 28 75  1  0
 29 76  1  0
 29 77  1  0
 30 78  1  0
 30 79  1  0
 32 80  1  0
 32 81  1  0
 32 82  1  0
M  END
>  <meeko>  (7) 
{"is_sidechain": [false], "intermolecular_energy": 2.731, "internal_energy": -0.839}

$$$$
EPH_relaxed_0001_pdb2pqr_Repair_356_r2_0001_out
     RDKit          3D

 82 86  0  0  0  0  0  0  0  0999 V2000
  -15.2820    8.8550    0.4780 C   0  0  0  0  0  0  0  0  0  0  0  0
  -14.3950    9.1660   -0.7310 C   0  0  2  0  0  0  0  0  0  0  0  0
  -14.7090    8.2530   -1.9330 C   0  0  0  0  0  0  0  0  0  0  0  0
  -14.6660    8.9750   -3.2820 C   0  0  0  0  0  0  0  0  0  0  0  0
  -15.2870   10.3360   -3.2030 C   0  0  2  0  0  0  0  0  0  0  0  0
  -14.8920   11.2370   -4.2460 O   0  0  0  0  0  0  0  0  0  0  0  0
  -14.4990   11.6000   -2.9130 C   0  0  0  0  0  0  0  0  0  0  0  0
  -13.0210   11.5620   -2.6820 C   0  0  0  0  0  0  0  0  0  0  0  0
  -15.2290   12.7900   -2.3720 C   0  0  0  0  0  0  0  0  0  0  0  0
  -12.9270    9.0340   -0.3460 C   0  0  1  0  0  0  0  0  0  0  0  0
  -12.7040    9.0910    1.1890 C   0  0  0  0  0  0  0  0  0  0  0  0
  -11.5270    8.1330    1.5070 C   0  0  0  0  0  0  0  0  0  0  0  0
  -10.9000    7.8160    0.1290 C   0  0  1  0  0  0  0  0  0  0  0  0
   -9.9840    9.0410   -0.1860 C   0  0  0  0  0  0  0  0  0  0  0  0
  -10.1170    6.4670    0.0190 C   0  0  2  0  0  0  0  0  0  0  0  0
   -8.8830    6.3530    0.9310 C   0  0  0  0  0  0  0  0  0  0  0  0
   -7.6000    6.8220    0.3280 C   0  0  0  0  0  0  0  0  0  0  0  0
   -7.3870    7.0480   -0.9810 C   0  0  0  0  0  0  0  0  0  0  0  0
   -8.4720    6.7370   -2.0210 C   0  0  1  0  0  0  0  0  0  0  0  0
   -7.8420    5.9690   -3.2130 C   0  0  0  0  0  0  0  0  0  0  0  0
   -6.6500    6.7040   -3.8170 C   0  0  0  0  0  0  0  0  0  0  0  0
   -5.5680    6.9440   -2.7670 C   0  0  2  0  0  0  0  0  0  0  0  0
   -5.0200    5.6820   -2.3730 O   0  0  0  0  0  0  0  0  0  0  0  0
   -6.0880    7.7010   -1.5130 C   0  0  0  0  0  0  0  0  0  0  0  0
   -6.4000    9.1720   -1.8860 C   0  0  0  0  0  0  0  0  0  0  0  0
   -4.9350    7.7520   -0.4740 C   0  0  0  0  0  0  0  0  0  0  0  0
   -9.7830    6.0300   -1.4640 C   0  0  1  0  0  0  0  0  0  0  0  0
   -9.5840    4.4840   -1.4390 C   0  0  0  0  0  0  0  0  0  0  0  0
  -10.9760    6.3090   -2.4530 C   0  0  0  0  0  0  0  0  0  0  0  0
  -11.7860    7.5980   -2.2200 C   0  0  0  0  0  0  0  0  0  0  0  0
  -12.2000    7.7270   -0.7510 C   0  0  2  0  0  0  0  0  0  0  0  0
  -13.1400    6.5210   -0.4110 C   0  0  0  0  0  0  0  0  0  0  0  0
  -14.7217    9.0514    1.4040 H   0  0  0  0  0  0  0  0  0  0  0  0
  -16.1779    9.4926    0.4492 H   0  0  0  0  0  0  0  0  0  0  0  0
  -15.5835    7.7975    0.4492 H   0  0  0  0  0  0  0  0  0  0  0  0
  -14.6070   10.2005   -1.0390 H   0  0  0  0  0  0  0  0  0  0  0  0
  -13.9709    7.4376   -1.9519 H   0  0  0  0  0  0  0  0  0  0  0  0
  -15.7370    7.8856   -1.7977 H   0  0  0  0  0  0  0  0  0  0  0  0
  -13.6172    9.0796   -3.5969 H   0  0  0  0  0  0  0  0  0  0  0  0
  -15.2384    8.3789   -4.0079 H   0  0  0  0  0  0  0  0  0  0  0  0
  -16.2017    9.9178   -2.7574 H   0  0  0  0  0  0  0  0  0  0  0  0
  -12.8189   11.5568   -1.6007 H   0  0  0  0  0  0  0  0  0  0  0  0
  -12.6019   10.6528   -3.1377 H   0  0  0  0  0  0  0  0  0  0  0  0
  -12.5557   12.4485   -3.1377 H   0  0  0  0  0  0  0  0  0  0  0  0
  -15.2118   12.7620   -1.2725 H   0  0  0  0  0  0  0  0  0  0  0  0
  -14.7402   13.7108   -2.7230 H   0  0  0  0  0  0  0  0  0  0  0  0
  -16.2713   12.7715   -2.7230 H   0  0  0  0  0  0  0  0  0  0  0  0
  -12.5126    9.8847   -0.9069 H   0  0  0  0  0  0  0  0  0  0  0  0
  -12.4515   10.1163    1.4971 H   0  0  0  0  0  0  0  0  0  0  0  0
  -13.6133    8.7923    1.7311 H   0  0  0  0  0  0  0  0  0  0  0  0
  -10.7936    8.6234    2.1640 H   0  0  0  0  0  0  0  0  0  0  0  0
  -11.8577    7.2258    2.0339 H   0  0  0  0  0  0  0  0  0  0  0  0
   -9.6437    9.4961    0.7558 H   0  0  0  0  0  0  0  0  0  0  0  0
   -9.1123    8.7070   -0.7678 H   0  0  0  0  0  0  0  0  0  0  0  0
  -10.5509    9.7827   -0.7678 H   0  0  0  0  0  0  0  0  0  0  0  0
  -10.8444    5.7397    0.4087 H   0  0  0  0  0  0  0  0  0  0  0  0
   -9.0721    6.9501    1.8353 H   0  0  0  0  0  0  0  0  0  0  0  0
   -8.7508    5.2797    1.1322 H   0  0  0  0  0  0  0  0  0  0  0  0
   -6.7570    6.9977    1.0125 H   0  0  0  0  0  0  0  0  0  0  0  0
   -8.8531    7.7102   -2.3639 H   0  0  0  0  0  0  0  0  0  0  0  0
   -7.5061    4.9830   -2.8594 H   0  0  0  0  0  0  0  0  0  0  0  0
   -8.6099    5.8782   -3.9953 H   0  0  0  0  0  0  0  0  0  0  0  0
   -6.2306    6.0991   -4.6344 H   0  0  0  0  0  0  0  0  0  0  0  0
   -6.9934    7.6778   -4.1963 H   0  0  0  0  0  0  0  0  0  0  0  0
   -4.8007    7.5854   -3.2252 H   0  0  0  0  0  0  0  0  0  0  0  0
   -4.4490    5.8370   -1.6020 H   0  0  0  0  0  0  0  0  0  0  0  0
   -6.5256    9.7644   -0.9677 H   0  0  0  0  0  0  0  0  0  0  0  0
   -5.5693    9.5844   -2.4776 H   0  0  0  0  0  0  0  0  0  0  0  0
   -7.3265    9.2117   -2.4776 H   0  0  0  0  0  0  0  0  0  0  0  0
   -5.3560    7.7334    0.5421 H   0  0  0  0  0  0  0  0  0  0  0  0
   -4.2765    6.8821   -0.6141 H   0  0  0  0  0  0  0  0  0  0  0  0
   -4.3558    8.6766   -0.6141 H   0  0  0  0  0  0  0  0  0  0  0  0
   -9.5393    4.1369   -0.3962 H   0  0  0  0  0  0  0  0  0  0  0  0
  -10.4269    3.9975   -1.9516 H   0  0  0  0  0  0  0  0  0  0  0  0
   -8.6453    4.2268   -1.9516 H   0  0  0  0  0  0  0  0  0  0  0  0
  -10.5603    6.3568   -3.4703 H   0  0  0  0  0  0  0  0  0  0  0  0
  -11.6879    5.4878   -2.2832 H   0  0  0  0  0  0  0  0  0  0  0  0
  -11.1695    8.4656   -2.4977 H   0  0  0  0  0  0  0  0  0  0  0  0
  -12.6948    7.5579   -2.8384 H   0  0  0  0  0  0  0  0  0  0  0  0
  -13.2216    6.4162    0.6810 H   0  0  0  0  0  0  0  0  0  0  0  0
  -14.1376    6.7021   -0.8376 H   0  0  0  0  0  0  0  0  0  0  0  0
  -12.7208    5.5978   -0.8376 H   0  0  0  0  0  0  0  0  0  0  0  0
  1  2  1  0
  2  3  1  0
  3  4  1  0
  4  5  1  0
  5  6  1  0
  6  7  1  0
  7  8  1  0
  7  9  1  0
  2 10  1  0
 10 11  1  0
 11 12  1  0
 12 13  1  0
 13 14  1  6
 13 15  1  0
 15 16  1  0
 16 17  1  0
 17 18  2  0
 18 19  1  0
 19 20  1  0
 20 21  1  0
 21 22  1  0
 22 23  1  0
 22 24  1  0
 24 25  1  0
 24 26  1  0
 19 27  1  0
 27 28  1  1
 27 29  1  0
 29 30  1  0
 30 31  1  0
 31 32  1  1
  7  5  1  0
 31 10  1  0
 31 13  1  0
 27 15  1  0
 24 18  1  0
  1 33  1  0
  1 34  1  0
  1 35  1  0
  2 36  1  6
  3 37  1  0
  3 38  1  0
  4 39  1  0
  4 40  1  0
  5 41  1  1
  8 42  1  0
  8 43  1  0
  8 44  1  0
  9 45  1  0
  9 46  1  0
  9 47  1  0
 10 48  1  6
 11 49  1  0
 11 50  1  0
 12 51  1  0
 12 52  1  0
 14 53  1  0
 14 54  1  0
 14 55  1  0
 15 56  1  1
 16 57  1  0
 16 58  1  0
 17 59  1  0
 19 60  1  6
 20 61  1  0
 20 62  1  0
 21 63  1  0
 21 64  1  0
 22 65  1  6
 23 66  1  0
 25 67  1  0
 25 68  1  0
 25 69  1  0
 26 70  1  0
 26 71  1  0
 26 72  1  0
 28 73  1  0
 28 74  1  0
 28 75  1  0
 29 76  1  0
 29 77  1  0
 30 78  1  0
 30 79  1  0
 32 80  1  0
 32 81  1  0
 32 82  1  0
M  END
>  <meeko>  (8) 
{"is_sidechain": [false], "intermolecular_energy": 2.731, "internal_energy": -0.839}

$$$$
EPH_relaxed_0001_pdb2pqr_Repair_356_r2_0001_out
     RDKit          3D

 82 86  0  0  0  0  0  0  0  0999 V2000
   -5.1040    8.2000   -0.3400 C   0  0  0  0  0  0  0  0  0  0  0  0
   -5.3960    7.2530   -1.5070 C   0  0  2  0  0  0  0  0  0  0  0  0
   -4.3580    7.3890   -2.6390 C   0  0  0  0  0  0  0  0  0  0  0  0
   -2.9260    7.0670   -2.2030 C   0  0  0  0  0  0  0  0  0  0  0  0
   -1.9290    7.9710   -2.8630 C   0  0  2  0  0  0  0  0  0  0  0  0
   -0.6630    7.3600   -3.1460 O   0  0  0  0  0  0  0  0  0  0  0  0
   -0.6490    8.4360   -2.1930 C   0  0  0  0  0  0  0  0  0  0  0  0
   -0.2980    8.0110   -0.8020 C   0  0  0  0  0  0  0  0  0  0  0  0
    0.0120    9.6800   -2.6980 C   0  0  0  0  0  0  0  0  0  0  0  0
   -6.7960    7.5130   -2.0500 C   0  0  1  0  0  0  0  0  0  0  0  0
   -7.0360    6.8440   -3.4300 C   0  0  0  0  0  0  0  0  0  0  0  0
   -8.5200    6.3990   -3.4590 C   0  0  0  0  0  0  0  0  0  0  0  0
   -9.1660    7.1120   -2.2480 C   0  0  1  0  0  0  0  0  0  0  0  0
   -9.4600    8.5620   -2.7470 C   0  0  0  0  0  0  0  0  0  0  0  0
  -10.4420    6.4380   -1.6480 C   0  0  2  0  0  0  0  0  0  0  0  0
  -11.6440    6.3490   -2.6050 C   0  0  0  0  0  0  0  0  0  0  0  0
  -12.5800    7.5120   -2.5610 C   0  0  0  0  0  0  0  0  0  0  0  0
  -12.6230    8.4460   -1.5930 C   0  0  0  0  0  0  0  0  0  0  0  0
  -11.7320    8.3330   -0.3490 C   0  0  1  0  0  0  0  0  0  0  0  0
  -12.5780    8.6070    0.9210 C   0  0  0  0  0  0  0  0  0  0  0  0
  -13.3200    9.9380    0.8540 C   0  0  0  0  0  0  0  0  0  0  0  0
  -14.2390    9.9900   -0.3630 C   0  0  2  0  0  0  0  0  0  0  0  0
  -15.2870    9.0310   -0.1910 O   0  0  0  0  0  0  0  0  0  0  0  0
  -13.4980    9.7180   -1.7030 C   0  0  0  0  0  0  0  0  0  0  0  0
  -12.5760   10.9160   -2.0390 C   0  0  0  0  0  0  0  0  0  0  0  0
  -14.5610    9.6590   -2.8330 C   0  0  0  0  0  0  0  0  0  0  0  0
  -10.8690    7.0020   -0.2330 C   0  0  1  0  0  0  0  0  0  0  0  0
  -11.7080    5.8840    0.4580 C   0  0  0  0  0  0  0  0  0  0  0  0
   -9.6320    7.2720    0.7020 C   0  0  0  0  0  0  0  0  0  0  0  0
   -8.3610    7.8270    0.0300 C   0  0  0  0  0  0  0  0  0  0  0  0
   -7.9920    7.0040   -1.2080 C   0  0  2  0  0  0  0  0  0  0  0  0
   -7.6680    5.5460   -0.7340 C   0  0  0  0  0  0  0  0  0  0  0  0
   -5.2670    7.6714    0.6108 H   0  0  0  0  0  0  0  0  0  0  0  0
   -4.0593    8.5399   -0.3962 H   0  0  0  0  0  0  0  0  0  0  0  0
   -5.7759    9.0692   -0.3962 H   0  0  0  0  0  0  0  0  0  0  0  0
   -5.3318    6.2245   -1.1222 H   0  0  0  0  0  0  0  0  0  0  0  0
   -4.6370    6.7008   -3.4505 H   0  0  0  0  0  0  0  0  0  0  0  0
   -4.3676    8.4413   -2.9592 H   0  0  0  0  0  0  0  0  0  0  0  0
   -2.8497    7.1880   -1.1123 H   0  0  0  0  0  0  0  0  0  0  0  0
   -2.7011    6.0324   -2.5015 H   0  0  0  0  0  0  0  0  0  0  0  0
   -2.7313    8.5175   -3.3804 H   0  0  0  0  0  0  0  0  0  0  0  0
   -0.8259    8.6502   -0.0791 H   0  0  0  0  0  0  0  0  0  0  0  0
   -0.5975    6.9632   -0.6521 H   0  0  0  0  0  0  0  0  0  0  0  0
    0.7875    8.1071   -0.6521 H   0  0  0  0  0  0  0  0  0  0  0  0
    0.3382   10.2939   -1.8455 H   0  0  0  0  0  0  0  0  0  0  0  0
    0.8850    9.4088   -3.3099 H   0  0  0  0  0  0  0  0  0  0  0  0
   -0.7013   10.2517   -3.3099 H   0  0  0  0  0  0  0  0  0  0  0  0
   -6.7863    8.6129   -2.0630 H   0  0  0  0  0  0  0  0  0  0  0  0
   -6.8404    7.5634   -4.2389 H   0  0  0  0  0  0  0  0  0  0  0  0
   -6.3634    5.9858   -3.5752 H   0  0  0  0  0  0  0  0  0  0  0  0
   -9.0013    6.7136   -4.3967 H   0  0  0  0  0  0  0  0  0  0  0  0
   -8.6283    5.3057   -3.4053 H   0  0  0  0  0  0  0  0  0  0  0  0
   -9.5949    9.2273   -1.8815 H   0  0  0  0  0  0  0  0  0  0  0  0
   -8.6159    8.9186   -3.3555 H   0  0  0  0  0  0  0  0  0  0  0  0
  -10.3763    8.5616   -3.3555 H   0  0  0  0  0  0  0  0  0  0  0  0
  -10.1091    5.4016   -1.4900 H   0  0  0  0  0  0  0  0  0  0  0  0
  -11.2564    6.2628   -3.6309 H   0  0  0  0  0  0  0  0  0  0  0  0
  -12.2280    5.4750   -2.2807 H   0  0  0  0  0  0  0  0  0  0  0  0
  -13.2952    7.6139   -3.3905 H   0  0  0  0  0  0  0  0  0  0  0  0
  -10.9597    9.1088   -0.4566 H   0  0  0  0  0  0  0  0  0  0  0  0
  -13.3146    7.7981    1.0352 H   0  0  0  0  0  0  0  0  0  0  0  0
  -11.8893    8.6516    1.7776 H   0  0  0  0  0  0  0  0  0  0  0  0
  -13.9230   10.0602    1.7658 H   0  0  0  0  0  0  0  0  0  0  0  0
  -12.5806   10.7481    0.7702 H   0  0  0  0  0  0  0  0  0  0  0  0
  -14.6415   11.0116   -0.4282 H   0  0  0  0  0  0  0  0  0  0  0  0
  -15.9680    9.4370    0.3720 H   0  0  0  0  0  0  0  0  0  0  0  0
  -12.2205   11.3780   -1.1062 H   0  0  0  0  0  0  0  0  0  0  0  0
  -11.7146   10.5627   -2.6247 H   0  0  0  0  0  0  0  0  0  0  0  0
  -13.1381   11.6583   -2.6247 H   0  0  0  0  0  0  0  0  0  0  0  0
  -15.5657    9.6032   -2.3887 H   0  0  0  0  0  0  0  0  0  0  0  0
  -14.4850   10.5627   -3.4555 H   0  0  0  0  0  0  0  0  0  0  0  0
  -14.3854    8.7692   -3.4555 H   0  0  0  0  0  0  0  0  0  0  0  0
  -11.6294    5.9887    1.5502 H   0  0  0  0  0  0  0  0  0  0  0  0
  -12.7616    5.9764    0.1556 H   0  0  0  0  0  0  0  0  0  0  0  0
  -11.3249    4.8982    0.1556 H   0  0  0  0  0  0  0  0  0  0  0  0
   -9.9461    7.9955    1.4687 H   0  0  0  0  0  0  0  0  0  0  0  0
   -9.3440    6.2841    1.0908 H   0  0  0  0  0  0  0  0  0  0  0  0
   -8.5392    8.8699   -0.2711 H   0  0  0  0  0  0  0  0  0  0  0  0
   -7.5306    7.7706    0.7492 H   0  0  0  0  0  0  0  0  0  0  0  0
   -7.6602    5.5111    0.3654 H   0  0  0  0  0  0  0  0  0  0  0  0
   -8.4349    4.8569   -1.1173 H   0  0  0  0  0  0  0  0  0  0  0  0
   -6.6814    5.2465   -1.1173 H   0  0  0  0  0  0  0  0  0  0  0  0
  1  2  1  0
  2  3  1  0
  3  4  1  0
  4  5  1  0
  5  6  1  0
  6  7  1  0
  7  8  1  0
  7  9  1  0
  2 10  1  0
 10 11  1  0
 11 12  1  0
 12 13  1  0
 13 14  1  6
 13 15  1  0
 15 16  1  0
 16 17  1  0
 17 18  2  0
 18 19  1  0
 19 20  1  0
 20 21  1  0
 21 22  1  0
 22 23  1  0
 22 24  1  0
 24 25  1  0
 24 26  1  0
 19 27  1  0
 27 28  1  1
 27 29  1  0
 29 30  1  0
 30 31  1  0
 31 32  1  1
  7  5  1  0
 31 10  1  0
 31 13  1  0
 27 15  1  0
 24 18  1  0
  1 33  1  0
  1 34  1  0
  1 35  1  0
  2 36  1  1
  3 37  1  0
  3 38  1  0
  4 39  1  0
  4 40  1  0
  5 41  1  6
  8 42  1  0
  8 43  1  0
  8 44  1  0
  9 45  1  0
  9 46  1  0
  9 47  1  0
 10 48  1  6
 11 49  1  0
 11 50  1  0
 12 51  1  0
 12 52  1  0
 14 53  1  0
 14 54  1  0
 14 55  1  0
 15 56  1  1
 16 57  1  0
 16 58  1  0
 17 59  1  0
 19 60  1  6
 20 61  1  0
 20 62  1  0
 21 63  1  0
 21 64  1  0
 22 65  1  6
 23 66  1  0
 25 67  1  0
 25 68  1  0
 25 69  1  0
 26 70  1  0
 26 71  1  0
 26 72  1  0
 28 73  1  0
 28 74  1  0
 28 75  1  0
 29 76  1  0
 29 77  1  0
 30 78  1  0
 30 79  1  0
 32 80  1  0
 32 81  1  0
 32 82  1  0
M  END
>  <meeko>  (9) 
{"is_sidechain": [false], "intermolecular_energy": 2.731, "internal_energy": -0.839}

$$$$
EPH_relaxed_0001_pdb2pqr_Repair_356_r2_0001_out
     RDKit          3D

 82 86  0  0  0  0  0  0  0  0999 V2000
  -13.8040    9.7390    1.4640 C   0  0  0  0  0  0  0  0  0  0  0  0
  -13.2280    9.4360    0.0780 C   0  0  2  0  0  0  0  0  0  0  0  0
  -14.2630    8.7670   -0.8480 C   0  0  0  0  0  0  0  0  0  0  0  0
  -15.2870    9.7430   -1.4330 C   0  0  0  0  0  0  0  0  0  0  0  0
  -15.0040   10.0480   -2.8730 C   0  0  2  0  0  0  0  0  0  0  0  0
  -13.7840   10.7640   -3.1040 O   0  0  0  0  0  0  0  0  0  0  0  0
  -14.9980   11.4530   -3.4450 C   0  0  0  0  0  0  0  0  0  0  0  0
  -15.2810   12.6460   -2.5870 C   0  0  0  0  0  0  0  0  0  0  0  0
  -15.1990   11.6260   -4.9180 C   0  0  0  0  0  0  0  0  0  0  0  0
  -11.9960    8.5480    0.2110 C   0  0  1  0  0  0  0  0  0  0  0  0
  -12.2600    7.2860    1.0750 C   0  0  0  0  0  0  0  0  0  0  0  0
  -11.4150    6.1390    0.4620 C   0  0  0  0  0  0  0  0  0  0  0  0
  -10.4490    6.8470   -0.5160 C   0  0  1  0  0  0  0  0  0  0  0  0
   -9.2930    7.3880    0.3830 C   0  0  0  0  0  0  0  0  0  0  0  0
   -9.9030    5.9800   -1.6970 C   0  0  2  0  0  0  0  0  0  0  0  0
   -9.0530    4.7680   -1.2780 C   0  0  0  0  0  0  0  0  0  0  0  0
   -7.5870    5.0270   -1.1620 C   0  0  0  0  0  0  0  0  0  0  0  0
   -6.9410    6.1000   -1.6550 C   0  0  0  0  0  0  0  0  0  0  0  0
   -7.6810    7.1460   -2.4980 C   0  0  1  0  0  0  0  0  0  0  0  0
   -6.8440    7.4800   -3.7610 C   0  0  0  0  0  0  0  0  0  0  0  0
   -5.4180    7.9060   -3.4220 C   0  0  0  0  0  0  0  0  0  0  0  0
   -4.6960    6.8160   -2.6340 C   0  0  2  0  0  0  0  0  0  0  0  0
   -4.5140    5.6780   -3.4830 O   0  0  0  0  0  0  0  0  0  0  0  0
   -5.4520    6.3900   -1.3440 C   0  0  0  0  0  0  0  0  0  0  0  0
   -5.3860    7.5330   -0.3010 C   0  0  0  0  0  0  0  0  0  0  0  0
   -4.6910    5.1890   -0.7200 C   0  0  0  0  0  0  0  0  0  0  0  0
   -9.1970    6.8140   -2.8410 C   0  0  1  0  0  0  0  0  0  0  0  0
   -9.2720    5.9470   -4.1350 C   0  0  0  0  0  0  0  0  0  0  0  0
   -9.9570    8.1550   -3.1610 C   0  0  0  0  0  0  0  0  0  0  0  0
  -10.5770    8.9040   -1.9650 C   0  0  0  0  0  0  0  0  0  0  0  0
  -11.4030    7.9550   -1.0920 C   0  0  2  0  0  0  0  0  0  0  0  0
  -12.5870    7.4120   -1.9640 C   0  0  0  0  0  0  0  0  0  0  0  0
  -13.1111    9.3745    2.2367 H   0  0  0  0  0  0  0  0  0  0  0  0
  -13.9392   10.8250    1.5755 H   0  0  0  0  0  0  0  0  0  0  0  0
  -14.7755    9.2352    1.5755 H   0  0  0  0  0  0  0  0  0  0  0  0
  -12.9474   10.3954   -0.3811 H   0  0  0  0  0  0  0  0  0  0  0  0
  -13.7261    8.2872   -1.6796 H   0  0  0  0  0  0  0  0  0  0  0  0
  -14.8216    8.0435   -0.2360 H   0  0  0  0  0  0  0  0  0  0  0  0
  -16.2896    9.2975   -1.3535 H   0  0  0  0  0  0  0  0  0  0  0  0
  -15.2268   10.6834   -0.8655 H   0  0  0  0  0  0  0  0  0  0  0  0
  -15.5078    9.1238   -3.1924 H   0  0  0  0  0  0  0  0  0  0  0  0
  -15.2131   12.3598   -1.5271 H   0  0  0  0  0  0  0  0  0  0  0  0
  -14.5451   13.4349   -2.8016 H   0  0  0  0  0  0  0  0  0  0  0  0
  -16.2929   13.0203   -2.8016 H   0  0  0  0  0  0  0  0  0  0  0  0
  -16.0218   12.3342   -5.0951 H   0  0  0  0  0  0  0  0  0  0  0  0
  -14.2755   12.0162   -5.3707 H   0  0  0  0  0  0  0  0  0  0  0  0
  -15.4473   10.6547   -5.3707 H   0  0  0  0  0  0  0  0  0  0  0  0
  -11.2932    9.2718    0.6494 H   0  0  0  0  0  0  0  0  0  0  0  0
  -11.9530    7.4683    2.1154 H   0  0  0  0  0  0  0  0  0  0  0  0
  -13.3294    7.0286    1.0815 H   0  0  0  0  0  0  0  0  0  0  0  0
  -10.8544    5.6080    1.2455 H   0  0  0  0  0  0  0  0  0  0  0  0
  -12.0378    5.3839   -0.0398 H   0  0  0  0  0  0  0  0  0  0  0  0
   -9.5624    7.2619    1.4420 H   0  0  0  0  0  0  0  0  0  0  0  0
   -8.3703    6.8282    0.1702 H   0  0  0  0  0  0  0  0  0  0  0  0
   -9.1317    8.4551    0.1702 H   0  0  0  0  0  0  0  0  0  0  0  0
  -10.8246    5.5630   -2.1291 H   0  0  0  0  0  0  0  0  0  0  0  0
   -9.4154    4.4207   -0.2992 H   0  0  0  0  0  0  0  0  0  0  0  0
   -9.1682    4.0236   -2.0796 H   0  0  0  0  0  0  0  0  0  0  0  0
   -6.9840    4.2775   -0.6285 H   0  0  0  0  0  0  0  0  0  0  0  0
   -7.7711    8.0396   -1.8629 H   0  0  0  0  0  0  0  0  0  0  0  0
   -6.8023    6.5875   -4.4026 H   0  0  0  0  0  0  0  0  0  0  0  0
   -7.3320    8.3232   -4.2717 H   0  0  0  0  0  0  0  0  0  0  0  0
   -4.8686    8.0996   -4.3551 H   0  0  0  0  0  0  0  0  0  0  0  0
   -5.4605    8.8157   -2.8051 H   0  0  0  0  0  0  0  0  0  0  0  0
   -3.7293    7.2284   -2.3092 H   0  0  0  0  0  0  0  0  0  0  0  0
   -4.9030    4.9090   -3.0320 H   0  0  0  0  0  0  0  0  0  0  0  0
   -5.4106    7.1063    0.7126 H   0  0  0  0  0  0  0  0  0  0  0  0
   -4.4536    8.1005   -0.4374 H   0  0  0  0  0  0  0  0  0  0  0  0
   -6.2469    8.2040   -0.4374 H   0  0  0  0  0  0  0  0  0  0  0  0
   -4.7344    5.2575    0.3770 H   0  0  0  0  0  0  0  0  0  0  0  0
   -5.1584    4.2486   -1.0475 H   0  0  0  0  0  0  0  0  0  0  0  0
   -3.6411    5.2101   -1.0475 H   0  0  0  0  0  0  0  0  0  0  0  0
   -9.3638    4.8858   -3.8605 H   0  0  0  0  0  0  0  0  0  0  0  0
  -10.1474    6.2492   -4.7286 H   0  0  0  0  0  0  0  0  0  0  0  0
   -8.3577    6.0944   -4.7286 H   0  0  0  0  0  0  0  0  0  0  0  0
   -9.2415    8.8357   -3.6455 H   0  0  0  0  0  0  0  0  0  0  0  0
  -10.8100    7.8598   -3.7897 H   0  0  0  0  0  0  0  0  0  0  0  0
   -9.7711    9.3417   -1.3577 H   0  0  0  0  0  0  0  0  0  0  0  0
  -11.2403    9.6922   -2.3507 H   0  0  0  0  0  0  0  0  0  0  0  0
  -13.3884    7.0445   -1.3062 H   0  0  0  0  0  0  0  0  0  0  0  0
  -12.9762    8.2216   -2.5989 H   0  0  0  0  0  0  0  0  0  0  0  0
  -12.2273    6.5888   -2.5989 H   0  0  0  0  0  0  0  0  0  0  0  0
  1  2  1  0
  2  3  1  0
  3  4  1  0
  4  5  1  0
  5  6  1  0
  6  7  1  0
  7  8  1  0
  7  9  1  0
  2 10  1  0
 10 11  1  0
 11 12  1  0
 12 13  1  0
 13 14  1  1
 13 15  1  0
 15 16  1  0
 16 17  1  0
 17 18  2  0
 18 19  1  0
 19 20  1  0
 20 21  1  0
 21 22  1  0
 22 23  1  0
 22 24  1  0
 24 25  1  0
 24 26  1  0
 19 27  1  0
 27 28  1  6
 27 29  1  0
 29 30  1  0
 30 31  1  0
 31 32  1  6
  7  5  1  0
 31 10  1  0
 31 13  1  0
 27 15  1  0
 24 18  1  0
  1 33  1  0
  1 34  1  0
  1 35  1  0
  2 36  1  6
  3 37  1  0
  3 38  1  0
  4 39  1  0
  4 40  1  0
  5 41  1  6
  8 42  1  0
  8 43  1  0
  8 44  1  0
  9 45  1  0
  9 46  1  0
  9 47  1  0
 10 48  1  1
 11 49  1  0
 11 50  1  0
 12 51  1  0
 12 52  1  0
 14 53  1  0
 14 54  1  0
 14 55  1  0
 15 56  1  6
 16 57  1  0
 16 58  1  0
 17 59  1  0
 19 60  1  1
 20 61  1  0
 20 62  1  0
 21 63  1  0
 21 64  1  0
 22 65  1  1
 23 66  1  0
 25 67  1  0
 25 68  1  0
 25 69  1  0
 26 70  1  0
 26 71  1  0
 26 72  1  0
 28 73  1  0
 28 74  1  0
 28 75  1  0
 29 76  1  0
 29 77  1  0
 30 78  1  0
 30 79  1  0
 32 80  1  0
 32 81  1  0
 32 82  1  0
M  END
>  <meeko>  (10) 
{"is_sidechain": [false], "intermolecular_energy": 2.731, "internal_energy": -0.839}

$$$$
EPH_relaxed_0001_pdb2pqr_Repair_356_r2_0001_out
     RDKit          3D

 82 86  0  0  0  0  0  0  0  0999 V2000
    2.6580   11.7090   -5.6210 C   0  0  0  0  0  0  0  0  0  0  0  0
    1.1550   11.9900   -5.5410 C   0  0  2  0  0  0  0  0  0  0  0  0
    0.7500   13.2200   -6.3770 C   0  0  0  0  0  0  0  0  0  0  0  0
    1.9380   13.9730   -6.9810 C   0  0  0  0  0  0  0  0  0  0  0  0
    1.5280   15.3040   -7.5340 C   0  0  2  0  0  0  0  0  0  0  0  0
    0.5660   15.2410   -8.5950 O   0  0  0  0  0  0  0  0  0  0  0  0
    1.8590   15.7630   -8.9420 C   0  0  0  0  0  0  0  0  0  0  0  0
    2.6330   14.8950   -9.8840 C   0  0  0  0  0  0  0  0  0  0  0  0
    1.8580   17.2310   -9.2360 C   0  0  0  0  0  0  0  0  0  0  0  0
    0.7400   12.1870   -4.0880 C   0  0  1  0  0  0  0  0  0  0  0  0
    1.0920   10.9680   -3.1950 C   0  0  0  0  0  0  0  0  0  0  0  0
    1.4730   11.5300   -1.8010 C   0  0  0  0  0  0  0  0  0  0  0  0
    1.0120   13.0060   -1.8360 C   0  0  1  0  0  0  0  0  0  0  0  0
   -0.5190   12.9550   -1.5370 C   0  0  0  0  0  0  0  0  0  0  0  0
    1.7570   13.9860   -0.8720 C   0  0  2  0  0  0  0  0  0  0  0  0
    1.6000   13.6710    0.6260 C   0  0  0  0  0  0  0  0  0  0  0  0
    0.4440   14.3330    1.3000 C   0  0  0  0  0  0  0  0  0  0  0  0
   -0.2640   15.3640    0.8040 C   0  0  0  0  0  0  0  0  0  0  0  0
    0.1390   16.0350   -0.5160 C   0  0  1  0  0  0  0  0  0  0  0  0
    0.1140   17.5760   -0.3420 C   0  0  0  0  0  0  0  0  0  0  0  0
   -1.2250   18.0830    0.1840 C   0  0  0  0  0  0  0  0  0  0  0  0
   -1.5640   17.4380    1.5250 C   0  0  2  0  0  0  0  0  0  0  0  0
   -0.6250   17.8910    2.5050 O   0  0  0  0  0  0  0  0  0  0  0  0
   -1.5590   15.8840    1.4760 C   0  0  0  0  0  0  0  0  0  0  0  0
   -2.7700   15.3860    0.6490 C   0  0  0  0  0  0  0  0  0  0  0  0
   -1.7750   15.3600    2.9210 C   0  0  0  0  0  0  0  0  0  0  0  0
    1.4910   15.5170   -1.1710 C   0  0  1  0  0  0  0  0  0  0  0  0
    2.7030   16.3020   -0.5830 C   0  0  0  0  0  0  0  0  0  0  0  0
    1.4670   15.8290   -2.7140 C   0  0  0  0  0  0  0  0  0  0  0  0
    0.8240   14.7680   -3.6280 C   0  0  0  0  0  0  0  0  0  0  0  0
    1.3770   13.3730   -3.3210 C   0  0  2  0  0  0  0  0  0  0  0  0
    2.9120   13.3870   -3.6340 C   0  0  0  0  0  0  0  0  0  0  0  0
    3.0712   11.6317   -4.6045 H   0  0  0  0  0  0  0  0  0  0  0  0
    2.8262   10.7638   -6.1580 H   0  0  0  0  0  0  0  0  0  0  0  0
    3.1564   12.5295   -6.1580 H   0  0  0  0  0  0  0  0  0  0  0  0
    0.6318   11.1185   -5.9615 H   0  0  0  0  0  0  0  0  0  0  0  0
    0.0992   12.8831   -7.1974 H   0  0  0  0  0  0  0  0  0  0  0  0
    0.2406   13.9175   -5.6959 H   0  0  0  0  0  0  0  0  0  0  0  0
    2.6953   14.1300   -6.1988 H   0  0  0  0  0  0  0  0  0  0  0  0
    2.3428   13.3689   -7.8064 H   0  0  0  0  0  0  0  0  0  0  0  0
    1.6636   15.7802   -6.5517 H   0  0  0  0  0  0  0  0  0  0  0  0
    3.2571   14.1951   -9.3089 H   0  0  0  0  0  0  0  0  0  0  0  0
    1.9351   14.3282  -10.5177 H   0  0  0  0  0  0  0  0  0  0  0  0
    3.2758   15.5237  -10.5177 H   0  0  0  0  0  0  0  0  0  0  0  0
    1.8576   17.7942   -8.2911 H   0  0  0  0  0  0  0  0  0  0  0  0
    2.7560   17.4893   -9.8165 H   0  0  0  0  0  0  0  0  0  0  0  0
    0.9597   17.4881   -9.8165 H   0  0  0  0  0  0  0  0  0  0  0  0
   -0.3368   12.3638   -4.2265 H   0  0  0  0  0  0  0  0  0  0  0  0
    0.2237   10.2981   -3.1090 H   0  0  0  0  0  0  0  0  0  0  0  0
    1.9208   10.3880   -3.6271 H   0  0  0  0  0  0  0  0  0  0  0  0
    0.9515   10.9791   -1.0044 H   0  0  0  0  0  0  0  0  0  0  0  0
    2.5487   11.4338   -1.5923 H   0  0  0  0  0  0  0  0  0  0  0  0
   -0.6801   12.9496   -0.4489 H   0  0  0  0  0  0  0  0  0  0  0  0
   -1.0079   13.8374   -1.9757 H   0  0  0  0  0  0  0  0  0  0  0  0
   -0.9481   12.0421   -1.9757 H   0  0  0  0  0  0  0  0  0  0  0  0
    2.8136   13.7935   -1.1098 H   0  0  0  0  0  0  0  0  0  0  0  0
    1.4783   12.5830    0.7334 H   0  0  0  0  0  0  0  0  0  0  0  0
    2.5031   14.0643    1.1155 H   0  0  0  0  0  0  0  0  0  0  0  0
    0.1459   13.9451    2.2852 H   0  0  0  0  0  0  0  0  0  0  0  0
   -0.6163   15.7309   -1.2556 H   0  0  0  0  0  0  0  0  0  0  0  0
    0.9036   17.8637    0.3678 H   0  0  0  0  0  0  0  0  0  0  0  0
    0.2763   18.0267   -1.3322 H   0  0  0  0  0  0  0  0  0  0  0  0
   -1.1713   19.1741    0.3127 H   0  0  0  0  0  0  0  0  0  0  0  0
   -2.0094   17.8192   -0.5407 H   0  0  0  0  0  0  0  0  0  0  0  0
   -2.5887   17.7405    1.7868 H   0  0  0  0  0  0  0  0  0  0  0  0
   -0.7710   17.3720    3.3150 H   0  0  0  0  0  0  0  0  0  0  0  0
   -3.5689   15.0575    1.3300 H   0  0  0  0  0  0  0  0  0  0  0  0
   -3.1422   16.2041    0.0148 H   0  0  0  0  0  0  0  0  0  0  0  0
   -2.4590   14.5428    0.0148 H   0  0  0  0  0  0  0  0  0  0  0  0
   -1.4581   16.1288    3.6410 H   0  0  0  0  0  0  0  0  0  0  0  0
   -2.8404   15.1322    3.0730 H   0  0  0  0  0  0  0  0  0  0  0  0
   -1.1796   14.4476    3.0730 H   0  0  0  0  0  0  0  0  0  0  0  0
    2.6597   16.2740    0.5158 H   0  0  0  0  0  0  0  0  0  0  0  0
    3.6404   15.8391   -0.9250 H   0  0  0  0  0  0  0  0  0  0  0  0
    2.6639   17.3468   -0.9250 H   0  0  0  0  0  0  0  0  0  0  0  0
    0.9133   16.7690   -2.8548 H   0  0  0  0  0  0  0  0  0  0  0  0
    2.5240   15.8665   -3.0163 H   0  0  0  0  0  0  0  0  0  0  0  0
   -0.2643   14.7670   -3.4681 H   0  0  0  0  0  0  0  0  0  0  0  0
    1.0590   15.0165   -4.6735 H   0  0  0  0  0  0  0  0  0  0  0  0
    3.4784   13.3922   -2.6911 H   0  0  0  0  0  0  0  0  0  0  0  0
    3.1759   12.4912   -4.2153 H   0  0  0  0  0  0  0  0  0  0  0  0
    3.1595   14.2874   -4.2153 H   0  0  0  0  0  0  0  0  0  0  0  0
  1  2  1  0
  2  3  1  0
  3  4  1  0
  4  5  1  0
  5  6  1  0
  6  7  1  0
  7  8  1  0
  7  9  1  0
  2 10  1  0
 10 11  1  0
 11 12  1  0
 12 13  1  0
 13 14  1  6
 13 15  1  0
 15 16  1  0
 16 17  1  0
 17 18  2  0
 18 19  1  0
 19 20  1  0
 20 21  1  0
 21 22  1  0
 22 23  1  0
 22 24  1  0
 24 25  1  0
 24 26  1  0
 19 27  1  0
 27 28  1  1
 27 29  1  0
 29 30  1  0
 30 31  1  0
 31 32  1  1
  7  5  1  0
 31 10  1  0
 31 13  1  0
 27 15  1  0
 24 18  1  0
  1 33  1  0
  1 34  1  0
  1 35  1  0
  2 36  1  6
  3 37  1  0
  3 38  1  0
  4 39  1  0
  4 40  1  0
  5 41  1  1
  8 42  1  0
  8 43  1  0
  8 44  1  0
  9 45  1  0
  9 46  1  0
  9 47  1  0
 10 48  1  6
 11 49  1  0
 11 50  1  0
 12 51  1  0
 12 52  1  0
 14 53  1  0
 14 54  1  0
 14 55  1  0
 15 56  1  6
 16 57  1  0
 16 58  1  0
 17 59  1  0
 19 60  1  6
 20 61  1  0
 20 62  1  0
 21 63  1  0
 21 64  1  0
 22 65  1  1
 23 66  1  0
 25 67  1  0
 25 68  1  0
 25 69  1  0
 26 70  1  0
 26 71  1  0
 26 72  1  0
 28 73  1  0
 28 74  1  0
 28 75  1  0
 29 76  1  0
 29 77  1  0
 30 78  1  0
 30 79  1  0
 32 80  1  0
 32 81  1  0
 32 82  1  0
M  END
>  <meeko>  (11) 
{"is_sidechain": [false], "intermolecular_energy": 2.731, "internal_energy": -0.839}

$$$$
EPH_relaxed_0001_pdb2pqr_Repair_356_r2_0001_out
     RDKit          3D

 82 86  0  0  0  0  0  0  0  0999 V2000
  -15.0590    9.4620    1.0070 C   0  0  0  0  0  0  0  0  0  0  0  0
  -14.2470    9.3700   -0.2880 C   0  0  2  0  0  0  0  0  0  0  0  0
  -14.7420    8.2330   -1.2040 C   0  0  0  0  0  0  0  0  0  0  0  0
  -15.1350    8.7000   -2.6080 C   0  0  0  0  0  0  0  0  0  0  0  0
  -14.9540    7.6140   -3.6240 C   0  0  2  0  0  0  0  0  0  0  0  0
  -13.7500    7.7100   -4.3960 O   0  0  0  0  0  0  0  0  0  0  0  0
  -14.9810    7.8570   -5.1220 C   0  0  0  0  0  0  0  0  0  0  0  0
  -15.1960    9.2260   -5.6860 C   0  0  0  0  0  0  0  0  0  0  0  0
  -15.2870    6.7050   -6.0280 C   0  0  0  0  0  0  0  0  0  0  0  0
  -12.7710    9.1730    0.0370 C   0  0  1  0  0  0  0  0  0  0  0  0
  -12.4980    9.1160    1.5640 C   0  0  0  0  0  0  0  0  0  0  0  0
  -11.3390    8.1080    1.7740 C   0  0  0  0  0  0  0  0  0  0  0  0
  -10.7660    7.8720    0.3570 C   0  0  1  0  0  0  0  0  0  0  0  0
   -9.8260    9.0920    0.0960 C   0  0  0  0  0  0  0  0  0  0  0  0
  -10.0260    6.5140    0.1280 C   0  0  2  0  0  0  0  0  0  0  0  0
   -8.7660    6.3050    0.9860 C   0  0  0  0  0  0  0  0  0  0  0  0
   -7.4900    6.7810    0.3740 C   0  0  0  0  0  0  0  0  0  0  0  0
   -7.3140    7.0920   -0.9230 C   0  0  0  0  0  0  0  0  0  0  0  0
   -8.4400    6.8830   -1.9440 C   0  0  1  0  0  0  0  0  0  0  0  0
   -7.8710    6.1850   -3.2070 C   0  0  0  0  0  0  0  0  0  0  0  0
   -6.6780    6.9290   -3.7990 C   0  0  0  0  0  0  0  0  0  0  0  0
   -5.5570    7.0660   -2.7720 C   0  0  2  0  0  0  0  0  0  0  0  0
   -5.0320    5.7660   -2.4860 O   0  0  0  0  0  0  0  0  0  0  0  0
   -6.0140    7.7470   -1.4520 C   0  0  0  0  0  0  0  0  0  0  0  0
   -6.2970    9.2480   -1.7120 C   0  0  0  0  0  0  0  0  0  0  0  0
   -4.8280    7.6950   -0.4520 C   0  0  0  0  0  0  0  0  0  0  0  0
   -9.7520    6.1740   -1.3930 C   0  0  1  0  0  0  0  0  0  0  0  0
   -9.5960    4.6250   -1.4820 C   0  0  0  0  0  0  0  0  0  0  0  0
  -10.9680    6.5520   -2.3190 C   0  0  0  0  0  0  0  0  0  0  0  0
  -11.7320    7.8430   -1.9700 C   0  0  0  0  0  0  0  0  0  0  0  0
  -12.0950    7.8790   -0.4820 C   0  0  2  0  0  0  0  0  0  0  0  0
  -13.0580    6.6770   -0.1940 C   0  0  0  0  0  0  0  0  0  0  0  0
  -14.3819    9.3853    1.8705 H   0  0  0  0  0  0  0  0  0  0  0  0
  -15.5881   10.4258    1.0404 H   0  0  0  0  0  0  0  0  0  0  0  0
  -15.7903    8.6410    1.0404 H   0  0  0  0  0  0  0  0  0  0  0  0
  -14.3842   10.3157   -0.8329 H   0  0  0  0  0  0  0  0  0  0  0  0
  -13.9380    7.4882   -1.2982 H   0  0  0  0  0  0  0  0  0  0  0  0
  -15.6477    7.8168   -0.7386 H   0  0  0  0  0  0  0  0  0  0  0  0
  -16.1912    9.0072   -2.5989 H   0  0  0  0  0  0  0  0  0  0  0  0
  -14.4822    9.5410   -2.8849 H   0  0  0  0  0  0  0  0  0  0  0  0
  -15.4843    6.8941   -2.9833 H   0  0  0  0  0  0  0  0  0  0  0  0
  -15.3093    9.9477   -4.8636 H   0  0  0  0  0  0  0  0  0  0  0  0
  -14.3311    9.5077   -6.3045 H   0  0  0  0  0  0  0  0  0  0  0  0
  -16.1056    9.2291   -6.3045 H   0  0  0  0  0  0  0  0  0  0  0  0
  -15.5231    5.8163   -5.4242 H   0  0  0  0  0  0  0  0  0  0  0  0
  -16.1494    6.9567   -6.6627 H   0  0  0  0  0  0  0  0  0  0  0  0
  -14.4133    6.4956   -6.6627 H   0  0  0  0  0  0  0  0  0  0  0  0
  -12.3504   10.0497   -0.4772 H   0  0  0  0  0  0  0  0  0  0  0  0
  -12.2071   10.1102    1.9341 H   0  0  0  0  0  0  0  0  0  0  0  0
  -13.3976    8.8037    2.1146 H   0  0  0  0  0  0  0  0  0  0  0  0
  -10.5711    8.5319    2.4378 H   0  0  0  0  0  0  0  0  0  0  0  0
  -11.6782    7.1749    2.2476 H   0  0  0  0  0  0  0  0  0  0  0  0
   -9.4996    9.5156    1.0572 H   0  0  0  0  0  0  0  0  0  0  0  0
   -8.9468    8.7616   -0.4765 H   0  0  0  0  0  0  0  0  0  0  0  0
  -10.3697    9.8579   -0.4765 H   0  0  0  0  0  0  0  0  0  0  0  0
  -10.7606    5.7806    0.4920 H   0  0  0  0  0  0  0  0  0  0  0  0
   -8.9085    6.8422    1.9353 H   0  0  0  0  0  0  0  0  0  0  0  0
   -8.6577    5.2170    1.1066 H   0  0  0  0  0  0  0  0  0  0  0  0
   -6.6206    6.8863    1.0397 H   0  0  0  0  0  0  0  0  0  0  0  0
   -8.8042    7.8875   -2.2055 H   0  0  0  0  0  0  0  0  0  0  0  0
   -7.5525    5.1680   -2.9345 H   0  0  0  0  0  0  0  0  0  0  0  0
   -8.6660    6.1702   -3.9671 H   0  0  0  0  0  0  0  0  0  0  0  0
   -6.3023    6.3720   -4.6700 H   0  0  0  0  0  0  0  0  0  0  0  0
   -7.0051    7.9356   -4.0985 H   0  0  0  0  0  0  0  0  0  0  0  0
   -4.7870    7.7179   -3.2102 H   0  0  0  0  0  0  0  0  0  0  0  0
   -4.6820    5.7830   -1.5790 H   0  0  0  0  0  0  0  0  0  0  0  0
   -6.3962    9.7742   -0.7511 H   0  0  0  0  0  0  0  0  0  0  0  0
   -5.4653    9.6841   -2.2847 H   0  0  0  0  0  0  0  0  0  0  0  0
   -7.2304    9.3513   -2.2847 H   0  0  0  0  0  0  0  0  0  0  0  0
   -5.2153    7.7120    0.5774 H   0  0  0  0  0  0  0  0  0  0  0  0
   -4.2534    6.7708   -0.6124 H   0  0  0  0  0  0  0  0  0  0  0  0
   -4.1747    8.5654   -0.6124 H   0  0  0  0  0  0  0  0  0  0  0  0
   -9.5534    4.2019   -0.4675 H   0  0  0  0  0  0  0  0  0  0  0  0
  -10.4559    4.2002   -2.0206 H   0  0  0  0  0  0  0  0  0  0  0  0
   -8.6687    4.3802   -2.0206 H   0  0  0  0  0  0  0  0  0  0  0  0
  -10.5846    6.6592   -3.3444 H   0  0  0  0  0  0  0  0  0  0  0  0
  -11.6974    5.7401   -2.1818 H   0  0  0  0  0  0  0  0  0  0  0  0
  -11.0994    8.7110   -2.2074 H   0  0  0  0  0  0  0  0  0  0  0  0
  -12.6607    7.8715   -2.5588 H   0  0  0  0  0  0  0  0  0  0  0  0
  -13.1642    6.5445    0.8928 H   0  0  0  0  0  0  0  0  0  0  0  0
  -14.0439    6.8829   -0.6363 H   0  0  0  0  0  0  0  0  0  0  0  0
  -12.6420    5.7598   -0.6363 H   0  0  0  0  0  0  0  0  0  0  0  0
  1  2  1  0
  2  3  1  0
  3  4  1  0
  4  5  1  0
  5  6  1  0
  6  7  1  0
  7  8  1  0
  7  9  1  0
  2 10  1  0
 10 11  1  0
 11 12  1  0
 12 13  1  0
 13 14  1  6
 13 15  1  0
 15 16  1  0
 16 17  1  0
 17 18  2  0
 18 19  1  0
 19 20  1  0
 20 21  1  0
 21 22  1  0
 22 23  1  0
 22 24  1  0
 24 25  1  0
 24 26  1  0
 19 27  1  0
 27 28  1  1
 27 29  1  0
 29 30  1  0
 30 31  1  0
 31 32  1  1
  7  5  1  0
 31 10  1  0
 31 13  1  0
 27 15  1  0
 24 18  1  0
  1 33  1  0
  1 34  1  0
  1 35  1  0
  2 36  1  6
  3 37  1  0
  3 38  1  0
  4 39  1  0
  4 40  1  0
  5 41  1  6
  8 42  1  0
  8 43  1  0
  8 44  1  0
  9 45  1  0
  9 46  1  0
  9 47  1  0
 10 48  1  6
 11 49  1  0
 11 50  1  0
 12 51  1  0
 12 52  1  0
 14 53  1  0
 14 54  1  0
 14 55  1  0
 15 56  1  1
 16 57  1  0
 16 58  1  0
 17 59  1  0
 19 60  1  6
 20 61  1  0
 20 62  1  0
 21 63  1  0
 21 64  1  0
 22 65  1  6
 23 66  1  0
 25 67  1  0
 25 68  1  0
 25 69  1  0
 26 70  1  0
 26 71  1  0
 26 72  1  0
 28 73  1  0
 28 74  1  0
 28 75  1  0
 29 76  1  0
 29 77  1  0
 30 78  1  0
 30 79  1  0
 32 80  1  0
 32 81  1  0
 32 82  1  0
M  END
>  <meeko>  (12) 
{"is_sidechain": [false], "intermolecular_energy": 2.731, "internal_energy": -0.839}

$$$$
EPH_relaxed_0001_pdb2pqr_Repair_356_r2_0001_out
     RDKit          3D

 82 86  0  0  0  0  0  0  0  0999 V2000
   -0.0820    9.4900   -2.7460 C   0  0  0  0  0  0  0  0  0  0  0  0
    1.1230   10.3770   -3.0700 C   0  0  2  0  0  0  0  0  0  0  0  0
    2.4530    9.6020   -2.9910 C   0  0  0  0  0  0  0  0  0  0  0  0
    3.4910   10.0530   -4.0220 C   0  0  0  0  0  0  0  0  0  0  0  0
    4.7810   10.4520   -3.3720 C   0  0  2  0  0  0  0  0  0  0  0  0
    5.2060   11.7910   -3.6570 O   0  0  0  0  0  0  0  0  0  0  0  0
    6.0540   10.7390   -4.1460 C   0  0  0  0  0  0  0  0  0  0  0  0
    6.0990   10.6380   -5.6380 C   0  0  0  0  0  0  0  0  0  0  0  0
    7.3650   10.6400   -3.4290 C   0  0  0  0  0  0  0  0  0  0  0  0
    1.1580   11.5710   -2.1240 C   0  0  1  0  0  0  0  0  0  0  0  0
    2.2810   11.4560   -1.0590 C   0  0  0  0  0  0  0  0  0  0  0  0
    2.8030   12.8930   -0.8020 C   0  0  0  0  0  0  0  0  0  0  0  0
    1.7540   13.8140   -1.4680 C   0  0  1  0  0  0  0  0  0  0  0  0
    0.5920   13.9150   -0.4310 C   0  0  0  0  0  0  0  0  0  0  0  0
    2.2570   15.2270   -1.9110 C   0  0  2  0  0  0  0  0  0  0  0  0
    2.7500   16.1320   -0.7690 C   0  0  0  0  0  0  0  0  0  0  0  0
    1.7090   17.0050   -0.1520 C   0  0  0  0  0  0  0  0  0  0  0  0
    0.5000   17.2730   -0.6800 C   0  0  0  0  0  0  0  0  0  0  0  0
    0.1140   16.7510   -2.0700 C   0  0  1  0  0  0  0  0  0  0  0  0
   -0.5320   17.8970   -2.8930 C   0  0  0  0  0  0  0  0  0  0  0  0
   -1.7060   18.5480   -2.1680 C   0  0  0  0  0  0  0  0  0  0  0  0
   -1.2700   19.1060   -0.8160 C   0  0  2  0  0  0  0  0  0  0  0  0
   -0.3670   20.1940   -1.0360 O   0  0  0  0  0  0  0  0  0  0  0  0
   -0.5950   18.0440    0.0970 C   0  0  0  0  0  0  0  0  0  0  0  0
   -1.6560   17.0250    0.5810 C   0  0  0  0  0  0  0  0  0  0  0  0
   -0.0770   18.7680    1.3690 C   0  0  0  0  0  0  0  0  0  0  0  0
    1.2620   15.9970   -2.8710 C   0  0  1  0  0  0  0  0  0  0  0  0
    2.1190   17.0270   -3.6680 C   0  0  0  0  0  0  0  0  0  0  0  0
    0.6030   15.0460   -3.9390 C   0  0  0  0  0  0  0  0  0  0  0  0
    0.2390   13.6240   -3.4720 C   0  0  0  0  0  0  0  0  0  0  0  0
    1.4170   12.9660   -2.7480 C   0  0  2  0  0  0  0  0  0  0  0  0
    2.5940   12.8300   -3.7730 C   0  0  0  0  0  0  0  0  0  0  0  0
   -0.1938    9.4077   -1.6548 H   0  0  0  0  0  0  0  0  0  0  0  0
   -0.9914    9.9358   -3.1752 H   0  0  0  0  0  0  0  0  0  0  0  0
    0.0734    8.4892   -3.1752 H   0  0  0  0  0  0  0  0  0  0  0  0
    1.0072   10.7271   -4.1063 H   0  0  0  0  0  0  0  0  0  0  0  0
    2.8778    9.7430   -1.9862 H   0  0  0  0  0  0  0  0  0  0  0  0
    2.2237    8.5479   -3.2060 H   0  0  0  0  0  0  0  0  0  0  0  0
    3.6844    9.2243   -4.7190 H   0  0  0  0  0  0  0  0  0  0  0  0
    3.0892   10.9288   -4.5525 H   0  0  0  0  0  0  0  0  0  0  0  0
    4.5732    9.8039   -2.5078 H   0  0  0  0  0  0  0  0  0  0  0  0
    6.5309    9.6685   -5.9270 H   0  0  0  0  0  0  0  0  0  0  0  0
    5.0792   10.7201   -6.0420 H   0  0  0  0  0  0  0  0  0  0  0  0
    6.7200   11.4511   -6.0420 H   0  0  0  0  0  0  0  0  0  0  0  0
    7.1909   10.6532   -2.3430 H   0  0  0  0  0  0  0  0  0  0  0  0
    7.8659    9.7015   -3.7087 H   0  0  0  0  0  0  0  0  0  0  0  0
    8.0012   11.4927   -3.7087 H   0  0  0  0  0  0  0  0  0  0  0  0
    0.1337   11.5211   -1.7260 H   0  0  0  0  0  0  0  0  0  0  0  0
    1.8788   11.0272   -0.1293 H   0  0  0  0  0  0  0  0  0  0  0  0
    3.0906   10.7984   -1.4084 H   0  0  0  0  0  0  0  0  0  0  0  0
    2.8680   13.0953    0.2773 H   0  0  0  0  0  0  0  0  0  0  0  0
    3.8131   13.0489   -1.2086 H   0  0  0  0  0  0  0  0  0  0  0  0
    1.0055   13.8791    0.5877 H   0  0  0  0  0  0  0  0  0  0  0  0
    0.0535   14.8633   -0.5749 H   0  0  0  0  0  0  0  0  0  0  0  0
   -0.1020   13.0738   -0.5749 H   0  0  0  0  0  0  0  0  0  0  0  0
    3.1502   14.9840   -2.5053 H   0  0  0  0  0  0  0  0  0  0  0  0
    3.1645   15.4877    0.0203 H   0  0  0  0  0  0  0  0  0  0  0  0
    3.4898   16.8115   -1.2173 H   0  0  0  0  0  0  0  0  0  0  0  0
    1.9498   17.4687    0.8160 H   0  0  0  0  0  0  0  0  0  0  0  0
   -0.6227   15.9519   -1.9007 H   0  0  0  0  0  0  0  0  0  0  0  0
    0.2313   18.6646   -3.0882 H   0  0  0  0  0  0  0  0  0  0  0  0
   -0.9164   17.4616   -3.8272 H   0  0  0  0  0  0  0  0  0  0  0  0
   -2.1006   19.3682   -2.7857 H   0  0  0  0  0  0  0  0  0  0  0  0
   -2.4813   17.7860   -2.0000 H   0  0  0  0  0  0  0  0  0  0  0  0
   -2.1762   19.4412   -0.2902 H   0  0  0  0  0  0  0  0  0  0  0  0
    0.0890   20.3730   -0.1950 H   0  0  0  0  0  0  0  0  0  0  0  0
   -1.6734   17.0083    1.6807 H   0  0  0  0  0  0  0  0  0  0  0  0
   -2.6462   17.3193    0.2030 H   0  0  0  0  0  0  0  0  0  0  0  0
   -1.4020   16.0237    0.2030 H   0  0  0  0  0  0  0  0  0  0  0  0
   -0.4491   18.2480    2.2641 H   0  0  0  0  0  0  0  0  0  0  0  0
    1.0230   18.7619    1.3721 H   0  0  0  0  0  0  0  0  0  0  0  0
   -0.4379   19.8071    1.3721 H   0  0  0  0  0  0  0  0  0  0  0  0
    2.6597   17.6768   -2.9641 H   0  0  0  0  0  0  0  0  0  0  0  0
    2.8414   16.4910   -4.3011 H   0  0  0  0  0  0  0  0  0  0  0  0
    1.4606   17.6399   -4.3011 H   0  0  0  0  0  0  0  0  0  0  0  0
   -0.3217   15.5284   -4.2886 H   0  0  0  0  0  0  0  0  0  0  0  0
    1.3715   14.9067   -4.7136 H   0  0  0  0  0  0  0  0  0  0  0  0
   -0.6193   13.6792   -2.7862 H   0  0  0  0  0  0  0  0  0  0  0  0
   -0.0120   13.0184   -4.3553 H   0  0  0  0  0  0  0  0  0  0  0  0
    3.5435   12.7203   -3.2286 H   0  0  0  0  0  0  0  0  0  0  0  0
    2.4294   11.9449   -4.4051 H   0  0  0  0  0  0  0  0  0  0  0  0
    2.6355   13.7293   -4.4051 H   0  0  0  0  0  0  0  0  0  0  0  0
  1  2  1  0
  2  3  1  0
  3  4  1  0
  4  5  1  0
  5  6  1  0
  6  7  1  0
  7  8  1  0
  7  9  1  0
  2 10  1  0
 10 11  1  0
 11 12  1  0
 12 13  1  0
 13 14  1  1
 13 15  1  0
 15 16  1  0
 16 17  1  0
 17 18  2  0
 18 19  1  0
 19 20  1  0
 20 21  1  0
 21 22  1  0
 22 23  1  0
 22 24  1  0
 24 25  1  0
 24 26  1  0
 19 27  1  0
 27 28  1  6
 27 29  1  0
 29 30  1  0
 30 31  1  0
 31 32  1  6
  7  5  1  0
 31 10  1  0
 31 13  1  0
 27 15  1  0
 24 18  1  0
  1 33  1  0
  1 34  1  0
  1 35  1  0
  2 36  1  6
  3 37  1  0
  3 38  1  0
  4 39  1  0
  4 40  1  0
  5 41  1  1
  8 42  1  0
  8 43  1  0
  8 44  1  0
  9 45  1  0
  9 46  1  0
  9 47  1  0
 10 48  1  1
 11 49  1  0
 11 50  1  0
 12 51  1  0
 12 52  1  0
 14 53  1  0
 14 54  1  0
 14 55  1  0
 15 56  1  6
 16 57  1  0
 16 58  1  0
 17 59  1  0
 19 60  1  1
 20 61  1  0
 20 62  1  0
 21 63  1  0
 21 64  1  0
 22 65  1  1
 23 66  1  0
 25 67  1  0
 25 68  1  0
 25 69  1  0
 26 70  1  0
 26 71  1  0
 26 72  1  0
 28 73  1  0
 28 74  1  0
 28 75  1  0
 29 76  1  0
 29 77  1  0
 30 78  1  0
 30 79  1  0
 32 80  1  0
 32 81  1  0
 32 82  1  0
M  END
>  <meeko>  (13) 
{"is_sidechain": [false], "intermolecular_energy": 2.731, "internal_energy": -0.839}

$$$$
EPH_relaxed_0001_pdb2pqr_Repair_356_r2_0001_out
     RDKit          3D

 82 86  0  0  0  0  0  0  0  0999 V2000
    2.3410   11.3760   -6.0770 C   0  0  0  0  0  0  0  0  0  0  0  0
    1.1880   11.9790   -5.2700 C   0  0  2  0  0  0  0  0  0  0  0  0
    0.8800   13.4290   -5.6920 C   0  0  0  0  0  0  0  0  0  0  0  0
    1.8090   13.9630   -6.7860 C   0  0  0  0  0  0  0  0  0  0  0  0
    1.3100   15.2560   -7.3560 C   0  0  2  0  0  0  0  0  0  0  0  0
    0.4320   15.1160   -8.4800 O   0  0  0  0  0  0  0  0  0  0  0  0
    1.6880   15.7640   -8.7350 C   0  0  0  0  0  0  0  0  0  0  0  0
    2.6030   14.9870   -9.6290 C   0  0  0  0  0  0  0  0  0  0  0  0
    1.5650   17.2290   -9.0160 C   0  0  0  0  0  0  0  0  0  0  0  0
    1.5120   11.9280   -3.7820 C   0  0  1  0  0  0  0  0  0  0  0  0
    2.9900   11.5420   -3.5050 C   0  0  0  0  0  0  0  0  0  0  0  0
    3.4300   12.3300   -2.2450 C   0  0  0  0  0  0  0  0  0  0  0  0
    2.1130   12.8790   -1.6490 C   0  0  1  0  0  0  0  0  0  0  0  0
    1.5080   11.6860   -0.8450 C   0  0  0  0  0  0  0  0  0  0  0  0
    2.2360   14.1650   -0.7680 C   0  0  2  0  0  0  0  0  0  0  0  0
    3.0840   14.0040    0.5060 C   0  0  0  0  0  0  0  0  0  0  0  0
    2.3310   13.5820    1.7240 C   0  0  0  0  0  0  0  0  0  0  0  0
    0.9930   13.6160    1.8680 C   0  0  0  0  0  0  0  0  0  0  0  0
    0.0980   14.2080    0.7710 C   0  0  1  0  0  0  0  0  0  0  0  0
   -0.9460   15.1590    1.4120 C   0  0  0  0  0  0  0  0  0  0  0  0
   -1.7500   14.4830    2.5200 C   0  0  0  0  0  0  0  0  0  0  0  0
   -0.8300   13.9590    3.6190 C   0  0  2  0  0  0  0  0  0  0  0  0
   -0.2200   15.0720    4.2790 O   0  0  0  0  0  0  0  0  0  0  0  0
    0.2710   12.9980    3.0900 C   0  0  0  0  0  0  0  0  0  0  0  0
   -0.3740   11.6610    2.6490 C   0  0  0  0  0  0  0  0  0  0  0  0
    1.2140   12.6550    4.2750 C   0  0  0  0  0  0  0  0  0  0  0  0
    0.8560   14.8730   -0.4580 C   0  0  1  0  0  0  0  0  0  0  0  0
    1.1820   16.3640   -0.1370 C   0  0  0  0  0  0  0  0  0  0  0  0
   -0.1030   14.8870   -1.7060 C   0  0  0  0  0  0  0  0  0  0  0  0
   -0.0920   13.6360   -2.6050 C   0  0  0  0  0  0  0  0  0  0  0  0
    1.3410   13.2370   -2.9710 C   0  0  2  0  0  0  0  0  0  0  0  0
    1.9680   14.4090   -3.7990 C   0  0  0  0  0  0  0  0  0  0  0  0
    3.1015   10.9783   -5.3889 H   0  0  0  0  0  0  0  0  0  0  0  0
    1.9587   10.5624   -6.7109 H   0  0  0  0  0  0  0  0  0  0  0  0
    2.7912   12.1541   -6.7109 H   0  0  0  0  0  0  0  0  0  0  0  0
    0.2905   11.3772   -5.4759 H   0  0  0  0  0  0  0  0  0  0  0  0
   -0.1542   13.4699   -6.0644 H   0  0  0  0  0  0  0  0  0  0  0  0
    1.0323   14.0610   -4.8046 H   0  0  0  0  0  0  0  0  0  0  0  0
    2.8087   14.1252   -6.3566 H   0  0  0  0  0  0  0  0  0  0  0  0
    1.8436   13.2216   -7.5979 H   0  0  0  0  0  0  0  0  0  0  0  0
    1.3331   15.7292   -6.3633 H   0  0  0  0  0  0  0  0  0  0  0  0
    3.2993   14.3957   -9.0162 H   0  0  0  0  0  0  0  0  0  0  0  0
    2.0097   14.3125  -10.2639 H   0  0  0  0  0  0  0  0  0  0  0  0
    3.1724   15.6817  -10.2639 H   0  0  0  0  0  0  0  0  0  0  0  0
    1.5186   17.7819   -8.0662 H   0  0  0  0  0  0  0  0  0  0  0  0
    2.4380   17.5660   -9.5942 H   0  0  0  0  0  0  0  0  0  0  0  0
    0.6480   17.4157   -9.5942 H   0  0  0  0  0  0  0  0  0  0  0  0
    0.7692   11.1844   -3.4576 H   0  0  0  0  0  0  0  0  0  0  0  0
    3.0711   10.4603   -3.3226 H   0  0  0  0  0  0  0  0  0  0  0  0
    3.6296   11.7855   -4.3662 H   0  0  0  0  0  0  0  0  0  0  0  0
    3.9337   11.6655   -1.5276 H   0  0  0  0  0  0  0  0  0  0  0  0
    4.1462   13.1305   -2.4824 H   0  0  0  0  0  0  0  0  0  0  0  0
    1.6075   11.8822    0.2328 H   0  0  0  0  0  0  0  0  0  0  0  0
    0.4440   11.5737   -1.1005 H   0  0  0  0  0  0  0  0  0  0  0  0
    2.0461   10.7612   -1.1005 H   0  0  0  0  0  0  0  0  0  0  0  0
    2.8032   14.8447   -1.4208 H   0  0  0  0  0  0  0  0  0  0  0  0
    3.8579   13.2483    0.3060 H   0  0  0  0  0  0  0  0  0  0  0  0
    3.4899   15.0016    0.7295 H   0  0  0  0  0  0  0  0  0  0  0  0
    2.9196   13.2118    2.5763 H   0  0  0  0  0  0  0  0  0  0  0  0
   -0.4133   13.3546    0.3017 H   0  0  0  0  0  0  0  0  0  0  0  0
   -0.4192   16.0260    1.8371 H   0  0  0  0  0  0  0  0  0  0  0  0
   -1.6514   15.4610    0.6238 H   0  0  0  0  0  0  0  0  0  0  0  0
   -2.4496   15.2127    2.9537 H   0  0  0  0  0  0  0  0  0  0  0  0
   -2.2993   13.6339    2.0873 H   0  0  0  0  0  0  0  0  0  0  0  0
   -1.4485   13.3741    4.3157 H   0  0  0  0  0  0  0  0  0  0  0  0
   -0.9270   15.6950    4.5210 H   0  0  0  0  0  0  0  0  0  0  0  0
   -0.6550   11.0784    3.5387 H   0  0  0  0  0  0  0  0  0  0  0  0
   -1.2715   11.8677    2.0475 H   0  0  0  0  0  0  0  0  0  0  0  0
    0.3464   11.0872    2.0475 H   0  0  0  0  0  0  0  0  0  0  0  0
    0.6929   12.8445    5.2250 H   0  0  0  0  0  0  0  0  0  0  0  0
    1.5016   11.5947    4.2197 H   0  0  0  0  0  0  0  0  0  0  0  0
    2.1156   13.2828    4.2197 H   0  0  0  0  0  0  0  0  0  0  0  0
    1.2130   16.5060    0.9534 H   0  0  0  0  0  0  0  0  0  0  0  0
    2.1589   16.6270   -0.5690 H   0  0  0  0  0  0  0  0  0  0  0  0
    0.4040   17.0106   -0.5690 H   0  0  0  0  0  0  0  0  0  0  0  0
   -1.1298   15.0211   -1.3350 H   0  0  0  0  0  0  0  0  0  0  0  0
    0.2671   15.7030   -2.3441 H   0  0  0  0  0  0  0  0  0  0  0  0
   -0.5717   12.8036   -2.0693 H   0  0  0  0  0  0  0  0  0  0  0  0
   -0.6401   13.8644   -3.5310 H   0  0  0  0  0  0  0  0  0  0  0  0
    2.3735   15.1669   -3.1126 H   0  0  0  0  0  0  0  0  0  0  0  0
    2.7774   14.0180   -4.4330 H   0  0  0  0  0  0  0  0  0  0  0  0
    1.1935   14.8653   -4.4330 H   0  0  0  0  0  0  0  0  0  0  0  0
  1  2  1  0
  2  3  1  0
  3  4  1  0
  4  5  1  0
  5  6  1  0
  6  7  1  0
  7  8  1  0
  7  9  1  0
  2 10  1  0
 10 11  1  0
 11 12  1  0
 12 13  1  0
 13 14  1  1
 13 15  1  0
 15 16  1  0
 16 17  1  0
 17 18  2  0
 18 19  1  0
 19 20  1  0
 20 21  1  0
 21 22  1  0
 22 23  1  0
 22 24  1  0
 24 25  1  0
 24 26  1  0
 19 27  1  0
 27 28  1  1
 27 29  1  0
 29 30  1  0
 30 31  1  0
 31 32  1  6
  7  5  1  0
 31 10  1  0
 31 13  1  0
 27 15  1  0
 24 18  1  0
  1 33  1  0
  1 34  1  0
  1 35  1  0
  2 36  1  1
  3 37  1  0
  3 38  1  0
  4 39  1  0
  4 40  1  0
  5 41  1  1
  8 42  1  0
  8 43  1  0
  8 44  1  0
  9 45  1  0
  9 46  1  0
  9 47  1  0
 10 48  1  1
 11 49  1  0
 11 50  1  0
 12 51  1  0
 12 52  1  0
 14 53  1  0
 14 54  1  0
 14 55  1  0
 15 56  1  6
 16 57  1  0
 16 58  1  0
 17 59  1  0
 19 60  1  6
 20 61  1  0
 20 62  1  0
 21 63  1  0
 21 64  1  0
 22 65  1  1
 23 66  1  0
 25 67  1  0
 25 68  1  0
 25 69  1  0
 26 70  1  0
 26 71  1  0
 26 72  1  0
 28 73  1  0
 28 74  1  0
 28 75  1  0
 29 76  1  0
 29 77  1  0
 30 78  1  0
 30 79  1  0
 32 80  1  0
 32 81  1  0
 32 82  1  0
M  END
>  <meeko>  (14) 
{"is_sidechain": [false], "intermolecular_energy": 2.731, "internal_energy": -0.839}

$$$$
EPH_relaxed_0001_pdb2pqr_Repair_356_r2_0001_out
     RDKit          3D

 82 86  0  0  0  0  0  0  0  0999 V2000
    2.0260   11.0230   -4.4040 C   0  0  0  0  0  0  0  0  0  0  0  0
    1.1810   12.0920   -5.1030 C   0  0  2  0  0  0  0  0  0  0  0  0
    2.0290   12.9890   -6.0270 C   0  0  0  0  0  0  0  0  0  0  0  0
    1.2630   14.1900   -6.5890 C   0  0  0  0  0  0  0  0  0  0  0  0
    1.8650   14.6800   -7.8710 C   0  0  2  0  0  0  0  0  0  0  0  0
    2.1380   16.0870   -7.9050 O   0  0  0  0  0  0  0  0  0  0  0  0
    1.1480   15.6110   -8.8310 C   0  0  0  0  0  0  0  0  0  0  0  0
   -0.2360   16.1060   -8.5490 C   0  0  0  0  0  0  0  0  0  0  0  0
    1.5910   15.6470  -10.2600 C   0  0  0  0  0  0  0  0  0  0  0  0
    0.4610   12.9450   -4.0650 C   0  0  1  0  0  0  0  0  0  0  0  0
   -0.4510   12.1060   -3.1310 C   0  0  0  0  0  0  0  0  0  0  0  0
   -0.3930   12.7730   -1.7320 C   0  0  0  0  0  0  0  0  0  0  0  0
    0.2740   14.1460   -1.9820 C   0  0  1  0  0  0  0  0  0  0  0  0
   -0.8750   15.0610   -2.5090 C   0  0  0  0  0  0  0  0  0  0  0  0
    1.0100   14.7880   -0.7610 C   0  0  2  0  0  0  0  0  0  0  0  0
    0.1100   15.1200    0.4420 C   0  0  0  0  0  0  0  0  0  0  0  0
   -0.4830   16.4900    0.4360 C   0  0  0  0  0  0  0  0  0  0  0  0
   -0.0810   17.5130   -0.3400 C   0  0  0  0  0  0  0  0  0  0  0  0
    1.1390   17.3720   -1.2600 C   0  0  1  0  0  0  0  0  0  0  0  0
    2.0500   18.6180   -1.1060 C   0  0  0  0  0  0  0  0  0  0  0  0
    1.2960   19.9250   -1.3340 C   0  0  0  0  0  0  0  0  0  0  0  0
    0.1260   20.0560   -0.3620 C   0  0  2  0  0  0  0  0  0  0  0  0
    0.6420   20.1930    0.9650 O   0  0  0  0  0  0  0  0  0  0  0  0
   -0.8550   18.8520   -0.4200 C   0  0  0  0  0  0  0  0  0  0  0  0
   -1.6380   18.8820   -1.7560 C   0  0  0  0  0  0  0  0  0  0  0  0
   -1.9090   19.0400    0.7050 C   0  0  0  0  0  0  0  0  0  0  0  0
    1.9460   16.0080   -1.1370 C   0  0  1  0  0  0  0  0  0  0  0  0
    3.0090   16.1190   -0.0020 C   0  0  0  0  0  0  0  0  0  0  0  0
    2.7440   15.7610   -2.4710 C   0  0  0  0  0  0  0  0  0  0  0  0
    2.0020   15.0150   -3.5970 C   0  0  0  0  0  0  0  0  0  0  0  0
    1.3390   13.7410   -3.0660 C   0  0  2  0  0  0  0  0  0  0  0  0
    2.4720   12.7910   -2.5490 C   0  0  0  0  0  0  0  0  0  0  0  0
    1.9348   11.1384   -3.3139 H   0  0  0  0  0  0  0  0  0  0  0  0
    1.6705   10.0244   -4.6980 H   0  0  0  0  0  0  0  0  0  0  0  0
    3.0797   11.1383   -4.6980 H   0  0  0  0  0  0  0  0  0  0  0  0
    0.4439   11.5728   -5.7332 H   0  0  0  0  0  0  0  0  0  0  0  0
    2.8899   13.3633   -5.4536 H   0  0  0  0  0  0  0  0  0  0  0  0
    2.3335   12.3712   -6.8847 H   0  0  0  0  0  0  0  0  0  0  0  0
    0.2205   13.8926   -6.7753 H   0  0  0  0  0  0  0  0  0  0  0  0
    1.3143   15.0051   -5.8522 H   0  0  0  0  0  0  0  0  0  0  0  0
    2.3822   13.7209   -8.0215 H   0  0  0  0  0  0  0  0  0  0  0  0
   -0.3911   16.1615   -7.4614 H   0  0  0  0  0  0  0  0  0  0  0  0
   -0.3646   17.1059   -8.9892 H   0  0  0  0  0  0  0  0  0  0  0  0
   -0.9695   15.4145   -8.9892 H   0  0  0  0  0  0  0  0  0  0  0  0
    2.6866   15.7360  -10.3021 H   0  0  0  0  0  0  0  0  0  0  0  0
    1.2788   14.7205  -10.7641 H   0  0  0  0  0  0  0  0  0  0  0  0
    1.1333   16.5109  -10.7641 H   0  0  0  0  0  0  0  0  0  0  0  0
   -0.0718   13.6380   -4.7328 H   0  0  0  0  0  0  0  0  0  0  0  0
   -1.4840   12.1076   -3.5089 H   0  0  0  0  0  0  0  0  0  0  0  0
   -0.1132   11.0602   -3.0843 H   0  0  0  0  0  0  0  0  0  0  0  0
   -1.4051   12.9020   -1.3210 H   0  0  0  0  0  0  0  0  0  0  0  0
    0.1632   12.1655   -1.0029 H   0  0  0  0  0  0  0  0  0  0  0  0
   -1.4190   15.4942   -1.6567 H   0  0  0  0  0  0  0  0  0  0  0  0
   -0.4485   15.8695   -3.1209 H   0  0  0  0  0  0  0  0  0  0  0  0
   -1.5675   14.4643   -3.1209 H   0  0  0  0  0  0  0  0  0  0  0  0
    1.6677   13.9724   -0.4259 H   0  0  0  0  0  0  0  0  0  0  0  0
   -0.7150   14.3926    0.4602 H   0  0  0  0  0  0  0  0  0  0  0  0
    0.7585   15.0731    1.3293 H   0  0  0  0  0  0  0  0  0  0  0  0
   -1.3197   16.6792    1.1245 H   0  0  0  0  0  0  0  0  0  0  0  0
    0.7429   17.3230   -2.2851 H   0  0  0  0  0  0  0  0  0  0  0  0
    2.4689   18.6252   -0.0889 H   0  0  0  0  0  0  0  0  0  0  0  0
    2.8401   18.5506   -1.8683 H   0  0  0  0  0  0  0  0  0  0  0  0
    1.9851   20.7692   -1.1839 H   0  0  0  0  0  0  0  0  0  0  0  0
    0.9017   19.9286   -2.3609 H   0  0  0  0  0  0  0  0  0  0  0  0
   -0.4505   20.9451   -0.6570 H   0  0  0  0  0  0  0  0  0  0  0  0
    1.6120   20.1900    0.9060 H   0  0  0  0  0  0  0  0  0  0  0  0
   -2.7173   18.9234   -1.5476 H   0  0  0  0  0  0  0  0  0  0  0  0
   -1.3420   19.7695   -2.3346 H   0  0  0  0  0  0  0  0  0  0  0  0
   -1.4108   17.9745   -2.3346 H   0  0  0  0  0  0  0  0  0  0  0  0
   -1.4183   18.9525    1.6856 H   0  0  0  0  0  0  0  0  0  0  0  0
   -2.3699   20.0345    0.6131 H   0  0  0  0  0  0  0  0  0  0  0  0
   -2.6854   18.2662    0.6131 H   0  0  0  0  0  0  0  0  0  0  0  0
    2.5081   16.0667    0.9759 H   0  0  0  0  0  0  0  0  0  0  0  0
    3.7278   15.2910   -0.0905 H   0  0  0  0  0  0  0  0  0  0  0  0
    3.5412   17.0776   -0.0905 H   0  0  0  0  0  0  0  0  0  0  0  0
    3.0457   16.7428   -2.8649 H   0  0  0  0  0  0  0  0  0  0  0  0
    3.5778   15.1010   -2.1895 H   0  0  0  0  0  0  0  0  0  0  0  0
    1.2286   15.6749   -4.0171 H   0  0  0  0  0  0  0  0  0  0  0  0
    2.7309   14.7344   -4.3716 H   0  0  0  0  0  0  0  0  0  0  0  0
    2.4749   12.7886   -1.4490 H   0  0  0  0  0  0  0  0  0  0  0  0
    2.2913   11.7704   -2.9175 H   0  0  0  0  0  0  0  0  0  0  0  0
    3.4454   13.1469   -2.9175 H   0  0  0  0  0  0  0  0  0  0  0  0
  1  2  1  0
  2  3  1  0
  3  4  1  0
  4  5  1  0
  5  6  1  0
  6  7  1  0
  7  8  1  0
  7  9  1  0
  2 10  1  0
 10 11  1  0
 11 12  1  0
 12 13  1  0
 13 14  1  6
 13 15  1  0
 15 16  1  0
 16 17  1  0
 17 18  2  0
 18 19  1  0
 19 20  1  0
 20 21  1  0
 21 22  1  0
 22 23  1  0
 22 24  1  0
 24 25  1  0
 24 26  1  0
 19 27  1  0
 27 28  1  1
 27 29  1  0
 29 30  1  0
 30 31  1  0
 31 32  1  1
  7  5  1  0
 31 10  1  0
 31 13  1  0
 27 15  1  0
 24 18  1  0
  1 33  1  0
  1 34  1  0
  1 35  1  0
  2 36  1  6
  3 37  1  0
  3 38  1  0
  4 39  1  0
  4 40  1  0
  5 41  1  6
  8 42  1  0
  8 43  1  0
  8 44  1  0
  9 45  1  0
  9 46  1  0
  9 47  1  0
 10 48  1  6
 11 49  1  0
 11 50  1  0
 12 51  1  0
 12 52  1  0
 14 53  1  0
 14 54  1  0
 14 55  1  0
 15 56  1  1
 16 57  1  0
 16 58  1  0
 17 59  1  0
 19 60  1  6
 20 61  1  0
 20 62  1  0
 21 63  1  0
 21 64  1  0
 22 65  1  6
 23 66  1  0
 25 67  1  0
 25 68  1  0
 25 69  1  0
 26 70  1  0
 26 71  1  0
 26 72  1  0
 28 73  1  0
 28 74  1  0
 28 75  1  0
 29 76  1  0
 29 77  1  0
 30 78  1  0
 30 79  1  0
 32 80  1  0
 32 81  1  0
 32 82  1  0
M  END
>  <meeko>  (15) 
{"is_sidechain": [false], "intermolecular_energy": 2.731, "internal_energy": -0.839}

$$$$
EPH_relaxed_0001_pdb2pqr_Repair_356_r2_0001_out
     RDKit          3D

 82 86  0  0  0  0  0  0  0  0999 V2000
  -12.7760   11.1490   -2.3260 C   0  0  0  0  0  0  0  0  0  0  0  0
  -13.1100    9.8430   -1.5990 C   0  0  2  0  0  0  0  0  0  0  0  0
  -14.1450   10.0530   -0.4750 C   0  0  0  0  0  0  0  0  0  0  0  0
  -15.2850    9.0320   -0.4900 C   0  0  0  0  0  0  0  0  0  0  0  0
  -15.0440    7.9160    0.4810 C   0  0  2  0  0  0  0  0  0  0  0  0
  -13.8250    7.1920    0.2700 O   0  0  0  0  0  0  0  0  0  0  0  0
  -15.0420    6.4500    0.0880 C   0  0  0  0  0  0  0  0  0  0  0  0
  -15.2870    6.0210   -1.3250 C   0  0  0  0  0  0  0  0  0  0  0  0
  -15.2870    5.4240    1.1500 C   0  0  0  0  0  0  0  0  0  0  0  0
  -11.8390    9.2260   -1.0280 C   0  0  1  0  0  0  0  0  0  0  0  0
  -12.0570    8.5960    0.3730 C   0  0  0  0  0  0  0  0  0  0  0  0
  -11.1420    7.3470    0.4500 C   0  0  0  0  0  0  0  0  0  0  0  0
  -10.1910    7.4860   -0.7620 C   0  0  1  0  0  0  0  0  0  0  0  0
   -9.0840    8.4810   -0.2920 C   0  0  0  0  0  0  0  0  0  0  0  0
   -9.5770    6.1580   -1.3140 C   0  0  2  0  0  0  0  0  0  0  0  0
   -8.6750    5.3960   -0.3260 C   0  0  0  0  0  0  0  0  0  0  0  0
   -7.2270    5.7570   -0.3760 C   0  0  0  0  0  0  0  0  0  0  0  0
   -6.6260    6.4430   -1.3650 C   0  0  0  0  0  0  0  0  0  0  0  0
   -7.3990    6.8470   -2.6270 C   0  0  1  0  0  0  0  0  0  0  0  0
   -6.5530    6.5110   -3.8830 C   0  0  0  0  0  0  0  0  0  0  0  0
   -5.1580    7.1280   -3.8310 C   0  0  0  0  0  0  0  0  0  0  0  0
   -4.4000    6.6580   -2.5920 C   0  0  2  0  0  0  0  0  0  0  0  0
   -4.1410    5.2560   -2.7160 O   0  0  0  0  0  0  0  0  0  0  0  0
   -5.1600    6.9340   -1.2660 C   0  0  0  0  0  0  0  0  0  0  0  0
   -5.1760    8.4570   -0.9820 C   0  0  0  0  0  0  0  0  0  0  0  0
   -4.3540    6.2850   -0.1090 C   0  0  0  0  0  0  0  0  0  0  0  0
   -8.8880    6.3020   -2.7310 C   0  0  1  0  0  0  0  0  0  0  0  0
   -8.8910    4.8810   -3.3740 C   0  0  0  0  0  0  0  0  0  0  0  0
   -9.7090    7.2300   -3.7030 C   0  0  0  0  0  0  0  0  0  0  0  0
  -10.3910    8.4610   -3.0770 C   0  0  0  0  0  0  0  0  0  0  0  0
  -11.1880    8.0700   -1.8280 C   0  0  2  0  0  0  0  0  0  0  0  0
  -12.3230    7.0860   -2.2730 C   0  0  0  0  0  0  0  0  0  0  0  0
  -12.5741   11.9386   -1.5872 H   0  0  0  0  0  0  0  0  0  0  0  0
  -11.8869   11.0007   -2.9565 H   0  0  0  0  0  0  0  0  0  0  0  0
  -13.6272   11.4457   -2.9565 H   0  0  0  0  0  0  0  0  0  0  0  0
  -13.5564    9.1589   -2.3357 H   0  0  0  0  0  0  0  0  0  0  0  0
  -13.6266    9.9805    0.4925 H   0  0  0  0  0  0  0  0  0  0  0  0
  -14.5976   11.0427   -0.6355 H   0  0  0  0  0  0  0  0  0  0  0  0
  -16.2227    9.5410   -0.2222 H   0  0  0  0  0  0  0  0  0  0  0  0
  -15.3447    8.6002   -1.5000 H   0  0  0  0  0  0  0  0  0  0  0  0
  -15.5665    8.4653    1.2780 H   0  0  0  0  0  0  0  0  0  0  0  0
  -15.8325    5.0658   -1.3288 H   0  0  0  0  0  0  0  0  0  0  0  0
  -15.8842    6.7864   -1.8423 H   0  0  0  0  0  0  0  0  0  0  0  0
  -14.3243    5.8956   -1.8423 H   0  0  0  0  0  0  0  0  0  0  0  0
  -15.1761    5.8884    2.1410 H   0  0  0  0  0  0  0  0  0  0  0  0
  -16.3060    5.0234    1.0447 H   0  0  0  0  0  0  0  0  0  0  0  0
  -14.5589    4.6062    1.0447 H   0  0  0  0  0  0  0  0  0  0  0  0
  -11.1837   10.1094   -1.0421 H   0  0  0  0  0  0  0  0  0  0  0  0
  -11.7826    9.3154    1.1585 H   0  0  0  0  0  0  0  0  0  0  0  0
  -13.1118    8.3223    0.5228 H   0  0  0  0  0  0  0  0  0  0  0  0
  -10.5731    7.3396    1.3914 H   0  0  0  0  0  0  0  0  0  0  0  0
  -11.7144    6.4079    0.4261 H   0  0  0  0  0  0  0  0  0  0  0  0
   -9.0562    8.5060    0.8074 H   0  0  0  0  0  0  0  0  0  0  0  0
   -8.1074    8.1511   -0.6761 H   0  0  0  0  0  0  0  0  0  0  0  0
   -9.3082    9.4871   -0.6761 H   0  0  0  0  0  0  0  0  0  0  0  0
  -10.4673    5.5274   -1.4544 H   0  0  0  0  0  0  0  0  0  0  0  0
   -9.0404    5.5965    0.6920 H   0  0  0  0  0  0  0  0  0  0  0  0
   -8.7346    4.3362   -0.6146 H   0  0  0  0  0  0  0  0  0  0  0  0
   -6.5984    5.4347    0.4672 H   0  0  0  0  0  0  0  0  0  0  0  0
   -7.5473    7.9347   -2.5576 H   0  0  0  0  0  0  0  0  0  0  0  0
   -6.4527    5.4182   -3.9586 H   0  0  0  0  0  0  0  0  0  0  0  0
   -7.0717    6.9313   -4.7573 H   0  0  0  0  0  0  0  0  0  0  0  0
   -4.5986    6.8298   -4.7300 H   0  0  0  0  0  0  0  0  0  0  0  0
   -5.2593    8.2224   -3.7867 H   0  0  0  0  0  0  0  0  0  0  0  0
   -3.4636    7.2328   -2.5403 H   0  0  0  0  0  0  0  0  0  0  0  0
   -3.3700    5.0490   -2.1610 H   0  0  0  0  0  0  0  0  0  0  0  0
   -5.1778    8.6273    0.1047 H   0  0  0  0  0  0  0  0  0  0  0  0
   -4.2827    8.9219   -1.4245 H   0  0  0  0  0  0  0  0  0  0  0  0
   -6.0789    8.9030   -1.4245 H   0  0  0  0  0  0  0  0  0  0  0  0
   -4.7657    6.6165    0.8557 H   0  0  0  0  0  0  0  0  0  0  0  0
   -4.4259    5.1897   -0.1814 H   0  0  0  0  0  0  0  0  0  0  0  0
   -3.2993    6.5888   -0.1814 H   0  0  0  0  0  0  0  0  0  0  0  0
   -8.8926    4.1194   -2.5803 H   0  0  0  0  0  0  0  0  0  0  0  0
   -9.7894    4.7626   -3.9976 H   0  0  0  0  0  0  0  0  0  0  0  0
   -7.9931    4.7588   -3.9976 H   0  0  0  0  0  0  0  0  0  0  0  0
   -9.0192    7.5910   -4.4801 H   0  0  0  0  0  0  0  0  0  0  0  0
  -10.5326    6.6019   -4.0732 H   0  0  0  0  0  0  0  0  0  0  0  0
   -9.6214    9.1956   -2.7975 H   0  0  0  0  0  0  0  0  0  0  0  0
  -11.0839    8.8915   -3.8149 H   0  0  0  0  0  0  0  0  0  0  0  0
  -12.8112    6.6627   -1.3828 H   0  0  0  0  0  0  0  0  0  0  0  0
  -13.0657    7.6308   -2.8743 H   0  0  0  0  0  0  0  0  0  0  0  0
  -11.8890    6.2736   -2.8743 H   0  0  0  0  0  0  0  0  0  0  0  0
  1  2  1  0
  2  3  1  0
  3  4  1  0
  4  5  1  0
  5  6  1  0
  6  7  1  0
  7  8  1  0
  7  9  1  0
  2 10  1  0
 10 11  1  0
 11 12  1  0
 12 13  1  0
 13 14  1  1
 13 15  1  0
 15 16  1  0
 16 17  1  0
 17 18  2  0
 18 19  1  0
 19 20  1  0
 20 21  1  0
 21 22  1  0
 22 23  1  0
 22 24  1  0
 24 25  1  0
 24 26  1  0
 19 27  1  0
 27 28  1  6
 27 29  1  0
 29 30  1  0
 30 31  1  0
 31 32  1  6
  7  5  1  0
 31 10  1  0
 31 13  1  0
 27 15  1  0
 24 18  1  0
  1 33  1  0
  1 34  1  0
  1 35  1  0
  2 36  1  6
  3 37  1  0
  3 38  1  0
  4 39  1  0
  4 40  1  0
  5 41  1  1
  8 42  1  0
  8 43  1  0
  8 44  1  0
  9 45  1  0
  9 46  1  0
  9 47  1  0
 10 48  1  1
 11 49  1  0
 11 50  1  0
 12 51  1  0
 12 52  1  0
 14 53  1  0
 14 54  1  0
 14 55  1  0
 15 56  1  6
 16 57  1  0
 16 58  1  0
 17 59  1  0
 19 60  1  1
 20 61  1  0
 20 62  1  0
 21 63  1  0
 21 64  1  0
 22 65  1  1
 23 66  1  0
 25 67  1  0
 25 68  1  0
 25 69  1  0
 26 70  1  0
 26 71  1  0
 26 72  1  0
 28 73  1  0
 28 74  1  0
 28 75  1  0
 29 76  1  0
 29 77  1  0
 30 78  1  0
 30 79  1  0
 32 80  1  0
 32 81  1  0
 32 82  1  0
M  END
>  <meeko>  (16) 
{"is_sidechain": [false], "intermolecular_energy": 2.731, "internal_energy": -0.839}

$$$$
EPH_relaxed_0001_pdb2pqr_Repair_356_r2_0001_out
     RDKit          3D

 82 86  0  0  0  0  0  0  0  0999 V2000
    0.7890    8.8050   -2.2650 C   0  0  0  0  0  0  0  0  0  0  0  0
    1.9570    9.3880   -1.4640 C   0  0  2  0  0  0  0  0  0  0  0  0
    1.6370    9.4860    0.0410 C   0  0  0  0  0  0  0  0  0  0  0  0
    1.9750   10.8480    0.6540 C   0  0  0  0  0  0  0  0  0  0  0  0
    1.4000   10.9940    2.0310 C   0  0  2  0  0  0  0  0  0  0  0  0
   -0.0060   11.2720    2.0650 O   0  0  0  0  0  0  0  0  0  0  0  0
    0.8570   12.3010    2.5760 C   0  0  0  0  0  0  0  0  0  0  0  0
    0.8640   13.5520    1.7550 C   0  0  0  0  0  0  0  0  0  0  0  0
    0.7720   12.4770    4.0600 C   0  0  0  0  0  0  0  0  0  0  0  0
    2.3250   10.7630   -2.0090 C   0  0  1  0  0  0  0  0  0  0  0  0
    3.0760   10.6870   -3.3650 C   0  0  0  0  0  0  0  0  0  0  0  0
    2.6270   11.9170   -4.1950 C   0  0  0  0  0  0  0  0  0  0  0  0
    1.8990   12.8280   -3.1800 C   0  0  1  0  0  0  0  0  0  0  0  0
    3.0400   13.5900   -2.4350 C   0  0  0  0  0  0  0  0  0  0  0  0
    0.8390   13.8130   -3.7710 C   0  0  2  0  0  0  0  0  0  0  0  0
    1.3960   14.8600   -4.7510 C   0  0  0  0  0  0  0  0  0  0  0  0
    1.8310   16.1460   -4.1300 C   0  0  0  0  0  0  0  0  0  0  0  0
    1.5180   16.5600   -2.8880 C   0  0  0  0  0  0  0  0  0  0  0  0
    0.5660   15.7460   -2.0030 C   0  0  1  0  0  0  0  0  0  0  0  0
   -0.4780   16.6940   -1.3560 C   0  0  0  0  0  0  0  0  0  0  0  0
    0.1700   17.8530   -0.6040 C   0  0  0  0  0  0  0  0  0  0  0  0
    1.0640   18.6730   -1.5310 C   0  0  2  0  0  0  0  0  0  0  0  0
    0.2420   19.3240   -2.5060 O   0  0  0  0  0  0  0  0  0  0  0  0
    2.1490   17.8210   -2.2480 C   0  0  0  0  0  0  0  0  0  0  0  0
    3.2130   17.3640   -1.2200 C   0  0  0  0  0  0  0  0  0  0  0  0
    2.8880   18.7410   -3.2570 C   0  0  0  0  0  0  0  0  0  0  0  0
   -0.1040   14.4780   -2.6880 C   0  0  1  0  0  0  0  0  0  0  0  0
   -1.4080   14.9010   -3.4310 C   0  0  0  0  0  0  0  0  0  0  0  0
   -0.5410   13.4600   -1.5690 C   0  0  0  0  0  0  0  0  0  0  0  0
    0.5150   12.4350   -1.1120 C   0  0  0  0  0  0  0  0  0  0  0  0
    1.1630   11.7420   -2.3140 C   0  0  2  0  0  0  0  0  0  0  0  0
    0.0430   10.9490   -3.0700 C   0  0  0  0  0  0  0  0  0  0  0  0
    0.0241    8.4232   -1.5728 H   0  0  0  0  0  0  0  0  0  0  0  0
    0.3509    9.5901   -2.8987 H   0  0  0  0  0  0  0  0  0  0  0  0
    1.1531    7.9829   -2.8987 H   0  0  0  0  0  0  0  0  0  0  0  0
    2.8103    8.7029   -1.5759 H   0  0  0  0  0  0  0  0  0  0  0  0
    0.5620    9.2994    0.1805 H   0  0  0  0  0  0  0  0  0  0  0  0
    2.2620    8.7390    0.5522 H   0  0  0  0  0  0  0  0  0  0  0  0
    3.0686   10.9517    0.7114 H   0  0  0  0  0  0  0  0  0  0  0  0
    1.5382   11.6297    0.0151 H   0  0  0  0  0  0  0  0  0  0  0  0
    2.1221   10.2696    2.4357 H   0  0  0  0  0  0  0  0  0  0  0  0
    0.8689   14.4275    2.4209 H   0  0  0  0  0  0  0  0  0  0  0  0
    1.7623   13.5690    1.1203 H   0  0  0  0  0  0  0  0  0  0  0  0
   -0.0340   13.5791    1.1203 H   0  0  0  0  0  0  0  0  0  0  0  0
    1.1983   11.5942    4.5589 H   0  0  0  0  0  0  0  0  0  0  0  0
    1.3364   13.3737    4.3558 H   0  0  0  0  0  0  0  0  0  0  0  0
   -0.2812   12.5925    4.3558 H   0  0  0  0  0  0  0  0  0  0  0  0
    2.9241   11.1402   -1.1671 H   0  0  0  0  0  0  0  0  0  0  0  0
    4.1628   10.7189   -3.1983 H   0  0  0  0  0  0  0  0  0  0  0  0
    2.8452    9.7495   -3.8921 H   0  0  0  0  0  0  0  0  0  0  0  0
    3.4975   12.4335   -4.6257 H   0  0  0  0  0  0  0  0  0  0  0  0
    1.9822   11.6365   -5.0409 H   0  0  0  0  0  0  0  0  0  0  0  0
    2.8964   13.4941   -1.3486 H   0  0  0  0  0  0  0  0  0  0  0  0
    4.0125   13.1595   -2.7157 H   0  0  0  0  0  0  0  0  0  0  0  0
    3.0149   14.6533   -2.7157 H   0  0  0  0  0  0  0  0  0  0  0  0
    0.2080   13.1447   -4.3752 H   0  0  0  0  0  0  0  0  0  0  0  0
    2.2640   14.4188   -5.2628 H   0  0  0  0  0  0  0  0  0  0  0  0
    0.5676   15.1139   -5.4287 H   0  0  0  0  0  0  0  0  0  0  0  0
    2.4605   16.8115   -4.7389 H   0  0  0  0  0  0  0  0  0  0  0  0
    1.1924   15.2912   -1.2215 H   0  0  0  0  0  0  0  0  0  0  0  0
   -1.1211   17.1038   -2.1488 H   0  0  0  0  0  0  0  0  0  0  0  0
   -1.0567   16.1061   -0.6283 H   0  0  0  0  0  0  0  0  0  0  0  0
   -0.6181   18.5030   -0.1962 H   0  0  0  0  0  0  0  0  0  0  0  0
    0.7885   17.4427    0.2078 H   0  0  0  0  0  0  0  0  0  0  0  0
    1.6004   19.4053   -0.9096 H   0  0  0  0  0  0  0  0  0  0  0  0
   -0.1740   18.6330   -3.0480 H   0  0  0  0  0  0  0  0  0  0  0  0
    2.8323   17.5275   -0.2010 H   0  0  0  0  0  0  0  0  0  0  0  0
    3.4268   16.2947   -1.3644 H   0  0  0  0  0  0  0  0  0  0  0  0
    4.1357   17.9452   -1.3644 H   0  0  0  0  0  0  0  0  0  0  0  0
    3.4846   19.4837   -2.7071 H   0  0  0  0  0  0  0  0  0  0  0  0
    3.5517   18.1331   -3.8894 H   0  0  0  0  0  0  0  0  0  0  0  0
    2.1513   19.2580   -3.8894 H   0  0  0  0  0  0  0  0  0  0  0  0
   -2.1847   15.1529   -2.6939 H   0  0  0  0  0  0  0  0  0  0  0  0
   -1.2025   15.7785   -4.0616 H   0  0  0  0  0  0  0  0  0  0  0  0
   -1.7567   14.0699   -4.0616 H   0  0  0  0  0  0  0  0  0  0  0  0
   -0.8417   14.0441   -0.6867 H   0  0  0  0  0  0  0  0  0  0  0  0
   -1.3457   12.8621   -2.0218 H   0  0  0  0  0  0  0  0  0  0  0  0
    1.2933   12.9540   -0.5333 H   0  0  0  0  0  0  0  0  0  0  0  0
    0.0189   11.6727   -0.4934 H   0  0  0  0  0  0  0  0  0  0  0  0
   -0.6275   10.4743   -2.3385 H   0  0  0  0  0  0  0  0  0  0  0  0
   -0.5339   11.6410   -3.7011 H   0  0  0  0  0  0  0  0  0  0  0  0
    0.5041   10.1750   -3.7011 H   0  0  0  0  0  0  0  0  0  0  0  0
  1  2  1  0
  2  3  1  0
  3  4  1  0
  4  5  1  0
  5  6  1  0
  6  7  1  0
  7  8  1  0
  7  9  1  0
  2 10  1  0
 10 11  1  0
 11 12  1  0
 12 13  1  0
 13 14  1  1
 13 15  1  0
 15 16  1  0
 16 17  1  0
 17 18  2  0
 18 19  1  0
 19 20  1  0
 20 21  1  0
 21 22  1  0
 22 23  1  0
 22 24  1  0
 24 25  1  0
 24 26  1  0
 19 27  1  0
 27 28  1  6
 27 29  1  0
 29 30  1  0
 30 31  1  0
 31 32  1  6
  7  5  1  0
 31 10  1  0
 31 13  1  0
 27 15  1  0
 24 18  1  0
  1 33  1  0
  1 34  1  0
  1 35  1  0
  2 36  1  1
  3 37  1  0
  3 38  1  0
  4 39  1  0
  4 40  1  0
  5 41  1  1
  8 42  1  0
  8 43  1  0
  8 44  1  0
  9 45  1  0
  9 46  1  0
  9 47  1  0
 10 48  1  1
 11 49  1  0
 11 50  1  0
 12 51  1  0
 12 52  1  0
 14 53  1  0
 14 54  1  0
 14 55  1  0
 15 56  1  6
 16 57  1  0
 16 58  1  0
 17 59  1  0
 19 60  1  1
 20 61  1  0
 20 62  1  0
 21 63  1  0
 21 64  1  0
 22 65  1  1
 23 66  1  0
 25 67  1  0
 25 68  1  0
 25 69  1  0
 26 70  1  0
 26 71  1  0
 26 72  1  0
 28 73  1  0
 28 74  1  0
 28 75  1  0
 29 76  1  0
 29 77  1  0
 30 78  1  0
 30 79  1  0
 32 80  1  0
 32 81  1  0
 32 82  1  0
M  END
>  <meeko>  (17) 
{"is_sidechain": [false], "intermolecular_energy": 2.731, "internal_energy": -0.839}

$$$$
EPH_relaxed_0001_pdb2pqr_Repair_356_r2_0001_out
     RDKit          3D

 82 86  0  0  0  0  0  0  0  0999 V2000
    2.2660    9.6930   -2.9360 C   0  0  0  0  0  0  0  0  0  0  0  0
    1.8160   10.6520   -4.0410 C   0  0  2  0  0  0  0  0  0  0  0  0
    3.0030   11.1780   -4.8730 C   0  0  0  0  0  0  0  0  0  0  0  0
    2.5980   12.1780   -5.9590 C   0  0  0  0  0  0  0  0  0  0  0  0
    1.5990   13.1740   -5.4520 C   0  0  2  0  0  0  0  0  0  0  0  0
    0.4170   13.2980   -6.2540 O   0  0  0  0  0  0  0  0  0  0  0  0
    1.2580   14.4610   -6.1790 C   0  0  0  0  0  0  0  0  0  0  0  0
    1.9130   14.8230   -7.4750 C   0  0  0  0  0  0  0  0  0  0  0  0
    0.6590   15.5880   -5.3960 C   0  0  0  0  0  0  0  0  0  0  0  0
    1.0470   11.8200   -3.4350 C   0  0  1  0  0  0  0  0  0  0  0  0
   -0.2880   11.3790   -2.7760 C   0  0  0  0  0  0  0  0  0  0  0  0
   -0.5000   12.2920   -1.5410 C   0  0  0  0  0  0  0  0  0  0  0  0
    0.5300   13.4310   -1.7170 C   0  0  1  0  0  0  0  0  0  0  0  0
   -0.1350   14.4230   -2.7210 C   0  0  0  0  0  0  0  0  0  0  0  0
    0.9890   14.1550   -0.4090 C   0  0  2  0  0  0  0  0  0  0  0  0
   -0.1260   14.8900    0.3550 C   0  0  0  0  0  0  0  0  0  0  0  0
   -0.3290   16.3190   -0.0300 C   0  0  0  0  0  0  0  0  0  0  0  0
    0.5340   17.0660   -0.7430 C   0  0  0  0  0  0  0  0  0  0  0  0
    1.9030   16.5110   -1.1560 C   0  0  1  0  0  0  0  0  0  0  0  0
    3.0010   17.5640   -0.8570 C   0  0  0  0  0  0  0  0  0  0  0  0
    2.7040   18.9170   -1.4960 C   0  0  0  0  0  0  0  0  0  0  0  0
    1.3620   19.4640   -1.0150 C   0  0  2  0  0  0  0  0  0  0  0  0
    1.4600   19.7660    0.3800 O   0  0  0  0  0  0  0  0  0  0  0  0
    0.1800   18.4840   -1.2560 C   0  0  0  0  0  0  0  0  0  0  0  0
   -0.1200   18.3920   -2.7720 C   0  0  0  0  0  0  0  0  0  0  0  0
   -1.0880   19.0950   -0.6000 C   0  0  0  0  0  0  0  0  0  0  0  0
    2.2670   15.0710   -0.5890 C   0  0  1  0  0  0  0  0  0  0  0  0
    2.9210   15.2050    0.8200 C   0  0  0  0  0  0  0  0  0  0  0  0
    3.3500   14.4100   -1.5210 C   0  0  0  0  0  0  0  0  0  0  0  0
    2.8310   13.6080   -2.7300 C   0  0  0  0  0  0  0  0  0  0  0  0
    1.7410   12.6190   -2.3040 C   0  0  2  0  0  0  0  0  0  0  0  0
    2.3870   11.5950   -1.3100 C   0  0  0  0  0  0  0  0  0  0  0  0
    2.0558   10.1410   -1.9536 H   0  0  0  0  0  0  0  0  0  0  0  0
    1.7197    8.7429   -3.0302 H   0  0  0  0  0  0  0  0  0  0  0  0
    3.3459    9.5059   -3.0302 H   0  0  0  0  0  0  0  0  0  0  0  0
    1.1604   10.0881   -4.7209 H   0  0  0  0  0  0  0  0  0  0  0  0
    3.7120   11.6724   -4.1926 H   0  0  0  0  0  0  0  0  0  0  0  0
    3.4468   10.3108   -5.3839 H   0  0  0  0  0  0  0  0  0  0  0  0
    3.4948   12.7153   -6.3010 H   0  0  0  0  0  0  0  0  0  0  0  0
    2.1347   11.6180   -6.7847 H   0  0  0  0  0  0  0  0  0  0  0  0
    1.8885   12.9694   -4.4107 H   0  0  0  0  0  0  0  0  0  0  0  0
    2.8595   15.3461   -7.2739 H   0  0  0  0  0  0  0  0  0  0  0  0
    2.1149   13.9084   -8.0518 H   0  0  0  0  0  0  0  0  0  0  0  0
    1.2460   15.4806   -8.0518 H   0  0  0  0  0  0  0  0  0  0  0  0
    0.7668   15.3851   -4.3203 H   0  0  0  0  0  0  0  0  0  0  0  0
    1.1781   16.5249   -5.6463 H   0  0  0  0  0  0  0  0  0  0  0  0
   -0.4080   15.6819   -5.6463 H   0  0  0  0  0  0  0  0  0  0  0  0
    0.9373   12.4514   -4.3291 H   0  0  0  0  0  0  0  0  0  0  0  0
   -1.1195   11.5023   -3.4855 H   0  0  0  0  0  0  0  0  0  0  0  0
   -0.2526   10.3195   -2.4825 H   0  0  0  0  0  0  0  0  0  0  0  0
   -1.5241   12.6933   -1.5260 H   0  0  0  0  0  0  0  0  0  0  0  0
   -0.3649   11.7500   -0.5934 H   0  0  0  0  0  0  0  0  0  0  0  0
   -0.6629   15.2105   -2.1631 H   0  0  0  0  0  0  0  0  0  0  0  0
    0.6405   14.8791   -3.3539 H   0  0  0  0  0  0  0  0  0  0  0  0
   -0.8515   13.8789   -3.3539 H   0  0  0  0  0  0  0  0  0  0  0  0
    1.2876   13.3138    0.2338 H   0  0  0  0  0  0  0  0  0  0  0  0
   -1.0697   14.3532    0.1784 H   0  0  0  0  0  0  0  0  0  0  0  0
    0.1844   14.9005    1.4102 H   0  0  0  0  0  0  0  0  0  0  0  0
   -1.2622   16.8012    0.2967 H   0  0  0  0  0  0  0  0  0  0  0  0
    1.8439   16.3320   -2.2397 H   0  0  0  0  0  0  0  0  0  0  0  0
    3.0744   17.6972    0.2324 H   0  0  0  0  0  0  0  0  0  0  0  0
    3.9443   17.1930   -1.2842 H   0  0  0  0  0  0  0  0  0  0  0  0
    3.5000   19.6260   -1.2246 H   0  0  0  0  0  0  0  0  0  0  0  0
    2.6601   18.7881   -2.5875 H   0  0  0  0  0  0  0  0  0  0  0  0
    1.1447   20.3684   -1.6023 H   0  0  0  0  0  0  0  0  0  0  0  0
    1.3640   18.9320    0.8690 H   0  0  0  0  0  0  0  0  0  0  0  0
   -1.1620   18.0725   -2.9208 H   0  0  0  0  0  0  0  0  0  0  0  0
    0.0311   19.3778   -3.2362 H   0  0  0  0  0  0  0  0  0  0  0  0
    0.5577   17.6604   -3.2362 H   0  0  0  0  0  0  0  0  0  0  0  0
   -0.9927   19.0491    0.4949 H   0  0  0  0  0  0  0  0  0  0  0  0
   -1.1949   20.1435   -0.9151 H   0  0  0  0  0  0  0  0  0  0  0  0
   -1.9746   18.5252   -0.9151 H   0  0  0  0  0  0  0  0  0  0  0  0
    2.1567   15.0484    1.5954 H   0  0  0  0  0  0  0  0  0  0  0  0
    3.7142   14.4507    0.9293 H   0  0  0  0  0  0  0  0  0  0  0  0
    3.3536   16.2104    0.9293 H   0  0  0  0  0  0  0  0  0  0  0  0
    3.9927   15.2150   -1.9069 H   0  0  0  0  0  0  0  0  0  0  0  0
    3.8642   13.6731   -0.8865 H   0  0  0  0  0  0  0  0  0  0  0  0
    2.4146   14.3049   -3.4723 H   0  0  0  0  0  0  0  0  0  0  0  0
    3.6695   13.0418   -3.1618 H   0  0  0  0  0  0  0  0  0  0  0  0
    2.1871   11.9119   -0.2758 H   0  0  0  0  0  0  0  0  0  0  0  0
    1.9541   10.5978   -1.4781 H   0  0  0  0  0  0  0  0  0  0  0  0
    3.4734   11.5562   -1.4781 H   0  0  0  0  0  0  0  0  0  0  0  0
  1  2  1  0
  2  3  1  0
  3  4  1  0
  4  5  1  0
  5  6  1  0
  6  7  1  0
  7  8  1  0
  7  9  1  0
  2 10  1  0
 10 11  1  0
 11 12  1  0
 12 13  1  0
 13 14  1  6
 13 15  1  0
 15 16  1  0
 16 17  1  0
 17 18  2  0
 18 19  1  0
 19 20  1  0
 20 21  1  0
 21 22  1  0
 22 23  1  0
 22 24  1  0
 24 25  1  0
 24 26  1  0
 19 27  1  0
 27 28  1  1
 27 29  1  0
 29 30  1  0
 30 31  1  0
 31 32  1  1
  7  5  1  0
 31 10  1  0
 31 13  1  0
 27 15  1  0
 24 18  1  0
  1 33  1  0
  1 34  1  0
  1 35  1  0
  2 36  1  6
  3 37  1  0
  3 38  1  0
  4 39  1  0
  4 40  1  0
  5 41  1  1
  8 42  1  0
  8 43  1  0
  8 44  1  0
  9 45  1  0
  9 46  1  0
  9 47  1  0
 10 48  1  6
 11 49  1  0
 11 50  1  0
 12 51  1  0
 12 52  1  0
 14 53  1  0
 14 54  1  0
 14 55  1  0
 15 56  1  1
 16 57  1  0
 16 58  1  0
 17 59  1  0
 19 60  1  6
 20 61  1  0
 20 62  1  0
 21 63  1  0
 21 64  1  0
 22 65  1  6
 23 66  1  0
 25 67  1  0
 25 68  1  0
 25 69  1  0
 26 70  1  0
 26 71  1  0
 26 72  1  0
 28 73  1  0
 28 74  1  0
 28 75  1  0
 29 76  1  0
 29 77  1  0
 30 78  1  0
 30 79  1  0
 32 80  1  0
 32 81  1  0
 32 82  1  0
M  END
>  <meeko>  (18) 
{"is_sidechain": [false], "intermolecular_energy": 2.731, "internal_energy": -0.839}

$$$$
EPH_relaxed_0001_pdb2pqr_Repair_356_r2_0001_out
     RDKit          3D

 82 86  0  0  0  0  0  0  0  0999 V2000
    0.7730    9.9270   -5.2550 C   0  0  0  0  0  0  0  0  0  0  0  0
    1.1330   11.3970   -5.0230 C   0  0  2  0  0  0  0  0  0  0  0  0
    2.6390   11.6640   -5.2200 C   0  0  0  0  0  0  0  0  0  0  0  0
    3.5260   10.4630   -4.8800 C   0  0  0  0  0  0  0  0  0  0  0  0
    4.6870   10.8570   -4.0190 C   0  0  2  0  0  0  0  0  0  0  0  0
    5.3200   12.0880   -4.3940 O   0  0  0  0  0  0  0  0  0  0  0  0
    6.1210   10.9010   -4.5160 C   0  0  0  0  0  0  0  0  0  0  0  0
    6.4690   10.5440   -5.9270 C   0  0  0  0  0  0  0  0  0  0  0  0
    7.2280   10.8160   -3.5130 C   0  0  0  0  0  0  0  0  0  0  0  0
    0.7080   11.8220   -3.6230 C   0  0  1  0  0  0  0  0  0  0  0  0
    1.0430   10.7550   -2.5470 C   0  0  0  0  0  0  0  0  0  0  0  0
    1.4170   11.5260   -1.2550 C   0  0  0  0  0  0  0  0  0  0  0  0
    0.9680   12.9810   -1.5240 C   0  0  1  0  0  0  0  0  0  0  0  0
   -0.5650   12.9880   -1.2350 C   0  0  0  0  0  0  0  0  0  0  0  0
    1.7130   14.0950   -0.7180 C   0  0  2  0  0  0  0  0  0  0  0  0
    1.5420   14.0190    0.8090 C   0  0  0  0  0  0  0  0  0  0  0  0
    0.3860   14.7860    1.3600 C   0  0  0  0  0  0  0  0  0  0  0  0
   -0.3100   15.7320    0.7020 C   0  0  0  0  0  0  0  0  0  0  0  0
    0.1100   16.1850   -0.7020 C   0  0  1  0  0  0  0  0  0  0  0  0
    0.0960   17.7350   -0.7720 C   0  0  0  0  0  0  0  0  0  0  0  0
   -1.2430   18.3280   -0.3430 C   0  0  0  0  0  0  0  0  0  0  0  0
   -1.5980   17.9020    1.0790 C   0  0  2  0  0  0  0  0  0  0  0  0
   -0.6640   18.4960    1.9850 O   0  0  0  0  0  0  0  0  0  0  0  0
   -1.6060   16.3600    1.2730 C   0  0  0  0  0  0  0  0  0  0  0  0
   -2.8140   15.7460    0.5220 C   0  0  0  0  0  0  0  0  0  0  0  0
   -1.8380   16.0690    2.7800 C   0  0  0  0  0  0  0  0  0  0  0  0
    1.4630   15.5620   -1.2560 C   0  0  1  0  0  0  0  0  0  0  0  0
    2.6760   16.4210   -0.7860 C   0  0  0  0  0  0  0  0  0  0  0  0
    1.4530   15.6290   -2.8290 C   0  0  0  0  0  0  0  0  0  0  0  0
    0.8100   14.4420   -3.5710 C   0  0  0  0  0  0  0  0  0  0  0  0
    1.3490   13.1090   -3.0450 C   0  0  2  0  0  0  0  0  0  0  0  0
    2.8860   13.0630   -3.3420 C   0  0  0  0  0  0  0  0  0  0  0  0
    0.6494    9.4223   -4.2854 H   0  0  0  0  0  0  0  0  0  0  0  0
   -0.1669    9.8649   -5.8231 H   0  0  0  0  0  0  0  0  0  0  0  0
    1.5778    9.4376   -5.8231 H   0  0  0  0  0  0  0  0  0  0  0  0
    0.5910   11.9923   -5.7726 H   0  0  0  0  0  0  0  0  0  0  0  0
    2.8091   11.9346   -6.2725 H   0  0  0  0  0  0  0  0  0  0  0  0
    2.9153   12.4740   -4.5289 H   0  0  0  0  0  0  0  0  0  0  0  0
    2.9230    9.7148   -4.3446 H   0  0  0  0  0  0  0  0  0  0  0  0
    3.9210   10.0516   -5.8206 H   0  0  0  0  0  0  0  0  0  0  0  0
    4.2251   10.3850   -3.1393 H   0  0  0  0  0  0  0  0  0  0  0  0
    7.2368    9.7563   -5.9272 H   0  0  0  0  0  0  0  0  0  0  0  0
    5.5698   10.1797   -6.4455 H   0  0  0  0  0  0  0  0  0  0  0  0
    6.8561   11.4336   -6.4455 H   0  0  0  0  0  0  0  0  0  0  0  0
    6.8061   10.8484   -2.4976 H   0  0  0  0  0  0  0  0  0  0  0  0
    7.7771    9.8730   -3.6520 H   0  0  0  0  0  0  0  0  0  0  0  0
    7.9146   11.6641   -3.6520 H   0  0  0  0  0  0  0  0  0  0  0  0
   -0.3661   11.9828   -3.7973 H   0  0  0  0  0  0  0  0  0  0  0  0
    0.1688   10.1126   -2.3653 H   0  0  0  0  0  0  0  0  0  0  0  0
    1.8705   10.1088   -2.8753 H   0  0  0  0  0  0  0  0  0  0  0  0
    0.8849   11.1098   -0.3869 H   0  0  0  0  0  0  0  0  0  0  0  0
    2.4903   11.4570   -1.0244 H   0  0  0  0  0  0  0  0  0  0  0  0
   -0.7332   12.9888   -0.1479 H   0  0  0  0  0  0  0  0  0  0  0  0
   -1.0173   13.8882   -1.6766 H   0  0  0  0  0  0  0  0  0  0  0  0
   -1.0255   12.0919   -1.6766 H   0  0  0  0  0  0  0  0  0  0  0  0
    2.7700   13.8606   -0.9125 H   0  0  0  0  0  0  0  0  0  0  0  0
    1.4108   12.9621    1.0842 H   0  0  0  0  0  0  0  0  0  0  0  0
    2.4444   14.4775    1.2395 H   0  0  0  0  0  0  0  0  0  0  0  0
    0.0767   14.5590    2.3909 H   0  0  0  0  0  0  0  0  0  0  0  0
   -0.6416   15.7731   -1.3915 H   0  0  0  0  0  0  0  0  0  0  0  0
    0.8828   18.1250   -0.1096 H   0  0  0  0  0  0  0  0  0  0  0  0
    0.2688   18.0235   -1.8193 H   0  0  0  0  0  0  0  0  0  0  0  0
   -1.1807   19.4254   -0.3850 H   0  0  0  0  0  0  0  0  0  0  0  0
   -2.0241   17.9606   -1.0248 H   0  0  0  0  0  0  0  0  0  0  0  0
   -2.6223   18.2485    1.2808 H   0  0  0  0  0  0  0  0  0  0  0  0
   -0.6510   17.9550    2.7920 H   0  0  0  0  0  0  0  0  0  0  0  0
   -3.5480   15.3729    1.2514 H   0  0  0  0  0  0  0  0  0  0  0  0
   -3.2828   16.5152   -0.1093 H   0  0  0  0  0  0  0  0  0  0  0  0
   -2.4689   14.9139   -0.1093 H   0  0  0  0  0  0  0  0  0  0  0  0
   -1.2652   16.7875    3.3846 H   0  0  0  0  0  0  0  0  0  0  0  0
   -2.9089   16.1665    3.0117 H   0  0  0  0  0  0  0  0  0  0  0  0
   -1.5044   15.0467    3.0117 H   0  0  0  0  0  0  0  0  0  0  0  0
    2.7061   16.4423    0.3134 H   0  0  0  0  0  0  0  0  0  0  0  0
    3.6080   15.9804   -1.1699 H   0  0  0  0  0  0  0  0  0  0  0  0
    2.5698   17.4464   -1.1699 H   0  0  0  0  0  0  0  0  0  0  0  0
    0.9068   16.5384   -3.1198 H   0  0  0  0  0  0  0  0  0  0  0  0
    2.5125   15.6131   -3.1244 H   0  0  0  0  0  0  0  0  0  0  0  0
   -0.2796   14.4729   -3.4231 H   0  0  0  0  0  0  0  0  0  0  0  0
    1.0562   14.5222   -4.6401 H   0  0  0  0  0  0  0  0  0  0  0  0
    3.4424   13.0463   -2.3933 H   0  0  0  0  0  0  0  0  0  0  0  0
    3.1207   12.1574   -3.9207 H   0  0  0  0  0  0  0  0  0  0  0  0
    3.1744   13.9529   -3.9207 H   0  0  0  0  0  0  0  0  0  0  0  0
  1  2  1  0
  2  3  1  0
  3  4  1  0
  4  5  1  0
  5  6  1  0
  6  7  1  0
  7  8  1  0
  7  9  1  0
  2 10  1  0
 10 11  1  0
 11 12  1  0
 12 13  1  0
 13 14  1  6
 13 15  1  0
 15 16  1  0
 16 17  1  0
 17 18  2  0
 18 19  1  0
 19 20  1  0
 20 21  1  0
 21 22  1  0
 22 23  1  0
 22 24  1  0
 24 25  1  0
 24 26  1  0
 19 27  1  0
 27 28  1  1
 27 29  1  0
 29 30  1  0
 30 31  1  0
 31 32  1  1
  7  5  1  0
 31 10  1  0
 31 13  1  0
 27 15  1  0
 24 18  1  0
  1 33  1  0
  1 34  1  0
  1 35  1  0
  2 36  1  6
  3 37  1  0
  3 38  1  0
  4 39  1  0
  4 40  1  0
  5 41  1  1
  8 42  1  0
  8 43  1  0
  8 44  1  0
  9 45  1  0
  9 46  1  0
  9 47  1  0
 10 48  1  6
 11 49  1  0
 11 50  1  0
 12 51  1  0
 12 52  1  0
 14 53  1  0
 14 54  1  0
 14 55  1  0
 15 56  1  1
 16 57  1  0
 16 58  1  0
 17 59  1  0
 19 60  1  6
 20 61  1  0
 20 62  1  0
 21 63  1  0
 21 64  1  0
 22 65  1  1
 23 66  1  0
 25 67  1  0
 25 68  1  0
 25 69  1  0
 26 70  1  0
 26 71  1  0
 26 72  1  0
 28 73  1  0
 28 74  1  0
 28 75  1  0
 29 76  1  0
 29 77  1  0
 30 78  1  0
 30 79  1  0
 32 80  1  0
 32 81  1  0
 32 82  1  0
M  END
>  <meeko>  (19) 
{"is_sidechain": [false], "intermolecular_energy": 2.731, "internal_energy": -0.839}

$$$$
