EPH_relaxed_0001_pdb2pqr_Repair_4_r2_0001_out
     RDKit          3D

 82 86  0  0  0  0  0  0  0  0999 V2000
   -1.5940    8.5580   -1.8060 C   0  0  0  0  0  0  0  0  0  0  0  0
   -2.0010    9.1430   -0.4510 C   0  0  2  0  0  0  0  0  0  0  0  0
   -3.4890    9.5450   -0.4160 C   0  0  0  0  0  0  0  0  0  0  0  0
   -4.4460    8.3560   -0.2930 C   0  0  0  0  0  0  0  0  0  0  0  0
   -5.0800    8.0170   -1.6070 C   0  0  2  0  0  0  0  0  0  0  0  0
   -6.3430    8.6520   -1.8450 O   0  0  0  0  0  0  0  0  0  0  0  0
   -6.3640    7.2190   -1.7360 C   0  0  0  0  0  0  0  0  0  0  0  0
   -7.0910    6.7110   -0.5300 C   0  0  0  0  0  0  0  0  0  0  0  0
   -6.6460    6.5200   -3.0290 C   0  0  0  0  0  0  0  0  0  0  0  0
   -1.1270   10.3470   -0.1210 C   0  0  1  0  0  0  0  0  0  0  0  0
   -0.0520   10.0290    0.9520 C   0  0  0  0  0  0  0  0  0  0  0  0
    1.2040   10.8600    0.5860 C   0  0  0  0  0  0  0  0  0  0  0  0
    0.7090   11.8690   -0.4760 C   0  0  1  0  0  0  0  0  0  0  0  0
    0.0350   13.0150    0.3430 C   0  0  0  0  0  0  0  0  0  0  0  0
    1.7900   12.4230   -1.4600 C   0  0  2  0  0  0  0  0  0  0  0  0
    2.9210   13.2310   -0.8010 C   0  0  0  0  0  0  0  0  0  0  0  0
    2.6750   14.6990   -0.6900 C   0  0  0  0  0  0  0  0  0  0  0  0
    1.7250   15.3850   -1.3520 C   0  0  0  0  0  0  0  0  0  0  0  0
    0.8370   14.6940   -2.3950 C   0  0  1  0  0  0  0  0  0  0  0  0
    0.7580   15.5720   -3.6720 C   0  0  0  0  0  0  0  0  0  0  0  0
    0.3060   16.9980   -3.3740 C   0  0  0  0  0  0  0  0  0  0  0  0
    1.2470   17.6720   -2.3780 C   0  0  2  0  0  0  0  0  0  0  0  0
    2.5250   17.8470   -2.9970 O   0  0  0  0  0  0  0  0  0  0  0  0
    1.4130   16.8730   -1.0550 C   0  0  0  0  0  0  0  0  0  0  0  0
    0.0980   16.9400   -0.2390 C   0  0  0  0  0  0  0  0  0  0  0  0
    2.4930   17.5860   -0.1980 C   0  0  0  0  0  0  0  0  0  0  0  0
    1.1950   13.1800   -2.7170 C   0  0  1  0  0  0  0  0  0  0  0  0
    2.2840   13.1160   -3.8310 C   0  0  0  0  0  0  0  0  0  0  0  0
   -0.0790   12.4620   -3.3000 C   0  0  0  0  0  0  0  0  0  0  0  0
   -1.0480   11.8310   -2.2810 C   0  0  0  0  0  0  0  0  0  0  0  0
   -0.2930   10.9580   -1.2740 C   0  0  2  0  0  0  0  0  0  0  0  0
    0.3770    9.7840   -2.0660 C   0  0  0  0  0  0  0  0  0  0  0  0
   -0.9723    7.6644   -1.6478 H   0  0  0  0  0  0  0  0  0  0  0  0
   -2.4959    8.2817   -2.3719 H   0  0  0  0  0  0  0  0  0  0  0  0
   -1.0214    9.3076   -2.3719 H   0  0  0  0  0  0  0  0  0  0  0  0
   -1.8535    8.3589    0.3063 H   0  0  0  0  0  0  0  0  0  0  0  0
   -3.6488   10.2098    0.4457 H   0  0  0  0  0  0  0  0  0  0  0  0
   -3.7110   10.0381   -1.3739 H   0  0  0  0  0  0  0  0  0  0  0  0
   -3.8840    7.4819    0.0677 H   0  0  0  0  0  0  0  0  0  0  0  0
   -5.2443    8.6299    0.4124 H   0  0  0  0  0  0  0  0  0  0  0  0
   -4.0932    7.9085   -2.0809 H   0  0  0  0  0  0  0  0  0  0  0  0
   -6.5842    7.0651    0.3798 H   0  0  0  0  0  0  0  0  0  0  0  0
   -8.1259    7.0835   -0.5418 H   0  0  0  0  0  0  0  0  0  0  0  0
   -7.0971    5.6111   -0.5418 H   0  0  0  0  0  0  0  0  0  0  0  0
   -7.0503    5.5179   -2.8235 H   0  0  0  0  0  0  0  0  0  0  0  0
   -7.3804    7.1002   -3.6069 H   0  0  0  0  0  0  0  0  0  0  0  0
   -5.7146    6.4282   -3.6069 H   0  0  0  0  0  0  0  0  0  0  0  0
   -1.9046   11.0568    0.1977 H   0  0  0  0  0  0  0  0  0  0  0  0
   -0.4170   10.3135    1.9499 H   0  0  0  0  0  0  0  0  0  0  0  0
    0.1783    8.9536    0.9740 H   0  0  0  0  0  0  0  0  0  0  0  0
    1.5925   11.3864    1.4703 H   0  0  0  0  0  0  0  0  0  0  0  0
    2.0257   10.2312    0.2126 H   0  0  0  0  0  0  0  0  0  0  0  0
    0.1525   12.8152    1.4183 H   0  0  0  0  0  0  0  0  0  0  0  0
    0.5130   13.9738    0.0938 H   0  0  0  0  0  0  0  0  0  0  0  0
   -1.0353   13.0632    0.0938 H   0  0  0  0  0  0  0  0  0  0  0  0
    2.2611   11.5023   -1.8346 H   0  0  0  0  0  0  0  0  0  0  0  0
    3.0753   12.8346    0.2134 H   0  0  0  0  0  0  0  0  0  0  0  0
    3.7973   13.1181   -1.4563 H   0  0  0  0  0  0  0  0  0  0  0  0
    3.3252   15.2684   -0.0095 H   0  0  0  0  0  0  0  0  0  0  0  0
   -0.1598   14.6103   -1.9374 H   0  0  0  0  0  0  0  0  0  0  0  0
    1.7540   15.6078   -4.1376 H   0  0  0  0  0  0  0  0  0  0  0  0
    0.0135   15.1190   -4.3432 H   0  0  0  0  0  0  0  0  0  0  0  0
    0.2982   17.5761   -4.3098 H   0  0  0  0  0  0  0  0  0  0  0  0
   -0.7022   16.9623   -2.9355 H   0  0  0  0  0  0  0  0  0  0  0  0
    0.8010   18.6401   -2.1063 H   0  0  0  0  0  0  0  0  0  0  0  0
    2.5620   18.7550   -3.3440 H   0  0  0  0  0  0  0  0  0  0  0  0
    0.3323   16.9281    0.8357 H   0  0  0  0  0  0  0  0  0  0  0  0
   -0.4404   17.8667   -0.4866 H   0  0  0  0  0  0  0  0  0  0  0  0
   -0.5318   16.0728   -0.4866 H   0  0  0  0  0  0  0  0  0  0  0  0
    2.2703   17.4389    0.8691 H   0  0  0  0  0  0  0  0  0  0  0  0
    3.4819   17.1626   -0.4279 H   0  0  0  0  0  0  0  0  0  0  0  0
    2.4922   18.6617   -0.4279 H   0  0  0  0  0  0  0  0  0  0  0  0
    3.2798   13.0575   -3.3674 H   0  0  0  0  0  0  0  0  0  0  0  0
    2.1176   12.2261   -4.4558 H   0  0  0  0  0  0  0  0  0  0  0  0
    2.2229   14.0193   -4.4558 H   0  0  0  0  0  0  0  0  0  0  0  0
   -0.6443   13.2063   -3.8801 H   0  0  0  0  0  0  0  0  0  0  0  0
    0.3101   11.6179   -3.8883 H   0  0  0  0  0  0  0  0  0  0  0  0
   -1.5731   12.6321   -1.7401 H   0  0  0  0  0  0  0  0  0  0  0  0
   -1.7655   11.1987   -2.8245 H   0  0  0  0  0  0  0  0  0  0  0  0
    0.7937    9.0539   -1.3565 H   0  0  0  0  0  0  0  0  0  0  0  0
   -0.3762    9.2917   -2.6988 H   0  0  0  0  0  0  0  0  0  0  0  0
    1.1839   10.1821   -2.6988 H   0  0  0  0  0  0  0  0  0  0  0  0
  1  2  1  0
  2  3  1  0
  3  4  1  0
  4  5  1  0
  5  6  1  0
  6  7  1  0
  7  8  1  0
  7  9  1  0
  2 10  1  0
 10 11  1  0
 11 12  1  0
 12 13  1  0
 13 14  1  1
 13 15  1  0
 15 16  1  0
 16 17  1  0
 17 18  2  0
 18 19  1  0
 19 20  1  0
 20 21  1  0
 21 22  1  0
 22 23  1  0
 22 24  1  0
 24 25  1  0
 24 26  1  0
 19 27  1  0
 27 28  1  6
 27 29  1  0
 29 30  1  0
 30 31  1  0
 31 32  1  6
  7  5  1  0
 31 10  1  0
 31 13  1  0
 27 15  1  0
 24 18  1  0
  1 33  1  0
  1 34  1  0
  1 35  1  0
  2 36  1  1
  3 37  1  0
  3 38  1  0
  4 39  1  0
  4 40  1  0
  5 41  1  6
  8 42  1  0
  8 43  1  0
  8 44  1  0
  9 45  1  0
  9 46  1  0
  9 47  1  0
 10 48  1  1
 11 49  1  0
 11 50  1  0
 12 51  1  0
 12 52  1  0
 14 53  1  0
 14 54  1  0
 14 55  1  0
 15 56  1  6
 16 57  1  0
 16 58  1  0
 17 59  1  0
 19 60  1  1
 20 61  1  0
 20 62  1  0
 21 63  1  0
 21 64  1  0
 22 65  1  1
 23 66  1  0
 25 67  1  0
 25 68  1  0
 25 69  1  0
 26 70  1  0
 26 71  1  0
 26 72  1  0
 28 73  1  0
 28 74  1  0
 28 75  1  0
 29 76  1  0
 29 77  1  0
 30 78  1  0
 30 79  1  0
 32 80  1  0
 32 81  1  0
 32 82  1  0
M  END
>  <meeko>  (1) 
{"is_sidechain": [false], "intermolecular_energy": 2.731, "internal_energy": -0.839}

$$$$
EPH_relaxed_0001_pdb2pqr_Repair_4_r2_0001_out
     RDKit          3D

 82 86  0  0  0  0  0  0  0  0999 V2000
    1.9740   19.6420   -0.6090 C   0  0  0  0  0  0  0  0  0  0  0  0
    2.3750   18.4190    0.2200 C   0  0  2  0  0  0  0  0  0  0  0  0
    3.8240   17.9760   -0.0640 C   0  0  0  0  0  0  0  0  0  0  0  0
    4.7760   18.1920    1.1170 C   0  0  0  0  0  0  0  0  0  0  0  0
    4.1400   19.0130    2.1980 C   0  0  2  0  0  0  0  0  0  0  0  0
    4.8970   20.1620    2.5990 O   0  0  0  0  0  0  0  0  0  0  0  0
    4.7150   19.1430    3.5960 C   0  0  0  0  0  0  0  0  0  0  0  0
    5.9780   18.4440    3.9890 C   0  0  0  0  0  0  0  0  0  0  0  0
    3.8000   19.5470    4.7100 C   0  0  0  0  0  0  0  0  0  0  0  0
    1.4150   17.2670   -0.0550 C   0  0  1  0  0  0  0  0  0  0  0  0
    0.1340   17.7230   -0.8040 C   0  0  0  0  0  0  0  0  0  0  0  0
   -0.2650   16.5650   -1.7540 C   0  0  0  0  0  0  0  0  0  0  0  0
    0.5910   15.3650   -1.2870 C   0  0  1  0  0  0  0  0  0  0  0  0
   -0.1710   14.7840   -0.0540 C   0  0  0  0  0  0  0  0  0  0  0  0
    0.8800   14.2630   -2.3580 C   0  0  2  0  0  0  0  0  0  0  0  0
   -0.3630   13.5360   -2.8990 C   0  0  0  0  0  0  0  0  0  0  0  0
   -0.7600   12.3070   -2.1500 C   0  0  0  0  0  0  0  0  0  0  0  0
    0.0120   11.6460   -1.2670 C   0  0  0  0  0  0  0  0  0  0  0  0
    1.4650   12.0720   -1.0180 C   0  0  1  0  0  0  0  0  0  0  0  0
    2.3800   10.8190   -1.0310 C   0  0  0  0  0  0  0  0  0  0  0  0
    1.9130    9.7420   -0.0570 C   0  0  0  0  0  0  0  0  0  0  0  0
    0.4850    9.3040   -0.3740 C   0  0  2  0  0  0  0  0  0  0  0  0
    0.4770    8.6370   -1.6400 O   0  0  0  0  0  0  0  0  0  0  0  0
   -0.5270   10.4840   -0.3980 C   0  0  0  0  0  0  0  0  0  0  0  0
   -0.7440   11.0130    1.0420 C   0  0  0  0  0  0  0  0  0  0  0  0
   -1.8980    9.9270   -0.8660 C   0  0  0  0  0  0  0  0  0  0  0  0
    2.0140   13.2390   -1.9450 C   0  0  1  0  0  0  0  0  0  0  0  0
    2.5810   12.6440   -3.2710 C   0  0  0  0  0  0  0  0  0  0  0  0
    3.2230   13.9440   -1.2230 C   0  0  0  0  0  0  0  0  0  0  0  0
    2.8810   15.1040   -0.2680 C   0  0  0  0  0  0  0  0  0  0  0  0
    1.9340   16.1040   -0.9370 C   0  0  2  0  0  0  0  0  0  0  0  0
    2.6820   16.7210   -2.1680 C   0  0  0  0  0  0  0  0  0  0  0  0
    1.7030   20.4685    0.0643 H   0  0  0  0  0  0  0  0  0  0  0  0
    2.8189   19.9479   -1.2435 H   0  0  0  0  0  0  0  0  0  0  0  0
    1.1120   19.3883   -1.2435 H   0  0  0  0  0  0  0  0  0  0  0  0
    2.3184   18.7048    1.2807 H   0  0  0  0  0  0  0  0  0  0  0  0
    3.8172   16.9046   -0.3133 H   0  0  0  0  0  0  0  0  0  0  0  0
    4.1937   18.5971   -0.8931 H   0  0  0  0  0  0  0  0  0  0  0  0
    5.0576   17.2129    1.5318 H   0  0  0  0  0  0  0  0  0  0  0  0
    5.6605   18.7335    0.7502 H   0  0  0  0  0  0  0  0  0  0  0  0
    3.1338   18.7563    1.8352 H   0  0  0  0  0  0  0  0  0  0  0  0
    6.0492   18.4046    5.0860 H   0  0  0  0  0  0  0  0  0  0  0  0
    5.9718   17.4209    3.5850 H   0  0  0  0  0  0  0  0  0  0  0  0
    6.8416   18.9925    3.5850 H   0  0  0  0  0  0  0  0  0  0  0  0
    4.2818   19.3343    5.6757 H   0  0  0  0  0  0  0  0  0  0  0  0
    3.5857   20.6234    4.6364 H   0  0  0  0  0  0  0  0  0  0  0  0
    2.8602   18.9802    4.6364 H   0  0  0  0  0  0  0  0  0  0  0  0
    1.2503   16.9144    0.9739 H   0  0  0  0  0  0  0  0  0  0  0  0
   -0.6753   17.9193   -0.0853 H   0  0  0  0  0  0  0  0  0  0  0  0
    0.3147   18.6508   -1.3666 H   0  0  0  0  0  0  0  0  0  0  0  0
   -1.3370   16.3373   -1.6598 H   0  0  0  0  0  0  0  0  0  0  0  0
   -0.0921   16.8144   -2.8113 H   0  0  0  0  0  0  0  0  0  0  0  0
    0.3013   15.1441    0.8719 H   0  0  0  0  0  0  0  0  0  0  0  0
   -1.2201   15.1135   -0.0827 H   0  0  0  0  0  0  0  0  0  0  0  0
   -0.1309   13.6851   -0.0827 H   0  0  0  0  0  0  0  0  0  0  0  0
    1.2720   14.8513   -3.2007 H   0  0  0  0  0  0  0  0  0  0  0  0
   -1.2079   14.2397   -2.8695 H   0  0  0  0  0  0  0  0  0  0  0  0
   -0.1023   13.2024   -3.9143 H   0  0  0  0  0  0  0  0  0  0  0  0
   -1.7682   11.9079   -2.3352 H   0  0  0  0  0  0  0  0  0  0  0  0
    1.4802   12.5354   -0.0205 H   0  0  0  0  0  0  0  0  0  0  0  0
    2.3853   10.3971   -2.0468 H   0  0  0  0  0  0  0  0  0  0  0  0
    3.3856   11.1373   -0.7189 H   0  0  0  0  0  0  0  0  0  0  0  0
    2.5821    8.8722   -0.1337 H   0  0  0  0  0  0  0  0  0  0  0  0
    1.9362   10.1553    0.9621 H   0  0  0  0  0  0  0  0  0  0  0  0
    0.1607    8.6293    0.4320 H   0  0  0  0  0  0  0  0  0  0  0  0
   -0.4240    8.7000   -2.0000 H   0  0  0  0  0  0  0  0  0  0  0  0
   -0.4295   10.2464    1.7655 H   0  0  0  0  0  0  0  0  0  0  0  0
   -0.1473   11.9249    1.1914 H   0  0  0  0  0  0  0  0  0  0  0  0
   -1.8092   11.2432    1.1914 H   0  0  0  0  0  0  0  0  0  0  0  0
   -2.5116    9.6777    0.0123 H   0  0  0  0  0  0  0  0  0  0  0  0
   -2.4151   10.6864   -1.4710 H   0  0  0  0  0  0  0  0  0  0  0  0
   -1.7390    9.0222   -1.4710 H   0  0  0  0  0  0  0  0  0  0  0  0
    3.3224   11.8660   -3.0363 H   0  0  0  0  0  0  0  0  0  0  0  0
    1.7600   12.2036   -3.8558 H   0  0  0  0  0  0  0  0  0  0  0  0
    3.0604   13.4428   -3.8558 H   0  0  0  0  0  0  0  0  0  0  0  0
    3.7546   13.1780   -0.6393 H   0  0  0  0  0  0  0  0  0  0  0  0
    3.8140   14.4006   -2.0306 H   0  0  0  0  0  0  0  0  0  0  0  0
    2.3975   14.6979    0.6327 H   0  0  0  0  0  0  0  0  0  0  0  0
    3.8122   15.6262   -0.0031 H   0  0  0  0  0  0  0  0  0  0  0  0
    3.4855   17.3838   -1.8143 H   0  0  0  0  0  0  0  0  0  0  0  0
    3.1143   15.9133   -2.7769 H   0  0  0  0  0  0  0  0  0  0  0  0
    1.9713   17.2990   -2.7769 H   0  0  0  0  0  0  0  0  0  0  0  0
  1  2  1  0
  2  3  1  0
  3  4  1  0
  4  5  1  0
  5  6  1  0
  6  7  1  0
  7  8  1  0
  7  9  1  0
  2 10  1  0
 10 11  1  0
 11 12  1  0
 12 13  1  0
 13 14  1  1
 13 15  1  0
 15 16  1  0
 16 17  1  0
 17 18  2  0
 18 19  1  0
 19 20  1  0
 20 21  1  0
 21 22  1  0
 22 23  1  0
 22 24  1  0
 24 25  1  0
 24 26  1  0
 19 27  1  0
 27 28  1  6
 27 29  1  0
 29 30  1  0
 30 31  1  0
 31 32  1  6
  7  5  1  0
 31 10  1  0
 31 13  1  0
 27 15  1  0
 24 18  1  0
  1 33  1  0
  1 34  1  0
  1 35  1  0
  2 36  1  1
  3 37  1  0
  3 38  1  0
  4 39  1  0
  4 40  1  0
  5 41  1  1
  8 42  1  0
  8 43  1  0
  8 44  1  0
  9 45  1  0
  9 46  1  0
  9 47  1  0
 10 48  1  1
 11 49  1  0
 11 50  1  0
 12 51  1  0
 12 52  1  0
 14 53  1  0
 14 54  1  0
 14 55  1  0
 15 56  1  6
 16 57  1  0
 16 58  1  0
 17 59  1  0
 19 60  1  1
 20 61  1  0
 20 62  1  0
 21 63  1  0
 21 64  1  0
 22 65  1  1
 23 66  1  0
 25 67  1  0
 25 68  1  0
 25 69  1  0
 26 70  1  0
 26 71  1  0
 26 72  1  0
 28 73  1  0
 28 74  1  0
 28 75  1  0
 29 76  1  0
 29 77  1  0
 30 78  1  0
 30 79  1  0
 32 80  1  0
 32 81  1  0
 32 82  1  0
M  END
>  <meeko>  (2) 
{"is_sidechain": [false], "intermolecular_energy": 2.731, "internal_energy": -0.839}

$$$$
EPH_relaxed_0001_pdb2pqr_Repair_4_r2_0001_out
     RDKit          3D

 82 86  0  0  0  0  0  0  0  0999 V2000
    0.3880   18.4480   -0.0300 C   0  0  0  0  0  0  0  0  0  0  0  0
    1.4820   17.4000   -0.2520 C   0  0  2  0  0  0  0  0  0  0  0  0
    2.6910   17.9770   -1.0160 C   0  0  0  0  0  0  0  0  0  0  0  0
    3.9330   18.1770   -0.1420 C   0  0  0  0  0  0  0  0  0  0  0  0
    3.5720   18.6520    1.2330 C   0  0  2  0  0  0  0  0  0  0  0  0
    3.8310   20.0420    1.4730 O   0  0  0  0  0  0  0  0  0  0  0  0
    4.5960   19.1100    2.2550 C   0  0  0  0  0  0  0  0  0  0  0  0
    6.0600   19.1130    1.9450 C   0  0  0  0  0  0  0  0  0  0  0  0
    4.2200   19.0880    3.7040 C   0  0  0  0  0  0  0  0  0  0  0  0
    0.9120   16.2050   -1.0060 C   0  0  1  0  0  0  0  0  0  0  0  0
    0.7620   16.4740   -2.5270 C   0  0  0  0  0  0  0  0  0  0  0  0
    1.0570   15.1340   -3.2490 C   0  0  0  0  0  0  0  0  0  0  0  0
    1.0390   14.0720   -2.1250 C   0  0  1  0  0  0  0  0  0  0  0  0
   -0.4730   13.7600   -1.8930 C   0  0  0  0  0  0  0  0  0  0  0  0
    1.8630   12.7710   -2.3900 C   0  0  2  0  0  0  0  0  0  0  0  0
    1.3880   11.9300   -3.5870 C   0  0  0  0  0  0  0  0  0  0  0  0
    0.3710   10.8850   -3.2690 C   0  0  0  0  0  0  0  0  0  0  0  0
    0.0670   10.4380   -2.0360 C   0  0  0  0  0  0  0  0  0  0  0  0
    0.8480   10.9250   -0.8080 C   0  0  1  0  0  0  0  0  0  0  0  0
    1.2270    9.7100    0.0790 C   0  0  0  0  0  0  0  0  0  0  0  0
    0.0170    8.8610    0.4560 C   0  0  0  0  0  0  0  0  0  0  0  0
   -0.6990    8.3470   -0.7910 C   0  0  2  0  0  0  0  0  0  0  0  0
    0.1600    7.4250   -1.4690 O   0  0  0  0  0  0  0  0  0  0  0  0
   -1.1200    9.4820   -1.7660 C   0  0  0  0  0  0  0  0  0  0  0  0
   -2.2740   10.3040   -1.1400 C   0  0  0  0  0  0  0  0  0  0  0  0
   -1.7030    8.8210   -3.0450 C   0  0  0  0  0  0  0  0  0  0  0  0
    2.0880   11.8730   -1.1060 C   0  0  1  0  0  0  0  0  0  0  0  0
    3.3610   11.0150   -1.3800 C   0  0  0  0  0  0  0  0  0  0  0  0
    2.3980   12.7310    0.1770 C   0  0  0  0  0  0  0  0  0  0  0  0
    1.6390   14.0640    0.3220 C   0  0  0  0  0  0  0  0  0  0  0  0
    1.7240   14.8860   -0.9670 C   0  0  2  0  0  0  0  0  0  0  0  0
    3.2310   15.2350   -1.2150 C   0  0  0  0  0  0  0  0  0  0  0  0
    0.2346   18.5949    1.0493 H   0  0  0  0  0  0  0  0  0  0  0  0
    0.6930   19.3995   -0.4899 H   0  0  0  0  0  0  0  0  0  0  0  0
   -0.5496   18.1024   -0.4899 H   0  0  0  0  0  0  0  0  0  0  0  0
    1.8387   17.0788    0.7378 H   0  0  0  0  0  0  0  0  0  0  0  0
    2.9482   17.2857   -1.8321 H   0  0  0  0  0  0  0  0  0  0  0  0
    2.3942   18.9698   -1.3850 H   0  0  0  0  0  0  0  0  0  0  0  0
    4.4688   17.2199   -0.0594 H   0  0  0  0  0  0  0  0  0  0  0  0
    4.5654   18.9430   -0.6146 H   0  0  0  0  0  0  0  0  0  0  0  0
    2.7434   17.9308    1.2909 H   0  0  0  0  0  0  0  0  0  0  0  0
    6.6335   19.1142    2.8836 H   0  0  0  0  0  0  0  0  0  0  0  0
    6.3131   18.2154    1.3617 H   0  0  0  0  0  0  0  0  0  0  0  0
    6.3095   20.0117    1.3617 H   0  0  0  0  0  0  0  0  0  0  0  0
    5.1299   19.1412    4.3198 H   0  0  0  0  0  0  0  0  0  0  0  0
    3.5744   19.9499    3.9284 H   0  0  0  0  0  0  0  0  0  0  0  0
    3.6794   18.1567    3.9284 H   0  0  0  0  0  0  0  0  0  0  0  0
   -0.0358   16.0792   -0.4620 H   0  0  0  0  0  0  0  0  0  0  0  0
   -0.2609   16.8092   -2.7534 H   0  0  0  0  0  0  0  0  0  0  0  0
    1.4536   17.2623   -2.8589 H   0  0  0  0  0  0  0  0  0  0  0  0
    0.2819   14.9184   -3.9992 H   0  0  0  0  0  0  0  0  0  0  0  0
    2.0153   15.1535   -3.7887 H   0  0  0  0  0  0  0  0  0  0  0  0
   -0.6772   13.7179   -0.8129 H   0  0  0  0  0  0  0  0  0  0  0  0
   -1.0851   14.5508   -2.3513 H   0  0  0  0  0  0  0  0  0  0  0  0
   -0.7221   12.7915   -2.3513 H   0  0  0  0  0  0  0  0  0  0  0  0
    2.8470   13.1701   -2.6771 H   0  0  0  0  0  0  0  0  0  0  0  0
    0.9520   12.6133   -4.3307 H   0  0  0  0  0  0  0  0  0  0  0  0
    2.2749   11.3905   -3.9506 H   0  0  0  0  0  0  0  0  0  0  0  0
   -0.1768   10.4423   -4.1140 H   0  0  0  0  0  0  0  0  0  0  0  0
    0.1665   11.5909   -0.2584 H   0  0  0  0  0  0  0  0  0  0  0  0
    1.9416    9.0806   -0.4717 H   0  0  0  0  0  0  0  0  0  0  0  0
    1.6646   10.0998    1.0099 H   0  0  0  0  0  0  0  0  0  0  0  0
    0.3524    8.0034    1.0577 H   0  0  0  0  0  0  0  0  0  0  0  0
   -0.6835    9.4841    1.0313 H   0  0  0  0  0  0  0  0  0  0  0  0
   -1.6264    7.8563   -0.4606 H   0  0  0  0  0  0  0  0  0  0  0  0
    0.0330    7.5520   -2.4240 H   0  0  0  0  0  0  0  0  0  0  0  0
   -2.2058   10.2554   -0.0432 H   0  0  0  0  0  0  0  0  0  0  0  0
   -2.1968   11.3517   -1.4661 H   0  0  0  0  0  0  0  0  0  0  0  0
   -3.2389    9.8886   -1.4661 H   0  0  0  0  0  0  0  0  0  0  0  0
   -2.4055    8.0245   -2.7584 H   0  0  0  0  0  0  0  0  0  0  0  0
   -2.2318    9.5793   -3.6412 H   0  0  0  0  0  0  0  0  0  0  0  0
   -0.8846    8.3911   -3.6412 H   0  0  0  0  0  0  0  0  0  0  0  0
    3.8114   10.7114   -0.4235 H   0  0  0  0  0  0  0  0  0  0  0  0
    3.0828   10.1194   -1.9549 H   0  0  0  0  0  0  0  0  0  0  0  0
    4.0867   11.6090   -1.9549 H   0  0  0  0  0  0  0  0  0  0  0  0
    2.1580   12.1142    1.0556 H   0  0  0  0  0  0  0  0  0  0  0  0
    3.4577   13.0118    0.0861 H   0  0  0  0  0  0  0  0  0  0  0  0
    0.5827   13.8541    0.5460 H   0  0  0  0  0  0  0  0  0  0  0  0
    2.0980   14.6421    1.1376 H   0  0  0  0  0  0  0  0  0  0  0  0
    3.7436   15.3537   -0.2490 H   0  0  0  0  0  0  0  0  0  0  0  0
    3.7064   14.4232   -1.7851 H   0  0  0  0  0  0  0  0  0  0  0  0
    3.3011   16.1732   -1.7851 H   0  0  0  0  0  0  0  0  0  0  0  0
  1  2  1  0
  2  3  1  0
  3  4  1  0
  4  5  1  0
  5  6  1  0
  6  7  1  0
  7  8  1  0
  7  9  1  0
  2 10  1  0
 10 11  1  0
 11 12  1  0
 12 13  1  0
 13 14  1  1
 13 15  1  0
 15 16  1  0
 16 17  1  0
 17 18  2  0
 18 19  1  0
 19 20  1  0
 20 21  1  0
 21 22  1  0
 22 23  1  0
 22 24  1  0
 24 25  1  0
 24 26  1  0
 19 27  1  0
 27 28  1  6
 27 29  1  0
 29 30  1  0
 30 31  1  0
 31 32  1  6
  7  5  1  0
 31 10  1  0
 31 13  1  0
 27 15  1  0
 24 18  1  0
  1 33  1  0
  1 34  1  0
  1 35  1  0
  2 36  1  1
  3 37  1  0
  3 38  1  0
  4 39  1  0
  4 40  1  0
  5 41  1  1
  8 42  1  0
  8 43  1  0
  8 44  1  0
  9 45  1  0
  9 46  1  0
  9 47  1  0
 10 48  1  1
 11 49  1  0
 11 50  1  0
 12 51  1  0
 12 52  1  0
 14 53  1  0
 14 54  1  0
 14 55  1  0
 15 56  1  6
 16 57  1  0
 16 58  1  0
 17 59  1  0
 19 60  1  1
 20 61  1  0
 20 62  1  0
 21 63  1  0
 21 64  1  0
 22 65  1  1
 23 66  1  0
 25 67  1  0
 25 68  1  0
 25 69  1  0
 26 70  1  0
 26 71  1  0
 26 72  1  0
 28 73  1  0
 28 74  1  0
 28 75  1  0
 29 76  1  0
 29 77  1  0
 30 78  1  0
 30 79  1  0
 32 80  1  0
 32 81  1  0
 32 82  1  0
M  END
>  <meeko>  (3) 
{"is_sidechain": [false], "intermolecular_energy": 2.731, "internal_energy": -0.839}

$$$$
EPH_relaxed_0001_pdb2pqr_Repair_4_r2_0001_out
     RDKit          3D

 82 86  0  0  0  0  0  0  0  0999 V2000
    2.1470   18.0490   -2.5560 C   0  0  0  0  0  0  0  0  0  0  0  0
    0.6270   17.8900   -2.6430 C   0  0  2  0  0  0  0  0  0  0  0  0
   -0.0800   18.3570   -1.3550 C   0  0  0  0  0  0  0  0  0  0  0  0
    0.6460   17.9470   -0.0700 C   0  0  0  0  0  0  0  0  0  0  0  0
    1.2140   19.1330    0.6490 C   0  0  2  0  0  0  0  0  0  0  0  0
    2.1240   19.9240   -0.1270 O   0  0  0  0  0  0  0  0  0  0  0  0
    2.6790   19.2620    1.0220 C   0  0  0  0  0  0  0  0  0  0  0  0
    3.6670   18.1890    0.6880 C   0  0  0  0  0  0  0  0  0  0  0  0
    3.0550   20.1940    2.1310 C   0  0  0  0  0  0  0  0  0  0  0  0
    0.2720   16.4360   -2.9330 C   0  0  1  0  0  0  0  0  0  0  0  0
    0.3310   16.0980   -4.4470 C   0  0  0  0  0  0  0  0  0  0  0  0
    0.8360   14.6360   -4.5590 C   0  0  0  0  0  0  0  0  0  0  0  0
    0.7330   14.0760   -3.1210 C   0  0  1  0  0  0  0  0  0  0  0  0
   -0.7670   13.6790   -2.9510 C   0  0  0  0  0  0  0  0  0  0  0  0
    1.6880   12.8890   -2.7710 C   0  0  2  0  0  0  0  0  0  0  0  0
    1.4660   11.6090   -3.5950 C   0  0  0  0  0  0  0  0  0  0  0  0
    0.4980   10.6340   -3.0100 C   0  0  0  0  0  0  0  0  0  0  0  0
    0.0500   10.6430   -1.7410 C   0  0  0  0  0  0  0  0  0  0  0  0
    0.5960   11.6490   -0.7190 C   0  0  1  0  0  0  0  0  0  0  0  0
    0.9330   10.9120    0.6040 C   0  0  0  0  0  0  0  0  0  0  0  0
   -0.2490   10.1140    1.1460 C   0  0  0  0  0  0  0  0  0  0  0  0
   -0.7270    9.0850    0.1240 C   0  0  2  0  0  0  0  0  0  0  0  0
    0.2940    8.0970   -0.0470 O   0  0  0  0  0  0  0  0  0  0  0  0
   -1.0860    9.7100   -1.2530 C   0  0  0  0  0  0  0  0  0  0  0  0
   -2.3810   10.5490   -1.1220 C   0  0  0  0  0  0  0  0  0  0  0  0
   -1.4160    8.5510   -2.2310 C   0  0  0  0  0  0  0  0  0  0  0  0
    1.7880   12.5710   -1.2240 C   0  0  1  0  0  0  0  0  0  0  0  0
    3.1510   11.8460   -1.0060 C   0  0  0  0  0  0  0  0  0  0  0  0
    1.8340   13.8770   -0.3470 C   0  0  0  0  0  0  0  0  0  0  0  0
    0.9590   15.0580   -0.8110 C   0  0  0  0  0  0  0  0  0  0  0  0
    1.1710   15.3440   -2.3010 C   0  0  2  0  0  0  0  0  0  0  0  0
    2.6660   15.7690   -2.4980 C   0  0  0  0  0  0  0  0  0  0  0  0
    2.4525   18.0810   -1.4997 H   0  0  0  0  0  0  0  0  0  0  0  0
    2.6338   17.1969   -3.0529 H   0  0  0  0  0  0  0  0  0  0  0  0
    2.4470   18.9834   -3.0529 H   0  0  0  0  0  0  0  0  0  0  0  0
    0.2740   18.5303   -3.4649 H   0  0  0  0  0  0  0  0  0  0  0  0
   -0.1530   19.4543   -1.3774 H   0  0  0  0  0  0  0  0  0  0  0  0
   -1.0665   17.8707   -1.3357 H   0  0  0  0  0  0  0  0  0  0  0  0
   -0.0663   17.4353    0.5939 H   0  0  0  0  0  0  0  0  0  0  0  0
    1.4780   17.2816   -0.3439 H   0  0  0  0  0  0  0  0  0  0  0  0
    0.2905   19.2499    1.2351 H   0  0  0  0  0  0  0  0  0  0  0  0
    4.0659   17.7558    1.6171 H   0  0  0  0  0  0  0  0  0  0  0  0
    3.1700   17.4028    0.1007 H   0  0  0  0  0  0  0  0  0  0  0  0
    4.4914   18.6196    0.1007 H   0  0  0  0  0  0  0  0  0  0  0  0
    2.8596   19.7097    3.0991 H   0  0  0  0  0  0  0  0  0  0  0  0
    4.1238   20.4426    2.0545 H   0  0  0  0  0  0  0  0  0  0  0  0
    2.4580   21.1147    2.0545 H   0  0  0  0  0  0  0  0  0  0  0  0
   -0.7332   16.3992   -2.4877 H   0  0  0  0  0  0  0  0  0  0  0  0
   -0.6697   16.1886   -4.8947 H   0  0  0  0  0  0  0  0  0  0  0  0
    1.0001   16.7892   -4.9805 H   0  0  0  0  0  0  0  0  0  0  0  0
    0.2019   14.0578   -5.2472 H   0  0  0  0  0  0  0  0  0  0  0  0
    1.8599   14.5778   -4.9568 H   0  0  0  0  0  0  0  0  0  0  0  0
   -1.0102   13.6146   -1.8801 H   0  0  0  0  0  0  0  0  0  0  0  0
   -1.4037   14.4395   -3.4265 H   0  0  0  0  0  0  0  0  0  0  0  0
   -0.9442   12.7030   -3.4265 H   0  0  0  0  0  0  0  0  0  0  0  0
    2.6697   13.2771   -3.0803 H   0  0  0  0  0  0  0  0  0  0  0  0
    1.0938   11.9038   -4.5873 H   0  0  0  0  0  0  0  0  0  0  0  0
    2.4373   11.0934   -3.6242 H   0  0  0  0  0  0  0  0  0  0  0  0
    0.1191    9.8415   -3.6722 H   0  0  0  0  0  0  0  0  0  0  0  0
   -0.2113   12.3759   -0.5460 H   0  0  0  0  0  0  0  0  0  0  0  0
    1.7698   10.2220    0.4201 H   0  0  0  0  0  0  0  0  0  0  0  0
    1.1938   11.6736    1.3536 H   0  0  0  0  0  0  0  0  0  0  0  0
    0.0592    9.5929    2.0644 H   0  0  0  0  0  0  0  0  0  0  0  0
   -1.0749   10.8092    1.3571 H   0  0  0  0  0  0  0  0  0  0  0  0
   -1.6522    8.6366    0.5150 H   0  0  0  0  0  0  0  0  0  0  0  0
    0.1580    7.4130    0.6310 H   0  0  0  0  0  0  0  0  0  0  0  0
   -2.6140   10.6999   -0.0576 H   0  0  0  0  0  0  0  0  0  0  0  0
   -2.2361   11.5253   -1.6077 H   0  0  0  0  0  0  0  0  0  0  0  0
   -3.2128   10.0177   -1.6077 H   0  0  0  0  0  0  0  0  0  0  0  0
   -1.6729    7.6486   -1.6568 H   0  0  0  0  0  0  0  0  0  0  0  0
   -2.2683    8.8374   -2.8647 H   0  0  0  0  0  0  0  0  0  0  0  0
   -0.5407    8.3455   -2.8647 H   0  0  0  0  0  0  0  0  0  0  0  0
    3.3435   11.7436    0.0722 H   0  0  0  0  0  0  0  0  0  0  0  0
    3.1138   10.8485   -1.4682 H   0  0  0  0  0  0  0  0  0  0  0  0
    3.9573   12.4344   -1.4682 H   0  0  0  0  0  0  0  0  0  0  0  0
    1.5147   13.6060    0.6702 H   0  0  0  0  0  0  0  0  0  0  0  0
    2.8699   14.2389   -0.4245 H   0  0  0  0  0  0  0  0  0  0  0  0
   -0.0991   14.8116   -0.6387 H   0  0  0  0  0  0  0  0  0  0  0  0
    1.2438   15.9526   -0.2377 H   0  0  0  0  0  0  0  0  0  0  0  0
    3.1413   15.9041   -1.5152 H   0  0  0  0  0  0  0  0  0  0  0  0
    3.1988   14.9867   -3.0585 H   0  0  0  0  0  0  0  0  0  0  0  0
    2.7076   16.7146   -3.0585 H   0  0  0  0  0  0  0  0  0  0  0  0
  1  2  1  0
  2  3  1  0
  3  4  1  0
  4  5  1  0
  5  6  1  0
  6  7  1  0
  7  8  1  0
  7  9  1  0
  2 10  1  0
 10 11  1  0
 11 12  1  0
 12 13  1  0
 13 14  1  1
 13 15  1  0
 15 16  1  0
 16 17  1  0
 17 18  2  0
 18 19  1  0
 19 20  1  0
 20 21  1  0
 21 22  1  0
 22 23  1  0
 22 24  1  0
 24 25  1  0
 24 26  1  0
 19 27  1  0
 27 28  1  6
 27 29  1  0
 29 30  1  0
 30 31  1  0
 31 32  1  1
  7  5  1  0
 31 10  1  0
 31 13  1  0
 27 15  1  0
 24 18  1  0
  1 33  1  0
  1 34  1  0
  1 35  1  0
  2 36  1  6
  3 37  1  0
  3 38  1  0
  4 39  1  0
  4 40  1  0
  5 41  1  1
  8 42  1  0
  8 43  1  0
  8 44  1  0
  9 45  1  0
  9 46  1  0
  9 47  1  0
 10 48  1  1
 11 49  1  0
 11 50  1  0
 12 51  1  0
 12 52  1  0
 14 53  1  0
 14 54  1  0
 14 55  1  0
 15 56  1  6
 16 57  1  0
 16 58  1  0
 17 59  1  0
 19 60  1  1
 20 61  1  0
 20 62  1  0
 21 63  1  0
 21 64  1  0
 22 65  1  1
 23 66  1  0
 25 67  1  0
 25 68  1  0
 25 69  1  0
 26 70  1  0
 26 71  1  0
 26 72  1  0
 28 73  1  0
 28 74  1  0
 28 75  1  0
 29 76  1  0
 29 77  1  0
 30 78  1  0
 30 79  1  0
 32 80  1  0
 32 81  1  0
 32 82  1  0
M  END
>  <meeko>  (4) 
{"is_sidechain": [false], "intermolecular_energy": 2.731, "internal_energy": -0.839}

$$$$
EPH_relaxed_0001_pdb2pqr_Repair_4_r2_0001_out
     RDKit          3D

 82 86  0  0  0  0  0  0  0  0999 V2000
    2.2690   18.0540   -2.8580 C   0  0  0  0  0  0  0  0  0  0  0  0
    0.9980   17.6560   -2.1020 C   0  0  2  0  0  0  0  0  0  0  0  0
    1.1850   17.7270   -0.5740 C   0  0  0  0  0  0  0  0  0  0  0  0
    0.8670   19.1010    0.0220 C   0  0  0  0  0  0  0  0  0  0  0  0
   -0.5530   19.1850    0.4960 C   0  0  2  0  0  0  0  0  0  0  0  0
   -1.4560   18.2850   -0.1590 O   0  0  0  0  0  0  0  0  0  0  0  0
   -1.6950   19.6860   -0.3690 C   0  0  0  0  0  0  0  0  0  0  0  0
   -1.4670   20.1380   -1.7770 C   0  0  0  0  0  0  0  0  0  0  0  0
   -2.9320   20.1940    0.3040 C   0  0  0  0  0  0  0  0  0  0  0  0
    0.5690   16.2510   -2.5100 C   0  0  1  0  0  0  0  0  0  0  0  0
    0.6680   16.0170   -4.0410 C   0  0  0  0  0  0  0  0  0  0  0  0
    1.0890   14.5390   -4.2420 C   0  0  0  0  0  0  0  0  0  0  0  0
    0.8960   13.8870   -2.8530 C   0  0  1  0  0  0  0  0  0  0  0  0
   -0.6300   13.5720   -2.7660 C   0  0  0  0  0  0  0  0  0  0  0  0
    1.7650   12.6210   -2.5570 C   0  0  2  0  0  0  0  0  0  0  0  0
    1.4990   11.4180   -3.4790 C   0  0  0  0  0  0  0  0  0  0  0  0
    0.4530   10.4660   -3.0010 C   0  0  0  0  0  0  0  0  0  0  0  0
   -0.0440   10.4130   -1.7510 C   0  0  0  0  0  0  0  0  0  0  0  0
    0.5210   11.3090   -0.6410 C   0  0  1  0  0  0  0  0  0  0  0  0
    0.7600   10.4610    0.6360 C   0  0  0  0  0  0  0  0  0  0  0  0
   -0.4880    9.7020    1.0770 C   0  0  0  0  0  0  0  0  0  0  0  0
   -0.9850    8.7790   -0.0330 C   0  0  2  0  0  0  0  0  0  0  0  0
   -0.0190    7.7440   -0.2400 O   0  0  0  0  0  0  0  0  0  0  0  0
   -1.2510    9.5210   -1.3730 C   0  0  0  0  0  0  0  0  0  0  0  0
   -2.4990   10.4270   -1.2270 C   0  0  0  0  0  0  0  0  0  0  0  0
   -1.6110    8.4560   -2.4440 C   0  0  0  0  0  0  0  0  0  0  0  0
    1.7840   12.1890   -1.0350 C   0  0  1  0  0  0  0  0  0  0  0  0
    3.0920   11.3670   -0.8220 C   0  0  0  0  0  0  0  0  0  0  0  0
    1.8730   13.4250   -0.0630 C   0  0  0  0  0  0  0  0  0  0  0  0
    1.0890   14.6870   -0.4710 C   0  0  0  0  0  0  0  0  0  0  0  0
    1.3760   15.0640   -1.9280 C   0  0  2  0  0  0  0  0  0  0  0  0
    2.9000   15.4080   -2.0410 C   0  0  0  0  0  0  0  0  0  0  0  0
    3.0619   18.3023   -2.1371 H   0  0  0  0  0  0  0  0  0  0  0  0
    2.5974   17.2157   -3.4900 H   0  0  0  0  0  0  0  0  0  0  0  0
    2.0606   18.9299   -3.4900 H   0  0  0  0  0  0  0  0  0  0  0  0
    0.2128   18.3775   -2.3719 H   0  0  0  0  0  0  0  0  0  0  0  0
    0.5208   16.9842   -0.1080 H   0  0  0  0  0  0  0  0  0  0  0  0
    2.2473   17.5265   -0.3706 H   0  0  0  0  0  0  0  0  0  0  0  0
    1.5385   19.2841    0.8738 H   0  0  0  0  0  0  0  0  0  0  0  0
    1.0114   19.8572   -0.7637 H   0  0  0  0  0  0  0  0  0  0  0  0
   -0.2240   19.4524    1.5110 H   0  0  0  0  0  0  0  0  0  0  0  0
   -0.9716   21.1201   -1.7711 H   0  0  0  0  0  0  0  0  0  0  0  0
   -0.8290   19.4086   -2.2975 H   0  0  0  0  0  0  0  0  0  0  0  0
   -2.4328   20.2176   -2.2975 H   0  0  0  0  0  0  0  0  0  0  0  0
   -2.8037   20.1413    1.3952 H   0  0  0  0  0  0  0  0  0  0  0  0
   -3.1094   21.2378    0.0056 H   0  0  0  0  0  0  0  0  0  0  0  0
   -3.7918   19.5762    0.0056 H   0  0  0  0  0  0  0  0  0  0  0  0
   -0.4537   16.2458   -2.1049 H   0  0  0  0  0  0  0  0  0  0  0  0
   -0.3070   16.2009   -4.5160 H   0  0  0  0  0  0  0  0  0  0  0  0
    1.3981   16.7010   -4.4983 H   0  0  0  0  0  0  0  0  0  0  0  0
    0.4492   14.0514   -4.9923 H   0  0  0  0  0  0  0  0  0  0  0  0
    2.1223   14.4452   -4.6073 H   0  0  0  0  0  0  0  0  0  0  0  0
   -0.9319   13.5097   -1.7101 H   0  0  0  0  0  0  0  0  0  0  0  0
   -1.1984   14.3717   -3.2633 H   0  0  0  0  0  0  0  0  0  0  0  0
   -0.8353   12.6125   -3.2633 H   0  0  0  0  0  0  0  0  0  0  0  0
    2.7795   12.9682   -2.8026 H   0  0  0  0  0  0  0  0  0  0  0  0
    1.1840   11.8046   -4.4595 H   0  0  0  0  0  0  0  0  0  0  0  0
    2.4382   10.8464   -3.5113 H   0  0  0  0  0  0  0  0  0  0  0  0
    0.0547    9.7470   -3.7321 H   0  0  0  0  0  0  0  0  0  0  0  0
   -0.2469   12.0718   -0.4449 H   0  0  0  0  0  0  0  0  0  0  0  0
    1.5606    9.7348    0.4322 H   0  0  0  0  0  0  0  0  0  0  0  0
    1.0354   11.1505    1.4477 H   0  0  0  0  0  0  0  0  0  0  0  0
   -0.2480    9.0998    1.9657 H   0  0  0  0  0  0  0  0  0  0  0  0
   -1.2789   10.4306    1.3087 H   0  0  0  0  0  0  0  0  0  0  0  0
   -1.9497    8.3622    0.2921 H   0  0  0  0  0  0  0  0  0  0  0  0
    0.3940    7.5520    0.6190 H   0  0  0  0  0  0  0  0  0  0  0  0
   -2.7153   10.5840   -0.1600 H   0  0  0  0  0  0  0  0  0  0  0  0
   -2.3063   11.3970   -1.7087 H   0  0  0  0  0  0  0  0  0  0  0  0
   -3.3616    9.9433   -1.7087 H   0  0  0  0  0  0  0  0  0  0  0  0
   -1.9251    7.5268   -1.9460 H   0  0  0  0  0  0  0  0  0  0  0  0
   -2.4323    8.8310   -3.0724 H   0  0  0  0  0  0  0  0  0  0  0  0
   -0.7306    8.2557   -3.0724 H   0  0  0  0  0  0  0  0  0  0  0  0
    3.2796   11.2491    0.2555 H   0  0  0  0  0  0  0  0  0  0  0  0
    2.9816   10.3756   -1.2856 H   0  0  0  0  0  0  0  0  0  0  0  0
    3.9374   11.8965   -1.2856 H   0  0  0  0  0  0  0  0  0  0  0  0
    1.4978   13.1033    0.9197 H   0  0  0  0  0  0  0  0  0  0  0  0
    2.9309   13.7263   -0.0763 H   0  0  0  0  0  0  0  0  0  0  0  0
    0.0122   14.4950   -0.3544 H   0  0  0  0  0  0  0  0  0  0  0  0
    1.4039   15.5196    0.1752 H   0  0  0  0  0  0  0  0  0  0  0  0
    3.3297   15.5050   -1.0331 H   0  0  0  0  0  0  0  0  0  0  0  0
    3.4180   14.6042   -2.5846 H   0  0  0  0  0  0  0  0  0  0  0  0
    3.0225   16.3564   -2.5846 H   0  0  0  0  0  0  0  0  0  0  0  0
  1  2  1  0
  2  3  1  0
  3  4  1  0
  4  5  1  0
  5  6  1  0
  6  7  1  0
  7  8  1  0
  7  9  1  0
  2 10  1  0
 10 11  1  0
 11 12  1  0
 12 13  1  0
 13 14  1  1
 13 15  1  0
 15 16  1  0
 16 17  1  0
 17 18  2  0
 18 19  1  0
 19 20  1  0
 20 21  1  0
 21 22  1  0
 22 23  1  0
 22 24  1  0
 24 25  1  0
 24 26  1  0
 19 27  1  0
 27 28  1  6
 27 29  1  0
 29 30  1  0
 30 31  1  0
 31 32  1  1
  7  5  1  0
 31 10  1  0
 31 13  1  0
 27 15  1  0
 24 18  1  0
  1 33  1  0
  1 34  1  0
  1 35  1  0
  2 36  1  6
  3 37  1  0
  3 38  1  0
  4 39  1  0
  4 40  1  0
  5 41  1  1
  8 42  1  0
  8 43  1  0
  8 44  1  0
  9 45  1  0
  9 46  1  0
  9 47  1  0
 10 48  1  1
 11 49  1  0
 11 50  1  0
 12 51  1  0
 12 52  1  0
 14 53  1  0
 14 54  1  0
 14 55  1  0
 15 56  1  6
 16 57  1  0
 16 58  1  0
 17 59  1  0
 19 60  1  1
 20 61  1  0
 20 62  1  0
 21 63  1  0
 21 64  1  0
 22 65  1  1
 23 66  1  0
 25 67  1  0
 25 68  1  0
 25 69  1  0
 26 70  1  0
 26 71  1  0
 26 72  1  0
 28 73  1  0
 28 74  1  0
 28 75  1  0
 29 76  1  0
 29 77  1  0
 30 78  1  0
 30 79  1  0
 32 80  1  0
 32 81  1  0
 32 82  1  0
M  END
>  <meeko>  (5) 
{"is_sidechain": [false], "intermolecular_energy": 2.731, "internal_energy": -0.839}

$$$$
EPH_relaxed_0001_pdb2pqr_Repair_4_r2_0001_out
     RDKit          3D

 82 86  0  0  0  0  0  0  0  0999 V2000
    3.6700   17.8540    0.7200 C   0  0  0  0  0  0  0  0  0  0  0  0
    2.7150   18.2290   -0.4160 C   0  0  2  0  0  0  0  0  0  0  0  0
    1.9930   19.5660   -0.1510 C   0  0  0  0  0  0  0  0  0  0  0  0
    0.9020   19.4740    0.9190 C   0  0  0  0  0  0  0  0  0  0  0  0
   -0.3820   20.0950    0.4570 C   0  0  2  0  0  0  0  0  0  0  0  0
   -1.3980   20.1890    1.4640 O   0  0  0  0  0  0  0  0  0  0  0  0
   -1.6890   19.3320    0.3480 C   0  0  0  0  0  0  0  0  0  0  0  0
   -1.7770   17.8810    0.7020 C   0  0  0  0  0  0  0  0  0  0  0  0
   -2.7540   19.8650   -0.5590 C   0  0  0  0  0  0  0  0  0  0  0  0
    1.6930   17.1180   -0.6240 C   0  0  1  0  0  0  0  0  0  0  0  0
    0.4920   17.5660   -1.4990 C   0  0  0  0  0  0  0  0  0  0  0  0
    0.0670   16.3350   -2.3400 C   0  0  0  0  0  0  0  0  0  0  0  0
    0.8090   15.1440   -1.6900 C   0  0  1  0  0  0  0  0  0  0  0  0
   -0.0620   14.7570   -0.4530 C   0  0  0  0  0  0  0  0  0  0  0  0
    1.0800   13.9110   -2.6130 C   0  0  2  0  0  0  0  0  0  0  0  0
   -0.1800   13.2090   -3.1500 C   0  0  0  0  0  0  0  0  0  0  0  0
   -0.7040   12.1000   -2.2980 C   0  0  0  0  0  0  0  0  0  0  0  0
   -0.0320   11.4970   -1.3000 C   0  0  0  0  0  0  0  0  0  0  0  0
    1.4310   11.8540   -1.0060 C   0  0  1  0  0  0  0  0  0  0  0  0
    2.2550   10.5520   -0.8230 C   0  0  0  0  0  0  0  0  0  0  0  0
    1.6570    9.6250    0.2310 C   0  0  0  0  0  0  0  0  0  0  0  0
    0.2220    9.2460   -0.1270 C   0  0  2  0  0  0  0  0  0  0  0  0
    0.2390    8.4410   -1.3100 O   0  0  0  0  0  0  0  0  0  0  0  0
   -0.7010   10.4770   -0.3450 C   0  0  0  0  0  0  0  0  0  0  0  0
   -0.9610   11.1790    1.0110 C   0  0  0  0  0  0  0  0  0  0  0  0
   -2.0790    9.9590   -0.8370 C   0  0  0  0  0  0  0  0  0  0  0  0
    2.1130   12.8710   -2.0190 C   0  0  1  0  0  0  0  0  0  0  0  0
    2.7100   12.0940   -3.2320 C   0  0  0  0  0  0  0  0  0  0  0  0
    3.3250   13.5740   -1.3020 C   0  0  0  0  0  0  0  0  0  0  0  0
    3.0130   14.8550   -0.5040 C   0  0  0  0  0  0  0  0  0  0  0  0
    2.1780   15.8310   -1.3380 C   0  0  2  0  0  0  0  0  0  0  0  0
    3.0360   16.2550   -2.5780 C   0  0  0  0  0  0  0  0  0  0  0  0
    3.1824   18.0455    1.6872 H   0  0  0  0  0  0  0  0  0  0  0  0
    3.9287   16.7875    0.6446 H   0  0  0  0  0  0  0  0  0  0  0  0
    4.5852   18.4595    0.6446 H   0  0  0  0  0  0  0  0  0  0  0  0
    3.3184   18.3547   -1.3271 H   0  0  0  0  0  0  0  0  0  0  0  0
    2.7393   20.3049    0.1764 H   0  0  0  0  0  0  0  0  0  0  0  0
    1.4991   19.8566   -1.0899 H   0  0  0  0  0  0  0  0  0  0  0  0
    0.7214   18.4146    1.1537 H   0  0  0  0  0  0  0  0  0  0  0  0
    1.2471   20.0217    1.8084 H   0  0  0  0  0  0  0  0  0  0  0  0
    0.1577   20.7390   -0.2529 H   0  0  0  0  0  0  0  0  0  0  0  0
   -1.7837   17.7703    1.7964 H   0  0  0  0  0  0  0  0  0  0  0  0
   -2.7025   17.4573    0.2849 H   0  0  0  0  0  0  0  0  0  0  0  0
   -0.9095   17.3486    0.2849 H   0  0  0  0  0  0  0  0  0  0  0  0
   -3.5768   20.2768    0.0439 H   0  0  0  0  0  0  0  0  0  0  0  0
   -2.3319   20.6581   -1.1937 H   0  0  0  0  0  0  0  0  0  0  0  0
   -3.1359   19.0518   -1.1937 H   0  0  0  0  0  0  0  0  0  0  0  0
    1.4452   16.8969    0.4247 H   0  0  0  0  0  0  0  0  0  0  0  0
   -0.3410   17.8937   -0.8596 H   0  0  0  0  0  0  0  0  0  0  0  0
    0.7691   18.4104   -2.1473 H   0  0  0  0  0  0  0  0  0  0  0  0
   -1.0220   16.1879   -2.2904 H   0  0  0  0  0  0  0  0  0  0  0  0
    0.3164   16.4510   -3.4051 H   0  0  0  0  0  0  0  0  0  0  0  0
    0.4842   14.9997    0.4704 H   0  0  0  0  0  0  0  0  0  0  0  0
   -1.0066   15.3201   -0.4790 H   0  0  0  0  0  0  0  0  0  0  0  0
   -0.2772   13.6786   -0.4790 H   0  0  0  0  0  0  0  0  0  0  0  0
    1.5607   14.3724   -3.4882 H   0  0  0  0  0  0  0  0  0  0  0  0
   -0.9733   13.9644   -3.2505 H   0  0  0  0  0  0  0  0  0  0  0  0
    0.1122   12.7475   -4.1048 H   0  0  0  0  0  0  0  0  0  0  0  0
   -1.7251   11.7463   -2.5035 H   0  0  0  0  0  0  0  0  0  0  0  0
    1.4222   12.4249   -0.0658 H   0  0  0  0  0  0  0  0  0  0  0  0
    2.2888   10.0180   -1.7841 H   0  0  0  0  0  0  0  0  0  0  0  0
    3.2614   10.8384   -0.4837 H   0  0  0  0  0  0  0  0  0  0  0  0
    2.2658    8.7110    0.2937 H   0  0  0  0  0  0  0  0  0  0  0  0
    1.6509   10.1500    1.1976 H   0  0  0  0  0  0  0  0  0  0  0  0
   -0.1945    8.6897    0.7257 H   0  0  0  0  0  0  0  0  0  0  0  0
   -0.5920    8.6030   -1.7880 H   0  0  0  0  0  0  0  0  0  0  0  0
   -0.7072   10.4938    1.8332 H   0  0  0  0  0  0  0  0  0  0  0  0
   -0.3380   12.0828    1.0814 H   0  0  0  0  0  0  0  0  0  0  0  0
   -2.0225   11.4589    1.0814 H   0  0  0  0  0  0  0  0  0  0  0  0
   -2.7122    9.7210    0.0304 H   0  0  0  0  0  0  0  0  0  0  0  0
   -2.5667   10.7352   -1.4450 H   0  0  0  0  0  0  0  0  0  0  0  0
   -1.9346    9.0538   -1.4450 H   0  0  0  0  0  0  0  0  0  0  0  0
    3.3419   11.2716   -2.8655 H   0  0  0  0  0  0  0  0  0  0  0  0
    1.8924   11.6839   -3.8431 H   0  0  0  0  0  0  0  0  0  0  0  0
    3.3168   12.7784   -3.8431 H   0  0  0  0  0  0  0  0  0  0  0  0
    3.7662   12.8468   -0.6045 H   0  0  0  0  0  0  0  0  0  0  0  0
    3.9921   13.8969   -2.1149 H   0  0  0  0  0  0  0  0  0  0  0  0
    2.4523   14.5861    0.4033 H   0  0  0  0  0  0  0  0  0  0  0  0
    3.9625   15.3433   -0.2394 H   0  0  0  0  0  0  0  0  0  0  0  0
    3.9729   16.7180   -2.2346 H   0  0  0  0  0  0  0  0  0  0  0  0
    3.2667   15.3672   -3.1851 H   0  0  0  0  0  0  0  0  0  0  0  0
    2.4709   16.9776   -3.1851 H   0  0  0  0  0  0  0  0  0  0  0  0
  1  2  1  0
  2  3  1  0
  3  4  1  0
  4  5  1  0
  5  6  1  0
  6  7  1  0
  7  8  1  0
  7  9  1  0
  2 10  1  0
 10 11  1  0
 11 12  1  0
 12 13  1  0
 13 14  1  1
 13 15  1  0
 15 16  1  0
 16 17  1  0
 17 18  2  0
 18 19  1  0
 19 20  1  0
 20 21  1  0
 21 22  1  0
 22 23  1  0
 22 24  1  0
 24 25  1  0
 24 26  1  0
 19 27  1  0
 27 28  1  6
 27 29  1  0
 29 30  1  0
 30 31  1  0
 31 32  1  6
  7  5  1  0
 31 10  1  0
 31 13  1  0
 27 15  1  0
 24 18  1  0
  1 33  1  0
  1 34  1  0
  1 35  1  0
  2 36  1  6
  3 37  1  0
  3 38  1  0
  4 39  1  0
  4 40  1  0
  5 41  1  6
  8 42  1  0
  8 43  1  0
  8 44  1  0
  9 45  1  0
  9 46  1  0
  9 47  1  0
 10 48  1  1
 11 49  1  0
 11 50  1  0
 12 51  1  0
 12 52  1  0
 14 53  1  0
 14 54  1  0
 14 55  1  0
 15 56  1  6
 16 57  1  0
 16 58  1  0
 17 59  1  0
 19 60  1  1
 20 61  1  0
 20 62  1  0
 21 63  1  0
 21 64  1  0
 22 65  1  1
 23 66  1  0
 25 67  1  0
 25 68  1  0
 25 69  1  0
 26 70  1  0
 26 71  1  0
 26 72  1  0
 28 73  1  0
 28 74  1  0
 28 75  1  0
 29 76  1  0
 29 77  1  0
 30 78  1  0
 30 79  1  0
 32 80  1  0
 32 81  1  0
 32 82  1  0
M  END
>  <meeko>  (6) 
{"is_sidechain": [false], "intermolecular_energy": 2.731, "internal_energy": -0.839}

$$$$
EPH_relaxed_0001_pdb2pqr_Repair_4_r2_0001_out
     RDKit          3D

 82 86  0  0  0  0  0  0  0  0999 V2000
   -5.1250    5.9160   -1.7190 C   0  0  0  0  0  0  0  0  0  0  0  0
   -5.4360    7.4150   -1.7720 C   0  0  2  0  0  0  0  0  0  0  0  0
   -5.2200    8.1010   -0.4080 C   0  0  0  0  0  0  0  0  0  0  0  0
   -4.1780    9.2220   -0.4410 C   0  0  0  0  0  0  0  0  0  0  0  0
   -2.8070    8.6950   -0.7380 C   0  0  2  0  0  0  0  0  0  0  0  0
   -1.8070    9.0500    0.2260 O   0  0  0  0  0  0  0  0  0  0  0  0
   -1.6290    9.5820   -1.0960 C   0  0  0  0  0  0  0  0  0  0  0  0
   -1.7700   11.0700   -1.1770 C   0  0  0  0  0  0  0  0  0  0  0  0
   -0.4780    8.9790   -1.8390 C   0  0  0  0  0  0  0  0  0  0  0  0
   -6.8690    7.6310   -2.2440 C   0  0  1  0  0  0  0  0  0  0  0  0
   -7.1630    6.9360   -3.6000 C   0  0  0  0  0  0  0  0  0  0  0  0
   -8.6350    6.4520   -3.5440 C   0  0  0  0  0  0  0  0  0  0  0  0
   -9.2340    7.1680   -2.3110 C   0  0  1  0  0  0  0  0  0  0  0  0
   -9.5920    8.6010   -2.8130 C   0  0  0  0  0  0  0  0  0  0  0  0
  -10.4590    6.4700   -1.6350 C   0  0  2  0  0  0  0  0  0  0  0  0
  -11.7070    6.3370   -2.5250 C   0  0  0  0  0  0  0  0  0  0  0  0
  -12.6700    7.4760   -2.4480 C   0  0  0  0  0  0  0  0  0  0  0  0
  -12.6860    8.4230   -1.4920 C   0  0  0  0  0  0  0  0  0  0  0  0
  -11.7280    8.3510   -0.2960 C   0  0  1  0  0  0  0  0  0  0  0  0
  -12.5140    8.6230    1.0140 C   0  0  0  0  0  0  0  0  0  0  0  0
  -13.2920    9.9340    0.9680 C   0  0  0  0  0  0  0  0  0  0  0  0
  -14.2750    9.9440   -0.2000 C   0  0  2  0  0  0  0  0  0  0  0  0
  -15.2870    8.9620    0.0410 O   0  0  0  0  0  0  0  0  0  0  0  0
  -13.5990    9.6710   -1.5730 C   0  0  0  0  0  0  0  0  0  0  0  0
  -12.7260   10.8870   -1.9740 C   0  0  0  0  0  0  0  0  0  0  0  0
  -14.7180    9.5680   -2.6440 C   0  0  0  0  0  0  0  0  0  0  0  0
  -10.8260    7.0450   -0.2070 C   0  0  1  0  0  0  0  0  0  0  0  0
  -11.5980    5.9170    0.5430 C   0  0  0  0  0  0  0  0  0  0  0  0
   -9.5490    7.3600    0.6580 C   0  0  0  0  0  0  0  0  0  0  0  0
   -8.3300    7.9360   -0.0880 C   0  0  0  0  0  0  0  0  0  0  0  0
   -8.0050    7.1040   -1.3320 C   0  0  2  0  0  0  0  0  0  0  0  0
   -7.6190    5.6620   -0.8560 C   0  0  0  0  0  0  0  0  0  0  0  0
   -5.0578    5.5923   -0.6698 H   0  0  0  0  0  0  0  0  0  0  0  0
   -5.9263    5.3572   -2.2245 H   0  0  0  0  0  0  0  0  0  0  0  0
   -4.1675    5.7221   -2.2245 H   0  0  0  0  0  0  0  0  0  0  0  0
   -4.7365    7.8742   -2.4860 H   0  0  0  0  0  0  0  0  0  0  0  0
   -6.1787    8.5277   -0.0782 H   0  0  0  0  0  0  0  0  0  0  0  0
   -4.8431    7.3320    0.2824 H   0  0  0  0  0  0  0  0  0  0  0  0
   -4.4581    9.9464   -1.2200 H   0  0  0  0  0  0  0  0  0  0  0  0
   -4.1552    9.6986    0.5501 H   0  0  0  0  0  0  0  0  0  0  0  0
   -3.2296    7.7999   -1.2179 H   0  0  0  0  0  0  0  0  0  0  0  0
   -1.8098   11.4904   -0.1613 H   0  0  0  0  0  0  0  0  0  0  0  0
   -0.9078   11.4913   -1.7146 H   0  0  0  0  0  0  0  0  0  0  0  0
   -2.6960   11.3218   -1.7146 H   0  0  0  0  0  0  0  0  0  0  0  0
    0.2600    8.5924   -1.1207 H   0  0  0  0  0  0  0  0  0  0  0  0
   -0.8408    8.1552   -2.4712 H   0  0  0  0  0  0  0  0  0  0  0  0
   -0.0073    9.7463   -2.4712 H   0  0  0  0  0  0  0  0  0  0  0  0
   -6.8897    8.7304   -2.2731 H   0  0  0  0  0  0  0  0  0  0  0  0
   -7.0295    7.6482   -4.4276 H   0  0  0  0  0  0  0  0  0  0  0  0
   -6.4762    6.0936   -3.7695 H   0  0  0  0  0  0  0  0  0  0  0  0
   -9.1733    6.7390   -4.4593 H   0  0  0  0  0  0  0  0  0  0  0  0
   -8.7118    5.3572   -3.4690 H   0  0  0  0  0  0  0  0  0  0  0  0
   -9.7570    9.2616   -1.9491 H   0  0  0  0  0  0  0  0  0  0  0  0
   -8.7643    8.9936   -3.4220 H   0  0  0  0  0  0  0  0  0  0  0  0
  -10.5071    8.5582   -3.4220 H   0  0  0  0  0  0  0  0  0  0  0  0
  -10.0911    5.4448   -1.4813 H   0  0  0  0  0  0  0  0  0  0  0  0
  -11.3719    6.2452   -3.5687 H   0  0  0  0  0  0  0  0  0  0  0  0
  -12.2502    5.4540   -2.1573 H   0  0  0  0  0  0  0  0  0  0  0  0
  -13.4305    7.5468   -3.2396 H   0  0  0  0  0  0  0  0  0  0  0  0
  -10.9824    9.1438   -0.4555 H   0  0  0  0  0  0  0  0  0  0  0  0
  -13.2228    7.7979    1.1776 H   0  0  0  0  0  0  0  0  0  0  0  0
  -11.7830    8.6972    1.8326 H   0  0  0  0  0  0  0  0  0  0  0  0
  -13.8492   10.0552    1.9086 H   0  0  0  0  0  0  0  0  0  0  0  0
  -12.5791   10.7610    0.8342 H   0  0  0  0  0  0  0  0  0  0  0  0
  -14.7068   10.9540   -0.2585 H   0  0  0  0  0  0  0  0  0  0  0  0
  -15.5470    9.0310    0.9760 H   0  0  0  0  0  0  0  0  0  0  0  0
  -12.3629   11.3927   -1.0671 H   0  0  0  0  0  0  0  0  0  0  0  0
  -11.8681   10.5419   -2.5698 H   0  0  0  0  0  0  0  0  0  0  0  0
  -13.3273   11.5895   -2.5698 H   0  0  0  0  0  0  0  0  0  0  0  0
  -15.6948    9.4781   -2.1462 H   0  0  0  0  0  0  0  0  0  0  0  0
  -14.7084   10.4708   -3.2723 H   0  0  0  0  0  0  0  0  0  0  0  0
  -14.5437    8.6821   -3.2723 H   0  0  0  0  0  0  0  0  0  0  0  0
  -11.4978    6.0634    1.6286 H   0  0  0  0  0  0  0  0  0  0  0  0
  -12.6616    5.9531    0.2648 H   0  0  0  0  0  0  0  0  0  0  0  0
  -11.1793    4.9386    0.2648 H   0  0  0  0  0  0  0  0  0  0  0  0
   -9.8409    8.0872    1.4300 H   0  0  0  0  0  0  0  0  0  0  0  0
   -9.2158    6.3858    1.0452 H   0  0  0  0  0  0  0  0  0  0  0  0
   -8.5506    8.9693   -0.3938 H   0  0  0  0  0  0  0  0  0  0  0  0
   -7.4619    7.9111    0.5871 H   0  0  0  0  0  0  0  0  0  0  0  0
   -7.6101    5.6289    0.2435 H   0  0  0  0  0  0  0  0  0  0  0  0
   -8.3555    4.9401   -1.2386 H   0  0  0  0  0  0  0  0  0  0  0  0
   -6.6203    5.4046   -1.2386 H   0  0  0  0  0  0  0  0  0  0  0  0
  1  2  1  0
  2  3  1  0
  3  4  1  0
  4  5  1  0
  5  6  1  0
  6  7  1  0
  7  8  1  0
  7  9  1  0
  2 10  1  0
 10 11  1  0
 11 12  1  0
 12 13  1  0
 13 14  1  6
 13 15  1  0
 15 16  1  0
 16 17  1  0
 17 18  2  0
 18 19  1  0
 19 20  1  0
 20 21  1  0
 21 22  1  0
 22 23  1  0
 22 24  1  0
 24 25  1  0
 24 26  1  0
 19 27  1  0
 27 28  1  1
 27 29  1  0
 29 30  1  0
 30 31  1  0
 31 32  1  1
  7  5  1  0
 31 10  1  0
 31 13  1  0
 27 15  1  0
 24 18  1  0
  1 33  1  0
  1 34  1  0
  1 35  1  0
  2 36  1  6
  3 37  1  0
  3 38  1  0
  4 39  1  0
  4 40  1  0
  5 41  1  6
  8 42  1  0
  8 43  1  0
  8 44  1  0
  9 45  1  0
  9 46  1  0
  9 47  1  0
 10 48  1  6
 11 49  1  0
 11 50  1  0
 12 51  1  0
 12 52  1  0
 14 53  1  0
 14 54  1  0
 14 55  1  0
 15 56  1  1
 16 57  1  0
 16 58  1  0
 17 59  1  0
 19 60  1  6
 20 61  1  0
 20 62  1  0
 21 63  1  0
 21 64  1  0
 22 65  1  6
 23 66  1  0
 25 67  1  0
 25 68  1  0
 25 69  1  0
 26 70  1  0
 26 71  1  0
 26 72  1  0
 28 73  1  0
 28 74  1  0
 28 75  1  0
 29 76  1  0
 29 77  1  0
 30 78  1  0
 30 79  1  0
 32 80  1  0
 32 81  1  0
 32 82  1  0
M  END
>  <meeko>  (7) 
{"is_sidechain": [false], "intermolecular_energy": 2.731, "internal_energy": -0.839}

$$$$
EPH_relaxed_0001_pdb2pqr_Repair_4_r2_0001_out
     RDKit          3D

 82 86  0  0  0  0  0  0  0  0999 V2000
    4.3290   16.4720    0.0090 C   0  0  0  0  0  0  0  0  0  0  0  0
    2.9970   17.0750   -0.4450 C   0  0  2  0  0  0  0  0  0  0  0  0
    2.6440   18.3570    0.3350 C   0  0  0  0  0  0  0  0  0  0  0  0
    2.2910   19.5460   -0.5630 C   0  0  0  0  0  0  0  0  0  0  0  0
    1.5090   19.1180   -1.7670 C   0  0  2  0  0  0  0  0  0  0  0  0
    1.0490   20.1940   -2.5960 O   0  0  0  0  0  0  0  0  0  0  0  0
    0.0310   19.4100   -1.9520 C   0  0  0  0  0  0  0  0  0  0  0  0
   -0.7520   20.1590   -0.9200 C   0  0  0  0  0  0  0  0  0  0  0  0
   -0.7550   18.5530   -2.8950 C   0  0  0  0  0  0  0  0  0  0  0  0
    1.8820   16.0470   -0.2900 C   0  0  1  0  0  0  0  0  0  0  0  0
    0.4790   16.7010   -0.1680 C   0  0  0  0  0  0  0  0  0  0  0  0
   -0.5190   15.7520   -0.8790 C   0  0  0  0  0  0  0  0  0  0  0  0
    0.2720   14.4410   -1.0920 C   0  0  1  0  0  0  0  0  0  0  0  0
    0.1960   13.6980    0.2790 C   0  0  0  0  0  0  0  0  0  0  0  0
   -0.2040   13.5290   -2.2700 C   0  0  2  0  0  0  0  0  0  0  0  0
   -1.6360   12.9820   -2.1330 C   0  0  0  0  0  0  0  0  0  0  0  0
   -1.7520   11.6660   -1.4380 C   0  0  0  0  0  0  0  0  0  0  0  0
   -0.7360   10.8170   -1.1960 C   0  0  0  0  0  0  0  0  0  0  0  0
    0.6750   11.1060   -1.7240 C   0  0  1  0  0  0  0  0  0  0  0  0
    1.2570    9.8240   -2.3760 C   0  0  0  0  0  0  0  0  0  0  0  0
    1.2210    8.6220   -1.4370 C   0  0  0  0  0  0  0  0  0  0  0  0
   -0.2060    8.3300   -0.9800 C   0  0  2  0  0  0  0  0  0  0  0  0
   -0.9720    7.8980   -2.1080 O   0  0  0  0  0  0  0  0  0  0  0  0
   -0.8990    9.5530   -0.3160 C   0  0  0  0  0  0  0  0  0  0  0  0
   -0.2510    9.8340    1.0620 C   0  0  0  0  0  0  0  0  0  0  0  0
   -2.3760    9.1680   -0.0300 C   0  0  0  0  0  0  0  0  0  0  0  0
    0.8170   12.3840   -2.6580 C   0  0  1  0  0  0  0  0  0  0  0  0
    0.5120   11.9990   -4.1380 C   0  0  0  0  0  0  0  0  0  0  0  0
    2.3110   12.8800   -2.6270 C   0  0  0  0  0  0  0  0  0  0  0  0
    2.6910   13.8720   -1.5110 C   0  0  0  0  0  0  0  0  0  0  0  0
    1.6880   15.0280   -1.4410 C   0  0  2  0  0  0  0  0  0  0  0  0
    1.7590   15.8070   -2.7980 C   0  0  0  0  0  0  0  0  0  0  0  0
    4.3678   16.4544    1.1082 H   0  0  0  0  0  0  0  0  0  0  0  0
    4.4177   15.4460   -0.3775 H   0  0  0  0  0  0  0  0  0  0  0  0
    5.1585   17.0824   -0.3775 H   0  0  0  0  0  0  0  0  0  0  0  0
    3.1029   17.3522   -1.5042 H   0  0  0  0  0  0  0  0  0  0  0  0
    1.7812   18.1429    0.9829 H   0  0  0  0  0  0  0  0  0  0  0  0
    3.5388   18.6414    0.9082 H   0  0  0  0  0  0  0  0  0  0  0  0
    1.6907   20.2637    0.0154 H   0  0  0  0  0  0  0  0  0  0  0  0
    3.2290   20.0050   -0.9087 H   0  0  0  0  0  0  0  0  0  0  0  0
    2.0931   18.1892   -1.8454 H   0  0  0  0  0  0  0  0  0  0  0  0
   -0.4270   19.8481    0.0839 H   0  0  0  0  0  0  0  0  0  0  0  0
   -0.5815   21.2388   -1.0426 H   0  0  0  0  0  0  0  0  0  0  0  0
   -1.8231   19.9407   -1.0426 H   0  0  0  0  0  0  0  0  0  0  0  0
   -1.3890   17.8617   -2.3204 H   0  0  0  0  0  0  0  0  0  0  0  0
   -1.3886   19.1909   -3.5287 H   0  0  0  0  0  0  0  0  0  0  0  0
   -0.0648   17.9767   -3.5287 H   0  0  0  0  0  0  0  0  0  0  0  0
    2.2333   15.5297    0.6149 H   0  0  0  0  0  0  0  0  0  0  0  0
    0.2047   16.8148    0.8912 H   0  0  0  0  0  0  0  0  0  0  0  0
    0.4679   17.7012   -0.6257 H   0  0  0  0  0  0  0  0  0  0  0  0
   -1.4023   15.5742   -0.2480 H   0  0  0  0  0  0  0  0  0  0  0  0
   -0.8918   16.1721   -1.8248 H   0  0  0  0  0  0  0  0  0  0  0  0
    0.2708   14.4295    1.0971 H   0  0  0  0  0  0  0  0  0  0  0  0
   -0.7617   13.1619    0.3529 H   0  0  0  0  0  0  0  0  0  0  0  0
    1.0253   12.9791    0.3529 H   0  0  0  0  0  0  0  0  0  0  0  0
   -0.2311   14.2316   -3.1159 H   0  0  0  0  0  0  0  0  0  0  0  0
   -2.2283   13.7176   -1.5691 H   0  0  0  0  0  0  0  0  0  0  0  0
   -1.9984   12.8176   -3.1585 H   0  0  0  0  0  0  0  0  0  0  0  0
   -2.7526   11.3646   -1.0945 H   0  0  0  0  0  0  0  0  0  0  0  0
    1.2770   11.3843   -0.8465 H   0  0  0  0  0  0  0  0  0  0  0  0
    0.6685    9.5872   -3.2747 H   0  0  0  0  0  0  0  0  0  0  0  0
    2.3102   10.0235   -2.6227 H   0  0  0  0  0  0  0  0  0  0  0  0
    1.6177    7.7416   -1.9637 H   0  0  0  0  0  0  0  0  0  0  0  0
    1.8338    8.8489   -0.5521 H   0  0  0  0  0  0  0  0  0  0  0  0
   -0.1519    7.5444   -0.2119 H   0  0  0  0  0  0  0  0  0  0  0  0
   -1.6160    7.2410   -1.7930 H   0  0  0  0  0  0  0  0  0  0  0  0
   -0.9443    9.5334    1.8613 H   0  0  0  0  0  0  0  0  0  0  0  0
    0.6831    9.2601    1.1518 H   0  0  0  0  0  0  0  0  0  0  0  0
   -0.0315   10.9081    1.1518 H   0  0  0  0  0  0  0  0  0  0  0  0
   -2.5399    9.1253    1.0569 H   0  0  0  0  0  0  0  0  0  0  0  0
   -3.0437    9.9221   -0.4721 H   0  0  0  0  0  0  0  0  0  0  0  0
   -2.5906    8.1839   -0.4721 H   0  0  0  0  0  0  0  0  0  0  0  0
   -0.1709   11.1369   -4.1593 H   0  0  0  0  0  0  0  0  0  0  0  0
    0.0419   12.8520   -4.6493 H   0  0  0  0  0  0  0  0  0  0  0  0
    1.4499   11.7365   -4.6493 H   0  0  0  0  0  0  0  0  0  0  0  0
    2.9535   11.9939   -2.5175 H   0  0  0  0  0  0  0  0  0  0  0  0
    2.4489   13.4365   -3.5658 H   0  0  0  0  0  0  0  0  0  0  0  0
    2.6986   13.3431   -0.5465 H   0  0  0  0  0  0  0  0  0  0  0  0
    3.6868   14.2841   -1.7316 H   0  0  0  0  0  0  0  0  0  0  0  0
    1.8572   16.8842   -2.5977 H   0  0  0  0  0  0  0  0  0  0  0  0
    2.6293   15.4604   -3.3746 H   0  0  0  0  0  0  0  0  0  0  0  0
    0.8404   15.6235   -3.3746 H   0  0  0  0  0  0  0  0  0  0  0  0
  1  2  1  0
  2  3  1  0
  3  4  1  0
  4  5  1  0
  5  6  1  0
  6  7  1  0
  7  8  1  0
  7  9  1  0
  2 10  1  0
 10 11  1  0
 11 12  1  0
 12 13  1  0
 13 14  1  1
 13 15  1  0
 15 16  1  0
 16 17  1  0
 17 18  2  0
 18 19  1  0
 19 20  1  0
 20 21  1  0
 21 22  1  0
 22 23  1  0
 22 24  1  0
 24 25  1  0
 24 26  1  0
 19 27  1  0
 27 28  1  6
 27 29  1  0
 29 30  1  0
 30 31  1  0
 31 32  1  6
  7  5  1  0
 31 10  1  0
 31 13  1  0
 27 15  1  0
 24 18  1  0
  1 33  1  0
  1 34  1  0
  1 35  1  0
  2 36  1  6
  3 37  1  0
  3 38  1  0
  4 39  1  0
  4 40  1  0
  5 41  1  6
  8 42  1  0
  8 43  1  0
  8 44  1  0
  9 45  1  0
  9 46  1  0
  9 47  1  0
 10 48  1  1
 11 49  1  0
 11 50  1  0
 12 51  1  0
 12 52  1  0
 14 53  1  0
 14 54  1  0
 14 55  1  0
 15 56  1  6
 16 57  1  0
 16 58  1  0
 17 59  1  0
 19 60  1  1
 20 61  1  0
 20 62  1  0
 21 63  1  0
 21 64  1  0
 22 65  1  1
 23 66  1  0
 25 67  1  0
 25 68  1  0
 25 69  1  0
 26 70  1  0
 26 71  1  0
 26 72  1  0
 28 73  1  0
 28 74  1  0
 28 75  1  0
 29 76  1  0
 29 77  1  0
 30 78  1  0
 30 79  1  0
 32 80  1  0
 32 81  1  0
 32 82  1  0
M  END
>  <meeko>  (8) 
{"is_sidechain": [false], "intermolecular_energy": 2.731, "internal_energy": -0.839}

$$$$
EPH_relaxed_0001_pdb2pqr_Repair_4_r2_0001_out
     RDKit          3D

 82 86  0  0  0  0  0  0  0  0999 V2000
    0.4210    8.8440   -2.5220 C   0  0  0  0  0  0  0  0  0  0  0  0
    1.1840   10.0020   -3.1710 C   0  0  2  0  0  0  0  0  0  0  0  0
    2.6770   10.0030   -2.7840 C   0  0  0  0  0  0  0  0  0  0  0  0
    3.5900   10.6030   -3.8560 C   0  0  0  0  0  0  0  0  0  0  0  0
    4.9830   10.8140   -3.3430 C   0  0  2  0  0  0  0  0  0  0  0  0
    5.5970   12.0390   -3.7660 O   0  0  0  0  0  0  0  0  0  0  0  0
    6.2100   10.8270   -4.2360 C   0  0  0  0  0  0  0  0  0  0  0  0
    6.1020   10.6230   -5.7140 C   0  0  0  0  0  0  0  0  0  0  0  0
    7.5450   10.5490   -3.6190 C   0  0  0  0  0  0  0  0  0  0  0  0
    0.5450   11.3290   -2.7810 C   0  0  1  0  0  0  0  0  0  0  0  0
   -0.8340   11.1480   -2.0910 C   0  0  0  0  0  0  0  0  0  0  0  0
   -0.9510   12.2690   -1.0250 C   0  0  0  0  0  0  0  0  0  0  0  0
    0.1990   13.2470   -1.3600 C   0  0  1  0  0  0  0  0  0  0  0  0
   -0.3480   14.1260   -2.5270 C   0  0  0  0  0  0  0  0  0  0  0  0
    0.7270   14.1220   -0.1770 C   0  0  2  0  0  0  0  0  0  0  0  0
   -0.3040   15.0880    0.4320 C   0  0  0  0  0  0  0  0  0  0  0  0
   -0.3470   16.4470   -0.1850 C   0  0  0  0  0  0  0  0  0  0  0  0
    0.5960   16.9700   -0.9900 C   0  0  0  0  0  0  0  0  0  0  0  0
    1.8980   16.2110   -1.2760 C   0  0  1  0  0  0  0  0  0  0  0  0
    3.1040   17.1750   -1.1260 C   0  0  0  0  0  0  0  0  0  0  0  0
    2.9600   18.4290   -1.9830 C   0  0  0  0  0  0  0  0  0  0  0  0
    1.6840   19.1880   -1.6290 C   0  0  2  0  0  0  0  0  0  0  0  0
    1.8070   19.7030   -0.3000 O   0  0  0  0  0  0  0  0  0  0  0  0
    0.4020   18.3140   -1.7350 C   0  0  0  0  0  0  0  0  0  0  0  0
    0.1030   18.0070   -3.2230 C   0  0  0  0  0  0  0  0  0  0  0  0
   -0.7940   19.1570   -1.2160 C   0  0  0  0  0  0  0  0  0  0  0  0
    2.0990   14.8530   -0.4740 C   0  0  1  0  0  0  0  0  0  0  0  0
    2.7570   15.1450    0.9100 C   0  0  0  0  0  0  0  0  0  0  0  0
    3.1080   13.9360   -1.2600 C   0  0  0  0  0  0  0  0  0  0  0  0
    2.5100   13.0070   -2.3340 C   0  0  0  0  0  0  0  0  0  0  0  0
    1.3170   12.2240   -1.7780 C   0  0  2  0  0  0  0  0  0  0  0  0
    1.8410   11.3130   -0.6160 C   0  0  0  0  0  0  0  0  0  0  0  0
    0.4801    8.9338   -1.4273 H   0  0  0  0  0  0  0  0  0  0  0  0
   -0.6326    8.8773   -2.8362 H   0  0  0  0  0  0  0  0  0  0  0  0
    0.8673    7.8890   -2.8362 H   0  0  0  0  0  0  0  0  0  0  0  0
    1.1251    9.8670   -4.2611 H   0  0  0  0  0  0  0  0  0  0  0  0
    2.7958   10.5875   -1.8598 H   0  0  0  0  0  0  0  0  0  0  0  0
    2.9770    8.9523   -2.6575 H   0  0  0  0  0  0  0  0  0  0  0  0
    3.6268    9.9189   -4.7166 H   0  0  0  0  0  0  0  0  0  0  0  0
    3.1800   11.5812   -4.1474 H   0  0  0  0  0  0  0  0  0  0  0  0
    4.7505   10.2682   -2.4167 H   0  0  0  0  0  0  0  0  0  0  0  0
    5.5961    9.6674   -5.9162 H   0  0  0  0  0  0  0  0  0  0  0  0
    5.5215   11.4460   -6.1563 H   0  0  0  0  0  0  0  0  0  0  0  0
    7.1090   10.6056   -6.1563 H   0  0  0  0  0  0  0  0  0  0  0  0
    7.4535   10.5681   -2.5230 H   0  0  0  0  0  0  0  0  0  0  0  0
    7.8982    9.5580   -3.9403 H   0  0  0  0  0  0  0  0  0  0  0  0
    8.2644   11.3166   -3.9403 H   0  0  0  0  0  0  0  0  0  0  0  0
    0.5105   11.8135   -3.7679 H   0  0  0  0  0  0  0  0  0  0  0  0
   -1.6429   11.2423   -2.8304 H   0  0  0  0  0  0  0  0  0  0  0  0
   -0.9172   10.1532   -1.6291 H   0  0  0  0  0  0  0  0  0  0  0  0
   -1.9250   12.7749   -1.0987 H   0  0  0  0  0  0  0  0  0  0  0  0
   -0.8809   11.8782    0.0009 H   0  0  0  0  0  0  0  0  0  0  0  0
   -0.8865   14.9913   -2.1130 H   0  0  0  0  0  0  0  0  0  0  0  0
    0.4909   14.4778   -3.1454 H   0  0  0  0  0  0  0  0  0  0  0  0
   -1.0342   13.5287   -3.1454 H   0  0  0  0  0  0  0  0  0  0  0  0
    0.9270   13.3704    0.6009 H   0  0  0  0  0  0  0  0  0  0  0  0
   -1.3002   14.6341    0.3241 H   0  0  0  0  0  0  0  0  0  0  0  0
    0.0008   15.2383    1.4782 H   0  0  0  0  0  0  0  0  0  0  0  0
   -1.2234   17.0735    0.0372 H   0  0  0  0  0  0  0  0  0  0  0  0
    1.8251   15.8644   -2.3174 H   0  0  0  0  0  0  0  0  0  0  0  0
    3.1858   17.4761   -0.0712 H   0  0  0  0  0  0  0  0  0  0  0  0
    4.0035   16.6401   -1.4649 H   0  0  0  0  0  0  0  0  0  0  0  0
    3.8274   19.0835   -1.8119 H   0  0  0  0  0  0  0  0  0  0  0  0
    2.9078   18.1280   -3.0397 H   0  0  0  0  0  0  0  0  0  0  0  0
    1.5704   20.0015   -2.3606 H   0  0  0  0  0  0  0  0  0  0  0  0
    2.3410   20.5140   -0.3470 H   0  0  0  0  0  0  0  0  0  0  0  0
   -0.6631   17.2204   -3.2883 H   0  0  0  0  0  0  0  0  0  0  0  0
   -0.2635   18.9179   -3.7189 H   0  0  0  0  0  0  0  0  0  0  0  0
    1.0233   17.6646   -3.7189 H   0  0  0  0  0  0  0  0  0  0  0  0
   -0.7931   19.1564   -0.1160 H   0  0  0  0  0  0  0  0  0  0  0  0
   -0.7007   20.1901   -1.5821 H   0  0  0  0  0  0  0  0  0  0  0  0
   -1.7356   18.7218   -1.5821 H   0  0  0  0  0  0  0  0  0  0  0  0
    2.0707   14.8404    1.7139 H   0  0  0  0  0  0  0  0  0  0  0  0
    3.6965   14.5793    0.9960 H   0  0  0  0  0  0  0  0  0  0  0  0
    2.9678   16.2212    0.9960 H   0  0  0  0  0  0  0  0  0  0  0  0
    3.8372   14.5929   -1.7567 H   0  0  0  0  0  0  0  0  0  0  0  0
    3.5355   13.2627   -0.5024 H   0  0  0  0  0  0  0  0  0  0  0  0
    2.1758   13.6133   -3.1888 H   0  0  0  0  0  0  0  0  0  0  0  0
    3.2835   12.2912   -2.6491 H   0  0  0  0  0  0  0  0  0  0  0  0
    1.5801   11.7665    0.3516 H   0  0  0  0  0  0  0  0  0  0  0  0
    1.3768   10.3186   -0.6919 H   0  0  0  0  0  0  0  0  0  0  0  0
    2.9339   11.2142   -0.6919 H   0  0  0  0  0  0  0  0  0  0  0  0
  1  2  1  0
  2  3  1  0
  3  4  1  0
  4  5  1  0
  5  6  1  0
  6  7  1  0
  7  8  1  0
  7  9  1  0
  2 10  1  0
 10 11  1  0
 11 12  1  0
 12 13  1  0
 13 14  1  6
 13 15  1  0
 15 16  1  0
 16 17  1  0
 17 18  2  0
 18 19  1  0
 19 20  1  0
 20 21  1  0
 21 22  1  0
 22 23  1  0
 22 24  1  0
 24 25  1  0
 24 26  1  0
 19 27  1  0
 27 28  1  1
 27 29  1  0
 29 30  1  0
 30 31  1  0
 31 32  1  1
  7  5  1  0
 31 10  1  0
 31 13  1  0
 27 15  1  0
 24 18  1  0
  1 33  1  0
  1 34  1  0
  1 35  1  0
  2 36  1  6
  3 37  1  0
  3 38  1  0
  4 39  1  0
  4 40  1  0
  5 41  1  1
  8 42  1  0
  8 43  1  0
  8 44  1  0
  9 45  1  0
  9 46  1  0
  9 47  1  0
 10 48  1  6
 11 49  1  0
 11 50  1  0
 12 51  1  0
 12 52  1  0
 14 53  1  0
 14 54  1  0
 14 55  1  0
 15 56  1  1
 16 57  1  0
 16 58  1  0
 17 59  1  0
 19 60  1  6
 20 61  1  0
 20 62  1  0
 21 63  1  0
 21 64  1  0
 22 65  1  6
 23 66  1  0
 25 67  1  0
 25 68  1  0
 25 69  1  0
 26 70  1  0
 26 71  1  0
 26 72  1  0
 28 73  1  0
 28 74  1  0
 28 75  1  0
 29 76  1  0
 29 77  1  0
 30 78  1  0
 30 79  1  0
 32 80  1  0
 32 81  1  0
 32 82  1  0
M  END
>  <meeko>  (9) 
{"is_sidechain": [false], "intermolecular_energy": 2.731, "internal_energy": -0.839}

$$$$
EPH_relaxed_0001_pdb2pqr_Repair_4_r2_0001_out
     RDKit          3D

 82 86  0  0  0  0  0  0  0  0999 V2000
    2.5420   19.1230   -1.1140 C   0  0  0  0  0  0  0  0  0  0  0  0
    2.3060   18.0820   -2.2120 C   0  0  2  0  0  0  0  0  0  0  0  0
    0.8710   18.1430   -2.7710 C   0  0  0  0  0  0  0  0  0  0  0  0
    0.1010   19.4000   -2.3550 C   0  0  0  0  0  0  0  0  0  0  0  0
   -1.1580   19.0600   -1.6160 C   0  0  2  0  0  0  0  0  0  0  0  0
   -1.9250   20.1930   -1.1880 O   0  0  0  0  0  0  0  0  0  0  0  0
   -1.3750   19.3700   -0.1470 C   0  0  0  0  0  0  0  0  0  0  0  0
   -0.3210   20.0470    0.6720 C   0  0  0  0  0  0  0  0  0  0  0  0
   -2.4020   18.5830    0.6060 C   0  0  0  0  0  0  0  0  0  0  0  0
    2.5970   16.6860   -1.6750 C   0  0  1  0  0  0  0  0  0  0  0  0
    3.3810   16.7120   -0.3360 C   0  0  0  0  0  0  0  0  0  0  0  0
    2.8720   15.5120    0.5040 C   0  0  0  0  0  0  0  0  0  0  0  0
    2.0660   14.6510   -0.4950 C   0  0  1  0  0  0  0  0  0  0  0  0
    3.1390   13.8190   -1.2650 C   0  0  0  0  0  0  0  0  0  0  0  0
    0.9570   13.7360    0.1190 C   0  0  2  0  0  0  0  0  0  0  0  0
    1.4670   12.6530    1.0860 C   0  0  0  0  0  0  0  0  0  0  0  0
    1.8050   11.3430    0.4560 C   0  0  0  0  0  0  0  0  0  0  0  0
    1.4390   10.9510   -0.7790 C   0  0  0  0  0  0  0  0  0  0  0  0
    0.5220   11.8260   -1.6430 C   0  0  1  0  0  0  0  0  0  0  0  0
   -0.5940   10.9480   -2.2670 C   0  0  0  0  0  0  0  0  0  0  0  0
   -0.0380    9.7510   -3.0320 C   0  0  0  0  0  0  0  0  0  0  0  0
    0.8210    8.8740   -2.1250 C   0  0  2  0  0  0  0  0  0  0  0  0
   -0.0190    8.2760   -1.1330 O   0  0  0  0  0  0  0  0  0  0  0  0
    1.9740    9.6530   -1.4320 C   0  0  0  0  0  0  0  0  0  0  0  0
    3.0430   10.0430   -2.4830 C   0  0  0  0  0  0  0  0  0  0  0  0
    2.6740    8.6870   -0.4390 C   0  0  0  0  0  0  0  0  0  0  0  0
   -0.0490   13.1340   -0.9430 C   0  0  1  0  0  0  0  0  0  0  0  0
   -1.3610   12.7940   -0.1720 C   0  0  0  0  0  0  0  0  0  0  0  0
   -0.4440   14.1790   -2.0530 C   0  0  0  0  0  0  0  0  0  0  0  0
    0.6650   15.1350   -2.5330 C   0  0  0  0  0  0  0  0  0  0  0  0
    1.3820   15.7830   -1.3450 C   0  0  2  0  0  0  0  0  0  0  0  0
    0.3320   16.6450   -0.5640 C   0  0  0  0  0  0  0  0  0  0  0  0
    2.4341   18.6470   -0.1282 H   0  0  0  0  0  0  0  0  0  0  0  0
    3.5566   19.5363   -1.2125 H   0  0  0  0  0  0  0  0  0  0  0  0
    1.8048   19.9334   -1.2125 H   0  0  0  0  0  0  0  0  0  0  0  0
    2.9925   18.3125   -3.0400 H   0  0  0  0  0  0  0  0  0  0  0  0
    0.9248   18.1163   -3.8694 H   0  0  0  0  0  0  0  0  0  0  0  0
    0.3276   17.2812   -2.3563 H   0  0  0  0  0  0  0  0  0  0  0  0
    0.7425   20.0117   -1.7036 H   0  0  0  0  0  0  0  0  0  0  0  0
   -0.1746   19.9506   -3.2665 H   0  0  0  0  0  0  0  0  0  0  0  0
   -1.2804   18.1366   -2.2011 H   0  0  0  0  0  0  0  0  0  0  0  0
   -0.5403   19.9062    1.7407 H   0  0  0  0  0  0  0  0  0  0  0  0
    0.6614   19.6105    0.4386 H   0  0  0  0  0  0  0  0  0  0  0  0
   -0.3094   21.1219    0.4386 H   0  0  0  0  0  0  0  0  0  0  0  0
   -2.2395   18.7075    1.6868 H   0  0  0  0  0  0  0  0  0  0  0  0
   -3.4069   18.9445    0.3423 H   0  0  0  0  0  0  0  0  0  0  0  0
   -2.3143   17.5187    0.3423 H   0  0  0  0  0  0  0  0  0  0  0  0
    3.1523   16.2724   -2.5297 H   0  0  0  0  0  0  0  0  0  0  0  0
    4.4596   16.6105   -0.5266 H   0  0  0  0  0  0  0  0  0  0  0  0
    3.2227   17.6618    0.1959 H   0  0  0  0  0  0  0  0  0  0  0  0
    3.7166   14.9403    0.9161 H   0  0  0  0  0  0  0  0  0  0  0  0
    2.2648   15.8321    1.3636 H   0  0  0  0  0  0  0  0  0  0  0  0
    3.7953   13.3101   -0.5438 H   0  0  0  0  0  0  0  0  0  0  0  0
    2.6386   13.0705   -1.8969 H   0  0  0  0  0  0  0  0  0  0  0  0
    3.7393   14.4901   -1.8969 H   0  0  0  0  0  0  0  0  0  0  0  0
    0.3834   14.4431    0.7363 H   0  0  0  0  0  0  0  0  0  0  0  0
    2.3725   13.0367    1.5789 H   0  0  0  0  0  0  0  0  0  0  0  0
    0.6385   12.4514    1.7810 H   0  0  0  0  0  0  0  0  0  0  0  0
    2.4039   10.6379    1.0511 H   0  0  0  0  0  0  0  0  0  0  0  0
    1.1583   12.2410   -2.4386 H   0  0  0  0  0  0  0  0  0  0  0  0
   -1.2450   10.5795   -1.4605 H   0  0  0  0  0  0  0  0  0  0  0  0
   -1.1493   11.5726   -2.9823 H   0  0  0  0  0  0  0  0  0  0  0  0
   -0.8748    9.1535   -3.4228 H   0  0  0  0  0  0  0  0  0  0  0  0
    0.5884   10.1220   -3.8566 H   0  0  0  0  0  0  0  0  0  0  0  0
    1.2953    8.1097   -2.7581 H   0  0  0  0  0  0  0  0  0  0  0  0
    0.4310    7.4780   -0.8080 H   0  0  0  0  0  0  0  0  0  0  0  0
    3.9571   10.3765   -1.9699 H   0  0  0  0  0  0  0  0  0  0  0  0
    3.2733    9.1710   -3.1127 H   0  0  0  0  0  0  0  0  0  0  0  0
    2.6577   10.8585   -3.1127 H   0  0  0  0  0  0  0  0  0  0  0  0
    2.4500    8.9961    0.5927 H   0  0  0  0  0  0  0  0  0  0  0  0
    2.3067    7.6632   -0.6030 H   0  0  0  0  0  0  0  0  0  0  0  0
    3.7613    8.7172   -0.6030 H   0  0  0  0  0  0  0  0  0  0  0  0
   -1.1731   12.8427    0.9107 H   0  0  0  0  0  0  0  0  0  0  0  0
   -2.1430   13.5192   -0.4414 H   0  0  0  0  0  0  0  0  0  0  0  0
   -1.6924   11.7803   -0.4414 H   0  0  0  0  0  0  0  0  0  0  0  0
   -0.8001   13.6161   -2.9284 H   0  0  0  0  0  0  0  0  0  0  0  0
   -1.1989   14.8266   -1.5832 H   0  0  0  0  0  0  0  0  0  0  0  0
    1.3957   14.5683   -3.1288 H   0  0  0  0  0  0  0  0  0  0  0  0
    0.2054   15.9285   -3.1406 H   0  0  0  0  0  0  0  0  0  0  0  0
    0.4858   16.5187    0.5178 H   0  0  0  0  0  0  0  0  0  0  0  0
    0.4564   17.7049   -0.8308 H   0  0  0  0  0  0  0  0  0  0  0  0
   -0.6833   16.3165   -0.8308 H   0  0  0  0  0  0  0  0  0  0  0  0
  1  2  1  0
  2  3  1  0
  3  4  1  0
  4  5  1  0
  5  6  1  0
  6  7  1  0
  7  8  1  0
  7  9  1  0
  2 10  1  0
 10 11  1  0
 11 12  1  0
 12 13  1  0
 13 14  1  6
 13 15  1  0
 15 16  1  0
 16 17  1  0
 17 18  2  0
 18 19  1  0
 19 20  1  0
 20 21  1  0
 21 22  1  0
 22 23  1  0
 22 24  1  0
 24 25  1  0
 24 26  1  0
 19 27  1  0
 27 28  1  1
 27 29  1  0
 29 30  1  0
 30 31  1  0
 31 32  1  1
  7  5  1  0
 31 10  1  0
 31 13  1  0
 27 15  1  0
 24 18  1  0
  1 33  1  0
  1 34  1  0
  1 35  1  0
  2 36  1  6
  3 37  1  0
  3 38  1  0
  4 39  1  0
  4 40  1  0
  5 41  1  6
  8 42  1  0
  8 43  1  0
  8 44  1  0
  9 45  1  0
  9 46  1  0
  9 47  1  0
 10 48  1  6
 11 49  1  0
 11 50  1  0
 12 51  1  0
 12 52  1  0
 14 53  1  0
 14 54  1  0
 14 55  1  0
 15 56  1  1
 16 57  1  0
 16 58  1  0
 17 59  1  0
 19 60  1  6
 20 61  1  0
 20 62  1  0
 21 63  1  0
 21 64  1  0
 22 65  1  6
 23 66  1  0
 25 67  1  0
 25 68  1  0
 25 69  1  0
 26 70  1  0
 26 71  1  0
 26 72  1  0
 28 73  1  0
 28 74  1  0
 28 75  1  0
 29 76  1  0
 29 77  1  0
 30 78  1  0
 30 79  1  0
 32 80  1  0
 32 81  1  0
 32 82  1  0
M  END
>  <meeko>  (10) 
{"is_sidechain": [false], "intermolecular_energy": 2.731, "internal_energy": -0.839}

$$$$
EPH_relaxed_0001_pdb2pqr_Repair_4_r2_0001_out
     RDKit          3D

 82 86  0  0  0  0  0  0  0  0999 V2000
   -0.9540   16.3880   -5.9110 C   0  0  0  0  0  0  0  0  0  0  0  0
    0.1650   15.7030   -6.7000 C   0  0  2  0  0  0  0  0  0  0  0  0
   -0.2090   15.5020   -8.1830 C   0  0  0  0  0  0  0  0  0  0  0  0
    0.4460   16.5150   -9.1250 C   0  0  0  0  0  0  0  0  0  0  0  0
    1.8510   16.1240   -9.4700 C   0  0  2  0  0  0  0  0  0  0  0  0
    2.3470   16.6870  -10.6920 O   0  0  0  0  0  0  0  0  0  0  0  0
    2.2090   15.2570  -10.6630 C   0  0  0  0  0  0  0  0  0  0  0  0
    1.1580   14.7270  -11.5860 C   0  0  0  0  0  0  0  0  0  0  0  0
    3.5160   14.5260  -10.6490 C   0  0  0  0  0  0  0  0  0  0  0  0
    0.5050   14.3610   -6.0620 C   0  0  1  0  0  0  0  0  0  0  0  0
    1.7260   13.6740   -6.7290 C   0  0  0  0  0  0  0  0  0  0  0  0
    2.4890   12.9280   -5.6050 C   0  0  0  0  0  0  0  0  0  0  0  0
    1.5140   12.9300   -4.4040 C   0  0  1  0  0  0  0  0  0  0  0  0
    0.5270   11.7550   -4.6870 C   0  0  0  0  0  0  0  0  0  0  0  0
    2.1630   12.8100   -2.9870 C   0  0  2  0  0  0  0  0  0  0  0  0
    2.9330   11.5020   -2.7300 C   0  0  0  0  0  0  0  0  0  0  0  0
    2.1260   10.3910   -2.1460 C   0  0  0  0  0  0  0  0  0  0  0  0
    0.9130   10.5210   -1.5770 C   0  0  0  0  0  0  0  0  0  0  0  0
    0.2750   11.9030   -1.3900 C   0  0  1  0  0  0  0  0  0  0  0  0
   -0.2920   12.0220    0.0500 C   0  0  0  0  0  0  0  0  0  0  0  0
   -1.2480   10.8860    0.3970 C   0  0  0  0  0  0  0  0  0  0  0  0
   -0.5600    9.5300    0.2560 C   0  0  2  0  0  0  0  0  0  0  0  0
    0.4610    9.4250    1.2530 O   0  0  0  0  0  0  0  0  0  0  0  0
    0.0580    9.3020   -1.1520 C   0  0  0  0  0  0  0  0  0  0  0  0
   -1.0730    9.1140   -2.1930 C   0  0  0  0  0  0  0  0  0  0  0  0
    0.8420    7.9620   -1.1170 C   0  0  0  0  0  0  0  0  0  0  0  0
    1.1800   13.1460   -1.7930 C   0  0  1  0  0  0  0  0  0  0  0  0
    2.0730   13.5680   -0.5870 C   0  0  0  0  0  0  0  0  0  0  0  0
    0.2520   14.3770   -2.1110 C   0  0  0  0  0  0  0  0  0  0  0  0
   -0.2600   14.5060   -3.5580 C   0  0  0  0  0  0  0  0  0  0  0  0
    0.8890   14.3630   -4.5610 C   0  0  2  0  0  0  0  0  0  0  0  0
    1.8870   15.5450   -4.3150 C   0  0  0  0  0  0  0  0  0  0  0  0
   -0.7662   16.2730   -4.8333 H   0  0  0  0  0  0  0  0  0  0  0  0
   -0.9810   17.4576   -6.1664 H   0  0  0  0  0  0  0  0  0  0  0  0
   -1.9188   15.9256   -6.1664 H   0  0  0  0  0  0  0  0  0  0  0  0
    1.0443   16.3631   -6.6678 H   0  0  0  0  0  0  0  0  0  0  0  0
    0.1045   14.4922   -8.4865 H   0  0  0  0  0  0  0  0  0  0  0  0
   -1.2967   15.6452   -8.2627 H   0  0  0  0  0  0  0  0  0  0  0  0
   -0.1449   16.5745  -10.0509 H   0  0  0  0  0  0  0  0  0  0  0  0
    0.4770   17.4884   -8.6135 H   0  0  0  0  0  0  0  0  0  0  0  0
    2.1200   16.0618   -8.4052 H   0  0  0  0  0  0  0  0  0  0  0  0
    0.3290   14.3089  -10.9961 H   0  0  0  0  0  0  0  0  0  0  0  0
    0.7817   15.5431  -12.2203 H   0  0  0  0  0  0  0  0  0  0  0  0
    1.5905   13.9392  -12.2203 H   0  0  0  0  0  0  0  0  0  0  0  0
    3.8275   14.3518   -9.6085 H   0  0  0  0  0  0  0  0  0  0  0  0
    3.4018   13.5608  -11.1641 H   0  0  0  0  0  0  0  0  0  0  0  0
    4.2786   15.1285  -11.1641 H   0  0  0  0  0  0  0  0  0  0  0  0
   -0.4545   13.8422   -6.2043 H   0  0  0  0  0  0  0  0  0  0  0  0
    1.3875   12.9607   -7.4949 H   0  0  0  0  0  0  0  0  0  0  0  0
    2.3740   14.4132   -7.2226 H   0  0  0  0  0  0  0  0  0  0  0  0
    2.7242   11.8984   -5.9125 H   0  0  0  0  0  0  0  0  0  0  0  0
    3.4493   13.4071   -5.3636 H   0  0  0  0  0  0  0  0  0  0  0  0
    0.1741   11.3349   -3.7336 H   0  0  0  0  0  0  0  0  0  0  0  0
   -0.3322   12.1286   -5.2634 H   0  0  0  0  0  0  0  0  0  0  0  0
    1.0433   10.9732   -5.2634 H   0  0  0  0  0  0  0  0  0  0  0  0
    2.9231   13.6049   -3.0081 H   0  0  0  0  0  0  0  0  0  0  0  0
    3.3439   11.1554   -3.6897 H   0  0  0  0  0  0  0  0  0  0  0  0
    3.7028   11.7442   -1.9825 H   0  0  0  0  0  0  0  0  0  0  0  0
    2.5589    9.3805   -2.1836 H   0  0  0  0  0  0  0  0  0  0  0  0
   -0.5454   11.9592   -2.1206 H   0  0  0  0  0  0  0  0  0  0  0  0
    0.5466   12.0071    0.7617 H   0  0  0  0  0  0  0  0  0  0  0  0
   -0.8567   12.9641    0.1100 H   0  0  0  0  0  0  0  0  0  0  0  0
   -1.5914   11.0091    1.4348 H   0  0  0  0  0  0  0  0  0  0  0  0
   -2.1004   10.9206   -0.2974 H   0  0  0  0  0  0  0  0  0  0  0  0
   -1.3276    8.7539    0.3916 H   0  0  0  0  0  0  0  0  0  0  0  0
    0.0270    9.4540    2.1220 H   0  0  0  0  0  0  0  0  0  0  0  0
   -2.0285    8.9552   -1.6717 H   0  0  0  0  0  0  0  0  0  0  0  0
   -1.1442   10.0126   -2.8234 H   0  0  0  0  0  0  0  0  0  0  0  0
   -0.8497    8.2407   -2.8234 H   0  0  0  0  0  0  0  0  0  0  0  0
    1.0153    7.6658   -0.0719 H   0  0  0  0  0  0  0  0  0  0  0  0
    0.2578    7.1820   -1.6271 H   0  0  0  0  0  0  0  0  0  0  0  0
    1.8082    8.0891   -1.6271 H   0  0  0  0  0  0  0  0  0  0  0  0
    1.5576   13.3244    0.3538 H   0  0  0  0  0  0  0  0  0  0  0  0
    3.0295   13.0266   -0.6319 H   0  0  0  0  0  0  0  0  0  0  0  0
    2.2620   14.6507   -0.6319 H   0  0  0  0  0  0  0  0  0  0  0  0
   -0.6263   14.3105   -1.4520 H   0  0  0  0  0  0  0  0  0  0  0  0
    0.8839   15.2628   -1.9495 H   0  0  0  0  0  0  0  0  0  0  0  0
   -1.0038   13.7182   -3.7481 H   0  0  0  0  0  0  0  0  0  0  0  0
   -0.7125   15.5009   -3.6825 H   0  0  0  0  0  0  0  0  0  0  0  0
    2.0155   15.6972   -3.2332 H   0  0  0  0  0  0  0  0  0  0  0  0
    2.8594   15.3045   -4.7695 H   0  0  0  0  0  0  0  0  0  0  0  0
    1.4869   16.4633   -4.7695 H   0  0  0  0  0  0  0  0  0  0  0  0
  1  2  1  0
  2  3  1  0
  3  4  1  0
  4  5  1  0
  5  6  1  0
  6  7  1  0
  7  8  1  0
  7  9  1  0
  2 10  1  0
 10 11  1  0
 11 12  1  0
 12 13  1  0
 13 14  1  6
 13 15  1  0
 15 16  1  0
 16 17  1  0
 17 18  2  0
 18 19  1  0
 19 20  1  0
 20 21  1  0
 21 22  1  0
 22 23  1  0
 22 24  1  0
 24 25  1  0
 24 26  1  0
 19 27  1  0
 27 28  1  1
 27 29  1  0
 29 30  1  0
 30 31  1  0
 31 32  1  6
  7  5  1  0
 31 10  1  0
 31 13  1  0
 27 15  1  0
 24 18  1  0
  1 33  1  0
  1 34  1  0
  1 35  1  0
  2 36  1  6
  3 37  1  0
  3 38  1  0
  4 39  1  0
  4 40  1  0
  5 41  1  1
  8 42  1  0
  8 43  1  0
  8 44  1  0
  9 45  1  0
  9 46  1  0
  9 47  1  0
 10 48  1  1
 11 49  1  0
 11 50  1  0
 12 51  1  0
 12 52  1  0
 14 53  1  0
 14 54  1  0
 14 55  1  0
 15 56  1  6
 16 57  1  0
 16 58  1  0
 17 59  1  0
 19 60  1  6
 20 61  1  0
 20 62  1  0
 21 63  1  0
 21 64  1  0
 22 65  1  1
 23 66  1  0
 25 67  1  0
 25 68  1  0
 25 69  1  0
 26 70  1  0
 26 71  1  0
 26 72  1  0
 28 73  1  0
 28 74  1  0
 28 75  1  0
 29 76  1  0
 29 77  1  0
 30 78  1  0
 30 79  1  0
 32 80  1  0
 32 81  1  0
 32 82  1  0
M  END
>  <meeko>  (11) 
{"is_sidechain": [false], "intermolecular_energy": 2.731, "internal_energy": -0.839}

$$$$
EPH_relaxed_0001_pdb2pqr_Repair_4_r2_0001_out
     RDKit          3D

 82 86  0  0  0  0  0  0  0  0999 V2000
   -0.0180    9.4410   -2.6630 C   0  0  0  0  0  0  0  0  0  0  0  0
    1.0940   10.4270   -3.0330 C   0  0  2  0  0  0  0  0  0  0  0  0
    2.4780    9.7490   -3.0830 C   0  0  0  0  0  0  0  0  0  0  0  0
    3.4650   10.4350   -4.0320 C   0  0  0  0  0  0  0  0  0  0  0  0
    4.8200   10.5830   -3.4090 C   0  0  2  0  0  0  0  0  0  0  0  0
    5.4310   11.8660   -3.6020 O   0  0  0  0  0  0  0  0  0  0  0  0
    6.0960   10.7490   -4.2130 C   0  0  0  0  0  0  0  0  0  0  0  0
    6.0780   10.7740   -5.7090 C   0  0  0  0  0  0  0  0  0  0  0  0
    7.4000   10.3960   -3.5670 C   0  0  0  0  0  0  0  0  0  0  0  0
    1.1150   11.5820   -2.0390 C   0  0  1  0  0  0  0  0  0  0  0  0
    2.1830   11.3950   -0.9290 C   0  0  0  0  0  0  0  0  0  0  0  0
    2.7290   12.8070   -0.5910 C   0  0  0  0  0  0  0  0  0  0  0  0
    1.7360   13.7810   -1.2670 C   0  0  1  0  0  0  0  0  0  0  0  0
    0.5300   13.8730   -0.2800 C   0  0  0  0  0  0  0  0  0  0  0  0
    2.2940   15.1950   -1.6300 C   0  0  2  0  0  0  0  0  0  0  0  0
    2.7560   16.0420   -0.4310 C   0  0  0  0  0  0  0  0  0  0  0  0
    1.7090   16.9180    0.1720 C   0  0  0  0  0  0  0  0  0  0  0  0
    0.5330   17.2390   -0.3990 C   0  0  0  0  0  0  0  0  0  0  0  0
    0.2000   16.7820   -1.8250 C   0  0  1  0  0  0  0  0  0  0  0  0
   -0.3780   17.9760   -2.6300 C   0  0  0  0  0  0  0  0  0  0  0  0
   -1.5680   18.6300   -1.9340 C   0  0  0  0  0  0  0  0  0  0  0  0
   -1.1810   19.1230   -0.5420 C   0  0  2  0  0  0  0  0  0  0  0  0
   -0.2420   20.1940   -0.6770 O   0  0  0  0  0  0  0  0  0  0  0  0
   -0.5770   18.0080    0.3580 C   0  0  0  0  0  0  0  0  0  0  0  0
   -1.6850   17.0000    0.7510 C   0  0  0  0  0  0  0  0  0  0  0  0
   -0.1010   18.6680    1.6800 C   0  0  0  0  0  0  0  0  0  0  0  0
    1.3640   16.0290   -2.6020 C   0  0  1  0  0  0  0  0  0  0  0  0
    2.2840   17.0660   -3.3170 C   0  0  0  0  0  0  0  0  0  0  0  0
    0.7330   15.1380   -3.7370 C   0  0  0  0  0  0  0  0  0  0  0  0
    0.3110   13.7100   -3.3440 C   0  0  0  0  0  0  0  0  0  0  0  0
    1.4370   12.9920   -2.5940 C   0  0  2  0  0  0  0  0  0  0  0  0
    2.6570   12.8650   -3.5690 C   0  0  0  0  0  0  0  0  0  0  0  0
   -0.0968    9.3712   -1.5680 H   0  0  0  0  0  0  0  0  0  0  0  0
   -0.9738    9.7938   -3.0776 H   0  0  0  0  0  0  0  0  0  0  0  0
    0.2179    8.4498   -3.0776 H   0  0  0  0  0  0  0  0  0  0  0  0
    0.8770   10.8083   -4.0417 H   0  0  0  0  0  0  0  0  0  0  0  0
    2.9064    9.7587   -2.0699 H   0  0  0  0  0  0  0  0  0  0  0  0
    2.3228    8.7285   -3.4630 H   0  0  0  0  0  0  0  0  0  0  0  0
    3.5573    9.8321   -4.9474 H   0  0  0  0  0  0  0  0  0  0  0  0
    3.0802   11.4401   -4.2596 H   0  0  0  0  0  0  0  0  0  0  0  0
    4.5457    9.8988   -2.5926 H   0  0  0  0  0  0  0  0  0  0  0  0
    5.4677   11.6216   -6.0542 H   0  0  0  0  0  0  0  0  0  0  0  0
    7.1054   10.8842   -6.0863 H   0  0  0  0  0  0  0  0  0  0  0  0
    5.6476    9.8346   -6.0863 H   0  0  0  0  0  0  0  0  0  0  0  0
    7.2874   10.4265   -2.4732 H   0  0  0  0  0  0  0  0  0  0  0  0
    7.7005    9.3842   -3.8766 H   0  0  0  0  0  0  0  0  0  0  0  0
    8.1699   11.1181   -3.8766 H   0  0  0  0  0  0  0  0  0  0  0  0
    0.0724   11.5444   -1.6903 H   0  0  0  0  0  0  0  0  0  0  0  0
    1.7266   10.9417   -0.0367 H   0  0  0  0  0  0  0  0  0  0  0  0
    2.9911   10.7294   -1.2665 H   0  0  0  0  0  0  0  0  0  0  0  0
    2.7485   12.9656    0.4973 H   0  0  0  0  0  0  0  0  0  0  0  0
    3.7607   12.9510   -0.9443 H   0  0  0  0  0  0  0  0  0  0  0  0
    0.9005   13.8447    0.7553 H   0  0  0  0  0  0  0  0  0  0  0  0
   -0.0118   14.8151   -0.4499 H   0  0  0  0  0  0  0  0  0  0  0  0
   -0.1485   13.0240   -0.4499 H   0  0  0  0  0  0  0  0  0  0  0  0
    3.2070   14.9506   -2.1928 H   0  0  0  0  0  0  0  0  0  0  0  0
    3.1170   15.3568    0.3501 H   0  0  0  0  0  0  0  0  0  0  0  0
    3.5328   16.7182   -0.8175 H   0  0  0  0  0  0  0  0  0  0  0  0
    1.9159   17.3370    1.1678 H   0  0  0  0  0  0  0  0  0  0  0  0
   -0.5633   15.9967   -1.7217 H   0  0  0  0  0  0  0  0  0  0  0  0
    0.4127   18.7297   -2.7593 H   0  0  0  0  0  0  0  0  0  0  0  0
   -0.7293   17.5875   -3.5973 H   0  0  0  0  0  0  0  0  0  0  0  0
   -1.9125   19.4840   -2.5357 H   0  0  0  0  0  0  0  0  0  0  0  0
   -2.3696   17.8836   -1.8324 H   0  0  0  0  0  0  0  0  0  0  0  0
   -2.1017   19.4621   -0.0447 H   0  0  0  0  0  0  0  0  0  0  0  0
    0.0780   20.4190    0.2140 H   0  0  0  0  0  0  0  0  0  0  0  0
   -1.7527   16.9384    1.8472 H   0  0  0  0  0  0  0  0  0  0  0  0
   -2.6491   17.3371    0.3425 H   0  0  0  0  0  0  0  0  0  0  0  0
   -1.4403   16.0084    0.3425 H   0  0  0  0  0  0  0  0  0  0  0  0
   -0.5052   18.1076    2.5359 H   0  0  0  0  0  0  0  0  0  0  0  0
    0.9982   18.6567    1.7204 H   0  0  0  0  0  0  0  0  0  0  0  0
   -0.4587   19.7074    1.7204 H   0  0  0  0  0  0  0  0  0  0  0  0
    2.8158   17.6654   -2.5634 H   0  0  0  0  0  0  0  0  0  0  0  0
    3.0144   16.5359   -3.9459 H   0  0  0  0  0  0  0  0  0  0  0  0
    1.6707   17.7280   -3.9459 H   0  0  0  0  0  0  0  0  0  0  0  0
   -0.1612   15.6585   -4.1104 H   0  0  0  0  0  0  0  0  0  0  0  0
    1.5339   15.0076   -4.4797 H   0  0  0  0  0  0  0  0  0  0  0  0
   -0.5764   13.7626   -2.6961 H   0  0  0  0  0  0  0  0  0  0  0  0
    0.0855   13.1461   -4.2612 H   0  0  0  0  0  0  0  0  0  0  0  0
    3.5843   12.7685   -2.9853 H   0  0  0  0  0  0  0  0  0  0  0  0
    2.5286   11.9754   -4.2031 H   0  0  0  0  0  0  0  0  0  0  0  0
    2.7146   13.7620   -4.2031 H   0  0  0  0  0  0  0  0  0  0  0  0
  1  2  1  0
  2  3  1  0
  3  4  1  0
  4  5  1  0
  5  6  1  0
  6  7  1  0
  7  8  1  0
  7  9  1  0
  2 10  1  0
 10 11  1  0
 11 12  1  0
 12 13  1  0
 13 14  1  1
 13 15  1  0
 15 16  1  0
 16 17  1  0
 17 18  2  0
 18 19  1  0
 19 20  1  0
 20 21  1  0
 21 22  1  0
 22 23  1  0
 22 24  1  0
 24 25  1  0
 24 26  1  0
 19 27  1  0
 27 28  1  6
 27 29  1  0
 29 30  1  0
 30 31  1  0
 31 32  1  6
  7  5  1  0
 31 10  1  0
 31 13  1  0
 27 15  1  0
 24 18  1  0
  1 33  1  0
  1 34  1  0
  1 35  1  0
  2 36  1  6
  3 37  1  0
  3 38  1  0
  4 39  1  0
  4 40  1  0
  5 41  1  1
  8 42  1  0
  8 43  1  0
  8 44  1  0
  9 45  1  0
  9 46  1  0
  9 47  1  0
 10 48  1  1
 11 49  1  0
 11 50  1  0
 12 51  1  0
 12 52  1  0
 14 53  1  0
 14 54  1  0
 14 55  1  0
 15 56  1  6
 16 57  1  0
 16 58  1  0
 17 59  1  0
 19 60  1  1
 20 61  1  0
 20 62  1  0
 21 63  1  0
 21 64  1  0
 22 65  1  1
 23 66  1  0
 25 67  1  0
 25 68  1  0
 25 69  1  0
 26 70  1  0
 26 71  1  0
 26 72  1  0
 28 73  1  0
 28 74  1  0
 28 75  1  0
 29 76  1  0
 29 77  1  0
 30 78  1  0
 30 79  1  0
 32 80  1  0
 32 81  1  0
 32 82  1  0
M  END
>  <meeko>  (12) 
{"is_sidechain": [false], "intermolecular_energy": 2.731, "internal_energy": -0.839}

$$$$
EPH_relaxed_0001_pdb2pqr_Repair_4_r2_0001_out
     RDKit          3D

 82 86  0  0  0  0  0  0  0  0999 V2000
    3.0480   19.1220   -1.7530 C   0  0  0  0  0  0  0  0  0  0  0  0
    1.5430   19.0320   -1.4820 C   0  0  2  0  0  0  0  0  0  0  0  0
    1.0690   20.1020   -0.4780 C   0  0  0  0  0  0  0  0  0  0  0  0
    1.6290   19.9140    0.9340 C   0  0  0  0  0  0  0  0  0  0  0  0
    3.1210   19.7670    0.9230 C   0  0  2  0  0  0  0  0  0  0  0  0
    3.6120   18.5980    1.5920 O   0  0  0  0  0  0  0  0  0  0  0  0
    3.9790   19.8600    2.1710 C   0  0  0  0  0  0  0  0  0  0  0  0
    3.3750   20.1120    3.5170 C   0  0  0  0  0  0  0  0  0  0  0  0
    5.4310   20.1940    2.0170 C   0  0  0  0  0  0  0  0  0  0  0  0
    1.1910   17.6420   -0.9650 C   0  0  1  0  0  0  0  0  0  0  0  0
   -0.0880   17.6370   -0.0870 C   0  0  0  0  0  0  0  0  0  0  0  0
   -0.8150   16.2950   -0.3630 C   0  0  0  0  0  0  0  0  0  0  0  0
    0.2230   15.4390   -1.1250 C   0  0  1  0  0  0  0  0  0  0  0  0
    1.1510   14.8520   -0.0160 C   0  0  0  0  0  0  0  0  0  0  0  0
   -0.3520   14.3160   -2.0490 C   0  0  2  0  0  0  0  0  0  0  0  0
   -1.1530   13.2210   -1.3240 C   0  0  0  0  0  0  0  0  0  0  0  0
   -0.3550   12.0450   -0.8660 C   0  0  0  0  0  0  0  0  0  0  0  0
    0.8910   11.7380   -1.2740 C   0  0  0  0  0  0  0  0  0  0  0  0
    1.5870   12.5610   -2.3660 C   0  0  1  0  0  0  0  0  0  0  0  0
    2.2340   11.6050   -3.4010 C   0  0  0  0  0  0  0  0  0  0  0  0
    3.1680   10.5860   -2.7540 C   0  0  0  0  0  0  0  0  0  0  0  0
    2.4250    9.7490   -1.7160 C   0  0  2  0  0  0  0  0  0  0  0  0
    1.4560    8.9370   -2.3870 O   0  0  0  0  0  0  0  0  0  0  0  0
    1.7230   10.6050   -0.6260 C   0  0  0  0  0  0  0  0  0  0  0  0
    2.7890   11.2510    0.2950 C   0  0  0  0  0  0  0  0  0  0  0  0
    0.8950    9.6480    0.2740 C   0  0  0  0  0  0  0  0  0  0  0  0
    0.7060   13.6940   -3.0480 C   0  0  1  0  0  0  0  0  0  0  0  0
   -0.1050   13.0930   -4.2380 C   0  0  0  0  0  0  0  0  0  0  0  0
    1.6590   14.7840   -3.6660 C   0  0  0  0  0  0  0  0  0  0  0  0
    2.0960   15.9320   -2.7370 C   0  0  0  0  0  0  0  0  0  0  0  0
    0.8900   16.5470   -2.0190 C   0  0  2  0  0  0  0  0  0  0  0  0
   -0.0510   17.1640   -3.1090 C   0  0  0  0  0  0  0  0  0  0  0  0
    3.5914   19.1545   -0.7971 H   0  0  0  0  0  0  0  0  0  0  0  0
    3.3703   18.2415   -2.3282 H   0  0  0  0  0  0  0  0  0  0  0  0
    3.2631   20.0346   -2.3282 H   0  0  0  0  0  0  0  0  0  0  0  0
    1.0235   19.2183   -2.4335 H   0  0  0  0  0  0  0  0  0  0  0  0
    1.3844   21.0888   -0.8478 H   0  0  0  0  0  0  0  0  0  0  0  0
   -0.0247   20.0105   -0.4042 H   0  0  0  0  0  0  0  0  0  0  0  0
    1.3614   20.7899    1.5433 H   0  0  0  0  0  0  0  0  0  0  0  0
    1.1966   18.9944    1.3551 H   0  0  0  0  0  0  0  0  0  0  0  0
    3.1869   20.2628   -0.0567 H   0  0  0  0  0  0  0  0  0  0  0  0
    4.0878   19.8146    4.3002 H   0  0  0  0  0  0  0  0  0  0  0  0
    3.1425   21.1822    3.6200 H   0  0  0  0  0  0  0  0  0  0  0  0
    2.4508   19.5244    3.6200 H   0  0  0  0  0  0  0  0  0  0  0  0
    5.8904   20.2997    3.0109 H   0  0  0  0  0  0  0  0  0  0  0  0
    5.9358   19.3885    1.4635 H   0  0  0  0  0  0  0  0  0  0  0  0
    5.5331   21.1391    1.4635 H   0  0  0  0  0  0  0  0  0  0  0  0
    2.1216   17.4034   -0.4293 H   0  0  0  0  0  0  0  0  0  0  0  0
    0.1825   17.7095    0.9768 H   0  0  0  0  0  0  0  0  0  0  0  0
   -0.7352   18.4934   -0.3271 H   0  0  0  0  0  0  0  0  0  0  0  0
   -1.1027   15.8079    0.5804 H   0  0  0  0  0  0  0  0  0  0  0  0
   -1.7433   16.4336   -0.9366 H   0  0  0  0  0  0  0  0  0  0  0  0
    0.7462   15.1080    0.9742 H   0  0  0  0  0  0  0  0  0  0  0  0
    1.2003   13.7581   -0.1203 H   0  0  0  0  0  0  0  0  0  0  0  0
    2.1606   15.2761   -0.1203 H   0  0  0  0  0  0  0  0  0  0  0  0
   -1.0835   14.8648   -2.6604 H   0  0  0  0  0  0  0  0  0  0  0  0
   -1.6271   13.6747   -0.4412 H   0  0  0  0  0  0  0  0  0  0  0  0
   -1.8727   12.8327   -2.0597 H   0  0  0  0  0  0  0  0  0  0  0  0
   -0.8248   11.3725   -0.1332 H   0  0  0  0  0  0  0  0  0  0  0  0
    2.3688   13.1433   -1.8564 H   0  0  0  0  0  0  0  0  0  0  0  0
    1.4348   11.0647   -3.9295 H   0  0  0  0  0  0  0  0  0  0  0  0
    2.8342   12.2168   -4.0905 H   0  0  0  0  0  0  0  0  0  0  0  0
    3.5701    9.9208   -3.5323 H   0  0  0  0  0  0  0  0  0  0  0  0
    3.9839   11.1262   -2.2515 H   0  0  0  0  0  0  0  0  0  0  0  0
    3.1715    9.1306   -1.1961 H   0  0  0  0  0  0  0  0  0  0  0  0
    1.9330    8.3710   -3.0180 H   0  0  0  0  0  0  0  0  0  0  0  0
    2.5141   11.0844    1.3470 H   0  0  0  0  0  0  0  0  0  0  0  0
    3.7702   10.7954    0.0958 H   0  0  0  0  0  0  0  0  0  0  0  0
    2.8393   12.3317    0.0958 H   0  0  0  0  0  0  0  0  0  0  0  0
    1.0928    9.8766    1.3317 H   0  0  0  0  0  0  0  0  0  0  0  0
   -0.1764    9.7824    0.0639 H   0  0  0  0  0  0  0  0  0  0  0  0
    1.1821    8.6071    0.0639 H   0  0  0  0  0  0  0  0  0  0  0  0
   -0.9310   12.4809   -3.8467 H   0  0  0  0  0  0  0  0  0  0  0  0
   -0.5126   13.9088   -4.8531 H   0  0  0  0  0  0  0  0  0  0  0  0
    0.5569   12.4656   -4.8531 H   0  0  0  0  0  0  0  0  0  0  0  0
    2.5687   14.2723   -4.0132 H   0  0  0  0  0  0  0  0  0  0  0  0
    1.0690   15.2652   -4.4600 H   0  0  0  0  0  0  0  0  0  0  0  0
    2.7995   15.5403   -1.9875 H   0  0  0  0  0  0  0  0  0  0  0  0
    2.5764   16.7120   -3.3460 H   0  0  0  0  0  0  0  0  0  0  0  0
   -0.8747   17.7041   -2.6192 H   0  0  0  0  0  0  0  0  0  0  0  0
    0.5229   17.8617   -3.7366 H   0  0  0  0  0  0  0  0  0  0  0  0
   -0.4620   16.3595   -3.7366 H   0  0  0  0  0  0  0  0  0  0  0  0
  1  2  1  0
  2  3  1  0
  3  4  1  0
  4  5  1  0
  5  6  1  0
  6  7  1  0
  7  8  1  0
  7  9  1  0
  2 10  1  0
 10 11  1  0
 11 12  1  0
 12 13  1  0
 13 14  1  1
 13 15  1  0
 15 16  1  0
 16 17  1  0
 17 18  2  0
 18 19  1  0
 19 20  1  0
 20 21  1  0
 21 22  1  0
 22 23  1  0
 22 24  1  0
 24 25  1  0
 24 26  1  0
 19 27  1  0
 27 28  1  6
 27 29  1  0
 29 30  1  0
 30 31  1  0
 31 32  1  6
  7  5  1  0
 31 10  1  0
 31 13  1  0
 27 15  1  0
 24 18  1  0
  1 33  1  0
  1 34  1  0
  1 35  1  0
  2 36  1  6
  3 37  1  0
  3 38  1  0
  4 39  1  0
  4 40  1  0
  5 41  1  6
  8 42  1  0
  8 43  1  0
  8 44  1  0
  9 45  1  0
  9 46  1  0
  9 47  1  0
 10 48  1  1
 11 49  1  0
 11 50  1  0
 12 51  1  0
 12 52  1  0
 14 53  1  0
 14 54  1  0
 14 55  1  0
 15 56  1  6
 16 57  1  0
 16 58  1  0
 17 59  1  0
 19 60  1  1
 20 61  1  0
 20 62  1  0
 21 63  1  0
 21 64  1  0
 22 65  1  1
 23 66  1  0
 25 67  1  0
 25 68  1  0
 25 69  1  0
 26 70  1  0
 26 71  1  0
 26 72  1  0
 28 73  1  0
 28 74  1  0
 28 75  1  0
 29 76  1  0
 29 77  1  0
 30 78  1  0
 30 79  1  0
 32 80  1  0
 32 81  1  0
 32 82  1  0
M  END
>  <meeko>  (13) 
{"is_sidechain": [false], "intermolecular_energy": 2.731, "internal_energy": -0.839}

$$$$
EPH_relaxed_0001_pdb2pqr_Repair_4_r2_0001_out
     RDKit          3D

 82 86  0  0  0  0  0  0  0  0999 V2000
   -3.7540    7.2370   -3.4770 C   0  0  0  0  0  0  0  0  0  0  0  0
   -3.7330    7.2860   -1.9460 C   0  0  2  0  0  0  0  0  0  0  0  0
   -5.1270    7.0310   -1.3380 C   0  0  0  0  0  0  0  0  0  0  0  0
   -6.2680    7.1210   -2.3540 C   0  0  0  0  0  0  0  0  0  0  0  0
   -7.5840    7.3850   -1.6880 C   0  0  2  0  0  0  0  0  0  0  0  0
   -8.2270    6.2220   -1.1500 O   0  0  0  0  0  0  0  0  0  0  0  0
   -8.9110    6.8830   -2.2270 C   0  0  0  0  0  0  0  0  0  0  0  0
   -8.9860    6.0770   -3.4860 C   0  0  0  0  0  0  0  0  0  0  0  0
  -10.1650    7.5820   -1.8060 C   0  0  0  0  0  0  0  0  0  0  0  0
   -3.1990    8.6340   -1.4770 C   0  0  1  0  0  0  0  0  0  0  0  0
   -3.8310    9.0940   -0.1370 C   0  0  0  0  0  0  0  0  0  0  0  0
   -2.7260    9.8520    0.6430 C   0  0  0  0  0  0  0  0  0  0  0  0
   -1.6090   10.0920   -0.3990 C   0  0  1  0  0  0  0  0  0  0  0  0
   -2.0740   11.3440   -1.2060 C   0  0  0  0  0  0  0  0  0  0  0  0
   -0.1630   10.2750    0.1680 C   0  0  2  0  0  0  0  0  0  0  0  0
    0.0290   11.4980    1.0820 C   0  0  0  0  0  0  0  0  0  0  0  0
    0.4440   12.7540    0.3900 C   0  0  0  0  0  0  0  0  0  0  0  0
    0.9290   12.8320   -0.8630 C   0  0  0  0  0  0  0  0  0  0  0  0
    1.1940   11.5650   -1.6860 C   0  0  1  0  0  0  0  0  0  0  0  0
    2.5910   11.6640   -2.3540 C   0  0  0  0  0  0  0  0  0  0  0  0
    2.7570   12.9390   -3.1760 C   0  0  0  0  0  0  0  0  0  0  0  0
    2.5430   14.1770   -2.3100 C   0  0  2  0  0  0  0  0  0  0  0  0
    3.6010   14.2570   -1.3500 O   0  0  0  0  0  0  0  0  0  0  0  0
    1.1710   14.1840   -1.5780 C   0  0  0  0  0  0  0  0  0  0  0  0
    0.0340   14.4010   -2.6070 C   0  0  0  0  0  0  0  0  0  0  0  0
    1.1410   15.4140   -0.6320 C   0  0  0  0  0  0  0  0  0  0  0  0
    0.9780   10.1860   -0.9250 C   0  0  1  0  0  0  0  0  0  0  0  0
    2.2840    9.7830   -0.1740 C   0  0  0  0  0  0  0  0  0  0  0  0
    0.7060    9.0520   -1.9830 C   0  0  0  0  0  0  0  0  0  0  0  0
   -0.7580    8.8400   -2.4140 C   0  0  0  0  0  0  0  0  0  0  0  0
   -1.6790    8.7380   -1.1940 C   0  0  2  0  0  0  0  0  0  0  0  0
   -1.2480    7.4730   -0.3750 C   0  0  0  0  0  0  0  0  0  0  0  0
   -4.1673    6.2726   -3.8074 H   0  0  0  0  0  0  0  0  0  0  0  0
   -4.3804    8.0554   -3.8615 H   0  0  0  0  0  0  0  0  0  0  0  0
   -2.7294    7.3478   -3.8615 H   0  0  0  0  0  0  0  0  0  0  0  0
   -3.0688    6.4813   -1.5978 H   0  0  0  0  0  0  0  0  0  0  0  0
   -5.1341    6.0236   -0.8964 H   0  0  0  0  0  0  0  0  0  0  0  0
   -5.3001    7.8188   -0.5901 H   0  0  0  0  0  0  0  0  0  0  0  0
   -6.0545    7.9387   -3.0582 H   0  0  0  0  0  0  0  0  0  0  0  0
   -6.3367    6.1566   -2.8786 H   0  0  0  0  0  0  0  0  0  0  0  0
   -7.2478    8.3820   -1.3670 H   0  0  0  0  0  0  0  0  0  0  0  0
   -9.0852    5.0110   -3.2335 H   0  0  0  0  0  0  0  0  0  0  0  0
   -9.8582    6.3971   -4.0749 H   0  0  0  0  0  0  0  0  0  0  0  0
   -8.0697    6.2306   -4.0749 H   0  0  0  0  0  0  0  0  0  0  0  0
  -10.2174    7.6112   -0.7076 H   0  0  0  0  0  0  0  0  0  0  0  0
  -10.1625    8.6089   -2.2004 H   0  0  0  0  0  0  0  0  0  0  0  0
  -11.0371    7.0399   -2.2004 H   0  0  0  0  0  0  0  0  0  0  0  0
   -3.4626    9.2495   -2.3497 H   0  0  0  0  0  0  0  0  0  0  0  0
   -4.6838    9.7614   -0.3300 H   0  0  0  0  0  0  0  0  0  0  0  0
   -4.2020    8.2341    0.4400 H   0  0  0  0  0  0  0  0  0  0  0  0
   -3.1092   10.8081    1.0289 H   0  0  0  0  0  0  0  0  0  0  0  0
   -2.3682    9.2862    1.5158 H   0  0  0  0  0  0  0  0  0  0  0  0
   -2.3700   12.1410   -0.5080 H   0  0  0  0  0  0  0  0  0  0  0  0
   -1.2479   11.6995   -1.8394 H   0  0  0  0  0  0  0  0  0  0  0  0
   -2.9318   11.0741   -1.8394 H   0  0  0  0  0  0  0  0  0  0  0  0
   -0.0514    9.3949    0.8183 H   0  0  0  0  0  0  0  0  0  0  0  0
   -0.9247   11.6919    1.5947 H   0  0  0  0  0  0  0  0  0  0  0  0
    0.8526   11.2409    1.7644 H   0  0  0  0  0  0  0  0  0  0  0  0
    0.3451   13.6948    0.9514 H   0  0  0  0  0  0  0  0  0  0  0  0
    0.4119   11.5354   -2.4589 H   0  0  0  0  0  0  0  0  0  0  0  0
    3.3599   11.6488   -1.5675 H   0  0  0  0  0  0  0  0  0  0  0  0
    2.6954   10.8092   -3.0385 H   0  0  0  0  0  0  0  0  0  0  0  0
    3.7725   12.9658   -3.5979 H   0  0  0  0  0  0  0  0  0  0  0  0
    2.0066   12.9388   -3.9803 H   0  0  0  0  0  0  0  0  0  0  0  0
    2.5460   15.0509   -2.9781 H   0  0  0  0  0  0  0  0  0  0  0  0
    3.2160   14.0880   -0.4730 H   0  0  0  0  0  0  0  0  0  0  0  0
   -0.9120   14.5815   -2.0755 H   0  0  0  0  0  0  0  0  0  0  0  0
    0.2716   15.2700   -3.2382 H   0  0  0  0  0  0  0  0  0  0  0  0
   -0.0651   13.5056   -3.2382 H   0  0  0  0  0  0  0  0  0  0  0  0
    1.1493   15.0726    0.4137 H   0  0  0  0  0  0  0  0  0  0  0  0
    2.0241   16.0425   -0.8196 H   0  0  0  0  0  0  0  0  0  0  0  0
    0.2283   15.9987   -0.8196 H   0  0  0  0  0  0  0  0  0  0  0  0
    2.1138    9.8355    0.9115 H   0  0  0  0  0  0  0  0  0  0  0  0
    2.5649    8.7564   -0.4519 H   0  0  0  0  0  0  0  0  0  0  0  0
    3.0945   10.4728   -0.4519 H   0  0  0  0  0  0  0  0  0  0  0  0
    1.2870    9.2927   -2.8855 H   0  0  0  0  0  0  0  0  0  0  0  0
    0.9970    8.1164   -1.4830 H   0  0  0  0  0  0  0  0  0  0  0  0
   -1.0768    9.6897   -3.0356 H   0  0  0  0  0  0  0  0  0  0  0  0
   -0.8239    7.9009   -2.9829 H   0  0  0  0  0  0  0  0  0  0  0  0
   -1.3219    7.6900    0.7008 H   0  0  0  0  0  0  0  0  0  0  0  0
   -1.9099    6.6309   -0.6255 H   0  0  0  0  0  0  0  0  0  0  0  0
   -0.2096    7.2103   -0.6255 H   0  0  0  0  0  0  0  0  0  0  0  0
  1  2  1  0
  2  3  1  0
  3  4  1  0
  4  5  1  0
  5  6  1  0
  6  7  1  0
  7  8  1  0
  7  9  1  0
  2 10  1  0
 10 11  1  0
 11 12  1  0
 12 13  1  0
 13 14  1  6
 13 15  1  0
 15 16  1  0
 16 17  1  0
 17 18  2  0
 18 19  1  0
 19 20  1  0
 20 21  1  0
 21 22  1  0
 22 23  1  0
 22 24  1  0
 24 25  1  0
 24 26  1  0
 19 27  1  0
 27 28  1  1
 27 29  1  0
 29 30  1  0
 30 31  1  0
 31 32  1  1
  7  5  1  0
 31 10  1  0
 31 13  1  0
 27 15  1  0
 24 18  1  0
  1 33  1  0
  1 34  1  0
  1 35  1  0
  2 36  1  1
  3 37  1  0
  3 38  1  0
  4 39  1  0
  4 40  1  0
  5 41  1  1
  8 42  1  0
  8 43  1  0
  8 44  1  0
  9 45  1  0
  9 46  1  0
  9 47  1  0
 10 48  1  6
 11 49  1  0
 11 50  1  0
 12 51  1  0
 12 52  1  0
 14 53  1  0
 14 54  1  0
 14 55  1  0
 15 56  1  1
 16 57  1  0
 16 58  1  0
 17 59  1  0
 19 60  1  6
 20 61  1  0
 20 62  1  0
 21 63  1  0
 21 64  1  0
 22 65  1  6
 23 66  1  0
 25 67  1  0
 25 68  1  0
 25 69  1  0
 26 70  1  0
 26 71  1  0
 26 72  1  0
 28 73  1  0
 28 74  1  0
 28 75  1  0
 29 76  1  0
 29 77  1  0
 30 78  1  0
 30 79  1  0
 32 80  1  0
 32 81  1  0
 32 82  1  0
M  END
>  <meeko>  (14) 
{"is_sidechain": [false], "intermolecular_energy": 2.731, "internal_energy": -0.839}

$$$$
EPH_relaxed_0001_pdb2pqr_Repair_4_r2_0001_out
     RDKit          3D

 82 86  0  0  0  0  0  0  0  0999 V2000
   -2.3320    7.8020   -2.2970 C   0  0  0  0  0  0  0  0  0  0  0  0
   -2.2790    8.3860   -0.8820 C   0  0  2  0  0  0  0  0  0  0  0  0
   -3.6570    8.3570   -0.1910 C   0  0  0  0  0  0  0  0  0  0  0  0
   -4.8350    8.3210   -1.1670 C   0  0  0  0  0  0  0  0  0  0  0  0
   -5.8530    7.2940   -0.7710 C   0  0  2  0  0  0  0  0  0  0  0  0
   -6.0900    6.2770   -1.7530 O   0  0  0  0  0  0  0  0  0  0  0  0
   -7.1980    7.1420   -1.4560 C   0  0  0  0  0  0  0  0  0  0  0  0
   -7.6000    8.0290   -2.5920 C   0  0  0  0  0  0  0  0  0  0  0  0
   -8.3080    6.4670   -0.7110 C   0  0  0  0  0  0  0  0  0  0  0  0
   -1.7500    9.8150   -0.9290 C   0  0  1  0  0  0  0  0  0  0  0  0
   -1.3310   10.3430    0.4680 C   0  0  0  0  0  0  0  0  0  0  0  0
   -0.1050   11.2670    0.2480 C   0  0  0  0  0  0  0  0  0  0  0  0
   -0.0650   11.5040   -1.2790 C   0  0  1  0  0  0  0  0  0  0  0  0
   -1.1170   12.6270   -1.5390 C   0  0  0  0  0  0  0  0  0  0  0  0
    1.3300   11.8670   -1.8850 C   0  0  2  0  0  0  0  0  0  0  0  0
    1.9400   13.1840   -1.3740 C   0  0  0  0  0  0  0  0  0  0  0  0
    1.5920   14.3990   -2.1670 C   0  0  0  0  0  0  0  0  0  0  0  0
    1.0580   14.4000   -3.4030 C   0  0  0  0  0  0  0  0  0  0  0  0
    0.8420   13.0890   -4.1680 C   0  0  1  0  0  0  0  0  0  0  0  0
    1.3570   13.2470   -5.6230 C   0  0  0  0  0  0  0  0  0  0  0  0
    0.7410   14.4470   -6.3350 C   0  0  0  0  0  0  0  0  0  0  0  0
    1.0270   15.7390   -5.5740 C   0  0  2  0  0  0  0  0  0  0  0  0
    2.4320   16.0030   -5.6280 O   0  0  0  0  0  0  0  0  0  0  0  0
    0.5600   15.6940   -4.0920 C   0  0  0  0  0  0  0  0  0  0  0  0
   -0.9880   15.7110   -4.0340 C   0  0  0  0  0  0  0  0  0  0  0  0
    1.0340   17.0020   -3.4020 C   0  0  0  0  0  0  0  0  0  0  0  0
    1.3940   11.7760   -3.4640 C   0  0  1  0  0  0  0  0  0  0  0  0
    2.8930   11.5630   -3.8370 C   0  0  0  0  0  0  0  0  0  0  0  0
    0.6160   10.5260   -4.0230 C   0  0  0  0  0  0  0  0  0  0  0  0
   -0.6940   10.1460   -3.3070 C   0  0  0  0  0  0  0  0  0  0  0  0
   -0.4890   10.0790   -1.7900 C   0  0  2  0  0  0  0  0  0  0  0  0
    0.5480    8.9410   -1.4970 C   0  0  0  0  0  0  0  0  0  0  0  0
   -2.4313    6.7080   -2.2387 H   0  0  0  0  0  0  0  0  0  0  0  0
   -3.1959    8.2205   -2.8343 H   0  0  0  0  0  0  0  0  0  0  0  0
   -1.4069    8.0581   -2.8343 H   0  0  0  0  0  0  0  0  0  0  0  0
   -1.5985    7.7571   -0.2892 H   0  0  0  0  0  0  0  0  0  0  0  0
   -3.7069    7.4619    0.4464 H   0  0  0  0  0  0  0  0  0  0  0  0
   -3.7465    9.2893    0.3860 H   0  0  0  0  0  0  0  0  0  0  0  0
   -5.3149    9.3107   -1.1830 H   0  0  0  0  0  0  0  0  0  0  0  0
   -4.4479    8.0540   -2.1614 H   0  0  0  0  0  0  0  0  0  0  0  0
   -5.5710    7.3883    0.2881 H   0  0  0  0  0  0  0  0  0  0  0  0
   -8.0235    8.9635   -2.1954 H   0  0  0  0  0  0  0  0  0  0  0  0
   -6.7179    8.2585   -3.2079 H   0  0  0  0  0  0  0  0  0  0  0  0
   -8.3540    7.5170   -3.2079 H   0  0  0  0  0  0  0  0  0  0  0  0
   -8.1390    6.5698    0.3711 H   0  0  0  0  0  0  0  0  0  0  0  0
   -9.2668    6.9351   -0.9784 H   0  0  0  0  0  0  0  0  0  0  0  0
   -8.3335    5.4003   -0.9784 H   0  0  0  0  0  0  0  0  0  0  0  0
   -2.6209   10.3192   -1.3732 H   0  0  0  0  0  0  0  0  0  0  0  0
   -2.1567   10.9108    0.9216 H   0  0  0  0  0  0  0  0  0  0  0  0
   -1.0833    9.5129    1.1459 H   0  0  0  0  0  0  0  0  0  0  0  0
   -0.2340   12.2181    0.7854 H   0  0  0  0  0  0  0  0  0  0  0  0
    0.8269   10.8209    0.6257 H   0  0  0  0  0  0  0  0  0  0  0  0
   -1.4823   13.0169   -0.5775 H   0  0  0  0  0  0  0  0  0  0  0  0
   -0.6496   13.4418   -2.1114 H   0  0  0  0  0  0  0  0  0  0  0  0
   -1.9606   12.2138   -2.1114 H   0  0  0  0  0  0  0  0  0  0  0  0
    1.9738   11.0663   -1.4921 H   0  0  0  0  0  0  0  0  0  0  0  0
    1.5931   13.3411   -0.3420 H   0  0  0  0  0  0  0  0  0  0  0  0
    3.0304   13.0672   -1.4600 H   0  0  0  0  0  0  0  0  0  0  0  0
    1.7883   15.3766   -1.7026 H   0  0  0  0  0  0  0  0  0  0  0  0
   -0.2443   12.9161   -4.1737 H   0  0  0  0  0  0  0  0  0  0  0  0
    2.4493   13.3743   -5.5984 H   0  0  0  0  0  0  0  0  0  0  0  0
    1.0668   12.3437   -6.1796 H   0  0  0  0  0  0  0  0  0  0  0  0
    1.1669   14.5231   -7.3463 H   0  0  0  0  0  0  0  0  0  0  0  0
   -0.3484   14.3036   -6.3862 H   0  0  0  0  0  0  0  0  0  0  0  0
    0.4524   16.5420   -6.0588 H   0  0  0  0  0  0  0  0  0  0  0  0
    2.6610   16.5390   -4.8490 H   0  0  0  0  0  0  0  0  0  0  0  0
   -1.3156   15.7146   -2.9839 H   0  0  0  0  0  0  0  0  0  0  0  0
   -1.3639   16.6133   -4.5385 H   0  0  0  0  0  0  0  0  0  0  0  0
   -1.3837   14.8171   -4.5385 H   0  0  0  0  0  0  0  0  0  0  0  0
    0.9889   16.8776   -2.3100 H   0  0  0  0  0  0  0  0  0  0  0  0
    2.0688   17.2214   -3.7036 H   0  0  0  0  0  0  0  0  0  0  0  0
    0.3800   17.8335   -3.7036 H   0  0  0  0  0  0  0  0  0  0  0  0
    3.4911   11.4780   -2.9177 H   0  0  0  0  0  0  0  0  0  0  0  0
    2.9963   10.6412   -4.4282 H   0  0  0  0  0  0  0  0  0  0  0  0
    3.2490   12.4196   -4.4282 H   0  0  0  0  0  0  0  0  0  0  0  0
    0.3727   10.7292   -5.0763 H   0  0  0  0  0  0  0  0  0  0  0  0
    1.2902    9.6718   -3.8621 H   0  0  0  0  0  0  0  0  0  0  0  0
   -1.4605   10.9017   -3.5337 H   0  0  0  0  0  0  0  0  0  0  0  0
   -1.0139    9.1553   -3.6623 H   0  0  0  0  0  0  0  0  0  0  0  0
    0.6600    8.8181   -0.4096 H   0  0  0  0  0  0  0  0  0  0  0  0
    0.1920    7.9982   -1.9379 H   0  0  0  0  0  0  0  0  0  0  0  0
    1.5198    9.2080   -1.9379 H   0  0  0  0  0  0  0  0  0  0  0  0
  1  2  1  0
  2  3  1  0
  3  4  1  0
  4  5  1  0
  5  6  1  0
  6  7  1  0
  7  8  1  0
  7  9  1  0
  2 10  1  0
 10 11  1  0
 11 12  1  0
 12 13  1  0
 13 14  1  1
 13 15  1  0
 15 16  1  0
 16 17  1  0
 17 18  2  0
 18 19  1  0
 19 20  1  0
 20 21  1  0
 21 22  1  0
 22 23  1  0
 22 24  1  0
 24 25  1  0
 24 26  1  0
 19 27  1  0
 27 28  1  1
 27 29  1  0
 29 30  1  0
 30 31  1  0
 31 32  1  6
  7  5  1  0
 31 10  1  0
 31 13  1  0
 27 15  1  0
 24 18  1  0
  1 33  1  0
  1 34  1  0
  1 35  1  0
  2 36  1  1
  3 37  1  0
  3 38  1  0
  4 39  1  0
  4 40  1  0
  5 41  1  1
  8 42  1  0
  8 43  1  0
  8 44  1  0
  9 45  1  0
  9 46  1  0
  9 47  1  0
 10 48  1  6
 11 49  1  0
 11 50  1  0
 12 51  1  0
 12 52  1  0
 14 53  1  0
 14 54  1  0
 14 55  1  0
 15 56  1  1
 16 57  1  0
 16 58  1  0
 17 59  1  0
 19 60  1  6
 20 61  1  0
 20 62  1  0
 21 63  1  0
 21 64  1  0
 22 65  1  6
 23 66  1  0
 25 67  1  0
 25 68  1  0
 25 69  1  0
 26 70  1  0
 26 71  1  0
 26 72  1  0
 28 73  1  0
 28 74  1  0
 28 75  1  0
 29 76  1  0
 29 77  1  0
 30 78  1  0
 30 79  1  0
 32 80  1  0
 32 81  1  0
 32 82  1  0
M  END
>  <meeko>  (15) 
{"is_sidechain": [false], "intermolecular_energy": 2.731, "internal_energy": -0.839}

$$$$
EPH_relaxed_0001_pdb2pqr_Repair_4_r2_0001_out
     RDKit          3D

 82 86  0  0  0  0  0  0  0  0999 V2000
    0.2050    9.8510   -4.5980 C   0  0  0  0  0  0  0  0  0  0  0  0
    1.2900   10.5780   -3.8000 C   0  0  2  0  0  0  0  0  0  0  0  0
    1.7500    9.7660   -2.5720 C   0  0  0  0  0  0  0  0  0  0  0  0
    0.7560    8.6840   -2.1430 C   0  0  0  0  0  0  0  0  0  0  0  0
   -0.1450    9.1630   -1.0460 C   0  0  2  0  0  0  0  0  0  0  0  0
   -0.7130    8.1230   -0.2390 O   0  0  0  0  0  0  0  0  0  0  0  0
   -1.6390    8.9000   -1.0150 C   0  0  0  0  0  0  0  0  0  0  0  0
   -2.3180    8.1300   -2.1040 C   0  0  0  0  0  0  0  0  0  0  0  0
   -2.5080    9.8000   -0.1930 C   0  0  0  0  0  0  0  0  0  0  0  0
    0.7830   11.9460   -3.3590 C   0  0  1  0  0  0  0  0  0  0  0  0
   -0.7310   11.9400   -3.0180 C   0  0  0  0  0  0  0  0  0  0  0  0
   -0.9290   12.9350   -1.8450 C   0  0  0  0  0  0  0  0  0  0  0  0
    0.4010   13.7200   -1.7700 C   0  0  1  0  0  0  0  0  0  0  0  0
    0.2860   14.8110   -2.8800 C   0  0  0  0  0  0  0  0  0  0  0  0
    0.7580   14.3440   -0.3820 C   0  0  2  0  0  0  0  0  0  0  0  0
   -0.2320   15.4050    0.1300 C   0  0  0  0  0  0  0  0  0  0  0  0
    0.0790   16.8110   -0.2670 C   0  0  0  0  0  0  0  0  0  0  0  0
    1.2540   17.2430   -0.7590 C   0  0  0  0  0  0  0  0  0  0  0  0
    2.4570   16.2970   -0.8700 C   0  0  1  0  0  0  0  0  0  0  0  0
    3.7240   17.0030   -0.3190 C   0  0  0  0  0  0  0  0  0  0  0  0
    3.9780   18.3520   -0.9850 C   0  0  0  0  0  0  0  0  0  0  0  0
    2.7830   19.2840   -0.8030 C   0  0  2  0  0  0  0  0  0  0  0  0
    2.6630   19.6140    0.5840 O   0  0  0  0  0  0  0  0  0  0  0  0
    1.4480   18.6760   -1.3140 C   0  0  0  0  0  0  0  0  0  0  0  0
    1.4690   18.5990   -2.8610 C   0  0  0  0  0  0  0  0  0  0  0  0
    0.3030   19.6570   -0.9440 C   0  0  0  0  0  0  0  0  0  0  0  0
    2.2550   14.8430   -0.2610 C   0  0  1  0  0  0  0  0  0  0  0  0
    2.6000   14.8510    1.2600 C   0  0  0  0  0  0  0  0  0  0  0  0
    3.2730   13.8540   -0.9420 C   0  0  0  0  0  0  0  0  0  0  0  0
    2.8150   13.1770   -2.2480 C   0  0  0  0  0  0  0  0  0  0  0  0
    1.4200   12.5650   -2.0890 C   0  0  2  0  0  0  0  0  0  0  0  0
    1.5090   11.4480   -0.9940 C   0  0  0  0  0  0  0  0  0  0  0  0
   -0.5041    9.3758   -3.9042 H   0  0  0  0  0  0  0  0  0  0  0  0
   -0.3303   10.5735   -5.2317 H   0  0  0  0  0  0  0  0  0  0  0  0
    0.6696    9.0812   -5.2317 H   0  0  0  0  0  0  0  0  0  0  0  0
    2.1608   10.6997   -4.4609 H   0  0  0  0  0  0  0  0  0  0  0  0
    2.7074    9.2817   -2.8146 H   0  0  0  0  0  0  0  0  0  0  0  0
    1.8380   10.4727   -1.7336 H   0  0  0  0  0  0  0  0  0  0  0  0
    0.1419    8.4000   -3.0103 H   0  0  0  0  0  0  0  0  0  0  0  0
    1.3277    7.8231   -1.7660 H   0  0  0  0  0  0  0  0  0  0  0  0
    0.4446   10.0848   -0.9334 H   0  0  0  0  0  0  0  0  0  0  0  0
   -2.9835    7.3754   -1.6594 H   0  0  0  0  0  0  0  0  0  0  0  0
   -2.9084    8.8184   -2.7265 H   0  0  0  0  0  0  0  0  0  0  0  0
   -1.5612    7.6303   -2.7265 H   0  0  0  0  0  0  0  0  0  0  0  0
   -2.3253    9.6108    0.8751 H   0  0  0  0  0  0  0  0  0  0  0  0
   -2.2725   10.8492   -0.4250 H   0  0  0  0  0  0  0  0  0  0  0  0
   -3.5648    9.6014   -0.4250 H   0  0  0  0  0  0  0  0  0  0  0  0
    1.0568   12.5387   -4.2443 H   0  0  0  0  0  0  0  0  0  0  0  0
   -1.3173   12.2622   -3.8912 H   0  0  0  0  0  0  0  0  0  0  0  0
   -1.0697   10.9307   -2.7414 H   0  0  0  0  0  0  0  0  0  0  0  0
   -1.7697   13.6142   -2.0497 H   0  0  0  0  0  0  0  0  0  0  0  0
   -1.1653   12.4239   -0.9001 H   0  0  0  0  0  0  0  0  0  0  0  0
    0.1817   15.8009   -2.4118 H   0  0  0  0  0  0  0  0  0  0  0  0
    1.1908   14.7947   -3.5053 H   0  0  0  0  0  0  0  0  0  0  0  0
   -0.5956   14.6064   -3.5053 H   0  0  0  0  0  0  0  0  0  0  0  0
    0.6528   13.4851    0.2971 H   0  0  0  0  0  0  0  0  0  0  0  0
   -1.2300   15.1547   -0.2590 H   0  0  0  0  0  0  0  0  0  0  0  0
   -0.1677   15.3771    1.2278 H   0  0  0  0  0  0  0  0  0  0  0  0
   -0.7209   17.5565   -0.1468 H   0  0  0  0  0  0  0  0  0  0  0  0
    2.5821   16.0896   -1.9430 H   0  0  0  0  0  0  0  0  0  0  0  0
    3.5973   17.1617    0.7621 H   0  0  0  0  0  0  0  0  0  0  0  0
    4.5872   16.3562   -0.5346 H   0  0  0  0  0  0  0  0  0  0  0  0
    4.8676   18.8148   -0.5329 H   0  0  0  0  0  0  0  0  0  0  0  0
    4.1346   18.1881   -2.0614 H   0  0  0  0  0  0  0  0  0  0  0  0
    2.9697   20.1822   -1.4099 H   0  0  0  0  0  0  0  0  0  0  0  0
    1.8460   20.1300    0.6940 H   0  0  0  0  0  0  0  0  0  0  0  0
    1.7465   17.5816   -3.1737 H   0  0  0  0  0  0  0  0  0  0  0  0
    0.4712   18.8441   -3.2539 H   0  0  0  0  0  0  0  0  0  0  0  0
    2.2042   19.3167   -3.2539 H   0  0  0  0  0  0  0  0  0  0  0  0
    0.2203   19.7279    0.1506 H   0  0  0  0  0  0  0  0  0  0  0  0
    0.5231   20.6511   -1.3602 H   0  0  0  0  0  0  0  0  0  0  0  0
   -0.6456   19.2870   -1.3602 H   0  0  0  0  0  0  0  0  0  0  0  0
    1.6700   14.8294    1.8470 H   0  0  0  0  0  0  0  0  0  0  0  0
    3.2075   13.9667    1.5028 H   0  0  0  0  0  0  0  0  0  0  0  0
    3.1658   15.7625    1.5028 H   0  0  0  0  0  0  0  0  0  0  0  0
    4.1894   14.4204   -1.1643 H   0  0  0  0  0  0  0  0  0  0  0  0
    3.4024   13.0327   -0.2218 H   0  0  0  0  0  0  0  0  0  0  0  0
    2.7892   13.9271   -3.0522 H   0  0  0  0  0  0  0  0  0  0  0  0
    3.5245   12.3731   -2.4935 H   0  0  0  0  0  0  0  0  0  0  0  0
    1.4723   11.9091    0.0040 H   0  0  0  0  0  0  0  0  0  0  0  0
    0.6633   10.7540   -1.1086 H   0  0  0  0  0  0  0  0  0  0  0  0
    2.4539   10.8966   -1.1086 H   0  0  0  0  0  0  0  0  0  0  0  0
  1  2  1  0
  2  3  1  0
  3  4  1  0
  4  5  1  0
  5  6  1  0
  6  7  1  0
  7  8  1  0
  7  9  1  0
  2 10  1  0
 10 11  1  0
 11 12  1  0
 12 13  1  0
 13 14  1  6
 13 15  1  0
 15 16  1  0
 16 17  1  0
 17 18  2  0
 18 19  1  0
 19 20  1  0
 20 21  1  0
 21 22  1  0
 22 23  1  0
 22 24  1  0
 24 25  1  0
 24 26  1  0
 19 27  1  0
 27 28  1  1
 27 29  1  0
 29 30  1  0
 30 31  1  0
 31 32  1  1
  7  5  1  0
 31 10  1  0
 31 13  1  0
 27 15  1  0
 24 18  1  0
  1 33  1  0
  1 34  1  0
  1 35  1  0
  2 36  1  6
  3 37  1  0
  3 38  1  0
  4 39  1  0
  4 40  1  0
  5 41  1  1
  8 42  1  0
  8 43  1  0
  8 44  1  0
  9 45  1  0
  9 46  1  0
  9 47  1  0
 10 48  1  6
 11 49  1  0
 11 50  1  0
 12 51  1  0
 12 52  1  0
 14 53  1  0
 14 54  1  0
 14 55  1  0
 15 56  1  1
 16 57  1  0
 16 58  1  0
 17 59  1  0
 19 60  1  6
 20 61  1  0
 20 62  1  0
 21 63  1  0
 21 64  1  0
 22 65  1  6
 23 66  1  0
 25 67  1  0
 25 68  1  0
 25 69  1  0
 26 70  1  0
 26 71  1  0
 26 72  1  0
 28 73  1  0
 28 74  1  0
 28 75  1  0
 29 76  1  0
 29 77  1  0
 30 78  1  0
 30 79  1  0
 32 80  1  0
 32 81  1  0
 32 82  1  0
M  END
>  <meeko>  (16) 
{"is_sidechain": [false], "intermolecular_energy": 2.731, "internal_energy": -0.839}

$$$$
EPH_relaxed_0001_pdb2pqr_Repair_4_r2_0001_out
     RDKit          3D

 82 86  0  0  0  0  0  0  0  0999 V2000
   -1.7170   14.8290    0.4550 C   0  0  0  0  0  0  0  0  0  0  0  0
   -0.3680   15.5260    0.2620 C   0  0  2  0  0  0  0  0  0  0  0  0
   -0.4040   16.5530   -0.8880 C   0  0  0  0  0  0  0  0  0  0  0  0
   -0.0330   17.9740   -0.4560 C   0  0  0  0  0  0  0  0  0  0  0  0
    1.4000   18.0670   -0.0270 C   0  0  2  0  0  0  0  0  0  0  0  0
    2.0640   19.2770   -0.4140 O   0  0  0  0  0  0  0  0  0  0  0  0
    2.5660   18.0640   -0.9980 C   0  0  0  0  0  0  0  0  0  0  0  0
    2.3510   17.9660   -2.4750 C   0  0  0  0  0  0  0  0  0  0  0  0
    3.9170   17.6660   -0.4910 C   0  0  0  0  0  0  0  0  0  0  0  0
    0.7200   14.4910    0.0010 C   0  0  1  0  0  0  0  0  0  0  0  0
    0.8450   13.4540    1.1490 C   0  0  0  0  0  0  0  0  0  0  0  0
    1.2180   12.1010    0.4910 C   0  0  0  0  0  0  0  0  0  0  0  0
    1.6180   12.4680   -0.9570 C   0  0  1  0  0  0  0  0  0  0  0  0
    3.0930   12.9670   -0.8520 C   0  0  0  0  0  0  0  0  0  0  0  0
    1.4660   11.3360   -2.0250 C   0  0  2  0  0  0  0  0  0  0  0  0
    2.3450   10.0950   -1.7890 C   0  0  0  0  0  0  0  0  0  0  0  0
    3.6920   10.1360   -2.4330 C   0  0  0  0  0  0  0  0  0  0  0  0
    4.0710   10.9930   -3.4000 C   0  0  0  0  0  0  0  0  0  0  0  0
    3.0710   11.9820   -4.0120 C   0  0  1  0  0  0  0  0  0  0  0  0
    3.1980   11.9580   -5.5580 C   0  0  0  0  0  0  0  0  0  0  0  0
    4.6280   12.2050   -6.0310 C   0  0  0  0  0  0  0  0  0  0  0  0
    5.5820   11.1670   -5.4480 C   0  0  2  0  0  0  0  0  0  0  0  0
    5.2640    9.8860   -6.0000 O   0  0  0  0  0  0  0  0  0  0  0  0
    5.5340   11.0930   -3.8960 C   0  0  0  0  0  0  0  0  0  0  0  0
    6.1640   12.3740   -3.2950 C   0  0  0  0  0  0  0  0  0  0  0  0
    6.4370    9.9130   -3.4460 C   0  0  0  0  0  0  0  0  0  0  0  0
    1.5660   11.8390   -3.5220 C   0  0  1  0  0  0  0  0  0  0  0  0
    0.8190   10.7860   -4.3960 C   0  0  0  0  0  0  0  0  0  0  0  0
    0.8210   13.2090   -3.7440 C   0  0  0  0  0  0  0  0  0  0  0  0
    0.9080   14.2400   -2.6030 C   0  0  0  0  0  0  0  0  0  0  0  0
    0.5650   13.5970   -1.2550 C   0  0  2  0  0  0  0  0  0  0  0  0
   -0.9210   13.1060   -1.3240 C   0  0  0  0  0  0  0  0  0  0  0  0
   -1.9240   14.7221    1.5300 H   0  0  0  0  0  0  0  0  0  0  0  0
   -2.5105   15.4300   -0.0132 H   0  0  0  0  0  0  0  0  0  0  0  0
   -1.6860   13.8341   -0.0132 H   0  0  0  0  0  0  0  0  0  0  0  0
   -0.1444   16.0750    1.1886 H   0  0  0  0  0  0  0  0  0  0  0  0
    0.3050   16.2299   -1.6645 H   0  0  0  0  0  0  0  0  0  0  0  0
   -1.4405   16.5888   -1.2546 H   0  0  0  0  0  0  0  0  0  0  0  0
   -0.1969   18.6579   -1.3018 H   0  0  0  0  0  0  0  0  0  0  0  0
   -0.6658   18.2479    0.4010 H   0  0  0  0  0  0  0  0  0  0  0  0
    1.1916   17.4770    0.8777 H   0  0  0  0  0  0  0  0  0  0  0  0
    1.3665   17.5172   -2.6732 H   0  0  0  0  0  0  0  0  0  0  0  0
    2.3917   18.9716   -2.9190 H   0  0  0  0  0  0  0  0  0  0  0  0
    3.1367   17.3371   -2.9190 H   0  0  0  0  0  0  0  0  0  0  0  0
    3.9110   17.6678    0.6090 H   0  0  0  0  0  0  0  0  0  0  0  0
    4.1626   16.6573   -0.8547 H   0  0  0  0  0  0  0  0  0  0  0  0
    4.6702   18.3804   -0.8547 H   0  0  0  0  0  0  0  0  0  0  0  0
    1.5857   15.1592   -0.1174 H   0  0  0  0  0  0  0  0  0  0  0  0
    1.6315   13.7620    1.8537 H   0  0  0  0  0  0  0  0  0  0  0  0
   -0.0964   13.3730    1.7122 H   0  0  0  0  0  0  0  0  0  0  0  0
    2.0608   11.6316    1.0195 H   0  0  0  0  0  0  0  0  0  0  0  0
    0.3891   11.3786    0.5242 H   0  0  0  0  0  0  0  0  0  0  0  0
    3.3734   13.0619    0.2074 H   0  0  0  0  0  0  0  0  0  0  0  0
    3.7604   12.2446   -1.3447 H   0  0  0  0  0  0  0  0  0  0  0  0
    3.1848   13.9462   -1.3447 H   0  0  0  0  0  0  0  0  0  0  0  0
    0.4294   11.0024   -1.8696 H   0  0  0  0  0  0  0  0  0  0  0  0
    2.4900    9.9823   -0.7044 H   0  0  0  0  0  0  0  0  0  0  0  0
    1.8117    9.2516   -2.2519 H   0  0  0  0  0  0  0  0  0  0  0  0
    4.4374    9.4043   -2.0882 H   0  0  0  0  0  0  0  0  0  0  0  0
    3.3529   12.9741   -3.6296 H   0  0  0  0  0  0  0  0  0  0  0  0
    2.8706   10.9735   -5.9236 H   0  0  0  0  0  0  0  0  0  0  0  0
    2.5693   12.7674   -5.9576 H   0  0  0  0  0  0  0  0  0  0  0  0
    4.6592   12.1461   -7.1290 H   0  0  0  0  0  0  0  0  0  0  0  0
    4.9433   13.2022   -5.6902 H   0  0  0  0  0  0  0  0  0  0  0  0
    6.6041   11.4725   -5.7161 H   0  0  0  0  0  0  0  0  0  0  0  0
    4.4310    9.5890   -5.5950 H   0  0  0  0  0  0  0  0  0  0  0  0
    6.1355   12.3161   -2.1969 H   0  0  0  0  0  0  0  0  0  0  0  0
    7.2079   12.4614   -3.6306 H   0  0  0  0  0  0  0  0  0  0  0  0
    5.5960   13.2542   -3.6306 H   0  0  0  0  0  0  0  0  0  0  0  0
    6.4676    9.8730   -2.3472 H   0  0  0  0  0  0  0  0  0  0  0  0
    6.0283    8.9691   -3.8360 H   0  0  0  0  0  0  0  0  0  0  0  0
    7.4549   10.0608   -3.8360 H   0  0  0  0  0  0  0  0  0  0  0  0
    0.3069   10.0642   -3.7427 H   0  0  0  0  0  0  0  0  0  0  0  0
    0.0790   11.2951   -5.0310 H   0  0  0  0  0  0  0  0  0  0  0  0
    1.5440   10.2558   -5.0310 H   0  0  0  0  0  0  0  0  0  0  0  0
    1.2434   13.6750   -4.6464 H   0  0  0  0  0  0  0  0  0  0  0  0
   -0.2453   12.9484   -3.8156 H   0  0  0  0  0  0  0  0  0  0  0  0
    1.9306   14.6431   -2.5595 H   0  0  0  0  0  0  0  0  0  0  0  0
    0.1849   15.0447   -2.8017 H   0  0  0  0  0  0  0  0  0  0  0  0
   -1.3122   12.9767   -0.3041 H   0  0  0  0  0  0  0  0  0  0  0  0
   -1.5289   13.8510   -1.8582 H   0  0  0  0  0  0  0  0  0  0  0  0
   -0.9654   12.1454   -1.8582 H   0  0  0  0  0  0  0  0  0  0  0  0
  1  2  1  0
  2  3  1  0
  3  4  1  0
  4  5  1  0
  5  6  1  0
  6  7  1  0
  7  8  1  0
  7  9  1  0
  2 10  1  0
 10 11  1  0
 11 12  1  0
 12 13  1  0
 13 14  1  1
 13 15  1  0
 15 16  1  0
 16 17  1  0
 17 18  2  0
 18 19  1  0
 19 20  1  0
 20 21  1  0
 21 22  1  0
 22 23  1  0
 22 24  1  0
 24 25  1  0
 24 26  1  0
 19 27  1  0
 27 28  1  6
 27 29  1  0
 29 30  1  0
 30 31  1  0
 31 32  1  6
  7  5  1  0
 31 10  1  0
 31 13  1  0
 27 15  1  0
 24 18  1  0
  1 33  1  0
  1 34  1  0
  1 35  1  0
  2 36  1  1
  3 37  1  0
  3 38  1  0
  4 39  1  0
  4 40  1  0
  5 41  1  1
  8 42  1  0
  8 43  1  0
  8 44  1  0
  9 45  1  0
  9 46  1  0
  9 47  1  0
 10 48  1  6
 11 49  1  0
 11 50  1  0
 12 51  1  0
 12 52  1  0
 14 53  1  0
 14 54  1  0
 14 55  1  0
 15 56  1  6
 16 57  1  0
 16 58  1  0
 17 59  1  0
 19 60  1  1
 20 61  1  0
 20 62  1  0
 21 63  1  0
 21 64  1  0
 22 65  1  1
 23 66  1  0
 25 67  1  0
 25 68  1  0
 25 69  1  0
 26 70  1  0
 26 71  1  0
 26 72  1  0
 28 73  1  0
 28 74  1  0
 28 75  1  0
 29 76  1  0
 29 77  1  0
 30 78  1  0
 30 79  1  0
 32 80  1  0
 32 81  1  0
 32 82  1  0
M  END
>  <meeko>  (17) 
{"is_sidechain": [false], "intermolecular_energy": 2.731, "internal_energy": -0.839}

$$$$
EPH_relaxed_0001_pdb2pqr_Repair_4_r2_0001_out
     RDKit          3D

 82 86  0  0  0  0  0  0  0  0999 V2000
    0.9420   14.9420   -2.6860 C   0  0  0  0  0  0  0  0  0  0  0  0
    1.1860   14.2630   -4.0370 C   0  0  2  0  0  0  0  0  0  0  0  0
    0.4600   14.9860   -5.1890 C   0  0  0  0  0  0  0  0  0  0  0  0
    0.9790   14.6060   -6.5780 C   0  0  0  0  0  0  0  0  0  0  0  0
    0.7600   15.7060   -7.5720 C   0  0  2  0  0  0  0  0  0  0  0  0
    0.3880   15.2630   -8.8840 O   0  0  0  0  0  0  0  0  0  0  0  0
    1.6540   15.9350   -8.7770 C   0  0  0  0  0  0  0  0  0  0  0  0
    2.8340   15.0570   -9.0510 C   0  0  0  0  0  0  0  0  0  0  0  0
    1.6700   17.2930   -9.4080 C   0  0  0  0  0  0  0  0  0  0  0  0
    0.7420   12.8060   -3.9740 C   0  0  1  0  0  0  0  0  0  0  0  0
    1.8750   11.8190   -4.3610 C   0  0  0  0  0  0  0  0  0  0  0  0
    1.6880   10.5570   -3.4810 C   0  0  0  0  0  0  0  0  0  0  0  0
    0.2790   10.7160   -2.8640 C   0  0  1  0  0  0  0  0  0  0  0  0
   -0.7030   10.2390   -3.9780 C   0  0  0  0  0  0  0  0  0  0  0  0
    0.0280    9.9690   -1.5140 C   0  0  2  0  0  0  0  0  0  0  0  0
    0.1380    8.4360   -1.5860 C   0  0  0  0  0  0  0  0  0  0  0  0
   -1.1340    7.7180   -1.8960 C   0  0  0  0  0  0  0  0  0  0  0  0
   -2.3680    8.2500   -1.8280 C   0  0  0  0  0  0  0  0  0  0  0  0
   -2.5830    9.6790   -1.3110 C   0  0  1  0  0  0  0  0  0  0  0  0
   -3.7550    9.6910   -0.2950 C   0  0  0  0  0  0  0  0  0  0  0  0
   -5.0310    9.0780   -0.8660 C   0  0  0  0  0  0  0  0  0  0  0  0
   -4.7910    7.6390   -1.3150 C   0  0  2  0  0  0  0  0  0  0  0  0
   -4.5200    6.8360   -0.1620 O   0  0  0  0  0  0  0  0  0  0  0  0
   -3.6260    7.5010   -2.3340 C   0  0  0  0  0  0  0  0  0  0  0  0
   -4.0450    8.1180   -3.6910 C   0  0  0  0  0  0  0  0  0  0  0  0
   -3.3970    5.9880   -2.5960 C   0  0  0  0  0  0  0  0  0  0  0  0
   -1.2890   10.4180   -0.7600 C   0  0  1  0  0  0  0  0  0  0  0  0
   -1.0800   10.0730    0.7460 C   0  0  0  0  0  0  0  0  0  0  0  0
   -1.5170   11.9750   -0.8300 C   0  0  0  0  0  0  0  0  0  0  0  0
   -1.1380   12.6730   -2.1500 C   0  0  0  0  0  0  0  0  0  0  0  0
    0.2680   12.2660   -2.6010 C   0  0  2  0  0  0  0  0  0  0  0  0
    1.2810   12.7530   -1.5090 C   0  0  0  0  0  0  0  0  0  0  0  0
    1.1930   14.2436   -1.8740 H   0  0  0  0  0  0  0  0  0  0  0  0
    1.5741   15.8387   -2.6068 H   0  0  0  0  0  0  0  0  0  0  0  0
   -0.1163   15.2313   -2.6068 H   0  0  0  0  0  0  0  0  0  0  0  0
    2.2653   14.3139   -4.2434 H   0  0  0  0  0  0  0  0  0  0  0  0
   -0.6097   14.7348   -5.1373 H   0  0  0  0  0  0  0  0  0  0  0  0
    0.6450   16.0626   -5.0601 H   0  0  0  0  0  0  0  0  0  0  0  0
    2.0566   14.3958   -6.5106 H   0  0  0  0  0  0  0  0  0  0  0  0
    0.4249   13.7195   -6.9202 H   0  0  0  0  0  0  0  0  0  0  0  0
    0.4002   16.3807   -6.7812 H   0  0  0  0  0  0  0  0  0  0  0  0
    3.2756   14.7284   -8.0986 H   0  0  0  0  0  0  0  0  0  0  0  0
    2.5109   14.1779   -9.6279 H   0  0  0  0  0  0  0  0  0  0  0  0
    3.5832   15.6191   -9.6279 H   0  0  0  0  0  0  0  0  0  0  0  0
    1.6791   18.0625   -8.6220 H   0  0  0  0  0  0  0  0  0  0  0  0
    2.5694   17.3964  -10.0328 H   0  0  0  0  0  0  0  0  0  0  0  0
    0.7733   17.4176  -10.0328 H   0  0  0  0  0  0  0  0  0  0  0  0
   -0.1032   12.8400   -4.6771 H   0  0  0  0  0  0  0  0  0  0  0  0
    1.7986   11.5532   -5.4257 H   0  0  0  0  0  0  0  0  0  0  0  0
    2.8649   12.2706   -4.1989 H   0  0  0  0  0  0  0  0  0  0  0  0
    1.7429    9.6450   -4.0936 H   0  0  0  0  0  0  0  0  0  0  0  0
    2.4709   10.4640   -2.7139 H   0  0  0  0  0  0  0  0  0  0  0  0
   -1.6001    9.8032   -3.5140 H   0  0  0  0  0  0  0  0  0  0  0  0
   -0.9931   11.0966   -4.6028 H   0  0  0  0  0  0  0  0  0  0  0  0
   -0.2083    9.4808   -4.6028 H   0  0  0  0  0  0  0  0  0  0  0  0
    0.8777   10.3014   -0.8995 H   0  0  0  0  0  0  0  0  0  0  0  0
    0.8694    8.1843   -2.3681 H   0  0  0  0  0  0  0  0  0  0  0  0
    0.4362    8.1053   -0.5802 H   0  0  0  0  0  0  0  0  0  0  0  0
   -1.0556    6.6655   -2.2061 H   0  0  0  0  0  0  0  0  0  0  0  0
   -2.8462   10.2850   -2.1905 H   0  0  0  0  0  0  0  0  0  0  0  0
   -3.4560    9.1178    0.5949 H   0  0  0  0  0  0  0  0  0  0  0  0
   -3.9709   10.7406   -0.0468 H   0  0  0  0  0  0  0  0  0  0  0  0
   -5.8128    9.0881   -0.0923 H   0  0  0  0  0  0  0  0  0  0  0  0
   -5.3454    9.6702   -1.7380 H   0  0  0  0  0  0  0  0  0  0  0  0
   -5.7005    7.2985   -1.8316 H   0  0  0  0  0  0  0  0  0  0  0  0
   -5.0560    7.1830    0.5710 H   0  0  0  0  0  0  0  0  0  0  0  0
   -4.6548    9.0160   -3.5128 H   0  0  0  0  0  0  0  0  0  0  0  0
   -3.1459    8.3927   -4.2621 H   0  0  0  0  0  0  0  0  0  0  0  0
   -4.6319    7.3836   -4.2621 H   0  0  0  0  0  0  0  0  0  0  0  0
   -3.3167    5.4576   -1.6357 H   0  0  0  0  0  0  0  0  0  0  0  0
   -4.2440    5.5828   -3.1690 H   0  0  0  0  0  0  0  0  0  0  0  0
   -2.4680    5.8516   -3.1690 H   0  0  0  0  0  0  0  0  0  0  0  0
   -1.5499   10.8487    1.3685 H   0  0  0  0  0  0  0  0  0  0  0  0
   -1.5395    9.0981    0.9660 H   0  0  0  0  0  0  0  0  0  0  0  0
   -0.0031   10.0288    0.9660 H   0  0  0  0  0  0  0  0  0  0  0  0
   -2.5854   12.1635   -0.6485 H   0  0  0  0  0  0  0  0  0  0  0  0
   -0.8396   12.3997   -0.0745 H   0  0  0  0  0  0  0  0  0  0  0  0
   -1.8618   12.3890   -2.9281 H   0  0  0  0  0  0  0  0  0  0  0  0
   -1.1535   13.7610   -1.9886 H   0  0  0  0  0  0  0  0  0  0  0  0
    0.8667   12.5538   -0.5097 H   0  0  0  0  0  0  0  0  0  0  0  0
    2.2328   12.2140   -1.6254 H   0  0  0  0  0  0  0  0  0  0  0  0
    1.4545   13.8330   -1.6254 H   0  0  0  0  0  0  0  0  0  0  0  0
  1  2  1  0
  2  3  1  0
  3  4  1  0
  4  5  1  0
  5  6  1  0
  6  7  1  0
  7  8  1  0
  7  9  1  0
  2 10  1  0
 10 11  1  0
 11 12  1  0
 12 13  1  0
 13 14  1  6
 13 15  1  0
 15 16  1  0
 16 17  1  0
 17 18  2  0
 18 19  1  0
 19 20  1  0
 20 21  1  0
 21 22  1  0
 22 23  1  0
 22 24  1  0
 24 25  1  0
 24 26  1  0
 19 27  1  0
 27 28  1  1
 27 29  1  0
 29 30  1  0
 30 31  1  0
 31 32  1  1
  7  5  1  0
 31 10  1  0
 31 13  1  0
 27 15  1  0
 24 18  1  0
  1 33  1  0
  1 34  1  0
  1 35  1  0
  2 36  1  6
  3 37  1  0
  3 38  1  0
  4 39  1  0
  4 40  1  0
  5 41  1  1
  8 42  1  0
  8 43  1  0
  8 44  1  0
  9 45  1  0
  9 46  1  0
  9 47  1  0
 10 48  1  6
 11 49  1  0
 11 50  1  0
 12 51  1  0
 12 52  1  0
 14 53  1  0
 14 54  1  0
 14 55  1  0
 15 56  1  1
 16 57  1  0
 16 58  1  0
 17 59  1  0
 19 60  1  6
 20 61  1  0
 20 62  1  0
 21 63  1  0
 21 64  1  0
 22 65  1  6
 23 66  1  0
 25 67  1  0
 25 68  1  0
 25 69  1  0
 26 70  1  0
 26 71  1  0
 26 72  1  0
 28 73  1  0
 28 74  1  0
 28 75  1  0
 29 76  1  0
 29 77  1  0
 30 78  1  0
 30 79  1  0
 32 80  1  0
 32 81  1  0
 32 82  1  0
M  END
>  <meeko>  (18) 
{"is_sidechain": [false], "intermolecular_energy": 2.731, "internal_energy": -0.839}

$$$$
EPH_relaxed_0001_pdb2pqr_Repair_4_r2_0001_out
     RDKit          3D

 82 86  0  0  0  0  0  0  0  0999 V2000
   -0.0740   10.6350   -4.1280 C   0  0  0  0  0  0  0  0  0  0  0  0
    0.8740   10.3140   -2.9690 C   0  0  2  0  0  0  0  0  0  0  0  0
    0.4580    9.0350   -2.2160 C   0  0  0  0  0  0  0  0  0  0  0  0
   -0.8510    8.4220   -2.7200 C   0  0  0  0  0  0  0  0  0  0  0  0
   -2.0320    8.9160   -1.9400 C   0  0  2  0  0  0  0  0  0  0  0  0
   -1.9540   10.2920   -1.5440 O   0  0  0  0  0  0  0  0  0  0  0  0
   -1.9590    9.3250   -0.4810 C   0  0  0  0  0  0  0  0  0  0  0  0
   -0.6750    9.2570    0.2850 C   0  0  0  0  0  0  0  0  0  0  0  0
   -3.2190    9.3240    0.3260 C   0  0  0  0  0  0  0  0  0  0  0  0
    0.9320   11.4920   -2.0030 C   0  0  1  0  0  0  0  0  0  0  0  0
    1.9620   11.2790   -0.8620 C   0  0  0  0  0  0  0  0  0  0  0  0
    2.5710   12.6680   -0.5450 C   0  0  0  0  0  0  0  0  0  0  0  0
    1.6470   13.6750   -1.2690 C   0  0  1  0  0  0  0  0  0  0  0  0
    0.4240   13.8540   -0.3160 C   0  0  0  0  0  0  0  0  0  0  0  0
    2.2870   15.0490   -1.6520 C   0  0  2  0  0  0  0  0  0  0  0  0
    2.7630   15.9010   -0.4620 C   0  0  0  0  0  0  0  0  0  0  0  0
    1.7490   16.8450    0.0920 C   0  0  0  0  0  0  0  0  0  0  0  0
    0.6060   17.2120   -0.5170 C   0  0  0  0  0  0  0  0  0  0  0  0
    0.2840   16.7360   -1.9390 C   0  0  1  0  0  0  0  0  0  0  0  0
   -0.2110   17.9370   -2.7870 C   0  0  0  0  0  0  0  0  0  0  0  0
   -1.3810   18.6690   -2.1380 C   0  0  0  0  0  0  0  0  0  0  0  0
   -1.0040   19.1770   -0.7490 C   0  0  2  0  0  0  0  0  0  0  0  0
   -0.0070   20.1950   -0.8850 O   0  0  0  0  0  0  0  0  0  0  0  0
   -0.4810   18.0560    0.1930 C   0  0  0  0  0  0  0  0  0  0  0  0
   -1.6490   17.1170    0.5820 C   0  0  0  0  0  0  0  0  0  0  0  0
   -0.0030   18.7240    1.5100 C   0  0  0  0  0  0  0  0  0  0  0  0
    1.4260   15.9040   -2.6670 C   0  0  1  0  0  0  0  0  0  0  0  0
    2.4160   16.8740   -3.3840 C   0  0  0  0  0  0  0  0  0  0  0  0
    0.7770   15.0190   -3.7960 C   0  0  0  0  0  0  0  0  0  0  0  0
    0.2720   13.6240   -3.3800 C   0  0  0  0  0  0  0  0  0  0  0  0
    1.3400   12.8690   -2.5840 C   0  0  2  0  0  0  0  0  0  0  0  0
    2.5750   12.6540   -3.5240 C   0  0  0  0  0  0  0  0  0  0  0  0
   -1.0444   10.9636   -3.7277 H   0  0  0  0  0  0  0  0  0  0  0  0
    0.3588   11.4367   -4.7444 H   0  0  0  0  0  0  0  0  0  0  0  0
   -0.2173    9.7353   -4.7444 H   0  0  0  0  0  0  0  0  0  0  0  0
    1.8713   10.1352   -3.3972 H   0  0  0  0  0  0  0  0  0  0  0  0
    1.2578    8.2887   -2.3311 H   0  0  0  0  0  0  0  0  0  0  0  0
    0.2964    9.3188   -1.1656 H   0  0  0  0  0  0  0  0  0  0  0  0
   -0.9857    8.6899   -3.7784 H   0  0  0  0  0  0  0  0  0  0  0  0
   -0.7892    7.3310   -2.5938 H   0  0  0  0  0  0  0  0  0  0  0  0
   -2.7051    8.2359   -2.4825 H   0  0  0  0  0  0  0  0  0  0  0  0
   -0.8905    9.2684    1.3636 H   0  0  0  0  0  0  0  0  0  0  0  0
   -0.1429    8.3294    0.0272 H   0  0  0  0  0  0  0  0  0  0  0  0
   -0.0479   10.1232    0.0272 H   0  0  0  0  0  0  0  0  0  0  0  0
   -2.9684    9.3242    1.3971 H   0  0  0  0  0  0  0  0  0  0  0  0
   -3.8082   10.2217    0.0871 H   0  0  0  0  0  0  0  0  0  0  0  0
   -3.8067    8.4254    0.0871 H   0  0  0  0  0  0  0  0  0  0  0  0
   -0.1191   11.5170   -1.6798 H   0  0  0  0  0  0  0  0  0  0  0  0
    1.4615   10.8724    0.0292 H   0  0  0  0  0  0  0  0  0  0  0  0
    2.7426   10.5646   -1.1626 H   0  0  0  0  0  0  0  0  0  0  0  0
    2.5724   12.8528    0.5394 H   0  0  0  0  0  0  0  0  0  0  0  0
    3.6168   12.7498   -0.8760 H   0  0  0  0  0  0  0  0  0  0  0  0
    0.7633   13.8043    0.7292 H   0  0  0  0  0  0  0  0  0  0  0  0
   -0.0465   14.8306   -0.5028 H   0  0  0  0  0  0  0  0  0  0  0  0
   -0.3067   13.0532   -0.5028 H   0  0  0  0  0  0  0  0  0  0  0  0
    3.1995   14.7442   -2.1853 H   0  0  0  0  0  0  0  0  0  0  0  0
    3.0680   15.2180    0.3446 H   0  0  0  0  0  0  0  0  0  0  0  0
    3.5837   16.5258   -0.8441 H   0  0  0  0  0  0  0  0  0  0  0  0
    1.9528   17.2779    1.0825 H   0  0  0  0  0  0  0  0  0  0  0  0
   -0.5217   15.9941   -1.8365 H   0  0  0  0  0  0  0  0  0  0  0  0
    0.6209   18.6453   -2.9144 H   0  0  0  0  0  0  0  0  0  0  0  0
   -0.5588   17.5425   -3.7531 H   0  0  0  0  0  0  0  0  0  0  0  0
   -1.6653   19.5240   -2.7690 H   0  0  0  0  0  0  0  0  0  0  0  0
   -2.2224   17.9674   -2.0387 H   0  0  0  0  0  0  0  0  0  0  0  0
   -1.9181   19.5755   -0.2846 H   0  0  0  0  0  0  0  0  0  0  0  0
    0.7510   19.8030   -1.3520 H   0  0  0  0  0  0  0  0  0  0  0  0
   -1.7225   17.0579    1.6779 H   0  0  0  0  0  0  0  0  0  0  0  0
   -2.5899   17.5130    0.1722 H   0  0  0  0  0  0  0  0  0  0  0  0
   -1.4644   16.1130    0.1722 H   0  0  0  0  0  0  0  0  0  0  0  0
   -0.4022   18.1662    2.3699 H   0  0  0  0  0  0  0  0  0  0  0  0
    1.0964   18.7170    1.5467 H   0  0  0  0  0  0  0  0  0  0  0  0
   -0.3645   19.7623    1.5467 H   0  0  0  0  0  0  0  0  0  0  0  0
    2.9890   17.4354   -2.6313 H   0  0  0  0  0  0  0  0  0  0  0  0
    3.1070   16.2936   -4.0130 H   0  0  0  0  0  0  0  0  0  0  0  0
    1.8499   17.5767   -4.0130 H   0  0  0  0  0  0  0  0  0  0  0  0
   -0.0799   15.5753   -4.2038 H   0  0  0  0  0  0  0  0  0  0  0  0
    1.5875   14.8294   -4.5152 H   0  0  0  0  0  0  0  0  0  0  0  0
   -0.6274   13.7380   -2.7571 H   0  0  0  0  0  0  0  0  0  0  0  0
    0.0408   13.0494   -4.2891 H   0  0  0  0  0  0  0  0  0  0  0  0
    3.4770   12.4970   -2.9142 H   0  0  0  0  0  0  0  0  0  0  0  0
    2.4035   11.7722   -4.1588 H   0  0  0  0  0  0  0  0  0  0  0  0
    2.7116   13.5419   -4.1588 H   0  0  0  0  0  0  0  0  0  0  0  0
  1  2  1  0
  2  3  1  0
  3  4  1  0
  4  5  1  0
  5  6  1  0
  6  7  1  0
  7  8  1  0
  7  9  1  0
  2 10  1  0
 10 11  1  0
 11 12  1  0
 12 13  1  0
 13 14  1  1
 13 15  1  0
 15 16  1  0
 16 17  1  0
 17 18  2  0
 18 19  1  0
 19 20  1  0
 20 21  1  0
 21 22  1  0
 22 23  1  0
 22 24  1  0
 24 25  1  0
 24 26  1  0
 19 27  1  0
 27 28  1  6
 27 29  1  0
 29 30  1  0
 30 31  1  0
 31 32  1  6
  7  5  1  0
 31 10  1  0
 31 13  1  0
 27 15  1  0
 24 18  1  0
  1 33  1  0
  1 34  1  0
  1 35  1  0
  2 36  1  6
  3 37  1  0
  3 38  1  0
  4 39  1  0
  4 40  1  0
  5 41  1  1
  8 42  1  0
  8 43  1  0
  8 44  1  0
  9 45  1  0
  9 46  1  0
  9 47  1  0
 10 48  1  1
 11 49  1  0
 11 50  1  0
 12 51  1  0
 12 52  1  0
 14 53  1  0
 14 54  1  0
 14 55  1  0
 15 56  1  6
 16 57  1  0
 16 58  1  0
 17 59  1  0
 19 60  1  1
 20 61  1  0
 20 62  1  0
 21 63  1  0
 21 64  1  0
 22 65  1  1
 23 66  1  0
 25 67  1  0
 25 68  1  0
 25 69  1  0
 26 70  1  0
 26 71  1  0
 26 72  1  0
 28 73  1  0
 28 74  1  0
 28 75  1  0
 29 76  1  0
 29 77  1  0
 30 78  1  0
 30 79  1  0
 32 80  1  0
 32 81  1  0
 32 82  1  0
M  END
>  <meeko>  (19) 
{"is_sidechain": [false], "intermolecular_energy": 2.731, "internal_energy": -0.839}

$$$$
