EPH_relaxed_0001_pdb2pqr_Repair_23_r2_0001_out
     RDKit          3D

 82 86  0  0  0  0  0  0  0  0999 V2000
   -1.6540    8.6020   -1.9290 C   0  0  0  0  0  0  0  0  0  0  0  0
   -2.0380    9.1200   -0.5410 C   0  0  2  0  0  0  0  0  0  0  0  0
   -3.5320    9.4900   -0.4520 C   0  0  0  0  0  0  0  0  0  0  0  0
   -4.4590    8.2800   -0.3090 C   0  0  0  0  0  0  0  0  0  0  0  0
   -5.0960    7.9120   -1.6150 C   0  0  2  0  0  0  0  0  0  0  0  0
   -6.2160    8.7260   -1.9850 O   0  0  0  0  0  0  0  0  0  0  0  0
   -6.4960    7.3400   -1.7310 C   0  0  0  0  0  0  0  0  0  0  0  0
   -7.3450    7.1030   -0.5210 C   0  0  0  0  0  0  0  0  0  0  0  0
   -6.8520    6.5610   -2.9590 C   0  0  0  0  0  0  0  0  0  0  0  0
   -1.1800   10.3260   -0.1800 C   0  0  1  0  0  0  0  0  0  0  0  0
   -0.1400   10.0100    0.9280 C   0  0  0  0  0  0  0  0  0  0  0  0
    1.1260   10.8460    0.6050 C   0  0  0  0  0  0  0  0  0  0  0  0
    0.6620   11.8550   -0.4720 C   0  0  1  0  0  0  0  0  0  0  0  0
   -0.0420   12.9970    0.3260 C   0  0  0  0  0  0  0  0  0  0  0  0
    1.7730   12.4130   -1.4200 C   0  0  2  0  0  0  0  0  0  0  0  0
    2.8790   13.2240   -0.7220 C   0  0  0  0  0  0  0  0  0  0  0  0
    2.6250   14.6910   -0.6170 C   0  0  0  0  0  0  0  0  0  0  0  0
    1.6950   15.3750   -1.3090 C   0  0  0  0  0  0  0  0  0  0  0  0
    0.8440   14.6830   -2.3820 C   0  0  1  0  0  0  0  0  0  0  0  0
    0.8050   15.5620   -3.6590 C   0  0  0  0  0  0  0  0  0  0  0  0
    0.3400   16.9870   -3.3750 C   0  0  0  0  0  0  0  0  0  0  0  0
    1.2450   17.6620   -2.3470 C   0  0  2  0  0  0  0  0  0  0  0  0
    2.5420   17.8420   -2.9240 O   0  0  0  0  0  0  0  0  0  0  0  0
    1.3690   16.8610   -1.0210 C   0  0  0  0  0  0  0  0  0  0  0  0
    0.0280   16.9230   -0.2480 C   0  0  0  0  0  0  0  0  0  0  0  0
    2.4180   17.5770   -0.1280 C   0  0  0  0  0  0  0  0  0  0  0  0
    1.2180   13.1700   -2.6940 C   0  0  1  0  0  0  0  0  0  0  0  0
    2.3440   13.1110   -3.7720 C   0  0  0  0  0  0  0  0  0  0  0  0
   -0.0340   12.4490   -3.3190 C   0  0  0  0  0  0  0  0  0  0  0  0
   -1.0340   11.8140   -2.3350 C   0  0  0  0  0  0  0  0  0  0  0  0
   -0.3100   10.9420   -1.3040 C   0  0  2  0  0  0  0  0  0  0  0  0
    0.3900    9.7710   -2.0750 C   0  0  0  0  0  0  0  0  0  0  0  0
   -1.0019    7.7223   -1.8246 H   0  0  0  0  0  0  0  0  0  0  0  0
   -2.5636    8.3208   -2.4800 H   0  0  0  0  0  0  0  0  0  0  0  0
   -1.1205    9.3906   -2.4800 H   0  0  0  0  0  0  0  0  0  0  0  0
   -1.8562    8.3069    0.1772 H   0  0  0  0  0  0  0  0  0  0  0  0
   -3.6765   10.1431    0.4213 H   0  0  0  0  0  0  0  0  0  0  0  0
   -3.7965    9.9873   -1.3968 H   0  0  0  0  0  0  0  0  0  0  0  0
   -3.8733    7.4234    0.0558 H   0  0  0  0  0  0  0  0  0  0  0  0
   -5.2579    8.5421    0.4003 H   0  0  0  0  0  0  0  0  0  0  0  0
   -4.1283    7.5820   -2.0208 H   0  0  0  0  0  0  0  0  0  0  0  0
   -6.7456    7.2703    0.3860 H   0  0  0  0  0  0  0  0  0  0  0  0
   -8.1981    7.7973   -0.5300 H   0  0  0  0  0  0  0  0  0  0  0  0
   -7.7152    6.0672   -0.5300 H   0  0  0  0  0  0  0  0  0  0  0  0
   -7.2927    5.5966   -2.6665 H   0  0  0  0  0  0  0  0  0  0  0  0
   -7.5793    7.1304   -3.5564 H   0  0  0  0  0  0  0  0  0  0  0  0
   -5.9455    6.3837   -3.5564 H   0  0  0  0  0  0  0  0  0  0  0  0
   -1.9703   11.0324    0.1140 H   0  0  0  0  0  0  0  0  0  0  0  0
   -0.5389   10.2921    1.9135 H   0  0  0  0  0  0  0  0  0  0  0  0
    0.0929    8.9353    0.9561 H   0  0  0  0  0  0  0  0  0  0  0  0
    1.4832   11.3725    1.5023 H   0  0  0  0  0  0  0  0  0  0  0  0
    1.9621   10.2207    0.2587 H   0  0  0  0  0  0  0  0  0  0  0  0
    0.0709   12.8139    1.4048 H   0  0  0  0  0  0  0  0  0  0  0  0
    0.4181   13.9622    0.0678 H   0  0  0  0  0  0  0  0  0  0  0  0
   -1.1110   13.0196    0.0678 H   0  0  0  0  0  0  0  0  0  0  0  0
    2.2584   11.4943   -1.7810 H   0  0  0  0  0  0  0  0  0  0  0  0
    3.0005   12.8265    0.2964 H   0  0  0  0  0  0  0  0  0  0  0  0
    3.7770   13.1150   -1.3479 H   0  0  0  0  0  0  0  0  0  0  0  0
    3.2507   15.2614    0.0853 H   0  0  0  0  0  0  0  0  0  0  0  0
   -0.1673   14.5958   -1.9582 H   0  0  0  0  0  0  0  0  0  0  0  0
    1.8157   15.6006   -4.0914 H   0  0  0  0  0  0  0  0  0  0  0  0
    0.0838   15.1081   -4.3546 H   0  0  0  0  0  0  0  0  0  0  0  0
    0.3628   17.5661   -4.3099 H   0  0  0  0  0  0  0  0  0  0  0  0
   -0.6824   16.9486   -2.9710 H   0  0  0  0  0  0  0  0  0  0  0  0
    0.7878   18.6283   -2.0876 H   0  0  0  0  0  0  0  0  0  0  0  0
    3.1950   17.4990   -2.2910 H   0  0  0  0  0  0  0  0  0  0  0  0
    0.2276   16.9138    0.8337 H   0  0  0  0  0  0  0  0  0  0  0  0
   -0.5064   17.8468   -0.5144 H   0  0  0  0  0  0  0  0  0  0  0  0
   -0.5894   16.0524   -0.5144 H   0  0  0  0  0  0  0  0  0  0  0  0
    2.1731   17.4098    0.9313 H   0  0  0  0  0  0  0  0  0  0  0  0
    3.4184   17.1724   -0.3413 H   0  0  0  0  0  0  0  0  0  0  0  0
    2.4057   18.6561   -0.3413 H   0  0  0  0  0  0  0  0  0  0  0  0
    3.3244   13.0596   -3.2758 H   0  0  0  0  0  0  0  0  0  0  0  0
    2.2038   12.2190   -4.4002 H   0  0  0  0  0  0  0  0  0  0  0  0
    2.2978   14.0128   -4.4002 H   0  0  0  0  0  0  0  0  0  0  0  0
   -0.5820   13.1924   -3.9165 H   0  0  0  0  0  0  0  0  0  0  0  0
    0.3772   11.6065   -3.8944 H   0  0  0  0  0  0  0  0  0  0  0  0
   -1.5798   12.6125   -1.8111 H   0  0  0  0  0  0  0  0  0  0  0  0
   -1.7308   11.1802   -2.9031 H   0  0  0  0  0  0  0  0  0  0  0  0
    0.8156    9.0590   -1.3525 H   0  0  0  0  0  0  0  0  0  0  0  0
   -0.3480    9.2552   -2.7068 H   0  0  0  0  0  0  0  0  0  0  0  0
    1.1938   10.1768   -2.7068 H   0  0  0  0  0  0  0  0  0  0  0  0
  1  2  1  0
  2  3  1  0
  3  4  1  0
  4  5  1  0
  5  6  1  0
  6  7  1  0
  7  8  1  0
  7  9  1  0
  2 10  1  0
 10 11  1  0
 11 12  1  0
 12 13  1  0
 13 14  1  1
 13 15  1  0
 15 16  1  0
 16 17  1  0
 17 18  2  0
 18 19  1  0
 19 20  1  0
 20 21  1  0
 21 22  1  0
 22 23  1  0
 22 24  1  0
 24 25  1  0
 24 26  1  0
 19 27  1  0
 27 28  1  6
 27 29  1  0
 29 30  1  0
 30 31  1  0
 31 32  1  6
  7  5  1  0
 31 10  1  0
 31 13  1  0
 27 15  1  0
 24 18  1  0
  1 33  1  0
  1 34  1  0
  1 35  1  0
  2 36  1  1
  3 37  1  0
  3 38  1  0
  4 39  1  0
  4 40  1  0
  5 41  1  6
  8 42  1  0
  8 43  1  0
  8 44  1  0
  9 45  1  0
  9 46  1  0
  9 47  1  0
 10 48  1  1
 11 49  1  0
 11 50  1  0
 12 51  1  0
 12 52  1  0
 14 53  1  0
 14 54  1  0
 14 55  1  0
 15 56  1  6
 16 57  1  0
 16 58  1  0
 17 59  1  0
 19 60  1  1
 20 61  1  0
 20 62  1  0
 21 63  1  0
 21 64  1  0
 22 65  1  1
 23 66  1  0
 25 67  1  0
 25 68  1  0
 25 69  1  0
 26 70  1  0
 26 71  1  0
 26 72  1  0
 28 73  1  0
 28 74  1  0
 28 75  1  0
 29 76  1  0
 29 77  1  0
 30 78  1  0
 30 79  1  0
 32 80  1  0
 32 81  1  0
 32 82  1  0
M  END
>  <meeko>  (1) 
{"is_sidechain": [false], "intermolecular_energy": 2.731, "internal_energy": -0.839}

$$$$
EPH_relaxed_0001_pdb2pqr_Repair_23_r2_0001_out
     RDKit          3D

 82 86  0  0  0  0  0  0  0  0999 V2000
    4.3090   17.3120   -0.5910 C   0  0  0  0  0  0  0  0  0  0  0  0
    2.9440   17.9360   -0.2840 C   0  0  2  0  0  0  0  0  0  0  0  0
    2.9490   18.7140    1.0480 C   0  0  0  0  0  0  0  0  0  0  0  0
    4.3020   18.7020    1.7630 C   0  0  0  0  0  0  0  0  0  0  0  0
    4.1980   19.2470    3.1550 C   0  0  2  0  0  0  0  0  0  0  0  0
    5.2170   20.1940    3.5050 O   0  0  0  0  0  0  0  0  0  0  0  0
    5.2160   18.9620    4.2440 C   0  0  0  0  0  0  0  0  0  0  0  0
    6.4100   18.0980    3.9880 C   0  0  0  0  0  0  0  0  0  0  0  0
    4.7970   19.1170    5.6730 C   0  0  0  0  0  0  0  0  0  0  0  0
    1.8730   16.8530   -0.2500 C   0  0  1  0  0  0  0  0  0  0  0  0
    0.4510   17.4100   -0.5220 C   0  0  0  0  0  0  0  0  0  0  0  0
   -0.3150   16.3180   -1.3110 C   0  0  0  0  0  0  0  0  0  0  0  0
    0.5650   15.0530   -1.1800 C   0  0  1  0  0  0  0  0  0  0  0  0
    0.2140   14.4640    0.2220 C   0  0  0  0  0  0  0  0  0  0  0  0
    0.4110   13.9840   -2.3110 C   0  0  2  0  0  0  0  0  0  0  0  0
   -0.9870   13.3510   -2.4240 C   0  0  0  0  0  0  0  0  0  0  0  0
   -1.1950   12.1150   -1.6140 C   0  0  0  0  0  0  0  0  0  0  0  0
   -0.2220   11.3750   -1.0510 C   0  0  0  0  0  0  0  0  0  0  0  0
    1.2570   11.7080   -1.2880 C   0  0  1  0  0  0  0  0  0  0  0  0
    2.0310   10.4080   -1.6310 C   0  0  0  0  0  0  0  0  0  0  0  0
    1.8400    9.3180   -0.5810 C   0  0  0  0  0  0  0  0  0  0  0  0
    0.3620    8.9740   -0.4160 C   0  0  2  0  0  0  0  0  0  0  0  0
   -0.1070    8.3640   -1.6220 O   0  0  0  0  0  0  0  0  0  0  0  0
   -0.5210   10.2080   -0.0780 C   0  0  0  0  0  0  0  0  0  0  0  0
   -0.2160   10.6870    1.3630 C   0  0  0  0  0  0  0  0  0  0  0  0
   -2.0040    9.7490   -0.0780 C   0  0  0  0  0  0  0  0  0  0  0  0
    1.5470   12.8820   -2.3200 C   0  0  1  0  0  0  0  0  0  0  0  0
    1.6040   12.3130   -3.7700 C   0  0  0  0  0  0  0  0  0  0  0  0
    2.9700   13.4870   -2.0230 C   0  0  0  0  0  0  0  0  0  0  0  0
    3.0400   14.6220   -0.9840 C   0  0  0  0  0  0  0  0  0  0  0  0
    1.9940   15.7010   -1.2790 C   0  0  2  0  0  0  0  0  0  0  0  0
    2.3340   16.3280   -2.6750 C   0  0  0  0  0  0  0  0  0  0  0  0
    4.8247   17.0762    0.3516 H   0  0  0  0  0  0  0  0  0  0  0  0
    4.1678   16.3890   -1.1725 H   0  0  0  0  0  0  0  0  0  0  0  0
    4.9146   18.0227   -1.1725 H   0  0  0  0  0  0  0  0  0  0  0  0
    2.7201   18.6545   -1.0863 H   0  0  0  0  0  0  0  0  0  0  0  0
    2.6751   19.7590    0.8407 H   0  0  0  0  0  0  0  0  0  0  0  0
    2.2293   18.2154    1.7139 H   0  0  0  0  0  0  0  0  0  0  0  0
    4.6701   17.6666    1.8121 H   0  0  0  0  0  0  0  0  0  0  0  0
    4.9954   19.3403    1.1957 H   0  0  0  0  0  0  0  0  0  0  0  0
    3.1014   19.1648    3.1304 H   0  0  0  0  0  0  0  0  0  0  0  0
    6.8465   17.7822    4.9470 H   0  0  0  0  0  0  0  0  0  0  0  0
    6.1043   17.2106    3.4144 H   0  0  0  0  0  0  0  0  0  0  0  0
    7.1573   18.6659    3.4144 H   0  0  0  0  0  0  0  0  0  0  0  0
    5.6227   18.8115    6.3324 H   0  0  0  0  0  0  0  0  0  0  0  0
    4.5418   20.1690    5.8682 H   0  0  0  0  0  0  0  0  0  0  0  0
    3.9186   18.4843    5.8682 H   0  0  0  0  0  0  0  0  0  0  0  0
    2.0332   16.4675    0.7677 H   0  0  0  0  0  0  0  0  0  0  0  0
   -0.0615   17.6201    0.4284 H   0  0  0  0  0  0  0  0  0  0  0  0
    0.4978   18.3492   -1.0926 H   0  0  0  0  0  0  0  0  0  0  0  0
   -1.3090   16.1468   -0.8720 H   0  0  0  0  0  0  0  0  0  0  0  0
   -0.4837   16.6022   -2.3602 H   0  0  0  0  0  0  0  0  0  0  0  0
    0.6085   15.1259    1.0070 H   0  0  0  0  0  0  0  0  0  0  0  0
   -0.8785   14.3852    0.3236 H   0  0  0  0  0  0  0  0  0  0  0  0
    0.6646   13.4657    0.3236 H   0  0  0  0  0  0  0  0  0  0  0  0
    0.5417   14.5846   -3.2232 H   0  0  0  0  0  0  0  0  0  0  0  0
   -1.7257   14.0985   -2.0991 H   0  0  0  0  0  0  0  0  0  0  0  0
   -1.0995   13.0480   -3.4754 H   0  0  0  0  0  0  0  0  0  0  0  0
   -2.2321   11.7802   -1.4643 H   0  0  0  0  0  0  0  0  0  0  0  0
    1.6305   12.1264   -0.3417 H   0  0  0  0  0  0  0  0  0  0  0  0
    1.6734   10.0302   -2.6002 H   0  0  0  0  0  0  0  0  0  0  0  0
    3.1021   10.6562   -1.6629 H   0  0  0  0  0  0  0  0  0  0  0  0
    2.3869    8.4164   -0.8941 H   0  0  0  0  0  0  0  0  0  0  0  0
    2.2250    9.6858    0.3816 H   0  0  0  0  0  0  0  0  0  0  0  0
    0.2778    8.2848    0.4371 H   0  0  0  0  0  0  0  0  0  0  0  0
    0.5940    8.4530   -2.2890 H   0  0  0  0  0  0  0  0  0  0  0  0
   -0.6620    9.9865    2.0844 H   0  0  0  0  0  0  0  0  0  0  0  0
    0.8729   10.7249    1.5140 H   0  0  0  0  0  0  0  0  0  0  0  0
   -0.6423   11.6897    1.5140 H   0  0  0  0  0  0  0  0  0  0  0  0
   -2.3543    9.6406    0.9591 H   0  0  0  0  0  0  0  0  0  0  0  0
   -2.6198   10.4986   -0.5965 H   0  0  0  0  0  0  0  0  0  0  0  0
   -2.0887    8.7826   -0.5965 H   0  0  0  0  0  0  0  0  0  0  0  0
    1.7136   11.2192   -3.7306 H   0  0  0  0  0  0  0  0  0  0  0  0
    0.6757   12.5696   -4.3013 H   0  0  0  0  0  0  0  0  0  0  0  0
    2.4630   12.7487   -4.3013 H   0  0  0  0  0  0  0  0  0  0  0  0
    3.6114   12.6682   -1.6649 H   0  0  0  0  0  0  0  0  0  0  0  0
    3.2913   13.9444   -2.9704 H   0  0  0  0  0  0  0  0  0  0  0  0
    2.8546   14.2053    0.0170 H   0  0  0  0  0  0  0  0  0  0  0  0
    4.0390   15.0799   -1.0317 H   0  0  0  0  0  0  0  0  0  0  0  0
    2.8538   17.2865   -2.5297 H   0  0  0  0  0  0  0  0  0  0  0  0
    2.9829   15.6406   -3.2374 H   0  0  0  0  0  0  0  0  0  0  0  0
    1.4039   16.4969   -3.2374 H   0  0  0  0  0  0  0  0  0  0  0  0
  1  2  1  0
  2  3  1  0
  3  4  1  0
  4  5  1  0
  5  6  1  0
  6  7  1  0
  7  8  1  0
  7  9  1  0
  2 10  1  0
 10 11  1  0
 11 12  1  0
 12 13  1  0
 13 14  1  1
 13 15  1  0
 15 16  1  0
 16 17  1  0
 17 18  2  0
 18 19  1  0
 19 20  1  0
 20 21  1  0
 21 22  1  0
 22 23  1  0
 22 24  1  0
 24 25  1  0
 24 26  1  0
 19 27  1  0
 27 28  1  6
 27 29  1  0
 29 30  1  0
 30 31  1  0
 31 32  1  6
  7  5  1  0
 31 10  1  0
 31 13  1  0
 27 15  1  0
 24 18  1  0
  1 33  1  0
  1 34  1  0
  1 35  1  0
  2 36  1  6
  3 37  1  0
  3 38  1  0
  4 39  1  0
  4 40  1  0
  5 41  1  1
  8 42  1  0
  8 43  1  0
  8 44  1  0
  9 45  1  0
  9 46  1  0
  9 47  1  0
 10 48  1  1
 11 49  1  0
 11 50  1  0
 12 51  1  0
 12 52  1  0
 14 53  1  0
 14 54  1  0
 14 55  1  0
 15 56  1  6
 16 57  1  0
 16 58  1  0
 17 59  1  0
 19 60  1  1
 20 61  1  0
 20 62  1  0
 21 63  1  0
 21 64  1  0
 22 65  1  1
 23 66  1  0
 25 67  1  0
 25 68  1  0
 25 69  1  0
 26 70  1  0
 26 71  1  0
 26 72  1  0
 28 73  1  0
 28 74  1  0
 28 75  1  0
 29 76  1  0
 29 77  1  0
 30 78  1  0
 30 79  1  0
 32 80  1  0
 32 81  1  0
 32 82  1  0
M  END
>  <meeko>  (2) 
{"is_sidechain": [false], "intermolecular_energy": 2.731, "internal_energy": -0.839}

$$$$
EPH_relaxed_0001_pdb2pqr_Repair_23_r2_0001_out
     RDKit          3D

 82 86  0  0  0  0  0  0  0  0999 V2000
   -3.4810    9.3190    0.4100 C   0  0  0  0  0  0  0  0  0  0  0  0
   -2.6120    9.6630   -0.8040 C   0  0  2  0  0  0  0  0  0  0  0  0
   -1.9280    8.4160   -1.3990 C   0  0  0  0  0  0  0  0  0  0  0  0
   -2.8420    7.5850   -2.3030 C   0  0  0  0  0  0  0  0  0  0  0  0
   -4.2630    7.6080   -1.8270 C   0  0  2  0  0  0  0  0  0  0  0  0
   -4.7670    6.3410   -1.3850 O   0  0  0  0  0  0  0  0  0  0  0  0
   -5.3980    6.9040   -2.5460 C   0  0  0  0  0  0  0  0  0  0  0  0
   -5.1630    6.1270   -3.8040 C   0  0  0  0  0  0  0  0  0  0  0  0
   -6.7990    7.3730   -2.3040 C   0  0  0  0  0  0  0  0  0  0  0  0
   -1.5630   10.6970   -0.4150 C   0  0  1  0  0  0  0  0  0  0  0  0
   -0.4770   10.1210    0.5330 C   0  0  0  0  0  0  0  0  0  0  0  0
    0.8570   10.8190    0.1630 C   0  0  0  0  0  0  0  0  0  0  0  0
    0.4400   11.9990   -0.7460 C   0  0  1  0  0  0  0  0  0  0  0  0
   -0.0180   13.1200    0.2380 C   0  0  0  0  0  0  0  0  0  0  0  0
    1.5250   12.5170   -1.7460 C   0  0  2  0  0  0  0  0  0  0  0  0
    2.7940   13.0900   -1.0930 C   0  0  0  0  0  0  0  0  0  0  0  0
    2.7600   14.5550   -0.8090 C   0  0  0  0  0  0  0  0  0  0  0  0
    1.8740   15.4300   -1.3210 C   0  0  0  0  0  0  0  0  0  0  0  0
    0.8370   14.9850   -2.3600 C   0  0  1  0  0  0  0  0  0  0  0  0
    0.8020   16.0060   -3.5270 C   0  0  0  0  0  0  0  0  0  0  0  0
    0.5700   17.4360   -3.0470 C   0  0  0  0  0  0  0  0  0  0  0  0
    1.6540   17.8620   -2.0600 C   0  0  2  0  0  0  0  0  0  0  0  0
    2.9030   17.9400   -2.7530 O   0  0  0  0  0  0  0  0  0  0  0  0
    1.7880   16.9020   -0.8460 C   0  0  0  0  0  0  0  0  0  0  0  0
    0.5490   17.0450    0.0710 C   0  0  0  0  0  0  0  0  0  0  0  0
    3.0070   17.3660   -0.0030 C   0  0  0  0  0  0  0  0  0  0  0  0
    0.9640   13.4840   -2.8670 C   0  0  1  0  0  0  0  0  0  0  0  0
    1.9640   13.4080   -4.0610 C   0  0  0  0  0  0  0  0  0  0  0  0
   -0.4300   13.0090   -3.4230 C   0  0  0  0  0  0  0  0  0  0  0  0
   -1.4120   12.3970   -2.4070 C   0  0  0  0  0  0  0  0  0  0  0  0
   -0.7240   11.3240   -1.5580 C   0  0  2  0  0  0  0  0  0  0  0  0
   -0.2720   10.1710   -2.5180 C   0  0  0  0  0  0  0  0  0  0  0  0
   -2.9249    9.5391    1.3332 H   0  0  0  0  0  0  0  0  0  0  0  0
   -4.4016    9.9205    0.3842 H   0  0  0  0  0  0  0  0  0  0  0  0
   -3.7404    8.2503    0.3842 H   0  0  0  0  0  0  0  0  0  0  0  0
   -3.2734   10.0781   -1.5787 H   0  0  0  0  0  0  0  0  0  0  0  0
   -1.0605    8.7446   -1.9902 H   0  0  0  0  0  0  0  0  0  0  0  0
   -1.6409    7.7730   -0.5540 H   0  0  0  0  0  0  0  0  0  0  0  0
   -2.8013    7.9938   -3.3234 H   0  0  0  0  0  0  0  0  0  0  0  0
   -2.4901    6.5430   -2.2812 H   0  0  0  0  0  0  0  0  0  0  0  0
   -4.1482    8.6391   -1.4615 H   0  0  0  0  0  0  0  0  0  0  0  0
   -4.8532    5.1026   -3.5498 H   0  0  0  0  0  0  0  0  0  0  0  0
   -6.0913    6.0938   -4.3932 H   0  0  0  0  0  0  0  0  0  0  0  0
   -4.3719    6.6138   -4.3932 H   0  0  0  0  0  0  0  0  0  0  0  0
   -6.9832    7.4346   -1.2213 H   0  0  0  0  0  0  0  0  0  0  0  0
   -6.9365    8.3662   -2.7565 H   0  0  0  0  0  0  0  0  0  0  0  0
   -7.5067    6.6628   -2.7565 H   0  0  0  0  0  0  0  0  0  0  0  0
   -2.2152   11.4593    0.0361 H   0  0  0  0  0  0  0  0  0  0  0  0
   -0.7376   10.3332    1.5804 H   0  0  0  0  0  0  0  0  0  0  0  0
   -0.3952    9.0296    0.4223 H   0  0  0  0  0  0  0  0  0  0  0  0
    1.3671   11.1857    1.0660 H   0  0  0  0  0  0  0  0  0  0  0  0
    1.5610   10.1365   -0.3356 H   0  0  0  0  0  0  0  0  0  0  0  0
    0.1217   12.7780    1.2741 H   0  0  0  0  0  0  0  0  0  0  0  0
    0.5821   14.0258    0.0668 H   0  0  0  0  0  0  0  0  0  0  0  0
   -1.0807   13.3465    0.0668 H   0  0  0  0  0  0  0  0  0  0  0  0
    1.8412   11.5922   -2.2508 H   0  0  0  0  0  0  0  0  0  0  0  0
    2.9537   12.5630   -0.1408 H   0  0  0  0  0  0  0  0  0  0  0  0
    3.6047   12.9403   -1.8213 H   0  0  0  0  0  0  0  0  0  0  0  0
    3.5229   14.9532   -0.1238 H   0  0  0  0  0  0  0  0  0  0  0  0
   -0.1320   14.9797   -1.8393 H   0  0  0  0  0  0  0  0  0  0  0  0
    1.7631   15.9647   -4.0605 H   0  0  0  0  0  0  0  0  0  0  0  0
   -0.0376   15.7339   -4.1835 H   0  0  0  0  0  0  0  0  0  0  0  0
    0.5853   18.1136   -3.9134 H   0  0  0  0  0  0  0  0  0  0  0  0
   -0.4050   17.4827   -2.5399 H   0  0  0  0  0  0  0  0  0  0  0  0
    1.3639   18.8421   -1.6534 H   0  0  0  0  0  0  0  0  0  0  0  0
    2.8490   18.6860   -3.3750 H   0  0  0  0  0  0  0  0  0  0  0  0
    0.8658   17.0084    1.1238 H   0  0  0  0  0  0  0  0  0  0  0  0
    0.0534   18.0063   -0.1296 H   0  0  0  0  0  0  0  0  0  0  0  0
   -0.1526   16.2219   -0.1296 H   0  0  0  0  0  0  0  0  0  0  0  0
    2.7687   17.2753    1.0670 H   0  0  0  0  0  0  0  0  0  0  0  0
    3.8774   16.7363   -0.2395 H   0  0  0  0  0  0  0  0  0  0  0  0
    3.2384   18.4151   -0.2395 H   0  0  0  0  0  0  0  0  0  0  0  0
    2.9910   13.3299   -3.6747 H   0  0  0  0  0  0  0  0  0  0  0  0
    1.7352   12.5247   -4.6753 H   0  0  0  0  0  0  0  0  0  0  0  0
    1.8713   14.3158   -4.6753 H   0  0  0  0  0  0  0  0  0  0  0  0
   -0.9220   13.8820   -3.8767 H   0  0  0  0  0  0  0  0  0  0  0  0
   -0.1971   12.1941   -4.1242 H   0  0  0  0  0  0  0  0  0  0  0  0
   -1.7884   13.1920   -1.7465 H   0  0  0  0  0  0  0  0  0  0  0  0
   -2.2414   11.9298   -2.9583 H   0  0  0  0  0  0  0  0  0  0  0  0
    0.0657    9.3096   -1.9230 H   0  0  0  0  0  0  0  0  0  0  0  0
   -1.1184    9.8692   -3.1525 H   0  0  0  0  0  0  0  0  0  0  0  0
    0.5540   10.5248   -3.1525 H   0  0  0  0  0  0  0  0  0  0  0  0
  1  2  1  0
  2  3  1  0
  3  4  1  0
  4  5  1  0
  5  6  1  0
  6  7  1  0
  7  8  1  0
  7  9  1  0
  2 10  1  0
 10 11  1  0
 11 12  1  0
 12 13  1  0
 13 14  1  1
 13 15  1  0
 15 16  1  0
 16 17  1  0
 17 18  2  0
 18 19  1  0
 19 20  1  0
 20 21  1  0
 21 22  1  0
 22 23  1  0
 22 24  1  0
 24 25  1  0
 24 26  1  0
 19 27  1  0
 27 28  1  6
 27 29  1  0
 29 30  1  0
 30 31  1  0
 31 32  1  6
  7  5  1  0
 31 10  1  0
 31 13  1  0
 27 15  1  0
 24 18  1  0
  1 33  1  0
  1 34  1  0
  1 35  1  0
  2 36  1  6
  3 37  1  0
  3 38  1  0
  4 39  1  0
  4 40  1  0
  5 41  1  1
  8 42  1  0
  8 43  1  0
  8 44  1  0
  9 45  1  0
  9 46  1  0
  9 47  1  0
 10 48  1  1
 11 49  1  0
 11 50  1  0
 12 51  1  0
 12 52  1  0
 14 53  1  0
 14 54  1  0
 14 55  1  0
 15 56  1  6
 16 57  1  0
 16 58  1  0
 17 59  1  0
 19 60  1  1
 20 61  1  0
 20 62  1  0
 21 63  1  0
 21 64  1  0
 22 65  1  1
 23 66  1  0
 25 67  1  0
 25 68  1  0
 25 69  1  0
 26 70  1  0
 26 71  1  0
 26 72  1  0
 28 73  1  0
 28 74  1  0
 28 75  1  0
 29 76  1  0
 29 77  1  0
 30 78  1  0
 30 79  1  0
 32 80  1  0
 32 81  1  0
 32 82  1  0
M  END
>  <meeko>  (3) 
{"is_sidechain": [false], "intermolecular_energy": 2.731, "internal_energy": -0.839}

$$$$
EPH_relaxed_0001_pdb2pqr_Repair_23_r2_0001_out
     RDKit          3D

 82 86  0  0  0  0  0  0  0  0999 V2000
    2.3770   18.1880   -2.7190 C   0  0  0  0  0  0  0  0  0  0  0  0
    1.0880   17.8030   -1.9880 C   0  0  2  0  0  0  0  0  0  0  0  0
    1.2470   17.8680   -0.4560 C   0  0  0  0  0  0  0  0  0  0  0  0
    0.8500   19.2190    0.1470 C   0  0  0  0  0  0  0  0  0  0  0  0
   -0.6040   19.2570    0.5110 C   0  0  2  0  0  0  0  0  0  0  0  0
   -1.4260   18.3270   -0.2070 O   0  0  0  0  0  0  0  0  0  0  0  0
   -1.6930   19.7200   -0.4390 C   0  0  0  0  0  0  0  0  0  0  0  0
   -1.3740   20.1770   -1.8280 C   0  0  0  0  0  0  0  0  0  0  0  0
   -2.9930   20.1880    0.1360 C   0  0  0  0  0  0  0  0  0  0  0  0
    0.6520   16.4030   -2.4070 C   0  0  1  0  0  0  0  0  0  0  0  0
    0.7510   16.1810   -3.9400 C   0  0  0  0  0  0  0  0  0  0  0  0
    1.1640   14.7010   -4.1510 C   0  0  0  0  0  0  0  0  0  0  0  0
    0.9670   14.0400   -2.7670 C   0  0  1  0  0  0  0  0  0  0  0  0
   -0.5610   13.7330   -2.6840 C   0  0  0  0  0  0  0  0  0  0  0  0
    1.8280   12.7670   -2.4800 C   0  0  2  0  0  0  0  0  0  0  0  0
    1.5570   11.5720   -3.4120 C   0  0  0  0  0  0  0  0  0  0  0  0
    0.5050   10.6230   -2.9420 C   0  0  0  0  0  0  0  0  0  0  0  0
    0.0070   10.5640   -1.6930 C   0  0  0  0  0  0  0  0  0  0  0  0
    0.5750   11.4470   -0.5750 C   0  0  1  0  0  0  0  0  0  0  0  0
    0.8090   10.5890    0.6960 C   0  0  0  0  0  0  0  0  0  0  0  0
   -0.4440    9.8330    1.1290 C   0  0  0  0  0  0  0  0  0  0  0  0
   -0.9450    8.9220    0.0120 C   0  0  2  0  0  0  0  0  0  0  0  0
    0.0160    7.8830   -0.2010 O   0  0  0  0  0  0  0  0  0  0  0  0
   -1.2060    9.6750   -1.3220 C   0  0  0  0  0  0  0  0  0  0  0  0
   -2.4490   10.5860   -1.1710 C   0  0  0  0  0  0  0  0  0  0  0  0
   -1.5700    8.6200   -2.4020 C   0  0  0  0  0  0  0  0  0  0  0  0
    1.8440   12.3230   -0.9610 C   0  0  1  0  0  0  0  0  0  0  0  0
    3.1470   11.4930   -0.7540 C   0  0  0  0  0  0  0  0  0  0  0  0
    1.9380   13.5510    0.0190 C   0  0  0  0  0  0  0  0  0  0  0  0
    1.1610   14.8210   -0.3790 C   0  0  0  0  0  0  0  0  0  0  0  0
    1.4520   15.2070   -1.8330 C   0  0  2  0  0  0  0  0  0  0  0  0
    2.9780   15.5440   -1.9420 C   0  0  0  0  0  0  0  0  0  0  0  0
    3.1601   18.4219   -1.9828 H   0  0  0  0  0  0  0  0  0  0  0  0
    2.7055   17.3488   -3.3497 H   0  0  0  0  0  0  0  0  0  0  0  0
    2.1914   19.0699   -3.3497 H   0  0  0  0  0  0  0  0  0  0  0  0
    0.3163   18.5341   -2.2708 H   0  0  0  0  0  0  0  0  0  0  0  0
    0.6140   17.0880   -0.0077 H   0  0  0  0  0  0  0  0  0  0  0  0
    2.3146   17.7192   -0.2368 H   0  0  0  0  0  0  0  0  0  0  0  0
    1.4491   19.3952    1.0526 H   0  0  0  0  0  0  0  0  0  0  0  0
    1.0359   19.9990   -0.6060 H   0  0  0  0  0  0  0  0  0  0  0  0
   -0.3611   19.5360    1.5469 H   0  0  0  0  0  0  0  0  0  0  0  0
   -0.7449   21.0782   -1.7821 H   0  0  0  0  0  0  0  0  0  0  0  0
   -0.8348   19.3803   -2.3614 H   0  0  0  0  0  0  0  0  0  0  0  0
   -2.3078   20.4084   -2.3614 H   0  0  0  0  0  0  0  0  0  0  0  0
   -2.9366   20.1677    1.2344 H   0  0  0  0  0  0  0  0  0  0  0  0
   -3.1948   21.2152   -0.2019 H   0  0  0  0  0  0  0  0  0  0  0  0
   -3.8032   19.5251   -0.2019 H   0  0  0  0  0  0  0  0  0  0  0  0
   -0.3710   16.3995   -2.0026 H   0  0  0  0  0  0  0  0  0  0  0  0
   -0.2224   16.3742   -4.4145 H   0  0  0  0  0  0  0  0  0  0  0  0
    1.4849   16.8645   -4.3919 H   0  0  0  0  0  0  0  0  0  0  0  0
    0.5218   14.2223   -4.9049 H   0  0  0  0  0  0  0  0  0  0  0  0
    2.1970   14.6042   -4.5163 H   0  0  0  0  0  0  0  0  0  0  0  0
   -0.8659   13.6717   -1.6289 H   0  0  0  0  0  0  0  0  0  0  0  0
   -1.1239   14.5360   -3.1823 H   0  0  0  0  0  0  0  0  0  0  0  0
   -0.7701   12.7749   -3.1823 H   0  0  0  0  0  0  0  0  0  0  0  0
    2.8444   13.1109   -2.7223 H   0  0  0  0  0  0  0  0  0  0  0  0
    1.2456   11.9675   -4.3901 H   0  0  0  0  0  0  0  0  0  0  0  0
    2.4931   10.9954   -3.4478 H   0  0  0  0  0  0  0  0  0  0  0  0
    0.1028    9.9119   -3.6786 H   0  0  0  0  0  0  0  0  0  0  0  0
   -0.1904   12.2109   -0.3734 H   0  0  0  0  0  0  0  0  0  0  0  0
    1.6065    9.8604    0.4880 H   0  0  0  0  0  0  0  0  0  0  0  0
    1.0874   11.2707    1.5131 H   0  0  0  0  0  0  0  0  0  0  0  0
   -0.2084    9.2224    2.0131 H   0  0  0  0  0  0  0  0  0  0  0  0
   -1.2311   10.5643    1.3651 H   0  0  0  0  0  0  0  0  0  0  0  0
   -1.9126    8.5083    0.3323 H   0  0  0  0  0  0  0  0  0  0  0  0
   -0.2750    7.1040    0.3020 H   0  0  0  0  0  0  0  0  0  0  0  0
   -2.6618   10.7419   -0.1031 H   0  0  0  0  0  0  0  0  0  0  0  0
   -2.2532   11.5560   -1.6513 H   0  0  0  0  0  0  0  0  0  0  0  0
   -3.3150   10.1072   -1.6513 H   0  0  0  0  0  0  0  0  0  0  0  0
   -1.8912    7.6892   -1.9117 H   0  0  0  0  0  0  0  0  0  0  0  0
   -2.3874    9.0047   -3.0296 H   0  0  0  0  0  0  0  0  0  0  0  0
   -0.6893    8.4189   -3.0296 H   0  0  0  0  0  0  0  0  0  0  0  0
    3.3373   11.3717    0.3226 H   0  0  0  0  0  0  0  0  0  0  0  0
    3.0291   10.5032   -1.2193 H   0  0  0  0  0  0  0  0  0  0  0  0
    3.9941   12.0183   -1.2193 H   0  0  0  0  0  0  0  0  0  0  0  0
    1.5606   13.2238    0.9991 H   0  0  0  0  0  0  0  0  0  0  0  0
    2.9973   13.8471    0.0073 H   0  0  0  0  0  0  0  0  0  0  0  0
    0.0830   14.6343   -0.2648 H   0  0  0  0  0  0  0  0  0  0  0  0
    1.4792   15.6468    0.2742 H   0  0  0  0  0  0  0  0  0  0  0  0
    3.4056   15.6384   -0.9329 H   0  0  0  0  0  0  0  0  0  0  0  0
    3.4936   14.7381   -2.4848 H   0  0  0  0  0  0  0  0  0  0  0  0
    3.1063   16.4921   -2.4848 H   0  0  0  0  0  0  0  0  0  0  0  0
  1  2  1  0
  2  3  1  0
  3  4  1  0
  4  5  1  0
  5  6  1  0
  6  7  1  0
  7  8  1  0
  7  9  1  0
  2 10  1  0
 10 11  1  0
 11 12  1  0
 12 13  1  0
 13 14  1  1
 13 15  1  0
 15 16  1  0
 16 17  1  0
 17 18  2  0
 18 19  1  0
 19 20  1  0
 20 21  1  0
 21 22  1  0
 22 23  1  0
 22 24  1  0
 24 25  1  0
 24 26  1  0
 19 27  1  0
 27 28  1  6
 27 29  1  0
 29 30  1  0
 30 31  1  0
 31 32  1  1
  7  5  1  0
 31 10  1  0
 31 13  1  0
 27 15  1  0
 24 18  1  0
  1 33  1  0
  1 34  1  0
  1 35  1  0
  2 36  1  6
  3 37  1  0
  3 38  1  0
  4 39  1  0
  4 40  1  0
  5 41  1  1
  8 42  1  0
  8 43  1  0
  8 44  1  0
  9 45  1  0
  9 46  1  0
  9 47  1  0
 10 48  1  1
 11 49  1  0
 11 50  1  0
 12 51  1  0
 12 52  1  0
 14 53  1  0
 14 54  1  0
 14 55  1  0
 15 56  1  6
 16 57  1  0
 16 58  1  0
 17 59  1  0
 19 60  1  1
 20 61  1  0
 20 62  1  0
 21 63  1  0
 21 64  1  0
 22 65  1  1
 23 66  1  0
 25 67  1  0
 25 68  1  0
 25 69  1  0
 26 70  1  0
 26 71  1  0
 26 72  1  0
 28 73  1  0
 28 74  1  0
 28 75  1  0
 29 76  1  0
 29 77  1  0
 30 78  1  0
 30 79  1  0
 32 80  1  0
 32 81  1  0
 32 82  1  0
M  END
>  <meeko>  (4) 
{"is_sidechain": [false], "intermolecular_energy": 2.731, "internal_energy": -0.839}

$$$$
EPH_relaxed_0001_pdb2pqr_Repair_23_r2_0001_out
     RDKit          3D

 82 86  0  0  0  0  0  0  0  0999 V2000
    2.1730   18.0340   -2.6430 C   0  0  0  0  0  0  0  0  0  0  0  0
    0.6500   17.8740   -2.6590 C   0  0  2  0  0  0  0  0  0  0  0  0
    0.0050   18.3270   -1.3340 C   0  0  0  0  0  0  0  0  0  0  0  0
    0.7920   17.9070   -0.0900 C   0  0  0  0  0  0  0  0  0  0  0  0
    1.2930   19.0930    0.6760 C   0  0  2  0  0  0  0  0  0  0  0  0
    2.1610   19.9610   -0.0640 O   0  0  0  0  0  0  0  0  0  0  0  0
    2.7480   19.2860    1.0610 C   0  0  0  0  0  0  0  0  0  0  0  0
    3.7930   18.2810    0.6920 C   0  0  0  0  0  0  0  0  0  0  0  0
    3.0700   20.1940    2.2070 C   0  0  0  0  0  0  0  0  0  0  0  0
    0.2840   16.4230   -2.9470 C   0  0  1  0  0  0  0  0  0  0  0  0
    0.3360   16.0820   -4.4600 C   0  0  0  0  0  0  0  0  0  0  0  0
    0.8300   14.6170   -4.5720 C   0  0  0  0  0  0  0  0  0  0  0  0
    0.7270   14.0600   -3.1330 C   0  0  1  0  0  0  0  0  0  0  0  0
   -0.7760   13.6730   -2.9590 C   0  0  0  0  0  0  0  0  0  0  0  0
    1.6740   12.8650   -2.7850 C   0  0  2  0  0  0  0  0  0  0  0  0
    1.4390   11.5860   -3.6070 C   0  0  0  0  0  0  0  0  0  0  0  0
    0.4660   10.6190   -3.0180 C   0  0  0  0  0  0  0  0  0  0  0  0
    0.0210   10.6330   -1.7480 C   0  0  0  0  0  0  0  0  0  0  0  0
    0.5780   11.6350   -0.7290 C   0  0  1  0  0  0  0  0  0  0  0  0
    0.9130   10.8970    0.5940 C   0  0  0  0  0  0  0  0  0  0  0  0
   -0.2740   10.1090    1.1400 C   0  0  0  0  0  0  0  0  0  0  0  0
   -0.7620    9.0830    0.1210 C   0  0  2  0  0  0  0  0  0  0  0  0
    0.2510    8.0870   -0.0520 O   0  0  0  0  0  0  0  0  0  0  0  0
   -1.1200    9.7090   -1.2560 C   0  0  0  0  0  0  0  0  0  0  0  0
   -2.4090   10.5570   -1.1220 C   0  0  0  0  0  0  0  0  0  0  0  0
   -1.4620    8.5510   -2.2320 C   0  0  0  0  0  0  0  0  0  0  0  0
    1.7750   12.5480   -1.2380 C   0  0  1  0  0  0  0  0  0  0  0  0
    3.1340   11.8130   -1.0230 C   0  0  0  0  0  0  0  0  0  0  0  0
    1.8340   13.8550   -0.3620 C   0  0  0  0  0  0  0  0  0  0  0  0
    0.9670   15.0410   -0.8250 C   0  0  0  0  0  0  0  0  0  0  0  0
    1.1760   15.3250   -2.3150 C   0  0  2  0  0  0  0  0  0  0  0  0
    2.6740   15.7380   -2.5180 C   0  0  0  0  0  0  0  0  0  0  0  0
    2.5269   18.0712   -1.6021 H   0  0  0  0  0  0  0  0  0  0  0  0
    2.6369   17.1796   -3.1577 H   0  0  0  0  0  0  0  0  0  0  0  0
    2.4492   18.9661   -3.1577 H   0  0  0  0  0  0  0  0  0  0  0  0
    0.2568   18.5223   -3.4560 H   0  0  0  0  0  0  0  0  0  0  0  0
   -0.0712   19.4243   -1.3424 H   0  0  0  0  0  0  0  0  0  0  0  0
   -0.9783   17.8379   -1.2720 H   0  0  0  0  0  0  0  0  0  0  0  0
    0.1360   17.3123    0.5628 H   0  0  0  0  0  0  0  0  0  0  0  0
    1.6616   17.3182   -0.4173 H   0  0  0  0  0  0  0  0  0  0  0  0
    0.3627   19.1375    1.2613 H   0  0  0  0  0  0  0  0  0  0  0  0
    4.2335   17.8574    1.6066 H   0  0  0  0  0  0  0  0  0  0  0  0
    3.3344   17.4760    0.0990 H   0  0  0  0  0  0  0  0  0  0  0  0
    4.5795   18.7707    0.0990 H   0  0  0  0  0  0  0  0  0  0  0  0
    2.8835   19.6682    3.1550 H   0  0  0  0  0  0  0  0  0  0  0  0
    4.1280   20.4903    2.1540 H   0  0  0  0  0  0  0  0  0  0  0  0
    2.4350   21.0907    2.1540 H   0  0  0  0  0  0  0  0  0  0  0  0
   -0.7206   16.3949   -2.4998 H   0  0  0  0  0  0  0  0  0  0  0  0
   -0.6654   16.1790   -4.9047 H   0  0  0  0  0  0  0  0  0  0  0  0
    1.0087   16.7675   -4.9963 H   0  0  0  0  0  0  0  0  0  0  0  0
    0.1897   14.0425   -5.2576 H   0  0  0  0  0  0  0  0  0  0  0  0
    1.8522   14.5508   -4.9730 H   0  0  0  0  0  0  0  0  0  0  0  0
   -1.0170   13.6110   -1.8875 H   0  0  0  0  0  0  0  0  0  0  0  0
   -1.4088   14.4375   -3.4335 H   0  0  0  0  0  0  0  0  0  0  0  0
   -0.9609   12.6980   -3.4335 H   0  0  0  0  0  0  0  0  0  0  0  0
    2.6580   13.2442   -3.0979 H   0  0  0  0  0  0  0  0  0  0  0  0
    1.0655   11.8828   -4.5981 H   0  0  0  0  0  0  0  0  0  0  0  0
    2.4062   11.0630   -3.6391 H   0  0  0  0  0  0  0  0  0  0  0  0
    0.0801    9.8281   -3.6780 H   0  0  0  0  0  0  0  0  0  0  0  0
   -0.2233   12.3681   -0.5545 H   0  0  0  0  0  0  0  0  0  0  0  0
    1.7438   10.2003    0.4087 H   0  0  0  0  0  0  0  0  0  0  0  0
    1.1821   11.6573    1.3420 H   0  0  0  0  0  0  0  0  0  0  0  0
    0.0323    9.5868    2.0584 H   0  0  0  0  0  0  0  0  0  0  0  0
   -1.0940   10.8109    1.3522 H   0  0  0  0  0  0  0  0  0  0  0  0
   -1.6894    8.6421    0.5154 H   0  0  0  0  0  0  0  0  0  0  0  0
    0.3620    7.9430   -1.0070 H   0  0  0  0  0  0  0  0  0  0  0  0
   -2.6392   10.7084   -0.0571 H   0  0  0  0  0  0  0  0  0  0  0  0
   -2.2580   11.5328   -1.6069 H   0  0  0  0  0  0  0  0  0  0  0  0
   -3.2453   10.0321   -1.6069 H   0  0  0  0  0  0  0  0  0  0  0  0
   -1.7274    7.6523   -1.6559 H   0  0  0  0  0  0  0  0  0  0  0  0
   -2.3118    8.8445   -2.8658 H   0  0  0  0  0  0  0  0  0  0  0  0
   -0.5891    8.3358   -2.8658 H   0  0  0  0  0  0  0  0  0  0  0  0
    3.3277   11.7082    0.0547 H   0  0  0  0  0  0  0  0  0  0  0  0
    3.0890   10.8162   -1.4861 H   0  0  0  0  0  0  0  0  0  0  0  0
    3.9436   12.3962   -1.4861 H   0  0  0  0  0  0  0  0  0  0  0  0
    1.5157   13.5877    0.6564 H   0  0  0  0  0  0  0  0  0  0  0  0
    2.8724   14.2088   -0.4424 H   0  0  0  0  0  0  0  0  0  0  0  0
   -0.0923   14.8023   -0.6495 H   0  0  0  0  0  0  0  0  0  0  0  0
    1.2607   15.9339   -0.2536 H   0  0  0  0  0  0  0  0  0  0  0  0
    3.1540   15.8703   -1.5371 H   0  0  0  0  0  0  0  0  0  0  0  0
    3.1985   14.9509   -3.0797 H   0  0  0  0  0  0  0  0  0  0  0  0
    2.7210   16.6826   -3.0797 H   0  0  0  0  0  0  0  0  0  0  0  0
  1  2  1  0
  2  3  1  0
  3  4  1  0
  4  5  1  0
  5  6  1  0
  6  7  1  0
  7  8  1  0
  7  9  1  0
  2 10  1  0
 10 11  1  0
 11 12  1  0
 12 13  1  0
 13 14  1  1
 13 15  1  0
 15 16  1  0
 16 17  1  0
 17 18  2  0
 18 19  1  0
 19 20  1  0
 20 21  1  0
 21 22  1  0
 22 23  1  0
 22 24  1  0
 24 25  1  0
 24 26  1  0
 19 27  1  0
 27 28  1  6
 27 29  1  0
 29 30  1  0
 30 31  1  0
 31 32  1  1
  7  5  1  0
 31 10  1  0
 31 13  1  0
 27 15  1  0
 24 18  1  0
  1 33  1  0
  1 34  1  0
  1 35  1  0
  2 36  1  6
  3 37  1  0
  3 38  1  0
  4 39  1  0
  4 40  1  0
  5 41  1  1
  8 42  1  0
  8 43  1  0
  8 44  1  0
  9 45  1  0
  9 46  1  0
  9 47  1  0
 10 48  1  1
 11 49  1  0
 11 50  1  0
 12 51  1  0
 12 52  1  0
 14 53  1  0
 14 54  1  0
 14 55  1  0
 15 56  1  6
 16 57  1  0
 16 58  1  0
 17 59  1  0
 19 60  1  1
 20 61  1  0
 20 62  1  0
 21 63  1  0
 21 64  1  0
 22 65  1  1
 23 66  1  0
 25 67  1  0
 25 68  1  0
 25 69  1  0
 26 70  1  0
 26 71  1  0
 26 72  1  0
 28 73  1  0
 28 74  1  0
 28 75  1  0
 29 76  1  0
 29 77  1  0
 30 78  1  0
 30 79  1  0
 32 80  1  0
 32 81  1  0
 32 82  1  0
M  END
>  <meeko>  (5) 
{"is_sidechain": [false], "intermolecular_energy": 2.731, "internal_energy": -0.839}

$$$$
EPH_relaxed_0001_pdb2pqr_Repair_23_r2_0001_out
     RDKit          3D

 82 86  0  0  0  0  0  0  0  0999 V2000
    3.7100   17.6810    0.6060 C   0  0  0  0  0  0  0  0  0  0  0  0
    2.7980   17.9630   -0.5910 C   0  0  2  0  0  0  0  0  0  0  0  0
    2.1230   19.3450   -0.4940 C   0  0  0  0  0  0  0  0  0  0  0  0
    1.2270   19.5080    0.7360 C   0  0  0  0  0  0  0  0  0  0  0  0
   -0.0950   20.1200    0.3830 C   0  0  2  0  0  0  0  0  0  0  0  0
   -1.0300   20.1910    1.4670 O   0  0  0  0  0  0  0  0  0  0  0  0
   -1.3980   19.3440    0.3660 C   0  0  0  0  0  0  0  0  0  0  0  0
   -1.4440   17.8880    0.7080 C   0  0  0  0  0  0  0  0  0  0  0  0
   -2.5360   19.8750   -0.4490 C   0  0  0  0  0  0  0  0  0  0  0  0
    1.7390   16.8730   -0.7050 C   0  0  1  0  0  0  0  0  0  0  0  0
    0.4610   17.3560   -1.4420 C   0  0  0  0  0  0  0  0  0  0  0  0
   -0.0750   16.1460   -2.2490 C   0  0  0  0  0  0  0  0  0  0  0  0
    0.7080   14.9310   -1.6970 C   0  0  1  0  0  0  0  0  0  0  0  0
   -0.0340   14.5410   -0.3800 C   0  0  0  0  0  0  0  0  0  0  0  0
    0.8560   13.7090   -2.6600 C   0  0  2  0  0  0  0  0  0  0  0  0
   -0.4670   13.0370   -3.0700 C   0  0  0  0  0  0  0  0  0  0  0  0
   -0.9190   11.9250   -2.1820 C   0  0  0  0  0  0  0  0  0  0  0  0
   -0.1580   11.2940   -1.2690 C   0  0  0  0  0  0  0  0  0  0  0  0
    1.3340   11.6210   -1.1260 C   0  0  1  0  0  0  0  0  0  0  0  0
    2.1480   10.3020   -1.0490 C   0  0  0  0  0  0  0  0  0  0  0  0
    1.6470    9.3690    0.0500 C   0  0  0  0  0  0  0  0  0  0  0  0
    0.1750    9.0220   -0.1590 C   0  0  2  0  0  0  0  0  0  0  0  0
    0.0510    8.2350   -1.3480 O   0  0  0  0  0  0  0  0  0  0  0  0
   -0.7410   10.2730   -0.2620 C   0  0  0  0  0  0  0  0  0  0  0  0
   -0.8430   10.9590    1.1230 C   0  0  0  0  0  0  0  0  0  0  0  0
   -2.1740    9.7870   -0.6120 C   0  0  0  0  0  0  0  0  0  0  0  0
    1.9260   12.6410   -2.1920 C   0  0  1  0  0  0  0  0  0  0  0  0
    2.3760   11.8720   -3.4720 C   0  0  0  0  0  0  0  0  0  0  0  0
    3.2200   13.3110   -1.5980 C   0  0  0  0  0  0  0  0  0  0  0  0
    3.0190   14.5850   -0.7550 C   0  0  0  0  0  0  0  0  0  0  0  0
    2.1200   15.5880   -1.4830 C   0  0  2  0  0  0  0  0  0  0  0  0
    2.8510   16.0160   -2.8010 C   0  0  0  0  0  0  0  0  0  0  0  0
    3.1538   17.8530    1.5393 H   0  0  0  0  0  0  0  0  0  0  0  0
    4.0504   16.6356    0.5694 H   0  0  0  0  0  0  0  0  0  0  0  0
    4.5811   18.3518    0.5694 H   0  0  0  0  0  0  0  0  0  0  0  0
    3.4274   17.9661   -1.4931 H   0  0  0  0  0  0  0  0  0  0  0  0
    2.9092   20.1133   -0.4550 H   0  0  0  0  0  0  0  0  0  0  0  0
    1.4769   19.4495   -1.3781 H   0  0  0  0  0  0  0  0  0  0  0  0
    1.0533   18.5185    1.1839 H   0  0  0  0  0  0  0  0  0  0  0  0
    1.7363   20.1780    1.4443 H   0  0  0  0  0  0  0  0  0  0  0  0
    0.3811   20.7783   -0.3586 H   0  0  0  0  0  0  0  0  0  0  0  0
   -1.4478   17.7681    1.8014 H   0  0  0  0  0  0  0  0  0  0  0  0
   -2.3567   17.4411    0.2870 H   0  0  0  0  0  0  0  0  0  0  0  0
   -0.5613   17.3844    0.2870 H   0  0  0  0  0  0  0  0  0  0  0  0
   -3.3263   20.2438    0.2213 H   0  0  0  0  0  0  0  0  0  0  0  0
   -2.1791   20.6996   -1.0836 H   0  0  0  0  0  0  0  0  0  0  0  0
   -2.9387   19.0718   -1.0836 H   0  0  0  0  0  0  0  0  0  0  0  0
    1.6002   16.6399    0.3610 H   0  0  0  0  0  0  0  0  0  0  0  0
   -0.2930   17.6893   -0.7137 H   0  0  0  0  0  0  0  0  0  0  0  0
    0.6848   18.2047   -2.1051 H   0  0  0  0  0  0  0  0  0  0  0  0
   -1.1553   16.0184   -2.0860 H   0  0  0  0  0  0  0  0  0  0  0  0
    0.0627   16.2735   -3.3329 H   0  0  0  0  0  0  0  0  0  0  0  0
    0.5662   14.8565    0.4862 H   0  0  0  0  0  0  0  0  0  0  0  0
   -1.0134   15.0409   -0.3491 H   0  0  0  0  0  0  0  0  0  0  0  0
   -0.1776   13.4509   -0.3491 H   0  0  0  0  0  0  0  0  0  0  0  0
    1.2499   14.1759   -3.5748 H   0  0  0  0  0  0  0  0  0  0  0  0
   -1.2520   13.8075   -3.0763 H   0  0  0  0  0  0  0  0  0  0  0  0
   -0.2860   12.5847   -4.0562 H   0  0  0  0  0  0  0  0  0  0  0  0
   -1.9630   11.5933   -2.2827 H   0  0  0  0  0  0  0  0  0  0  0  0
    1.4339   12.1778   -0.1826 H   0  0  0  0  0  0  0  0  0  0  0  0
    2.0700    9.7825   -2.0154 H   0  0  0  0  0  0  0  0  0  0  0  0
    3.1898   10.5656   -0.8143 H   0  0  0  0  0  0  0  0  0  0  0  0
    2.2409    8.4432    0.0349 H   0  0  0  0  0  0  0  0  0  0  0  0
    1.7538    9.8783    1.0191 H   0  0  0  0  0  0  0  0  0  0  0  0
   -0.1602    8.4606    0.7255 H   0  0  0  0  0  0  0  0  0  0  0  0
    0.8460    8.3880   -1.8860 H   0  0  0  0  0  0  0  0  0  0  0  0
   -0.7308   10.2041    1.9152 H   0  0  0  0  0  0  0  0  0  0  0  0
   -0.0470   11.7121    1.2187 H   0  0  0  0  0  0  0  0  0  0  0  0
   -1.8237   11.4479    1.2187 H   0  0  0  0  0  0  0  0  0  0  0  0
   -2.7336    9.5972    0.3158 H   0  0  0  0  0  0  0  0  0  0  0  0
   -2.6901   10.5604   -1.1998 H   0  0  0  0  0  0  0  0  0  0  0  0
   -2.1132    8.8592   -1.1998 H   0  0  0  0  0  0  0  0  0  0  0  0
    2.9117   10.9566   -3.1804 H   0  0  0  0  0  0  0  0  0  0  0  0
    1.4917   11.6049   -4.0692 H   0  0  0  0  0  0  0  0  0  0  0  0
    3.0420   12.5121   -4.0692 H   0  0  0  0  0  0  0  0  0  0  0  0
    3.7179   12.5655   -0.9606 H   0  0  0  0  0  0  0  0  0  0  0  0
    3.8038   13.6340   -2.4725 H   0  0  0  0  0  0  0  0  0  0  0  0
    2.5520   14.3126    0.2030 H   0  0  0  0  0  0  0  0  0  0  0  0
    4.0005   15.0521   -0.5860 H   0  0  0  0  0  0  0  0  0  0  0  0
    3.7750   16.5570   -2.5487 H   0  0  0  0  0  0  0  0  0  0  0  0
    3.0994   15.1207   -3.3898 H   0  0  0  0  0  0  0  0  0  0  0  0
    2.1918   16.6708   -3.3898 H   0  0  0  0  0  0  0  0  0  0  0  0
  1  2  1  0
  2  3  1  0
  3  4  1  0
  4  5  1  0
  5  6  1  0
  6  7  1  0
  7  8  1  0
  7  9  1  0
  2 10  1  0
 10 11  1  0
 11 12  1  0
 12 13  1  0
 13 14  1  1
 13 15  1  0
 15 16  1  0
 16 17  1  0
 17 18  2  0
 18 19  1  0
 19 20  1  0
 20 21  1  0
 21 22  1  0
 22 23  1  0
 22 24  1  0
 24 25  1  0
 24 26  1  0
 19 27  1  0
 27 28  1  6
 27 29  1  0
 29 30  1  0
 30 31  1  0
 31 32  1  6
  7  5  1  0
 31 10  1  0
 31 13  1  0
 27 15  1  0
 24 18  1  0
  1 33  1  0
  1 34  1  0
  1 35  1  0
  2 36  1  6
  3 37  1  0
  3 38  1  0
  4 39  1  0
  4 40  1  0
  5 41  1  6
  8 42  1  0
  8 43  1  0
  8 44  1  0
  9 45  1  0
  9 46  1  0
  9 47  1  0
 10 48  1  1
 11 49  1  0
 11 50  1  0
 12 51  1  0
 12 52  1  0
 14 53  1  0
 14 54  1  0
 14 55  1  0
 15 56  1  6
 16 57  1  0
 16 58  1  0
 17 59  1  0
 19 60  1  1
 20 61  1  0
 20 62  1  0
 21 63  1  0
 21 64  1  0
 22 65  1  1
 23 66  1  0
 25 67  1  0
 25 68  1  0
 25 69  1  0
 26 70  1  0
 26 71  1  0
 26 72  1  0
 28 73  1  0
 28 74  1  0
 28 75  1  0
 29 76  1  0
 29 77  1  0
 30 78  1  0
 30 79  1  0
 32 80  1  0
 32 81  1  0
 32 82  1  0
M  END
>  <meeko>  (6) 
{"is_sidechain": [false], "intermolecular_energy": 2.731, "internal_energy": -0.839}

$$$$
EPH_relaxed_0001_pdb2pqr_Repair_23_r2_0001_out
     RDKit          3D

 82 86  0  0  0  0  0  0  0  0999 V2000
    0.4510    8.7920   -2.3510 C   0  0  0  0  0  0  0  0  0  0  0  0
    1.1930    9.9330   -3.0530 C   0  0  2  0  0  0  0  0  0  0  0  0
    2.6930    9.9560   -2.6980 C   0  0  0  0  0  0  0  0  0  0  0  0
    3.5740   10.5820   -3.7830 C   0  0  0  0  0  0  0  0  0  0  0  0
    4.9730   10.8100   -3.2980 C   0  0  2  0  0  0  0  0  0  0  0  0
    5.5770   12.0250   -3.7610 O   0  0  0  0  0  0  0  0  0  0  0  0
    6.1860   10.8030   -4.2100 C   0  0  0  0  0  0  0  0  0  0  0  0
    6.0550   10.5620   -5.6810 C   0  0  0  0  0  0  0  0  0  0  0  0
    7.5320   10.5440   -3.6090 C   0  0  0  0  0  0  0  0  0  0  0  0
    0.5530   11.2690   -2.6930 C   0  0  1  0  0  0  0  0  0  0  0  0
   -0.8260   11.1020   -2.0000 C   0  0  0  0  0  0  0  0  0  0  0  0
   -0.9450   12.2460   -0.9610 C   0  0  0  0  0  0  0  0  0  0  0  0
    0.2050   13.2170   -1.3160 C   0  0  1  0  0  0  0  0  0  0  0  0
   -0.3420   14.0700   -2.5040 C   0  0  0  0  0  0  0  0  0  0  0  0
    0.7320   14.1190   -0.1530 C   0  0  2  0  0  0  0  0  0  0  0  0
   -0.3010   15.0980    0.4330 C   0  0  0  0  0  0  0  0  0  0  0  0
   -0.3430   16.4430   -0.2140 C   0  0  0  0  0  0  0  0  0  0  0  0
    0.6000   16.9490   -1.0300 C   0  0  0  0  0  0  0  0  0  0  0  0
    1.9030   16.1830   -1.2970 C   0  0  1  0  0  0  0  0  0  0  0  0
    3.1080   17.1510   -1.1680 C   0  0  0  0  0  0  0  0  0  0  0  0
    2.9640   18.3860   -2.0530 C   0  0  0  0  0  0  0  0  0  0  0  0
    1.6870   19.1520   -1.7180 C   0  0  2  0  0  0  0  0  0  0  0  0
    1.8090   19.6960   -0.4000 O   0  0  0  0  0  0  0  0  0  0  0  0
    0.4070   18.2750   -1.8040 C   0  0  0  0  0  0  0  0  0  0  0  0
    0.1080   17.9350   -3.2850 C   0  0  0  0  0  0  0  0  0  0  0  0
   -0.7910   19.1290   -1.3060 C   0  0  0  0  0  0  0  0  0  0  0  0
    2.1040   14.8440   -0.4650 C   0  0  1  0  0  0  0  0  0  0  0  0
    2.7600   15.1670    0.9120 C   0  0  0  0  0  0  0  0  0  0  0  0
    3.1140   13.9100   -1.2300 C   0  0  0  0  0  0  0  0  0  0  0  0
    2.5170   12.9570   -2.2830 C   0  0  0  0  0  0  0  0  0  0  0  0
    1.3240   12.1860   -1.7110 C   0  0  2  0  0  0  0  0  0  0  0  0
    1.8470   11.3020   -0.5280 C   0  0  0  0  0  0  0  0  0  0  0  0
    0.5325    8.9174   -1.2612 H   0  0  0  0  0  0  0  0  0  0  0  0
   -0.6092    8.8092   -2.6438 H   0  0  0  0  0  0  0  0  0  0  0  0
    0.8967    7.8299   -2.6438 H   0  0  0  0  0  0  0  0  0  0  0  0
    1.1125    9.7617   -4.1366 H   0  0  0  0  0  0  0  0  0  0  0  0
    2.8214   10.5336   -1.7707 H   0  0  0  0  0  0  0  0  0  0  0  0
    3.0131    8.9093   -2.5889 H   0  0  0  0  0  0  0  0  0  0  0  0
    3.6033    9.9075   -4.6514 H   0  0  0  0  0  0  0  0  0  0  0  0
    3.1424   11.5566   -4.0550 H   0  0  0  0  0  0  0  0  0  0  0  0
    4.7562   10.2877   -2.3545 H   0  0  0  0  0  0  0  0  0  0  0  0
    5.5360    9.6072   -5.8513 H   0  0  0  0  0  0  0  0  0  0  0  0
    5.4772   11.3797   -6.1365 H   0  0  0  0  0  0  0  0  0  0  0  0
    7.0554   10.5219   -6.1365 H   0  0  0  0  0  0  0  0  0  0  0  0
    7.4528   10.5592   -2.5120 H   0  0  0  0  0  0  0  0  0  0  0  0
    7.8965    9.5592   -3.9367 H   0  0  0  0  0  0  0  0  0  0  0  0
    8.2359   11.3232   -3.9367 H   0  0  0  0  0  0  0  0  0  0  0  0
    0.5185   11.7320   -3.6902 H   0  0  0  0  0  0  0  0  0  0  0  0
   -1.6346   11.1783   -2.7419 H   0  0  0  0  0  0  0  0  0  0  0  0
   -0.9082   10.1179   -1.5155 H   0  0  0  0  0  0  0  0  0  0  0  0
   -1.9191   12.7496   -1.0478 H   0  0  0  0  0  0  0  0  0  0  0  0
   -0.8762   11.8786    0.0735 H   0  0  0  0  0  0  0  0  0  0  0  0
   -0.8964   14.9345   -2.1099 H   0  0  0  0  0  0  0  0  0  0  0  0
    0.4986   14.4230   -3.1195 H   0  0  0  0  0  0  0  0  0  0  0  0
   -1.0135   13.4534   -3.1195 H   0  0  0  0  0  0  0  0  0  0  0  0
    0.9327   13.3855    0.6418 H   0  0  0  0  0  0  0  0  0  0  0  0
   -1.2968   14.6415    0.3332 H   0  0  0  0  0  0  0  0  0  0  0  0
    0.0014   15.2713    1.4763 H   0  0  0  0  0  0  0  0  0  0  0  0
   -1.2195   17.0742   -0.0059 H   0  0  0  0  0  0  0  0  0  0  0  0
    1.8309   15.8117   -2.3299 H   0  0  0  0  0  0  0  0  0  0  0  0
    3.1889   17.4756   -0.1201 H   0  0  0  0  0  0  0  0  0  0  0  0
    4.0079   16.6093   -1.4947 H   0  0  0  0  0  0  0  0  0  0  0  0
    3.8307   19.0448   -1.8953 H   0  0  0  0  0  0  0  0  0  0  0  0
    2.9132   18.0614   -3.1028 H   0  0  0  0  0  0  0  0  0  0  0  0
    1.5730   19.9484   -2.4681 H   0  0  0  0  0  0  0  0  0  0  0  0
    1.4580   20.6030   -0.4230 H   0  0  0  0  0  0  0  0  0  0  0  0
   -0.6177   17.1097   -3.3324 H   0  0  0  0  0  0  0  0  0  0  0  0
   -0.3098   18.8200   -3.7873 H   0  0  0  0  0  0  0  0  0  0  0  0
    1.0391   17.6338   -3.7873 H   0  0  0  0  0  0  0  0  0  0  0  0
   -0.8030   19.1376   -0.2061 H   0  0  0  0  0  0  0  0  0  0  0  0
   -0.6878   20.1585   -1.6796 H   0  0  0  0  0  0  0  0  0  0  0  0
   -1.7305   18.6958   -1.6796 H   0  0  0  0  0  0  0  0  0  0  0  0
    2.0925   14.8383    1.7222 H   0  0  0  0  0  0  0  0  0  0  0  0
    3.7219   14.6395    0.9926 H   0  0  0  0  0  0  0  0  0  0  0  0
    2.9284   16.2510    0.9926 H   0  0  0  0  0  0  0  0  0  0  0  0
    3.8431   14.5560   -1.7410 H   0  0  0  0  0  0  0  0  0  0  0  0
    3.5415   13.2541   -0.4574 H   0  0  0  0  0  0  0  0  0  0  0  0
    2.1832   13.5439   -3.1514 H   0  0  0  0  0  0  0  0  0  0  0  0
    3.2911   12.2345   -2.5811 H   0  0  0  0  0  0  0  0  0  0  0  0
    1.5707   11.7691    0.4288 H   0  0  0  0  0  0  0  0  0  0  0  0
    1.3958   10.3008   -0.5911 H   0  0  0  0  0  0  0  0  0  0  0  0
    2.9418   11.2154   -0.5911 H   0  0  0  0  0  0  0  0  0  0  0  0
  1  2  1  0
  2  3  1  0
  3  4  1  0
  4  5  1  0
  5  6  1  0
  6  7  1  0
  7  8  1  0
  7  9  1  0
  2 10  1  0
 10 11  1  0
 11 12  1  0
 12 13  1  0
 13 14  1  6
 13 15  1  0
 15 16  1  0
 16 17  1  0
 17 18  2  0
 18 19  1  0
 19 20  1  0
 20 21  1  0
 21 22  1  0
 22 23  1  0
 22 24  1  0
 24 25  1  0
 24 26  1  0
 19 27  1  0
 27 28  1  1
 27 29  1  0
 29 30  1  0
 30 31  1  0
 31 32  1  1
  7  5  1  0
 31 10  1  0
 31 13  1  0
 27 15  1  0
 24 18  1  0
  1 33  1  0
  1 34  1  0
  1 35  1  0
  2 36  1  6
  3 37  1  0
  3 38  1  0
  4 39  1  0
  4 40  1  0
  5 41  1  1
  8 42  1  0
  8 43  1  0
  8 44  1  0
  9 45  1  0
  9 46  1  0
  9 47  1  0
 10 48  1  6
 11 49  1  0
 11 50  1  0
 12 51  1  0
 12 52  1  0
 14 53  1  0
 14 54  1  0
 14 55  1  0
 15 56  1  1
 16 57  1  0
 16 58  1  0
 17 59  1  0
 19 60  1  6
 20 61  1  0
 20 62  1  0
 21 63  1  0
 21 64  1  0
 22 65  1  6
 23 66  1  0
 25 67  1  0
 25 68  1  0
 25 69  1  0
 26 70  1  0
 26 71  1  0
 26 72  1  0
 28 73  1  0
 28 74  1  0
 28 75  1  0
 29 76  1  0
 29 77  1  0
 30 78  1  0
 30 79  1  0
 32 80  1  0
 32 81  1  0
 32 82  1  0
M  END
>  <meeko>  (7) 
{"is_sidechain": [false], "intermolecular_energy": 2.731, "internal_energy": -0.839}

$$$$
EPH_relaxed_0001_pdb2pqr_Repair_23_r2_0001_out
     RDKit          3D

 82 86  0  0  0  0  0  0  0  0999 V2000
    2.8220   18.1400   -3.7630 C   0  0  0  0  0  0  0  0  0  0  0  0
    2.0230   17.9400   -2.4720 C   0  0  2  0  0  0  0  0  0  0  0  0
    2.3080   19.0450   -1.4360 C   0  0  0  0  0  0  0  0  0  0  0  0
    1.2960   20.1940   -1.4670 C   0  0  0  0  0  0  0  0  0  0  0  0
    0.2000   19.9940   -0.4650 C   0  0  2  0  0  0  0  0  0  0  0  0
   -0.4720   18.7310   -0.5560 O   0  0  0  0  0  0  0  0  0  0  0  0
   -1.2670   19.8940   -0.8390 C   0  0  0  0  0  0  0  0  0  0  0  0
   -1.7180   19.9910   -2.2630 C   0  0  0  0  0  0  0  0  0  0  0  0
   -2.2950   20.1910    0.2090 C   0  0  0  0  0  0  0  0  0  0  0  0
    2.3330   16.5720   -1.8750 C   0  0  1  0  0  0  0  0  0  0  0  0
    3.0710   16.6690   -0.5130 C   0  0  0  0  0  0  0  0  0  0  0  0
    2.5670   15.4860    0.3540 C   0  0  0  0  0  0  0  0  0  0  0  0
    1.8180   14.5670   -0.6390 C   0  0  1  0  0  0  0  0  0  0  0  0
    2.9390   13.7380   -1.3420 C   0  0  0  0  0  0  0  0  0  0  0  0
    0.7150   13.6430   -0.0280 C   0  0  2  0  0  0  0  0  0  0  0  0
    1.2210   12.6110    0.9950 C   0  0  0  0  0  0  0  0  0  0  0  0
    1.6160   11.2890    0.4250 C   0  0  0  0  0  0  0  0  0  0  0  0
    1.3040   10.8430   -0.8060 C   0  0  0  0  0  0  0  0  0  0  0  0
    0.3930   11.6590   -1.7320 C   0  0  1  0  0  0  0  0  0  0  0  0
   -0.6770   10.7270   -2.3590 C   0  0  0  0  0  0  0  0  0  0  0  0
   -0.0630    9.5200   -3.0610 C   0  0  0  0  0  0  0  0  0  0  0  0
    0.7890    8.7020   -2.0940 C   0  0  2  0  0  0  0  0  0  0  0  0
   -0.0680    8.1160   -1.1090 O   0  0  0  0  0  0  0  0  0  0  0  0
    1.8960    9.5380   -1.3940 C   0  0  0  0  0  0  0  0  0  0  0  0
    2.9890    9.9200   -2.4220 C   0  0  0  0  0  0  0  0  0  0  0  0
    2.5880    8.6280   -0.3430 C   0  0  0  0  0  0  0  0  0  0  0  0
   -0.2380   12.9740   -1.1000 C   0  0  1  0  0  0  0  0  0  0  0  0
   -1.5650   12.6260   -0.3600 C   0  0  0  0  0  0  0  0  0  0  0  0
   -0.6230   13.9670   -2.2600 C   0  0  0  0  0  0  0  0  0  0  0  0
    0.4740   14.9370   -2.7380 C   0  0  0  0  0  0  0  0  0  0  0  0
    1.1330   15.6480   -1.5520 C   0  0  2  0  0  0  0  0  0  0  0  0
    0.0340   16.5070   -0.8390 C   0  0  0  0  0  0  0  0  0  0  0  0
    3.8614   18.4002   -3.5143 H   0  0  0  0  0  0  0  0  0  0  0  0
    2.8073   17.2105   -4.3510 H   0  0  0  0  0  0  0  0  0  0  0  0
    2.3712   18.9530   -4.3510 H   0  0  0  0  0  0  0  0  0  0  0  0
    0.9555   17.9985   -2.7309 H   0  0  0  0  0  0  0  0  0  0  0  0
    2.2902   18.5936   -0.4330 H   0  0  0  0  0  0  0  0  0  0  0  0
    3.2895   19.4743   -1.6858 H   0  0  0  0  0  0  0  0  0  0  0  0
    1.8183   21.1353   -1.2410 H   0  0  0  0  0  0  0  0  0  0  0  0
    0.8432   20.2254   -2.4690 H   0  0  0  0  0  0  0  0  0  0  0  0
    0.7326   20.6092    0.2752 H   0  0  0  0  0  0  0  0  0  0  0  0
   -2.7930   20.2222   -2.2922 H   0  0  0  0  0  0  0  0  0  0  0  0
   -1.1573   20.7891   -2.7716 H   0  0  0  0  0  0  0  0  0  0  0  0
   -1.5351   19.0330   -2.7716 H   0  0  0  0  0  0  0  0  0  0  0  0
   -1.8495   20.0623    1.2065 H   0  0  0  0  0  0  0  0  0  0  0  0
   -2.6460   21.2273    0.0951 H   0  0  0  0  0  0  0  0  0  0  0  0
   -3.1445   19.5016    0.0951 H   0  0  0  0  0  0  0  0  0  0  0  0
    2.9270   16.1429   -2.6954 H   0  0  0  0  0  0  0  0  0  0  0  0
    4.1577   16.5915   -0.6646 H   0  0  0  0  0  0  0  0  0  0  0  0
    2.8693   17.6325   -0.0222 H   0  0  0  0  0  0  0  0  0  0  0  0
    3.4126   14.9536    0.8139 H   0  0  0  0  0  0  0  0  0  0  0  0
    1.9232   15.8193    1.1813 H   0  0  0  0  0  0  0  0  0  0  0  0
    3.5777   13.2657   -0.5810 H   0  0  0  0  0  0  0  0  0  0  0  0
    2.4805   12.9600   -1.9701 H   0  0  0  0  0  0  0  0  0  0  0  0
    3.5486   14.4043   -1.9701 H   0  0  0  0  0  0  0  0  0  0  0  0
    0.1020   14.3552    0.5439 H   0  0  0  0  0  0  0  0  0  0  0  0
    2.0983   13.0379    1.5030 H   0  0  0  0  0  0  0  0  0  0  0  0
    0.3753   12.4112    1.6695 H   0  0  0  0  0  0  0  0  0  0  0  0
    2.2127   10.6228    1.0654 H   0  0  0  0  0  0  0  0  0  0  0  0
    1.0444   12.0627   -2.5211 H   0  0  0  0  0  0  0  0  0  0  0  0
   -1.3440   10.3690   -1.5609 H   0  0  0  0  0  0  0  0  0  0  0  0
   -1.2252   11.3091   -3.1144 H   0  0  0  0  0  0  0  0  0  0  0  0
   -0.8693    8.8847   -3.4563 H   0  0  0  0  0  0  0  0  0  0  0  0
    0.5798    9.8786   -3.8785 H   0  0  0  0  0  0  0  0  0  0  0  0
    1.3061    7.9292   -2.6817 H   0  0  0  0  0  0  0  0  0  0  0  0
   -0.7820    8.7500   -0.9250 H   0  0  0  0  0  0  0  0  0  0  0  0
    3.8978   10.2376   -1.8899 H   0  0  0  0  0  0  0  0  0  0  0  0
    3.2192    9.0490   -3.0532 H   0  0  0  0  0  0  0  0  0  0  0  0
    2.6265   10.7447   -3.0532 H   0  0  0  0  0  0  0  0  0  0  0  0
    2.3265    8.9718    0.6686 H   0  0  0  0  0  0  0  0  0  0  0  0
    2.2489    7.5901   -0.4766 H   0  0  0  0  0  0  0  0  0  0  0  0
    3.6787    8.6774   -0.4766 H   0  0  0  0  0  0  0  0  0  0  0  0
   -1.4009   12.6690    0.7268 H   0  0  0  0  0  0  0  0  0  0  0  0
   -2.3431   13.3505   -0.6423 H   0  0  0  0  0  0  0  0  0  0  0  0
   -1.8875   11.6129   -0.6423 H   0  0  0  0  0  0  0  0  0  0  0  0
   -0.9331   13.3631   -3.1255 H   0  0  0  0  0  0  0  0  0  0  0  0
   -1.4108   14.6090   -1.8390 H   0  0  0  0  0  0  0  0  0  0  0  0
    1.2397   14.3709   -3.2887 H   0  0  0  0  0  0  0  0  0  0  0  0
    0.0127   15.6947   -3.3885 H   0  0  0  0  0  0  0  0  0  0  0  0
    0.1487   16.4174    0.2513 H   0  0  0  0  0  0  0  0  0  0  0  0
    0.1439   17.5610   -1.1338 H   0  0  0  0  0  0  0  0  0  0  0  0
   -0.9623   16.1458   -1.1338 H   0  0  0  0  0  0  0  0  0  0  0  0
  1  2  1  0
  2  3  1  0
  3  4  1  0
  4  5  1  0
  5  6  1  0
  6  7  1  0
  7  8  1  0
  7  9  1  0
  2 10  1  0
 10 11  1  0
 11 12  1  0
 12 13  1  0
 13 14  1  6
 13 15  1  0
 15 16  1  0
 16 17  1  0
 17 18  2  0
 18 19  1  0
 19 20  1  0
 20 21  1  0
 21 22  1  0
 22 23  1  0
 22 24  1  0
 24 25  1  0
 24 26  1  0
 19 27  1  0
 27 28  1  1
 27 29  1  0
 29 30  1  0
 30 31  1  0
 31 32  1  1
  7  5  1  0
 31 10  1  0
 31 13  1  0
 27 15  1  0
 24 18  1  0
  1 33  1  0
  1 34  1  0
  1 35  1  0
  2 36  1  6
  3 37  1  0
  3 38  1  0
  4 39  1  0
  4 40  1  0
  5 41  1  1
  8 42  1  0
  8 43  1  0
  8 44  1  0
  9 45  1  0
  9 46  1  0
  9 47  1  0
 10 48  1  6
 11 49  1  0
 11 50  1  0
 12 51  1  0
 12 52  1  0
 14 53  1  0
 14 54  1  0
 14 55  1  0
 15 56  1  1
 16 57  1  0
 16 58  1  0
 17 59  1  0
 19 60  1  6
 20 61  1  0
 20 62  1  0
 21 63  1  0
 21 64  1  0
 22 65  1  6
 23 66  1  0
 25 67  1  0
 25 68  1  0
 25 69  1  0
 26 70  1  0
 26 71  1  0
 26 72  1  0
 28 73  1  0
 28 74  1  0
 28 75  1  0
 29 76  1  0
 29 77  1  0
 30 78  1  0
 30 79  1  0
 32 80  1  0
 32 81  1  0
 32 82  1  0
M  END
>  <meeko>  (8) 
{"is_sidechain": [false], "intermolecular_energy": 2.731, "internal_energy": -0.839}

$$$$
EPH_relaxed_0001_pdb2pqr_Repair_23_r2_0001_out
     RDKit          3D

 82 86  0  0  0  0  0  0  0  0999 V2000
    2.7850   18.9400   -2.4320 C   0  0  0  0  0  0  0  0  0  0  0  0
    1.8110   19.0670   -1.2560 C   0  0  2  0  0  0  0  0  0  0  0  0
    2.3950   19.9140   -0.1080 C   0  0  0  0  0  0  0  0  0  0  0  0
    3.1310   19.0890    0.9520 C   0  0  0  0  0  0  0  0  0  0  0  0
    3.6060   19.9440    2.0880 C   0  0  2  0  0  0  0  0  0  0  0  0
    5.0180   20.1950    2.0990 O   0  0  0  0  0  0  0  0  0  0  0  0
    4.5010   19.4330    3.2020 C   0  0  0  0  0  0  0  0  0  0  0  0
    4.9720   18.0130    3.2360 C   0  0  0  0  0  0  0  0  0  0  0  0
    4.5150   20.1720    4.5040 C   0  0  0  0  0  0  0  0  0  0  0  0
    1.4330   17.6830   -0.7430 C   0  0  1  0  0  0  0  0  0  0  0  0
    0.2120   17.7140    0.2150 C   0  0  0  0  0  0  0  0  0  0  0  0
   -0.5870   16.4100   -0.0380 C   0  0  0  0  0  0  0  0  0  0  0  0
    0.3630   15.5260   -0.8790 C   0  0  1  0  0  0  0  0  0  0  0  0
    1.3330   14.8790    0.1580 C   0  0  0  0  0  0  0  0  0  0  0  0
   -0.3170   14.4470   -1.7840 C   0  0  2  0  0  0  0  0  0  0  0  0
   -1.1170   13.3720   -1.0290 C   0  0  0  0  0  0  0  0  0  0  0  0
   -0.3430   12.1550   -0.6430 C   0  0  0  0  0  0  0  0  0  0  0  0
    0.8600   11.8050   -1.1350 C   0  0  0  0  0  0  0  0  0  0  0  0
    1.5220   12.6190   -2.2540 C   0  0  1  0  0  0  0  0  0  0  0  0
    2.0610   11.6580   -3.3450 C   0  0  0  0  0  0  0  0  0  0  0  0
    2.9880   10.5880   -2.7760 C   0  0  0  0  0  0  0  0  0  0  0  0
    2.2770    9.7620   -1.7080 C   0  0  2  0  0  0  0  0  0  0  0  0
    1.2340    9.0050   -2.3300 O   0  0  0  0  0  0  0  0  0  0  0  0
    1.6830   10.6250   -0.5600 C   0  0  0  0  0  0  0  0  0  0  0  0
    2.8310   11.2070    0.3010 C   0  0  0  0  0  0  0  0  0  0  0  0
    0.8730    9.6850    0.3730 C   0  0  0  0  0  0  0  0  0  0  0  0
    0.6490   13.8010   -2.8590 C   0  0  1  0  0  0  0  0  0  0  0  0
   -0.2600   13.2590   -4.0050 C   0  0  0  0  0  0  0  0  0  0  0  0
    1.6070   14.8630   -3.5180 C   0  0  0  0  0  0  0  0  0  0  0  0
    2.1510   15.9730   -2.5980 C   0  0  0  0  0  0  0  0  0  0  0  0
    1.0200   16.6230   -1.7950 C   0  0  2  0  0  0  0  0  0  0  0  0
    0.0390   17.3010   -2.8110 C   0  0  0  0  0  0  0  0  0  0  0  0
    3.8074   18.8067   -2.0486 H   0  0  0  0  0  0  0  0  0  0  0  0
    2.5073   18.0705   -3.0458 H   0  0  0  0  0  0  0  0  0  0  0  0
    2.7396   19.8517   -3.0458 H   0  0  0  0  0  0  0  0  0  0  0  0
    0.9129   19.5847   -1.6238 H   0  0  0  0  0  0  0  0  0  0  0  0
    3.1022   20.6394   -0.5365 H   0  0  0  0  0  0  0  0  0  0  0  0
    1.5473   20.4019    0.3953 H   0  0  0  0  0  0  0  0  0  0  0  0
    2.4475   18.3218    1.3447 H   0  0  0  0  0  0  0  0  0  0  0  0
    4.0104   18.6280    0.4785 H   0  0  0  0  0  0  0  0  0  0  0  0
    2.6554   20.4974    2.1002 H   0  0  0  0  0  0  0  0  0  0  0  0
    5.0800   17.6874    4.2812 H   0  0  0  0  0  0  0  0  0  0  0  0
    4.2386   17.3711    2.7259 H   0  0  0  0  0  0  0  0  0  0  0  0
    5.9436   17.9366    2.7259 H   0  0  0  0  0  0  0  0  0  0  0  0
    4.5013   19.4513    5.3349 H   0  0  0  0  0  0  0  0  0  0  0  0
    5.4250   20.7868    4.5669 H   0  0  0  0  0  0  0  0  0  0  0  0
    3.6290   20.8209    4.5669 H   0  0  0  0  0  0  0  0  0  0  0  0
    2.3843   17.3944   -0.2721 H   0  0  0  0  0  0  0  0  0  0  0  0
    0.5516   17.7536    1.2605 H   0  0  0  0  0  0  0  0  0  0  0  0
   -0.4116   18.6015    0.0321 H   0  0  0  0  0  0  0  0  0  0  0  0
   -0.8359   15.9166    0.9131 H   0  0  0  0  0  0  0  0  0  0  0  0
   -1.5422   16.5992   -0.5497 H   0  0  0  0  0  0  0  0  0  0  0  0
    0.9876   15.1094    1.1766 H   0  0  0  0  0  0  0  0  0  0  0  0
    1.3492   13.7886    0.0142 H   0  0  0  0  0  0  0  0  0  0  0  0
    2.3460   15.2829    0.0142 H   0  0  0  0  0  0  0  0  0  0  0  0
   -1.0612   15.0383   -2.3377 H   0  0  0  0  0  0  0  0  0  0  0  0
   -1.5152   13.8272   -0.1102 H   0  0  0  0  0  0  0  0  0  0  0  0
   -1.8972   13.0287   -1.7243 H   0  0  0  0  0  0  0  0  0  0  0  0
   -0.7939   11.4882    0.1067 H   0  0  0  0  0  0  0  0  0  0  0  0
    2.3593   13.1565   -1.7849 H   0  0  0  0  0  0  0  0  0  0  0  0
    1.2077   11.1628   -3.8316 H   0  0  0  0  0  0  0  0  0  0  0  0
    2.6428   12.2577   -4.0604 H   0  0  0  0  0  0  0  0  0  0  0  0
    3.3115    9.9223   -3.5897 H   0  0  0  0  0  0  0  0  0  0  0  0
    3.8558   11.0837   -2.3164 H   0  0  0  0  0  0  0  0  0  0  0  0
    3.0271    9.1021   -1.2477 H   0  0  0  0  0  0  0  0  0  0  0  0
    0.3860    9.4010   -2.0680 H   0  0  0  0  0  0  0  0  0  0  0  0
    2.5885   11.0841    1.3669 H   0  0  0  0  0  0  0  0  0  0  0  0
    3.7661   10.6741    0.0739 H   0  0  0  0  0  0  0  0  0  0  0  0
    2.9539   12.2763    0.0739 H   0  0  0  0  0  0  0  0  0  0  0  0
    1.0886    9.9351    1.4223 H   0  0  0  0  0  0  0  0  0  0  0  0
   -0.2021    9.8132    0.1789 H   0  0  0  0  0  0  0  0  0  0  0  0
    1.1587    8.6406    0.1789 H   0  0  0  0  0  0  0  0  0  0  0  0
   -1.1281   12.7414   -3.5708 H   0  0  0  0  0  0  0  0  0  0  0  0
   -0.6064   14.0981   -4.6262 H   0  0  0  0  0  0  0  0  0  0  0  0
    0.3135   12.5553   -4.6262 H   0  0  0  0  0  0  0  0  0  0  0  0
    2.4701   14.3211   -3.9320 H   0  0  0  0  0  0  0  0  0  0  0  0
    0.9892   15.3844   -4.2640 H   0  0  0  0  0  0  0  0  0  0  0  0
    2.8822   15.5369   -1.9015 H   0  0  0  0  0  0  0  0  0  0  0  0
    2.6261   16.7442   -3.2221 H   0  0  0  0  0  0  0  0  0  0  0  0
   -0.7439   17.8421   -2.2594 H   0  0  0  0  0  0  0  0  0  0  0  0
    0.5967   18.0073   -3.4435 H   0  0  0  0  0  0  0  0  0  0  0  0
   -0.4246   16.5296   -3.4435 H   0  0  0  0  0  0  0  0  0  0  0  0
  1  2  1  0
  2  3  1  0
  3  4  1  0
  4  5  1  0
  5  6  1  0
  6  7  1  0
  7  8  1  0
  7  9  1  0
  2 10  1  0
 10 11  1  0
 11 12  1  0
 12 13  1  0
 13 14  1  1
 13 15  1  0
 15 16  1  0
 16 17  1  0
 17 18  2  0
 18 19  1  0
 19 20  1  0
 20 21  1  0
 21 22  1  0
 22 23  1  0
 22 24  1  0
 24 25  1  0
 24 26  1  0
 19 27  1  0
 27 28  1  6
 27 29  1  0
 29 30  1  0
 30 31  1  0
 31 32  1  6
  7  5  1  0
 31 10  1  0
 31 13  1  0
 27 15  1  0
 24 18  1  0
  1 33  1  0
  1 34  1  0
  1 35  1  0
  2 36  1  6
  3 37  1  0
  3 38  1  0
  4 39  1  0
  4 40  1  0
  5 41  1  1
  8 42  1  0
  8 43  1  0
  8 44  1  0
  9 45  1  0
  9 46  1  0
  9 47  1  0
 10 48  1  1
 11 49  1  0
 11 50  1  0
 12 51  1  0
 12 52  1  0
 14 53  1  0
 14 54  1  0
 14 55  1  0
 15 56  1  6
 16 57  1  0
 16 58  1  0
 17 59  1  0
 19 60  1  1
 20 61  1  0
 20 62  1  0
 21 63  1  0
 21 64  1  0
 22 65  1  1
 23 66  1  0
 25 67  1  0
 25 68  1  0
 25 69  1  0
 26 70  1  0
 26 71  1  0
 26 72  1  0
 28 73  1  0
 28 74  1  0
 28 75  1  0
 29 76  1  0
 29 77  1  0
 30 78  1  0
 30 79  1  0
 32 80  1  0
 32 81  1  0
 32 82  1  0
M  END
>  <meeko>  (9) 
{"is_sidechain": [false], "intermolecular_energy": 2.731, "internal_energy": -0.839}

$$$$
EPH_relaxed_0001_pdb2pqr_Repair_23_r2_0001_out
     RDKit          3D

 82 86  0  0  0  0  0  0  0  0999 V2000
   -5.2230    5.9640   -3.7910 C   0  0  0  0  0  0  0  0  0  0  0  0
   -5.9740    7.1220   -3.1270 C   0  0  2  0  0  0  0  0  0  0  0  0
   -5.3530    7.5170   -1.7720 C   0  0  0  0  0  0  0  0  0  0  0  0
   -3.8220    7.5670   -1.7890 C   0  0  0  0  0  0  0  0  0  0  0  0
   -3.2880    8.5080   -0.7530 C   0  0  2  0  0  0  0  0  0  0  0  0
   -3.2210    9.8790   -1.1670 O   0  0  0  0  0  0  0  0  0  0  0  0
   -1.9650    9.2390   -0.8900 C   0  0  0  0  0  0  0  0  0  0  0  0
   -1.0950    9.0590   -2.0940 C   0  0  0  0  0  0  0  0  0  0  0  0
   -1.2930    9.7420    0.3500 C   0  0  0  0  0  0  0  0  0  0  0  0
   -7.4400    6.7490   -2.9390 C   0  0  1  0  0  0  0  0  0  0  0  0
   -7.7230    5.2570   -3.2560 C   0  0  0  0  0  0  0  0  0  0  0  0
   -8.8280    4.7910   -2.2730 C   0  0  0  0  0  0  0  0  0  0  0  0
   -9.3750    6.0990   -1.6550 C   0  0  1  0  0  0  0  0  0  0  0  0
  -10.3770    6.6560   -2.7140 C   0  0  0  0  0  0  0  0  0  0  0  0
  -10.0390    5.9710   -0.2450 C   0  0  2  0  0  0  0  0  0  0  0  0
  -11.2920    5.0810   -0.1910 C   0  0  0  0  0  0  0  0  0  0  0  0
  -12.5860    5.7870   -0.4260 C   0  0  0  0  0  0  0  0  0  0  0  0
  -12.7680    7.1200   -0.3880 C   0  0  0  0  0  0  0  0  0  0  0  0
  -11.6240    8.0600    0.0120 C   0  0  1  0  0  0  0  0  0  0  0  0
  -12.1430    9.1010    1.0380 C   0  0  0  0  0  0  0  0  0  0  0  0
  -13.3700    9.8570    0.5350 C   0  0  0  0  0  0  0  0  0  0  0  0
  -14.5060    8.8920    0.2030 C   0  0  2  0  0  0  0  0  0  0  0  0
  -14.9610    8.2830    1.4150 O   0  0  0  0  0  0  0  0  0  0  0  0
  -14.0970    7.7910   -0.8150 C   0  0  0  0  0  0  0  0  0  0  0  0
  -13.8940    8.4250   -2.2140 C   0  0  0  0  0  0  0  0  0  0  0  0
  -15.2870    6.8040   -0.9540 C   0  0  0  0  0  0  0  0  0  0  0  0
  -10.2800    7.3550    0.4850 C   0  0  1  0  0  0  0  0  0  0  0  0
  -10.3510    7.0460    2.0120 C   0  0  0  0  0  0  0  0  0  0  0  0
   -9.0790    8.3530    0.2890 C   0  0  0  0  0  0  0  0  0  0  0  0
   -8.3880    8.3470   -1.0880 C   0  0  0  0  0  0  0  0  0  0  0  0
   -8.0410    6.9190   -1.5200 C   0  0  2  0  0  0  0  0  0  0  0  0
   -7.0170    6.3410   -0.4850 C   0  0  0  0  0  0  0  0  0  0  0  0
   -4.7986    5.3096   -3.0154 H   0  0  0  0  0  0  0  0  0  0  0  0
   -5.9191    5.3867   -4.4172 H   0  0  0  0  0  0  0  0  0  0  0  0
   -4.4120    6.3641   -4.4172 H   0  0  0  0  0  0  0  0  0  0  0  0
   -5.8936    7.9939   -3.7928 H   0  0  0  0  0  0  0  0  0  0  0  0
   -5.7302    8.5122   -1.4938 H   0  0  0  0  0  0  0  0  0  0  0  0
   -5.6419    6.7417   -1.0471 H   0  0  0  0  0  0  0  0  0  0  0  0
   -3.4300    6.5585   -1.5908 H   0  0  0  0  0  0  0  0  0  0  0  0
   -3.5011    7.9268   -2.7777 H   0  0  0  0  0  0  0  0  0  0  0  0
   -3.7128    7.8959    0.0563 H   0  0  0  0  0  0  0  0  0  0  0  0
   -0.0646    8.8458   -1.7733 H   0  0  0  0  0  0  0  0  0  0  0  0
   -1.4724    8.2199   -2.6969 H   0  0  0  0  0  0  0  0  0  0  0  0
   -1.1084    9.9789   -2.6969 H   0  0  0  0  0  0  0  0  0  0  0  0
   -1.8160    9.3505    1.2350 H   0  0  0  0  0  0  0  0  0  0  0  0
   -0.2465    9.4035    0.3630 H   0  0  0  0  0  0  0  0  0  0  0  0
   -1.3229   10.8415    0.3630 H   0  0  0  0  0  0  0  0  0  0  0  0
   -7.9025    7.4663   -3.6329 H   0  0  0  0  0  0  0  0  0  0  0  0
   -8.0702    5.1499   -4.2942 H   0  0  0  0  0  0  0  0  0  0  0  0
   -6.8126    4.6501   -3.1424 H   0  0  0  0  0  0  0  0  0  0  0  0
   -9.6232    4.2523   -2.8092 H   0  0  0  0  0  0  0  0  0  0  0  0
   -8.4436    4.0975   -1.5106 H   0  0  0  0  0  0  0  0  0  0  0  0
  -11.2275    7.1288   -2.2010 H   0  0  0  0  0  0  0  0  0  0  0  0
   -9.8685    7.4009   -3.3437 H   0  0  0  0  0  0  0  0  0  0  0  0
  -10.7413    5.8309   -3.3437 H   0  0  0  0  0  0  0  0  0  0  0  0
   -9.2694    5.4356    0.3303 H   0  0  0  0  0  0  0  0  0  0  0  0
  -11.1871    4.2994   -0.9579 H   0  0  0  0  0  0  0  0  0  0  0  0
  -11.3419    4.6876    0.8350 H   0  0  0  0  0  0  0  0  0  0  0  0
  -13.4654    5.1651   -0.6492 H   0  0  0  0  0  0  0  0  0  0  0  0
  -11.3130    8.5697   -0.9119 H   0  0  0  0  0  0  0  0  0  0  0  0
  -12.4083    8.5773    1.9682 H   0  0  0  0  0  0  0  0  0  0  0  0
  -11.3416    9.8365    1.2020 H   0  0  0  0  0  0  0  0  0  0  0  0
  -13.7072   10.5557    1.3148 H   0  0  0  0  0  0  0  0  0  0  0  0
  -13.0955   10.4045   -0.3787 H   0  0  0  0  0  0  0  0  0  0  0  0
  -15.3073    9.4759   -0.2734 H   0  0  0  0  0  0  0  0  0  0  0  0
  -14.7510    8.8880    2.1460 H   0  0  0  0  0  0  0  0  0  0  0  0
  -13.5604    9.4669   -2.0995 H   0  0  0  0  0  0  0  0  0  0  0  0
  -13.1334    7.8552   -2.7679 H   0  0  0  0  0  0  0  0  0  0  0  0
  -14.8441    8.4030   -2.7679 H   0  0  0  0  0  0  0  0  0  0  0  0
  -15.6396    6.5116    0.0461 H   0  0  0  0  0  0  0  0  0  0  0  0
  -16.1057    7.2918   -1.5033 H   0  0  0  0  0  0  0  0  0  0  0  0
  -14.9590    5.9092   -1.5033 H   0  0  0  0  0  0  0  0  0  0  0  0
  -10.1403    7.9630    2.5818 H   0  0  0  0  0  0  0  0  0  0  0  0
  -11.3567    6.6797    2.2656 H   0  0  0  0  0  0  0  0  0  0  0  0
   -9.6061    6.2774    2.2656 H   0  0  0  0  0  0  0  0  0  0  0  0
   -9.4592    9.3699    0.4660 H   0  0  0  0  0  0  0  0  0  0  0  0
   -8.3083    8.0186    0.9991 H   0  0  0  0  0  0  0  0  0  0  0  0
   -9.0639    8.7940   -1.8319 H   0  0  0  0  0  0  0  0  0  0  0  0
   -7.4568    8.9282   -1.0161 H   0  0  0  0  0  0  0  0  0  0  0  0
   -7.3740    6.5425    0.5357 H   0  0  0  0  0  0  0  0  0  0  0  0
   -6.9204    5.2551   -0.6320 H   0  0  0  0  0  0  0  0  0  0  0  0
   -6.0375    6.8194   -0.6320 H   0  0  0  0  0  0  0  0  0  0  0  0
  1  2  1  0
  2  3  1  0
  3  4  1  0
  4  5  1  0
  5  6  1  0
  6  7  1  0
  7  8  1  0
  7  9  1  0
  2 10  1  0
 10 11  1  0
 11 12  1  0
 12 13  1  0
 13 14  1  6
 13 15  1  0
 15 16  1  0
 16 17  1  0
 17 18  2  0
 18 19  1  0
 19 20  1  0
 20 21  1  0
 21 22  1  0
 22 23  1  0
 22 24  1  0
 24 25  1  0
 24 26  1  0
 19 27  1  0
 27 28  1  1
 27 29  1  0
 29 30  1  0
 30 31  1  0
 31 32  1  1
  7  5  1  0
 31 10  1  0
 31 13  1  0
 27 15  1  0
 24 18  1  0
  1 33  1  0
  1 34  1  0
  1 35  1  0
  2 36  1  6
  3 37  1  0
  3 38  1  0
  4 39  1  0
  4 40  1  0
  5 41  1  1
  8 42  1  0
  8 43  1  0
  8 44  1  0
  9 45  1  0
  9 46  1  0
  9 47  1  0
 10 48  1  6
 11 49  1  0
 11 50  1  0
 12 51  1  0
 12 52  1  0
 14 53  1  0
 14 54  1  0
 14 55  1  0
 15 56  1  1
 16 57  1  0
 16 58  1  0
 17 59  1  0
 19 60  1  6
 20 61  1  0
 20 62  1  0
 21 63  1  0
 21 64  1  0
 22 65  1  6
 23 66  1  0
 25 67  1  0
 25 68  1  0
 25 69  1  0
 26 70  1  0
 26 71  1  0
 26 72  1  0
 28 73  1  0
 28 74  1  0
 28 75  1  0
 29 76  1  0
 29 77  1  0
 30 78  1  0
 30 79  1  0
 32 80  1  0
 32 81  1  0
 32 82  1  0
M  END
>  <meeko>  (10) 
{"is_sidechain": [false], "intermolecular_energy": 2.731, "internal_energy": -0.839}

$$$$
EPH_relaxed_0001_pdb2pqr_Repair_23_r2_0001_out
     RDKit          3D

 82 86  0  0  0  0  0  0  0  0999 V2000
   -0.5600   10.2370   -3.0910 C   0  0  0  0  0  0  0  0  0  0  0  0
    0.6660   10.1130   -2.1820 C   0  0  2  0  0  0  0  0  0  0  0  0
    0.5700    8.8960   -1.2410 C   0  0  0  0  0  0  0  0  0  0  0  0
   -0.5750    8.9910   -0.2280 C   0  0  0  0  0  0  0  0  0  0  0  0
   -1.7690    8.1980   -0.6650 C   0  0  2  0  0  0  0  0  0  0  0  0
   -2.3430    8.6170   -1.9100 O   0  0  0  0  0  0  0  0  0  0  0  0
   -3.1710    8.7720   -0.7460 C   0  0  0  0  0  0  0  0  0  0  0  0
   -3.4520   10.1970   -0.3850 C   0  0  0  0  0  0  0  0  0  0  0  0
   -4.3340    7.8310   -0.7040 C   0  0  0  0  0  0  0  0  0  0  0  0
    0.8400   11.3900   -1.3680 C   0  0  1  0  0  0  0  0  0  0  0  0
    1.9530   11.2650   -0.2940 C   0  0  0  0  0  0  0  0  0  0  0  0
    2.6310   12.6560   -0.1890 C   0  0  0  0  0  0  0  0  0  0  0  0
    1.6830   13.6100   -0.9520 C   0  0  1  0  0  0  0  0  0  0  0  0
    0.5490   13.9470    0.0670 C   0  0  0  0  0  0  0  0  0  0  0  0
    2.3330   14.9050   -1.5410 C   0  0  2  0  0  0  0  0  0  0  0  0
    2.9320   15.8660   -0.4990 C   0  0  0  0  0  0  0  0  0  0  0  0
    1.9980   16.9080    0.0190 C   0  0  0  0  0  0  0  0  0  0  0  0
    0.8210   17.2500   -0.5380 C   0  0  0  0  0  0  0  0  0  0  0  0
    0.3680   16.6290   -1.8650 C   0  0  1  0  0  0  0  0  0  0  0  0
   -0.1570   17.7460   -2.8060 C   0  0  0  0  0  0  0  0  0  0  0  0
   -1.2460   18.5940   -2.1570 C   0  0  0  0  0  0  0  0  0  0  0  0
   -0.7390   19.2410   -0.8710 C   0  0  2  0  0  0  0  0  0  0  0  0
    0.2750   20.1940   -1.2020 O   0  0  0  0  0  0  0  0  0  0  0  0
   -0.1770   18.2140    0.1510 C   0  0  0  0  0  0  0  0  0  0  0  0
   -1.3380   17.3730    0.7380 C   0  0  0  0  0  0  0  0  0  0  0  0
    0.4290   19.0060    1.3410 C   0  0  0  0  0  0  0  0  0  0  0  0
    1.4190   15.6740   -2.5790 C   0  0  1  0  0  0  0  0  0  0  0  0
    2.3760   16.5140   -3.4780 C   0  0  0  0  0  0  0  0  0  0  0  0
    0.6510   14.6930   -3.5420 C   0  0  0  0  0  0  0  0  0  0  0  0
    0.1380   13.3770   -2.9280 C   0  0  0  0  0  0  0  0  0  0  0  0
    1.2440   12.6740   -2.1350 C   0  0  2  0  0  0  0  0  0  0  0  0
    2.3890   12.3030   -3.1380 C   0  0  0  0  0  0  0  0  0  0  0  0
   -1.4661   10.3286   -2.4741 H   0  0  0  0  0  0  0  0  0  0  0  0
   -0.4569   11.1293   -3.7260 H   0  0  0  0  0  0  0  0  0  0  0  0
   -0.6377    9.3421   -3.7260 H   0  0  0  0  0  0  0  0  0  0  0  0
    1.5436    9.9616   -2.8277 H   0  0  0  0  0  0  0  0  0  0  0  0
    0.4186    7.9946   -1.8530 H   0  0  0  0  0  0  0  0  0  0  0  0
    1.5067    8.8594   -0.6655 H   0  0  0  0  0  0  0  0  0  0  0  0
   -0.2263    8.6053    0.7413 H   0  0  0  0  0  0  0  0  0  0  0  0
   -0.8750   10.0462   -0.1476 H   0  0  0  0  0  0  0  0  0  0  0  0
   -1.3699    7.2905   -0.1883 H   0  0  0  0  0  0  0  0  0  0  0  0
   -3.4724   10.3007    0.7099 H   0  0  0  0  0  0  0  0  0  0  0  0
   -2.6639   10.8426   -0.7998 H   0  0  0  0  0  0  0  0  0  0  0  0
   -4.4262   10.4951   -0.7998 H   0  0  0  0  0  0  0  0  0  0  0  0
   -4.5963    7.6188    0.3430 H   0  0  0  0  0  0  0  0  0  0  0  0
   -5.1952    8.2895   -1.2121 H   0  0  0  0  0  0  0  0  0  0  0  0
   -4.0653    6.8931   -1.2121 H   0  0  0  0  0  0  0  0  0  0  0  0
   -0.1801   11.4957   -0.9701 H   0  0  0  0  0  0  0  0  0  0  0  0
    1.5148   10.9830    0.6747 H   0  0  0  0  0  0  0  0  0  0  0  0
    2.6828   10.4895   -0.5696 H   0  0  0  0  0  0  0  0  0  0  0  0
    2.7268   12.9630    0.8629 H   0  0  0  0  0  0  0  0  0  0  0  0
    3.6487   12.6568   -0.6066 H   0  0  0  0  0  0  0  0  0  0  0  0
    0.9315   13.8333    1.0921 H   0  0  0  0  0  0  0  0  0  0  0  0
    0.2141   14.9835   -0.0866 H   0  0  0  0  0  0  0  0  0  0  0  0
   -0.2976   13.2616   -0.0866 H   0  0  0  0  0  0  0  0  0  0  0  0
    3.1887   14.5047   -2.1046 H   0  0  0  0  0  0  0  0  0  0  0  0
    3.2801   15.2668    0.3553 H   0  0  0  0  0  0  0  0  0  0  0  0
    3.7380   16.4091   -1.0142 H   0  0  0  0  0  0  0  0  0  0  0  0
    2.2964   17.4419    0.9333 H   0  0  0  0  0  0  0  0  0  0  0  0
   -0.4491   15.9368   -1.6137 H   0  0  0  0  0  0  0  0  0  0  0  0
    0.6836   18.4007   -3.0794 H   0  0  0  0  0  0  0  0  0  0  0  0
   -0.5953   17.2592   -3.6897 H   0  0  0  0  0  0  0  0  0  0  0  0
   -1.5549   19.3823   -2.8592 H   0  0  0  0  0  0  0  0  0  0  0  0
   -2.0980   17.9432   -1.9107 H   0  0  0  0  0  0  0  0  0  0  0  0
   -1.5982   19.7280   -0.3865 H   0  0  0  0  0  0  0  0  0  0  0  0
    1.0910   19.9260   -0.7470 H   0  0  0  0  0  0  0  0  0  0  0  0
   -1.2945   17.4045    1.8367 H   0  0  0  0  0  0  0  0  0  0  0  0
   -2.2988   17.7860    0.3971 H   0  0  0  0  0  0  0  0  0  0  0  0
   -1.2450   16.3313    0.3971 H   0  0  0  0  0  0  0  0  0  0  0  0
    0.0891   18.5618    2.2882 H   0  0  0  0  0  0  0  0  0  0  0  0
    1.5269   18.9629    1.2890 H   0  0  0  0  0  0  0  0  0  0  0  0
    0.1003   20.0545    1.2890 H   0  0  0  0  0  0  0  0  0  0  0  0
    3.0507   17.1062   -2.8423 H   0  0  0  0  0  0  0  0  0  0  0  0
    2.9688   15.8393   -4.1131 H   0  0  0  0  0  0  0  0  0  0  0  0
    1.7839   17.1893   -4.1131 H   0  0  0  0  0  0  0  0  0  0  0  0
   -0.2185   15.2339   -3.9437 H   0  0  0  0  0  0  0  0  0  0  0  0
    1.3932   14.3892   -4.2949 H   0  0  0  0  0  0  0  0  0  0  0  0
   -0.7029   13.5981   -2.2542 H   0  0  0  0  0  0  0  0  0  0  0  0
   -0.1857   12.7127   -3.7428 H   0  0  0  0  0  0  0  0  0  0  0  0
    3.2886   12.0115   -2.5760 H   0  0  0  0  0  0  0  0  0  0  0  0
    2.0643   11.4641   -3.7711 H   0  0  0  0  0  0  0  0  0  0  0  0
    2.6180   13.1729   -3.7711 H   0  0  0  0  0  0  0  0  0  0  0  0
  1  2  1  0
  2  3  1  0
  3  4  1  0
  4  5  1  0
  5  6  1  0
  6  7  1  0
  7  8  1  0
  7  9  1  0
  2 10  1  0
 10 11  1  0
 11 12  1  0
 12 13  1  0
 13 14  1  1
 13 15  1  0
 15 16  1  0
 16 17  1  0
 17 18  2  0
 18 19  1  0
 19 20  1  0
 20 21  1  0
 21 22  1  0
 22 23  1  0
 22 24  1  0
 24 25  1  0
 24 26  1  0
 19 27  1  0
 27 28  1  6
 27 29  1  0
 29 30  1  0
 30 31  1  0
 31 32  1  6
  7  5  1  0
 31 10  1  0
 31 13  1  0
 27 15  1  0
 24 18  1  0
  1 33  1  0
  1 34  1  0
  1 35  1  0
  2 36  1  6
  3 37  1  0
  3 38  1  0
  4 39  1  0
  4 40  1  0
  5 41  1  6
  8 42  1  0
  8 43  1  0
  8 44  1  0
  9 45  1  0
  9 46  1  0
  9 47  1  0
 10 48  1  1
 11 49  1  0
 11 50  1  0
 12 51  1  0
 12 52  1  0
 14 53  1  0
 14 54  1  0
 14 55  1  0
 15 56  1  6
 16 57  1  0
 16 58  1  0
 17 59  1  0
 19 60  1  1
 20 61  1  0
 20 62  1  0
 21 63  1  0
 21 64  1  0
 22 65  1  1
 23 66  1  0
 25 67  1  0
 25 68  1  0
 25 69  1  0
 26 70  1  0
 26 71  1  0
 26 72  1  0
 28 73  1  0
 28 74  1  0
 28 75  1  0
 29 76  1  0
 29 77  1  0
 30 78  1  0
 30 79  1  0
 32 80  1  0
 32 81  1  0
 32 82  1  0
M  END
>  <meeko>  (11) 
{"is_sidechain": [false], "intermolecular_energy": 2.731, "internal_energy": -0.839}

$$$$
EPH_relaxed_0001_pdb2pqr_Repair_23_r2_0001_out
     RDKit          3D

 82 86  0  0  0  0  0  0  0  0999 V2000
   -4.1630    7.1370   -3.3730 C   0  0  0  0  0  0  0  0  0  0  0  0
   -4.0210    7.2010   -1.8500 C   0  0  2  0  0  0  0  0  0  0  0  0
   -5.3620    6.9570   -1.1300 C   0  0  0  0  0  0  0  0  0  0  0  0
   -6.5830    7.4250   -1.9280 C   0  0  0  0  0  0  0  0  0  0  0  0
   -7.4080    6.2690   -2.4070 C   0  0  2  0  0  0  0  0  0  0  0  0
   -8.3810    6.6010   -3.4060 O   0  0  0  0  0  0  0  0  0  0  0  0
   -8.8970    6.1400   -2.1460 C   0  0  0  0  0  0  0  0  0  0  0  0
   -9.6480    7.1820   -1.3780 C   0  0  0  0  0  0  0  0  0  0  0  0
   -9.5200    4.7800   -2.2120 C   0  0  0  0  0  0  0  0  0  0  0  0
   -3.4460    8.5510   -1.4380 C   0  0  1  0  0  0  0  0  0  0  0  0
   -4.0660    9.0870   -0.1190 C   0  0  0  0  0  0  0  0  0  0  0  0
   -2.9390    9.8440    0.6290 C   0  0  0  0  0  0  0  0  0  0  0  0
   -1.8140   10.0060   -0.4200 C   0  0  1  0  0  0  0  0  0  0  0  0
   -2.2420   11.2360   -1.2800 C   0  0  0  0  0  0  0  0  0  0  0  0
   -0.3640   10.1700    0.1410 C   0  0  2  0  0  0  0  0  0  0  0  0
   -0.1360   11.4240    1.0030 C   0  0  0  0  0  0  0  0  0  0  0  0
    0.3170   12.6360    0.2580 C   0  0  0  0  0  0  0  0  0  0  0  0
    0.8040   12.6460   -0.9960 C   0  0  0  0  0  0  0  0  0  0  0  0
    1.0320   11.3380   -1.7640 C   0  0  1  0  0  0  0  0  0  0  0  0
    2.4310   11.3670   -2.4330 C   0  0  0  0  0  0  0  0  0  0  0  0
    2.6360   12.5990   -3.3080 C   0  0  0  0  0  0  0  0  0  0  0  0
    2.4590   13.8800   -2.4960 C   0  0  2  0  0  0  0  0  0  0  0  0
    3.5180   13.9690   -1.5390 O   0  0  0  0  0  0  0  0  0  0  0  0
    1.0880   13.9590   -1.7680 C   0  0  0  0  0  0  0  0  0  0  0  0
   -0.0420   14.1660   -2.8060 C   0  0  0  0  0  0  0  0  0  0  0  0
    1.0940   15.2290   -0.8740 C   0  0  0  0  0  0  0  0  0  0  0  0
    0.7750   10.0000   -0.9450 C   0  0  1  0  0  0  0  0  0  0  0  0
    2.0670    9.5900   -0.1750 C   0  0  0  0  0  0  0  0  0  0  0  0
    0.4690    8.8300   -1.9540 C   0  0  0  0  0  0  0  0  0  0  0  0
   -1.0000    8.6440   -2.3780 C   0  0  0  0  0  0  0  0  0  0  0  0
   -1.9240    8.6210   -1.1570 C   0  0  2  0  0  0  0  0  0  0  0  0
   -1.5320    7.3810   -0.2840 C   0  0  0  0  0  0  0  0  0  0  0  0
   -5.1376    6.6977   -3.6322 H   0  0  0  0  0  0  0  0  0  0  0  0
   -4.0958    8.1525   -3.7905 H   0  0  0  0  0  0  0  0  0  0  0  0
   -3.3577    6.5148   -3.7905 H   0  0  0  0  0  0  0  0  0  0  0  0
   -3.3342    6.3966   -1.5480 H   0  0  0  0  0  0  0  0  0  0  0  0
   -5.4634    5.8782   -0.9408 H   0  0  0  0  0  0  0  0  0  0  0  0
   -5.3400    7.5456   -0.2010 H   0  0  0  0  0  0  0  0  0  0  0  0
   -7.2052    8.0650   -1.2851 H   0  0  0  0  0  0  0  0  0  0  0  0
   -6.2256    7.9795   -2.8082 H   0  0  0  0  0  0  0  0  0  0  0  0
   -6.5688    5.5749   -2.2518 H   0  0  0  0  0  0  0  0  0  0  0  0
   -9.5208    7.0055   -0.2997 H   0  0  0  0  0  0  0  0  0  0  0  0
   -9.2590    8.1783   -1.6349 H   0  0  0  0  0  0  0  0  0  0  0  0
  -10.7162    7.1280   -1.6349 H   0  0  0  0  0  0  0  0  0  0  0  0
   -9.6916    4.4054   -1.1921 H   0  0  0  0  0  0  0  0  0  0  0  0
  -10.4796    4.8418   -2.7462 H   0  0  0  0  0  0  0  0  0  0  0  0
   -8.8465    4.0937   -2.7462 H   0  0  0  0  0  0  0  0  0  0  0  0
   -3.6893    9.1366   -2.3368 H   0  0  0  0  0  0  0  0  0  0  0  0
   -4.8983    9.7707   -0.3420 H   0  0  0  0  0  0  0  0  0  0  0  0
   -4.4636    8.2644    0.4936 H   0  0  0  0  0  0  0  0  0  0  0  0
   -3.2935   10.8269    0.9730 H   0  0  0  0  0  0  0  0  0  0  0  0
   -2.5986    9.3050    1.5255 H   0  0  0  0  0  0  0  0  0  0  0  0
   -2.5304   12.0647   -0.6166 H   0  0  0  0  0  0  0  0  0  0  0  0
   -1.4004   11.5503   -1.9148 H   0  0  0  0  0  0  0  0  0  0  0  0
   -3.0969   10.9599   -1.9148 H   0  0  0  0  0  0  0  0  0  0  0  0
   -0.2793    9.3154    0.8283 H   0  0  0  0  0  0  0  0  0  0  0  0
   -1.0837   11.6682    1.5052 H   0  0  0  0  0  0  0  0  0  0  0  0
    0.6785   11.1717    1.6979 H   0  0  0  0  0  0  0  0  0  0  0  0
    0.2466   13.6025    0.7785 H   0  0  0  0  0  0  0  0  0  0  0  0
    0.2500   11.2986   -2.5366 H   0  0  0  0  0  0  0  0  0  0  0  0
    3.1986   11.3625   -1.6452 H   0  0  0  0  0  0  0  0  0  0  0  0
    2.5097   10.4812   -3.0804 H   0  0  0  0  0  0  0  0  0  0  0  0
    3.6521   12.5768   -3.7287 H   0  0  0  0  0  0  0  0  0  0  0  0
    1.8864   12.5869   -4.1129 H   0  0  0  0  0  0  0  0  0  0  0  0
    2.4888   14.7242   -3.2006 H   0  0  0  0  0  0  0  0  0  0  0  0
    3.1610   14.4000   -0.7440 H   0  0  0  0  0  0  0  0  0  0  0  0
   -0.9935   14.3403   -2.2823 H   0  0  0  0  0  0  0  0  0  0  0  0
    0.1942   15.0358   -3.4366 H   0  0  0  0  0  0  0  0  0  0  0  0
   -0.1295   13.2689   -3.4366 H   0  0  0  0  0  0  0  0  0  0  0  0
    1.0926   14.9319    0.1851 H   0  0  0  0  0  0  0  0  0  0  0  0
    1.9950   15.8231   -1.0870 H   0  0  0  0  0  0  0  0  0  0  0  0
    0.1987   15.8316   -1.0870 H   0  0  0  0  0  0  0  0  0  0  0  0
    1.8826    9.6485    0.9079 H   0  0  0  0  0  0  0  0  0  0  0  0
    2.3433    8.5600   -0.4448 H   0  0  0  0  0  0  0  0  0  0  0  0
    2.8867   10.2722   -0.4448 H   0  0  0  0  0  0  0  0  0  0  0  0
    1.0574    9.0140   -2.8650 H   0  0  0  0  0  0  0  0  0  0  0  0
    0.7312    7.9084   -1.4136 H   0  0  0  0  0  0  0  0  0  0  0  0
   -1.2929    9.4759   -3.0354 H   0  0  0  0  0  0  0  0  0  0  0  0
   -1.0936    7.6841   -2.9069 H   0  0  0  0  0  0  0  0  0  0  0  0
   -1.6145    7.6419    0.7814 H   0  0  0  0  0  0  0  0  0  0  0  0
   -2.2095    6.5444   -0.5102 H   0  0  0  0  0  0  0  0  0  0  0  0
   -0.4967    7.0859   -0.5102 H   0  0  0  0  0  0  0  0  0  0  0  0
  1  2  1  0
  2  3  1  0
  3  4  1  0
  4  5  1  0
  5  6  1  0
  6  7  1  0
  7  8  1  0
  7  9  1  0
  2 10  1  0
 10 11  1  0
 11 12  1  0
 12 13  1  0
 13 14  1  6
 13 15  1  0
 15 16  1  0
 16 17  1  0
 17 18  2  0
 18 19  1  0
 19 20  1  0
 20 21  1  0
 21 22  1  0
 22 23  1  0
 22 24  1  0
 24 25  1  0
 24 26  1  0
 19 27  1  0
 27 28  1  1
 27 29  1  0
 29 30  1  0
 30 31  1  0
 31 32  1  1
  7  5  1  0
 31 10  1  0
 31 13  1  0
 27 15  1  0
 24 18  1  0
  1 33  1  0
  1 34  1  0
  1 35  1  0
  2 36  1  1
  3 37  1  0
  3 38  1  0
  4 39  1  0
  4 40  1  0
  5 41  1  6
  8 42  1  0
  8 43  1  0
  8 44  1  0
  9 45  1  0
  9 46  1  0
  9 47  1  0
 10 48  1  6
 11 49  1  0
 11 50  1  0
 12 51  1  0
 12 52  1  0
 14 53  1  0
 14 54  1  0
 14 55  1  0
 15 56  1  1
 16 57  1  0
 16 58  1  0
 17 59  1  0
 19 60  1  6
 20 61  1  0
 20 62  1  0
 21 63  1  0
 21 64  1  0
 22 65  1  6
 23 66  1  0
 25 67  1  0
 25 68  1  0
 25 69  1  0
 26 70  1  0
 26 71  1  0
 26 72  1  0
 28 73  1  0
 28 74  1  0
 28 75  1  0
 29 76  1  0
 29 77  1  0
 30 78  1  0
 30 79  1  0
 32 80  1  0
 32 81  1  0
 32 82  1  0
M  END
>  <meeko>  (12) 
{"is_sidechain": [false], "intermolecular_energy": 2.731, "internal_energy": -0.839}

$$$$
EPH_relaxed_0001_pdb2pqr_Repair_23_r2_0001_out
     RDKit          3D

 82 86  0  0  0  0  0  0  0  0999 V2000
   -0.9020   16.3660   -5.8610 C   0  0  0  0  0  0  0  0  0  0  0  0
    0.1990   15.6700   -6.6670 C   0  0  2  0  0  0  0  0  0  0  0  0
   -0.1970   15.4750   -8.1440 C   0  0  0  0  0  0  0  0  0  0  0  0
    0.4410   16.4940   -9.0920 C   0  0  0  0  0  0  0  0  0  0  0  0
    1.8470   16.1160   -9.4470 C   0  0  2  0  0  0  0  0  0  0  0  0
    2.3310   16.6900  -10.6690 O   0  0  0  0  0  0  0  0  0  0  0  0
    2.2050   15.2590  -10.6470 C   0  0  0  0  0  0  0  0  0  0  0  0
    1.1520   14.7270  -11.5680 C   0  0  0  0  0  0  0  0  0  0  0  0
    3.5170   14.5380  -10.6460 C   0  0  0  0  0  0  0  0  0  0  0  0
    0.5330   14.3240   -6.0350 C   0  0  1  0  0  0  0  0  0  0  0  0
    1.7730   13.6510   -6.6820 C   0  0  0  0  0  0  0  0  0  0  0  0
    2.5160   12.8980   -5.5490 C   0  0  0  0  0  0  0  0  0  0  0  0
    1.5150   12.8820   -4.3700 C   0  0  1  0  0  0  0  0  0  0  0  0
    0.5420   11.7040   -4.6860 C   0  0  0  0  0  0  0  0  0  0  0  0
    2.1340   12.7520   -2.9400 C   0  0  2  0  0  0  0  0  0  0  0  0
    2.9060   11.4470   -2.6790 C   0  0  0  0  0  0  0  0  0  0  0  0
    2.0930   10.3250   -2.1240 C   0  0  0  0  0  0  0  0  0  0  0  0
    0.8680   10.4410   -1.5800 C   0  0  0  0  0  0  0  0  0  0  0  0
    0.2170   11.8180   -1.3930 C   0  0  1  0  0  0  0  0  0  0  0  0
   -0.3820   11.9180    0.0350 C   0  0  0  0  0  0  0  0  0  0  0  0
   -1.3390   10.7730    0.3500 C   0  0  0  0  0  0  0  0  0  0  0  0
   -0.6390    9.4230    0.2100 C   0  0  2  0  0  0  0  0  0  0  0  0
    0.3610    9.3150    1.2280 O   0  0  0  0  0  0  0  0  0  0  0  0
    0.0120    9.2130   -1.1860 C   0  0  0  0  0  0  0  0  0  0  0  0
   -1.0950    9.0290   -2.2540 C   0  0  0  0  0  0  0  0  0  0  0  0
    0.8030    7.8770   -1.1470 C   0  0  0  0  0  0  0  0  0  0  0  0
    1.1230   13.0700   -1.7640 C   0  0  1  0  0  0  0  0  0  0  0  0
    1.9860   13.4850   -0.5340 C   0  0  0  0  0  0  0  0  0  0  0  0
    0.1940   14.2980   -2.0900 C   0  0  0  0  0  0  0  0  0  0  0  0
   -0.2870   14.4390   -3.5470 C   0  0  0  0  0  0  0  0  0  0  0  0
    0.8840   14.3140   -4.5260 C   0  0  2  0  0  0  0  0  0  0  0  0
    1.8690   15.4990   -4.2460 C   0  0  0  0  0  0  0  0  0  0  0  0
   -0.7043   16.2410   -4.7862 H   0  0  0  0  0  0  0  0  0  0  0  0
   -0.9163   17.4376   -6.1090 H   0  0  0  0  0  0  0  0  0  0  0  0
   -1.8761   15.9192   -6.1090 H   0  0  0  0  0  0  0  0  0  0  0  0
    1.0856   16.3208   -6.6468 H   0  0  0  0  0  0  0  0  0  0  0  0
    0.1142   14.4674   -8.4568 H   0  0  0  0  0  0  0  0  0  0  0  0
   -1.2861   15.6162   -8.2061 H   0  0  0  0  0  0  0  0  0  0  0  0
   -0.1574   16.5470  -10.0135 H   0  0  0  0  0  0  0  0  0  0  0  0
    0.4662   17.4682   -8.5818 H   0  0  0  0  0  0  0  0  0  0  0  0
    2.1228   16.0497   -8.3842 H   0  0  0  0  0  0  0  0  0  0  0  0
    0.3244   14.3089  -10.9761 H   0  0  0  0  0  0  0  0  0  0  0  0
    0.7738   15.5422  -12.2024 H   0  0  0  0  0  0  0  0  0  0  0  0
    1.5838   13.9389  -12.2024 H   0  0  0  0  0  0  0  0  0  0  0  0
    3.8377   14.3617   -9.6087 H   0  0  0  0  0  0  0  0  0  0  0  0
    3.4061   13.5741  -11.1643 H   0  0  0  0  0  0  0  0  0  0  0  0
    4.2712   15.1484  -11.1643 H   0  0  0  0  0  0  0  0  0  0  0  0
   -0.4197   13.8004   -6.2033 H   0  0  0  0  0  0  0  0  0  0  0  0
    1.4559   12.9435   -7.4623 H   0  0  0  0  0  0  0  0  0  0  0  0
    2.4270   14.3992   -7.1537 H   0  0  0  0  0  0  0  0  0  0  0  0
    2.7643   11.8730   -5.8617 H   0  0  0  0  0  0  0  0  0  0  0  0
    3.4679   13.3802   -5.2818 H   0  0  0  0  0  0  0  0  0  0  0  0
    0.1796   11.2652   -3.7447 H   0  0  0  0  0  0  0  0  0  0  0  0
   -0.3123   12.0801   -5.2681 H   0  0  0  0  0  0  0  0  0  0  0  0
    1.0727   10.9362   -5.2681 H   0  0  0  0  0  0  0  0  0  0  0  0
    2.8892   13.5518   -2.9371 H   0  0  0  0  0  0  0  0  0  0  0  0
    3.3404   11.1126   -3.6327 H   0  0  0  0  0  0  0  0  0  0  0  0
    3.6575   11.6863   -1.9122 H   0  0  0  0  0  0  0  0  0  0  0  0
    2.5329    9.3175   -2.1631 H   0  0  0  0  0  0  0  0  0  0  0  0
   -0.5878   11.8777   -2.1405 H   0  0  0  0  0  0  0  0  0  0  0  0
    0.4411   11.9003    0.7645 H   0  0  0  0  0  0  0  0  0  0  0  0
   -0.9538   12.8560    0.0920 H   0  0  0  0  0  0  0  0  0  0  0  0
   -1.7054   10.8834    1.3813 H   0  0  0  0  0  0  0  0  0  0  0  0
   -2.1769   10.8097   -0.3617 H   0  0  0  0  0  0  0  0  0  0  0  0
   -1.4045    8.6408    0.3203 H   0  0  0  0  0  0  0  0  0  0  0  0
   -0.0820    9.4190    2.0870 H   0  0  0  0  0  0  0  0  0  0  0  0
   -2.0623    8.8682   -1.7555 H   0  0  0  0  0  0  0  0  0  0  0  0
   -1.1516    9.9301   -2.8824 H   0  0  0  0  0  0  0  0  0  0  0  0
   -0.8571    8.1581   -2.8824 H   0  0  0  0  0  0  0  0  0  0  0  0
    0.9765    7.5840   -0.1010 H   0  0  0  0  0  0  0  0  0  0  0  0
    0.2235    7.0928   -1.6562 H   0  0  0  0  0  0  0  0  0  0  0  0
    1.7692    8.0080   -1.6562 H   0  0  0  0  0  0  0  0  0  0  0  0
    1.4515   13.2280    0.3924 H   0  0  0  0  0  0  0  0  0  0  0  0
    2.9470   12.9505   -0.5632 H   0  0  0  0  0  0  0  0  0  0  0  0
    2.1685   14.5694   -0.5632 H   0  0  0  0  0  0  0  0  0  0  0  0
   -0.6982   14.2189   -1.4514 H   0  0  0  0  0  0  0  0  0  0  0  0
    0.8163   15.1861   -1.9056 H   0  0  0  0  0  0  0  0  0  0  0  0
   -1.0212   13.6485   -3.7615 H   0  0  0  0  0  0  0  0  0  0  0  0
   -0.7430   15.4323   -3.6710 H   0  0  0  0  0  0  0  0  0  0  0  0
    1.9811   15.6338   -3.1601 H   0  0  0  0  0  0  0  0  0  0  0  0
    2.8496   15.2736   -4.6906 H   0  0  0  0  0  0  0  0  0  0  0  0
    1.4682   16.4218   -4.6906 H   0  0  0  0  0  0  0  0  0  0  0  0
  1  2  1  0
  2  3  1  0
  3  4  1  0
  4  5  1  0
  5  6  1  0
  6  7  1  0
  7  8  1  0
  7  9  1  0
  2 10  1  0
 10 11  1  0
 11 12  1  0
 12 13  1  0
 13 14  1  6
 13 15  1  0
 15 16  1  0
 16 17  1  0
 17 18  2  0
 18 19  1  0
 19 20  1  0
 20 21  1  0
 21 22  1  0
 22 23  1  0
 22 24  1  0
 24 25  1  0
 24 26  1  0
 19 27  1  0
 27 28  1  1
 27 29  1  0
 29 30  1  0
 30 31  1  0
 31 32  1  6
  7  5  1  0
 31 10  1  0
 31 13  1  0
 27 15  1  0
 24 18  1  0
  1 33  1  0
  1 34  1  0
  1 35  1  0
  2 36  1  6
  3 37  1  0
  3 38  1  0
  4 39  1  0
  4 40  1  0
  5 41  1  1
  8 42  1  0
  8 43  1  0
  8 44  1  0
  9 45  1  0
  9 46  1  0
  9 47  1  0
 10 48  1  1
 11 49  1  0
 11 50  1  0
 12 51  1  0
 12 52  1  0
 14 53  1  0
 14 54  1  0
 14 55  1  0
 15 56  1  6
 16 57  1  0
 16 58  1  0
 17 59  1  0
 19 60  1  6
 20 61  1  0
 20 62  1  0
 21 63  1  0
 21 64  1  0
 22 65  1  1
 23 66  1  0
 25 67  1  0
 25 68  1  0
 25 69  1  0
 26 70  1  0
 26 71  1  0
 26 72  1  0
 28 73  1  0
 28 74  1  0
 28 75  1  0
 29 76  1  0
 29 77  1  0
 30 78  1  0
 30 79  1  0
 32 80  1  0
 32 81  1  0
 32 82  1  0
M  END
>  <meeko>  (13) 
{"is_sidechain": [false], "intermolecular_energy": 2.731, "internal_energy": -0.839}

$$$$
EPH_relaxed_0001_pdb2pqr_Repair_23_r2_0001_out
     RDKit          3D

 82 86  0  0  0  0  0  0  0  0999 V2000
    0.1040    9.3820   -2.4490 C   0  0  0  0  0  0  0  0  0  0  0  0
    1.1860   10.3850   -2.8580 C   0  0  2  0  0  0  0  0  0  0  0  0
    2.5860    9.7400   -2.9070 C   0  0  0  0  0  0  0  0  0  0  0  0
    3.5370   10.4090   -3.9040 C   0  0  0  0  0  0  0  0  0  0  0  0
    4.9120   10.5770   -3.3310 C   0  0  2  0  0  0  0  0  0  0  0  0
    5.5070   11.8590   -3.5700 O   0  0  0  0  0  0  0  0  0  0  0  0
    6.1590   10.7340   -4.1810 C   0  0  0  0  0  0  0  0  0  0  0  0
    6.0900   10.7290   -5.6760 C   0  0  0  0  0  0  0  0  0  0  0  0
    7.4860   10.4020   -3.5720 C   0  0  0  0  0  0  0  0  0  0  0  0
    1.1900   11.5670   -1.8960 C   0  0  1  0  0  0  0  0  0  0  0  0
    2.2590   11.4240   -0.7790 C   0  0  0  0  0  0  0  0  0  0  0  0
    2.7850   12.8510   -0.4790 C   0  0  0  0  0  0  0  0  0  0  0  0
    1.7810   13.7940   -1.1830 C   0  0  1  0  0  0  0  0  0  0  0  0
    0.5710   13.8970   -0.2020 C   0  0  0  0  0  0  0  0  0  0  0  0
    2.3210   15.2050   -1.5830 C   0  0  2  0  0  0  0  0  0  0  0  0
    2.7700   16.0900   -0.4070 C   0  0  0  0  0  0  0  0  0  0  0  0
    1.7100   16.9690    0.1700 C   0  0  0  0  0  0  0  0  0  0  0  0
    0.5310   17.2580   -0.4120 C   0  0  0  0  0  0  0  0  0  0  0  0
    0.2070   16.7590   -1.8260 C   0  0  1  0  0  0  0  0  0  0  0  0
   -0.3840   17.9220   -2.6640 C   0  0  0  0  0  0  0  0  0  0  0  0
   -1.5840   18.5790   -1.9880 C   0  0  0  0  0  0  0  0  0  0  0  0
   -1.2070   19.1150   -0.6090 C   0  0  2  0  0  0  0  0  0  0  0  0
   -0.2820   20.1940   -0.7710 O   0  0  0  0  0  0  0  0  0  0  0  0
   -0.5910   18.0330    0.3220 C   0  0  0  0  0  0  0  0  0  0  0  0
   -1.6860   17.0220    0.7410 C   0  0  0  0  0  0  0  0  0  0  0  0
   -0.1260   18.7350    1.6260 C   0  0  0  0  0  0  0  0  0  0  0  0
    1.3830   16.0000   -2.5790 C   0  0  1  0  0  0  0  0  0  0  0  0
    2.2900   17.0290   -3.3210 C   0  0  0  0  0  0  0  0  0  0  0  0
    0.7660   15.0710   -3.6900 C   0  0  0  0  0  0  0  0  0  0  0  0
    0.3620   13.6470   -3.2600 C   0  0  0  0  0  0  0  0  0  0  0  0
    1.4960   12.9650   -2.4890 C   0  0  2  0  0  0  0  0  0  0  0  0
    2.7190   12.8280   -3.4580 C   0  0  0  0  0  0  0  0  0  0  0  0
    0.0481    9.3301   -1.3516 H   0  0  0  0  0  0  0  0  0  0  0  0
   -0.8673    9.7063   -2.8507 H   0  0  0  0  0  0  0  0  0  0  0  0
    0.3539    8.3889   -2.8507 H   0  0  0  0  0  0  0  0  0  0  0  0
    0.9473   10.7339   -3.8735 H   0  0  0  0  0  0  0  0  0  0  0  0
    3.0332    9.8038   -1.9040 H   0  0  0  0  0  0  0  0  0  0  0  0
    2.4498    8.7006   -3.2402 H   0  0  0  0  0  0  0  0  0  0  0  0
    3.6013    9.7861   -4.8084 H   0  0  0  0  0  0  0  0  0  0  0  0
    3.1396   11.4071   -4.1404 H   0  0  0  0  0  0  0  0  0  0  0  0
    4.6703    9.9074   -2.4925 H   0  0  0  0  0  0  0  0  0  0  0  0
    5.0398   10.6529   -5.9943 H   0  0  0  0  0  0  0  0  0  0  0  0
    6.5248   11.6610   -6.0662 H   0  0  0  0  0  0  0  0  0  0  0  0
    6.6546    9.8694   -6.0662 H   0  0  0  0  0  0  0  0  0  0  0  0
    7.4018   10.4231   -2.4754 H   0  0  0  0  0  0  0  0  0  0  0  0
    7.7976    9.3982   -3.8966 H   0  0  0  0  0  0  0  0  0  0  0  0
    8.2335   11.1408   -3.8966 H   0  0  0  0  0  0  0  0  0  0  0  0
    0.1472   11.5259   -1.5482 H   0  0  0  0  0  0  0  0  0  0  0  0
    1.8070   10.9890    0.1246 H   0  0  0  0  0  0  0  0  0  0  0  0
    3.0765   10.7602   -1.0969 H   0  0  0  0  0  0  0  0  0  0  0  0
    2.8001   13.0393    0.6047 H   0  0  0  0  0  0  0  0  0  0  0  0
    3.8154   12.9987   -0.8347 H   0  0  0  0  0  0  0  0  0  0  0  0
    0.9362   13.8659    0.8352 H   0  0  0  0  0  0  0  0  0  0  0  0
    0.0383   14.8437   -0.3750 H   0  0  0  0  0  0  0  0  0  0  0  0
   -0.1141   13.0539   -0.3750 H   0  0  0  0  0  0  0  0  0  0  0  0
    3.2382   14.9571   -2.1374 H   0  0  0  0  0  0  0  0  0  0  0  0
    3.1381   15.4311    0.3932 H   0  0  0  0  0  0  0  0  0  0  0  0
    3.5393   16.7650   -0.8102 H   0  0  0  0  0  0  0  0  0  0  0  0
    1.9093   17.4185    1.1540 H   0  0  0  0  0  0  0  0  0  0  0  0
   -0.5473   15.9678   -1.7036 H   0  0  0  0  0  0  0  0  0  0  0  0
    0.3971   18.6822   -2.8124 H   0  0  0  0  0  0  0  0  0  0  0  0
   -0.7279   17.5029   -3.6211 H   0  0  0  0  0  0  0  0  0  0  0  0
   -1.9383   19.4116   -2.6134 H   0  0  0  0  0  0  0  0  0  0  0  0
   -2.3757   17.8249   -1.8674 H   0  0  0  0  0  0  0  0  0  0  0  0
   -2.1332   19.4556   -0.1231 H   0  0  0  0  0  0  0  0  0  0  0  0
   -0.7140   21.0030   -0.4480 H   0  0  0  0  0  0  0  0  0  0  0  0
   -1.7391   16.9730    1.8386 H   0  0  0  0  0  0  0  0  0  0  0  0
   -2.6577   17.3472    0.3410 H   0  0  0  0  0  0  0  0  0  0  0  0
   -1.4392   16.0275    0.3410 H   0  0  0  0  0  0  0  0  0  0  0  0
   -0.4973   18.1745    2.4966 H   0  0  0  0  0  0  0  0  0  0  0  0
    0.9732   18.7680    1.6527 H   0  0  0  0  0  0  0  0  0  0  0  0
   -0.5244   19.7600    1.6527 H   0  0  0  0  0  0  0  0  0  0  0  0
    2.8295   17.6411   -2.5833 H   0  0  0  0  0  0  0  0  0  0  0  0
    3.0139   16.4920   -3.9515 H   0  0  0  0  0  0  0  0  0  0  0  0
    1.6663   17.6797   -3.9515 H   0  0  0  0  0  0  0  0  0  0  0  0
   -0.1345   15.5694   -4.0781 H   0  0  0  0  0  0  0  0  0  0  0  0
    1.5700   14.9316   -4.4276 H   0  0  0  0  0  0  0  0  0  0  0  0
   -0.5276   13.7044   -2.6156 H   0  0  0  0  0  0  0  0  0  0  0  0
    0.1462   13.0560   -4.1623 H   0  0  0  0  0  0  0  0  0  0  0  0
    3.6429   12.7245   -2.8700 H   0  0  0  0  0  0  0  0  0  0  0  0
    2.5865   11.9391   -4.0922 H   0  0  0  0  0  0  0  0  0  0  0  0
    2.7865   13.7242   -4.0922 H   0  0  0  0  0  0  0  0  0  0  0  0
  1  2  1  0
  2  3  1  0
  3  4  1  0
  4  5  1  0
  5  6  1  0
  6  7  1  0
  7  8  1  0
  7  9  1  0
  2 10  1  0
 10 11  1  0
 11 12  1  0
 12 13  1  0
 13 14  1  1
 13 15  1  0
 15 16  1  0
 16 17  1  0
 17 18  2  0
 18 19  1  0
 19 20  1  0
 20 21  1  0
 21 22  1  0
 22 23  1  0
 22 24  1  0
 24 25  1  0
 24 26  1  0
 19 27  1  0
 27 28  1  6
 27 29  1  0
 29 30  1  0
 30 31  1  0
 31 32  1  6
  7  5  1  0
 31 10  1  0
 31 13  1  0
 27 15  1  0
 24 18  1  0
  1 33  1  0
  1 34  1  0
  1 35  1  0
  2 36  1  6
  3 37  1  0
  3 38  1  0
  4 39  1  0
  4 40  1  0
  5 41  1  1
  8 42  1  0
  8 43  1  0
  8 44  1  0
  9 45  1  0
  9 46  1  0
  9 47  1  0
 10 48  1  1
 11 49  1  0
 11 50  1  0
 12 51  1  0
 12 52  1  0
 14 53  1  0
 14 54  1  0
 14 55  1  0
 15 56  1  6
 16 57  1  0
 16 58  1  0
 17 59  1  0
 19 60  1  1
 20 61  1  0
 20 62  1  0
 21 63  1  0
 21 64  1  0
 22 65  1  1
 23 66  1  0
 25 67  1  0
 25 68  1  0
 25 69  1  0
 26 70  1  0
 26 71  1  0
 26 72  1  0
 28 73  1  0
 28 74  1  0
 28 75  1  0
 29 76  1  0
 29 77  1  0
 30 78  1  0
 30 79  1  0
 32 80  1  0
 32 81  1  0
 32 82  1  0
M  END
>  <meeko>  (14) 
{"is_sidechain": [false], "intermolecular_energy": 2.731, "internal_energy": -0.839}

$$$$
EPH_relaxed_0001_pdb2pqr_Repair_23_r2_0001_out
     RDKit          3D

 82 86  0  0  0  0  0  0  0  0999 V2000
    0.6090   19.1910   -2.3940 C   0  0  0  0  0  0  0  0  0  0  0  0
    0.1190   18.1610   -1.3720 C   0  0  2  0  0  0  0  0  0  0  0  0
    0.6440   18.4570    0.0470 C   0  0  0  0  0  0  0  0  0  0  0  0
    1.5920   19.6580    0.1150 C   0  0  0  0  0  0  0  0  0  0  0  0
    2.5350   19.5550    1.2750 C   0  0  2  0  0  0  0  0  0  0  0  0
    3.8030   20.1930    1.0750 O   0  0  0  0  0  0  0  0  0  0  0  0
    3.8300   18.7660    1.2340 C   0  0  0  0  0  0  0  0  0  0  0  0
    4.2530   18.0240    0.0050 C   0  0  0  0  0  0  0  0  0  0  0  0
    4.4340   18.3140    2.5270 C   0  0  0  0  0  0  0  0  0  0  0  0
    0.5400   16.7610   -1.8020 C   0  0  1  0  0  0  0  0  0  0  0  0
    1.9250   16.7420   -2.5020 C   0  0  0  0  0  0  0  0  0  0  0  0
    2.6120   15.4120   -2.0980 C   0  0  0  0  0  0  0  0  0  0  0  0
    1.4840   14.5680   -1.4590 C   0  0  1  0  0  0  0  0  0  0  0  0
    0.7120   13.9500   -2.6670 C   0  0  0  0  0  0  0  0  0  0  0  0
    1.9330   13.4720   -0.4390 C   0  0  2  0  0  0  0  0  0  0  0  0
    2.8260   12.3640   -1.0240 C   0  0  0  0  0  0  0  0  0  0  0  0
    2.0990   11.1730   -1.5540 C   0  0  0  0  0  0  0  0  0  0  0  0
    0.8110   10.8690   -1.3070 C   0  0  0  0  0  0  0  0  0  0  0  0
   -0.0270   11.7150   -0.3390 C   0  0  1  0  0  0  0  0  0  0  0  0
   -0.8040   10.7800    0.6250 C   0  0  0  0  0  0  0  0  0  0  0  0
   -1.6400    9.7410   -0.1150 C   0  0  0  0  0  0  0  0  0  0  0  0
   -0.7640    8.8820   -1.0230 C   0  0  2  0  0  0  0  0  0  0  0  0
    0.1090    8.0920   -0.2090 O   0  0  0  0  0  0  0  0  0  0  0  0
    0.0740    9.7160   -2.0320 C   0  0  0  0  0  0  0  0  0  0  0  0
   -0.8610   10.3320   -3.1020 C   0  0  0  0  0  0  0  0  0  0  0  0
    1.0170    8.7410   -2.7900 C   0  0  0  0  0  0  0  0  0  0  0  0
    0.7540   12.8690    0.4260 C   0  0  1  0  0  0  0  0  0  0  0  0
    1.4000   12.3020    1.7270 C   0  0  0  0  0  0  0  0  0  0  0  0
   -0.2760   13.9690    0.8840 C   0  0  0  0  0  0  0  0  0  0  0  0
   -0.5880   15.0910   -0.1240 C   0  0  0  0  0  0  0  0  0  0  0  0
    0.7010   15.6940   -0.6900 C   0  0  2  0  0  0  0  0  0  0  0  0
    1.4870   16.3440    0.4990 C   0  0  0  0  0  0  0  0  0  0  0  0
    1.0236   20.0626   -1.8663 H   0  0  0  0  0  0  0  0  0  0  0  0
    1.3887   18.7393   -3.0249 H   0  0  0  0  0  0  0  0  0  0  0  0
   -0.2334   19.5110   -3.0249 H   0  0  0  0  0  0  0  0  0  0  0  0
   -0.9786   18.2245   -1.3379 H   0  0  0  0  0  0  0  0  0  0  0  0
   -0.2174   18.6571    0.7012 H   0  0  0  0  0  0  0  0  0  0  0  0
    1.2187   17.5755    0.3674 H   0  0  0  0  0  0  0  0  0  0  0  0
    2.1759   19.7043   -0.8161 H   0  0  0  0  0  0  0  0  0  0  0  0
    0.9856   20.5664    0.2457 H   0  0  0  0  0  0  0  0  0  0  0  0
    1.6962   19.5598    1.9866 H   0  0  0  0  0  0  0  0  0  0  0  0
    4.7784   17.1024    0.2958 H   0  0  0  0  0  0  0  0  0  0  0  0
    3.3655   17.7673   -0.5920 H   0  0  0  0  0  0  0  0  0  0  0  0
    4.9260   18.6570   -0.5920 H   0  0  0  0  0  0  0  0  0  0  0  0
    3.8648   18.7400    3.3663 H   0  0  0  0  0  0  0  0  0  0  0  0
    4.4024   17.2158    2.5824 H   0  0  0  0  0  0  0  0  0  0  0  0
    5.4787   18.6540    2.5824 H   0  0  0  0  0  0  0  0  0  0  0  0
   -0.3106   16.5036   -2.4503 H   0  0  0  0  0  0  0  0  0  0  0  0
    1.7983   16.7866   -3.5938 H   0  0  0  0  0  0  0  0  0  0  0  0
    2.5323   17.6080   -2.1998 H   0  0  0  0  0  0  0  0  0  0  0  0
    3.0240   14.9036   -2.9822 H   0  0  0  0  0  0  0  0  0  0  0  0
    3.4552   15.5705   -1.4096 H   0  0  0  0  0  0  0  0  0  0  0  0
   -0.0958   13.3033   -2.2938 H   0  0  0  0  0  0  0  0  0  0  0  0
    0.2826   14.7568   -3.2792 H   0  0  0  0  0  0  0  0  0  0  0  0
    1.4052   13.3544   -3.2792 H   0  0  0  0  0  0  0  0  0  0  0  0
    2.5748   14.0399    0.2506 H   0  0  0  0  0  0  0  0  0  0  0  0
    3.4119   12.7988   -1.8472 H   0  0  0  0  0  0  0  0  0  0  0  0
    3.4427   11.9979   -0.1900 H   0  0  0  0  0  0  0  0  0  0  0  0
    2.6634   10.4855   -2.2012 H   0  0  0  0  0  0  0  0  0  0  0  0
   -0.7357   12.2802   -0.9621 H   0  0  0  0  0  0  0  0  0  0  0  0
   -0.0809   10.2574    1.2685 H   0  0  0  0  0  0  0  0  0  0  0  0
   -1.4922   11.4046    1.2134 H   0  0  0  0  0  0  0  0  0  0  0  0
   -2.1415    9.0932    0.6191 H   0  0  0  0  0  0  0  0  0  0  0  0
   -2.3817   10.2647   -0.7359 H   0  0  0  0  0  0  0  0  0  0  0  0
   -1.4327    8.2455   -1.6211 H   0  0  0  0  0  0  0  0  0  0  0  0
   -0.3110    7.9930    0.6620 H   0  0  0  0  0  0  0  0  0  0  0  0
   -1.6807   10.8720   -2.6055 H   0  0  0  0  0  0  0  0  0  0  0  0
   -0.2891   11.0307   -3.7302 H   0  0  0  0  0  0  0  0  0  0  0  0
   -1.2773    9.5307   -3.7302 H   0  0  0  0  0  0  0  0  0  0  0  0
    1.5912    8.1473   -2.0635 H   0  0  0  0  0  0  0  0  0  0  0  0
    0.4181    8.0683   -3.4215 H   0  0  0  0  0  0  0  0  0  0  0  0
    1.7093    9.3172   -3.4215 H   0  0  0  0  0  0  0  0  0  0  0  0
    0.9016   12.7395    2.6046 H   0  0  0  0  0  0  0  0  0  0  0  0
    1.2846   11.2083    1.7471 H   0  0  0  0  0  0  0  0  0  0  0  0
    2.4695   12.5583    1.7471 H   0  0  0  0  0  0  0  0  0  0  0  0
   -1.2227   13.4608    1.1198 H   0  0  0  0  0  0  0  0  0  0  0  0
    0.2016   14.4731    1.7371 H   0  0  0  0  0  0  0  0  0  0  0  0
   -1.1844   14.6767   -0.9502 H   0  0  0  0  0  0  0  0  0  0  0  0
   -1.1471   15.8833    0.3953 H   0  0  0  0  0  0  0  0  0  0  0  0
    1.0644   15.9945    1.4525 H   0  0  0  0  0  0  0  0  0  0  0  0
    2.5467   16.0548    0.4397 H   0  0  0  0  0  0  0  0  0  0  0  0
    1.4019   17.4391    0.4397 H   0  0  0  0  0  0  0  0  0  0  0  0
  1  2  1  0
  2  3  1  0
  3  4  1  0
  4  5  1  0
  5  6  1  0
  6  7  1  0
  7  8  1  0
  7  9  1  0
  2 10  1  0
 10 11  1  0
 11 12  1  0
 12 13  1  0
 13 14  1  6
 13 15  1  0
 15 16  1  0
 16 17  1  0
 17 18  2  0
 18 19  1  0
 19 20  1  0
 20 21  1  0
 21 22  1  0
 22 23  1  0
 22 24  1  0
 24 25  1  0
 24 26  1  0
 19 27  1  0
 27 28  1  1
 27 29  1  0
 29 30  1  0
 30 31  1  0
 31 32  1  1
  7  5  1  0
 31 10  1  0
 31 13  1  0
 27 15  1  0
 24 18  1  0
  1 33  1  0
  1 34  1  0
  1 35  1  0
  2 36  1  1
  3 37  1  0
  3 38  1  0
  4 39  1  0
  4 40  1  0
  5 41  1  1
  8 42  1  0
  8 43  1  0
  8 44  1  0
  9 45  1  0
  9 46  1  0
  9 47  1  0
 10 48  1  6
 11 49  1  0
 11 50  1  0
 12 51  1  0
 12 52  1  0
 14 53  1  0
 14 54  1  0
 14 55  1  0
 15 56  1  1
 16 57  1  0
 16 58  1  0
 17 59  1  0
 19 60  1  6
 20 61  1  0
 20 62  1  0
 21 63  1  0
 21 64  1  0
 22 65  1  6
 23 66  1  0
 25 67  1  0
 25 68  1  0
 25 69  1  0
 26 70  1  0
 26 71  1  0
 26 72  1  0
 28 73  1  0
 28 74  1  0
 28 75  1  0
 29 76  1  0
 29 77  1  0
 30 78  1  0
 30 79  1  0
 32 80  1  0
 32 81  1  0
 32 82  1  0
M  END
>  <meeko>  (15) 
{"is_sidechain": [false], "intermolecular_energy": 2.731, "internal_energy": -0.839}

$$$$
EPH_relaxed_0001_pdb2pqr_Repair_23_r2_0001_out
     RDKit          3D

 82 86  0  0  0  0  0  0  0  0999 V2000
   -2.2520    7.8180   -2.2700 C   0  0  0  0  0  0  0  0  0  0  0  0
   -2.3250    8.4490   -0.8770 C   0  0  2  0  0  0  0  0  0  0  0  0
   -3.7620    8.4560   -0.3180 C   0  0  0  0  0  0  0  0  0  0  0  0
   -4.6230    7.2920   -0.8170 C   0  0  0  0  0  0  0  0  0  0  0  0
   -6.0360    7.7190   -1.0760 C   0  0  2  0  0  0  0  0  0  0  0  0
   -7.0270    6.7320   -0.7610 O   0  0  0  0  0  0  0  0  0  0  0  0
   -6.9150    7.0980   -2.1460 C   0  0  0  0  0  0  0  0  0  0  0  0
   -6.4120    5.9980   -3.0280 C   0  0  0  0  0  0  0  0  0  0  0  0
   -8.0810    7.8840   -2.6580 C   0  0  0  0  0  0  0  0  0  0  0  0
   -1.7760    9.8700   -0.9190 C   0  0  1  0  0  0  0  0  0  0  0  0
   -1.3360   10.3820    0.4780 C   0  0  0  0  0  0  0  0  0  0  0  0
   -0.0990   11.2890    0.2530 C   0  0  0  0  0  0  0  0  0  0  0  0
   -0.0690   11.5360   -1.2740 C   0  0  1  0  0  0  0  0  0  0  0  0
   -1.1070   12.6760   -1.5160 C   0  0  0  0  0  0  0  0  0  0  0  0
    1.3250   11.8830   -1.8910 C   0  0  2  0  0  0  0  0  0  0  0  0
    1.9600   13.1870   -1.3760 C   0  0  0  0  0  0  0  0  0  0  0  0
    1.6220   14.4130   -2.1580 C   0  0  0  0  0  0  0  0  0  0  0  0
    1.0770   14.4300   -3.3890 C   0  0  0  0  0  0  0  0  0  0  0  0
    0.8340   13.1270   -4.1610 C   0  0  1  0  0  0  0  0  0  0  0  0
    1.3390   13.2870   -5.6190 C   0  0  0  0  0  0  0  0  0  0  0  0
    0.7330   14.5000   -6.3170 C   0  0  0  0  0  0  0  0  0  0  0  0
    1.0460   15.7830   -5.5510 C   0  0  2  0  0  0  0  0  0  0  0  0
    2.4540   16.0270   -5.6160 O   0  0  0  0  0  0  0  0  0  0  0  0
    0.5920   15.7350   -4.0650 C   0  0  0  0  0  0  0  0  0  0  0  0
   -0.9550   15.7740   -3.9920 C   0  0  0  0  0  0  0  0  0  0  0  0
    1.0920   17.0310   -3.3710 C   0  0  0  0  0  0  0  0  0  0  0  0
    1.3740   11.8010   -3.4700 C   0  0  1  0  0  0  0  0  0  0  0  0
    2.8660   11.5690   -3.8580 C   0  0  0  0  0  0  0  0  0  0  0  0
    0.5720   10.5670   -4.0300 C   0  0  0  0  0  0  0  0  0  0  0  0
   -0.7360   10.2010   -3.3040 C   0  0  0  0  0  0  0  0  0  0  0  0
   -0.5190   10.1210   -1.7900 C   0  0  2  0  0  0  0  0  0  0  0  0
    0.5040    8.9660   -1.5140 C   0  0  0  0  0  0  0  0  0  0  0  0
   -2.1261    6.7295   -2.1733 H   0  0  0  0  0  0  0  0  0  0  0  0
   -3.1809    8.0323   -2.8188 H   0  0  0  0  0  0  0  0  0  0  0  0
   -1.3965    8.2388   -2.8188 H   0  0  0  0  0  0  0  0  0  0  0  0
   -1.7107    7.8338   -0.2031 H   0  0  0  0  0  0  0  0  0  0  0  0
   -3.7079    8.4023    0.7794 H   0  0  0  0  0  0  0  0  0  0  0  0
   -4.2391    9.3825   -0.6702 H   0  0  0  0  0  0  0  0  0  0  0  0
   -4.1910    6.9039   -1.7512 H   0  0  0  0  0  0  0  0  0  0  0  0
   -4.6366    6.5165   -0.0370 H   0  0  0  0  0  0  0  0  0  0  0  0
   -5.7883    8.7644   -0.8397 H   0  0  0  0  0  0  0  0  0  0  0  0
   -6.0347    5.1729   -2.4061 H   0  0  0  0  0  0  0  0  0  0  0  0
   -7.2326    5.6329   -3.6630 H   0  0  0  0  0  0  0  0  0  0  0  0
   -5.5990    6.3799   -3.6630 H   0  0  0  0  0  0  0  0  0  0  0  0
   -8.6609    8.2749   -1.8089 H   0  0  0  0  0  0  0  0  0  0  0  0
   -7.7176    8.7222   -3.2707 H   0  0  0  0  0  0  0  0  0  0  0  0
   -8.7216    7.2327   -3.2707 H   0  0  0  0  0  0  0  0  0  0  0  0
   -2.6435   10.3903   -1.3512 H   0  0  0  0  0  0  0  0  0  0  0  0
   -2.1489   10.9587    0.9433 H   0  0  0  0  0  0  0  0  0  0  0  0
   -1.0943    9.5435    1.1477 H   0  0  0  0  0  0  0  0  0  0  0  0
   -0.2092   12.2382    0.7979 H   0  0  0  0  0  0  0  0  0  0  0  0
    0.8295   10.8267    0.6192 H   0  0  0  0  0  0  0  0  0  0  0  0
   -1.4591   13.0627   -0.5483 H   0  0  0  0  0  0  0  0  0  0  0  0
   -0.6326   13.4891   -2.0851 H   0  0  0  0  0  0  0  0  0  0  0  0
   -1.9608   12.2797   -2.0851 H   0  0  0  0  0  0  0  0  0  0  0  0
    1.9603   11.0700   -1.5097 H   0  0  0  0  0  0  0  0  0  0  0  0
    1.6254   13.3419   -0.3396 H   0  0  0  0  0  0  0  0  0  0  0  0
    3.0477   13.0547   -1.4726 H   0  0  0  0  0  0  0  0  0  0  0  0
    1.8363   15.3845   -1.6888 H   0  0  0  0  0  0  0  0  0  0  0  0
   -0.2548   12.9703   -4.1584 H   0  0  0  0  0  0  0  0  0  0  0  0
    2.4331   13.3992   -5.6031 H   0  0  0  0  0  0  0  0  0  0  0  0
    1.0325   12.3913   -6.1791 H   0  0  0  0  0  0  0  0  0  0  0  0
    1.1492   14.5763   -7.3324 H   0  0  0  0  0  0  0  0  0  0  0  0
   -0.3589   14.3727   -6.3575 H   0  0  0  0  0  0  0  0  0  0  0  0
    0.4796   16.5975   -6.0261 H   0  0  0  0  0  0  0  0  0  0  0  0
    2.5860   16.8680   -6.0850 H   0  0  0  0  0  0  0  0  0  0  0  0
   -1.2723   15.7820   -2.9388 H   0  0  0  0  0  0  0  0  0  0  0  0
   -1.3229   16.6817   -4.4927 H   0  0  0  0  0  0  0  0  0  0  0  0
   -1.3682   14.8860   -4.4927 H   0  0  0  0  0  0  0  0  0  0  0  0
    1.0432   16.9046   -2.2794 H   0  0  0  0  0  0  0  0  0  0  0  0
    2.1314   17.2300   -3.6710 H   0  0  0  0  0  0  0  0  0  0  0  0
    0.4555   17.8765   -3.6710 H   0  0  0  0  0  0  0  0  0  0  0  0
    3.4720   11.4748   -2.9448 H   0  0  0  0  0  0  0  0  0  0  0  0
    2.9514   10.6468   -4.4515 H   0  0  0  0  0  0  0  0  0  0  0  0
    3.2274   12.4217   -4.4515 H   0  0  0  0  0  0  0  0  0  0  0  0
    0.3213   10.7816   -5.0793 H   0  0  0  0  0  0  0  0  0  0  0  0
    1.2350    9.7018   -3.8819 H   0  0  0  0  0  0  0  0  0  0  0  0
   -1.4937   10.9689   -3.5188 H   0  0  0  0  0  0  0  0  0  0  0  0
   -1.0725    9.2170   -3.6625 H   0  0  0  0  0  0  0  0  0  0  0  0
    0.6222    8.8325   -0.4285 H   0  0  0  0  0  0  0  0  0  0  0  0
    0.1315    8.0319   -1.9599 H   0  0  0  0  0  0  0  0  0  0  0  0
    1.4762    9.2230   -1.9599 H   0  0  0  0  0  0  0  0  0  0  0  0
  1  2  1  0
  2  3  1  0
  3  4  1  0
  4  5  1  0
  5  6  1  0
  6  7  1  0
  7  8  1  0
  7  9  1  0
  2 10  1  0
 10 11  1  0
 11 12  1  0
 12 13  1  0
 13 14  1  1
 13 15  1  0
 15 16  1  0
 16 17  1  0
 17 18  2  0
 18 19  1  0
 19 20  1  0
 20 21  1  0
 21 22  1  0
 22 23  1  0
 22 24  1  0
 24 25  1  0
 24 26  1  0
 19 27  1  0
 27 28  1  1
 27 29  1  0
 29 30  1  0
 30 31  1  0
 31 32  1  6
  7  5  1  0
 31 10  1  0
 31 13  1  0
 27 15  1  0
 24 18  1  0
  1 33  1  0
  1 34  1  0
  1 35  1  0
  2 36  1  1
  3 37  1  0
  3 38  1  0
  4 39  1  0
  4 40  1  0
  5 41  1  1
  8 42  1  0
  8 43  1  0
  8 44  1  0
  9 45  1  0
  9 46  1  0
  9 47  1  0
 10 48  1  6
 11 49  1  0
 11 50  1  0
 12 51  1  0
 12 52  1  0
 14 53  1  0
 14 54  1  0
 14 55  1  0
 15 56  1  1
 16 57  1  0
 16 58  1  0
 17 59  1  0
 19 60  1  6
 20 61  1  0
 20 62  1  0
 21 63  1  0
 21 64  1  0
 22 65  1  6
 23 66  1  0
 25 67  1  0
 25 68  1  0
 25 69  1  0
 26 70  1  0
 26 71  1  0
 26 72  1  0
 28 73  1  0
 28 74  1  0
 28 75  1  0
 29 76  1  0
 29 77  1  0
 30 78  1  0
 30 79  1  0
 32 80  1  0
 32 81  1  0
 32 82  1  0
M  END
>  <meeko>  (16) 
{"is_sidechain": [false], "intermolecular_energy": 2.731, "internal_energy": -0.839}

$$$$
EPH_relaxed_0001_pdb2pqr_Repair_23_r2_0001_out
     RDKit          3D

 82 86  0  0  0  0  0  0  0  0999 V2000
    2.6760   18.0200   -3.6760 C   0  0  0  0  0  0  0  0  0  0  0  0
    2.0440   17.8750   -2.2890 C   0  0  2  0  0  0  0  0  0  0  0  0
    2.5640   18.9370   -1.3000 C   0  0  0  0  0  0  0  0  0  0  0  0
    1.7990   18.9690    0.0260 C   0  0  0  0  0  0  0  0  0  0  0  0
    2.4660   19.8630    1.0290 C   0  0  2  0  0  0  0  0  0  0  0  0
    3.8270   20.1940    0.7240 O   0  0  0  0  0  0  0  0  0  0  0  0
    3.6150   19.4170    1.9140 C   0  0  0  0  0  0  0  0  0  0  0  0
    4.1640   18.0270    1.8380 C   0  0  0  0  0  0  0  0  0  0  0  0
    3.8760   20.1710    3.1800 C   0  0  0  0  0  0  0  0  0  0  0  0
    2.3110   16.4780   -1.7400 C   0  0  1  0  0  0  0  0  0  0  0  0
    3.0650   16.5020   -0.3840 C   0  0  0  0  0  0  0  0  0  0  0  0
    2.5270   15.3110    0.4490 C   0  0  0  0  0  0  0  0  0  0  0  0
    1.7360   14.4520   -0.5650 C   0  0  1  0  0  0  0  0  0  0  0  0
    2.8180   13.6080   -1.3070 C   0  0  0  0  0  0  0  0  0  0  0  0
    0.6060   13.5490    0.0280 C   0  0  2  0  0  0  0  0  0  0  0  0
    1.0840   12.4660    1.0110 C   0  0  0  0  0  0  0  0  0  0  0  0
    1.4250   11.1500    0.3930 C   0  0  0  0  0  0  0  0  0  0  0  0
    1.0840   10.7570   -0.8480 C   0  0  0  0  0  0  0  0  0  0  0  0
    0.1940   11.6360   -1.7360 C   0  0  1  0  0  0  0  0  0  0  0  0
   -0.9160   10.7650   -2.3810 C   0  0  0  0  0  0  0  0  0  0  0  0
   -0.3540    9.5600   -3.1300 C   0  0  0  0  0  0  0  0  0  0  0  0
    0.4770    8.6800   -2.2000 C   0  0  2  0  0  0  0  0  0  0  0  0
   -0.3900    8.0930   -1.2240 O   0  0  0  0  0  0  0  0  0  0  0  0
    1.6210    9.4520   -1.4850 C   0  0  0  0  0  0  0  0  0  0  0  0
    2.7170    9.8280   -2.5130 C   0  0  0  0  0  0  0  0  0  0  0  0
    2.2900    8.4830   -0.4730 C   0  0  0  0  0  0  0  0  0  0  0  0
   -0.3820   12.9510   -1.0550 C   0  0  1  0  0  0  0  0  0  0  0  0
   -1.7140   12.6270   -0.3110 C   0  0  0  0  0  0  0  0  0  0  0  0
   -0.7430   13.9960   -2.1760 C   0  0  0  0  0  0  0  0  0  0  0  0
    0.3850   14.9400   -2.6350 C   0  0  0  0  0  0  0  0  0  0  0  0
    1.0810   15.5870   -1.4340 C   0  0  2  0  0  0  0  0  0  0  0  0
    0.0210   16.4610   -0.6800 C   0  0  0  0  0  0  0  0  0  0  0  0
    3.7431   18.2648   -3.5689 H   0  0  0  0  0  0  0  0  0  0  0  0
    2.5703   17.0743   -4.2278 H   0  0  0  0  0  0  0  0  0  0  0  0
    2.1687   18.8251   -4.2278 H   0  0  0  0  0  0  0  0  0  0  0  0
    0.9608   18.0304   -2.4011 H   0  0  0  0  0  0  0  0  0  0  0  0
    3.6217   18.7240   -1.0858 H   0  0  0  0  0  0  0  0  0  0  0  0
    2.4221   19.9179   -1.7771 H   0  0  0  0  0  0  0  0  0  0  0  0
    0.7797   19.3388   -0.1592 H   0  0  0  0  0  0  0  0  0  0  0  0
    1.7792   17.9483    0.4356 H   0  0  0  0  0  0  0  0  0  0  0  0
    1.5116   20.3614    1.2545 H   0  0  0  0  0  0  0  0  0  0  0  0
    4.3179   17.6374    2.8551 H   0  0  0  0  0  0  0  0  0  0  0  0
    3.4535   17.3810    1.3015 H   0  0  0  0  0  0  0  0  0  0  0  0
    5.1242   18.0408    1.3015 H   0  0  0  0  0  0  0  0  0  0  0  0
    3.6530   19.5266    4.0432 H   0  0  0  0  0  0  0  0  0  0  0  0
    4.9322   20.4765    3.2137 H   0  0  0  0  0  0  0  0  0  0  0  0
    3.2347   21.0641    3.2137 H   0  0  0  0  0  0  0  0  0  0  0  0
    2.8819   16.0565   -2.5805 H   0  0  0  0  0  0  0  0  0  0  0  0
    4.1466   16.3899   -0.5502 H   0  0  0  0  0  0  0  0  0  0  0  0
    2.9034   17.4553    0.1405 H   0  0  0  0  0  0  0  0  0  0  0  0
    3.3570   14.7340    0.8827 H   0  0  0  0  0  0  0  0  0  0  0  0
    1.9033   15.6402    1.2932 H   0  0  0  0  0  0  0  0  0  0  0  0
    3.4613   13.1062   -0.5691 H   0  0  0  0  0  0  0  0  0  0  0  0
    2.3254   12.8531   -1.9375 H   0  0  0  0  0  0  0  0  0  0  0  0
    3.4302   14.2695   -1.9375 H   0  0  0  0  0  0  0  0  0  0  0  0
    0.0254   14.2635    0.6300 H   0  0  0  0  0  0  0  0  0  0  0  0
    1.9812   12.8438    1.5231 H   0  0  0  0  0  0  0  0  0  0  0  0
    0.2384   12.2746    1.6880 H   0  0  0  0  0  0  0  0  0  0  0  0
    2.0040   10.4419    1.0040 H   0  0  0  0  0  0  0  0  0  0  0  0
    0.8523   12.0417   -2.5184 H   0  0  0  0  0  0  0  0  0  0  0  0
   -1.5873   10.4050   -1.5874 H   0  0  0  0  0  0  0  0  0  0  0  0
   -1.4502   11.3917   -3.1103 H   0  0  0  0  0  0  0  0  0  0  0  0
   -1.1872    8.9681   -3.5368 H   0  0  0  0  0  0  0  0  0  0  0  0
    0.2929    9.9217   -3.9428 H   0  0  0  0  0  0  0  0  0  0  0  0
    0.9586    7.9089   -2.8193 H   0  0  0  0  0  0  0  0  0  0  0  0
   -0.3730    7.1300   -1.3570 H   0  0  0  0  0  0  0  0  0  0  0  0
    3.6275   10.1403   -1.9806 H   0  0  0  0  0  0  0  0  0  0  0  0
    2.9424    8.9558   -3.1442 H   0  0  0  0  0  0  0  0  0  0  0  0
    2.3595   10.6549   -3.1442 H   0  0  0  0  0  0  0  0  0  0  0  0
    2.0639    8.8104    0.5525 H   0  0  0  0  0  0  0  0  0  0  0  0
    1.9009    7.4657   -0.6273 H   0  0  0  0  0  0  0  0  0  0  0  0
    3.3791    8.4863   -0.6273 H   0  0  0  0  0  0  0  0  0  0  0  0
   -1.5464   12.6678    0.7754 H   0  0  0  0  0  0  0  0  0  0  0  0
   -2.4798   13.3651   -0.5918 H   0  0  0  0  0  0  0  0  0  0  0  0
   -2.0552   11.6197   -0.5918 H   0  0  0  0  0  0  0  0  0  0  0  0
   -1.0856   13.4338   -3.0572 H   0  0  0  0  0  0  0  0  0  0  0  0
   -1.5015   14.6522   -1.7243 H   0  0  0  0  0  0  0  0  0  0  0  0
    1.1238   14.3642   -3.2118 H   0  0  0  0  0  0  0  0  0  0  0  0
   -0.0538   15.7348   -3.2561 H   0  0  0  0  0  0  0  0  0  0  0  0
    0.1580   16.3481    0.4056 H   0  0  0  0  0  0  0  0  0  0  0  0
    0.1519   17.5172   -0.9582 H   0  0  0  0  0  0  0  0  0  0  0  0
   -0.9909   16.1312   -0.9582 H   0  0  0  0  0  0  0  0  0  0  0  0
  1  2  1  0
  2  3  1  0
  3  4  1  0
  4  5  1  0
  5  6  1  0
  6  7  1  0
  7  8  1  0
  7  9  1  0
  2 10  1  0
 10 11  1  0
 11 12  1  0
 12 13  1  0
 13 14  1  6
 13 15  1  0
 15 16  1  0
 16 17  1  0
 17 18  2  0
 18 19  1  0
 19 20  1  0
 20 21  1  0
 21 22  1  0
 22 23  1  0
 22 24  1  0
 24 25  1  0
 24 26  1  0
 19 27  1  0
 27 28  1  1
 27 29  1  0
 29 30  1  0
 30 31  1  0
 31 32  1  1
  7  5  1  0
 31 10  1  0
 31 13  1  0
 27 15  1  0
 24 18  1  0
  1 33  1  0
  1 34  1  0
  1 35  1  0
  2 36  1  6
  3 37  1  0
  3 38  1  0
  4 39  1  0
  4 40  1  0
  5 41  1  1
  8 42  1  0
  8 43  1  0
  8 44  1  0
  9 45  1  0
  9 46  1  0
  9 47  1  0
 10 48  1  6
 11 49  1  0
 11 50  1  0
 12 51  1  0
 12 52  1  0
 14 53  1  0
 14 54  1  0
 14 55  1  0
 15 56  1  1
 16 57  1  0
 16 58  1  0
 17 59  1  0
 19 60  1  6
 20 61  1  0
 20 62  1  0
 21 63  1  0
 21 64  1  0
 22 65  1  6
 23 66  1  0
 25 67  1  0
 25 68  1  0
 25 69  1  0
 26 70  1  0
 26 71  1  0
 26 72  1  0
 28 73  1  0
 28 74  1  0
 28 75  1  0
 29 76  1  0
 29 77  1  0
 30 78  1  0
 30 79  1  0
 32 80  1  0
 32 81  1  0
 32 82  1  0
M  END
>  <meeko>  (17) 
{"is_sidechain": [false], "intermolecular_energy": 2.731, "internal_energy": -0.839}

$$$$
EPH_relaxed_0001_pdb2pqr_Repair_23_r2_0001_out
     RDKit          3D

 82 86  0  0  0  0  0  0  0  0999 V2000
  -15.2790    8.0210    0.0400 C   0  0  0  0  0  0  0  0  0  0  0  0
  -14.5420    8.8210   -1.0380 C   0  0  2  0  0  0  0  0  0  0  0  0
  -14.8640    8.3150   -2.4580 C   0  0  0  0  0  0  0  0  0  0  0  0
  -14.3500    9.2340   -3.5700 C   0  0  0  0  0  0  0  0  0  0  0  0
  -15.0230   10.5730   -3.5380 C   0  0  2  0  0  0  0  0  0  0  0  0
  -14.3970   11.5770   -4.3470 O   0  0  0  0  0  0  0  0  0  0  0  0
  -14.3930   11.8120   -2.9300 C   0  0  0  0  0  0  0  0  0  0  0  0
  -13.0310   11.7710   -2.3100 C   0  0  0  0  0  0  0  0  0  0  0  0
  -15.2870   12.9330   -2.5010 C   0  0  0  0  0  0  0  0  0  0  0  0
  -13.0390    8.7620   -0.7920 C   0  0  1  0  0  0  0  0  0  0  0  0
  -12.6630    9.0580    0.6840 C   0  0  0  0  0  0  0  0  0  0  0  0
  -11.4360    8.1710    1.0200 C   0  0  0  0  0  0  0  0  0  0  0  0
  -10.9450    7.6490   -0.3510 C   0  0  1  0  0  0  0  0  0  0  0  0
  -10.0970    8.8170   -0.9440 C   0  0  0  0  0  0  0  0  0  0  0  0
  -10.1460    6.3060   -0.3330 C   0  0  2  0  0  0  0  0  0  0  0  0
   -8.8220    6.3450    0.4510 C   0  0  0  0  0  0  0  0  0  0  0  0
   -7.6190    6.7250   -0.3470 C   0  0  0  0  0  0  0  0  0  0  0  0
   -7.5470    6.7470   -1.6900 C   0  0  0  0  0  0  0  0  0  0  0  0
   -8.7240    6.2690   -2.5510 C   0  0  1  0  0  0  0  0  0  0  0  0
   -8.2000    5.3320   -3.6700 C   0  0  0  0  0  0  0  0  0  0  0  0
   -7.0930    5.9740   -4.5010 C   0  0  0  0  0  0  0  0  0  0  0  0
   -5.9170    6.3820   -3.6190 C   0  0  2  0  0  0  0  0  0  0  0  0
   -5.3010    5.2010   -3.0960 O   0  0  0  0  0  0  0  0  0  0  0  0
   -6.3240    7.3200   -2.4490 C   0  0  0  0  0  0  0  0  0  0  0  0
   -6.7090    8.7130   -3.0080 C   0  0  0  0  0  0  0  0  0  0  0  0
   -5.0740    7.5420   -1.5560 C   0  0  0  0  0  0  0  0  0  0  0  0
   -9.9530    5.6470   -1.7590 C   0  0  1  0  0  0  0  0  0  0  0  0
   -9.7160    4.1250   -1.5170 C   0  0  0  0  0  0  0  0  0  0  0  0
  -11.2480    5.7590   -2.6490 C   0  0  0  0  0  0  0  0  0  0  0  0
  -12.0600    7.0620   -2.5330 C   0  0  0  0  0  0  0  0  0  0  0  0
  -12.3260    7.4140   -1.0660 C   0  0  2  0  0  0  0  0  0  0  0  0
  -13.1970    6.2670   -0.4490 C   0  0  0  0  0  0  0  0  0  0  0  0
  -14.9608    8.3664    1.0347 H   0  0  0  0  0  0  0  0  0  0  0  0
  -16.3633    8.1695   -0.0702 H   0  0  0  0  0  0  0  0  0  0  0  0
  -15.0422    6.9525   -0.0702 H   0  0  0  0  0  0  0  0  0  0  0  0
  -14.8887    9.8629   -0.9725 H   0  0  0  0  0  0  0  0  0  0  0  0
  -14.4042    7.3240   -2.5862 H   0  0  0  0  0  0  0  0  0  0  0  0
  -15.9599    8.2838   -2.5475 H   0  0  0  0  0  0  0  0  0  0  0  0
  -13.2667    9.3764   -3.4426 H   0  0  0  0  0  0  0  0  0  0  0  0
  -14.5743    8.7605   -4.5372 H   0  0  0  0  0  0  0  0  0  0  0  0
  -16.0068   10.1012   -3.3981 H   0  0  0  0  0  0  0  0  0  0  0  0
  -13.1267   11.7739   -1.2142 H   0  0  0  0  0  0  0  0  0  0  0  0
  -12.5098   10.8568   -2.6301 H   0  0  0  0  0  0  0  0  0  0  0  0
  -12.4557   12.6522   -2.6301 H   0  0  0  0  0  0  0  0  0  0  0  0
  -15.3207   12.9752   -1.4023 H   0  0  0  0  0  0  0  0  0  0  0  0
  -14.8965   13.8838   -2.8927 H   0  0  0  0  0  0  0  0  0  0  0  0
  -16.3009   12.7639   -2.8927 H   0  0  0  0  0  0  0  0  0  0  0  0
  -12.7039    9.5189   -1.5164 H   0  0  0  0  0  0  0  0  0  0  0  0
  -12.4061   10.1209    0.8036 H   0  0  0  0  0  0  0  0  0  0  0  0
  -13.5048    8.8390    1.3574 H   0  0  0  0  0  0  0  0  0  0  0  0
  -10.6517    8.7638    1.5134 H   0  0  0  0  0  0  0  0  0  0  0  0
  -11.6888    7.3537    1.7115 H   0  0  0  0  0  0  0  0  0  0  0  0
   -9.6662    9.4104   -0.1241 H   0  0  0  0  0  0  0  0  0  0  0  0
   -9.2867    8.4043   -1.5630 H   0  0  0  0  0  0  0  0  0  0  0  0
  -10.7403    9.4597   -1.5630 H   0  0  0  0  0  0  0  0  0  0  0  0
  -10.8127    5.6429    0.2378 H   0  0  0  0  0  0  0  0  0  0  0  0
   -8.9320    7.0736    1.2678 H   0  0  0  0  0  0  0  0  0  0  0  0
   -8.6440    5.3167    0.7987 H   0  0  0  0  0  0  0  0  0  0  0  0
   -6.7149    7.0112    0.2104 H   0  0  0  0  0  0  0  0  0  0  0  0
   -9.1621    7.1737   -2.9978 H   0  0  0  0  0  0  0  0  0  0  0  0
   -7.8063    4.4153   -3.2066 H   0  0  0  0  0  0  0  0  0  0  0  0
   -9.0411    5.1157   -4.3451 H   0  0  0  0  0  0  0  0  0  0  0  0
   -6.7445    5.2529   -5.2550 H   0  0  0  0  0  0  0  0  0  0  0  0
   -7.4962    6.8743   -4.9877 H   0  0  0  0  0  0  0  0  0  0  0  0
   -5.2162    6.9510   -4.2476 H   0  0  0  0  0  0  0  0  0  0  0  0
   -4.8830    5.4360   -2.2500 H   0  0  0  0  0  0  0  0  0  0  0  0
   -6.8998    9.4032   -2.1730 H   0  0  0  0  0  0  0  0  0  0  0  0
   -5.8846    9.1016   -3.6239 H   0  0  0  0  0  0  0  0  0  0  0  0
   -7.6160    8.6231   -3.6239 H   0  0  0  0  0  0  0  0  0  0  0  0
   -5.3662    7.4901   -0.4968 H   0  0  0  0  0  0  0  0  0  0  0  0
   -4.3279    6.7623   -1.7692 H   0  0  0  0  0  0  0  0  0  0  0  0
   -4.6420    8.5309   -1.7692 H   0  0  0  0  0  0  0  0  0  0  0  0
   -9.6850    3.9261   -0.4356 H   0  0  0  0  0  0  0  0  0  0  0  0
  -10.5353    3.5494   -1.9724 H   0  0  0  0  0  0  0  0  0  0  0  0
   -8.7604    3.8258   -1.9724 H   0  0  0  0  0  0  0  0  0  0  0  0
  -10.9401    5.6513   -3.6995 H   0  0  0  0  0  0  0  0  0  0  0  0
  -11.9188    4.9684   -2.2816 H   0  0  0  0  0  0  0  0  0  0  0  0
  -11.4953    7.8808   -3.0028 H   0  0  0  0  0  0  0  0  0  0  0  0
  -13.0257    6.9196   -3.0400 H   0  0  0  0  0  0  0  0  0  0  0  0
  -13.1538    6.3238    0.6487 H   0  0  0  0  0  0  0  0  0  0  0  0
  -14.2396    6.3791   -0.7813 H   0  0  0  0  0  0  0  0  0  0  0  0
  -12.8090    5.2928   -0.7813 H   0  0  0  0  0  0  0  0  0  0  0  0
  1  2  1  0
  2  3  1  0
  3  4  1  0
  4  5  1  0
  5  6  1  0
  6  7  1  0
  7  8  1  0
  7  9  1  0
  2 10  1  0
 10 11  1  0
 11 12  1  0
 12 13  1  0
 13 14  1  6
 13 15  1  0
 15 16  1  0
 16 17  1  0
 17 18  2  0
 18 19  1  0
 19 20  1  0
 20 21  1  0
 21 22  1  0
 22 23  1  0
 22 24  1  0
 24 25  1  0
 24 26  1  0
 19 27  1  0
 27 28  1  1
 27 29  1  0
 29 30  1  0
 30 31  1  0
 31 32  1  1
  7  5  1  0
 31 10  1  0
 31 13  1  0
 27 15  1  0
 24 18  1  0
  1 33  1  0
  1 34  1  0
  1 35  1  0
  2 36  1  6
  3 37  1  0
  3 38  1  0
  4 39  1  0
  4 40  1  0
  5 41  1  6
  8 42  1  0
  8 43  1  0
  8 44  1  0
  9 45  1  0
  9 46  1  0
  9 47  1  0
 10 48  1  6
 11 49  1  0
 11 50  1  0
 12 51  1  0
 12 52  1  0
 14 53  1  0
 14 54  1  0
 14 55  1  0
 15 56  1  1
 16 57  1  0
 16 58  1  0
 17 59  1  0
 19 60  1  6
 20 61  1  0
 20 62  1  0
 21 63  1  0
 21 64  1  0
 22 65  1  6
 23 66  1  0
 25 67  1  0
 25 68  1  0
 25 69  1  0
 26 70  1  0
 26 71  1  0
 26 72  1  0
 28 73  1  0
 28 74  1  0
 28 75  1  0
 29 76  1  0
 29 77  1  0
 30 78  1  0
 30 79  1  0
 32 80  1  0
 32 81  1  0
 32 82  1  0
M  END
>  <meeko>  (18) 
{"is_sidechain": [false], "intermolecular_energy": 2.731, "internal_energy": -0.839}

$$$$
