EPH_relaxed_0001_pdb2pqr_Repair_154_r2_0001_out
     RDKit          3D

 82 86  0  0  0  0  0  0  0  0999 V2000
    3.8590   18.0280    0.6320 C   0  0  0  0  0  0  0  0  0  0  0  0
    2.9540   18.4270   -0.5360 C   0  0  2  0  0  0  0  0  0  0  0  0
    2.2040   19.7470   -0.2650 C   0  0  0  0  0  0  0  0  0  0  0  0
    1.1620   19.6440    0.8520 C   0  0  0  0  0  0  0  0  0  0  0  0
   -0.1660   20.1890    0.4230 C   0  0  2  0  0  0  0  0  0  0  0  0
   -1.1700   20.1940    1.4470 O   0  0  0  0  0  0  0  0  0  0  0  0
   -1.4220   19.3440    0.3160 C   0  0  0  0  0  0  0  0  0  0  0  0
   -1.4090   17.8830    0.6390 C   0  0  0  0  0  0  0  0  0  0  0  0
   -2.5350   19.8240   -0.5630 C   0  0  0  0  0  0  0  0  0  0  0  0
    1.9560   17.3120   -0.8260 C   0  0  1  0  0  0  0  0  0  0  0  0
    0.8150   17.7620   -1.7760 C   0  0  0  0  0  0  0  0  0  0  0  0
    0.4570   16.5380   -2.6570 C   0  0  0  0  0  0  0  0  0  0  0  0
    1.1600   15.3440   -1.9710 C   0  0  1  0  0  0  0  0  0  0  0  0
    0.2100   14.9380   -0.8000 C   0  0  0  0  0  0  0  0  0  0  0  0
    1.5020   14.1240   -2.8860 C   0  0  2  0  0  0  0  0  0  0  0  0
    0.2870   13.4190   -3.5150 C   0  0  0  0  0  0  0  0  0  0  0  0
   -0.2860   12.2990   -2.7130 C   0  0  0  0  0  0  0  0  0  0  0  0
    0.3200   11.6880   -1.6780 C   0  0  0  0  0  0  0  0  0  0  0  0
    1.7570   12.0500   -1.2810 C   0  0  1  0  0  0  0  0  0  0  0  0
    2.5750   10.7520   -1.0560 C   0  0  0  0  0  0  0  0  0  0  0  0
    1.9140    9.8090   -0.0560 C   0  0  0  0  0  0  0  0  0  0  0  0
    0.5090    9.4250   -0.5140 C   0  0  2  0  0  0  0  0  0  0  0  0
    0.6130    8.6340   -1.7020 O   0  0  0  0  0  0  0  0  0  0  0  0
   -0.4050   10.6540   -0.7820 C   0  0  0  0  0  0  0  0  0  0  0  0
   -0.7620   11.3390    0.5600 C   0  0  0  0  0  0  0  0  0  0  0  0
   -1.7430   10.1330   -1.3730 C   0  0  0  0  0  0  0  0  0  0  0  0
    2.5000   13.0830   -2.2340 C   0  0  1  0  0  0  0  0  0  0  0  0
    3.1840   12.3230   -3.4110 C   0  0  0  0  0  0  0  0  0  0  0  0
    3.6550   13.7860   -1.4280 C   0  0  0  0  0  0  0  0  0  0  0  0
    3.2800   15.0550   -0.6400 C   0  0  0  0  0  0  0  0  0  0  0  0
    2.4980   16.0360   -1.5190 C   0  0  2  0  0  0  0  0  0  0  0  0
    3.4360   16.4790   -2.6930 C   0  0  0  0  0  0  0  0  0  0  0  0
    3.3516   18.2517    1.5820 H   0  0  0  0  0  0  0  0  0  0  0  0
    4.0756   16.9510    0.5767 H   0  0  0  0  0  0  0  0  0  0  0  0
    4.8002   18.5946    0.5767 H   0  0  0  0  0  0  0  0  0  0  0  0
    3.5982   18.5867   -1.4132 H   0  0  0  0  0  0  0  0  0  0  0  0
    2.9408   20.5136    0.0169 H   0  0  0  0  0  0  0  0  0  0  0  0
    1.6626   20.0046   -1.1872 H   0  0  0  0  0  0  0  0  0  0  0  0
    1.0405   18.5866    1.1298 H   0  0  0  0  0  0  0  0  0  0  0  0
    1.5163   20.2381    1.7073 H   0  0  0  0  0  0  0  0  0  0  0  0
    0.3189   20.8823   -0.2800 H   0  0  0  0  0  0  0  0  0  0  0  0
   -1.4078   17.7489    1.7308 H   0  0  0  0  0  0  0  0  0  0  0  0
   -2.3029   17.4051    0.2118 H   0  0  0  0  0  0  0  0  0  0  0  0
   -0.5067   17.4211    0.2118 H   0  0  0  0  0  0  0  0  0  0  0  0
   -3.3666   20.1827    0.0613 H   0  0  0  0  0  0  0  0  0  0  0  0
   -2.1724   20.6457   -1.1980 H   0  0  0  0  0  0  0  0  0  0  0  0
   -2.8837   18.9963   -1.1980 H   0  0  0  0  0  0  0  0  0  0  0  0
    1.6383   17.0778    0.2007 H   0  0  0  0  0  0  0  0  0  0  0  0
   -0.0620   18.0775   -1.1917 H   0  0  0  0  0  0  0  0  0  0  0  0
    1.1300   18.6151   -2.3948 H   0  0  0  0  0  0  0  0  0  0  0  0
   -0.6319   16.3842   -2.6839 H   0  0  0  0  0  0  0  0  0  0  0  0
    0.7786   16.6674   -3.7010 H   0  0  0  0  0  0  0  0  0  0  0  0
    0.7021   15.1483    0.1611 H   0  0  0  0  0  0  0  0  0  0  0  0
   -0.7236   15.5157   -0.8681 H   0  0  0  0  0  0  0  0  0  0  0  0
   -0.0177   13.8640   -0.8681 H   0  0  0  0  0  0  0  0  0  0  0  0
    2.0376   14.5994   -3.7210 H   0  0  0  0  0  0  0  0  0  0  0  0
   -0.5029   14.1701   -3.6626 H   0  0  0  0  0  0  0  0  0  0  0  0
    0.6477   12.9689   -4.4516 H   0  0  0  0  0  0  0  0  0  0  0  0
   -1.2887   11.9423   -2.9911 H   0  0  0  0  0  0  0  0  0  0  0  0
    1.6800   12.6100   -0.3374 H   0  0  0  0  0  0  0  0  0  0  0  0
    2.6782   10.2292   -2.0183 H   0  0  0  0  0  0  0  0  0  0  0  0
    3.5534   11.0414   -0.6450 H   0  0  0  0  0  0  0  0  0  0  0  0
    2.5237    8.8982    0.0371 H   0  0  0  0  0  0  0  0  0  0  0  0
    1.8389   10.3226    0.9139 H   0  0  0  0  0  0  0  0  0  0  0  0
    0.0385    8.8569    0.3020 H   0  0  0  0  0  0  0  0  0  0  0  0
    0.5110    7.7020   -1.4450 H   0  0  0  0  0  0  0  0  0  0  0  0
   -0.4311   10.7041    1.3951 H   0  0  0  0  0  0  0  0  0  0  0  0
   -0.2578   12.3148    0.6191 H   0  0  0  0  0  0  0  0  0  0  0  0
   -1.8507   11.4847    0.6191 H   0  0  0  0  0  0  0  0  0  0  0  0
   -2.4268    9.8667   -0.5535 H   0  0  0  0  0  0  0  0  0  0  0  0
   -2.2009   10.9185   -1.9921 H   0  0  0  0  0  0  0  0  0  0  0  0
   -1.5492    9.2446   -1.9921 H   0  0  0  0  0  0  0  0  0  0  0  0
    3.8686   11.5623   -3.0077 H   0  0  0  0  0  0  0  0  0  0  0  0
    2.4154   11.8344   -4.0279 H   0  0  0  0  0  0  0  0  0  0  0  0
    3.7506   13.0361   -4.0279 H   0  0  0  0  0  0  0  0  0  0  0  0
    4.0528   13.0539   -0.7098 H   0  0  0  0  0  0  0  0  0  0  0  0
    4.3737   14.1224   -2.1898 H   0  0  0  0  0  0  0  0  0  0  0  0
    2.6596   14.7722    0.2232 H   0  0  0  0  0  0  0  0  0  0  0  0
    4.2057   15.5458   -0.3050 H   0  0  0  0  0  0  0  0  0  0  0  0
    4.3583   16.9146   -2.2811 H   0  0  0  0  0  0  0  0  0  0  0  0
    3.6877   15.6046   -3.3111 H   0  0  0  0  0  0  0  0  0  0  0  0
    2.9206   17.2289   -3.3111 H   0  0  0  0  0  0  0  0  0  0  0  0
  1  2  1  0
  2  3  1  0
  3  4  1  0
  4  5  1  0
  5  6  1  0
  6  7  1  0
  7  8  1  0
  7  9  1  0
  2 10  1  0
 10 11  1  0
 11 12  1  0
 12 13  1  0
 13 14  1  1
 13 15  1  0
 15 16  1  0
 16 17  1  0
 17 18  2  0
 18 19  1  0
 19 20  1  0
 20 21  1  0
 21 22  1  0
 22 23  1  0
 22 24  1  0
 24 25  1  0
 24 26  1  0
 19 27  1  0
 27 28  1  6
 27 29  1  0
 29 30  1  0
 30 31  1  0
 31 32  1  6
  7  5  1  0
 31 10  1  0
 31 13  1  0
 27 15  1  0
 24 18  1  0
  1 33  1  0
  1 34  1  0
  1 35  1  0
  2 36  1  6
  3 37  1  0
  3 38  1  0
  4 39  1  0
  4 40  1  0
  5 41  1  6
  8 42  1  0
  8 43  1  0
  8 44  1  0
  9 45  1  0
  9 46  1  0
  9 47  1  0
 10 48  1  1
 11 49  1  0
 11 50  1  0
 12 51  1  0
 12 52  1  0
 14 53  1  0
 14 54  1  0
 14 55  1  0
 15 56  1  6
 16 57  1  0
 16 58  1  0
 17 59  1  0
 19 60  1  1
 20 61  1  0
 20 62  1  0
 21 63  1  0
 21 64  1  0
 22 65  1  1
 23 66  1  0
 25 67  1  0
 25 68  1  0
 25 69  1  0
 26 70  1  0
 26 71  1  0
 26 72  1  0
 28 73  1  0
 28 74  1  0
 28 75  1  0
 29 76  1  0
 29 77  1  0
 30 78  1  0
 30 79  1  0
 32 80  1  0
 32 81  1  0
 32 82  1  0
M  END
>  <meeko>  (1) 
{"is_sidechain": [false], "intermolecular_energy": 2.731, "internal_energy": -0.839}

$$$$
EPH_relaxed_0001_pdb2pqr_Repair_154_r2_0001_out
     RDKit          3D

 82 86  0  0  0  0  0  0  0  0999 V2000
    4.5210   17.6760   -0.7240 C   0  0  0  0  0  0  0  0  0  0  0  0
    3.1430   18.2640   -0.4040 C   0  0  2  0  0  0  0  0  0  0  0  0
    3.0920   18.8920    1.0040 C   0  0  0  0  0  0  0  0  0  0  0  0
    4.3760   18.6920    1.8130 C   0  0  0  0  0  0  0  0  0  0  0  0
    4.2400   19.2230    3.2080 C   0  0  2  0  0  0  0  0  0  0  0  0
    5.2270   20.1940    3.5790 O   0  0  0  0  0  0  0  0  0  0  0  0
    5.2510   18.9560    4.3080 C   0  0  0  0  0  0  0  0  0  0  0  0
    6.4730   18.1280    4.0600 C   0  0  0  0  0  0  0  0  0  0  0  0
    4.8110   19.0870    5.7320 C   0  0  0  0  0  0  0  0  0  0  0  0
    2.0760   17.1830   -0.5300 C   0  0  1  0  0  0  0  0  0  0  0  0
    0.7430   17.7250   -1.1140 C   0  0  0  0  0  0  0  0  0  0  0  0
    0.1410   16.5920   -1.9830 C   0  0  0  0  0  0  0  0  0  0  0  0
    0.9630   15.3360   -1.6100 C   0  0  1  0  0  0  0  0  0  0  0  0
    0.3300   14.8230   -0.2780 C   0  0  0  0  0  0  0  0  0  0  0  0
    1.0290   14.2070   -2.6900 C   0  0  2  0  0  0  0  0  0  0  0  0
   -0.3240   13.5690   -3.0500 C   0  0  0  0  0  0  0  0  0  0  0  0
   -0.7050   12.3790   -2.2340 C   0  0  0  0  0  0  0  0  0  0  0  0
    0.1270   11.6700   -1.4480 C   0  0  0  0  0  0  0  0  0  0  0  0
    1.6260   11.9900   -1.3980 C   0  0  1  0  0  0  0  0  0  0  0  0
    2.4400   10.6740   -1.5080 C   0  0  0  0  0  0  0  0  0  0  0  0
    2.0280    9.6420   -0.4630 C   0  0  0  0  0  0  0  0  0  0  0  0
    0.5440    9.3070   -0.5820 C   0  0  2  0  0  0  0  0  0  0  0  0
    0.3220    8.6320   -1.8240 O   0  0  0  0  0  0  0  0  0  0  0  0
   -0.3750   10.5580   -0.4950 C   0  0  0  0  0  0  0  0  0  0  0  0
   -0.3630   11.1130    0.9500 C   0  0  0  0  0  0  0  0  0  0  0  0
   -1.8330   10.0990   -0.7710 C   0  0  0  0  0  0  0  0  0  0  0  0
    2.1310   13.1060   -2.4100 C   0  0  1  0  0  0  0  0  0  0  0  0
    2.4750   12.4600   -3.7870 C   0  0  0  0  0  0  0  0  0  0  0  0
    3.4720   13.7270   -1.8640 C   0  0  0  0  0  0  0  0  0  0  0  0
    3.3420   14.9160   -0.8940 C   0  0  0  0  0  0  0  0  0  0  0  0
    2.3900   15.9780   -1.4520 C   0  0  2  0  0  0  0  0  0  0  0  0
    3.0120   16.5280   -2.7800 C   0  0  0  0  0  0  0  0  0  0  0  0
    5.0500   17.4503    0.2136 H   0  0  0  0  0  0  0  0  0  0  0  0
    4.3987   16.7517   -1.3077 H   0  0  0  0  0  0  0  0  0  0  0  0
    5.1037   18.4039   -1.3077 H   0  0  0  0  0  0  0  0  0  0  0  0
    2.9484   19.0665   -1.1308 H   0  0  0  0  0  0  0  0  0  0  0  0
    2.9139   19.9721    0.8964 H   0  0  0  0  0  0  0  0  0  0  0  0
    2.2838   18.3864    1.5528 H   0  0  0  0  0  0  0  0  0  0  0  0
    4.6032   17.6168    1.8613 H   0  0  0  0  0  0  0  0  0  0  0  0
    5.1859   19.2437    1.3133 H   0  0  0  0  0  0  0  0  0  0  0  0
    3.1464   19.1116    3.1680 H   0  0  0  0  0  0  0  0  0  0  0  0
    6.9146   17.8288    5.0220 H   0  0  0  0  0  0  0  0  0  0  0  0
    6.1974   17.2298    3.4879 H   0  0  0  0  0  0  0  0  0  0  0  0
    7.2050   18.7169    3.4879 H   0  0  0  0  0  0  0  0  0  0  0  0
    5.6492   18.8374    6.3992 H   0  0  0  0  0  0  0  0  0  0  0  0
    4.4864   20.1207    5.9219 H   0  0  0  0  0  0  0  0  0  0  0  0
    3.9739   18.3991    5.9219 H   0  0  0  0  0  0  0  0  0  0  0  0
    2.0237   16.8521    0.5178 H   0  0  0  0  0  0  0  0  0  0  0  0
    0.0511   17.9858   -0.2996 H   0  0  0  0  0  0  0  0  0  0  0  0
    0.9142   18.6323   -1.7120 H   0  0  0  0  0  0  0  0  0  0  0  0
   -0.9230   16.4443   -1.7460 H   0  0  0  0  0  0  0  0  0  0  0  0
    0.1910   16.8193   -3.0581 H   0  0  0  0  0  0  0  0  0  0  0  0
    0.8687   15.2596    0.5760 H   0  0  0  0  0  0  0  0  0  0  0  0
   -0.7278   15.1218   -0.2358 H   0  0  0  0  0  0  0  0  0  0  0  0
    0.4032   13.7262   -0.2358 H   0  0  0  0  0  0  0  0  0  0  0  0
    1.3482   14.7571   -3.5875 H   0  0  0  0  0  0  0  0  0  0  0  0
   -1.1049   14.3331   -2.9219 H   0  0  0  0  0  0  0  0  0  0  0  0
   -0.2250   13.2093   -4.0848 H   0  0  0  0  0  0  0  0  0  0  0  0
   -1.7548   12.0535   -2.2785 H   0  0  0  0  0  0  0  0  0  0  0  0
    1.8044   12.4588   -0.4190 H   0  0  0  0  0  0  0  0  0  0  0  0
    2.2828   10.2448   -2.5085 H   0  0  0  0  0  0  0  0  0  0  0  0
    3.4979   10.9204   -1.3347 H   0  0  0  0  0  0  0  0  0  0  0  0
    2.6170    8.7249   -0.6112 H   0  0  0  0  0  0  0  0  0  0  0  0
    2.2139   10.0615    0.5367 H   0  0  0  0  0  0  0  0  0  0  0  0
    0.2810    8.6647    0.2714 H   0  0  0  0  0  0  0  0  0  0  0  0
   -0.6380    8.6030   -1.9750 H   0  0  0  0  0  0  0  0  0  0  0  0
   -0.3811   10.2766    1.6642 H   0  0  0  0  0  0  0  0  0  0  0  0
    0.5482   11.7090    1.1063 H   0  0  0  0  0  0  0  0  0  0  0  0
   -1.2476   11.7478    1.1063 H   0  0  0  0  0  0  0  0  0  0  0  0
   -2.3530    9.9353    0.1844 H   0  0  0  0  0  0  0  0  0  0  0  0
   -2.3590   10.8750   -1.3464 H   0  0  0  0  0  0  0  0  0  0  0  0
   -1.8196    9.1616   -1.3464 H   0  0  0  0  0  0  0  0  0  0  0  0
    2.9863   11.4998   -3.6240 H   0  0  0  0  0  0  0  0  0  0  0  0
    1.5479   12.2901   -4.3541 H   0  0  0  0  0  0  0  0  0  0  0  0
    3.1334   13.1344   -4.3541 H   0  0  0  0  0  0  0  0  0  0  0  0
    4.0195   12.9291   -1.3409 H   0  0  0  0  0  0  0  0  0  0  0  0
    3.9830   14.1325   -2.7497 H   0  0  0  0  0  0  0  0  0  0  0  0
    2.9523   14.5538    0.0688 H   0  0  0  0  0  0  0  0  0  0  0  0
    4.3350   15.3704   -0.7615 H   0  0  0  0  0  0  0  0  0  0  0  0
    3.8164   17.2393   -2.5411 H   0  0  0  0  0  0  0  0  0  0  0  0
    3.4232   15.6927   -3.3658 H   0  0  0  0  0  0  0  0  0  0  0  0
    2.2333   17.0383   -3.3658 H   0  0  0  0  0  0  0  0  0  0  0  0
  1  2  1  0
  2  3  1  0
  3  4  1  0
  4  5  1  0
  5  6  1  0
  6  7  1  0
  7  8  1  0
  7  9  1  0
  2 10  1  0
 10 11  1  0
 11 12  1  0
 12 13  1  0
 13 14  1  1
 13 15  1  0
 15 16  1  0
 16 17  1  0
 17 18  2  0
 18 19  1  0
 19 20  1  0
 20 21  1  0
 21 22  1  0
 22 23  1  0
 22 24  1  0
 24 25  1  0
 24 26  1  0
 19 27  1  0
 27 28  1  6
 27 29  1  0
 29 30  1  0
 30 31  1  0
 31 32  1  6
  7  5  1  0
 31 10  1  0
 31 13  1  0
 27 15  1  0
 24 18  1  0
  1 33  1  0
  1 34  1  0
  1 35  1  0
  2 36  1  6
  3 37  1  0
  3 38  1  0
  4 39  1  0
  4 40  1  0
  5 41  1  1
  8 42  1  0
  8 43  1  0
  8 44  1  0
  9 45  1  0
  9 46  1  0
  9 47  1  0
 10 48  1  1
 11 49  1  0
 11 50  1  0
 12 51  1  0
 12 52  1  0
 14 53  1  0
 14 54  1  0
 14 55  1  0
 15 56  1  6
 16 57  1  0
 16 58  1  0
 17 59  1  0
 19 60  1  1
 20 61  1  0
 20 62  1  0
 21 63  1  0
 21 64  1  0
 22 65  1  1
 23 66  1  0
 25 67  1  0
 25 68  1  0
 25 69  1  0
 26 70  1  0
 26 71  1  0
 26 72  1  0
 28 73  1  0
 28 74  1  0
 28 75  1  0
 29 76  1  0
 29 77  1  0
 30 78  1  0
 30 79  1  0
 32 80  1  0
 32 81  1  0
 32 82  1  0
M  END
>  <meeko>  (2) 
{"is_sidechain": [false], "intermolecular_energy": 2.731, "internal_energy": -0.839}

$$$$
EPH_relaxed_0001_pdb2pqr_Repair_154_r2_0001_out
     RDKit          3D

 82 86  0  0  0  0  0  0  0  0999 V2000
    2.3600   18.1870   -2.2050 C   0  0  0  0  0  0  0  0  0  0  0  0
    1.8320   17.3640   -1.0260 C   0  0  2  0  0  0  0  0  0  0  0  0
    2.9620   16.9170   -0.0780 C   0  0  0  0  0  0  0  0  0  0  0  0
    3.9530   18.0320    0.2680 C   0  0  0  0  0  0  0  0  0  0  0  0
    3.6480   18.6520    1.5980 C   0  0  2  0  0  0  0  0  0  0  0  0
    4.0000   20.0370    1.7070 O   0  0  0  0  0  0  0  0  0  0  0  0
    4.7170   19.1320    2.5620 C   0  0  0  0  0  0  0  0  0  0  0  0
    6.1720   19.0110    2.2370 C   0  0  0  0  0  0  0  0  0  0  0  0
    4.3650   19.2650    4.0110 C   0  0  0  0  0  0  0  0  0  0  0  0
    1.0720   16.1470   -1.5410 C   0  0  1  0  0  0  0  0  0  0  0  0
    0.5580   16.3350   -2.9930 C   0  0  0  0  0  0  0  0  0  0  0  0
    0.6420   14.9480   -3.6810 C   0  0  0  0  0  0  0  0  0  0  0  0
    0.8820   13.9520   -2.5220 C   0  0  1  0  0  0  0  0  0  0  0  0
   -0.5320   13.7030   -1.9080 C   0  0  0  0  0  0  0  0  0  0  0  0
    1.5920   12.6120   -2.8980 C   0  0  2  0  0  0  0  0  0  0  0  0
    0.8220   11.7210   -3.8880 C   0  0  0  0  0  0  0  0  0  0  0  0
   -0.1040   10.7290   -3.2660 C   0  0  0  0  0  0  0  0  0  0  0  0
   -0.1020   10.3620   -1.9710 C   0  0  0  0  0  0  0  0  0  0  0  0
    0.9650   10.8910   -1.0040 C   0  0  1  0  0  0  0  0  0  0  0  0
    1.5290    9.7170   -0.1620 C   0  0  0  0  0  0  0  0  0  0  0  0
    0.4340    8.9300    0.5510 C   0  0  0  0  0  0  0  0  0  0  0  0
   -0.5760    8.3710   -0.4480 C   0  0  2  0  0  0  0  0  0  0  0  0
    0.0730    7.3850   -1.2560 O   0  0  0  0  0  0  0  0  0  0  0  0
   -1.2040    9.4620   -1.3590 C   0  0  0  0  0  0  0  0  0  0  0  0
   -2.1530   10.3560   -0.5230 C   0  0  0  0  0  0  0  0  0  0  0  0
   -2.0950    8.7500   -2.4120 C   0  0  0  0  0  0  0  0  0  0  0  0
    2.1100   11.7810   -1.6550 C   0  0  1  0  0  0  0  0  0  0  0  0
    3.2610   10.8670   -2.1780 C   0  0  0  0  0  0  0  0  0  0  0  0
    2.7420   12.6990   -0.5430 C   0  0  0  0  0  0  0  0  0  0  0  0
    2.0660   14.0620   -0.3010 C   0  0  0  0  0  0  0  0  0  0  0  0
    1.8450   14.8070   -1.6200 C   0  0  2  0  0  0  0  0  0  0  0  0
    3.2510   15.0920   -2.2500 C   0  0  0  0  0  0  0  0  0  0  0  0
    2.9174   19.0559   -1.8252 H   0  0  0  0  0  0  0  0  0  0  0  0
    3.0268   17.5631   -2.8183 H   0  0  0  0  0  0  0  0  0  0  0  0
    1.5149   18.5331   -2.8183 H   0  0  0  0  0  0  0  0  0  0  0  0
    1.1534   18.0095   -0.4491 H   0  0  0  0  0  0  0  0  0  0  0  0
    2.5083   16.5536    0.8559 H   0  0  0  0  0  0  0  0  0  0  0  0
    3.5297   16.1337   -0.6017 H   0  0  0  0  0  0  0  0  0  0  0  0
    4.9686   17.6103    0.2958 H   0  0  0  0  0  0  0  0  0  0  0  0
    3.8717   18.8139   -0.5014 H   0  0  0  0  0  0  0  0  0  0  0  0
    2.7759   17.9950    1.7311 H   0  0  0  0  0  0  0  0  0  0  0  0
    6.7532   18.9627    3.1696 H   0  0  0  0  0  0  0  0  0  0  0  0
    6.3420   18.0956    1.6512 H   0  0  0  0  0  0  0  0  0  0  0  0
    6.4908   19.8857    1.6512 H   0  0  0  0  0  0  0  0  0  0  0  0
    5.2178   18.9428    4.6266 H   0  0  0  0  0  0  0  0  0  0  0  0
    4.1267   20.3151    4.2356 H   0  0  0  0  0  0  0  0  0  0  0  0
    3.4918   18.6348    4.2356 H   0  0  0  0  0  0  0  0  0  0  0  0
    0.2853   16.0828   -0.7749 H   0  0  0  0  0  0  0  0  0  0  0  0
   -0.4829   16.6904   -2.9832 H   0  0  0  0  0  0  0  0  0  0  0  0
    1.1615   17.0802   -3.5320 H   0  0  0  0  0  0  0  0  0  0  0  0
   -0.2976   14.7163   -4.2040 H   0  0  0  0  0  0  0  0  0  0  0  0
    1.4379   14.9057   -4.4392 H   0  0  0  0  0  0  0  0  0  0  0  0
   -0.4624   13.7153   -0.8103 H   0  0  0  0  0  0  0  0  0  0  0  0
   -1.2206   14.4937   -2.2406 H   0  0  0  0  0  0  0  0  0  0  0  0
   -0.9091   12.7246   -2.2406 H   0  0  0  0  0  0  0  0  0  0  0  0
    2.4824   12.9619   -3.4409 H   0  0  0  0  0  0  0  0  0  0  0  0
    0.2286   12.3753   -4.5435 H   0  0  0  0  0  0  0  0  0  0  0  0
    1.5823   11.1334   -4.4234 H   0  0  0  0  0  0  0  0  0  0  0  0
   -0.8513   10.2580   -3.9215 H   0  0  0  0  0  0  0  0  0  0  0  0
    0.4512   11.6078   -0.3466 H   0  0  0  0  0  0  0  0  0  0  0  0
    2.0758    9.0349   -0.8297 H   0  0  0  0  0  0  0  0  0  0  0  0
    2.1883   10.1446    0.6078 H   0  0  0  0  0  0  0  0  0  0  0  0
    0.8919    8.0968    1.1042 H   0  0  0  0  0  0  0  0  0  0  0  0
   -0.0922    9.6068    1.2402 H   0  0  0  0  0  0  0  0  0  0  0  0
   -1.4024    7.9306    0.1292 H   0  0  0  0  0  0  0  0  0  0  0  0
   -0.6160    6.8050   -1.6220 H   0  0  0  0  0  0  0  0  0  0  0  0
   -1.9702   10.1838    0.5479 H   0  0  0  0  0  0  0  0  0  0  0  0
   -1.9655   11.4133   -0.7616 H   0  0  0  0  0  0  0  0  0  0  0  0
   -3.1973   10.1058   -0.7616 H   0  0  0  0  0  0  0  0  0  0  0  0
   -2.8550    8.1426   -1.8987 H   0  0  0  0  0  0  0  0  0  0  0  0
   -2.5914    9.5030   -3.0417 H   0  0  0  0  0  0  0  0  0  0  0  0
   -1.4700    8.0998   -3.0417 H   0  0  0  0  0  0  0  0  0  0  0  0
    3.8038   10.4360   -1.3238 H   0  0  0  0  0  0  0  0  0  0  0  0
    2.8369   10.0569   -2.7895 H   0  0  0  0  0  0  0  0  0  0  0  0
    3.9539   11.4636   -2.7895 H   0  0  0  0  0  0  0  0  0  0  0  0
    2.7145   12.1410    0.4045 H   0  0  0  0  0  0  0  0  0  0  0  0
    3.7518   12.9390   -0.9073 H   0  0  0  0  0  0  0  0  0  0  0  0
    1.0939   13.8997    0.1876 H   0  0  0  0  0  0  0  0  0  0  0  0
    2.7224   14.6699    0.3390 H   0  0  0  0  0  0  0  0  0  0  0  0
    3.9887   15.2415   -1.4479 H   0  0  0  0  0  0  0  0  0  0  0  0
    3.5541   14.2370   -2.8722 H   0  0  0  0  0  0  0  0  0  0  0  0
    3.1973   15.9975   -2.8722 H   0  0  0  0  0  0  0  0  0  0  0  0
  1  2  1  0
  2  3  1  0
  3  4  1  0
  4  5  1  0
  5  6  1  0
  6  7  1  0
  7  8  1  0
  7  9  1  0
  2 10  1  0
 10 11  1  0
 11 12  1  0
 12 13  1  0
 13 14  1  1
 13 15  1  0
 15 16  1  0
 16 17  1  0
 17 18  2  0
 18 19  1  0
 19 20  1  0
 20 21  1  0
 21 22  1  0
 22 23  1  0
 22 24  1  0
 24 25  1  0
 24 26  1  0
 19 27  1  0
 27 28  1  6
 27 29  1  0
 29 30  1  0
 30 31  1  0
 31 32  1  6
  7  5  1  0
 31 10  1  0
 31 13  1  0
 27 15  1  0
 24 18  1  0
  1 33  1  0
  1 34  1  0
  1 35  1  0
  2 36  1  1
  3 37  1  0
  3 38  1  0
  4 39  1  0
  4 40  1  0
  5 41  1  1
  8 42  1  0
  8 43  1  0
  8 44  1  0
  9 45  1  0
  9 46  1  0
  9 47  1  0
 10 48  1  1
 11 49  1  0
 11 50  1  0
 12 51  1  0
 12 52  1  0
 14 53  1  0
 14 54  1  0
 14 55  1  0
 15 56  1  6
 16 57  1  0
 16 58  1  0
 17 59  1  0
 19 60  1  1
 20 61  1  0
 20 62  1  0
 21 63  1  0
 21 64  1  0
 22 65  1  1
 23 66  1  0
 25 67  1  0
 25 68  1  0
 25 69  1  0
 26 70  1  0
 26 71  1  0
 26 72  1  0
 28 73  1  0
 28 74  1  0
 28 75  1  0
 29 76  1  0
 29 77  1  0
 30 78  1  0
 30 79  1  0
 32 80  1  0
 32 81  1  0
 32 82  1  0
M  END
>  <meeko>  (3) 
{"is_sidechain": [false], "intermolecular_energy": 2.731, "internal_energy": -0.839}

$$$$
EPH_relaxed_0001_pdb2pqr_Repair_154_r2_0001_out
     RDKit          3D

 82 86  0  0  0  0  0  0  0  0999 V2000
   -1.6170    8.7090   -1.8820 C   0  0  0  0  0  0  0  0  0  0  0  0
   -2.0310    9.1780   -0.4840 C   0  0  2  0  0  0  0  0  0  0  0  0
   -3.5390    9.4860   -0.3980 C   0  0  0  0  0  0  0  0  0  0  0  0
   -4.4170    8.2360   -0.2930 C   0  0  0  0  0  0  0  0  0  0  0  0
   -5.1320    7.9510   -1.5790 C   0  0  2  0  0  0  0  0  0  0  0  0
   -6.3310    8.7110   -1.7790 O   0  0  0  0  0  0  0  0  0  0  0  0
   -6.4960    7.2900   -1.6500 C   0  0  0  0  0  0  0  0  0  0  0  0
   -7.2250    6.8720   -0.4110 C   0  0  0  0  0  0  0  0  0  0  0  0
   -6.8970    6.6110   -2.9220 C   0  0  0  0  0  0  0  0  0  0  0  0
   -1.2250   10.4100   -0.0900 C   0  0  1  0  0  0  0  0  0  0  0  0
   -0.2710   10.1430    1.1050 C   0  0  0  0  0  0  0  0  0  0  0  0
    1.0010   10.9940    0.8610 C   0  0  0  0  0  0  0  0  0  0  0  0
    0.6090   11.9650   -0.2770 C   0  0  1  0  0  0  0  0  0  0  0  0
   -0.1760   13.1150    0.4300 C   0  0  0  0  0  0  0  0  0  0  0  0
    1.7830   12.5190   -1.1480 C   0  0  2  0  0  0  0  0  0  0  0  0
    2.8160   13.3690   -0.3870 C   0  0  0  0  0  0  0  0  0  0  0  0
    2.5290   14.8340   -0.3440 C   0  0  0  0  0  0  0  0  0  0  0  0
    1.6470   15.4810   -1.1270 C   0  0  0  0  0  0  0  0  0  0  0  0
    0.8960   14.7450   -2.2440 C   0  0  1  0  0  0  0  0  0  0  0  0
    0.9450   15.5890   -3.5450 C   0  0  0  0  0  0  0  0  0  0  0  0
    0.4340   17.0120   -3.3380 C   0  0  0  0  0  0  0  0  0  0  0  0
    1.2420   17.7300   -2.2610 C   0  0  2  0  0  0  0  0  0  0  0  0
    2.5780   17.9200   -2.7370 O   0  0  0  0  0  0  0  0  0  0  0  0
    1.2730   16.9680   -0.9070 C   0  0  0  0  0  0  0  0  0  0  0  0
   -0.1260   17.0250   -0.2460 C   0  0  0  0  0  0  0  0  0  0  0  0
    2.2350   17.7270    0.0460 C   0  0  0  0  0  0  0  0  0  0  0  0
    1.3200   13.2310   -2.4830 C   0  0  1  0  0  0  0  0  0  0  0  0
    2.5290   13.1660   -3.4650 C   0  0  0  0  0  0  0  0  0  0  0  0
    0.1340   12.4710   -3.1860 C   0  0  0  0  0  0  0  0  0  0  0  0
   -0.9310   11.8430   -2.2670 C   0  0  0  0  0  0  0  0  0  0  0  0
   -0.2770   11.0120   -1.1580 C   0  0  2  0  0  0  0  0  0  0  0  0
    0.5020    9.8350   -1.8380 C   0  0  0  0  0  0  0  0  0  0  0  0
   -0.8914    7.8870   -1.7931 H   0  0  0  0  0  0  0  0  0  0  0  0
   -2.5045    8.3572   -2.4285 H   0  0  0  0  0  0  0  0  0  0  0  0
   -1.1578    9.5459   -2.4285 H   0  0  0  0  0  0  0  0  0  0  0  0
   -1.8214    8.3563    0.2166 H   0  0  0  0  0  0  0  0  0  0  0  0
   -3.7159   10.1104    0.4902 H   0  0  0  0  0  0  0  0  0  0  0  0
   -3.8168    9.9967   -1.3318 H   0  0  0  0  0  0  0  0  0  0  0  0
   -3.7817    7.3744   -0.0398 H   0  0  0  0  0  0  0  0  0  0  0  0
   -5.1720    8.4119    0.4874 H   0  0  0  0  0  0  0  0  0  0  0  0
   -4.1804    7.7357   -2.0870 H   0  0  0  0  0  0  0  0  0  0  0  0
   -6.6590    7.1966    0.4746 H   0  0  0  0  0  0  0  0  0  0  0  0
   -8.2226    7.3353   -0.3986 H   0  0  0  0  0  0  0  0  0  0  0  0
   -7.3291    5.7770   -0.3986 H   0  0  0  0  0  0  0  0  0  0  0  0
   -7.4435    5.6857   -2.6872 H   0  0  0  0  0  0  0  0  0  0  0  0
   -7.5445    7.2809   -3.5069 H   0  0  0  0  0  0  0  0  0  0  0  0
   -5.9978    6.3674   -3.5069 H   0  0  0  0  0  0  0  0  0  0  0  0
   -2.0483   11.1087    0.1199 H   0  0  0  0  0  0  0  0  0  0  0  0
   -0.7520   10.4426    2.0478 H   0  0  0  0  0  0  0  0  0  0  0  0
   -0.0224    9.0741    1.1805 H   0  0  0  0  0  0  0  0  0  0  0  0
    1.2757   11.5508    1.7690 H   0  0  0  0  0  0  0  0  0  0  0  0
    1.8725   10.3757    0.5999 H   0  0  0  0  0  0  0  0  0  0  0  0
   -0.0956   12.9972    1.5207 H   0  0  0  0  0  0  0  0  0  0  0  0
    0.2491   14.0853    0.1336 H   0  0  0  0  0  0  0  0  0  0  0  0
   -1.2345   13.0726    0.1336 H   0  0  0  0  0  0  0  0  0  0  0  0
    2.3111   11.6002   -1.4428 H   0  0  0  0  0  0  0  0  0  0  0  0
    2.8622   13.0011    0.6486 H   0  0  0  0  0  0  0  0  0  0  0  0
    3.7632   13.2603   -0.9357 H   0  0  0  0  0  0  0  0  0  0  0  0
    3.0860   15.4348    0.3900 H   0  0  0  0  0  0  0  0  0  0  0  0
   -0.1444   14.6503   -1.8997 H   0  0  0  0  0  0  0  0  0  0  0  0
    1.9864   15.6357   -3.8962 H   0  0  0  0  0  0  0  0  0  0  0  0
    0.2906   15.1030   -4.2836 H   0  0  0  0  0  0  0  0  0  0  0  0
    0.5213   17.5671   -4.2837 H   0  0  0  0  0  0  0  0  0  0  0  0
   -0.6166   16.9645   -3.0157 H   0  0  0  0  0  0  0  0  0  0  0  0
    0.7485   18.6937   -2.0665 H   0  0  0  0  0  0  0  0  0  0  0  0
    2.6300   18.8110   -3.1220 H   0  0  0  0  0  0  0  0  0  0  0  0
   -0.0149   17.0205    0.8484 H   0  0  0  0  0  0  0  0  0  0  0  0
   -0.6419   17.9449   -0.5584 H   0  0  0  0  0  0  0  0  0  0  0  0
   -0.7151   16.1501   -0.5584 H   0  0  0  0  0  0  0  0  0  0  0  0
    1.9624   17.5119    1.0898 H   0  0  0  0  0  0  0  0  0  0  0  0
    3.2685   17.3984   -0.1382 H   0  0  0  0  0  0  0  0  0  0  0  0
    2.1558   18.8086   -0.1382 H   0  0  0  0  0  0  0  0  0  0  0  0
    3.4657   13.1156   -2.8905 H   0  0  0  0  0  0  0  0  0  0  0  0
    2.4390   12.2714   -4.0987 H   0  0  0  0  0  0  0  0  0  0  0  0
    2.5354   14.0651   -4.0987 H   0  0  0  0  0  0  0  0  0  0  0  0
   -0.3766   13.1885   -3.8451 H   0  0  0  0  0  0  0  0  0  0  0  0
    0.6035   11.6219   -3.7042 H   0  0  0  0  0  0  0  0  0  0  0  0
   -1.5302   12.6445   -1.8103 H   0  0  0  0  0  0  0  0  0  0  0  0
   -1.5695   11.1815   -2.8709 H   0  0  0  0  0  0  0  0  0  0  0  0
    0.9327    9.1842   -1.0628 H   0  0  0  0  0  0  0  0  0  0  0  0
   -0.1889    9.2515   -2.4643 H   0  0  0  0  0  0  0  0  0  0  0  0
    1.3091   10.2429   -2.4643 H   0  0  0  0  0  0  0  0  0  0  0  0
  1  2  1  0
  2  3  1  0
  3  4  1  0
  4  5  1  0
  5  6  1  0
  6  7  1  0
  7  8  1  0
  7  9  1  0
  2 10  1  0
 10 11  1  0
 11 12  1  0
 12 13  1  0
 13 14  1  1
 13 15  1  0
 15 16  1  0
 16 17  1  0
 17 18  2  0
 18 19  1  0
 19 20  1  0
 20 21  1  0
 21 22  1  0
 22 23  1  0
 22 24  1  0
 24 25  1  0
 24 26  1  0
 19 27  1  0
 27 28  1  6
 27 29  1  0
 29 30  1  0
 30 31  1  0
 31 32  1  6
  7  5  1  0
 31 10  1  0
 31 13  1  0
 27 15  1  0
 24 18  1  0
  1 33  1  0
  1 34  1  0
  1 35  1  0
  2 36  1  1
  3 37  1  0
  3 38  1  0
  4 39  1  0
  4 40  1  0
  5 41  1  6
  8 42  1  0
  8 43  1  0
  8 44  1  0
  9 45  1  0
  9 46  1  0
  9 47  1  0
 10 48  1  1
 11 49  1  0
 11 50  1  0
 12 51  1  0
 12 52  1  0
 14 53  1  0
 14 54  1  0
 14 55  1  0
 15 56  1  6
 16 57  1  0
 16 58  1  0
 17 59  1  0
 19 60  1  1
 20 61  1  0
 20 62  1  0
 21 63  1  0
 21 64  1  0
 22 65  1  1
 23 66  1  0
 25 67  1  0
 25 68  1  0
 25 69  1  0
 26 70  1  0
 26 71  1  0
 26 72  1  0
 28 73  1  0
 28 74  1  0
 28 75  1  0
 29 76  1  0
 29 77  1  0
 30 78  1  0
 30 79  1  0
 32 80  1  0
 32 81  1  0
 32 82  1  0
M  END
>  <meeko>  (4) 
{"is_sidechain": [false], "intermolecular_energy": 2.731, "internal_energy": -0.839}

$$$$
EPH_relaxed_0001_pdb2pqr_Repair_154_r2_0001_out
     RDKit          3D

 82 86  0  0  0  0  0  0  0  0999 V2000
   -0.7660    7.9040   -0.4770 C   0  0  0  0  0  0  0  0  0  0  0  0
   -1.1880    9.2770    0.0530 C   0  0  2  0  0  0  0  0  0  0  0  0
   -2.4350    9.8210   -0.6730 C   0  0  0  0  0  0  0  0  0  0  0  0
   -3.7570    9.3130   -0.0900 C   0  0  0  0  0  0  0  0  0  0  0  0
   -4.0930    7.9420   -0.5910 C   0  0  2  0  0  0  0  0  0  0  0  0
   -4.1980    7.8340   -2.0160 O   0  0  0  0  0  0  0  0  0  0  0  0
   -5.4040    7.5980   -1.2730 C   0  0  0  0  0  0  0  0  0  0  0  0
   -6.4650    8.6320   -1.4900 C   0  0  0  0  0  0  0  0  0  0  0  0
   -5.8510    6.1700   -1.2860 C   0  0  0  0  0  0  0  0  0  0  0  0
   -0.0340   10.2640   -0.0830 C   0  0  1  0  0  0  0  0  0  0  0  0
    1.3540    9.5720   -0.0280 C   0  0  0  0  0  0  0  0  0  0  0  0
    2.2840   10.3560   -0.9880 C   0  0  0  0  0  0  0  0  0  0  0  0
    1.5090   11.6560   -1.3060 C   0  0  1  0  0  0  0  0  0  0  0  0
    1.7740   12.5900   -0.0840 C   0  0  0  0  0  0  0  0  0  0  0  0
    1.8620   12.3590   -2.6570 C   0  0  2  0  0  0  0  0  0  0  0  0
    3.3150   12.8540   -2.7750 C   0  0  0  0  0  0  0  0  0  0  0  0
    3.5520   14.2520   -2.3090 C   0  0  0  0  0  0  0  0  0  0  0  0
    2.5970   15.1740   -2.0830 C   0  0  0  0  0  0  0  0  0  0  0  0
    1.1240   14.8740   -2.3910 C   0  0  1  0  0  0  0  0  0  0  0  0
    0.5030   16.0700   -3.1590 C   0  0  0  0  0  0  0  0  0  0  0  0
    0.6870   17.3960   -2.4270 C   0  0  0  0  0  0  0  0  0  0  0  0
    2.1670   17.6860   -2.1910 C   0  0  2  0  0  0  0  0  0  0  0  0
    2.8010   17.9100   -3.4540 O   0  0  0  0  0  0  0  0  0  0  0  0
    2.9020   16.5460   -1.4330 C   0  0  0  0  0  0  0  0  0  0  0  0
    2.4200   16.5040    0.0390 C   0  0  0  0  0  0  0  0  0  0  0  0
    4.4130   16.9010   -1.3840 C   0  0  0  0  0  0  0  0  0  0  0  0
    0.8330   13.4790   -3.0940 C   0  0  1  0  0  0  0  0  0  0  0  0
    0.9650   13.6250   -4.6410 C   0  0  0  0  0  0  0  0  0  0  0  0
   -0.6590   13.0630   -2.8130 C   0  0  0  0  0  0  0  0  0  0  0  0
   -0.9270   12.2670   -1.5210 C   0  0  0  0  0  0  0  0  0  0  0  0
    0.0450   11.0900   -1.3920 C   0  0  2  0  0  0  0  0  0  0  0  0
   -0.2140   10.1210   -2.5960 C   0  0  0  0  0  0  0  0  0  0  0  0
   -0.5595    7.2320    0.3690 H   0  0  0  0  0  0  0  0  0  0  0  0
   -1.5762    7.4829   -1.0904 H   0  0  0  0  0  0  0  0  0  0  0  0
    0.1408    8.0106   -1.0904 H   0  0  0  0  0  0  0  0  0  0  0  0
   -1.4503    9.1559    1.1144 H   0  0  0  0  0  0  0  0  0  0  0  0
   -2.4248   10.9189   -0.6056 H   0  0  0  0  0  0  0  0  0  0  0  0
   -2.3835    9.4639   -1.7122 H   0  0  0  0  0  0  0  0  0  0  0  0
   -3.6743    9.2815    1.0064 H   0  0  0  0  0  0  0  0  0  0  0  0
   -4.5570    9.9989   -0.4055 H   0  0  0  0  0  0  0  0  0  0  0  0
   -3.5538    7.4782    0.2481 H   0  0  0  0  0  0  0  0  0  0  0  0
   -6.8325    8.9901   -0.5170 H   0  0  0  0  0  0  0  0  0  0  0  0
   -6.0442    9.4760   -2.0562 H   0  0  0  0  0  0  0  0  0  0  0  0
   -7.2978    8.1895   -2.0562 H   0  0  0  0  0  0  0  0  0  0  0  0
   -5.9632    5.8115   -0.2521 H   0  0  0  0  0  0  0  0  0  0  0  0
   -6.8163    6.0927   -1.8077 H   0  0  0  0  0  0  0  0  0  0  0  0
   -5.1021    5.5561   -1.8077 H   0  0  0  0  0  0  0  0  0  0  0  0
   -0.2565   10.9256    0.7671 H   0  0  0  0  0  0  0  0  0  0  0  0
    1.7531    9.6048    0.9965 H   0  0  0  0  0  0  0  0  0  0  0  0
    1.2802    8.5156   -0.3255 H   0  0  0  0  0  0  0  0  0  0  0  0
    3.2426   10.5849   -0.4994 H   0  0  0  0  0  0  0  0  0  0  0  0
    2.5269    9.7825   -1.8947 H   0  0  0  0  0  0  0  0  0  0  0  0
    1.6146   12.0282    0.8482 H   0  0  0  0  0  0  0  0  0  0  0  0
    2.8111   12.9549   -0.1195 H   0  0  0  0  0  0  0  0  0  0  0  0
    1.0830   13.4452   -0.1195 H   0  0  0  0  0  0  0  0  0  0  0  0
    1.7660   11.5373   -3.3820 H   0  0  0  0  0  0  0  0  0  0  0  0
    3.9518   12.1843   -2.1784 H   0  0  0  0  0  0  0  0  0  0  0  0
    3.5527   12.8468   -3.8490 H   0  0  0  0  0  0  0  0  0  0  0  0
    4.5952   14.5548   -2.1355 H   0  0  0  0  0  0  0  0  0  0  0  0
    0.6264   14.7568   -1.4170 H   0  0  0  0  0  0  0  0  0  0  0  0
    0.9834   16.1427   -4.1459 H   0  0  0  0  0  0  0  0  0  0  0  0
   -0.5777   15.8848   -3.2467 H   0  0  0  0  0  0  0  0  0  0  0  0
    0.2534   18.2053   -3.0329 H   0  0  0  0  0  0  0  0  0  0  0  0
    0.1810   17.3330   -1.4523 H   0  0  0  0  0  0  0  0  0  0  0  0
    2.2292   18.5788   -1.5515 H   0  0  0  0  0  0  0  0  0  0  0  0
    3.0540   18.8480   -3.4940 H   0  0  0  0  0  0  0  0  0  0  0  0
    3.2875   16.5796    0.7112 H   0  0  0  0  0  0  0  0  0  0  0  0
    1.7372   17.3461    0.2254 H   0  0  0  0  0  0  0  0  0  0  0  0
    1.8931   15.5565    0.2254 H   0  0  0  0  0  0  0  0  0  0  0  0
    4.7379   16.9773   -0.3359 H   0  0  0  0  0  0  0  0  0  0  0  0
    4.9911   16.1142   -1.8907 H   0  0  0  0  0  0  0  0  0  0  0  0
    4.5803   17.8629   -1.8907 H   0  0  0  0  0  0  0  0  0  0  0  0
    1.6860   14.4225   -4.8738 H   0  0  0  0  0  0  0  0  0  0  0  0
    1.3173   12.6754   -5.0702 H   0  0  0  0  0  0  0  0  0  0  0  0
   -0.0152   13.8801   -5.0702 H   0  0  0  0  0  0  0  0  0  0  0  0
   -1.2582   13.9843   -2.7665 H   0  0  0  0  0  0  0  0  0  0  0  0
   -0.9265   12.3798   -3.6326 H   0  0  0  0  0  0  0  0  0  0  0  0
   -0.8022   12.9336   -0.6549 H   0  0  0  0  0  0  0  0  0  0  0  0
   -1.9532   11.8727   -1.5579 H   0  0  0  0  0  0  0  0  0  0  0  0
   -0.4804    9.1245   -2.2139 H   0  0  0  0  0  0  0  0  0  0  0  0
   -1.0394   10.5111   -3.2096 H   0  0  0  0  0  0  0  0  0  0  0  0
    0.6960   10.0472   -3.2096 H   0  0  0  0  0  0  0  0  0  0  0  0
  1  2  1  0
  2  3  1  0
  3  4  1  0
  4  5  1  0
  5  6  1  0
  6  7  1  0
  7  8  1  0
  7  9  1  0
  2 10  1  0
 10 11  1  0
 11 12  1  0
 12 13  1  0
 13 14  1  1
 13 15  1  0
 15 16  1  0
 16 17  1  0
 17 18  2  0
 18 19  1  0
 19 20  1  0
 20 21  1  0
 21 22  1  0
 22 23  1  0
 22 24  1  0
 24 25  1  0
 24 26  1  0
 19 27  1  0
 27 28  1  6
 27 29  1  0
 29 30  1  0
 30 31  1  0
 31 32  1  6
  7  5  1  0
 31 10  1  0
 31 13  1  0
 27 15  1  0
 24 18  1  0
  1 33  1  0
  1 34  1  0
  1 35  1  0
  2 36  1  1
  3 37  1  0
  3 38  1  0
  4 39  1  0
  4 40  1  0
  5 41  1  1
  8 42  1  0
  8 43  1  0
  8 44  1  0
  9 45  1  0
  9 46  1  0
  9 47  1  0
 10 48  1  1
 11 49  1  0
 11 50  1  0
 12 51  1  0
 12 52  1  0
 14 53  1  0
 14 54  1  0
 14 55  1  0
 15 56  1  6
 16 57  1  0
 16 58  1  0
 17 59  1  0
 19 60  1  1
 20 61  1  0
 20 62  1  0
 21 63  1  0
 21 64  1  0
 22 65  1  1
 23 66  1  0
 25 67  1  0
 25 68  1  0
 25 69  1  0
 26 70  1  0
 26 71  1  0
 26 72  1  0
 28 73  1  0
 28 74  1  0
 28 75  1  0
 29 76  1  0
 29 77  1  0
 30 78  1  0
 30 79  1  0
 32 80  1  0
 32 81  1  0
 32 82  1  0
M  END
>  <meeko>  (5) 
{"is_sidechain": [false], "intermolecular_energy": 2.731, "internal_energy": -0.839}

$$$$
EPH_relaxed_0001_pdb2pqr_Repair_154_r2_0001_out
     RDKit          3D

 82 86  0  0  0  0  0  0  0  0999 V2000
    3.6660   17.9370   -1.4410 C   0  0  0  0  0  0  0  0  0  0  0  0
    2.6140   17.4650   -2.4490 C   0  0  2  0  0  0  0  0  0  0  0  0
    1.2000   17.9640   -2.0900 C   0  0  0  0  0  0  0  0  0  0  0  0
    1.1570   18.8400   -0.8350 C   0  0  0  0  0  0  0  0  0  0  0  0
   -0.0880   19.6730   -0.7830 C   0  0  2  0  0  0  0  0  0  0  0  0
   -0.4140   20.1830    0.5170 O   0  0  0  0  0  0  0  0  0  0  0  0
   -1.3480   19.2500   -0.0510 C   0  0  0  0  0  0  0  0  0  0  0  0
   -1.4260   17.9460    0.6790 C   0  0  0  0  0  0  0  0  0  0  0  0
   -2.6510   19.8700   -0.4510 C   0  0  0  0  0  0  0  0  0  0  0  0
    2.6230   15.9440   -2.5350 C   0  0  1  0  0  0  0  0  0  0  0  0
    4.0510   15.3640   -2.7190 C   0  0  0  0  0  0  0  0  0  0  0  0
    4.0920   14.0210   -1.9460 C   0  0  0  0  0  0  0  0  0  0  0  0
    2.6110   13.7100   -1.6260 C   0  0  1  0  0  0  0  0  0  0  0  0
    2.0410   13.0830   -2.9370 C   0  0  0  0  0  0  0  0  0  0  0  0
    2.3500   12.7930   -0.3870 C   0  0  2  0  0  0  0  0  0  0  0  0
    2.9260   11.3710   -0.4940 C   0  0  0  0  0  0  0  0  0  0  0  0
    2.0080   10.3540   -1.0870 C   0  0  0  0  0  0  0  0  0  0  0  0
    0.6800   10.5010   -1.2540 C   0  0  0  0  0  0  0  0  0  0  0  0
   -0.0440   11.7510   -0.7370 C   0  0  1  0  0  0  0  0  0  0  0  0
   -1.3330   11.3280    0.0160 C   0  0  0  0  0  0  0  0  0  0  0  0
   -2.2380   10.4360   -0.8290 C   0  0  0  0  0  0  0  0  0  0  0  0
   -1.5000    9.1760   -1.2750 C   0  0  2  0  0  0  0  0  0  0  0  0
   -1.2190    8.3750   -0.1230 O   0  0  0  0  0  0  0  0  0  0  0  0
   -0.1790    9.4780   -2.0370 C   0  0  0  0  0  0  0  0  0  0  0  0
   -0.5050   10.0780   -3.4260 C   0  0  0  0  0  0  0  0  0  0  0  0
    0.5360    8.1260   -2.3050 C   0  0  0  0  0  0  0  0  0  0  0  0
    0.8430   12.7720    0.0970 C   0  0  1  0  0  0  0  0  0  0  0  0
    0.8640   12.3540    1.5990 C   0  0  0  0  0  0  0  0  0  0  0  0
    0.1770   14.1970    0.0420 C   0  0  0  0  0  0  0  0  0  0  0  0
    0.5670   15.1010   -1.1430 C   0  0  0  0  0  0  0  0  0  0  0  0
    2.0880   15.1590   -1.3110 C   0  0  2  0  0  0  0  0  0  0  0  0
    2.6880   15.8050   -0.0170 C   0  0  0  0  0  0  0  0  0  0  0  0
    3.2951   17.7706   -0.4189 H   0  0  0  0  0  0  0  0  0  0  0  0
    4.5969   17.3703   -1.5901 H   0  0  0  0  0  0  0  0  0  0  0  0
    3.8616   19.0092   -1.5901 H   0  0  0  0  0  0  0  0  0  0  0  0
    2.8768   17.8945   -3.4270 H   0  0  0  0  0  0  0  0  0  0  0  0
    0.8134   18.5506   -2.9364 H   0  0  0  0  0  0  0  0  0  0  0  0
    0.5880   17.0739   -1.8820 H   0  0  0  0  0  0  0  0  0  0  0  0
    1.1898   18.1921    0.0533 H   0  0  0  0  0  0  0  0  0  0  0  0
    2.0227   19.5182   -0.8603 H   0  0  0  0  0  0  0  0  0  0  0  0
    0.0838   20.0352   -1.8073 H   0  0  0  0  0  0  0  0  0  0  0  0
   -1.4149   18.1315    1.7632 H   0  0  0  0  0  0  0  0  0  0  0  0
   -2.3568   17.4276    0.4052 H   0  0  0  0  0  0  0  0  0  0  0  0
   -0.5637   17.3204    0.4052 H   0  0  0  0  0  0  0  0  0  0  0  0
   -3.2202   20.1409    0.4505 H   0  0  0  0  0  0  0  0  0  0  0  0
   -2.4591   20.7733   -1.0487 H   0  0  0  0  0  0  0  0  0  0  0  0
   -3.2309   19.1513   -1.0487 H   0  0  0  0  0  0  0  0  0  0  0  0
    1.9512   15.8045   -3.3948 H   0  0  0  0  0  0  0  0  0  0  0  0
    4.2557   15.1931   -3.7862 H   0  0  0  0  0  0  0  0  0  0  0  0
    4.8122   16.0614   -2.3392 H   0  0  0  0  0  0  0  0  0  0  0  0
    4.5296   13.2273   -2.5693 H   0  0  0  0  0  0  0  0  0  0  0  0
    4.7113   14.0804   -1.0389 H   0  0  0  0  0  0  0  0  0  0  0  0
    1.3212   12.2912   -2.6820 H   0  0  0  0  0  0  0  0  0  0  0  0
    1.5355   13.8621   -3.5264 H   0  0  0  0  0  0  0  0  0  0  0  0
    2.8646   12.6538   -3.5264 H   0  0  0  0  0  0  0  0  0  0  0  0
    2.9323   13.2913    0.4021 H   0  0  0  0  0  0  0  0  0  0  0  0
    3.8309   11.4169   -1.1178 H   0  0  0  0  0  0  0  0  0  0  0  0
    3.1184   11.0422    0.5379 H   0  0  0  0  0  0  0  0  0  0  0  0
    2.4544    9.4038   -1.4154 H   0  0  0  0  0  0  0  0  0  0  0  0
   -0.3079   12.3397   -1.6280 H   0  0  0  0  0  0  0  0  0  0  0  0
   -1.0463   10.7792    0.9252 H   0  0  0  0  0  0  0  0  0  0  0  0
   -1.8951   12.2426    0.2557 H   0  0  0  0  0  0  0  0  0  0  0  0
   -3.1163   10.1469   -0.2332 H   0  0  0  0  0  0  0  0  0  0  0  0
   -2.5475   10.9967   -1.7234 H   0  0  0  0  0  0  0  0  0  0  0  0
   -2.1538    8.6419   -1.9802 H   0  0  0  0  0  0  0  0  0  0  0  0
   -1.8800    7.6620   -0.0920 H   0  0  0  0  0  0  0  0  0  0  0  0
   -1.0266   11.0379   -3.2975 H   0  0  0  0  0  0  0  0  0  0  0  0
    0.4291   10.2400   -3.9838 H   0  0  0  0  0  0  0  0  0  0  0  0
   -1.1492    9.3825   -3.9838 H   0  0  0  0  0  0  0  0  0  0  0  0
    0.7885    7.6485   -1.3468 H   0  0  0  0  0  0  0  0  0  0  0  0
   -0.1310    7.4660   -2.8791 H   0  0  0  0  0  0  0  0  0  0  0  0
    1.4570    8.3057   -2.8791 H   0  0  0  0  0  0  0  0  0  0  0  0
    0.8188   13.2535    2.2306 H   0  0  0  0  0  0  0  0  0  0  0  0
   -0.0030   11.7118    1.8130 H   0  0  0  0  0  0  0  0  0  0  0  0
    1.7910   11.8019    1.8130 H   0  0  0  0  0  0  0  0  0  0  0  0
   -0.9130   14.0537    0.0065 H   0  0  0  0  0  0  0  0  0  0  0  0
    0.5443   14.7210    0.9367 H   0  0  0  0  0  0  0  0  0  0  0  0
    0.1183   14.7005   -2.0640 H   0  0  0  0  0  0  0  0  0  0  0  0
    0.1970   16.1178   -0.9450 H   0  0  0  0  0  0  0  0  0  0  0  0
    2.2452   15.3283    0.8700 H   0  0  0  0  0  0  0  0  0  0  0  0
    3.7782   15.6590   -0.0060 H   0  0  0  0  0  0  0  0  0  0  0  0
    2.4621   16.8815   -0.0060 H   0  0  0  0  0  0  0  0  0  0  0  0
  1  2  1  0
  2  3  1  0
  3  4  1  0
  4  5  1  0
  5  6  1  0
  6  7  1  0
  7  8  1  0
  7  9  1  0
  2 10  1  0
 10 11  1  0
 11 12  1  0
 12 13  1  0
 13 14  1  6
 13 15  1  0
 15 16  1  0
 16 17  1  0
 17 18  2  0
 18 19  1  0
 19 20  1  0
 20 21  1  0
 21 22  1  0
 22 23  1  0
 22 24  1  0
 24 25  1  0
 24 26  1  0
 19 27  1  0
 27 28  1  1
 27 29  1  0
 29 30  1  0
 30 31  1  0
 31 32  1  1
  7  5  1  0
 31 10  1  0
 31 13  1  0
 27 15  1  0
 24 18  1  0
  1 33  1  0
  1 34  1  0
  1 35  1  0
  2 36  1  6
  3 37  1  0
  3 38  1  0
  4 39  1  0
  4 40  1  0
  5 41  1  6
  8 42  1  0
  8 43  1  0
  8 44  1  0
  9 45  1  0
  9 46  1  0
  9 47  1  0
 10 48  1  6
 11 49  1  0
 11 50  1  0
 12 51  1  0
 12 52  1  0
 14 53  1  0
 14 54  1  0
 14 55  1  0
 15 56  1  1
 16 57  1  0
 16 58  1  0
 17 59  1  0
 19 60  1  6
 20 61  1  0
 20 62  1  0
 21 63  1  0
 21 64  1  0
 22 65  1  6
 23 66  1  0
 25 67  1  0
 25 68  1  0
 25 69  1  0
 26 70  1  0
 26 71  1  0
 26 72  1  0
 28 73  1  0
 28 74  1  0
 28 75  1  0
 29 76  1  0
 29 77  1  0
 30 78  1  0
 30 79  1  0
 32 80  1  0
 32 81  1  0
 32 82  1  0
M  END
>  <meeko>  (6) 
{"is_sidechain": [false], "intermolecular_energy": 2.731, "internal_energy": -0.839}

$$$$
EPH_relaxed_0001_pdb2pqr_Repair_154_r2_0001_out
     RDKit          3D

 82 86  0  0  0  0  0  0  0  0999 V2000
    0.2870   18.0830   -0.1580 C   0  0  0  0  0  0  0  0  0  0  0  0
    1.3680   17.1420   -0.6980 C   0  0  2  0  0  0  0  0  0  0  0  0
    2.2790   17.8360   -1.7300 C   0  0  0  0  0  0  0  0  0  0  0  0
    3.1030   18.9880   -1.1470 C   0  0  0  0  0  0  0  0  0  0  0  0
    4.0660   18.5070   -0.1040 C   0  0  2  0  0  0  0  0  0  0  0  0
    3.4790   17.7020    0.9270 O   0  0  0  0  0  0  0  0  0  0  0  0
    4.0270   18.9630    1.3430 C   0  0  0  0  0  0  0  0  0  0  0  0
    3.0030   19.9410    1.8260 C   0  0  0  0  0  0  0  0  0  0  0  0
    5.2710   18.8370    2.1660 C   0  0  0  0  0  0  0  0  0  0  0  0
    0.7200   15.9100   -1.3200 C   0  0  1  0  0  0  0  0  0  0  0  0
    0.3570   16.1170   -2.8150 C   0  0  0  0  0  0  0  0  0  0  0  0
    0.5730   14.7540   -3.5210 C   0  0  0  0  0  0  0  0  0  0  0  0
    0.7300   13.7370   -2.3660 C   0  0  1  0  0  0  0  0  0  0  0  0
   -0.7290   13.4140   -1.9140 C   0  0  0  0  0  0  0  0  0  0  0  0
    1.5330   12.4370   -2.6940 C   0  0  2  0  0  0  0  0  0  0  0  0
    0.9130   11.5430   -3.7820 C   0  0  0  0  0  0  0  0  0  0  0  0
   -0.0320   10.4980   -3.2860 C   0  0  0  0  0  0  0  0  0  0  0  0
   -0.1530   10.0970   -2.0070 C   0  0  0  0  0  0  0  0  0  0  0  0
    0.7810   10.6410   -0.9190 C   0  0  1  0  0  0  0  0  0  0  0  0
    1.3010    9.4680   -0.0480 C   0  0  0  0  0  0  0  0  0  0  0  0
    0.1700    8.6180    0.5250 C   0  0  0  0  0  0  0  0  0  0  0  0
   -0.7010    8.0470   -0.5910 C   0  0  2  0  0  0  0  0  0  0  0  0
    0.0720    7.1100   -1.3460 O   0  0  0  0  0  0  0  0  0  0  0  0
   -1.2740    9.1370   -1.5390 C   0  0  0  0  0  0  0  0  0  0  0  0
   -2.3450    9.9680   -0.7900 C   0  0  0  0  0  0  0  0  0  0  0  0
   -2.0160    8.4180   -2.6990 C   0  0  0  0  0  0  0  0  0  0  0  0
    1.9500   11.5940   -1.4210 C   0  0  1  0  0  0  0  0  0  0  0  0
    3.1880   10.7420   -1.8370 C   0  0  0  0  0  0  0  0  0  0  0  0
    2.4200   12.5050   -0.2270 C   0  0  0  0  0  0  0  0  0  0  0  0
    1.6640   13.8330   -0.0270 C   0  0  0  0  0  0  0  0  0  0  0  0
    1.5540   14.6050   -1.3460 C   0  0  2  0  0  0  0  0  0  0  0  0
    3.0060   14.9630   -1.8130 C   0  0  0  0  0  0  0  0  0  0  0  0
    0.3040   18.0682    0.9418 H   0  0  0  0  0  0  0  0  0  0  0  0
    0.4800   19.1058   -0.5140 H   0  0  0  0  0  0  0  0  0  0  0  0
   -0.6994   17.7509   -0.5140 H   0  0  0  0  0  0  0  0  0  0  0  0
    2.0001   16.8416    0.1506 H   0  0  0  0  0  0  0  0  0  0  0  0
    2.9716   17.0869   -2.1413 H   0  0  0  0  0  0  0  0  0  0  0  0
    1.6224   18.2676   -2.4999 H   0  0  0  0  0  0  0  0  0  0  0  0
    3.6677   19.4692   -1.9591 H   0  0  0  0  0  0  0  0  0  0  0  0
    2.4110   19.6998   -0.6732 H   0  0  0  0  0  0  0  0  0  0  0  0
    4.8804   18.4617   -0.8421 H   0  0  0  0  0  0  0  0  0  0  0  0
    2.9942   19.9494    2.9259 H   0  0  0  0  0  0  0  0  0  0  0  0
    3.2513   20.9458    1.4536 H   0  0  0  0  0  0  0  0  0  0  0  0
    2.0106   19.6468    1.4536 H   0  0  0  0  0  0  0  0  0  0  0  0
    5.0084   18.8636    3.2339 H   0  0  0  0  0  0  0  0  0  0  0  0
    5.7689   17.8838    1.9345 H   0  0  0  0  0  0  0  0  0  0  0  0
    5.9499   19.6710    1.9345 H   0  0  0  0  0  0  0  0  0  0  0  0
   -0.1408   15.7933   -0.6452 H   0  0  0  0  0  0  0  0  0  0  0  0
   -0.6931   16.4304   -2.9099 H   0  0  0  0  0  0  0  0  0  0  0  0
    0.9826   16.9000   -3.2684 H   0  0  0  0  0  0  0  0  0  0  0  0
   -0.2946   14.4993   -4.1474 H   0  0  0  0  0  0  0  0  0  0  0  0
    1.4465   14.7642   -4.1895 H   0  0  0  0  0  0  0  0  0  0  0  0
   -0.7785   13.4030   -0.8152 H   0  0  0  0  0  0  0  0  0  0  0  0
   -1.4124   14.1826   -2.3042 H   0  0  0  0  0  0  0  0  0  0  0  0
   -1.0241   12.4288   -2.3042 H   0  0  0  0  0  0  0  0  0  0  0  0
    2.4604   12.8370   -3.1299 H   0  0  0  0  0  0  0  0  0  0  0  0
    0.3664   12.1905   -4.4834 H   0  0  0  0  0  0  0  0  0  0  0  0
    1.7508   11.0011   -4.2450 H   0  0  0  0  0  0  0  0  0  0  0  0
   -0.6841   10.0154   -4.0289 H   0  0  0  0  0  0  0  0  0  0  0  0
    0.1695   11.3185   -0.3050 H   0  0  0  0  0  0  0  0  0  0  0  0
    1.9446    8.8267   -0.6681 H   0  0  0  0  0  0  0  0  0  0  0  0
    1.8551    9.9006    0.7981 H   0  0  0  0  0  0  0  0  0  0  0  0
    0.6010    7.7890    1.1055 H   0  0  0  0  0  0  0  0  0  0  0  0
   -0.4557    9.2533    1.1691 H   0  0  0  0  0  0  0  0  0  0  0  0
   -1.5650    7.5578   -0.1175 H   0  0  0  0  0  0  0  0  0  0  0  0
   -0.5480    6.5210   -1.8080 H   0  0  0  0  0  0  0  0  0  0  0  0
   -2.2023    9.8573    0.2951 H   0  0  0  0  0  0  0  0  0  0  0  0
   -2.2461   11.0281   -1.0665 H   0  0  0  0  0  0  0  0  0  0  0  0
   -3.3473    9.6089   -1.0665 H   0  0  0  0  0  0  0  0  0  0  0  0
   -2.7473    7.7094   -2.2830 H   0  0  0  0  0  0  0  0  0  0  0  0
   -2.5381    9.1628   -3.3177 H   0  0  0  0  0  0  0  0  0  0  0  0
   -1.2881    7.8727   -3.3177 H   0  0  0  0  0  0  0  0  0  0  0  0
    3.7070   10.3848   -0.9353 H   0  0  0  0  0  0  0  0  0  0  0  0
    2.8560    9.8802   -2.4346 H   0  0  0  0  0  0  0  0  0  0  0  0
    3.8743   11.3600   -2.4346 H   0  0  0  0  0  0  0  0  0  0  0  0
    2.3160   11.9201    0.6988 H   0  0  0  0  0  0  0  0  0  0  0  0
    3.4515   12.7955   -0.4752 H   0  0  0  0  0  0  0  0  0  0  0  0
    0.6531   13.6184    0.3498 H   0  0  0  0  0  0  0  0  0  0  0  0
    2.2210   14.4487    0.6946 H   0  0  0  0  0  0  0  0  0  0  0  0
    3.6460   15.1208   -0.9323 H   0  0  0  0  0  0  0  0  0  0  0  0
    3.4108   14.1378   -2.4173 H   0  0  0  0  0  0  0  0  0  0  0  0
    2.9807   15.8818   -2.4173 H   0  0  0  0  0  0  0  0  0  0  0  0
  1  2  1  0
  2  3  1  0
  3  4  1  0
  4  5  1  0
  5  6  1  0
  6  7  1  0
  7  8  1  0
  7  9  1  0
  2 10  1  0
 10 11  1  0
 11 12  1  0
 12 13  1  0
 13 14  1  1
 13 15  1  0
 15 16  1  0
 16 17  1  0
 17 18  2  0
 18 19  1  0
 19 20  1  0
 20 21  1  0
 21 22  1  0
 22 23  1  0
 22 24  1  0
 24 25  1  0
 24 26  1  0
 19 27  1  0
 27 28  1  6
 27 29  1  0
 29 30  1  0
 30 31  1  0
 31 32  1  6
  7  5  1  0
 31 10  1  0
 31 13  1  0
 27 15  1  0
 24 18  1  0
  1 33  1  0
  1 34  1  0
  1 35  1  0
  2 36  1  1
  3 37  1  0
  3 38  1  0
  4 39  1  0
  4 40  1  0
  5 41  1  6
  8 42  1  0
  8 43  1  0
  8 44  1  0
  9 45  1  0
  9 46  1  0
  9 47  1  0
 10 48  1  1
 11 49  1  0
 11 50  1  0
 12 51  1  0
 12 52  1  0
 14 53  1  0
 14 54  1  0
 14 55  1  0
 15 56  1  6
 16 57  1  0
 16 58  1  0
 17 59  1  0
 19 60  1  1
 20 61  1  0
 20 62  1  0
 21 63  1  0
 21 64  1  0
 22 65  1  1
 23 66  1  0
 25 67  1  0
 25 68  1  0
 25 69  1  0
 26 70  1  0
 26 71  1  0
 26 72  1  0
 28 73  1  0
 28 74  1  0
 28 75  1  0
 29 76  1  0
 29 77  1  0
 30 78  1  0
 30 79  1  0
 32 80  1  0
 32 81  1  0
 32 82  1  0
M  END
>  <meeko>  (7) 
{"is_sidechain": [false], "intermolecular_energy": 2.731, "internal_energy": -0.839}

$$$$
EPH_relaxed_0001_pdb2pqr_Repair_154_r2_0001_out
     RDKit          3D

 82 86  0  0  0  0  0  0  0  0999 V2000
    0.5290   17.8170   -0.3100 C   0  0  0  0  0  0  0  0  0  0  0  0
    1.4280   17.0720   -1.3010 C   0  0  2  0  0  0  0  0  0  0  0  0
    1.8240   17.9540   -2.5020 C   0  0  0  0  0  0  0  0  0  0  0  0
    3.3250   18.2470   -2.5820 C   0  0  0  0  0  0  0  0  0  0  0  0
    4.1440   17.0410   -2.2350 C   0  0  2  0  0  0  0  0  0  0  0  0
    5.2810   17.3090   -1.4030 O   0  0  0  0  0  0  0  0  0  0  0  0
    5.5630   16.8240   -2.7260 C   0  0  0  0  0  0  0  0  0  0  0  0
    6.2450   17.8230   -3.6080 C   0  0  0  0  0  0  0  0  0  0  0  0
    6.1060   15.4290   -2.7530 C   0  0  0  0  0  0  0  0  0  0  0  0
    0.7280   15.8090   -1.7890 C   0  0  1  0  0  0  0  0  0  0  0  0
    0.2730   15.9130   -3.2690 C   0  0  0  0  0  0  0  0  0  0  0  0
    0.4290   14.4990   -3.8860 C   0  0  0  0  0  0  0  0  0  0  0  0
    0.6470   13.5660   -2.6710 C   0  0  1  0  0  0  0  0  0  0  0  0
   -0.7850   13.3010   -2.1080 C   0  0  0  0  0  0  0  0  0  0  0  0
    1.4130   12.2330   -2.9530 C   0  0  2  0  0  0  0  0  0  0  0  0
    0.7140   11.2730   -3.9310 C   0  0  0  0  0  0  0  0  0  0  0  0
   -0.2090   10.2820   -3.3030 C   0  0  0  0  0  0  0  0  0  0  0  0
   -0.2540    9.9760   -1.9930 C   0  0  0  0  0  0  0  0  0  0  0  0
    0.7530   10.5830   -1.0070 C   0  0  1  0  0  0  0  0  0  0  0  0
    1.3130    9.4670   -0.0870 C   0  0  0  0  0  0  0  0  0  0  0  0
    0.2110    8.6800    0.6160 C   0  0  0  0  0  0  0  0  0  0  0  0
   -0.7360    8.0440   -0.3980 C   0  0  2  0  0  0  0  0  0  0  0  0
   -0.0230    7.0420   -1.1300 O   0  0  0  0  0  0  0  0  0  0  0  0
   -1.3550    9.0710   -1.3870 C   0  0  0  0  0  0  0  0  0  0  0  0
   -2.3660    9.9720   -0.6360 C   0  0  0  0  0  0  0  0  0  0  0  0
   -2.1770    8.2830   -2.4420 C   0  0  0  0  0  0  0  0  0  0  0  0
    1.8990   11.4770   -1.6500 C   0  0  1  0  0  0  0  0  0  0  0  0
    3.0980   10.5770   -2.0790 C   0  0  0  0  0  0  0  0  0  0  0  0
    2.4540   12.4650   -0.5570 C   0  0  0  0  0  0  0  0  0  0  0  0
    1.7270   13.8160   -0.4090 C   0  0  0  0  0  0  0  0  0  0  0  0
    1.5440   14.4920   -1.7710 C   0  0  2  0  0  0  0  0  0  0  0  0
    2.9670   14.7910   -2.3530 C   0  0  0  0  0  0  0  0  0  0  0  0
    0.8305   17.5672    0.7179 H   0  0  0  0  0  0  0  0  0  0  0  0
    0.6285   18.9010   -0.4681 H   0  0  0  0  0  0  0  0  0  0  0  0
   -0.5177   17.5179   -0.4681 H   0  0  0  0  0  0  0  0  0  0  0  0
    2.3535   16.8025   -0.7711 H   0  0  0  0  0  0  0  0  0  0  0  0
    1.5209   17.4394   -3.4257 H   0  0  0  0  0  0  0  0  0  0  0  0
    1.3142   18.9202   -2.3733 H   0  0  0  0  0  0  0  0  0  0  0  0
    3.5724   18.5634   -3.6060 H   0  0  0  0  0  0  0  0  0  0  0  0
    3.5587   19.0406   -1.8571 H   0  0  0  0  0  0  0  0  0  0  0  0
    3.2507   16.3994   -2.2539 H   0  0  0  0  0  0  0  0  0  0  0  0
    6.7566   18.5723   -2.9861 H   0  0  0  0  0  0  0  0  0  0  0  0
    6.9816   17.3090   -4.2430 H   0  0  0  0  0  0  0  0  0  0  0  0
    5.4980   18.3218   -4.2430 H   0  0  0  0  0  0  0  0  0  0  0  0
    6.2458   15.0699   -1.7227 H   0  0  0  0  0  0  0  0  0  0  0  0
    5.3986   14.7703   -3.2781 H   0  0  0  0  0  0  0  0  0  0  0  0
    7.0726   15.4219   -3.2781 H   0  0  0  0  0  0  0  0  0  0  0  0
   -0.0895   15.7552   -1.0550 H   0  0  0  0  0  0  0  0  0  0  0  0
   -0.7776   16.2348   -3.3205 H   0  0  0  0  0  0  0  0  0  0  0  0
    0.8769   16.6515   -3.8167 H   0  0  0  0  0  0  0  0  0  0  0  0
   -0.4790   14.2133   -4.4372 H   0  0  0  0  0  0  0  0  0  0  0  0
    1.2585   14.4470   -4.6065 H   0  0  0  0  0  0  0  0  0  0  0  0
   -0.7536   13.3068   -1.0085 H   0  0  0  0  0  0  0  0  0  0  0  0
   -1.4686   14.0879   -2.4594 H   0  0  0  0  0  0  0  0  0  0  0  0
   -1.1417   12.3216   -2.4594 H   0  0  0  0  0  0  0  0  0  0  0  0
    2.3155   12.5853   -3.4739 H   0  0  0  0  0  0  0  0  0  0  0  0
    0.1311   11.8772   -4.6418 H   0  0  0  0  0  0  0  0  0  0  0  0
    1.5144   10.6853   -4.4043 H   0  0  0  0  0  0  0  0  0  0  0  0
   -0.9118    9.7574   -3.9670 H   0  0  0  0  0  0  0  0  0  0  0  0
    0.1902   11.3133   -0.4071 H   0  0  0  0  0  0  0  0  0  0  0  0
    1.9078    8.7720   -0.6978 H   0  0  0  0  0  0  0  0  0  0  0  0
    1.9251    9.9500    0.6889 H   0  0  0  0  0  0  0  0  0  0  0  0
    0.6681    7.8883    1.2277 H   0  0  0  0  0  0  0  0  0  0  0  0
   -0.3648    9.3709    1.2493 H   0  0  0  0  0  0  0  0  0  0  0  0
   -1.5737    7.6053    0.1640 H   0  0  0  0  0  0  0  0  0  0  0  0
   -0.3790    6.1760   -0.8670 H   0  0  0  0  0  0  0  0  0  0  0  0
   -2.2299    9.8507    0.4488 H   0  0  0  0  0  0  0  0  0  0  0  0
   -2.1956   11.0232   -0.9117 H   0  0  0  0  0  0  0  0  0  0  0  0
   -3.3907    9.6821   -0.9117 H   0  0  0  0  0  0  0  0  0  0  0  0
   -2.8800    7.6091   -1.9304 H   0  0  0  0  0  0  0  0  0  0  0  0
   -2.7383    8.9891   -3.0716 H   0  0  0  0  0  0  0  0  0  0  0  0
   -1.4952    7.6924   -3.0716 H   0  0  0  0  0  0  0  0  0  0  0  0
    3.6081   10.1941   -1.1828 H   0  0  0  0  0  0  0  0  0  0  0  0
    2.7267    9.7327   -2.6784 H   0  0  0  0  0  0  0  0  0  0  0  0
    3.8050   11.1693   -2.6784 H   0  0  0  0  0  0  0  0  0  0  0  0
    2.4017   11.9507    0.4140 H   0  0  0  0  0  0  0  0  0  0  0  0
    3.4712   12.7200   -0.8890 H   0  0  0  0  0  0  0  0  0  0  0  0
    0.7391   13.6453    0.0437 H   0  0  0  0  0  0  0  0  0  0  0  0
    2.3349   14.4733    0.2300 H   0  0  0  0  0  0  0  0  0  0  0  0
    3.6773   14.9402   -1.5264 H   0  0  0  0  0  0  0  0  0  0  0  0
    3.2963   13.9424   -2.9707 H   0  0  0  0  0  0  0  0  0  0  0  0
    2.9269   15.7003   -2.9707 H   0  0  0  0  0  0  0  0  0  0  0  0
  1  2  1  0
  2  3  1  0
  3  4  1  0
  4  5  1  0
  5  6  1  0
  6  7  1  0
  7  8  1  0
  7  9  1  0
  2 10  1  0
 10 11  1  0
 11 12  1  0
 12 13  1  0
 13 14  1  1
 13 15  1  0
 15 16  1  0
 16 17  1  0
 17 18  2  0
 18 19  1  0
 19 20  1  0
 20 21  1  0
 21 22  1  0
 22 23  1  0
 22 24  1  0
 24 25  1  0
 24 26  1  0
 19 27  1  0
 27 28  1  6
 27 29  1  0
 29 30  1  0
 30 31  1  0
 31 32  1  6
  7  5  1  0
 31 10  1  0
 31 13  1  0
 27 15  1  0
 24 18  1  0
  1 33  1  0
  1 34  1  0
  1 35  1  0
  2 36  1  1
  3 37  1  0
  3 38  1  0
  4 39  1  0
  4 40  1  0
  5 41  1  1
  8 42  1  0
  8 43  1  0
  8 44  1  0
  9 45  1  0
  9 46  1  0
  9 47  1  0
 10 48  1  1
 11 49  1  0
 11 50  1  0
 12 51  1  0
 12 52  1  0
 14 53  1  0
 14 54  1  0
 14 55  1  0
 15 56  1  6
 16 57  1  0
 16 58  1  0
 17 59  1  0
 19 60  1  1
 20 61  1  0
 20 62  1  0
 21 63  1  0
 21 64  1  0
 22 65  1  1
 23 66  1  0
 25 67  1  0
 25 68  1  0
 25 69  1  0
 26 70  1  0
 26 71  1  0
 26 72  1  0
 28 73  1  0
 28 74  1  0
 28 75  1  0
 29 76  1  0
 29 77  1  0
 30 78  1  0
 30 79  1  0
 32 80  1  0
 32 81  1  0
 32 82  1  0
M  END
>  <meeko>  (8) 
{"is_sidechain": [false], "intermolecular_energy": 2.731, "internal_energy": -0.839}

$$$$
EPH_relaxed_0001_pdb2pqr_Repair_154_r2_0001_out
     RDKit          3D

 82 86  0  0  0  0  0  0  0  0999 V2000
    3.9960   17.4970    0.4500 C   0  0  0  0  0  0  0  0  0  0  0  0
    3.7970   16.5720   -0.7540 C   0  0  2  0  0  0  0  0  0  0  0  0
    3.6480   17.3580   -2.0720 C   0  0  0  0  0  0  0  0  0  0  0  0
    3.1290   18.7860   -1.8820 C   0  0  0  0  0  0  0  0  0  0  0  0
    1.6480   18.8700   -2.0910 C   0  0  2  0  0  0  0  0  0  0  0  0
    1.1500   20.1940   -2.3240 O   0  0  0  0  0  0  0  0  0  0  0  0
    0.7030   19.5520   -1.1190 C   0  0  0  0  0  0  0  0  0  0  0  0
    1.2050   20.1940    0.1360 C   0  0  0  0  0  0  0  0  0  0  0  0
   -0.7440   19.1700   -1.1410 C   0  0  0  0  0  0  0  0  0  0  0  0
    2.5750   15.6870   -0.5340 C   0  0  1  0  0  0  0  0  0  0  0  0
    1.2790   16.5070   -0.2960 C   0  0  0  0  0  0  0  0  0  0  0  0
    0.1200   15.7090   -0.9470 C   0  0  0  0  0  0  0  0  0  0  0  0
    0.7220   14.3160   -1.2420 C   0  0  1  0  0  0  0  0  0  0  0  0
    0.6520   13.5530    0.1180 C   0  0  0  0  0  0  0  0  0  0  0  0
    0.0510   13.5020   -2.3960 C   0  0  2  0  0  0  0  0  0  0  0  0
   -1.4250   13.1350   -2.1610 C   0  0  0  0  0  0  0  0  0  0  0  0
   -1.6560   11.8250   -1.4830 C   0  0  0  0  0  0  0  0  0  0  0  0
   -0.7400   10.8500   -1.3330 C   0  0  0  0  0  0  0  0  0  0  0  0
    0.6540   10.9750   -1.9600 C   0  0  1  0  0  0  0  0  0  0  0  0
    1.0210    9.6490   -2.6760 C   0  0  0  0  0  0  0  0  0  0  0  0
    0.9010    8.4360   -1.7580 C   0  0  0  0  0  0  0  0  0  0  0  0
   -0.5140    8.3120   -1.2000 C   0  0  2  0  0  0  0  0  0  0  0  0
   -1.4080    8.0080   -2.2760 O   0  0  0  0  0  0  0  0  0  0  0  0
   -0.9980    9.5930   -0.4650 C   0  0  0  0  0  0  0  0  0  0  0  0
   -0.2210    9.7540    0.8650 C   0  0  0  0  0  0  0  0  0  0  0  0
   -2.4870    9.3880   -0.0760 C   0  0  0  0  0  0  0  0  0  0  0  0
    0.8890   12.2500   -2.8790 C   0  0  1  0  0  0  0  0  0  0  0  0
    0.4320   11.9450   -4.3380 C   0  0  0  0  0  0  0  0  0  0  0  0
    2.4320   12.5550   -2.9520 C   0  0  0  0  0  0  0  0  0  0  0  0
    3.0130   13.4620   -1.8500 C   0  0  0  0  0  0  0  0  0  0  0  0
    2.1720   14.7310   -1.6850 C   0  0  2  0  0  0  0  0  0  0  0  0
    2.2430   15.5310   -3.0300 C   0  0  0  0  0  0  0  0  0  0  0  0
    3.8721   16.9213    1.3791 H   0  0  0  0  0  0  0  0  0  0  0  0
    5.0075   17.9282    0.4179 H   0  0  0  0  0  0  0  0  0  0  0  0
    3.2513   18.3060    0.4179 H   0  0  0  0  0  0  0  0  0  0  0  0
    4.6975   15.9466   -0.8428 H   0  0  0  0  0  0  0  0  0  0  0  0
    4.6328   17.4084   -2.5594 H   0  0  0  0  0  0  0  0  0  0  0  0
    2.9044   16.8243   -2.6821 H   0  0  0  0  0  0  0  0  0  0  0  0
    3.3641   19.1176   -0.8599 H   0  0  0  0  0  0  0  0  0  0  0  0
    3.6175   19.4303   -2.6278 H   0  0  0  0  0  0  0  0  0  0  0  0
    1.6340   17.8741   -2.5580 H   0  0  0  0  0  0  0  0  0  0  0  0
    0.7922   19.6661    1.0083 H   0  0  0  0  0  0  0  0  0  0  0  0
    2.3034   20.1407    0.1611 H   0  0  0  0  0  0  0  0  0  0  0  0
    0.8884   21.2471    0.1611 H   0  0  0  0  0  0  0  0  0  0  0  0
   -1.1132   19.0725   -0.1094 H   0  0  0  0  0  0  0  0  0  0  0  0
   -1.3204   19.9468   -1.6649 H   0  0  0  0  0  0  0  0  0  0  0  0
   -0.8619   18.2100   -1.6649 H   0  0  0  0  0  0  0  0  0  0  0  0
    2.9221   15.1058    0.3330 H   0  0  0  0  0  0  0  0  0  0  0  0
    1.0984   16.6257    0.7826 H   0  0  0  0  0  0  0  0  0  0  0  0
    1.3614   17.5127   -0.7340 H   0  0  0  0  0  0  0  0  0  0  0  0
   -0.7307   15.6255   -0.2547 H   0  0  0  0  0  0  0  0  0  0  0  0
   -0.2643   16.1977   -1.8545 H   0  0  0  0  0  0  0  0  0  0  0  0
    0.7181   14.2736    0.9465 H   0  0  0  0  0  0  0  0  0  0  0  0
   -0.3001   13.0059    0.1829 H   0  0  0  0  0  0  0  0  0  0  0  0
    1.4887   12.8418    0.1829 H   0  0  0  0  0  0  0  0  0  0  0  0
    0.0513   14.2239   -3.2260 H   0  0  0  0  0  0  0  0  0  0  0  0
   -1.8767   13.9232   -1.5407 H   0  0  0  0  0  0  0  0  0  0  0  0
   -1.8791   13.0456   -3.1589 H   0  0  0  0  0  0  0  0  0  0  0  0
   -2.6593   11.6410   -1.0713 H   0  0  0  0  0  0  0  0  0  0  0  0
    1.3478   11.1524   -1.1251 H   0  0  0  0  0  0  0  0  0  0  0  0
    0.3443    9.5116   -3.5323 H   0  0  0  0  0  0  0  0  0  0  0  0
    2.0705    9.7222   -2.9972 H   0  0  0  0  0  0  0  0  0  0  0  0
    1.1439    7.5274   -2.3285 H   0  0  0  0  0  0  0  0  0  0  0  0
    1.5999    8.5611   -0.9179 H   0  0  0  0  0  0  0  0  0  0  0  0
   -0.5039    7.5064   -0.4511 H   0  0  0  0  0  0  0  0  0  0  0  0
   -1.0300    7.2620   -2.7700 H   0  0  0  0  0  0  0  0  0  0  0  0
   -0.9091    9.6114    1.7112 H   0  0  0  0  0  0  0  0  0  0  0  0
    0.5812    9.0030    0.9142 H   0  0  0  0  0  0  0  0  0  0  0  0
    0.2168   10.7619    0.9142 H   0  0  0  0  0  0  0  0  0  0  0  0
   -2.5812    9.3750    1.0199 H   0  0  0  0  0  0  0  0  0  0  0  0
   -3.0899   10.2116   -0.4861 H   0  0  0  0  0  0  0  0  0  0  0  0
   -2.8449    8.4321   -0.4861 H   0  0  0  0  0  0  0  0  0  0  0  0
   -0.4828   11.3345   -4.3156 H   0  0  0  0  0  0  0  0  0  0  0  0
    0.2296   12.8897   -4.8639 H   0  0  0  0  0  0  0  0  0  0  0  0
    1.2267   11.3956   -4.8639 H   0  0  0  0  0  0  0  0  0  0  0  0
    2.9640   11.5933   -2.9065 H   0  0  0  0  0  0  0  0  0  0  0  0
    2.5712   13.1144   -3.8888 H   0  0  0  0  0  0  0  0  0  0  0  0
    3.0230   12.9106   -0.8982 H   0  0  0  0  0  0  0  0  0  0  0  0
    4.0343   13.7528   -2.1372 H   0  0  0  0  0  0  0  0  0  0  0  0
    2.3383   16.6052   -2.8131 H   0  0  0  0  0  0  0  0  0  0  0  0
    3.1149   15.1954   -3.6107 H   0  0  0  0  0  0  0  0  0  0  0  0
    1.3256   15.3542   -3.6107 H   0  0  0  0  0  0  0  0  0  0  0  0
  1  2  1  0
  2  3  1  0
  3  4  1  0
  4  5  1  0
  5  6  1  0
  6  7  1  0
  7  8  1  0
  7  9  1  0
  2 10  1  0
 10 11  1  0
 11 12  1  0
 12 13  1  0
 13 14  1  1
 13 15  1  0
 15 16  1  0
 16 17  1  0
 17 18  2  0
 18 19  1  0
 19 20  1  0
 20 21  1  0
 21 22  1  0
 22 23  1  0
 22 24  1  0
 24 25  1  0
 24 26  1  0
 19 27  1  0
 27 28  1  6
 27 29  1  0
 29 30  1  0
 30 31  1  0
 31 32  1  6
  7  5  1  0
 31 10  1  0
 31 13  1  0
 27 15  1  0
 24 18  1  0
  1 33  1  0
  1 34  1  0
  1 35  1  0
  2 36  1  6
  3 37  1  0
  3 38  1  0
  4 39  1  0
  4 40  1  0
  5 41  1  6
  8 42  1  0
  8 43  1  0
  8 44  1  0
  9 45  1  0
  9 46  1  0
  9 47  1  0
 10 48  1  1
 11 49  1  0
 11 50  1  0
 12 51  1  0
 12 52  1  0
 14 53  1  0
 14 54  1  0
 14 55  1  0
 15 56  1  6
 16 57  1  0
 16 58  1  0
 17 59  1  0
 19 60  1  1
 20 61  1  0
 20 62  1  0
 21 63  1  0
 21 64  1  0
 22 65  1  1
 23 66  1  0
 25 67  1  0
 25 68  1  0
 25 69  1  0
 26 70  1  0
 26 71  1  0
 26 72  1  0
 28 73  1  0
 28 74  1  0
 28 75  1  0
 29 76  1  0
 29 77  1  0
 30 78  1  0
 30 79  1  0
 32 80  1  0
 32 81  1  0
 32 82  1  0
M  END
>  <meeko>  (9) 
{"is_sidechain": [false], "intermolecular_energy": 2.731, "internal_energy": -0.839}

$$$$
EPH_relaxed_0001_pdb2pqr_Repair_154_r2_0001_out
     RDKit          3D

 82 86  0  0  0  0  0  0  0  0999 V2000
    2.2390   19.3150   -0.1430 C   0  0  0  0  0  0  0  0  0  0  0  0
    2.9070   17.9470   -0.3110 C   0  0  2  0  0  0  0  0  0  0  0  0
    3.7650   17.8730   -1.5900 C   0  0  0  0  0  0  0  0  0  0  0  0
    5.2280   17.5040   -1.3290 C   0  0  0  0  0  0  0  0  0  0  0  0
    6.0850   17.7520   -2.5330 C   0  0  2  0  0  0  0  0  0  0  0  0
    5.4460   17.4870   -3.7890 O   0  0  0  0  0  0  0  0  0  0  0  0
    6.5660   16.6500   -3.4590 C   0  0  0  0  0  0  0  0  0  0  0  0
    6.2060   15.2170   -3.2200 C   0  0  0  0  0  0  0  0  0  0  0  0
    7.7760   16.9030   -4.3040 C   0  0  0  0  0  0  0  0  0  0  0  0
    1.8490   16.8510   -0.3290 C   0  0  1  0  0  0  0  0  0  0  0  0
    0.4350   17.3910   -0.6740 C   0  0  0  0  0  0  0  0  0  0  0  0
   -0.2760   16.2880   -1.4990 C   0  0  0  0  0  0  0  0  0  0  0  0
    0.6110   15.0340   -1.3200 C   0  0  1  0  0  0  0  0  0  0  0  0
    0.1970   14.4430    0.0640 C   0  0  0  0  0  0  0  0  0  0  0  0
    0.5280   13.9610   -2.4540 C   0  0  2  0  0  0  0  0  0  0  0  0
   -0.8550   13.3110   -2.6370 C   0  0  0  0  0  0  0  0  0  0  0  0
   -1.0890   12.0740   -1.8350 C   0  0  0  0  0  0  0  0  0  0  0  0
   -0.1370   11.3470   -1.2220 C   0  0  0  0  0  0  0  0  0  0  0  0
    1.3480   11.6970   -1.3840 C   0  0  1  0  0  0  0  0  0  0  0  0
    2.1540   10.4060   -1.6840 C   0  0  0  0  0  0  0  0  0  0  0  0
    1.9220    9.3160   -0.6420 C   0  0  0  0  0  0  0  0  0  0  0  0
    0.4420    8.9550   -0.5520 C   0  0  2  0  0  0  0  0  0  0  0  0
    0.0430    8.3360   -1.7790 O   0  0  0  0  0  0  0  0  0  0  0  0
   -0.4710   10.1790   -0.2620 C   0  0  0  0  0  0  0  0  0  0  0  0
   -0.2450   10.6640    1.1920 C   0  0  0  0  0  0  0  0  0  0  0  0
   -1.9470    9.7020   -0.3360 C   0  0  0  0  0  0  0  0  0  0  0  0
    1.6760   12.8720   -2.4020 C   0  0  1  0  0  0  0  0  0  0  0  0
    1.8130   12.3020   -3.8470 C   0  0  0  0  0  0  0  0  0  0  0  0
    3.0750   13.4950   -2.0360 C   0  0  0  0  0  0  0  0  0  0  0  0
    3.0780   14.6330   -0.9970 C   0  0  0  0  0  0  0  0  0  0  0  0
    2.0350   15.6990   -1.3480 C   0  0  2  0  0  0  0  0  0  0  0  0
    2.4390   16.3270   -2.7260 C   0  0  0  0  0  0  0  0  0  0  0  0
    2.1290   19.5403    0.9281 H   0  0  0  0  0  0  0  0  0  0  0  0
    2.8612   20.0877   -0.6182 H   0  0  0  0  0  0  0  0  0  0  0  0
    1.2471   19.2995   -0.6182 H   0  0  0  0  0  0  0  0  0  0  0  0
    3.5800   17.7996    0.5465 H   0  0  0  0  0  0  0  0  0  0  0  0
    3.3292   17.1147   -2.2572 H   0  0  0  0  0  0  0  0  0  0  0  0
    3.7618   18.8776   -2.0380 H   0  0  0  0  0  0  0  0  0  0  0  0
    5.6048   18.1103   -0.4921 H   0  0  0  0  0  0  0  0  0  0  0  0
    5.2739   16.4312   -1.0903 H   0  0  0  0  0  0  0  0  0  0  0  0
    6.6148   18.5661   -2.0167 H   0  0  0  0  0  0  0  0  0  0  0  0
    6.1582   15.0266   -2.1377 H   0  0  0  0  0  0  0  0  0  0  0  0
    5.2266   15.0045   -3.6733 H   0  0  0  0  0  0  0  0  0  0  0  0
    6.9687   14.5668   -3.6733 H   0  0  0  0  0  0  0  0  0  0  0  0
    8.6452   17.0847   -3.6547 H   0  0  0  0  0  0  0  0  0  0  0  0
    7.9697   16.0259   -4.9390 H   0  0  0  0  0  0  0  0  0  0  0  0
    7.6020   17.7842   -4.9390 H   0  0  0  0  0  0  0  0  0  0  0  0
    1.9627   16.4688    0.6962 H   0  0  0  0  0  0  0  0  0  0  0  0
   -0.1277   17.5959    0.2487 H   0  0  0  0  0  0  0  0  0  0  0  0
    0.4989   18.3303   -1.2429 H   0  0  0  0  0  0  0  0  0  0  0  0
   -1.2892   16.1055   -1.1114 H   0  0  0  0  0  0  0  0  0  0  0  0
   -0.3935   16.5683   -2.5562 H   0  0  0  0  0  0  0  0  0  0  0  0
    0.6274   15.0574    0.8686 H   0  0  0  0  0  0  0  0  0  0  0  0
   -0.8997   14.4429    0.1494 H   0  0  0  0  0  0  0  0  0  0  0  0
    0.5715   13.4123    0.1494 H   0  0  0  0  0  0  0  0  0  0  0  0
    0.6986   14.5615   -3.3597 H   0  0  0  0  0  0  0  0  0  0  0  0
   -1.6183   14.0501   -2.3524 H   0  0  0  0  0  0  0  0  0  0  0  0
   -0.9102   13.0048   -3.6921 H   0  0  0  0  0  0  0  0  0  0  0  0
   -2.1283   11.7272   -1.7367 H   0  0  0  0  0  0  0  0  0  0  0  0
    1.6678   12.1212   -0.4208 H   0  0  0  0  0  0  0  0  0  0  0  0
    1.8510   10.0221   -2.6693 H   0  0  0  0  0  0  0  0  0  0  0  0
    3.2224   10.6668   -1.6622 H   0  0  0  0  0  0  0  0  0  0  0  0
    2.4947    8.4202   -0.9242 H   0  0  0  0  0  0  0  0  0  0  0  0
    2.2527    9.6905    0.3380 H   0  0  0  0  0  0  0  0  0  0  0  0
    0.3214    8.2666    0.2974 H   0  0  0  0  0  0  0  0  0  0  0  0
   -0.5430    8.9570   -2.2440 H   0  0  0  0  0  0  0  0  0  0  0  0
   -0.6026    9.8966    1.8943 H   0  0  0  0  0  0  0  0  0  0  0  0
    0.8281   10.8405    1.3570 H   0  0  0  0  0  0  0  0  0  0  0  0
   -0.8001   11.5992    1.3570 H   0  0  0  0  0  0  0  0  0  0  0  0
   -2.3425    9.5742    0.6824 H   0  0  0  0  0  0  0  0  0  0  0  0
   -2.5482   10.4516   -0.8714 H   0  0  0  0  0  0  0  0  0  0  0  0
   -1.9958    8.7423   -0.8714 H   0  0  0  0  0  0  0  0  0  0  0  0
    2.0698   11.2336   -3.7969 H   0  0  0  0  0  0  0  0  0  0  0  0
    0.8596   12.4253   -4.3817 H   0  0  0  0  0  0  0  0  0  0  0  0
    2.6062   12.8451   -4.3817 H   0  0  0  0  0  0  0  0  0  0  0  0
    3.7078   12.6850   -1.6443 H   0  0  0  0  0  0  0  0  0  0  0  0
    3.4382   13.9543   -2.9672 H   0  0  0  0  0  0  0  0  0  0  0  0
    2.8466   14.2159   -0.0058 H   0  0  0  0  0  0  0  0  0  0  0  0
    4.0726   15.1029   -0.9945 H   0  0  0  0  0  0  0  0  0  0  0  0
    3.0268   17.2408   -2.5543 H   0  0  0  0  0  0  0  0  0  0  0  0
    3.0422   15.6046   -3.2954 H   0  0  0  0  0  0  0  0  0  0  0  0
    1.5315   16.5764   -3.2954 H   0  0  0  0  0  0  0  0  0  0  0  0
  1  2  1  0
  2  3  1  0
  3  4  1  0
  4  5  1  0
  5  6  1  0
  6  7  1  0
  7  8  1  0
  7  9  1  0
  2 10  1  0
 10 11  1  0
 11 12  1  0
 12 13  1  0
 13 14  1  1
 13 15  1  0
 15 16  1  0
 16 17  1  0
 17 18  2  0
 18 19  1  0
 19 20  1  0
 20 21  1  0
 21 22  1  0
 22 23  1  0
 22 24  1  0
 24 25  1  0
 24 26  1  0
 19 27  1  0
 27 28  1  6
 27 29  1  0
 29 30  1  0
 30 31  1  0
 31 32  1  6
  7  5  1  0
 31 10  1  0
 31 13  1  0
 27 15  1  0
 24 18  1  0
  1 33  1  0
  1 34  1  0
  1 35  1  0
  2 36  1  1
  3 37  1  0
  3 38  1  0
  4 39  1  0
  4 40  1  0
  5 41  1  6
  8 42  1  0
  8 43  1  0
  8 44  1  0
  9 45  1  0
  9 46  1  0
  9 47  1  0
 10 48  1  1
 11 49  1  0
 11 50  1  0
 12 51  1  0
 12 52  1  0
 14 53  1  0
 14 54  1  0
 14 55  1  0
 15 56  1  6
 16 57  1  0
 16 58  1  0
 17 59  1  0
 19 60  1  1
 20 61  1  0
 20 62  1  0
 21 63  1  0
 21 64  1  0
 22 65  1  1
 23 66  1  0
 25 67  1  0
 25 68  1  0
 25 69  1  0
 26 70  1  0
 26 71  1  0
 26 72  1  0
 28 73  1  0
 28 74  1  0
 28 75  1  0
 29 76  1  0
 29 77  1  0
 30 78  1  0
 30 79  1  0
 32 80  1  0
 32 81  1  0
 32 82  1  0
M  END
>  <meeko>  (10) 
{"is_sidechain": [false], "intermolecular_energy": 2.731, "internal_energy": -0.839}

$$$$
EPH_relaxed_0001_pdb2pqr_Repair_154_r2_0001_out
     RDKit          3D

 82 86  0  0  0  0  0  0  0  0999 V2000
   -2.5880    7.6220   -3.0550 C   0  0  0  0  0  0  0  0  0  0  0  0
   -2.8800    7.8790   -1.5730 C   0  0  2  0  0  0  0  0  0  0  0  0
   -4.3890    7.8360   -1.2630 C   0  0  0  0  0  0  0  0  0  0  0  0
   -5.1190    6.6590   -1.9160 C   0  0  0  0  0  0  0  0  0  0  0  0
   -6.3270    7.1100   -2.6790 C   0  0  2  0  0  0  0  0  0  0  0  0
   -6.8780    8.3600   -2.2440 O   0  0  0  0  0  0  0  0  0  0  0  0
   -7.7140    7.2040   -2.0710 C   0  0  0  0  0  0  0  0  0  0  0  0
   -7.9650    6.8430   -0.6410 C   0  0  0  0  0  0  0  0  0  0  0  0
   -8.8990    7.1760   -2.9850 C   0  0  0  0  0  0  0  0  0  0  0  0
   -2.3000    9.2250   -1.1550 C   0  0  1  0  0  0  0  0  0  0  0  0
   -2.8200    9.6950    0.2290 C   0  0  0  0  0  0  0  0  0  0  0  0
   -1.6500   10.4490    0.9140 C   0  0  0  0  0  0  0  0  0  0  0  0
   -0.6180   10.6760   -0.2160 C   0  0  1  0  0  0  0  0  0  0  0  0
   -1.1390   11.9290   -0.9890 C   0  0  0  0  0  0  0  0  0  0  0  0
    0.8690   10.8510    0.2320 C   0  0  2  0  0  0  0  0  0  0  0  0
    1.1430   12.0760    1.1220 C   0  0  0  0  0  0  0  0  0  0  0  0
    1.5090   13.3260    0.3920 C   0  0  0  0  0  0  0  0  0  0  0  0
    1.8920   13.3960   -0.8960 C   0  0  0  0  0  0  0  0  0  0  0  0
    2.0810   12.1230   -1.7320 C   0  0  1  0  0  0  0  0  0  0  0  0
    3.4200   12.2100   -2.5110 C   0  0  0  0  0  0  0  0  0  0  0  0
    3.5280   13.4800   -3.3490 C   0  0  0  0  0  0  0  0  0  0  0  0
    3.3930   14.7240   -2.4750 C   0  0  2  0  0  0  0  0  0  0  0  0
    4.5250   14.8000   -1.6040 O   0  0  0  0  0  0  0  0  0  0  0  0
    2.0850   14.7430   -1.6350 C   0  0  0  0  0  0  0  0  0  0  0  0
    0.8700   14.9640   -2.5690 C   0  0  0  0  0  0  0  0  0  0  0  0
    2.1400   15.9770   -0.6950 C   0  0  0  0  0  0  0  0  0  0  0  0
    1.9180   10.7500   -0.9490 C   0  0  1  0  0  0  0  0  0  0  0  0
    3.2770   10.3400   -0.3040 C   0  0  0  0  0  0  0  0  0  0  0  0
    1.5540    9.6130   -1.9760 C   0  0  0  0  0  0  0  0  0  0  0  0
    0.0580    9.4100   -2.2870 C   0  0  0  0  0  0  0  0  0  0  0  0
   -0.7620    9.3190   -0.9960 C   0  0  2  0  0  0  0  0  0  0  0  0
   -0.2750    8.0550   -0.2090 C   0  0  0  0  0  0  0  0  0  0  0  0
   -1.7651    6.8978   -3.1464 H   0  0  0  0  0  0  0  0  0  0  0  0
   -3.4880    7.2177   -3.5413 H   0  0  0  0  0  0  0  0  0  0  0  0
   -2.3012    8.5661   -3.5413 H   0  0  0  0  0  0  0  0  0  0  0  0
   -2.4018    7.0733   -0.9966 H   0  0  0  0  0  0  0  0  0  0  0  0
   -4.5175    7.7626   -0.1730 H   0  0  0  0  0  0  0  0  0  0  0  0
   -4.8282    8.7557   -1.6768 H   0  0  0  0  0  0  0  0  0  0  0  0
   -4.4300    6.1514   -2.6071 H   0  0  0  0  0  0  0  0  0  0  0  0
   -5.4517    5.9774   -1.1192 H   0  0  0  0  0  0  0  0  0  0  0  0
   -5.9547    6.6313   -3.5968 H   0  0  0  0  0  0  0  0  0  0  0  0
   -7.4606    7.5684    0.0143 H   0  0  0  0  0  0  0  0  0  0  0  0
   -9.0469    6.8603   -0.4429 H   0  0  0  0  0  0  0  0  0  0  0  0
   -7.5720    5.8349   -0.4429 H   0  0  0  0  0  0  0  0  0  0  0  0
   -9.8224    7.1542   -2.3876 H   0  0  0  0  0  0  0  0  0  0  0  0
   -8.8939    8.0745   -3.6195 H   0  0  0  0  0  0  0  0  0  0  0  0
   -8.8515    6.2787   -3.6195 H   0  0  0  0  0  0  0  0  0  0  0  0
   -2.6276    9.8392   -2.0068 H   0  0  0  0  0  0  0  0  0  0  0  0
   -3.6812   10.3675    0.1017 H   0  0  0  0  0  0  0  0  0  0  0  0
   -3.1497    8.8405    0.8381 H   0  0  0  0  0  0  0  0  0  0  0  0
   -1.9944   11.4098    1.3243 H   0  0  0  0  0  0  0  0  0  0  0  0
   -1.2272    9.8846    1.7582 H   0  0  0  0  0  0  0  0  0  0  0  0
   -1.4584   12.6972   -0.2693 H   0  0  0  0  0  0  0  0  0  0  0  0
   -0.3335   12.3310   -1.6211 H   0  0  0  0  0  0  0  0  0  0  0  0
   -1.9921   11.6414   -1.6211 H   0  0  0  0  0  0  0  0  0  0  0  0
    1.0257    9.9727    0.8754 H   0  0  0  0  0  0  0  0  0  0  0  0
    0.2355   12.2789    1.7096 H   0  0  0  0  0  0  0  0  0  0  0  0
    2.0172   11.8158    1.7369 H   0  0  0  0  0  0  0  0  0  0  0  0
    1.4615   14.2698    0.9550 H   0  0  0  0  0  0  0  0  0  0  0  0
    1.2391   12.0946   -2.4394 H   0  0  0  0  0  0  0  0  0  0  0  0
    4.2497   12.1924   -1.7890 H   0  0  0  0  0  0  0  0  0  0  0  0
    3.4628   11.3521   -3.1981 H   0  0  0  0  0  0  0  0  0  0  0  0
    4.5064   13.4976   -3.8514 H   0  0  0  0  0  0  0  0  0  0  0  0
    2.7149   13.4817   -4.0898 H   0  0  0  0  0  0  0  0  0  0  0  0
    3.3483   15.5952   -3.1451 H   0  0  0  0  0  0  0  0  0  0  0  0
    5.1610   14.1210   -1.8870 H   0  0  0  0  0  0  0  0  0  0  0  0
   -0.0332   15.1283   -1.9630 H   0  0  0  0  0  0  0  0  0  0  0  0
    1.0508   15.8440   -3.2038 H   0  0  0  0  0  0  0  0  0  0  0  0
    0.7293   14.0767   -3.2038 H   0  0  0  0  0  0  0  0  0  0  0  0
    2.1250   15.6411    0.3523 H   0  0  0  0  0  0  0  0  0  0  0  0
    3.0642   16.5422   -0.8856 H   0  0  0  0  0  0  0  0  0  0  0  0
    1.2697   16.6222   -0.8856 H   0  0  0  0  0  0  0  0  0  0  0  0
    3.1858   10.3675    0.7919 H   0  0  0  0  0  0  0  0  0  0  0  0
    3.5426    9.3218   -0.6244 H   0  0  0  0  0  0  0  0  0  0  0  0
    4.0614   11.0415   -0.6244 H   0  0  0  0  0  0  0  0  0  0  0  0
    2.0623    9.8452   -2.9235 H   0  0  0  0  0  0  0  0  0  0  0  0
    1.8777    8.6775   -1.4963 H   0  0  0  0  0  0  0  0  0  0  0  0
   -0.3041   10.2597   -2.8844 H   0  0  0  0  0  0  0  0  0  0  0  0
   -0.0602    8.4695   -2.8451 H   0  0  0  0  0  0  0  0  0  0  0  0
   -0.3483    8.2453    0.8719 H   0  0  0  0  0  0  0  0  0  0  0  0
   -0.9055    7.1932   -0.4732 H   0  0  0  0  0  0  0  0  0  0  0  0
    0.7707    7.8390   -0.4732 H   0  0  0  0  0  0  0  0  0  0  0  0
  1  2  1  0
  2  3  1  0
  3  4  1  0
  4  5  1  0
  5  6  1  0
  6  7  1  0
  7  8  1  0
  7  9  1  0
  2 10  1  0
 10 11  1  0
 11 12  1  0
 12 13  1  0
 13 14  1  6
 13 15  1  0
 15 16  1  0
 16 17  1  0
 17 18  2  0
 18 19  1  0
 19 20  1  0
 20 21  1  0
 21 22  1  0
 22 23  1  0
 22 24  1  0
 24 25  1  0
 24 26  1  0
 19 27  1  0
 27 28  1  1
 27 29  1  0
 29 30  1  0
 30 31  1  0
 31 32  1  1
  7  5  1  0
 31 10  1  0
 31 13  1  0
 27 15  1  0
 24 18  1  0
  1 33  1  0
  1 34  1  0
  1 35  1  0
  2 36  1  1
  3 37  1  0
  3 38  1  0
  4 39  1  0
  4 40  1  0
  5 41  1  6
  8 42  1  0
  8 43  1  0
  8 44  1  0
  9 45  1  0
  9 46  1  0
  9 47  1  0
 10 48  1  6
 11 49  1  0
 11 50  1  0
 12 51  1  0
 12 52  1  0
 14 53  1  0
 14 54  1  0
 14 55  1  0
 15 56  1  1
 16 57  1  0
 16 58  1  0
 17 59  1  0
 19 60  1  6
 20 61  1  0
 20 62  1  0
 21 63  1  0
 21 64  1  0
 22 65  1  6
 23 66  1  0
 25 67  1  0
 25 68  1  0
 25 69  1  0
 26 70  1  0
 26 71  1  0
 26 72  1  0
 28 73  1  0
 28 74  1  0
 28 75  1  0
 29 76  1  0
 29 77  1  0
 30 78  1  0
 30 79  1  0
 32 80  1  0
 32 81  1  0
 32 82  1  0
M  END
>  <meeko>  (11) 
{"is_sidechain": [false], "intermolecular_energy": 2.731, "internal_energy": -0.839}

$$$$
EPH_relaxed_0001_pdb2pqr_Repair_154_r2_0001_out
     RDKit          3D

 82 86  0  0  0  0  0  0  0  0999 V2000
   -0.5500    9.7090   -2.3710 C   0  0  0  0  0  0  0  0  0  0  0  0
   -0.9090    9.8090   -0.8860 C   0  0  2  0  0  0  0  0  0  0  0  0
   -2.4300    9.7250   -0.6500 C   0  0  0  0  0  0  0  0  0  0  0  0
   -3.0230    8.3440   -0.9440 C   0  0  0  0  0  0  0  0  0  0  0  0
   -4.5190    8.3530   -0.8540 C   0  0  2  0  0  0  0  0  0  0  0  0
   -5.0920    7.1650   -0.2930 O   0  0  0  0  0  0  0  0  0  0  0  0
   -5.4110    7.4340   -1.6680 C   0  0  0  0  0  0  0  0  0  0  0  0
   -4.8380    6.4420   -2.6310 C   0  0  0  0  0  0  0  0  0  0  0  0
   -6.8370    7.8330   -1.8900 C   0  0  0  0  0  0  0  0  0  0  0  0
   -0.3630   11.1080   -0.3060 C   0  0  1  0  0  0  0  0  0  0  0  0
    0.4930   10.8800    0.9690 C   0  0  0  0  0  0  0  0  0  0  0  0
    1.6260   11.9380    0.9420 C   0  0  0  0  0  0  0  0  0  0  0  0
    1.1980   12.9410   -0.1540 C   0  0  1  0  0  0  0  0  0  0  0  0
    0.1640   13.8800    0.5430 C   0  0  0  0  0  0  0  0  0  0  0  0
    2.3470   13.7520   -0.8360 C   0  0  2  0  0  0  0  0  0  0  0  0
    3.1410   14.6750    0.1040 C   0  0  0  0  0  0  0  0  0  0  0  0
    2.6130   16.0660    0.2270 C   0  0  0  0  0  0  0  0  0  0  0  0
    1.7210   16.6400   -0.6020 C   0  0  0  0  0  0  0  0  0  0  0  0
    1.2220   15.9060   -1.8530 C   0  0  1  0  0  0  0  0  0  0  0  0
    1.2650   16.8680   -3.0690 C   0  0  0  0  0  0  0  0  0  0  0  0
    0.5060   18.1670   -2.8140 C   0  0  0  0  0  0  0  0  0  0  0  0
    1.0690   18.8970   -1.5970 C   0  0  2  0  0  0  0  0  0  0  0  0
    2.3970   19.3370   -1.8970 O   0  0  0  0  0  0  0  0  0  0  0  0
    1.0860   18.0230   -0.3120 C   0  0  0  0  0  0  0  0  0  0  0  0
   -0.3640   17.7970    0.1830 C   0  0  0  0  0  0  0  0  0  0  0  0
    1.8050   18.8280    0.8040 C   0  0  0  0  0  0  0  0  0  0  0  0
    1.9120   14.5070   -2.1570 C   0  0  1  0  0  0  0  0  0  0  0  0
    3.2100   14.7250   -2.9930 C   0  0  0  0  0  0  0  0  0  0  0  0
    0.9480   13.6420   -3.0520 C   0  0  0  0  0  0  0  0  0  0  0  0
   -0.0870   12.7700   -2.3150 C   0  0  0  0  0  0  0  0  0  0  0  0
    0.5770   11.9500   -1.2050 C   0  0  2  0  0  0  0  0  0  0  0  0
    1.6060   10.9790   -1.8790 C   0  0  0  0  0  0  0  0  0  0  0  0
    0.5050    9.4151   -2.4742 H   0  0  0  0  0  0  0  0  0  0  0  0
   -1.1895    8.9548   -2.8529 H   0  0  0  0  0  0  0  0  0  0  0  0
   -0.7075   10.6852   -2.8529 H   0  0  0  0  0  0  0  0  0  0  0  0
   -0.4477    8.9510   -0.3752 H   0  0  0  0  0  0  0  0  0  0  0  0
   -2.6324    9.9730    0.4024 H   0  0  0  0  0  0  0  0  0  0  0  0
   -2.9031   10.4330   -1.3464 H   0  0  0  0  0  0  0  0  0  0  0  0
   -2.7287    8.0383   -1.9588 H   0  0  0  0  0  0  0  0  0  0  0  0
   -2.6383    7.6384   -0.1928 H   0  0  0  0  0  0  0  0  0  0  0  0
   -4.5270    9.4420   -0.6990 H   0  0  0  0  0  0  0  0  0  0  0  0
   -4.3638    5.6211   -2.0731 H   0  0  0  0  0  0  0  0  0  0  0  0
   -5.6422    6.0387   -3.2639 H   0  0  0  0  0  0  0  0  0  0  0  0
   -4.0868    6.9371   -3.2639 H   0  0  0  0  0  0  0  0  0  0  0  0
   -7.3343    7.9721   -0.9187 H   0  0  0  0  0  0  0  0  0  0  0  0
   -6.8702    8.7749   -2.4572 H   0  0  0  0  0  0  0  0  0  0  0  0
   -7.3542    7.0451   -2.4572 H   0  0  0  0  0  0  0  0  0  0  0  0
   -1.3078   11.6466   -0.1411 H   0  0  0  0  0  0  0  0  0  0  0  0
   -0.1258   11.0105    1.8690 H   0  0  0  0  0  0  0  0  0  0  0  0
    0.9051    9.8604    0.9910 H   0  0  0  0  0  0  0  0  0  0  0  0
    1.7109   12.4408    1.9166 H   0  0  0  0  0  0  0  0  0  0  0  0
    2.6095   11.4904    0.7363 H   0  0  0  0  0  0  0  0  0  0  0  0
    0.2639   13.7892    1.6347 H   0  0  0  0  0  0  0  0  0  0  0  0
    0.3535   14.9211    0.2427 H   0  0  0  0  0  0  0  0  0  0  0  0
   -0.8541   13.5913    0.2427 H   0  0  0  0  0  0  0  0  0  0  0  0
    3.0478   12.9597   -1.1379 H   0  0  0  0  0  0  0  0  0  0  0  0
    3.1406   14.2214    1.1061 H   0  0  0  0  0  0  0  0  0  0  0  0
    4.1445   14.7681   -0.3368 H   0  0  0  0  0  0  0  0  0  0  0  0
    2.9841   16.6732    1.0658 H   0  0  0  0  0  0  0  0  0  0  0  0
    0.1817   15.6173   -1.6420 H   0  0  0  0  0  0  0  0  0  0  0  0
    2.3149   17.1105   -3.2899 H   0  0  0  0  0  0  0  0  0  0  0  0
    0.7807   16.3587   -3.9152 H   0  0  0  0  0  0  0  0  0  0  0  0
    0.5966   18.8164   -3.6972 H   0  0  0  0  0  0  0  0  0  0  0  0
   -0.5497   17.9252   -2.6215 H   0  0  0  0  0  0  0  0  0  0  0  0
    0.4058   19.7493   -1.3877 H   0  0  0  0  0  0  0  0  0  0  0  0
    2.7710   18.7220   -2.5500 H   0  0  0  0  0  0  0  0  0  0  0  0
   -0.3798   17.7945    1.2829 H   0  0  0  0  0  0  0  0  0  0  0  0
   -1.0094   18.6054   -0.1912 H   0  0  0  0  0  0  0  0  0  0  0  0
   -0.7327   16.8305   -0.1912 H   0  0  0  0  0  0  0  0  0  0  0  0
    1.4782   18.4621    1.7886 H   0  0  0  0  0  0  0  0  0  0  0  0
    2.8930   18.6978    0.7071 H   0  0  0  0  0  0  0  0  0  0  0  0
    1.5532   19.8944    0.7071 H   0  0  0  0  0  0  0  0  0  0  0  0
    4.0636   14.8684   -2.3142 H   0  0  0  0  0  0  0  0  0  0  0  0
    3.3898   13.8445   -3.6273 H   0  0  0  0  0  0  0  0  0  0  0  0
    3.0923   15.6160   -3.6273 H   0  0  0  0  0  0  0  0  0  0  0  0
    0.3960   14.3306   -3.7087 H   0  0  0  0  0  0  0  0  0  0  0  0
    1.6027   12.9307   -3.5768 H   0  0  0  0  0  0  0  0  0  0  0  0
   -0.8548   13.4208   -1.8712 H   0  0  0  0  0  0  0  0  0  0  0  0
   -0.5405   12.0771   -3.0390 H   0  0  0  0  0  0  0  0  0  0  0  0
    2.1712   10.4457   -1.1004 H   0  0  0  0  0  0  0  0  0  0  0  0
    1.0681   10.2516   -2.5048 H   0  0  0  0  0  0  0  0  0  0  0  0
    2.3010   11.5581   -2.5048 H   0  0  0  0  0  0  0  0  0  0  0  0
  1  2  1  0
  2  3  1  0
  3  4  1  0
  4  5  1  0
  5  6  1  0
  6  7  1  0
  7  8  1  0
  7  9  1  0
  2 10  1  0
 10 11  1  0
 11 12  1  0
 12 13  1  0
 13 14  1  1
 13 15  1  0
 15 16  1  0
 16 17  1  0
 17 18  2  0
 18 19  1  0
 19 20  1  0
 20 21  1  0
 21 22  1  0
 22 23  1  0
 22 24  1  0
 24 25  1  0
 24 26  1  0
 19 27  1  0
 27 28  1  6
 27 29  1  0
 29 30  1  0
 30 31  1  0
 31 32  1  6
  7  5  1  0
 31 10  1  0
 31 13  1  0
 27 15  1  0
 24 18  1  0
  1 33  1  0
  1 34  1  0
  1 35  1  0
  2 36  1  1
  3 37  1  0
  3 38  1  0
  4 39  1  0
  4 40  1  0
  5 41  1  1
  8 42  1  0
  8 43  1  0
  8 44  1  0
  9 45  1  0
  9 46  1  0
  9 47  1  0
 10 48  1  1
 11 49  1  0
 11 50  1  0
 12 51  1  0
 12 52  1  0
 14 53  1  0
 14 54  1  0
 14 55  1  0
 15 56  1  6
 16 57  1  0
 16 58  1  0
 17 59  1  0
 19 60  1  1
 20 61  1  0
 20 62  1  0
 21 63  1  0
 21 64  1  0
 22 65  1  1
 23 66  1  0
 25 67  1  0
 25 68  1  0
 25 69  1  0
 26 70  1  0
 26 71  1  0
 26 72  1  0
 28 73  1  0
 28 74  1  0
 28 75  1  0
 29 76  1  0
 29 77  1  0
 30 78  1  0
 30 79  1  0
 32 80  1  0
 32 81  1  0
 32 82  1  0
M  END
>  <meeko>  (12) 
{"is_sidechain": [false], "intermolecular_energy": 2.731, "internal_energy": -0.839}

$$$$
EPH_relaxed_0001_pdb2pqr_Repair_154_r2_0001_out
     RDKit          3D

 82 86  0  0  0  0  0  0  0  0999 V2000
    4.3830   17.5720   -2.6850 C   0  0  0  0  0  0  0  0  0  0  0  0
    2.9880   17.1100   -2.2560 C   0  0  2  0  0  0  0  0  0  0  0  0
    2.6460   17.5500   -0.8190 C   0  0  0  0  0  0  0  0  0  0  0  0
    3.5560   18.6580   -0.2820 C   0  0  0  0  0  0  0  0  0  0  0  0
    3.3470   18.8860    1.1850 C   0  0  2  0  0  0  0  0  0  0  0  0
    3.7080   20.1940    1.6450 O   0  0  0  0  0  0  0  0  0  0  0  0
    4.4820   19.1030    2.1680 C   0  0  0  0  0  0  0  0  0  0  0  0
    5.9110   19.1020    1.7230 C   0  0  0  0  0  0  0  0  0  0  0  0
    4.2350   18.8280    3.6180 C   0  0  0  0  0  0  0  0  0  0  0  0
    2.8830   15.5940   -2.3750 C   0  0  1  0  0  0  0  0  0  0  0  0
    4.2640   14.9140   -2.5770 C   0  0  0  0  0  0  0  0  0  0  0  0
    4.2060   13.5540   -1.8330 C   0  0  0  0  0  0  0  0  0  0  0  0
    2.7070   13.3480   -1.5140 C   0  0  1  0  0  0  0  0  0  0  0  0
    2.0880   12.7940   -2.8360 C   0  0  0  0  0  0  0  0  0  0  0  0
    2.3810   12.4270   -0.2940 C   0  0  2  0  0  0  0  0  0  0  0  0
    2.8490   10.9680   -0.4340 C   0  0  0  0  0  0  0  0  0  0  0  0
    1.8560   10.0350   -1.0450 C   0  0  0  0  0  0  0  0  0  0  0  0
    0.5430   10.2850   -1.2040 C   0  0  0  0  0  0  0  0  0  0  0  0
   -0.0850   11.5730   -0.6570 C   0  0  1  0  0  0  0  0  0  0  0  0
   -1.4000   11.2310    0.0920 C   0  0  0  0  0  0  0  0  0  0  0  0
   -2.3710   10.4280   -0.7670 C   0  0  0  0  0  0  0  0  0  0  0  0
   -1.7300    9.1270   -1.2430 C   0  0  2  0  0  0  0  0  0  0  0  0
   -1.5060    8.2810   -0.1110 O   0  0  0  0  0  0  0  0  0  0  0  0
   -0.3920    9.3450   -2.0040 C   0  0  0  0  0  0  0  0  0  0  0  0
   -0.6760    9.9990   -3.3790 C   0  0  0  0  0  0  0  0  0  0  0  0
    0.2200    7.9500   -2.3040 C   0  0  0  0  0  0  0  0  0  0  0  0
    0.8780   12.5070    0.1960 C   0  0  1  0  0  0  0  0  0  0  0  0
    0.8710   12.0560    1.6880 C   0  0  0  0  0  0  0  0  0  0  0  0
    0.3190   13.9790    0.1740 C   0  0  0  0  0  0  0  0  0  0  0  0
    0.7730   14.8770   -0.9930 C   0  0  0  0  0  0  0  0  0  0  0  0
    2.2940   14.8240   -1.1660 C   0  0  2  0  0  0  0  0  0  0  0  0
    2.9440   15.3960    0.1400 C   0  0  0  0  0  0  0  0  0  0  0  0
    4.9930   17.7740   -1.7922 H   0  0  0  0  0  0  0  0  0  0  0  0
    4.8616   16.7844   -3.2855 H   0  0  0  0  0  0  0  0  0  0  0  0
    4.2968   18.4896   -3.2855 H   0  0  0  0  0  0  0  0  0  0  0  0
    2.2606   17.5875   -2.9290 H   0  0  0  0  0  0  0  0  0  0  0  0
    1.6086   17.9154   -0.8052 H   0  0  0  0  0  0  0  0  0  0  0  0
    2.7905   16.6729   -0.1711 H   0  0  0  0  0  0  0  0  0  0  0  0
    4.6044   18.3719   -0.4523 H   0  0  0  0  0  0  0  0  0  0  0  0
    3.3102   19.5901   -0.8120 H   0  0  0  0  0  0  0  0  0  0  0  0
    2.4852   18.2024    1.1922 H   0  0  0  0  0  0  0  0  0  0  0  0
    6.5694   19.1015    2.6042 H   0  0  0  0  0  0  0  0  0  0  0  0
    6.1063   18.2037    1.1189 H   0  0  0  0  0  0  0  0  0  0  0  0
    6.1075   20.0000    1.1189 H   0  0  0  0  0  0  0  0  0  0  0  0
    4.8460   19.5083    4.2295 H   0  0  0  0  0  0  0  0  0  0  0  0
    3.1705   18.9869    3.8452 H   0  0  0  0  0  0  0  0  0  0  0  0
    4.5069   17.7866    3.8452 H   0  0  0  0  0  0  0  0  0  0  0  0
    2.2003   15.5235   -3.2346 H   0  0  0  0  0  0  0  0  0  0  0  0
    4.4534   14.7519   -3.6484 H   0  0  0  0  0  0  0  0  0  0  0  0
    5.0758   15.5444   -2.1852 H   0  0  0  0  0  0  0  0  0  0  0  0
    4.5814   12.7436   -2.4752 H   0  0  0  0  0  0  0  0  0  0  0  0
    4.8302   13.5468   -0.9273 H   0  0  0  0  0  0  0  0  0  0  0  0
    1.2883   12.0783   -2.5947 H   0  0  0  0  0  0  0  0  0  0  0  0
    1.6708   13.6260   -3.4224 H   0  0  0  0  0  0  0  0  0  0  0  0
    2.8688   12.2875   -3.4224 H   0  0  0  0  0  0  0  0  0  0  0  0
    3.0004   12.8644    0.5029 H   0  0  0  0  0  0  0  0  0  0  0  0
    3.7532   10.9598   -1.0604 H   0  0  0  0  0  0  0  0  0  0  0  0
    3.0188   10.6035    0.5899 H   0  0  0  0  0  0  0  0  0  0  0  0
    2.2291    9.0611   -1.3947 H   0  0  0  0  0  0  0  0  0  0  0  0
   -0.3069   12.1986   -1.5341 H   0  0  0  0  0  0  0  0  0  0  0  0
   -1.1526   10.6428    0.9880 H   0  0  0  0  0  0  0  0  0  0  0  0
   -1.8916   12.1797    0.3532 H   0  0  0  0  0  0  0  0  0  0  0  0
   -3.2665   10.1921   -0.1734 H   0  0  0  0  0  0  0  0  0  0  0  0
   -2.6410   11.0294   -1.6476 H   0  0  0  0  0  0  0  0  0  0  0  0
   -2.4248    8.6602   -1.9567 H   0  0  0  0  0  0  0  0  0  0  0  0
   -0.6740    8.5610    0.3060 H   0  0  0  0  0  0  0  0  0  0  0  0
   -1.1099   10.9983   -3.2271 H   0  0  0  0  0  0  0  0  0  0  0  0
    0.2639   10.0893   -3.9432 H   0  0  0  0  0  0  0  0  0  0  0  0
   -1.3837    9.3738   -3.9432 H   0  0  0  0  0  0  0  0  0  0  0  0
    0.4450    7.4370   -1.3573 H   0  0  0  0  0  0  0  0  0  0  0  0
   -0.4982    7.3515   -2.8836 H   0  0  0  0  0  0  0  0  0  0  0  0
    1.1468    8.0731   -2.8836 H   0  0  0  0  0  0  0  0  0  0  0  0
    0.8848   12.9425    2.3391 H   0  0  0  0  0  0  0  0  0  0  0  0
   -0.0364   11.4675    1.8889 H   0  0  0  0  0  0  0  0  0  0  0  0
    1.7597   11.4397    1.8889 H   0  0  0  0  0  0  0  0  0  0  0  0
   -0.7787   13.9176    0.1392 H   0  0  0  0  0  0  0  0  0  0  0  0
    0.7255   14.4549    1.0786 H   0  0  0  0  0  0  0  0  0  0  0  0
    0.2931   14.5316   -1.9206 H   0  0  0  0  0  0  0  0  0  0  0  0
    0.4811   15.9142   -0.7715 H   0  0  0  0  0  0  0  0  0  0  0  0
    2.4472   14.9588    1.0187 H   0  0  0  0  0  0  0  0  0  0  0  0
    4.0139   15.1411    0.1591 H   0  0  0  0  0  0  0  0  0  0  0  0
    2.8272   16.4896    0.1591 H   0  0  0  0  0  0  0  0  0  0  0  0
  1  2  1  0
  2  3  1  0
  3  4  1  0
  4  5  1  0
  5  6  1  0
  6  7  1  0
  7  8  1  0
  7  9  1  0
  2 10  1  0
 10 11  1  0
 11 12  1  0
 12 13  1  0
 13 14  1  6
 13 15  1  0
 15 16  1  0
 16 17  1  0
 17 18  2  0
 18 19  1  0
 19 20  1  0
 20 21  1  0
 21 22  1  0
 22 23  1  0
 22 24  1  0
 24 25  1  0
 24 26  1  0
 19 27  1  0
 27 28  1  1
 27 29  1  0
 29 30  1  0
 30 31  1  0
 31 32  1  1
  7  5  1  0
 31 10  1  0
 31 13  1  0
 27 15  1  0
 24 18  1  0
  1 33  1  0
  1 34  1  0
  1 35  1  0
  2 36  1  6
  3 37  1  0
  3 38  1  0
  4 39  1  0
  4 40  1  0
  5 41  1  1
  8 42  1  0
  8 43  1  0
  8 44  1  0
  9 45  1  0
  9 46  1  0
  9 47  1  0
 10 48  1  6
 11 49  1  0
 11 50  1  0
 12 51  1  0
 12 52  1  0
 14 53  1  0
 14 54  1  0
 14 55  1  0
 15 56  1  1
 16 57  1  0
 16 58  1  0
 17 59  1  0
 19 60  1  6
 20 61  1  0
 20 62  1  0
 21 63  1  0
 21 64  1  0
 22 65  1  6
 23 66  1  0
 25 67  1  0
 25 68  1  0
 25 69  1  0
 26 70  1  0
 26 71  1  0
 26 72  1  0
 28 73  1  0
 28 74  1  0
 28 75  1  0
 29 76  1  0
 29 77  1  0
 30 78  1  0
 30 79  1  0
 32 80  1  0
 32 81  1  0
 32 82  1  0
M  END
>  <meeko>  (13) 
{"is_sidechain": [false], "intermolecular_energy": 2.731, "internal_energy": -0.839}

$$$$
EPH_relaxed_0001_pdb2pqr_Repair_154_r2_0001_out
     RDKit          3D

 82 86  0  0  0  0  0  0  0  0999 V2000
    0.9130    8.7040   -0.3300 C   0  0  0  0  0  0  0  0  0  0  0  0
   -0.1400    9.4770   -1.1290 C   0  0  2  0  0  0  0  0  0  0  0  0
   -0.8580    8.5840   -2.1600 C   0  0  0  0  0  0  0  0  0  0  0  0
   -2.3470    8.3820   -1.8690 C   0  0  0  0  0  0  0  0  0  0  0  0
   -2.9070    7.2160   -2.6250 C   0  0  2  0  0  0  0  0  0  0  0  0
   -3.9430    7.5490   -3.5590 O   0  0  0  0  0  0  0  0  0  0  0  0
   -4.3290    6.7140   -2.4560 C   0  0  0  0  0  0  0  0  0  0  0  0
   -5.2780    7.3670   -1.5010 C   0  0  0  0  0  0  0  0  0  0  0  0
   -4.6410    5.3030   -2.8480 C   0  0  0  0  0  0  0  0  0  0  0  0
    0.5100   10.6640   -1.8300 C   0  0  1  0  0  0  0  0  0  0  0  0
    0.1590   10.7310   -3.3410 C   0  0  0  0  0  0  0  0  0  0  0  0
    0.0590   12.2330   -3.7110 C   0  0  0  0  0  0  0  0  0  0  0  0
    0.6740   12.9750   -2.5010 C   0  0  1  0  0  0  0  0  0  0  0  0
    2.2170   12.8940   -2.7240 C   0  0  0  0  0  0  0  0  0  0  0  0
    0.1990   14.4480   -2.2800 C   0  0  2  0  0  0  0  0  0  0  0  0
    0.5420   15.4220   -3.4200 C   0  0  0  0  0  0  0  0  0  0  0  0
    1.8550   16.1220   -3.2880 C   0  0  0  0  0  0  0  0  0  0  0  0
    2.5930   16.1940   -2.1650 C   0  0  0  0  0  0  0  0  0  0  0  0
    2.0740   15.6150   -0.8430 C   0  0  1  0  0  0  0  0  0  0  0  0
    2.3000   16.6420    0.2970 C   0  0  0  0  0  0  0  0  0  0  0  0
    3.7520   17.1010    0.3910 C   0  0  0  0  0  0  0  0  0  0  0  0
    4.2130   17.7240   -0.9240 C   0  0  2  0  0  0  0  0  0  0  0  0
    3.4900   18.9410   -1.1350 O   0  0  0  0  0  0  0  0  0  0  0  0
    4.0250   16.7840   -2.1470 C   0  0  0  0  0  0  0  0  0  0  0  0
    5.0320   15.6110   -2.0630 C   0  0  0  0  0  0  0  0  0  0  0  0
    4.3950   17.5840   -3.4250 C   0  0  0  0  0  0  0  0  0  0  0  0
    0.5890   15.0490   -0.8690 C   0  0  1  0  0  0  0  0  0  0  0  0
   -0.4230   16.2000   -0.5810 C   0  0  0  0  0  0  0  0  0  0  0  0
    0.4160   14.0040    0.2950 C   0  0  0  0  0  0  0  0  0  0  0  0
    0.7890   12.5430   -0.0220 C   0  0  0  0  0  0  0  0  0  0  0  0
    0.1340   12.0810   -1.3270 C   0  0  2  0  0  0  0  0  0  0  0  0
   -1.4190   12.1300   -1.1260 C   0  0  0  0  0  0  0  0  0  0  0  0
    0.7289    8.8391    0.7460 H   0  0  0  0  0  0  0  0  0  0  0  0
    0.8518    7.6348   -0.5810 H   0  0  0  0  0  0  0  0  0  0  0  0
    1.9147    9.0828   -0.5810 H   0  0  0  0  0  0  0  0  0  0  0  0
   -0.8994    9.8346   -0.4180 H   0  0  0  0  0  0  0  0  0  0  0  0
   -0.7581    9.0494   -3.1517 H   0  0  0  0  0  0  0  0  0  0  0  0
   -0.3839    7.5926   -2.1116 H   0  0  0  0  0  0  0  0  0  0  0  0
   -2.4786    8.2044   -0.7914 H   0  0  0  0  0  0  0  0  0  0  0  0
   -2.8843    9.2872   -2.1883 H   0  0  0  0  0  0  0  0  0  0  0  0
   -1.9348    6.7021   -2.5983 H   0  0  0  0  0  0  0  0  0  0  0  0
   -4.9653    7.1518   -0.4686 H   0  0  0  0  0  0  0  0  0  0  0  0
   -5.2741    8.4545   -1.6662 H   0  0  0  0  0  0  0  0  0  0  0  0
   -6.2923    6.9747   -1.6662 H   0  0  0  0  0  0  0  0  0  0  0  0
   -4.7760    4.6924   -1.9431 H   0  0  0  0  0  0  0  0  0  0  0  0
   -5.5651    5.2839   -3.4445 H   0  0  0  0  0  0  0  0  0  0  0  0
   -3.8111    4.8961   -3.4445 H   0  0  0  0  0  0  0  0  0  0  0  0
    1.5664   10.4533   -1.6073 H   0  0  0  0  0  0  0  0  0  0  0  0
    0.9479   10.2463   -3.9349 H   0  0  0  0  0  0  0  0  0  0  0  0
   -0.7864   10.2090   -3.5503 H   0  0  0  0  0  0  0  0  0  0  0  0
    0.6288   12.4459   -4.6275 H   0  0  0  0  0  0  0  0  0  0  0  0
   -0.9768   12.5456   -3.9094 H   0  0  0  0  0  0  0  0  0  0  0  0
    2.7273   12.8672   -1.7499 H   0  0  0  0  0  0  0  0  0  0  0  0
    2.4584   11.9819   -3.2896 H   0  0  0  0  0  0  0  0  0  0  0  0
    2.5525   13.7758   -3.2896 H   0  0  0  0  0  0  0  0  0  0  0  0
   -0.8963   14.3477   -2.2929 H   0  0  0  0  0  0  0  0  0  0  0  0
    0.5533   14.8530   -4.3613 H   0  0  0  0  0  0  0  0  0  0  0  0
   -0.2265   16.2085   -3.3897 H   0  0  0  0  0  0  0  0  0  0  0  0
    2.2522   16.6207   -4.1844 H   0  0  0  0  0  0  0  0  0  0  0  0
    2.6699   14.7101   -0.6533 H   0  0  0  0  0  0  0  0  0  0  0  0
    1.6638   17.5201    0.1119 H   0  0  0  0  0  0  0  0  0  0  0  0
    2.0433   16.1492    1.2463 H   0  0  0  0  0  0  0  0  0  0  0  0
    3.8425   17.8472    1.1942 H   0  0  0  0  0  0  0  0  0  0  0  0
    4.3836   16.2264    0.6058 H   0  0  0  0  0  0  0  0  0  0  0  0
    5.2932   17.9134   -0.8391 H   0  0  0  0  0  0  0  0  0  0  0  0
    4.0760   19.5520   -1.6140 H   0  0  0  0  0  0  0  0  0  0  0  0
    5.2338   15.3759   -1.0075 H   0  0  0  0  0  0  0  0  0  0  0  0
    4.6073   14.7268   -2.5609 H   0  0  0  0  0  0  0  0  0  0  0  0
    5.9703   15.8969   -2.5609 H   0  0  0  0  0  0  0  0  0  0  0  0
    4.8408   18.5478   -3.1380 H   0  0  0  0  0  0  0  0  0  0  0  0
    5.1184   17.0085   -4.0212 H   0  0  0  0  0  0  0  0  0  0  0  0
    3.4880   17.7625   -4.0212 H   0  0  0  0  0  0  0  0  0  0  0  0
   -0.5345   16.3268    0.5060 H   0  0  0  0  0  0  0  0  0  0  0  0
   -0.0497   17.1356   -1.0229 H   0  0  0  0  0  0  0  0  0  0  0  0
   -1.3987   15.9495   -1.0229 H   0  0  0  0  0  0  0  0  0  0  0  0
    1.0458   14.3336    1.1345 H   0  0  0  0  0  0  0  0  0  0  0  0
   -0.6631   13.9860    0.5076 H   0  0  0  0  0  0  0  0  0  0  0  0
    1.8817   12.4637   -0.1201 H   0  0  0  0  0  0  0  0  0  0  0  0
    0.4286   11.9033    0.7971 H   0  0  0  0  0  0  0  0  0  0  0  0
   -1.6495   12.1373   -0.0504 H   0  0  0  0  0  0  0  0  0  0  0  0
   -1.8206   13.0413   -1.5932 H   0  0  0  0  0  0  0  0  0  0  0  0
   -1.8773   11.2459   -1.5932 H   0  0  0  0  0  0  0  0  0  0  0  0
  1  2  1  0
  2  3  1  0
  3  4  1  0
  4  5  1  0
  5  6  1  0
  6  7  1  0
  7  8  1  0
  7  9  1  0
  2 10  1  0
 10 11  1  0
 11 12  1  0
 12 13  1  0
 13 14  1  6
 13 15  1  0
 15 16  1  0
 16 17  1  0
 17 18  2  0
 18 19  1  0
 19 20  1  0
 20 21  1  0
 21 22  1  0
 22 23  1  0
 22 24  1  0
 24 25  1  0
 24 26  1  0
 19 27  1  0
 27 28  1  1
 27 29  1  0
 29 30  1  0
 30 31  1  0
 31 32  1  1
  7  5  1  0
 31 10  1  0
 31 13  1  0
 27 15  1  0
 24 18  1  0
  1 33  1  0
  1 34  1  0
  1 35  1  0
  2 36  1  1
  3 37  1  0
  3 38  1  0
  4 39  1  0
  4 40  1  0
  5 41  1  6
  8 42  1  0
  8 43  1  0
  8 44  1  0
  9 45  1  0
  9 46  1  0
  9 47  1  0
 10 48  1  6
 11 49  1  0
 11 50  1  0
 12 51  1  0
 12 52  1  0
 14 53  1  0
 14 54  1  0
 14 55  1  0
 15 56  1  1
 16 57  1  0
 16 58  1  0
 17 59  1  0
 19 60  1  1
 20 61  1  0
 20 62  1  0
 21 63  1  0
 21 64  1  0
 22 65  1  1
 23 66  1  0
 25 67  1  0
 25 68  1  0
 25 69  1  0
 26 70  1  0
 26 71  1  0
 26 72  1  0
 28 73  1  0
 28 74  1  0
 28 75  1  0
 29 76  1  0
 29 77  1  0
 30 78  1  0
 30 79  1  0
 32 80  1  0
 32 81  1  0
 32 82  1  0
M  END
>  <meeko>  (14) 
{"is_sidechain": [false], "intermolecular_energy": 2.731, "internal_energy": -0.839}

$$$$
EPH_relaxed_0001_pdb2pqr_Repair_154_r2_0001_out
     RDKit          3D

 82 86  0  0  0  0  0  0  0  0999 V2000
    0.4370    8.9780   -2.5360 C   0  0  0  0  0  0  0  0  0  0  0  0
    1.2150   10.1420   -3.1570 C   0  0  2  0  0  0  0  0  0  0  0  0
    2.7050   10.1220   -2.7600 C   0  0  0  0  0  0  0  0  0  0  0  0
    3.6460   10.5760   -3.8800 C   0  0  0  0  0  0  0  0  0  0  0  0
    5.0320   10.8290   -3.3700 C   0  0  2  0  0  0  0  0  0  0  0  0
    5.6200   12.0570   -3.8190 O   0  0  0  0  0  0  0  0  0  0  0  0
    6.2600   10.8490   -4.2600 C   0  0  0  0  0  0  0  0  0  0  0  0
    6.1590   10.6100   -5.7340 C   0  0  0  0  0  0  0  0  0  0  0  0
    7.6010   10.6140   -3.6360 C   0  0  0  0  0  0  0  0  0  0  0  0
    0.5840   11.4670   -2.7450 C   0  0  1  0  0  0  0  0  0  0  0  0
   -0.6700   11.2790   -1.8510 C   0  0  0  0  0  0  0  0  0  0  0  0
   -0.6790   12.4540   -0.8390 C   0  0  0  0  0  0  0  0  0  0  0  0
    0.3700   13.4500   -1.3890 C   0  0  1  0  0  0  0  0  0  0  0  0
   -0.3780   14.2420   -2.5070 C   0  0  0  0  0  0  0  0  0  0  0  0
    1.0270   14.4080   -0.3430 C   0  0  2  0  0  0  0  0  0  0  0  0
    0.0560   15.3720    0.3600 C   0  0  0  0  0  0  0  0  0  0  0  0
   -0.1320   16.6910   -0.3130 C   0  0  0  0  0  0  0  0  0  0  0  0
    0.6620   17.2000   -1.2730 C   0  0  0  0  0  0  0  0  0  0  0  0
    1.9390   16.4690   -1.7080 C   0  0  1  0  0  0  0  0  0  0  0  0
    3.1120   17.4800   -1.7880 C   0  0  0  0  0  0  0  0  0  0  0  0
    2.7940   18.6780   -2.6770 C   0  0  0  0  0  0  0  0  0  0  0  0
    1.5520   19.4120   -2.1790 C   0  0  2  0  0  0  0  0  0  0  0  0
    1.8460   20.0060   -0.9100 O   0  0  0  0  0  0  0  0  0  0  0  0
    0.3060   18.4920   -2.0490 C   0  0  0  0  0  0  0  0  0  0  0  0
   -0.1930   18.0910   -3.4590 C   0  0  0  0  0  0  0  0  0  0  0  0
   -0.8360   19.3220   -1.4040 C   0  0  0  0  0  0  0  0  0  0  0  0
    2.3100   15.1670   -0.8760 C   0  0  1  0  0  0  0  0  0  0  0  0
    3.1490   15.5580    0.3780 C   0  0  0  0  0  0  0  0  0  0  0  0
    3.2310   14.2400   -1.7550 C   0  0  0  0  0  0  0  0  0  0  0  0
    2.5230   13.2320   -2.6800 C   0  0  0  0  0  0  0  0  0  0  0  0
    1.4560   12.4420   -1.9150 C   0  0  2  0  0  0  0  0  0  0  0  0
    2.1810   11.6180   -0.7970 C   0  0  0  0  0  0  0  0  0  0  0  0
    0.4844    9.0489   -1.4393 H   0  0  0  0  0  0  0  0  0  0  0  0
   -0.6128    9.0236   -2.8613 H   0  0  0  0  0  0  0  0  0  0  0  0
    0.8806    8.0254   -2.8613 H   0  0  0  0  0  0  0  0  0  0  0  0
    1.1631   10.0292   -4.2500 H   0  0  0  0  0  0  0  0  0  0  0  0
    2.8437   10.7904   -1.8974 H   0  0  0  0  0  0  0  0  0  0  0  0
    2.9620    9.0781   -2.5272 H   0  0  0  0  0  0  0  0  0  0  0  0
    3.6872    9.7923   -4.6508 H   0  0  0  0  0  0  0  0  0  0  0  0
    3.2561   11.5169   -4.2955 H   0  0  0  0  0  0  0  0  0  0  0  0
    4.8091   10.2991   -2.4322 H   0  0  0  0  0  0  0  0  0  0  0  0
    5.7367    9.6106   -5.9153 H   0  0  0  0  0  0  0  0  0  0  0  0
    5.5057   11.3715   -6.1850 H   0  0  0  0  0  0  0  0  0  0  0  0
    7.1604   10.6722   -6.1850 H   0  0  0  0  0  0  0  0  0  0  0  0
    7.5037   10.6311   -2.5404 H   0  0  0  0  0  0  0  0  0  0  0  0
    7.9871    9.6345   -3.9546 H   0  0  0  0  0  0  0  0  0  0  0  0
    8.2972   11.4038   -3.9546 H   0  0  0  0  0  0  0  0  0  0  0  0
    0.3849   11.8935   -3.7392 H   0  0  0  0  0  0  0  0  0  0  0  0
   -1.5811   11.3027   -2.4669 H   0  0  0  0  0  0  0  0  0  0  0  0
   -0.6422   10.3102   -1.3307 H   0  0  0  0  0  0  0  0  0  0  0  0
   -1.6736   12.9218   -0.7958 H   0  0  0  0  0  0  0  0  0  0  0  0
   -0.4460   12.1252    0.1845 H   0  0  0  0  0  0  0  0  0  0  0  0
   -1.0637   14.9680   -2.0458 H   0  0  0  0  0  0  0  0  0  0  0  0
    0.3543   14.7747   -3.1315 H   0  0  0  0  0  0  0  0  0  0  0  0
   -0.9517   13.5413   -3.1315 H   0  0  0  0  0  0  0  0  0  0  0  0
    1.3686   13.7091    0.4347 H   0  0  0  0  0  0  0  0  0  0  0  0
   -0.9256   14.8796    0.4230 H   0  0  0  0  0  0  0  0  0  0  0  0
    0.5025   15.5918    1.3410 H   0  0  0  0  0  0  0  0  0  0  0  0
   -0.9928   17.2987    0.0026 H   0  0  0  0  0  0  0  0  0  0  0  0
    1.7304   16.0601   -2.7076 H   0  0  0  0  0  0  0  0  0  0  0  0
    3.3340   17.8430   -0.7737 H   0  0  0  0  0  0  0  0  0  0  0  0
    3.9733   16.9569   -2.2292 H   0  0  0  0  0  0  0  0  0  0  0  0
    3.6490   19.3700   -2.6680 H   0  0  0  0  0  0  0  0  0  0  0  0
    2.6026   18.3166   -3.6981 H   0  0  0  0  0  0  0  0  0  0  0  0
    1.2991   20.1772   -2.9277 H   0  0  0  0  0  0  0  0  0  0  0  0
    1.0010   20.2670   -0.5050 H   0  0  0  0  0  0  0  0  0  0  0  0
   -1.0472   17.4045   -3.3641 H   0  0  0  0  0  0  0  0  0  0  0  0
   -0.5057   18.9919   -4.0072 H   0  0  0  0  0  0  0  0  0  0  0  0
    0.6195   17.5917   -4.0072 H   0  0  0  0  0  0  0  0  0  0  0  0
   -0.7572   19.2647   -0.3083 H   0  0  0  0  0  0  0  0  0  0  0  0
   -0.7521   20.3713   -1.7233 H   0  0  0  0  0  0  0  0  0  0  0  0
   -1.8081   18.9182   -1.7233 H   0  0  0  0  0  0  0  0  0  0  0  0
    2.5901   15.2975    1.2889 H   0  0  0  0  0  0  0  0  0  0  0  0
    4.1039   15.0121    0.3651 H   0  0  0  0  0  0  0  0  0  0  0  0
    3.3451   16.6403    0.3651 H   0  0  0  0  0  0  0  0  0  0  0  0
    3.8525   14.8916   -2.3869 H   0  0  0  0  0  0  0  0  0  0  0  0
    3.7908   13.6251   -1.0349 H   0  0  0  0  0  0  0  0  0  0  0  0
    2.0437   13.7771   -3.5065 H   0  0  0  0  0  0  0  0  0  0  0  0
    3.2718   12.5257   -3.0679 H   0  0  0  0  0  0  0  0  0  0  0  0
    1.8618   11.9808    0.1912 H   0  0  0  0  0  0  0  0  0  0  0  0
    1.9208   10.5541   -0.8986 H   0  0  0  0  0  0  0  0  0  0  0  0
    3.2694   11.7406   -0.8986 H   0  0  0  0  0  0  0  0  0  0  0  0
  1  2  1  0
  2  3  1  0
  3  4  1  0
  4  5  1  0
  5  6  1  0
  6  7  1  0
  7  8  1  0
  7  9  1  0
  2 10  1  0
 10 11  1  0
 11 12  1  0
 12 13  1  0
 13 14  1  6
 13 15  1  0
 15 16  1  0
 16 17  1  0
 17 18  2  0
 18 19  1  0
 19 20  1  0
 20 21  1  0
 21 22  1  0
 22 23  1  0
 22 24  1  0
 24 25  1  0
 24 26  1  0
 19 27  1  0
 27 28  1  1
 27 29  1  0
 29 30  1  0
 30 31  1  0
 31 32  1  1
  7  5  1  0
 31 10  1  0
 31 13  1  0
 27 15  1  0
 24 18  1  0
  1 33  1  0
  1 34  1  0
  1 35  1  0
  2 36  1  6
  3 37  1  0
  3 38  1  0
  4 39  1  0
  4 40  1  0
  5 41  1  1
  8 42  1  0
  8 43  1  0
  8 44  1  0
  9 45  1  0
  9 46  1  0
  9 47  1  0
 10 48  1  6
 11 49  1  0
 11 50  1  0
 12 51  1  0
 12 52  1  0
 14 53  1  0
 14 54  1  0
 14 55  1  0
 15 56  1  1
 16 57  1  0
 16 58  1  0
 17 59  1  0
 19 60  1  6
 20 61  1  0
 20 62  1  0
 21 63  1  0
 21 64  1  0
 22 65  1  6
 23 66  1  0
 25 67  1  0
 25 68  1  0
 25 69  1  0
 26 70  1  0
 26 71  1  0
 26 72  1  0
 28 73  1  0
 28 74  1  0
 28 75  1  0
 29 76  1  0
 29 77  1  0
 30 78  1  0
 30 79  1  0
 32 80  1  0
 32 81  1  0
 32 82  1  0
M  END
>  <meeko>  (15) 
{"is_sidechain": [false], "intermolecular_energy": 2.731, "internal_energy": -0.839}

$$$$
EPH_relaxed_0001_pdb2pqr_Repair_154_r2_0001_out
     RDKit          3D

 82 86  0  0  0  0  0  0  0  0999 V2000
   -5.2010    5.8440   -1.5790 C   0  0  0  0  0  0  0  0  0  0  0  0
   -5.4520    7.3420   -1.7750 C   0  0  2  0  0  0  0  0  0  0  0  0
   -5.1830    8.1490   -0.4890 C   0  0  0  0  0  0  0  0  0  0  0  0
   -4.2010    9.3070   -0.6830 C   0  0  0  0  0  0  0  0  0  0  0  0
   -2.7920    8.8970   -0.3740 C   0  0  2  0  0  0  0  0  0  0  0  0
   -2.1770    9.6300    0.6930 O   0  0  0  0  0  0  0  0  0  0  0  0
   -1.5900    9.7930   -0.6080 C   0  0  0  0  0  0  0  0  0  0  0  0
   -1.7410   11.1690   -1.1760 C   0  0  0  0  0  0  0  0  0  0  0  0
   -0.2410    9.1580   -0.7450 C   0  0  0  0  0  0  0  0  0  0  0  0
   -6.8830    7.5720   -2.2450 C   0  0  1  0  0  0  0  0  0  0  0  0
   -7.1850    6.8800   -3.6010 C   0  0  0  0  0  0  0  0  0  0  0  0
   -8.6610    6.4090   -3.5440 C   0  0  0  0  0  0  0  0  0  0  0  0
   -9.2530    7.1290   -2.3100 C   0  0  1  0  0  0  0  0  0  0  0  0
   -9.5980    8.5660   -2.8100 C   0  0  0  0  0  0  0  0  0  0  0  0
  -10.4830    6.4420   -1.6330 C   0  0  2  0  0  0  0  0  0  0  0  0
  -11.7330    6.3210   -2.5220 C   0  0  0  0  0  0  0  0  0  0  0  0
  -12.6860    7.4680   -2.4430 C   0  0  0  0  0  0  0  0  0  0  0  0
  -12.6920    8.4150   -1.4860 C   0  0  0  0  0  0  0  0  0  0  0  0
  -11.7340    8.3330   -0.2910 C   0  0  1  0  0  0  0  0  0  0  0  0
  -12.5150    8.6110    1.0200 C   0  0  0  0  0  0  0  0  0  0  0  0
  -13.2820    9.9290    0.9760 C   0  0  0  0  0  0  0  0  0  0  0  0
  -14.2660    9.9490   -0.1910 C   0  0  2  0  0  0  0  0  0  0  0  0
  -15.2870    8.9750    0.0510 O   0  0  0  0  0  0  0  0  0  0  0  0
  -13.5940    9.6710   -1.5650 C   0  0  0  0  0  0  0  0  0  0  0  0
  -12.7110   10.8790   -1.9660 C   0  0  0  0  0  0  0  0  0  0  0  0
  -14.7150    9.5780   -2.6350 C   0  0  0  0  0  0  0  0  0  0  0  0
  -10.8440    7.0190   -0.2040 C   0  0  1  0  0  0  0  0  0  0  0  0
  -11.6240    5.8970    0.5460 C   0  0  0  0  0  0  0  0  0  0  0  0
   -9.5620    7.3220    0.6590 C   0  0  0  0  0  0  0  0  0  0  0  0
   -8.3390    7.8880   -0.0870 C   0  0  0  0  0  0  0  0  0  0  0  0
   -8.0230    7.0540   -1.3330 C   0  0  2  0  0  0  0  0  0  0  0  0
   -7.6500    5.6080   -0.8580 C   0  0  0  0  0  0  0  0  0  0  0  0
   -5.1628    5.6163   -0.5035 H   0  0  0  0  0  0  0  0  0  0  0  0
   -6.0157    5.2715   -2.0464 H   0  0  0  0  0  0  0  0  0  0  0  0
   -4.2441    5.5683   -2.0464 H   0  0  0  0  0  0  0  0  0  0  0  0
   -4.7476    7.6982   -2.5412 H   0  0  0  0  0  0  0  0  0  0  0  0
   -6.1383    8.5602   -0.1309 H   0  0  0  0  0  0  0  0  0  0  0  0
   -4.7259    7.4578    0.2344 H   0  0  0  0  0  0  0  0  0  0  0  0
   -4.2524    9.6467   -1.7280 H   0  0  0  0  0  0  0  0  0  0  0  0
   -4.4825   10.1149    0.0084 H   0  0  0  0  0  0  0  0  0  0  0  0
   -3.0049    7.8576   -0.6644 H   0  0  0  0  0  0  0  0  0  0  0  0
   -1.8209   11.8975   -0.3557 H   0  0  0  0  0  0  0  0  0  0  0  0
   -0.8637   11.4085   -1.7949 H   0  0  0  0  0  0  0  0  0  0  0  0
   -2.6493   11.2126   -1.7949 H   0  0  0  0  0  0  0  0  0  0  0  0
    0.1752    8.9621    0.2542 H   0  0  0  0  0  0  0  0  0  0  0  0
   -0.3361    8.2101   -1.2949 H   0  0  0  0  0  0  0  0  0  0  0  0
    0.4289    9.8353   -1.2949 H   0  0  0  0  0  0  0  0  0  0  0  0
   -6.8932    8.6716   -2.2728 H   0  0  0  0  0  0  0  0  0  0  0  0
   -7.0461    7.5913   -4.4285 H   0  0  0  0  0  0  0  0  0  0  0  0
   -6.5060    6.0315   -3.7712 H   0  0  0  0  0  0  0  0  0  0  0  0
   -9.1975    6.7015   -4.4587 H   0  0  0  0  0  0  0  0  0  0  0  0
   -8.7471    5.3149   -3.4697 H   0  0  0  0  0  0  0  0  0  0  0  0
   -9.7567    9.2269   -1.9451 H   0  0  0  0  0  0  0  0  0  0  0  0
   -8.7670    8.9518   -3.4187 H   0  0  0  0  0  0  0  0  0  0  0  0
  -10.5136    8.5325   -3.4187 H   0  0  0  0  0  0  0  0  0  0  0  0
  -10.1236    5.4137   -1.4798 H   0  0  0  0  0  0  0  0  0  0  0  0
  -11.3996    6.2275   -3.5661 H   0  0  0  0  0  0  0  0  0  0  0  0
  -12.2835    5.4424   -2.1546 H   0  0  0  0  0  0  0  0  0  0  0  0
  -13.4472    7.5457   -3.2333 H   0  0  0  0  0  0  0  0  0  0  0  0
  -10.9818    9.1195   -0.4510 H   0  0  0  0  0  0  0  0  0  0  0  0
  -13.2306    7.7920    1.1845 H   0  0  0  0  0  0  0  0  0  0  0  0
  -11.7819    8.6785    1.8373 H   0  0  0  0  0  0  0  0  0  0  0  0
  -13.8373   10.0539    1.9173 H   0  0  0  0  0  0  0  0  0  0  0  0
  -12.5621   10.7499    0.8423 H   0  0  0  0  0  0  0  0  0  0  0  0
  -14.6887   10.9629   -0.2487 H   0  0  0  0  0  0  0  0  0  0  0  0
  -14.8640    8.2000    0.4570 H   0  0  0  0  0  0  0  0  0  0  0  0
  -12.3436   11.3817   -1.0592 H   0  0  0  0  0  0  0  0  0  0  0  0
  -11.8561   10.5266   -2.5618 H   0  0  0  0  0  0  0  0  0  0  0  0
  -13.3063   11.5866   -2.5618 H   0  0  0  0  0  0  0  0  0  0  0  0
  -15.6921    9.4969   -2.1363 H   0  0  0  0  0  0  0  0  0  0  0  0
  -14.6978   10.4807   -3.2634 H   0  0  0  0  0  0  0  0  0  0  0  0
  -14.5493    8.6905   -3.2634 H   0  0  0  0  0  0  0  0  0  0  0  0
  -11.5226    6.0428    1.6316 H   0  0  0  0  0  0  0  0  0  0  0  0
  -12.6873    5.9409    0.2678 H   0  0  0  0  0  0  0  0  0  0  0  0
  -11.2124    4.9155    0.2678 H   0  0  0  0  0  0  0  0  0  0  0  0
   -9.8463    8.0507    1.4324 H   0  0  0  0  0  0  0  0  0  0  0  0
   -9.2367    6.3440    1.0434 H   0  0  0  0  0  0  0  0  0  0  0  0
   -8.5506    8.9237   -0.3912 H   0  0  0  0  0  0  0  0  0  0  0  0
   -7.4704    7.8548    0.5871 H   0  0  0  0  0  0  0  0  0  0  0  0
   -7.6412    5.5741    0.2414 H   0  0  0  0  0  0  0  0  0  0  0  0
   -8.3931    4.8931   -1.2410 H   0  0  0  0  0  0  0  0  0  0  0  0
   -6.6538    5.3418   -1.2410 H   0  0  0  0  0  0  0  0  0  0  0  0
  1  2  1  0
  2  3  1  0
  3  4  1  0
  4  5  1  0
  5  6  1  0
  6  7  1  0
  7  8  1  0
  7  9  1  0
  2 10  1  0
 10 11  1  0
 11 12  1  0
 12 13  1  0
 13 14  1  6
 13 15  1  0
 15 16  1  0
 16 17  1  0
 17 18  2  0
 18 19  1  0
 19 20  1  0
 20 21  1  0
 21 22  1  0
 22 23  1  0
 22 24  1  0
 24 25  1  0
 24 26  1  0
 19 27  1  0
 27 28  1  1
 27 29  1  0
 29 30  1  0
 30 31  1  0
 31 32  1  1
  7  5  1  0
 31 10  1  0
 31 13  1  0
 27 15  1  0
 24 18  1  0
  1 33  1  0
  1 34  1  0
  1 35  1  0
  2 36  1  6
  3 37  1  0
  3 38  1  0
  4 39  1  0
  4 40  1  0
  5 41  1  1
  8 42  1  0
  8 43  1  0
  8 44  1  0
  9 45  1  0
  9 46  1  0
  9 47  1  0
 10 48  1  6
 11 49  1  0
 11 50  1  0
 12 51  1  0
 12 52  1  0
 14 53  1  0
 14 54  1  0
 14 55  1  0
 15 56  1  1
 16 57  1  0
 16 58  1  0
 17 59  1  0
 19 60  1  6
 20 61  1  0
 20 62  1  0
 21 63  1  0
 21 64  1  0
 22 65  1  6
 23 66  1  0
 25 67  1  0
 25 68  1  0
 25 69  1  0
 26 70  1  0
 26 71  1  0
 26 72  1  0
 28 73  1  0
 28 74  1  0
 28 75  1  0
 29 76  1  0
 29 77  1  0
 30 78  1  0
 30 79  1  0
 32 80  1  0
 32 81  1  0
 32 82  1  0
M  END
>  <meeko>  (16) 
{"is_sidechain": [false], "intermolecular_energy": 2.731, "internal_energy": -0.839}

$$$$
EPH_relaxed_0001_pdb2pqr_Repair_154_r2_0001_out
     RDKit          3D

 82 86  0  0  0  0  0  0  0  0999 V2000
    2.5070   10.4700   -3.5620 C   0  0  0  0  0  0  0  0  0  0  0  0
    1.6100   10.1950   -2.3510 C   0  0  2  0  0  0  0  0  0  0  0  0
    0.1990    9.7330   -2.7670 C   0  0  0  0  0  0  0  0  0  0  0  0
   -0.3540    8.5940   -1.9070 C   0  0  0  0  0  0  0  0  0  0  0  0
   -1.7770    8.8410   -1.5080 C   0  0  2  0  0  0  0  0  0  0  0  0
   -2.1800   10.2160   -1.5460 O   0  0  0  0  0  0  0  0  0  0  0  0
   -2.1760    9.5930   -0.2520 C   0  0  0  0  0  0  0  0  0  0  0  0
   -1.1490   10.1440    0.6870 C   0  0  0  0  0  0  0  0  0  0  0  0
   -3.5440    9.3670    0.3130 C   0  0  0  0  0  0  0  0  0  0  0  0
    1.5150   11.4430   -1.4810 C   0  0  1  0  0  0  0  0  0  0  0  0
    2.3520   11.3290   -0.1790 C   0  0  0  0  0  0  0  0  0  0  0  0
    2.9040   12.7460    0.1230 C   0  0  0  0  0  0  0  0  0  0  0  0
    2.1070   13.6830   -0.8130 C   0  0  1  0  0  0  0  0  0  0  0  0
    0.7480   13.9200   -0.0810 C   0  0  0  0  0  0  0  0  0  0  0  0
    2.7990   15.0320   -1.1940 C   0  0  2  0  0  0  0  0  0  0  0  0
    3.0820   15.9770   -0.0130 C   0  0  0  0  0  0  0  0  0  0  0  0
    1.9940   16.9490    0.3000 C   0  0  0  0  0  0  0  0  0  0  0  0
    0.9610   17.2550   -0.5070 C   0  0  0  0  0  0  0  0  0  0  0  0
    0.8680   16.6690   -1.9220 C   0  0  1  0  0  0  0  0  0  0  0  0
    0.5130   17.7970   -2.9270 C   0  0  0  0  0  0  0  0  0  0  0  0
   -0.7450   18.5620   -2.5280 C   0  0  0  0  0  0  0  0  0  0  0  0
   -0.5910   19.1780   -1.1400 C   0  0  2  0  0  0  0  0  0  0  0  0
    0.4150   20.1940   -1.1950 O   0  0  0  0  0  0  0  0  0  0  0  0
   -0.2240   18.1380   -0.0450 C   0  0  0  0  0  0  0  0  0  0  0  0
   -1.4390   17.2170    0.2270 C   0  0  0  0  0  0  0  0  0  0  0  0
    0.0400   18.9090    1.2770 C   0  0  0  0  0  0  0  0  0  0  0  0
    2.1100   15.7980   -2.3950 C   0  0  1  0  0  0  0  0  0  0  0  0
    3.2010   16.7220   -3.0190 C   0  0  0  0  0  0  0  0  0  0  0  0
    1.6470   14.8220   -3.5410 C   0  0  0  0  0  0  0  0  0  0  0  0
    1.0820   13.4570   -3.1040 C   0  0  0  0  0  0  0  0  0  0  0  0
    2.0110   12.7770   -2.0940 C   0  0  2  0  0  0  0  0  0  0  0  0
    3.3790   12.5060   -2.8090 C   0  0  0  0  0  0  0  0  0  0  0  0
    3.5055   10.7761   -3.2167 H   0  0  0  0  0  0  0  0  0  0  0  0
    2.5930    9.5570   -4.1694 H   0  0  0  0  0  0  0  0  0  0  0  0
    2.0665   11.2744   -4.1694 H   0  0  0  0  0  0  0  0  0  0  0  0
    2.0692    9.3764   -1.7774 H   0  0  0  0  0  0  0  0  0  0  0  0
   -0.4847   10.5911   -2.6882 H   0  0  0  0  0  0  0  0  0  0  0  0
    0.2761    9.3509   -3.7956 H   0  0  0  0  0  0  0  0  0  0  0  0
   -0.3022    7.6568   -2.4806 H   0  0  0  0  0  0  0  0  0  0  0  0
    0.2525    8.5301   -0.9915 H   0  0  0  0  0  0  0  0  0  0  0  0
   -2.0838    7.8652   -1.9127 H   0  0  0  0  0  0  0  0  0  0  0  0
   -1.4708    9.9714    1.7246 H   0  0  0  0  0  0  0  0  0  0  0  0
   -0.1861    9.6414    0.5132 H   0  0  0  0  0  0  0  0  0  0  0  0
   -1.0353   11.2242    0.5132 H   0  0  0  0  0  0  0  0  0  0  0  0
   -3.4929    9.3754    1.4118 H   0  0  0  0  0  0  0  0  0  0  0  0
   -4.2185   10.1659   -0.0288 H   0  0  0  0  0  0  0  0  0  0  0  0
   -3.9257    8.3936   -0.0288 H   0  0  0  0  0  0  0  0  0  0  0  0
    0.4260   11.4800   -1.3304 H   0  0  0  0  0  0  0  0  0  0  0  0
    1.7170   10.9850    0.6507 H   0  0  0  0  0  0  0  0  0  0  0  0
    3.1701   10.6033   -0.2975 H   0  0  0  0  0  0  0  0  0  0  0  0
    2.7334   13.0127    1.1764 H   0  0  0  0  0  0  0  0  0  0  0  0
    3.9892   12.8150   -0.0433 H   0  0  0  0  0  0  0  0  0  0  0  0
    0.9078   13.8921    1.0070 H   0  0  0  0  0  0  0  0  0  0  0  0
    0.3438   14.9022   -0.3672 H   0  0  0  0  0  0  0  0  0  0  0  0
    0.0352   13.1326   -0.3672 H   0  0  0  0  0  0  0  0  0  0  0  0
    3.7841   14.6981   -1.5519 H   0  0  0  0  0  0  0  0  0  0  0  0
    3.2550   15.3607    0.8816 H   0  0  0  0  0  0  0  0  0  0  0  0
    3.9535   16.5800   -0.3077 H   0  0  0  0  0  0  0  0  0  0  0  0
    2.0400   17.4591    1.2735 H   0  0  0  0  0  0  0  0  0  0  0  0
    0.0563   15.9272   -1.8915 H   0  0  0  0  0  0  0  0  0  0  0  0
    1.3547   18.5035   -2.9757 H   0  0  0  0  0  0  0  0  0  0  0  0
    0.3221   17.3266   -3.9028 H   0  0  0  0  0  0  0  0  0  0  0  0
   -0.9264   19.3633   -3.2595 H   0  0  0  0  0  0  0  0  0  0  0  0
   -1.5918   17.8601   -2.5089 H   0  0  0  0  0  0  0  0  0  0  0  0
   -1.5666   19.6001   -0.8570 H   0  0  0  0  0  0  0  0  0  0  0  0
    1.1250   19.9390   -0.5820 H   0  0  0  0  0  0  0  0  0  0  0  0
   -1.5815   17.1090    1.3124 H   0  0  0  0  0  0  0  0  0  0  0  0
   -2.3418   17.6597   -0.2191 H   0  0  0  0  0  0  0  0  0  0  0  0
   -1.2567   16.2282   -0.2191 H   0  0  0  0  0  0  0  0  0  0  0  0
   -0.1837   18.2558    2.1333 H   0  0  0  0  0  0  0  0  0  0  0  0
    1.0950   19.2177    1.3170 H   0  0  0  0  0  0  0  0  0  0  0  0
   -0.6044   19.7996    1.3170 H   0  0  0  0  0  0  0  0  0  0  0  0
    3.7740   17.2073   -2.2152 H   0  0  0  0  0  0  0  0  0  0  0  0
    3.8796   16.1198   -3.6409 H   0  0  0  0  0  0  0  0  0  0  0  0
    2.7187   17.4905   -3.6409 H   0  0  0  0  0  0  0  0  0  0  0  0
    0.8656   15.3357   -4.1203 H   0  0  0  0  0  0  0  0  0  0  0  0
    2.5609   14.5878   -4.1067 H   0  0  0  0  0  0  0  0  0  0  0  0
    0.0956   13.6074   -2.6410 H   0  0  0  0  0  0  0  0  0  0  0  0
    0.9967   12.8124   -3.9913 H   0  0  0  0  0  0  0  0  0  0  0  0
    4.1632   12.3507   -2.0534 H   0  0  0  0  0  0  0  0  0  0  0  0
    3.2925   11.6075   -3.4377 H   0  0  0  0  0  0  0  0  0  0  0  0
    3.6415   13.3696   -3.4377 H   0  0  0  0  0  0  0  0  0  0  0  0
  1  2  1  0
  2  3  1  0
  3  4  1  0
  4  5  1  0
  5  6  1  0
  6  7  1  0
  7  8  1  0
  7  9  1  0
  2 10  1  0
 10 11  1  0
 11 12  1  0
 12 13  1  0
 13 14  1  1
 13 15  1  0
 15 16  1  0
 16 17  1  0
 17 18  2  0
 18 19  1  0
 19 20  1  0
 20 21  1  0
 21 22  1  0
 22 23  1  0
 22 24  1  0
 24 25  1  0
 24 26  1  0
 19 27  1  0
 27 28  1  6
 27 29  1  0
 29 30  1  0
 30 31  1  0
 31 32  1  6
  7  5  1  0
 31 10  1  0
 31 13  1  0
 27 15  1  0
 24 18  1  0
  1 33  1  0
  1 34  1  0
  1 35  1  0
  2 36  1  1
  3 37  1  0
  3 38  1  0
  4 39  1  0
  4 40  1  0
  5 41  1  6
  8 42  1  0
  8 43  1  0
  8 44  1  0
  9 45  1  0
  9 46  1  0
  9 47  1  0
 10 48  1  1
 11 49  1  0
 11 50  1  0
 12 51  1  0
 12 52  1  0
 14 53  1  0
 14 54  1  0
 14 55  1  0
 15 56  1  6
 16 57  1  0
 16 58  1  0
 17 59  1  0
 19 60  1  1
 20 61  1  0
 20 62  1  0
 21 63  1  0
 21 64  1  0
 22 65  1  1
 23 66  1  0
 25 67  1  0
 25 68  1  0
 25 69  1  0
 26 70  1  0
 26 71  1  0
 26 72  1  0
 28 73  1  0
 28 74  1  0
 28 75  1  0
 29 76  1  0
 29 77  1  0
 30 78  1  0
 30 79  1  0
 32 80  1  0
 32 81  1  0
 32 82  1  0
M  END
>  <meeko>  (17) 
{"is_sidechain": [false], "intermolecular_energy": 2.731, "internal_energy": -0.839}

$$$$
EPH_relaxed_0001_pdb2pqr_Repair_154_r2_0001_out
     RDKit          3D

 82 86  0  0  0  0  0  0  0  0999 V2000
    4.9980   16.5060   -3.1350 C   0  0  0  0  0  0  0  0  0  0  0  0
    3.6850   16.7520   -2.3850 C   0  0  2  0  0  0  0  0  0  0  0  0
    3.7710   17.9760   -1.4520 C   0  0  0  0  0  0  0  0  0  0  0  0
    2.5990   18.9500   -1.6050 C   0  0  0  0  0  0  0  0  0  0  0  0
    1.9590   19.2600   -0.2860 C   0  0  2  0  0  0  0  0  0  0  0  0
    1.1470   18.2060    0.2480 O   0  0  0  0  0  0  0  0  0  0  0  0
    0.4620   19.4200   -0.0990 C   0  0  0  0  0  0  0  0  0  0  0  0
   -0.4870   19.2770   -1.2480 C   0  0  0  0  0  0  0  0  0  0  0  0
   -0.0330   20.1920    1.0840 C   0  0  0  0  0  0  0  0  0  0  0  0
    3.3040   15.5130   -1.5850 C   0  0  1  0  0  0  0  0  0  0  0  0
    3.3870   15.7420   -0.0520 C   0  0  0  0  0  0  0  0  0  0  0  0
    2.2450   14.9100    0.5860 C   0  0  0  0  0  0  0  0  0  0  0  0
    1.7580   13.9790   -0.5490 C   0  0  1  0  0  0  0  0  0  0  0  0
    2.7790   12.7990   -0.5650 C   0  0  0  0  0  0  0  0  0  0  0  0
    0.2850   13.4670   -0.4380 C   0  0  2  0  0  0  0  0  0  0  0  0
   -0.0120   12.5970    0.7950 C   0  0  0  0  0  0  0  0  0  0  0  0
    0.1870   11.1290    0.6040 C   0  0  0  0  0  0  0  0  0  0  0  0
    0.3120   10.5050   -0.5820 C   0  0  0  0  0  0  0  0  0  0  0  0
    0.1590   11.2770   -1.8990 C   0  0  1  0  0  0  0  0  0  0  0  0
   -0.7630   10.4830   -2.8610 C   0  0  0  0  0  0  0  0  0  0  0  0
   -0.2860    9.0500   -3.0770 C   0  0  0  0  0  0  0  0  0  0  0  0
   -0.2020    8.2970   -1.7520 C   0  0  2  0  0  0  0  0  0  0  0  0
   -1.5240    8.1350   -1.2290 O   0  0  0  0  0  0  0  0  0  0  0  0
    0.6920    9.0090   -0.6980 C   0  0  0  0  0  0  0  0  0  0  0  0
    2.1770    8.9170   -1.1290 C   0  0  0  0  0  0  0  0  0  0  0  0
    0.5780    8.2220    0.6350 C   0  0  0  0  0  0  0  0  0  0  0  0
   -0.2710   12.8020   -1.7620 C   0  0  1  0  0  0  0  0  0  0  0  0
   -1.8250   12.9130   -1.6980 C   0  0  0  0  0  0  0  0  0  0  0  0
    0.1770   13.5790   -3.0560 C   0  0  0  0  0  0  0  0  0  0  0  0
    1.6020   14.1650   -3.0570 C   0  0  0  0  0  0  0  0  0  0  0  0
    1.8700   14.9580   -1.7740 C   0  0  2  0  0  0  0  0  0  0  0  0
    0.8720   16.1650   -1.7410 C   0  0  0  0  0  0  0  0  0  0  0  0
    5.8113   16.3536   -2.4102 H   0  0  0  0  0  0  0  0  0  0  0  0
    4.8973   15.6111   -3.7667 H   0  0  0  0  0  0  0  0  0  0  0  0
    5.2281   17.3767   -3.7667 H   0  0  0  0  0  0  0  0  0  0  0  0
    2.9089   16.9627   -3.1355 H   0  0  0  0  0  0  0  0  0  0  0  0
    3.7924   17.6190   -0.4118 H   0  0  0  0  0  0  0  0  0  0  0  0
    4.6837   18.5256   -1.7258 H   0  0  0  0  0  0  0  0  0  0  0  0
    2.9689   19.8854   -2.0502 H   0  0  0  0  0  0  0  0  0  0  0  0
    1.8432   18.4778   -2.2499 H   0  0  0  0  0  0  0  0  0  0  0  0
    2.8106   19.8927    0.0048 H   0  0  0  0  0  0  0  0  0  0  0  0
   -1.5065   19.1234   -0.8646 H   0  0  0  0  0  0  0  0  0  0  0  0
   -0.4597   20.1894   -1.8618 H   0  0  0  0  0  0  0  0  0  0  0  0
   -0.1921   18.4132   -1.8618 H   0  0  0  0  0  0  0  0  0  0  0  0
    0.2882   19.6911    2.0092 H   0  0  0  0  0  0  0  0  0  0  0  0
    0.3806   21.2109    1.0561 H   0  0  0  0  0  0  0  0  0  0  0  0
   -1.1315   20.2413    1.0561 H   0  0  0  0  0  0  0  0  0  0  0  0
    4.0393   14.8006   -1.9874 H   0  0  0  0  0  0  0  0  0  0  0  0
    4.3615   15.4032    0.3296 H   0  0  0  0  0  0  0  0  0  0  0  0
    3.2840   16.8091    0.1945 H   0  0  0  0  0  0  0  0  0  0  0  0
    2.6214   14.3218    1.4359 H   0  0  0  0  0  0  0  0  0  0  0  0
    1.4373   15.5443    0.9801 H   0  0  0  0  0  0  0  0  0  0  0  0
    3.0259   12.5137    0.4683 H   0  0  0  0  0  0  0  0  0  0  0  0
    2.3362   11.9381   -1.0873 H   0  0  0  0  0  0  0  0  0  0  0  0
    3.6946   13.1134   -1.0873 H   0  0  0  0  0  0  0  0  0  0  0  0
   -0.2785   14.3997   -0.2879 H   0  0  0  0  0  0  0  0  0  0  0  0
    0.6490   12.9262    1.6103 H   0  0  0  0  0  0  0  0  0  0  0  0
   -1.0817   12.7330    1.0124 H   0  0  0  0  0  0  0  0  0  0  0  0
    0.2355   10.5054    1.5088 H   0  0  0  0  0  0  0  0  0  0  0  0
    1.1694   11.3512   -2.3274 H   0  0  0  0  0  0  0  0  0  0  0  0
   -1.7773   10.4570   -2.4362 H   0  0  0  0  0  0  0  0  0  0  0  0
   -0.7460   10.9916   -3.8362 H   0  0  0  0  0  0  0  0  0  0  0  0
   -0.9930    8.5316   -3.7414 H   0  0  0  0  0  0  0  0  0  0  0  0
    0.7166    9.0782   -3.5287 H   0  0  0  0  0  0  0  0  0  0  0  0
    0.2673    7.3232   -1.9557 H   0  0  0  0  0  0  0  0  0  0  0  0
   -1.9560    9.0060   -1.2460 H   0  0  0  0  0  0  0  0  0  0  0  0
    2.8165    8.8774   -0.2349 H   0  0  0  0  0  0  0  0  0  0  0  0
    2.3290    8.0077   -1.7291 H   0  0  0  0  0  0  0  0  0  0  0  0
    2.4400    9.8006   -1.7291 H   0  0  0  0  0  0  0  0  0  0  0  0
    0.6788    8.9175    1.4812 H   0  0  0  0  0  0  0  0  0  0  0  0
   -0.4016    7.7241    0.6842 H   0  0  0  0  0  0  0  0  0  0  0  0
    1.3761    7.4666    0.6842 H   0  0  0  0  0  0  0  0  0  0  0  0
   -2.1480   12.9361   -0.6467 H   0  0  0  0  0  0  0  0  0  0  0  0
   -2.1477   13.8365   -2.2011 H   0  0  0  0  0  0  0  0  0  0  0  0
   -2.2756   12.0448   -2.2011 H   0  0  0  0  0  0  0  0  0  0  0  0
    0.1031   12.8827   -3.9044 H   0  0  0  0  0  0  0  0  0  0  0  0
   -0.4921   14.4501   -3.1143 H   0  0  0  0  0  0  0  0  0  0  0  0
    2.3291   13.3428   -3.1303 H   0  0  0  0  0  0  0  0  0  0  0  0
    1.7011   14.8445   -3.9163 H   0  0  0  0  0  0  0  0  0  0  0  0
    0.6523   16.4307   -0.6964 H   0  0  0  0  0  0  0  0  0  0  0  0
    1.3236   17.0283   -2.2517 H   0  0  0  0  0  0  0  0  0  0  0  0
   -0.0607   15.8836   -2.2517 H   0  0  0  0  0  0  0  0  0  0  0  0
  1  2  1  0
  2  3  1  0
  3  4  1  0
  4  5  1  0
  5  6  1  0
  6  7  1  0
  7  8  1  0
  7  9  1  0
  2 10  1  0
 10 11  1  0
 11 12  1  0
 12 13  1  0
 13 14  1  6
 13 15  1  0
 15 16  1  0
 16 17  1  0
 17 18  2  0
 18 19  1  0
 19 20  1  0
 20 21  1  0
 21 22  1  0
 22 23  1  0
 22 24  1  0
 24 25  1  0
 24 26  1  0
 19 27  1  0
 27 28  1  1
 27 29  1  0
 29 30  1  0
 30 31  1  0
 31 32  1  1
  7  5  1  0
 31 10  1  0
 31 13  1  0
 27 15  1  0
 24 18  1  0
  1 33  1  0
  1 34  1  0
  1 35  1  0
  2 36  1  6
  3 37  1  0
  3 38  1  0
  4 39  1  0
  4 40  1  0
  5 41  1  1
  8 42  1  0
  8 43  1  0
  8 44  1  0
  9 45  1  0
  9 46  1  0
  9 47  1  0
 10 48  1  6
 11 49  1  0
 11 50  1  0
 12 51  1  0
 12 52  1  0
 14 53  1  0
 14 54  1  0
 14 55  1  0
 15 56  1  1
 16 57  1  0
 16 58  1  0
 17 59  1  0
 19 60  1  6
 20 61  1  0
 20 62  1  0
 21 63  1  0
 21 64  1  0
 22 65  1  6
 23 66  1  0
 25 67  1  0
 25 68  1  0
 25 69  1  0
 26 70  1  0
 26 71  1  0
 26 72  1  0
 28 73  1  0
 28 74  1  0
 28 75  1  0
 29 76  1  0
 29 77  1  0
 30 78  1  0
 30 79  1  0
 32 80  1  0
 32 81  1  0
 32 82  1  0
M  END
>  <meeko>  (18) 
{"is_sidechain": [false], "intermolecular_energy": 2.731, "internal_energy": -0.839}

$$$$
EPH_relaxed_0001_pdb2pqr_Repair_154_r2_0001_out
     RDKit          3D

 82 86  0  0  0  0  0  0  0  0999 V2000
    4.5840   16.9020   -1.4550 C   0  0  0  0  0  0  0  0  0  0  0  0
    4.6850   15.3760   -1.5320 C   0  0  2  0  0  0  0  0  0  0  0  0
    5.0450   14.8890   -2.9510 C   0  0  0  0  0  0  0  0  0  0  0  0
    5.9780   13.6760   -2.9670 C   0  0  0  0  0  0  0  0  0  0  0  0
    5.5610   12.6690   -3.9960 C   0  0  2  0  0  0  0  0  0  0  0  0
    5.0850   11.4270   -3.4600 O   0  0  0  0  0  0  0  0  0  0  0  0
    6.2950   11.3630   -4.2340 C   0  0  0  0  0  0  0  0  0  0  0  0
    7.5070   10.9920   -3.4380 C   0  0  0  0  0  0  0  0  0  0  0  0
    6.1290   10.6790   -5.5550 C   0  0  0  0  0  0  0  0  0  0  0  0
    3.3730   14.7440   -1.0820 C   0  0  1  0  0  0  0  0  0  0  0  0
    2.3670   15.7880   -0.5290 C   0  0  0  0  0  0  0  0  0  0  0  0
    0.9510   15.3050   -0.9380 C   0  0  0  0  0  0  0  0  0  0  0  0
    1.1590   13.8490   -1.4160 C   0  0  1  0  0  0  0  0  0  0  0  0
    1.2080   13.0000   -0.1070 C   0  0  0  0  0  0  0  0  0  0  0  0
    0.1000   13.2950   -2.4240 C   0  0  2  0  0  0  0  0  0  0  0  0
   -1.3380   13.2180   -1.8830 C   0  0  0  0  0  0  0  0  0  0  0  0
   -1.7040   11.9290   -1.2250 C   0  0  0  0  0  0  0  0  0  0  0  0
   -1.0130   10.7770   -1.3220 C   0  0  0  0  0  0  0  0  0  0  0  0
    0.2130   10.6700   -2.2380 C   0  0  1  0  0  0  0  0  0  0  0  0
    0.1230    9.3640   -3.0720 C   0  0  0  0  0  0  0  0  0  0  0  0
   -0.0660    8.1260   -2.2010 C   0  0  0  0  0  0  0  0  0  0  0  0
   -1.3260    8.2460   -1.3480 C   0  0  2  0  0  0  0  0  0  0  0  0
   -2.4690    8.2270   -2.2090 O   0  0  0  0  0  0  0  0  0  0  0  0
   -1.3530    9.5290   -0.4720 C   0  0  0  0  0  0  0  0  0  0  0  0
   -0.3000    9.4090    0.6580 C   0  0  0  0  0  0  0  0  0  0  0  0
   -2.7360    9.5990    0.2300 C   0  0  0  0  0  0  0  0  0  0  0  0
    0.5240   11.9450   -3.1330 C   0  0  1  0  0  0  0  0  0  0  0  0
   -0.2830   11.8700   -4.4660 C   0  0  0  0  0  0  0  0  0  0  0  0
    2.0460   11.9330   -3.5350 C   0  0  0  0  0  0  0  0  0  0  0  0
    3.0290   12.6010   -2.5540 C   0  0  0  0  0  0  0  0  0  0  0  0
    2.5400   13.9960   -2.1530 C   0  0  2  0  0  0  0  0  0  0  0  0
    2.5020   14.8800   -3.4460 C   0  0  0  0  0  0  0  0  0  0  0  0
    4.5633   17.2154   -0.4008 H   0  0  0  0  0  0  0  0  0  0  0  0
    5.4543   17.3527   -1.9545 H   0  0  0  0  0  0  0  0  0  0  0  0
    3.6619   17.2341   -1.9545 H   0  0  0  0  0  0  0  0  0  0  0  0
    5.4974   15.0640   -0.8592 H   0  0  0  0  0  0  0  0  0  0  0  0
    4.1146   14.6184   -3.4717 H   0  0  0  0  0  0  0  0  0  0  0  0
    5.5796   15.7123   -3.4474 H   0  0  0  0  0  0  0  0  0  0  0  0
    6.9996   14.0151   -3.1936 H   0  0  0  0  0  0  0  0  0  0  0  0
    5.9322   13.1953   -1.9787 H   0  0  0  0  0  0  0  0  0  0  0  0
    5.2356   13.4672   -4.6793 H   0  0  0  0  0  0  0  0  0  0  0  0
    7.2765   11.0626   -2.3647 H   0  0  0  0  0  0  0  0  0  0  0  0
    7.8047    9.9616   -3.6821 H   0  0  0  0  0  0  0  0  0  0  0  0
    8.3305   11.6792   -3.6821 H   0  0  0  0  0  0  0  0  0  0  0  0
    5.8725    9.6220   -5.3909 H   0  0  0  0  0  0  0  0  0  0  0  0
    5.3235   11.1680   -6.1224 H   0  0  0  0  0  0  0  0  0  0  0  0
    7.0691   10.7443   -6.1224 H   0  0  0  0  0  0  0  0  0  0  0  0
    3.7569   14.0303   -0.3382 H   0  0  0  0  0  0  0  0  0  0  0  0
    2.4456   15.8464    0.5666 H   0  0  0  0  0  0  0  0  0  0  0  0
    2.5748   16.7896   -0.9334 H   0  0  0  0  0  0  0  0  0  0  0  0
    0.2661   15.3373   -0.0779 H   0  0  0  0  0  0  0  0  0  0  0  0
    0.5021   15.9397   -1.7163 H   0  0  0  0  0  0  0  0  0  0  0  0
    1.1694   13.6688    0.7655 H   0  0  0  0  0  0  0  0  0  0  0  0
    0.3479   12.3147   -0.0820 H   0  0  0  0  0  0  0  0  0  0  0  0
    2.1412   12.4182   -0.0820 H   0  0  0  0  0  0  0  0  0  0  0  0
    0.0852   14.0729   -3.2016 H   0  0  0  0  0  0  0  0  0  0  0  0
   -1.4675   14.0244   -1.1462 H   0  0  0  0  0  0  0  0  0  0  0  0
   -1.9976   13.3106   -2.7584 H   0  0  0  0  0  0  0  0  0  0  0  0
   -2.6151   11.9192   -0.6088 H   0  0  0  0  0  0  0  0  0  0  0  0
    1.0875   10.6290   -1.5720 H   0  0  0  0  0  0  0  0  0  0  0  0
   -0.7305    9.4439   -3.7613 H   0  0  0  0  0  0  0  0  0  0  0  0
    1.0725    9.2485   -3.6152 H   0  0  0  0  0  0  0  0  0  0  0  0
   -0.1523    7.2405   -2.8479 H   0  0  0  0  0  0  0  0  0  0  0  0
    0.8025    8.0311   -1.5327 H   0  0  0  0  0  0  0  0  0  0  0  0
   -1.3370    7.3926   -0.6541 H   0  0  0  0  0  0  0  0  0  0  0  0
   -2.1910    7.8460   -3.0590 H   0  0  0  0  0  0  0  0  0  0  0  0
   -0.8024    9.4663    1.6349 H   0  0  0  0  0  0  0  0  0  0  0  0
    0.2233    8.4454    0.5707 H   0  0  0  0  0  0  0  0  0  0  0  0
    0.4267   10.2301    0.5707 H   0  0  0  0  0  0  0  0  0  0  0  0
   -2.5943    9.5918    1.3208 H   0  0  0  0  0  0  0  0  0  0  0  0
   -3.2514   10.5244   -0.0667 H   0  0  0  0  0  0  0  0  0  0  0  0
   -3.3422    8.7304   -0.0667 H   0  0  0  0  0  0  0  0  0  0  0  0
   -1.3550   11.7704   -4.2405 H   0  0  0  0  0  0  0  0  0  0  0  0
   -0.1146   12.7877   -5.0487 H   0  0  0  0  0  0  0  0  0  0  0  0
    0.0516   10.9991   -5.0487 H   0  0  0  0  0  0  0  0  0  0  0  0
    2.3518   10.8825   -3.6489 H   0  0  0  0  0  0  0  0  0  0  0  0
    2.1054   12.5328   -4.4552 H   0  0  0  0  0  0  0  0  0  0  0  0
    3.1169   11.9774   -1.6521 H   0  0  0  0  0  0  0  0  0  0  0  0
    4.0059   12.7007   -3.0497 H   0  0  0  0  0  0  0  0  0  0  0  0
    2.4564   15.9420   -3.1629 H   0  0  0  0  0  0  0  0  0  0  0  0
    3.4088   14.6979   -4.0414 H   0  0  0  0  0  0  0  0  0  0  0  0
    1.6142   14.6208   -4.0414 H   0  0  0  0  0  0  0  0  0  0  0  0
  1  2  1  0
  2  3  1  0
  3  4  1  0
  4  5  1  0
  5  6  1  0
  6  7  1  0
  7  8  1  0
  7  9  1  0
  2 10  1  0
 10 11  1  0
 11 12  1  0
 12 13  1  0
 13 14  1  1
 13 15  1  0
 15 16  1  0
 16 17  1  0
 17 18  2  0
 18 19  1  0
 19 20  1  0
 20 21  1  0
 21 22  1  0
 22 23  1  0
 22 24  1  0
 24 25  1  0
 24 26  1  0
 19 27  1  0
 27 28  1  6
 27 29  1  0
 29 30  1  0
 30 31  1  0
 31 32  1  6
  7  5  1  0
 31 10  1  0
 31 13  1  0
 27 15  1  0
 24 18  1  0
  1 33  1  0
  1 34  1  0
  1 35  1  0
  2 36  1  1
  3 37  1  0
  3 38  1  0
  4 39  1  0
  4 40  1  0
  5 41  1  6
  8 42  1  0
  8 43  1  0
  8 44  1  0
  9 45  1  0
  9 46  1  0
  9 47  1  0
 10 48  1  1
 11 49  1  0
 11 50  1  0
 12 51  1  0
 12 52  1  0
 14 53  1  0
 14 54  1  0
 14 55  1  0
 15 56  1  6
 16 57  1  0
 16 58  1  0
 17 59  1  0
 19 60  1  1
 20 61  1  0
 20 62  1  0
 21 63  1  0
 21 64  1  0
 22 65  1  1
 23 66  1  0
 25 67  1  0
 25 68  1  0
 25 69  1  0
 26 70  1  0
 26 71  1  0
 26 72  1  0
 28 73  1  0
 28 74  1  0
 28 75  1  0
 29 76  1  0
 29 77  1  0
 30 78  1  0
 30 79  1  0
 32 80  1  0
 32 81  1  0
 32 82  1  0
M  END
>  <meeko>  (19) 
{"is_sidechain": [false], "intermolecular_energy": 2.731, "internal_energy": -0.839}

$$$$
EPH_relaxed_0001_pdb2pqr_Repair_154_r2_0001_out
     RDKit          3D

 82 86  0  0  0  0  0  0  0  0999 V2000
   -0.2520   10.2270   -2.2820 C   0  0  0  0  0  0  0  0  0  0  0  0
    0.6710   10.1300   -1.0650 C   0  0  2  0  0  0  0  0  0  0  0  0
   -0.1170   10.0420    0.2570 C   0  0  0  0  0  0  0  0  0  0  0  0
    0.6470   10.5860    1.4670 C   0  0  0  0  0  0  0  0  0  0  0  0
   -0.1070   11.6880    2.1490 C   0  0  2  0  0  0  0  0  0  0  0  0
    0.5120   12.9780    2.0650 O   0  0  0  0  0  0  0  0  0  0  0  0
    0.4020   12.4120    3.3810 C   0  0  0  0  0  0  0  0  0  0  0  0
    1.7170   12.0620    4.0040 C   0  0  0  0  0  0  0  0  0  0  0  0
   -0.5870   13.1140    4.2580 C   0  0  0  0  0  0  0  0  0  0  0  0
    1.6130   11.3280   -1.0310 C   0  0  1  0  0  0  0  0  0  0  0  0
    2.9570   11.0520   -1.7560 C   0  0  0  0  0  0  0  0  0  0  0  0
    3.3870   12.3850   -2.4230 C   0  0  0  0  0  0  0  0  0  0  0  0
    2.4640   13.4530   -1.7910 C   0  0  1  0  0  0  0  0  0  0  0  0
    3.1190   13.7840   -0.4130 C   0  0  0  0  0  0  0  0  0  0  0  0
    2.2190   14.7430   -2.6390 C   0  0  2  0  0  0  0  0  0  0  0  0
    3.4750   15.5830   -2.9280 C   0  0  0  0  0  0  0  0  0  0  0  0
    3.7800   16.6420   -1.9200 C   0  0  0  0  0  0  0  0  0  0  0  0
    2.9280   17.0990   -0.9840 C   0  0  0  0  0  0  0  0  0  0  0  0
    1.4750   16.6100   -0.9350 C   0  0  1  0  0  0  0  0  0  0  0  0
    0.5250   17.8250   -0.7670 C   0  0  0  0  0  0  0  0  0  0  0  0
    0.8900   18.6910    0.4350 C   0  0  0  0  0  0  0  0  0  0  0  0
    2.3220   19.2050    0.3220 C   0  0  2  0  0  0  0  0  0  0  0  0
    2.4000   20.1140   -0.7810 O   0  0  0  0  0  0  0  0  0  0  0  0
    3.3680   18.0700    0.1390 C   0  0  0  0  0  0  0  0  0  0  0  0
    3.4980   17.2650    1.4550 C   0  0  0  0  0  0  0  0  0  0  0  0
    4.7520   18.7310   -0.1040 C   0  0  0  0  0  0  0  0  0  0  0  0
    1.0280   15.6450   -2.1170 C   0  0  1  0  0  0  0  0  0  0  0  0
    0.5390   16.4870   -3.3350 C   0  0  0  0  0  0  0  0  0  0  0  0
   -0.2070   14.7910   -1.6430 C   0  0  0  0  0  0  0  0  0  0  0  0
    0.1010   13.4680   -0.9170 C   0  0  0  0  0  0  0  0  0  0  0  0
    1.1230   12.6370   -1.6990 C   0  0  2  0  0  0  0  0  0  0  0  0
    0.4830   12.2700   -3.0810 C   0  0  0  0  0  0  0  0  0  0  0  0
   -1.2933   10.3364   -1.9447 H   0  0  0  0  0  0  0  0  0  0  0  0
    0.0308   11.1004   -2.8880 H   0  0  0  0  0  0  0  0  0  0  0  0
   -0.1569    9.3139   -2.8880 H   0  0  0  0  0  0  0  0  0  0  0  0
    1.2526    9.2016   -1.1643 H   0  0  0  0  0  0  0  0  0  0  0  0
   -1.0471   10.6187    0.1458 H   0  0  0  0  0  0  0  0  0  0  0  0
   -0.3046    8.9752    0.4487 H   0  0  0  0  0  0  0  0  0  0  0  0
    0.8085    9.7676    2.1841 H   0  0  0  0  0  0  0  0  0  0  0  0
    1.6050   10.9942    1.1126 H   0  0  0  0  0  0  0  0  0  0  0  0
   -1.0677   11.2022    1.9231 H   0  0  0  0  0  0  0  0  0  0  0  0
    1.6220   12.0873    5.0996 H   0  0  0  0  0  0  0  0  0  0  0  0
    2.0168   11.0528    3.6852 H   0  0  0  0  0  0  0  0  0  0  0  0
    2.4788   12.7887    3.6852 H   0  0  0  0  0  0  0  0  0  0  0  0
   -0.3337   12.9342    5.3132 H   0  0  0  0  0  0  0  0  0  0  0  0
   -0.5572   14.1943    4.0527 H   0  0  0  0  0  0  0  0  0  0  0  0
   -1.5969   12.7295    4.0527 H   0  0  0  0  0  0  0  0  0  0  0  0
    1.6936   11.4683    0.0570 H   0  0  0  0  0  0  0  0  0  0  0  0
    3.7187   10.7278   -1.0316 H   0  0  0  0  0  0  0  0  0  0  0  0
    2.8456   10.2535   -2.5044 H   0  0  0  0  0  0  0  0  0  0  0  0
    4.4423   12.6056   -2.2049 H   0  0  0  0  0  0  0  0  0  0  0  0
    3.2967   12.3513   -3.5188 H   0  0  0  0  0  0  0  0  0  0  0  0
    2.4559   13.4489    0.3981 H   0  0  0  0  0  0  0  0  0  0  0  0
    4.0864   13.2666   -0.3331 H   0  0  0  0  0  0  0  0  0  0  0  0
    3.2762   14.8698   -0.3331 H   0  0  0  0  0  0  0  0  0  0  0  0
    1.9062   14.3308   -3.6097 H   0  0  0  0  0  0  0  0  0  0  0  0
    4.3366   14.9008   -2.9756 H   0  0  0  0  0  0  0  0  0  0  0  0
    3.2777   16.1102   -3.8731 H   0  0  0  0  0  0  0  0  0  0  0  0
    4.7861   17.0859   -1.9448 H   0  0  0  0  0  0  0  0  0  0  0  0
    1.4039   15.9558   -0.0535 H   0  0  0  0  0  0  0  0  0  0  0  0
    0.5782   18.4426   -1.6757 H   0  0  0  0  0  0  0  0  0  0  0  0
   -0.4901   17.4349   -0.6016 H   0  0  0  0  0  0  0  0  0  0  0  0
    0.2025   19.5484    0.4830 H   0  0  0  0  0  0  0  0  0  0  0  0
    0.8071   18.0800    1.3460 H   0  0  0  0  0  0  0  0  0  0  0  0
    2.5676   19.7076    1.2691 H   0  0  0  0  0  0  0  0  0  0  0  0
    1.6760   19.8970   -1.3930 H   0  0  0  0  0  0  0  0  0  0  0  0
    3.3882   17.9446    2.3129 H   0  0  0  0  0  0  0  0  0  0  0  0
    2.7124   16.4960    1.4936 H   0  0  0  0  0  0  0  0  0  0  0  0
    4.4857   16.7824    1.4936 H   0  0  0  0  0  0  0  0  0  0  0  0
    5.2252   18.9570    0.8629 H   0  0  0  0  0  0  0  0  0  0  0  0
    5.3926   18.0417   -0.6735 H   0  0  0  0  0  0  0  0  0  0  0  0
    4.6185   19.6626   -0.6735 H   0  0  0  0  0  0  0  0  0  0  0  0
    0.0172   17.3855   -2.9738 H   0  0  0  0  0  0  0  0  0  0  0  0
    1.4041   16.7858   -3.9452 H   0  0  0  0  0  0  0  0  0  0  0  0
   -0.1492   15.8837   -3.9452 H   0  0  0  0  0  0  0  0  0  0  0  0
   -0.8006   15.4155   -0.9591 H   0  0  0  0  0  0  0  0  0  0  0  0
   -0.7261   14.4979   -2.5675 H   0  0  0  0  0  0  0  0  0  0  0  0
    0.5070   13.6913    0.0807 H   0  0  0  0  0  0  0  0  0  0  0  0
   -0.8307   12.8892   -0.8336 H   0  0  0  0  0  0  0  0  0  0  0  0
   -0.4605   11.7290   -2.9161 H   0  0  0  0  0  0  0  0  0  0  0  0
    0.2833   13.1908   -3.6487 H   0  0  0  0  0  0  0  0  0  0  0  0
    1.1768   11.6325   -3.6487 H   0  0  0  0  0  0  0  0  0  0  0  0
  1  2  1  0
  2  3  1  0
  3  4  1  0
  4  5  1  0
  5  6  1  0
  6  7  1  0
  7  8  1  0
  7  9  1  0
  2 10  1  0
 10 11  1  0
 11 12  1  0
 12 13  1  0
 13 14  1  1
 13 15  1  0
 15 16  1  0
 16 17  1  0
 17 18  2  0
 18 19  1  0
 19 20  1  0
 20 21  1  0
 21 22  1  0
 22 23  1  0
 22 24  1  0
 24 25  1  0
 24 26  1  0
 19 27  1  0
 27 28  1  6
 27 29  1  0
 29 30  1  0
 30 31  1  0
 31 32  1  6
  7  5  1  0
 31 10  1  0
 31 13  1  0
 27 15  1  0
 24 18  1  0
  1 33  1  0
  1 34  1  0
  1 35  1  0
  2 36  1  6
  3 37  1  0
  3 38  1  0
  4 39  1  0
  4 40  1  0
  5 41  1  1
  8 42  1  0
  8 43  1  0
  8 44  1  0
  9 45  1  0
  9 46  1  0
  9 47  1  0
 10 48  1  1
 11 49  1  0
 11 50  1  0
 12 51  1  0
 12 52  1  0
 14 53  1  0
 14 54  1  0
 14 55  1  0
 15 56  1  6
 16 57  1  0
 16 58  1  0
 17 59  1  0
 19 60  1  1
 20 61  1  0
 20 62  1  0
 21 63  1  0
 21 64  1  0
 22 65  1  1
 23 66  1  0
 25 67  1  0
 25 68  1  0
 25 69  1  0
 26 70  1  0
 26 71  1  0
 26 72  1  0
 28 73  1  0
 28 74  1  0
 28 75  1  0
 29 76  1  0
 29 77  1  0
 30 78  1  0
 30 79  1  0
 32 80  1  0
 32 81  1  0
 32 82  1  0
M  END
>  <meeko>  (20) 
{"is_sidechain": [false], "intermolecular_energy": 2.731, "internal_energy": -0.839}

$$$$
