EPH_relaxed_0001_pdb2pqr_Repair_344_r2_0001_out
     RDKit          3D

 82 86  0  0  0  0  0  0  0  0999 V2000
   -4.7940   11.0450    0.0310 C   0  0  0  0  0  0  0  0  0  0  0  0
   -3.4280   10.4990   -0.3920 C   0  0  2  0  0  0  0  0  0  0  0  0
   -3.1520    9.1020    0.1990 C   0  0  0  0  0  0  0  0  0  0  0  0
   -4.2900    8.1030   -0.0240 C   0  0  0  0  0  0  0  0  0  0  0  0
   -4.6020    7.9350   -1.4810 C   0  0  2  0  0  0  0  0  0  0  0  0
   -5.9630    8.2090   -1.8380 O   0  0  0  0  0  0  0  0  0  0  0  0
   -5.5200    6.8540   -2.0210 C   0  0  0  0  0  0  0  0  0  0  0  0
   -6.1840    5.8680   -1.1110 C   0  0  0  0  0  0  0  0  0  0  0  0
   -5.3860    6.4530   -3.4560 C   0  0  0  0  0  0  0  0  0  0  0  0
   -2.3280   11.4680    0.0260 C   0  0  1  0  0  0  0  0  0  0  0  0
   -1.4830   10.9370    1.2140 C   0  0  0  0  0  0  0  0  0  0  0  0
   -0.0310   11.4280    0.9860 C   0  0  0  0  0  0  0  0  0  0  0  0
   -0.1500   12.4910   -0.1310 C   0  0  1  0  0  0  0  0  0  0  0  0
   -0.6090   13.7920    0.6000 C   0  0  0  0  0  0  0  0  0  0  0  0
    1.1320   12.7350   -0.9930 C   0  0  2  0  0  0  0  0  0  0  0  0
    2.3480   13.2690   -0.2160 C   0  0  0  0  0  0  0  0  0  0  0  0
    2.4550   14.7560   -0.1430 C   0  0  0  0  0  0  0  0  0  0  0  0
    1.7760   15.6280   -0.9120 C   0  0  0  0  0  0  0  0  0  0  0  0
    0.8640   15.1370   -2.0430 C   0  0  1  0  0  0  0  0  0  0  0  0
    1.1380   15.9650   -3.3260 C   0  0  0  0  0  0  0  0  0  0  0  0
    1.0170   17.4670   -3.0900 C   0  0  0  0  0  0  0  0  0  0  0  0
    1.9810   17.9270   -1.9990 C   0  0  2  0  0  0  0  0  0  0  0  0
    3.3220   17.7690   -2.4730 O   0  0  0  0  0  0  0  0  0  0  0  0
    1.8050   17.1560   -0.6610 C   0  0  0  0  0  0  0  0  0  0  0  0
    0.4670   17.5650    0.0030 C   0  0  0  0  0  0  0  0  0  0  0  0
    2.9280   17.6170    0.3070 C   0  0  0  0  0  0  0  0  0  0  0  0
    0.8770   13.5710   -2.3120 C   0  0  1  0  0  0  0  0  0  0  0  0
    2.0300   13.2100   -3.2980 C   0  0  0  0  0  0  0  0  0  0  0  0
   -0.4640   13.1620   -3.0300 C   0  0  0  0  0  0  0  0  0  0  0  0
   -1.6600   12.8170   -2.1220 C   0  0  0  0  0  0  0  0  0  0  0  0
   -1.2520   11.8220   -1.0310 C   0  0  2  0  0  0  0  0  0  0  0  0
   -0.8060   10.4960   -1.7360 C   0  0  0  0  0  0  0  0  0  0  0  0
   -4.8551   11.0694    1.1290 H   0  0  0  0  0  0  0  0  0  0  0  0
   -4.9209   12.0630   -0.3660 H   0  0  0  0  0  0  0  0  0  0  0  0
   -5.5876   10.3950   -0.3660 H   0  0  0  0  0  0  0  0  0  0  0  0
   -3.4376   10.3978   -1.4873 H   0  0  0  0  0  0  0  0  0  0  0  0
   -2.2411    8.7008   -0.2693 H   0  0  0  0  0  0  0  0  0  0  0  0
   -3.0445    9.2288    1.2864 H   0  0  0  0  0  0  0  0  0  0  0  0
   -3.9956    7.1283    0.3924 H   0  0  0  0  0  0  0  0  0  0  0  0
   -5.1895    8.4899    0.4772 H   0  0  0  0  0  0  0  0  0  0  0  0
   -3.5836    8.2445   -1.7585 H   0  0  0  0  0  0  0  0  0  0  0  0
   -5.9945    6.1494   -0.0646 H   0  0  0  0  0  0  0  0  0  0  0  0
   -7.2677    5.8667   -1.2999 H   0  0  0  0  0  0  0  0  0  0  0  0
   -5.7777    4.8634   -1.2999 H   0  0  0  0  0  0  0  0  0  0  0  0
   -5.0379    5.4112   -3.5146 H   0  0  0  0  0  0  0  0  0  0  0  0
   -6.3626    6.5418   -3.9543 H   0  0  0  0  0  0  0  0  0  0  0  0
   -4.6590    7.1111   -3.9543 H   0  0  0  0  0  0  0  0  0  0  0  0
   -2.9398   12.3539    0.2515 H   0  0  0  0  0  0  0  0  0  0  0  0
   -1.8724   11.3342    2.1630 H   0  0  0  0  0  0  0  0  0  0  0  0
   -1.5243    9.8391    1.2679 H   0  0  0  0  0  0  0  0  0  0  0  0
    0.3769   11.8742    1.9050 H   0  0  0  0  0  0  0  0  0  0  0  0
    0.6485   10.6079    0.7110 H   0  0  0  0  0  0  0  0  0  0  0  0
   -0.5552   13.6396    1.6881 H   0  0  0  0  0  0  0  0  0  0  0  0
    0.0494   14.6253    0.3135 H   0  0  0  0  0  0  0  0  0  0  0  0
   -1.6445   14.0277    0.3135 H   0  0  0  0  0  0  0  0  0  0  0  0
    1.4019   11.7162   -1.3081 H   0  0  0  0  0  0  0  0  0  0  0  0
    2.2915   12.8814    0.8119 H   0  0  0  0  0  0  0  0  0  0  0  0
    3.2360   12.9267   -0.7677 H   0  0  0  0  0  0  0  0  0  0  0  0
    3.1472   15.1749    0.6022 H   0  0  0  0  0  0  0  0  0  0  0  0
   -0.1668   15.3111   -1.7007 H   0  0  0  0  0  0  0  0  0  0  0  0
    2.1568   15.7442   -3.6772 H   0  0  0  0  0  0  0  0  0  0  0  0
    0.3819   15.6826   -4.0734 H   0  0  0  0  0  0  0  0  0  0  0  0
    1.2507   17.9983   -4.0244 H   0  0  0  0  0  0  0  0  0  0  0  0
   -0.0107   17.6902   -2.7676 H   0  0  0  0  0  0  0  0  0  0  0  0
    1.7573   18.9823   -1.7840 H   0  0  0  0  0  0  0  0  0  0  0  0
    3.3090   17.8860   -3.4380 H   0  0  0  0  0  0  0  0  0  0  0  0
    0.5754   17.5318    1.0971 H   0  0  0  0  0  0  0  0  0  0  0  0
    0.2002   18.5857   -0.3083 H   0  0  0  0  0  0  0  0  0  0  0  0
   -0.3250   16.8679   -0.3083 H   0  0  0  0  0  0  0  0  0  0  0  0
    2.5951   17.4803    1.3465 H   0  0  0  0  0  0  0  0  0  0  0  0
    3.8334   17.0178    0.1302 H   0  0  0  0  0  0  0  0  0  0  0  0
    3.1512   18.6795    0.1302 H   0  0  0  0  0  0  0  0  0  0  0  0
    2.9269   12.9292   -2.7263 H   0  0  0  0  0  0  0  0  0  0  0  0
    1.7199   12.3660   -3.9316 H   0  0  0  0  0  0  0  0  0  0  0  0
    2.2566   14.0802   -3.9316 H   0  0  0  0  0  0  0  0  0  0  0  0
   -0.7661   14.0010   -3.6741 H   0  0  0  0  0  0  0  0  0  0  0  0
   -0.2312   12.2303   -3.5663 H   0  0  0  0  0  0  0  0  0  0  0  0
   -2.0297   13.7385   -1.6485 H   0  0  0  0  0  0  0  0  0  0  0  0
   -2.4470   12.3580   -2.7384 H   0  0  0  0  0  0  0  0  0  0  0  0
   -0.5528    9.7433   -0.9749 H   0  0  0  0  0  0  0  0  0  0  0  0
   -1.6273   10.1205   -2.3641 H   0  0  0  0  0  0  0  0  0  0  0  0
    0.0753   10.6932   -2.3641 H   0  0  0  0  0  0  0  0  0  0  0  0
  1  2  1  0
  2  3  1  0
  3  4  1  0
  4  5  1  0
  5  6  1  0
  6  7  1  0
  7  8  1  0
  7  9  1  0
  2 10  1  0
 10 11  1  0
 11 12  1  0
 12 13  1  0
 13 14  1  1
 13 15  1  0
 15 16  1  0
 16 17  1  0
 17 18  2  0
 18 19  1  0
 19 20  1  0
 20 21  1  0
 21 22  1  0
 22 23  1  0
 22 24  1  0
 24 25  1  0
 24 26  1  0
 19 27  1  0
 27 28  1  6
 27 29  1  0
 29 30  1  0
 30 31  1  0
 31 32  1  6
  7  5  1  0
 31 10  1  0
 31 13  1  0
 27 15  1  0
 24 18  1  0
  1 33  1  0
  1 34  1  0
  1 35  1  0
  2 36  1  6
  3 37  1  0
  3 38  1  0
  4 39  1  0
  4 40  1  0
  5 41  1  6
  8 42  1  0
  8 43  1  0
  8 44  1  0
  9 45  1  0
  9 46  1  0
  9 47  1  0
 10 48  1  1
 11 49  1  0
 11 50  1  0
 12 51  1  0
 12 52  1  0
 14 53  1  0
 14 54  1  0
 14 55  1  0
 15 56  1  6
 16 57  1  0
 16 58  1  0
 17 59  1  0
 19 60  1  1
 20 61  1  0
 20 62  1  0
 21 63  1  0
 21 64  1  0
 22 65  1  1
 23 66  1  0
 25 67  1  0
 25 68  1  0
 25 69  1  0
 26 70  1  0
 26 71  1  0
 26 72  1  0
 28 73  1  0
 28 74  1  0
 28 75  1  0
 29 76  1  0
 29 77  1  0
 30 78  1  0
 30 79  1  0
 32 80  1  0
 32 81  1  0
 32 82  1  0
M  END
>  <meeko>  (1) 
{"is_sidechain": [false], "intermolecular_energy": 2.731, "internal_energy": -0.839}

$$$$
EPH_relaxed_0001_pdb2pqr_Repair_344_r2_0001_out
     RDKit          3D

 82 86  0  0  0  0  0  0  0  0999 V2000
    2.3150   20.1940   -0.9240 C   0  0  0  0  0  0  0  0  0  0  0  0
    2.1220   19.2330    0.2520 C   0  0  2  0  0  0  0  0  0  0  0  0
    3.4640   18.7150    0.8050 C   0  0  0  0  0  0  0  0  0  0  0  0
    3.7380   19.1350    2.2520 C   0  0  0  0  0  0  0  0  0  0  0  0
    5.2070   19.2110    2.5380 C   0  0  2  0  0  0  0  0  0  0  0  0
    5.7070   18.1670    3.3850 O   0  0  0  0  0  0  0  0  0  0  0  0
    5.7770   19.5010    3.9140 C   0  0  0  0  0  0  0  0  0  0  0  0
    4.8870   19.7350    5.0940 C   0  0  0  0  0  0  0  0  0  0  0  0
    7.1720   20.0370    4.0130 C   0  0  0  0  0  0  0  0  0  0  0  0
    1.2460   18.0610   -0.1730 C   0  0  1  0  0  0  0  0  0  0  0  0
    0.2760   18.4280   -1.3280 C   0  0  0  0  0  0  0  0  0  0  0  0
    0.1410   17.1640   -2.2160 C   0  0  0  0  0  0  0  0  0  0  0  0
    0.7610   16.0260   -1.3730 C   0  0  1  0  0  0  0  0  0  0  0  0
   -0.3660   15.6030   -0.3790 C   0  0  0  0  0  0  0  0  0  0  0  0
    1.3190   14.8010   -2.1680 C   0  0  2  0  0  0  0  0  0  0  0  0
    0.2720   14.0190   -2.9810 C   0  0  0  0  0  0  0  0  0  0  0  0
   -0.3850   12.8920   -2.2560 C   0  0  0  0  0  0  0  0  0  0  0  0
    0.0500   12.3400   -1.1080 C   0  0  0  0  0  0  0  0  0  0  0  0
    1.3720   12.7860   -0.4720 C   0  0  1  0  0  0  0  0  0  0  0  0
    2.1950   11.5380   -0.0570 C   0  0  0  0  0  0  0  0  0  0  0  0
    1.4060   10.5890    0.8400 C   0  0  0  0  0  0  0  0  0  0  0  0
    0.1270   10.1220    0.1490 C   0  0  2  0  0  0  0  0  0  0  0  0
    0.4810    9.3060   -0.9720 O   0  0  0  0  0  0  0  0  0  0  0  0
   -0.7780   11.2940   -0.3220 C   0  0  0  0  0  0  0  0  0  0  0  0
   -1.4040   11.9950    0.9090 C   0  0  0  0  0  0  0  0  0  0  0  0
   -1.9610   10.6900   -1.1260 C   0  0  0  0  0  0  0  0  0  0  0  0
    2.2280   13.8300   -1.3100 C   0  0  1  0  0  0  0  0  0  0  0  0
    3.1490   13.0760   -2.3180 C   0  0  0  0  0  0  0  0  0  0  0  0
    3.1850   14.6130   -0.3350 C   0  0  0  0  0  0  0  0  0  0  0  0
    2.6150   15.8810    0.3280 C   0  0  0  0  0  0  0  0  0  0  0  0
    1.9610   16.7970   -0.7110 C   0  0  2  0  0  0  0  0  0  0  0  0
    3.0760   17.2570   -1.7120 C   0  0  0  0  0  0  0  0  0  0  0  0
    2.5181   21.2052   -0.5417 H   0  0  0  0  0  0  0  0  0  0  0  0
    3.1634   19.8568   -1.5377 H   0  0  0  0  0  0  0  0  0  0  0  0
    1.4022   20.2105   -1.5377 H   0  0  0  0  0  0  0  0  0  0  0  0
    1.6272   19.7931    1.0591 H   0  0  0  0  0  0  0  0  0  0  0  0
    3.4578   17.6160    0.7578 H   0  0  0  0  0  0  0  0  0  0  0  0
    4.2585   19.1578    0.1863 H   0  0  0  0  0  0  0  0  0  0  0  0
    3.2890   20.1238    2.4274 H   0  0  0  0  0  0  0  0  0  0  0  0
    3.2975   18.3785    2.9181 H   0  0  0  0  0  0  0  0  0  0  0  0
    5.4006   19.6551    1.5504 H   0  0  0  0  0  0  0  0  0  0  0  0
    5.4598   19.5844    6.0209 H   0  0  0  0  0  0  0  0  0  0  0  0
    4.5018   20.7649    5.0642 H   0  0  0  0  0  0  0  0  0  0  0  0
    4.0451   19.0277    5.0642 H   0  0  0  0  0  0  0  0  0  0  0  0
    7.4495   20.1436    5.0721 H   0  0  0  0  0  0  0  0  0  0  0  0
    7.8677   19.3421    3.5198 H   0  0  0  0  0  0  0  0  0  0  0  0
    7.2234   21.0189    3.5198 H   0  0  0  0  0  0  0  0  0  0  0  0
    0.7592   17.8370    0.7877 H   0  0  0  0  0  0  0  0  0  0  0  0
   -0.7060   18.7127   -0.9222 H   0  0  0  0  0  0  0  0  0  0  0  0
    0.6576   19.2805   -1.9090 H   0  0  0  0  0  0  0  0  0  0  0  0
   -0.9165   16.9538   -2.4339 H   0  0  0  0  0  0  0  0  0  0  0  0
    0.6413   17.2824   -3.1884 H   0  0  0  0  0  0  0  0  0  0  0  0
   -0.0125   15.7357    0.6542 H   0  0  0  0  0  0  0  0  0  0  0  0
   -1.2554   16.2285   -0.5454 H   0  0  0  0  0  0  0  0  0  0  0  0
   -0.6242   14.5468   -0.5454 H   0  0  0  0  0  0  0  0  0  0  0  0
    1.9756   15.2804   -2.9089 H   0  0  0  0  0  0  0  0  0  0  0  0
   -0.5116   14.7246   -3.2943 H   0  0  0  0  0  0  0  0  0  0  0  0
    0.8165   13.5643   -3.8217 H   0  0  0  0  0  0  0  0  0  0  0  0
   -1.3031   12.4770   -2.6975 H   0  0  0  0  0  0  0  0  0  0  0  0
    1.0979   13.3663    0.4214 H   0  0  0  0  0  0  0  0  0  0  0  0
    2.4960   10.9959   -0.9656 H   0  0  0  0  0  0  0  0  0  0  0  0
    3.0680   11.8881    0.5133 H   0  0  0  0  0  0  0  0  0  0  0  0
    2.0292    9.7132    1.0739 H   0  0  0  0  0  0  0  0  0  0  0  0
    1.1321   11.1234    1.7616 H   0  0  0  0  0  0  0  0  0  0  0  0
   -0.4576    9.5522    0.8863 H   0  0  0  0  0  0  0  0  0  0  0  0
    0.7130    8.4250   -0.6330 H   0  0  0  0  0  0  0  0  0  0  0  0
   -1.0031   11.5461    1.8298 H   0  0  0  0  0  0  0  0  0  0  0  0
   -1.1568   13.0666    0.8858 H   0  0  0  0  0  0  0  0  0  0  0  0
   -2.4966   11.8701    0.8858 H   0  0  0  0  0  0  0  0  0  0  0  0
   -2.7187   10.3032   -0.4286 H   0  0  0  0  0  0  0  0  0  0  0  0
   -2.4096   11.4694   -1.7595 H   0  0  0  0  0  0  0  0  0  0  0  0
   -1.5928    9.8695   -1.7595 H   0  0  0  0  0  0  0  0  0  0  0  0
    3.8841   12.4742   -1.7635 H   0  0  0  0  0  0  0  0  0  0  0  0
    2.5373   12.4161   -2.9507 H   0  0  0  0  0  0  0  0  0  0  0  0
    3.6752   13.8060   -2.9507 H   0  0  0  0  0  0  0  0  0  0  0  0
    3.4801   13.9216    0.4680 H   0  0  0  0  0  0  0  0  0  0  0  0
    4.0133   14.9662   -0.9669 H   0  0  0  0  0  0  0  0  0  0  0  0
    1.8620   15.5890    1.0748 H   0  0  0  0  0  0  0  0  0  0  0  0
    3.4408   16.4276    0.8068 H   0  0  0  0  0  0  0  0  0  0  0  0
    3.9491   17.6172   -1.1481 H   0  0  0  0  0  0  0  0  0  0  0  0
    3.3732   16.4080   -2.3452 H   0  0  0  0  0  0  0  0  0  0  0  0
    2.6882   18.0686   -2.3452 H   0  0  0  0  0  0  0  0  0  0  0  0
  1  2  1  0
  2  3  1  0
  3  4  1  0
  4  5  1  0
  5  6  1  0
  6  7  1  0
  7  8  1  0
  7  9  1  0
  2 10  1  0
 10 11  1  0
 11 12  1  0
 12 13  1  0
 13 14  1  1
 13 15  1  0
 15 16  1  0
 16 17  1  0
 17 18  2  0
 18 19  1  0
 19 20  1  0
 20 21  1  0
 21 22  1  0
 22 23  1  0
 22 24  1  0
 24 25  1  0
 24 26  1  0
 19 27  1  0
 27 28  1  6
 27 29  1  0
 29 30  1  0
 30 31  1  0
 31 32  1  6
  7  5  1  0
 31 10  1  0
 31 13  1  0
 27 15  1  0
 24 18  1  0
  1 33  1  0
  1 34  1  0
  1 35  1  0
  2 36  1  1
  3 37  1  0
  3 38  1  0
  4 39  1  0
  4 40  1  0
  5 41  1  6
  8 42  1  0
  8 43  1  0
  8 44  1  0
  9 45  1  0
  9 46  1  0
  9 47  1  0
 10 48  1  1
 11 49  1  0
 11 50  1  0
 12 51  1  0
 12 52  1  0
 14 53  1  0
 14 54  1  0
 14 55  1  0
 15 56  1  6
 16 57  1  0
 16 58  1  0
 17 59  1  0
 19 60  1  1
 20 61  1  0
 20 62  1  0
 21 63  1  0
 21 64  1  0
 22 65  1  1
 23 66  1  0
 25 67  1  0
 25 68  1  0
 25 69  1  0
 26 70  1  0
 26 71  1  0
 26 72  1  0
 28 73  1  0
 28 74  1  0
 28 75  1  0
 29 76  1  0
 29 77  1  0
 30 78  1  0
 30 79  1  0
 32 80  1  0
 32 81  1  0
 32 82  1  0
M  END
>  <meeko>  (2) 
{"is_sidechain": [false], "intermolecular_energy": 2.731, "internal_energy": -0.839}

$$$$
EPH_relaxed_0001_pdb2pqr_Repair_344_r2_0001_out
     RDKit          3D

 82 86  0  0  0  0  0  0  0  0999 V2000
   -1.6330    8.6530   -1.7980 C   0  0  0  0  0  0  0  0  0  0  0  0
   -1.6880    9.1340   -0.3450 C   0  0  2  0  0  0  0  0  0  0  0  0
   -3.1050    9.5830    0.0640 C   0  0  0  0  0  0  0  0  0  0  0  0
   -3.1500   10.9740    0.7020 C   0  0  0  0  0  0  0  0  0  0  0  0
   -2.2950   11.0470    1.9310 C   0  0  2  0  0  0  0  0  0  0  0  0
   -2.9150   11.6870    3.0540 O   0  0  0  0  0  0  0  0  0  0  0  0
   -1.7640   12.3480    2.5040 C   0  0  0  0  0  0  0  0  0  0  0  0
   -2.0670   13.6650    1.8620 C   0  0  0  0  0  0  0  0  0  0  0  0
   -0.5590   12.2990    3.3920 C   0  0  0  0  0  0  0  0  0  0  0  0
   -0.7000   10.2750   -0.1370 C   0  0  1  0  0  0  0  0  0  0  0  0
    0.5820    9.8250    0.6130 C   0  0  0  0  0  0  0  0  0  0  0  0
    1.7570   10.6470    0.0250 C   0  0  0  0  0  0  0  0  0  0  0  0
    1.0760   11.7660   -0.7980 C   0  0  1  0  0  0  0  0  0  0  0  0
    0.6780   12.8500    0.2520 C   0  0  0  0  0  0  0  0  0  0  0  0
    1.9190   12.3760   -1.9650 C   0  0  2  0  0  0  0  0  0  0  0  0
    3.2150   13.0840   -1.5340 C   0  0  0  0  0  0  0  0  0  0  0  0
    3.0800   14.5420   -1.2450 C   0  0  0  0  0  0  0  0  0  0  0  0
    2.0360   15.3160   -1.5980 C   0  0  0  0  0  0  0  0  0  0  0  0
    0.8910   14.7530   -2.4490 C   0  0  1  0  0  0  0  0  0  0  0  0
    0.5560   15.7480   -3.5910 C   0  0  0  0  0  0  0  0  0  0  0  0
    0.2640   17.1540   -3.0750 C   0  0  0  0  0  0  0  0  0  0  0  0
    1.4480   17.7020   -2.2830 C   0  0  2  0  0  0  0  0  0  0  0  0
    2.5490   17.8950   -3.1770 O   0  0  0  0  0  0  0  0  0  0  0  0
    1.8820   16.7780   -1.1110 C   0  0  0  0  0  0  0  0  0  0  0  0
    0.8060   16.8090    0.0020 C   0  0  0  0  0  0  0  0  0  0  0  0
    3.1710   17.3750   -0.4850 C   0  0  0  0  0  0  0  0  0  0  0  0
    1.0830   13.2650   -2.9730 C   0  0  1  0  0  0  0  0  0  0  0  0
    1.8700   13.2720   -4.3190 C   0  0  0  0  0  0  0  0  0  0  0  0
   -0.3300   12.6440   -3.2880 C   0  0  0  0  0  0  0  0  0  0  0  0
   -1.0600   11.9510   -2.1210 C   0  0  0  0  0  0  0  0  0  0  0  0
   -0.1330   10.9650   -1.4030 C   0  0  2  0  0  0  0  0  0  0  0  0
    0.2670    9.8500   -2.4290 C   0  0  0  0  0  0  0  0  0  0  0  0
   -1.5081    7.5603   -1.8180 H   0  0  0  0  0  0  0  0  0  0  0  0
   -2.5681    8.9246   -2.3098 H   0  0  0  0  0  0  0  0  0  0  0  0
   -0.7834    9.1286   -2.3098 H   0  0  0  0  0  0  0  0  0  0  0  0
   -1.4130    8.2833    0.2958 H   0  0  0  0  0  0  0  0  0  0  0  0
   -3.7392    9.5925   -0.8347 H   0  0  0  0  0  0  0  0  0  0  0  0
   -3.4617    8.8701    0.8220 H   0  0  0  0  0  0  0  0  0  0  0  0
   -2.7888   11.7132   -0.0282 H   0  0  0  0  0  0  0  0  0  0  0  0
   -4.1895   11.1844    0.9939 H   0  0  0  0  0  0  0  0  0  0  0  0
   -1.8014   10.0983    1.6732 H   0  0  0  0  0  0  0  0  0  0  0  0
   -2.2410   14.4214    2.6414 H   0  0  0  0  0  0  0  0  0  0  0  0
   -1.2161   13.9723    1.2363 H   0  0  0  0  0  0  0  0  0  0  0  0
   -2.9666   13.5695    1.2363 H   0  0  0  0  0  0  0  0  0  0  0  0
   -0.8784   12.3120    4.4445 H   0  0  0  0  0  0  0  0  0  0  0  0
    0.0067   11.3771    3.1918 H   0  0  0  0  0  0  0  0  0  0  0  0
    0.0797   13.1719    3.1918 H   0  0  0  0  0  0  0  0  0  0  0  0
   -1.3414   10.9753    0.4181 H   0  0  0  0  0  0  0  0  0  0  0  0
    0.4809   10.0258    1.6898 H   0  0  0  0  0  0  0  0  0  0  0  0
    0.7540    8.7458    0.4879 H   0  0  0  0  0  0  0  0  0  0  0  0
    2.3719   11.0761    0.8298 H   0  0  0  0  0  0  0  0  0  0  0  0
    2.4325   10.0310   -0.5868 H   0  0  0  0  0  0  0  0  0  0  0  0
    0.8250   12.4497    1.2660 H   0  0  0  0  0  0  0  0  0  0  0  0
    1.3074   13.7417    0.1150 H   0  0  0  0  0  0  0  0  0  0  0  0
   -0.3789   13.1226    0.1150 H   0  0  0  0  0  0  0  0  0  0  0  0
    2.2380   11.4800   -2.5177 H   0  0  0  0  0  0  0  0  0  0  0  0
    3.5854   12.5901   -0.6236 H   0  0  0  0  0  0  0  0  0  0  0  0
    3.9028   13.0060   -2.3889 H   0  0  0  0  0  0  0  0  0  0  0  0
    3.9027   15.0251   -0.6975 H   0  0  0  0  0  0  0  0  0  0  0  0
    0.0288   14.6575   -1.7726 H   0  0  0  0  0  0  0  0  0  0  0  0
    1.4125   15.7959   -4.2795 H   0  0  0  0  0  0  0  0  0  0  0  0
   -0.3501   15.3830   -4.0968 H   0  0  0  0  0  0  0  0  0  0  0  0
    0.0651   17.8170   -3.9299 H   0  0  0  0  0  0  0  0  0  0  0  0
   -0.6117   17.1091   -2.4108 H   0  0  0  0  0  0  0  0  0  0  0  0
    1.1312   18.6532   -1.8305 H   0  0  0  0  0  0  0  0  0  0  0  0
    3.3320   17.4850   -2.7710 H   0  0  0  0  0  0  0  0  0  0  0  0
    1.2964   16.7949    0.9866 H   0  0  0  0  0  0  0  0  0  0  0  0
    0.2045   17.7248   -0.0949 H   0  0  0  0  0  0  0  0  0  0  0  0
    0.1527   15.9293   -0.0949 H   0  0  0  0  0  0  0  0  0  0  0  0
    3.0960   17.3402    0.6119 H   0  0  0  0  0  0  0  0  0  0  0  0
    4.0427   16.7889   -0.8117 H   0  0  0  0  0  0  0  0  0  0  0  0
    3.2878   18.4189   -0.8117 H   0  0  0  0  0  0  0  0  0  0  0  0
    2.9503   13.2816   -4.1120 H   0  0  0  0  0  0  0  0  0  0  0  0
    1.6154   12.3716   -4.8973 H   0  0  0  0  0  0  0  0  0  0  0  0
    1.5995   14.1678   -4.8973 H   0  0  0  0  0  0  0  0  0  0  0  0
   -0.9773   13.4563   -3.6501 H   0  0  0  0  0  0  0  0  0  0  0  0
   -0.1372   11.8468   -4.0210 H   0  0  0  0  0  0  0  0  0  0  0  0
   -1.3984   12.7139   -1.4044 H   0  0  0  0  0  0  0  0  0  0  0  0
   -1.9186   11.3947   -2.5251 H   0  0  0  0  0  0  0  0  0  0  0  0
    0.5899    8.9500   -1.8851 H   0  0  0  0  0  0  0  0  0  0  0  0
   -0.5994    9.6054   -3.0610 H   0  0  0  0  0  0  0  0  0  0  0  0
    1.0913   10.2119   -3.0610 H   0  0  0  0  0  0  0  0  0  0  0  0
  1  2  1  0
  2  3  1  0
  3  4  1  0
  4  5  1  0
  5  6  1  0
  6  7  1  0
  7  8  1  0
  7  9  1  0
  2 10  1  0
 10 11  1  0
 11 12  1  0
 12 13  1  0
 13 14  1  1
 13 15  1  0
 15 16  1  0
 16 17  1  0
 17 18  2  0
 18 19  1  0
 19 20  1  0
 20 21  1  0
 21 22  1  0
 22 23  1  0
 22 24  1  0
 24 25  1  0
 24 26  1  0
 19 27  1  0
 27 28  1  6
 27 29  1  0
 29 30  1  0
 30 31  1  0
 31 32  1  6
  7  5  1  0
 31 10  1  0
 31 13  1  0
 27 15  1  0
 24 18  1  0
  1 33  1  0
  1 34  1  0
  1 35  1  0
  2 36  1  1
  3 37  1  0
  3 38  1  0
  4 39  1  0
  4 40  1  0
  5 41  1  1
  8 42  1  0
  8 43  1  0
  8 44  1  0
  9 45  1  0
  9 46  1  0
  9 47  1  0
 10 48  1  1
 11 49  1  0
 11 50  1  0
 12 51  1  0
 12 52  1  0
 14 53  1  0
 14 54  1  0
 14 55  1  0
 15 56  1  6
 16 57  1  0
 16 58  1  0
 17 59  1  0
 19 60  1  1
 20 61  1  0
 20 62  1  0
 21 63  1  0
 21 64  1  0
 22 65  1  1
 23 66  1  0
 25 67  1  0
 25 68  1  0
 25 69  1  0
 26 70  1  0
 26 71  1  0
 26 72  1  0
 28 73  1  0
 28 74  1  0
 28 75  1  0
 29 76  1  0
 29 77  1  0
 30 78  1  0
 30 79  1  0
 32 80  1  0
 32 81  1  0
 32 82  1  0
M  END
>  <meeko>  (3) 
{"is_sidechain": [false], "intermolecular_energy": 2.731, "internal_energy": -0.839}

$$$$
EPH_relaxed_0001_pdb2pqr_Repair_344_r2_0001_out
     RDKit          3D

 82 86  0  0  0  0  0  0  0  0999 V2000
    3.8240   18.1630    0.5690 C   0  0  0  0  0  0  0  0  0  0  0  0
    2.7960   18.7280   -0.4150 C   0  0  2  0  0  0  0  0  0  0  0  0
    2.1330   20.0160    0.1140 C   0  0  0  0  0  0  0  0  0  0  0  0
    0.9600   19.7580    1.0640 C   0  0  0  0  0  0  0  0  0  0  0  0
   -0.3440   20.1940    0.4670 C   0  0  2  0  0  0  0  0  0  0  0  0
   -1.4490   20.1940    1.3800 O   0  0  0  0  0  0  0  0  0  0  0  0
   -1.5310   19.2690    0.2840 C   0  0  0  0  0  0  0  0  0  0  0  0
   -1.4710   17.8310    0.6960 C   0  0  0  0  0  0  0  0  0  0  0  0
   -2.5690   19.6290   -0.7330 C   0  0  0  0  0  0  0  0  0  0  0  0
    1.7320   17.6790   -0.7150 C   0  0  1  0  0  0  0  0  0  0  0  0
    0.8380   18.0640   -1.9240 C   0  0  0  0  0  0  0  0  0  0  0  0
    0.4860   16.7450   -2.6590 C   0  0  0  0  0  0  0  0  0  0  0  0
    0.9050   15.6270   -1.6750 C   0  0  1  0  0  0  0  0  0  0  0  0
   -0.2770   15.5240   -0.6600 C   0  0  0  0  0  0  0  0  0  0  0  0
    1.2440   14.2390   -2.3090 C   0  0  2  0  0  0  0  0  0  0  0  0
    0.0770   13.5550   -3.0430 C   0  0  0  0  0  0  0  0  0  0  0  0
   -0.7620   12.6500   -2.2030 C   0  0  0  0  0  0  0  0  0  0  0  0
   -0.4260   12.1750   -0.9890 C   0  0  0  0  0  0  0  0  0  0  0  0
    0.9550   12.4630   -0.3850 C   0  0  1  0  0  0  0  0  0  0  0  0
    1.5520   11.1520    0.1900 C   0  0  0  0  0  0  0  0  0  0  0  0
    0.6140   10.4650    1.1780 C   0  0  0  0  0  0  0  0  0  0  0  0
   -0.7260   10.1420    0.5230 C   0  0  2  0  0  0  0  0  0  0  0  0
   -0.5190    9.1500   -0.4870 O   0  0  0  0  0  0  0  0  0  0  0  0
   -1.4190   11.3860   -0.1000 C   0  0  0  0  0  0  0  0  0  0  0  0
   -1.9140   12.3260    1.0270 C   0  0  0  0  0  0  0  0  0  0  0  0
   -2.6890   10.9000   -0.8490 C   0  0  0  0  0  0  0  0  0  0  0  0
    1.9750   13.2380   -1.3250 C   0  0  1  0  0  0  0  0  0  0  0  0
    2.7510   12.2230   -2.2190 C   0  0  0  0  0  0  0  0  0  0  0  0
    3.0530   13.9580   -0.4310 C   0  0  0  0  0  0  0  0  0  0  0  0
    2.7090   15.3750    0.0660 C   0  0  0  0  0  0  0  0  0  0  0  0
    2.2200   16.2570   -1.0870 C   0  0  2  0  0  0  0  0  0  0  0  0
    3.3950   16.3970   -2.1140 C   0  0  0  0  0  0  0  0  0  0  0  0
    3.4861   18.3487    1.5992 H   0  0  0  0  0  0  0  0  0  0  0  0
    3.9296   17.0801    0.4074 H   0  0  0  0  0  0  0  0  0  0  0  0
    4.7948   18.6543    0.4074 H   0  0  0  0  0  0  0  0  0  0  0  0
    3.3314   18.9885   -1.3399 H   0  0  0  0  0  0  0  0  0  0  0  0
    2.8928   20.6024    0.6514 H   0  0  0  0  0  0  0  0  0  0  0  0
    1.7293   20.5516   -0.7578 H   0  0  0  0  0  0  0  0  0  0  0  0
    0.9092   18.6813    1.2833 H   0  0  0  0  0  0  0  0  0  0  0  0
    1.1282   20.3401    1.9821 H   0  0  0  0  0  0  0  0  0  0  0  0
    0.1732   20.8754   -0.2245 H   0  0  0  0  0  0  0  0  0  0  0  0
   -1.4682   17.7640    1.7940 H   0  0  0  0  0  0  0  0  0  0  0  0
   -2.3477   17.2988    0.2984 H   0  0  0  0  0  0  0  0  0  0  0  0
   -0.5530   17.3737    0.2984 H   0  0  0  0  0  0  0  0  0  0  0  0
   -3.4888   19.9480   -0.2210 H   0  0  0  0  0  0  0  0  0  0  0  0
   -2.1961   20.4503   -1.3626 H   0  0  0  0  0  0  0  0  0  0  0  0
   -2.7847   18.7532   -1.3626 H   0  0  0  0  0  0  0  0  0  0  0  0
    1.2156   17.6575    0.2560 H   0  0  0  0  0  0  0  0  0  0  0  0
   -0.0798   18.5589   -1.5738 H   0  0  0  0  0  0  0  0  0  0  0  0
    1.3604   18.7622   -2.5946 H   0  0  0  0  0  0  0  0  0  0  0  0
   -0.5925   16.6933   -2.8692 H   0  0  0  0  0  0  0  0  0  0  0  0
    0.9959   16.6593   -3.6299 H   0  0  0  0  0  0  0  0  0  0  0  0
    0.1171   15.5583    0.3664 H   0  0  0  0  0  0  0  0  0  0  0  0
   -0.9684   16.3653   -0.8157 H   0  0  0  0  0  0  0  0  0  0  0  0
   -0.8124   14.5758   -0.8157 H   0  0  0  0  0  0  0  0  0  0  0  0
    1.9716   14.5069   -3.0893 H   0  0  0  0  0  0  0  0  0  0  0  0
   -0.5751   14.3411   -3.4514 H   0  0  0  0  0  0  0  0  0  0  0  0
    0.5344   12.9174   -3.8139 H   0  0  0  0  0  0  0  0  0  0  0  0
   -1.7373   12.3455   -2.6105 H   0  0  0  0  0  0  0  0  0  0  0  0
    0.7870   13.1845    0.4282 H   0  0  0  0  0  0  0  0  0  0  0  0
    1.7540   10.4619   -0.6424 H   0  0  0  0  0  0  0  0  0  0  0  0
    2.4728   11.4143    0.7315 H   0  0  0  0  0  0  0  0  0  0  0  0
    1.0791    9.5309    1.5260 H   0  0  0  0  0  0  0  0  0  0  0  0
    0.4364   11.1447    2.0244 H   0  0  0  0  0  0  0  0  0  0  0  0
   -1.3974    9.7712    1.3115 H   0  0  0  0  0  0  0  0  0  0  0  0
   -0.5270    8.2810   -0.0510 H   0  0  0  0  0  0  0  0  0  0  0  0
   -1.6796   11.8808    2.0052 H   0  0  0  0  0  0  0  0  0  0  0  0
   -1.4123   13.3009    0.9381 H   0  0  0  0  0  0  0  0  0  0  0  0
   -3.0017   12.4639    0.9381 H   0  0  0  0  0  0  0  0  0  0  0  0
   -3.4563   10.6064   -0.1175 H   0  0  0  0  0  0  0  0  0  0  0  0
   -3.0763   11.7135   -1.4801 H   0  0  0  0  0  0  0  0  0  0  0  0
   -2.4343   10.0358   -1.4801 H   0  0  0  0  0  0  0  0  0  0  0  0
    3.2946   11.5120   -1.5795 H   0  0  0  0  0  0  0  0  0  0  0  0
    2.0394   11.6750   -2.8541 H   0  0  0  0  0  0  0  0  0  0  0  0
    3.4664   12.7660   -2.8541 H   0  0  0  0  0  0  0  0  0  0  0  0
    3.2262   13.3279    0.4539 H   0  0  0  0  0  0  0  0  0  0  0  0
    3.9289   14.0867   -1.0838 H   0  0  0  0  0  0  0  0  0  0  0  0
    1.9181   15.3071    0.8275 H   0  0  0  0  0  0  0  0  0  0  0  0
    3.6166   15.8269    0.4926 H   0  0  0  0  0  0  0  0  0  0  0  0
    4.3450   16.5102   -1.5711 H   0  0  0  0  0  0  0  0  0  0  0  0
    3.4387   15.4977   -2.7460 H   0  0  0  0  0  0  0  0  0  0  0  0
    3.2262   17.2814   -2.7460 H   0  0  0  0  0  0  0  0  0  0  0  0
  1  2  1  0
  2  3  1  0
  3  4  1  0
  4  5  1  0
  5  6  1  0
  6  7  1  0
  7  8  1  0
  7  9  1  0
  2 10  1  0
 10 11  1  0
 11 12  1  0
 12 13  1  0
 13 14  1  1
 13 15  1  0
 15 16  1  0
 16 17  1  0
 17 18  2  0
 18 19  1  0
 19 20  1  0
 20 21  1  0
 21 22  1  0
 22 23  1  0
 22 24  1  0
 24 25  1  0
 24 26  1  0
 19 27  1  0
 27 28  1  6
 27 29  1  0
 29 30  1  0
 30 31  1  0
 31 32  1  6
  7  5  1  0
 31 10  1  0
 31 13  1  0
 27 15  1  0
 24 18  1  0
  1 33  1  0
  1 34  1  0
  1 35  1  0
  2 36  1  6
  3 37  1  0
  3 38  1  0
  4 39  1  0
  4 40  1  0
  5 41  1  6
  8 42  1  0
  8 43  1  0
  8 44  1  0
  9 45  1  0
  9 46  1  0
  9 47  1  0
 10 48  1  1
 11 49  1  0
 11 50  1  0
 12 51  1  0
 12 52  1  0
 14 53  1  0
 14 54  1  0
 14 55  1  0
 15 56  1  6
 16 57  1  0
 16 58  1  0
 17 59  1  0
 19 60  1  1
 20 61  1  0
 20 62  1  0
 21 63  1  0
 21 64  1  0
 22 65  1  1
 23 66  1  0
 25 67  1  0
 25 68  1  0
 25 69  1  0
 26 70  1  0
 26 71  1  0
 26 72  1  0
 28 73  1  0
 28 74  1  0
 28 75  1  0
 29 76  1  0
 29 77  1  0
 30 78  1  0
 30 79  1  0
 32 80  1  0
 32 81  1  0
 32 82  1  0
M  END
>  <meeko>  (4) 
{"is_sidechain": [false], "intermolecular_energy": 2.731, "internal_energy": -0.839}

$$$$
EPH_relaxed_0001_pdb2pqr_Repair_344_r2_0001_out
     RDKit          3D

 82 86  0  0  0  0  0  0  0  0999 V2000
    2.3170   16.5970   -0.8540 C   0  0  0  0  0  0  0  0  0  0  0  0
    2.0640   16.2800   -2.3300 C   0  0  2  0  0  0  0  0  0  0  0  0
    1.5730   17.5140   -3.1130 C   0  0  0  0  0  0  0  0  0  0  0  0
    1.3610   18.7530   -2.2390 C   0  0  0  0  0  0  0  0  0  0  0  0
   -0.0560   18.8580   -1.7620 C   0  0  2  0  0  0  0  0  0  0  0  0
   -0.4720   20.1840   -1.4090 O   0  0  0  0  0  0  0  0  0  0  0  0
   -0.4340   19.2250   -0.3390 C   0  0  0  0  0  0  0  0  0  0  0  0
    0.6080   19.5100    0.6970 C   0  0  0  0  0  0  0  0  0  0  0  0
   -1.7870   18.8320    0.1660 C   0  0  0  0  0  0  0  0  0  0  0  0
    1.0510   15.1480   -2.4530 C   0  0  1  0  0  0  0  0  0  0  0  0
    1.1360   14.4150   -3.8190 C   0  0  0  0  0  0  0  0  0  0  0  0
    0.8180   12.9220   -3.5460 C   0  0  0  0  0  0  0  0  0  0  0  0
    0.2410   12.9020   -2.1110 C   0  0  1  0  0  0  0  0  0  0  0  0
   -1.2540   13.3210   -2.2750 C   0  0  0  0  0  0  0  0  0  0  0  0
    0.3810   11.5560   -1.3290 C   0  0  2  0  0  0  0  0  0  0  0  0
   -0.3570   10.3590   -1.9530 C   0  0  0  0  0  0  0  0  0  0  0  0
   -1.7600   10.1600   -1.4850 C   0  0  0  0  0  0  0  0  0  0  0  0
   -2.3110   10.7310   -0.3970 C   0  0  0  0  0  0  0  0  0  0  0  0
   -1.4700   11.6010    0.5460 C   0  0  1  0  0  0  0  0  0  0  0  0
   -1.7530   11.1940    2.0160 C   0  0  0  0  0  0  0  0  0  0  0  0
   -3.2390   11.2320    2.3570 C   0  0  0  0  0  0  0  0  0  0  0  0
   -4.0340   10.3100    1.4360 C   0  0  2  0  0  0  0  0  0  0  0  0
   -3.6620    8.9550    1.7070 O   0  0  0  0  0  0  0  0  0  0  0  0
   -3.8210   10.6190   -0.0720 C   0  0  0  0  0  0  0  0  0  0  0  0
   -4.4960   11.9670   -0.4290 C   0  0  0  0  0  0  0  0  0  0  0  0
   -4.5640    9.5310   -0.8920 C   0  0  0  0  0  0  0  0  0  0  0  0
    0.0840   11.6740    0.2210 C   0  0  1  0  0  0  0  0  0  0  0  0
    0.8270   10.4870    0.9080 C   0  0  0  0  0  0  0  0  0  0  0  0
    0.6790   12.9910    0.8460 C   0  0  0  0  0  0  0  0  0  0  0  0
    0.6190   14.2610   -0.0230 C   0  0  0  0  0  0  0  0  0  0  0  0
    1.1540   13.9870   -1.4320 C   0  0  2  0  0  0  0  0  0  0  0  0
    2.6620   13.5850   -1.3010 C   0  0  0  0  0  0  0  0  0  0  0  0
    1.7538   15.8913   -0.2257 H   0  0  0  0  0  0  0  0  0  0  0  0
    3.3915   16.5035   -0.6378 H   0  0  0  0  0  0  0  0  0  0  0  0
    1.9875   17.6240   -0.6378 H   0  0  0  0  0  0  0  0  0  0  0  0
    3.0230   15.9696   -2.7705 H   0  0  0  0  0  0  0  0  0  0  0  0
    2.3198   17.7562   -3.8835 H   0  0  0  0  0  0  0  0  0  0  0  0
    0.5950   17.2532   -3.5437 H   0  0  0  0  0  0  0  0  0  0  0  0
    2.0276   18.6920   -1.3661 H   0  0  0  0  0  0  0  0  0  0  0  0
    1.5861   19.6431   -2.8449 H   0  0  0  0  0  0  0  0  0  0  0  0
   -0.3631   18.0290   -2.4165 H   0  0  0  0  0  0  0  0  0  0  0  0
    0.1709   19.3904    1.6993 H   0  0  0  0  0  0  0  0  0  0  0  0
    1.4464   18.8082    0.5765 H   0  0  0  0  0  0  0  0  0  0  0  0
    0.9725   20.5408    0.5765 H   0  0  0  0  0  0  0  0  0  0  0  0
   -1.7824   18.8333    1.2660 H   0  0  0  0  0  0  0  0  0  0  0  0
   -2.5370   19.5494   -0.1984 H   0  0  0  0  0  0  0  0  0  0  0  0
   -2.0360   17.8244   -0.1984 H   0  0  0  0  0  0  0  0  0  0  0  0
    0.1222   15.7136   -2.2873 H   0  0  0  0  0  0  0  0  0  0  0  0
    0.4018   14.8364   -4.5214 H   0  0  0  0  0  0  0  0  0  0  0  0
    2.1335   14.5307   -4.2680 H   0  0  0  0  0  0  0  0  0  0  0  0
    0.0783   12.5443   -4.2673 H   0  0  0  0  0  0  0  0  0  0  0  0
    1.7062   12.2810   -3.6474 H   0  0  0  0  0  0  0  0  0  0  0  0
   -1.7100   13.4488   -1.2822 H   0  0  0  0  0  0  0  0  0  0  0  0
   -1.3103   14.2695   -2.8292 H   0  0  0  0  0  0  0  0  0  0  0  0
   -1.7950   12.5399   -2.8292 H   0  0  0  0  0  0  0  0  0  0  0  0
    1.4531   11.3327   -1.4330 H   0  0  0  0  0  0  0  0  0  0  0  0
   -0.3799   10.5047   -3.0431 H   0  0  0  0  0  0  0  0  0  0  0  0
    0.1981    9.4626   -1.6395 H   0  0  0  0  0  0  0  0  0  0  0  0
   -2.3984    9.4898   -2.0794 H   0  0  0  0  0  0  0  0  0  0  0  0
   -1.7969   12.6375    0.3762 H   0  0  0  0  0  0  0  0  0  0  0  0
   -1.3802   10.1717    2.1770 H   0  0  0  0  0  0  0  0  0  0  0  0
   -1.2420   11.9182    2.6675 H   0  0  0  0  0  0  0  0  0  0  0  0
   -3.3777   10.9070    3.3987 H   0  0  0  0  0  0  0  0  0  0  0  0
   -3.6036   12.2612    2.2233 H   0  0  0  0  0  0  0  0  0  0  0  0
   -5.1013   10.4775    1.6427 H   0  0  0  0  0  0  0  0  0  0  0  0
   -4.4420    8.5040    2.0740 H   0  0  0  0  0  0  0  0  0  0  0  0
   -4.7628   12.4997    0.4957 H   0  0  0  0  0  0  0  0  0  0  0  0
   -3.7992   12.5813   -1.0181 H   0  0  0  0  0  0  0  0  0  0  0  0
   -5.4053   11.7771   -1.0181 H   0  0  0  0  0  0  0  0  0  0  0  0
   -5.0486    8.8214   -0.2053 H   0  0  0  0  0  0  0  0  0  0  0  0
   -5.3267   10.0067   -1.5260 H   0  0  0  0  0  0  0  0  0  0  0  0
   -3.8433    8.9937   -1.5260 H   0  0  0  0  0  0  0  0  0  0  0  0
    0.7593   10.5952    2.0006 H   0  0  0  0  0  0  0  0  0  0  0  0
    0.3615    9.5378    0.6040 H   0  0  0  0  0  0  0  0  0  0  0  0
    1.8841   10.4909    0.6040 H   0  0  0  0  0  0  0  0  0  0  0  0
    0.1273   13.1972    1.7750 H   0  0  0  0  0  0  0  0  0  0  0  0
    1.7511   12.7860    0.9822 H   0  0  0  0  0  0  0  0  0  0  0  0
   -0.4252   14.5994   -0.0941 H   0  0  0  0  0  0  0  0  0  0  0  0
    1.2439   15.0360    0.4449 H   0  0  0  0  0  0  0  0  0  0  0  0
    2.9312   13.5132   -0.2369 H   0  0  0  0  0  0  0  0  0  0  0  0
    2.8256   12.6119   -1.7871 H   0  0  0  0  0  0  0  0  0  0  0  0
    3.2883   14.3475   -1.7871 H   0  0  0  0  0  0  0  0  0  0  0  0
  1  2  1  0
  2  3  1  0
  3  4  1  0
  4  5  1  0
  5  6  1  0
  6  7  1  0
  7  8  1  0
  7  9  1  0
  2 10  1  0
 10 11  1  0
 11 12  1  0
 12 13  1  0
 13 14  1  6
 13 15  1  0
 15 16  1  0
 16 17  1  0
 17 18  2  0
 18 19  1  0
 19 20  1  0
 20 21  1  0
 21 22  1  0
 22 23  1  0
 22 24  1  0
 24 25  1  0
 24 26  1  0
 19 27  1  0
 27 28  1  1
 27 29  1  0
 29 30  1  0
 30 31  1  0
 31 32  1  1
  7  5  1  0
 31 10  1  0
 31 13  1  0
 27 15  1  0
 24 18  1  0
  1 33  1  0
  1 34  1  0
  1 35  1  0
  2 36  1  6
  3 37  1  0
  3 38  1  0
  4 39  1  0
  4 40  1  0
  5 41  1  6
  8 42  1  0
  8 43  1  0
  8 44  1  0
  9 45  1  0
  9 46  1  0
  9 47  1  0
 10 48  1  6
 11 49  1  0
 11 50  1  0
 12 51  1  0
 12 52  1  0
 14 53  1  0
 14 54  1  0
 14 55  1  0
 15 56  1  1
 16 57  1  0
 16 58  1  0
 17 59  1  0
 19 60  1  1
 20 61  1  0
 20 62  1  0
 21 63  1  0
 21 64  1  0
 22 65  1  1
 23 66  1  0
 25 67  1  0
 25 68  1  0
 25 69  1  0
 26 70  1  0
 26 71  1  0
 26 72  1  0
 28 73  1  0
 28 74  1  0
 28 75  1  0
 29 76  1  0
 29 77  1  0
 30 78  1  0
 30 79  1  0
 32 80  1  0
 32 81  1  0
 32 82  1  0
M  END
>  <meeko>  (5) 
{"is_sidechain": [false], "intermolecular_energy": 2.731, "internal_energy": -0.839}

$$$$
EPH_relaxed_0001_pdb2pqr_Repair_344_r2_0001_out
     RDKit          3D

 82 86  0  0  0  0  0  0  0  0999 V2000
    0.3890   18.4590   -0.0460 C   0  0  0  0  0  0  0  0  0  0  0  0
    1.4770   17.4000   -0.2410 C   0  0  2  0  0  0  0  0  0  0  0  0
    2.7040   17.9580   -0.9900 C   0  0  0  0  0  0  0  0  0  0  0  0
    3.9390   18.1350   -0.1020 C   0  0  0  0  0  0  0  0  0  0  0  0
    3.5720   18.6110    1.2710 C   0  0  2  0  0  0  0  0  0  0  0  0
    3.8220   20.0030    1.5080 O   0  0  0  0  0  0  0  0  0  0  0  0
    4.5900   19.0780    2.2950 C   0  0  0  0  0  0  0  0  0  0  0  0
    6.0550   19.0890    1.9890 C   0  0  0  0  0  0  0  0  0  0  0  0
    4.2100   19.0570    3.7420 C   0  0  0  0  0  0  0  0  0  0  0  0
    0.9080   16.2030   -0.9930 C   0  0  1  0  0  0  0  0  0  0  0  0
    0.7700   16.4650   -2.5160 C   0  0  0  0  0  0  0  0  0  0  0  0
    1.0650   15.1220   -3.2310 C   0  0  0  0  0  0  0  0  0  0  0  0
    1.0360   14.0650   -2.1020 C   0  0  1  0  0  0  0  0  0  0  0  0
   -0.4780   13.7580   -1.8790 C   0  0  0  0  0  0  0  0  0  0  0  0
    1.8590   12.7600   -2.3550 C   0  0  2  0  0  0  0  0  0  0  0  0
    1.3890   11.9150   -3.5520 C   0  0  0  0  0  0  0  0  0  0  0  0
    0.3670   10.8740   -3.2360 C   0  0  0  0  0  0  0  0  0  0  0  0
    0.0540   10.4340   -2.0030 C   0  0  0  0  0  0  0  0  0  0  0  0
    0.8280   10.9240   -0.7720 C   0  0  1  0  0  0  0  0  0  0  0  0
    1.1970    9.7120    0.1230 C   0  0  0  0  0  0  0  0  0  0  0  0
   -0.0180    8.8680    0.4950 C   0  0  0  0  0  0  0  0  0  0  0  0
   -0.7270    8.3510   -0.7540 C   0  0  2  0  0  0  0  0  0  0  0  0
    0.1340    7.4230   -1.4220 O   0  0  0  0  0  0  0  0  0  0  0  0
   -1.1380    9.4820   -1.7370 C   0  0  0  0  0  0  0  0  0  0  0  0
   -2.2930   10.3110   -1.1220 C   0  0  0  0  0  0  0  0  0  0  0  0
   -1.7140    8.8170   -3.0160 C   0  0  0  0  0  0  0  0  0  0  0  0
    2.0720   11.8670   -1.0660 C   0  0  1  0  0  0  0  0  0  0  0  0
    3.3450   11.0040   -1.3280 C   0  0  0  0  0  0  0  0  0  0  0  0
    2.3770   12.7300    0.2150 C   0  0  0  0  0  0  0  0  0  0  0  0
    1.6210   14.0660    0.3490 C   0  0  0  0  0  0  0  0  0  0  0  0
    1.7170   14.8820   -0.9430 C   0  0  2  0  0  0  0  0  0  0  0  0
    3.2270   15.2250   -1.1820 C   0  0  0  0  0  0  0  0  0  0  0  0
    0.2231   18.6205    1.0294 H   0  0  0  0  0  0  0  0  0  0  0  0
    0.7075   19.4023   -0.5136 H   0  0  0  0  0  0  0  0  0  0  0  0
   -0.5454   18.1151   -0.5136 H   0  0  0  0  0  0  0  0  0  0  0  0
    1.8151   17.0857    0.7574 H   0  0  0  0  0  0  0  0  0  0  0  0
    2.9586   17.2642   -1.8048 H   0  0  0  0  0  0  0  0  0  0  0  0
    2.4282   18.9565   -1.3599 H   0  0  0  0  0  0  0  0  0  0  0  0
    4.4583   17.1690   -0.0173 H   0  0  0  0  0  0  0  0  0  0  0  0
    4.5881   18.8928   -0.5651 H   0  0  0  0  0  0  0  0  0  0  0  0
    2.7480   17.8846    1.3285 H   0  0  0  0  0  0  0  0  0  0  0  0
    6.6259   19.0933    2.9292 H   0  0  0  0  0  0  0  0  0  0  0  0
    6.3146   18.1928    1.4064 H   0  0  0  0  0  0  0  0  0  0  0  0
    6.3012   19.9890    1.4064 H   0  0  0  0  0  0  0  0  0  0  0  0
    5.1183   19.1072    4.3604 H   0  0  0  0  0  0  0  0  0  0  0  0
    3.5666   19.9210    3.9647 H   0  0  0  0  0  0  0  0  0  0  0  0
    3.6657   18.1274    3.9647 H   0  0  0  0  0  0  0  0  0  0  0  0
   -0.0438   16.0826   -0.4549 H   0  0  0  0  0  0  0  0  0  0  0  0
   -0.2501   16.8028   -2.7510 H   0  0  0  0  0  0  0  0  0  0  0  0
    1.4676   17.2489   -2.8460 H   0  0  0  0  0  0  0  0  0  0  0  0
    0.2940   14.9060   -3.9853 H   0  0  0  0  0  0  0  0  0  0  0  0
    2.0265   15.1359   -3.7651 H   0  0  0  0  0  0  0  0  0  0  0  0
   -0.6884   13.7153   -0.8002 H   0  0  0  0  0  0  0  0  0  0  0  0
   -1.0848   14.5514   -2.3398 H   0  0  0  0  0  0  0  0  0  0  0  0
   -0.7278   12.7909   -2.3398 H   0  0  0  0  0  0  0  0  0  0  0  0
    2.8465   13.1548   -2.6361 H   0  0  0  0  0  0  0  0  0  0  0  0
    0.9596   12.5964   -4.3012 H   0  0  0  0  0  0  0  0  0  0  0  0
    2.2767   11.3715   -3.9078 H   0  0  0  0  0  0  0  0  0  0  0  0
   -0.1764   10.4287   -4.0824 H   0  0  0  0  0  0  0  0  0  0  0  0
    0.1450   11.5943   -0.2295 H   0  0  0  0  0  0  0  0  0  0  0  0
    1.9138    9.0782   -0.4197 H   0  0  0  0  0  0  0  0  0  0  0  0
    1.6288   10.1047    1.0554 H   0  0  0  0  0  0  0  0  0  0  0  0
    0.3108    8.0119    1.1025 H   0  0  0  0  0  0  0  0  0  0  0  0
   -0.7206    9.4957    1.0628 H   0  0  0  0  0  0  0  0  0  0  0  0
   -1.6582    7.8651   -0.4274 H   0  0  0  0  0  0  0  0  0  0  0  0
    0.3050    7.7700   -2.3140 H   0  0  0  0  0  0  0  0  0  0  0  0
   -2.2319   10.2671   -0.0246 H   0  0  0  0  0  0  0  0  0  0  0  0
   -2.2099   11.3569   -1.4523 H   0  0  0  0  0  0  0  0  0  0  0  0
   -3.2574    9.8976   -1.4523 H   0  0  0  0  0  0  0  0  0  0  0  0
   -2.4095    8.0141   -2.7303 H   0  0  0  0  0  0  0  0  0  0  0  0
   -2.2492    9.5709   -3.6120 H   0  0  0  0  0  0  0  0  0  0  0  0
   -0.8914    8.3948   -3.6120 H   0  0  0  0  0  0  0  0  0  0  0  0
    3.7883   10.7034   -0.3672 H   0  0  0  0  0  0  0  0  0  0  0  0
    3.0681   10.1066   -1.9008 H   0  0  0  0  0  0  0  0  0  0  0  0
    4.0761   11.5935   -1.9008 H   0  0  0  0  0  0  0  0  0  0  0  0
    2.1298   12.1181    1.0950 H   0  0  0  0  0  0  0  0  0  0  0  0
    3.4381   13.0071    0.1294 H   0  0  0  0  0  0  0  0  0  0  0  0
    0.5626   13.8603    0.5669 H   0  0  0  0  0  0  0  0  0  0  0  0
    2.0763   14.6463    1.1650 H   0  0  0  0  0  0  0  0  0  0  0  0
    3.7346   15.3403   -0.2130 H   0  0  0  0  0  0  0  0  0  0  0  0
    3.7022   14.4119   -1.7504 H   0  0  0  0  0  0  0  0  0  0  0  0
    3.3043   16.1636   -1.7504 H   0  0  0  0  0  0  0  0  0  0  0  0
  1  2  1  0
  2  3  1  0
  3  4  1  0
  4  5  1  0
  5  6  1  0
  6  7  1  0
  7  8  1  0
  7  9  1  0
  2 10  1  0
 10 11  1  0
 11 12  1  0
 12 13  1  0
 13 14  1  1
 13 15  1  0
 15 16  1  0
 16 17  1  0
 17 18  2  0
 18 19  1  0
 19 20  1  0
 20 21  1  0
 21 22  1  0
 22 23  1  0
 22 24  1  0
 24 25  1  0
 24 26  1  0
 19 27  1  0
 27 28  1  6
 27 29  1  0
 29 30  1  0
 30 31  1  0
 31 32  1  6
  7  5  1  0
 31 10  1  0
 31 13  1  0
 27 15  1  0
 24 18  1  0
  1 33  1  0
  1 34  1  0
  1 35  1  0
  2 36  1  1
  3 37  1  0
  3 38  1  0
  4 39  1  0
  4 40  1  0
  5 41  1  1
  8 42  1  0
  8 43  1  0
  8 44  1  0
  9 45  1  0
  9 46  1  0
  9 47  1  0
 10 48  1  1
 11 49  1  0
 11 50  1  0
 12 51  1  0
 12 52  1  0
 14 53  1  0
 14 54  1  0
 14 55  1  0
 15 56  1  6
 16 57  1  0
 16 58  1  0
 17 59  1  0
 19 60  1  1
 20 61  1  0
 20 62  1  0
 21 63  1  0
 21 64  1  0
 22 65  1  1
 23 66  1  0
 25 67  1  0
 25 68  1  0
 25 69  1  0
 26 70  1  0
 26 71  1  0
 26 72  1  0
 28 73  1  0
 28 74  1  0
 28 75  1  0
 29 76  1  0
 29 77  1  0
 30 78  1  0
 30 79  1  0
 32 80  1  0
 32 81  1  0
 32 82  1  0
M  END
>  <meeko>  (6) 
{"is_sidechain": [false], "intermolecular_energy": 2.731, "internal_energy": -0.839}

$$$$
EPH_relaxed_0001_pdb2pqr_Repair_344_r2_0001_out
     RDKit          3D

 82 86  0  0  0  0  0  0  0  0999 V2000
   -4.0990    7.5600   -1.7090 C   0  0  0  0  0  0  0  0  0  0  0  0
   -4.7500    8.5220   -0.7110 C   0  0  2  0  0  0  0  0  0  0  0  0
   -6.2750    8.6250   -0.9130 C   0  0  0  0  0  0  0  0  0  0  0  0
   -6.9010    7.3670   -1.5210 C   0  0  0  0  0  0  0  0  0  0  0  0
   -7.9430    6.7750   -0.6200 C   0  0  2  0  0  0  0  0  0  0  0  0
   -8.7450    5.7530   -1.2240 O   0  0  0  0  0  0  0  0  0  0  0  0
   -9.4340    6.9520   -0.8360 C   0  0  0  0  0  0  0  0  0  0  0  0
   -9.9670    7.7470   -1.9870 C   0  0  0  0  0  0  0  0  0  0  0  0
  -10.3530    6.7690    0.3320 C   0  0  0  0  0  0  0  0  0  0  0  0
   -4.1140    9.9030   -0.8300 C   0  0  1  0  0  0  0  0  0  0  0  0
   -5.1140   11.0490   -0.5210 C   0  0  0  0  0  0  0  0  0  0  0  0
   -4.3050   12.1700    0.1810 C   0  0  0  0  0  0  0  0  0  0  0  0
   -2.8250   11.7820   -0.0430 C   0  0  1  0  0  0  0  0  0  0  0  0
   -2.4960   12.2750   -1.4870 C   0  0  0  0  0  0  0  0  0  0  0  0
   -1.8000   12.3320    1.0020 C   0  0  2  0  0  0  0  0  0  0  0  0
   -1.6900   13.8660    1.0630 C   0  0  0  0  0  0  0  0  0  0  0  0
   -0.6650   14.4680    0.1600 C   0  0  0  0  0  0  0  0  0  0  0  0
    0.3270   13.7970   -0.4540 C   0  0  0  0  0  0  0  0  0  0  0  0
    0.5500   12.3030   -0.1890 C   0  0  1  0  0  0  0  0  0  0  0  0
    2.0590   12.0400    0.0570 C   0  0  0  0  0  0  0  0  0  0  0  0
    2.9360   12.5690   -1.0730 C   0  0  0  0  0  0  0  0  0  0  0  0
    2.7290   14.0690   -1.2690 C   0  0  2  0  0  0  0  0  0  0  0  0
    3.2200   14.7560   -0.1140 O   0  0  0  0  0  0  0  0  0  0  0  0
    1.2440   14.4550   -1.5150 C   0  0  0  0  0  0  0  0  0  0  0  0
    0.8020   13.9610   -2.9140 C   0  0  0  0  0  0  0  0  0  0  0  0
    1.1540   16.0050   -1.5540 C   0  0  0  0  0  0  0  0  0  0  0  0
   -0.3730   11.6530    0.9300 C   0  0  1  0  0  0  0  0  0  0  0  0
    0.2800   11.8400    2.3340 C   0  0  0  0  0  0  0  0  0  0  0  0
   -0.4620   10.1000    0.6850 C   0  0  0  0  0  0  0  0  0  0  0  0
   -1.5710    9.6080   -0.2650 C   0  0  0  0  0  0  0  0  0  0  0  0
   -2.9240   10.2210    0.1090 C   0  0  2  0  0  0  0  0  0  0  0  0
   -3.2920    9.7250    1.5490 C   0  0  0  0  0  0  0  0  0  0  0  0
   -3.5644    6.7699   -1.1613 H   0  0  0  0  0  0  0  0  0  0  0  0
   -4.8764    7.1062   -2.3413 H   0  0  0  0  0  0  0  0  0  0  0  0
   -3.3887    8.1129   -2.3413 H   0  0  0  0  0  0  0  0  0  0  0  0
   -4.5777    8.1186    0.2978 H   0  0  0  0  0  0  0  0  0  0  0  0
   -6.7434    8.8081    0.0653 H   0  0  0  0  0  0  0  0  0  0  0  0
   -6.4508    9.4470   -1.6225 H   0  0  0  0  0  0  0  0  0  0  0  0
   -7.3680    7.6299   -2.4816 H   0  0  0  0  0  0  0  0  0  0  0  0
   -6.1047    6.6211   -1.6608 H   0  0  0  0  0  0  0  0  0  0  0  0
   -7.3020    6.9276    0.2608 H   0  0  0  0  0  0  0  0  0  0  0  0
  -10.5416    8.6041   -1.6058 H   0  0  0  0  0  0  0  0  0  0  0  0
   -9.1295    8.1107   -2.6005 H   0  0  0  0  0  0  0  0  0  0  0  0
  -10.6215    7.1104   -2.6005 H   0  0  0  0  0  0  0  0  0  0  0  0
   -9.7847    6.8822    1.2670 H   0  0  0  0  0  0  0  0  0  0  0  0
  -11.1501    7.5260    0.2935 H   0  0  0  0  0  0  0  0  0  0  0  0
  -10.7993    5.7643    0.2935 H   0  0  0  0  0  0  0  0  0  0  0  0
   -3.7680    9.8579   -1.8732 H   0  0  0  0  0  0  0  0  0  0  0  0
   -5.5560   11.4282   -1.4542 H   0  0  0  0  0  0  0  0  0  0  0  0
   -5.9359   10.6948    0.1185 H   0  0  0  0  0  0  0  0  0  0  0  0
   -4.5229   13.1482   -0.2724 H   0  0  0  0  0  0  0  0  0  0  0  0
   -4.5558   12.2594    1.2483 H   0  0  0  0  0  0  0  0  0  0  0  0
   -1.8862   13.1888   -1.4324 H   0  0  0  0  0  0  0  0  0  0  0  0
   -1.9379   11.4932   -2.0231 H   0  0  0  0  0  0  0  0  0  0  0  0
   -3.4321   12.4903   -2.0231 H   0  0  0  0  0  0  0  0  0  0  0  0
   -2.2508   12.0262    1.9577 H   0  0  0  0  0  0  0  0  0  0  0  0
   -2.6696   14.2880    0.7943 H   0  0  0  0  0  0  0  0  0  0  0  0
   -1.3724   14.1079    2.0880 H   0  0  0  0  0  0  0  0  0  0  0  0
   -0.7256   15.5517   -0.0187 H   0  0  0  0  0  0  0  0  0  0  0  0
    0.2242   11.7802   -1.1003 H   0  0  0  0  0  0  0  0  0  0  0  0
    2.3550   12.5342    0.9941 H   0  0  0  0  0  0  0  0  0  0  0  0
    2.2040   10.9509    0.1107 H   0  0  0  0  0  0  0  0  0  0  0  0
    3.9916   12.3804   -0.8277 H   0  0  0  0  0  0  0  0  0  0  0  0
    2.6587   12.0521   -2.0036 H   0  0  0  0  0  0  0  0  0  0  0  0
    3.2832   14.3640   -2.1723 H   0  0  0  0  0  0  0  0  0  0  0  0
    2.7950   14.3620    0.6660 H   0  0  0  0  0  0  0  0  0  0  0  0
    0.0724   13.1456   -2.8013 H   0  0  0  0  0  0  0  0  0  0  0  0
    0.3404   14.7921   -3.4674 H   0  0  0  0  0  0  0  0  0  0  0  0
    1.6791   13.5943   -3.4674 H   0  0  0  0  0  0  0  0  0  0  0  0
    1.1312   16.3969   -0.5264 H   0  0  0  0  0  0  0  0  0  0  0  0
    2.0301   16.4100   -2.0816 H   0  0  0  0  0  0  0  0  0  0  0  0
    0.2369   16.3059   -2.0816 H   0  0  0  0  0  0  0  0  0  0  0  0
   -0.4640   11.6269    3.1157 H   0  0  0  0  0  0  0  0  0  0  0  0
    1.1295   11.1490    2.4382 H   0  0  0  0  0  0  0  0  0  0  0  0
    0.6350   12.8759    2.4382 H   0  0  0  0  0  0  0  0  0  0  0  0
    0.5021    9.7733    0.2682 H   0  0  0  0  0  0  0  0  0  0  0  0
   -0.7110    9.6681    1.6656 H   0  0  0  0  0  0  0  0  0  0  0  0
   -1.3170    9.8976   -1.2954 H   0  0  0  0  0  0  0  0  0  0  0  0
   -1.6459    8.5138   -0.1804 H   0  0  0  0  0  0  0  0  0  0  0  0
   -2.8102   10.3744    2.2948 H   0  0  0  0  0  0  0  0  0  0  0  0
   -4.3834    9.7614    1.6816 H   0  0  0  0  0  0  0  0  0  0  0  0
   -2.9408    8.6910    1.6816 H   0  0  0  0  0  0  0  0  0  0  0  0
  1  2  1  0
  2  3  1  0
  3  4  1  0
  4  5  1  0
  5  6  1  0
  6  7  1  0
  7  8  1  0
  7  9  1  0
  2 10  1  0
 10 11  1  0
 11 12  1  0
 12 13  1  0
 13 14  1  6
 13 15  1  0
 15 16  1  0
 16 17  1  0
 17 18  2  0
 18 19  1  0
 19 20  1  0
 20 21  1  0
 21 22  1  0
 22 23  1  0
 22 24  1  0
 24 25  1  0
 24 26  1  0
 19 27  1  0
 27 28  1  1
 27 29  1  0
 29 30  1  0
 30 31  1  0
 31 32  1  1
  7  5  1  0
 31 10  1  0
 31 13  1  0
 27 15  1  0
 24 18  1  0
  1 33  1  0
  1 34  1  0
  1 35  1  0
  2 36  1  1
  3 37  1  0
  3 38  1  0
  4 39  1  0
  4 40  1  0
  5 41  1  1
  8 42  1  0
  8 43  1  0
  8 44  1  0
  9 45  1  0
  9 46  1  0
  9 47  1  0
 10 48  1  6
 11 49  1  0
 11 50  1  0
 12 51  1  0
 12 52  1  0
 14 53  1  0
 14 54  1  0
 14 55  1  0
 15 56  1  1
 16 57  1  0
 16 58  1  0
 17 59  1  0
 19 60  1  6
 20 61  1  0
 20 62  1  0
 21 63  1  0
 21 64  1  0
 22 65  1  6
 23 66  1  0
 25 67  1  0
 25 68  1  0
 25 69  1  0
 26 70  1  0
 26 71  1  0
 26 72  1  0
 28 73  1  0
 28 74  1  0
 28 75  1  0
 29 76  1  0
 29 77  1  0
 30 78  1  0
 30 79  1  0
 32 80  1  0
 32 81  1  0
 32 82  1  0
M  END
>  <meeko>  (7) 
{"is_sidechain": [false], "intermolecular_energy": 2.731, "internal_energy": -0.839}

$$$$
EPH_relaxed_0001_pdb2pqr_Repair_344_r2_0001_out
     RDKit          3D

 82 86  0  0  0  0  0  0  0  0999 V2000
    2.2260   18.1000   -3.0240 C   0  0  0  0  0  0  0  0  0  0  0  0
    1.2840   17.5560   -1.9460 C   0  0  2  0  0  0  0  0  0  0  0  0
    1.9710   17.4610   -0.5690 C   0  0  0  0  0  0  0  0  0  0  0  0
    1.4500   18.4770    0.4510 C   0  0  0  0  0  0  0  0  0  0  0  0
    0.5020   19.4550   -0.1760 C   0  0  2  0  0  0  0  0  0  0  0  0
   -0.2990   20.1940    0.7560 O   0  0  0  0  0  0  0  0  0  0  0  0
   -1.0070   19.3070   -0.1240 C   0  0  0  0  0  0  0  0  0  0  0  0
   -1.6550   18.1490    0.5700 C   0  0  0  0  0  0  0  0  0  0  0  0
   -1.8310   20.0120   -1.1560 C   0  0  0  0  0  0  0  0  0  0  0  0
    0.7550   16.1880   -2.3600 C   0  0  1  0  0  0  0  0  0  0  0  0
    0.7540   15.9890   -3.8990 C   0  0  0  0  0  0  0  0  0  0  0  0
    1.0800   14.4950   -4.1560 C   0  0  0  0  0  0  0  0  0  0  0  0
    0.9290   13.8190   -2.7740 C   0  0  1  0  0  0  0  0  0  0  0  0
   -0.6050   13.5860   -2.6060 C   0  0  0  0  0  0  0  0  0  0  0  0
    1.7400   12.5000   -2.5570 C   0  0  2  0  0  0  0  0  0  0  0  0
    1.3570   11.3380   -3.4890 C   0  0  0  0  0  0  0  0  0  0  0  0
    0.2870   10.4330   -2.9730 C   0  0  0  0  0  0  0  0  0  0  0  0
   -0.1410   10.3750   -1.6980 C   0  0  0  0  0  0  0  0  0  0  0  0
    0.5340   11.2090   -0.6020 C   0  0  1  0  0  0  0  0  0  0  0  0
    0.7970   10.3180    0.6390 C   0  0  0  0  0  0  0  0  0  0  0  0
   -0.4650    9.6170    1.1340 C   0  0  0  0  0  0  0  0  0  0  0  0
   -1.0740    8.7510    0.0340 C   0  0  2  0  0  0  0  0  0  0  0  0
   -0.1810    7.6710   -0.2510 O   0  0  0  0  0  0  0  0  0  0  0  0
   -1.3740    9.5410   -1.2710 C   0  0  0  0  0  0  0  0  0  0  0  0
   -2.5580   10.5090   -1.0340 C   0  0  0  0  0  0  0  0  0  0  0  0
   -1.8520    8.5250   -2.3440 C   0  0  0  0  0  0  0  0  0  0  0  0
    1.8210   12.0290   -1.0480 C   0  0  1  0  0  0  0  0  0  0  0  0
    3.0910   11.1320   -0.9300 C   0  0  0  0  0  0  0  0  0  0  0  0
    2.0330   13.2330   -0.0560 C   0  0  0  0  0  0  0  0  0  0  0  0
    1.2990   14.5460   -0.3900 C   0  0  0  0  0  0  0  0  0  0  0  0
    1.5250   14.9440   -1.8510 C   0  0  2  0  0  0  0  0  0  0  0  0
    3.0580   15.2070   -2.0440 C   0  0  0  0  0  0  0  0  0  0  0  0
    3.0837   18.5953   -2.5455 H   0  0  0  0  0  0  0  0  0  0  0  0
    2.5846   17.2699   -3.6504 H   0  0  0  0  0  0  0  0  0  0  0  0
    1.6863   18.8255   -3.6504 H   0  0  0  0  0  0  0  0  0  0  0  0
    0.4477   18.2639   -1.8494 H   0  0  0  0  0  0  0  0  0  0  0  0
    1.8058   16.4502   -0.1676 H   0  0  0  0  0  0  0  0  0  0  0  0
    3.0371   17.6816   -0.7261 H   0  0  0  0  0  0  0  0  0  0  0  0
    0.9269   17.9388    1.2552 H   0  0  0  0  0  0  0  0  0  0  0  0
    2.3096   19.0378    0.8467 H   0  0  0  0  0  0  0  0  0  0  0  0
    1.1981   19.6322   -1.0091 H   0  0  0  0  0  0  0  0  0  0  0  0
   -1.5790   18.2849    1.6589 H   0  0  0  0  0  0  0  0  0  0  0  0
   -2.7148   18.0943    0.2804 H   0  0  0  0  0  0  0  0  0  0  0  0
   -1.1472   17.2172    0.2804 H   0  0  0  0  0  0  0  0  0  0  0  0
   -2.5761   20.6495   -0.6575 H   0  0  0  0  0  0  0  0  0  0  0  0
   -1.1773   20.6347   -1.7844 H   0  0  0  0  0  0  0  0  0  0  0  0
   -2.3451   19.2698   -1.7844 H   0  0  0  0  0  0  0  0  0  0  0  0
   -0.2421   16.2278   -1.8972 H   0  0  0  0  0  0  0  0  0  0  0  0
   -0.2344   16.2378   -4.3127 H   0  0  0  0  0  0  0  0  0  0  0  0
    1.4935   16.6440   -4.3829 H   0  0  0  0  0  0  0  0  0  0  0  0
    0.3731   14.0622   -4.8792 H   0  0  0  0  0  0  0  0  0  0  0  0
    2.0847   14.3547   -4.5812 H   0  0  0  0  0  0  0  0  0  0  0  0
   -0.8550   13.5480   -1.5355 H   0  0  0  0  0  0  0  0  0  0  0  0
   -1.1555   14.4108   -3.0821 H   0  0  0  0  0  0  0  0  0  0  0  0
   -0.8857   12.6349   -3.0821 H   0  0  0  0  0  0  0  0  0  0  0  0
    2.7569   12.7972   -2.8530 H   0  0  0  0  0  0  0  0  0  0  0  0
    1.0103   11.7660   -4.4412 H   0  0  0  0  0  0  0  0  0  0  0  0
    2.2595   10.7169   -3.5880 H   0  0  0  0  0  0  0  0  0  0  0  0
   -0.1920    9.7564   -3.6961 H   0  0  0  0  0  0  0  0  0  0  0  0
   -0.1789   12.0062   -0.3447 H   0  0  0  0  0  0  0  0  0  0  0  0
    1.5432    9.5547    0.3734 H   0  0  0  0  0  0  0  0  0  0  0  0
    1.1559   10.9705    1.4486 H   0  0  0  0  0  0  0  0  0  0  0  0
   -0.2096    8.9802    1.9938 H   0  0  0  0  0  0  0  0  0  0  0  0
   -1.1998   10.3814    1.4269 H   0  0  0  0  0  0  0  0  0  0  0  0
   -2.0405    8.3784    0.4043 H   0  0  0  0  0  0  0  0  0  0  0  0
   -0.5010    6.8890    0.2300 H   0  0  0  0  0  0  0  0  0  0  0  0
   -2.7156   10.6378    0.0470 H   0  0  0  0  0  0  0  0  0  0  0  0
   -2.3315   11.4839   -1.4903 H   0  0  0  0  0  0  0  0  0  0  0  0
   -3.4685   10.0933   -1.4903 H   0  0  0  0  0  0  0  0  0  0  0  0
   -2.2699    7.6368   -1.8475 H   0  0  0  0  0  0  0  0  0  0  0  0
   -2.6250    8.9917   -2.9722 H   0  0  0  0  0  0  0  0  0  0  0  0
   -0.9996    8.2270   -2.9722 H   0  0  0  0  0  0  0  0  0  0  0  0
    3.3255   10.9664    0.1319 H   0  0  0  0  0  0  0  0  0  0  0  0
    2.9035   10.1648   -1.4193 H   0  0  0  0  0  0  0  0  0  0  0  0
    3.9398   11.6320   -1.4193 H   0  0  0  0  0  0  0  0  0  0  0  0
    1.6962   12.9074    0.9393 H   0  0  0  0  0  0  0  0  0  0  0  0
    3.1036   13.4765   -0.1236 H   0  0  0  0  0  0  0  0  0  0  0  0
    0.2213   14.4099   -0.2167 H   0  0  0  0  0  0  0  0  0  0  0  0
    1.6952   15.3433    0.2560 H   0  0  0  0  0  0  0  0  0  0  0  0
    3.5425   15.2901   -1.0600 H   0  0  0  0  0  0  0  0  0  0  0  0
    3.5056   14.3725   -2.6038 H   0  0  0  0  0  0  0  0  0  0  0  0
    3.2018   16.1429   -2.6038 H   0  0  0  0  0  0  0  0  0  0  0  0
  1  2  1  0
  2  3  1  0
  3  4  1  0
  4  5  1  0
  5  6  1  0
  6  7  1  0
  7  8  1  0
  7  9  1  0
  2 10  1  0
 10 11  1  0
 11 12  1  0
 12 13  1  0
 13 14  1  1
 13 15  1  0
 15 16  1  0
 16 17  1  0
 17 18  2  0
 18 19  1  0
 19 20  1  0
 20 21  1  0
 21 22  1  0
 22 23  1  0
 22 24  1  0
 24 25  1  0
 24 26  1  0
 19 27  1  0
 27 28  1  6
 27 29  1  0
 29 30  1  0
 30 31  1  0
 31 32  1  1
  7  5  1  0
 31 10  1  0
 31 13  1  0
 27 15  1  0
 24 18  1  0
  1 33  1  0
  1 34  1  0
  1 35  1  0
  2 36  1  1
  3 37  1  0
  3 38  1  0
  4 39  1  0
  4 40  1  0
  5 41  1  6
  8 42  1  0
  8 43  1  0
  8 44  1  0
  9 45  1  0
  9 46  1  0
  9 47  1  0
 10 48  1  1
 11 49  1  0
 11 50  1  0
 12 51  1  0
 12 52  1  0
 14 53  1  0
 14 54  1  0
 14 55  1  0
 15 56  1  6
 16 57  1  0
 16 58  1  0
 17 59  1  0
 19 60  1  1
 20 61  1  0
 20 62  1  0
 21 63  1  0
 21 64  1  0
 22 65  1  1
 23 66  1  0
 25 67  1  0
 25 68  1  0
 25 69  1  0
 26 70  1  0
 26 71  1  0
 26 72  1  0
 28 73  1  0
 28 74  1  0
 28 75  1  0
 29 76  1  0
 29 77  1  0
 30 78  1  0
 30 79  1  0
 32 80  1  0
 32 81  1  0
 32 82  1  0
M  END
>  <meeko>  (8) 
{"is_sidechain": [false], "intermolecular_energy": 2.731, "internal_energy": -0.839}

$$$$
EPH_relaxed_0001_pdb2pqr_Repair_344_r2_0001_out
     RDKit          3D

 82 86  0  0  0  0  0  0  0  0999 V2000
   -4.9580    7.2620   -1.1980 C   0  0  0  0  0  0  0  0  0  0  0  0
   -5.7200    8.5510   -0.8770 C   0  0  2  0  0  0  0  0  0  0  0  0
   -6.7940    8.8700   -1.9360 C   0  0  0  0  0  0  0  0  0  0  0  0
   -7.8520    7.7730   -2.0900 C   0  0  0  0  0  0  0  0  0  0  0  0
   -8.3540    7.2970   -0.7600 C   0  0  2  0  0  0  0  0  0  0  0  0
   -9.1050    6.0770   -0.8060 O   0  0  0  0  0  0  0  0  0  0  0  0
   -9.8250    7.2490   -0.3910 C   0  0  0  0  0  0  0  0  0  0  0  0
  -10.8860    7.6840   -1.3520 C   0  0  0  0  0  0  0  0  0  0  0  0
  -10.1990    7.2450    1.0590 C   0  0  0  0  0  0  0  0  0  0  0  0
   -4.7440    9.7150   -0.7580 C   0  0  1  0  0  0  0  0  0  0  0  0
   -5.1000   10.6770    0.4060 C   0  0  0  0  0  0  0  0  0  0  0  0
   -3.7580   11.1920    0.9880 C   0  0  0  0  0  0  0  0  0  0  0  0
   -2.6960   10.7780   -0.0580 C   0  0  1  0  0  0  0  0  0  0  0  0
   -2.7790   11.8730   -1.1680 C   0  0  0  0  0  0  0  0  0  0  0  0
   -1.2350   10.6040    0.4720 C   0  0  2  0  0  0  0  0  0  0  0  0
   -0.5930   11.8790    1.0470 C   0  0  0  0  0  0  0  0  0  0  0  0
    0.1630   12.7110    0.0640 C   0  0  0  0  0  0  0  0  0  0  0  0
    0.5610   12.3090   -1.1570 C   0  0  0  0  0  0  0  0  0  0  0  0
    0.3420   10.8640   -1.6220 C   0  0  1  0  0  0  0  0  0  0  0  0
    1.6460   10.3230   -2.2650 C   0  0  0  0  0  0  0  0  0  0  0  0
    2.1650   11.2230   -3.3820 C   0  0  0  0  0  0  0  0  0  0  0  0
    2.4260   12.6360   -2.8670 C   0  0  2  0  0  0  0  0  0  0  0  0
    3.5140   12.5940   -1.9390 O   0  0  0  0  0  0  0  0  0  0  0  0
    1.1850   13.2810   -2.1900 C   0  0  0  0  0  0  0  0  0  0  0  0
    0.1150   13.6020   -3.2620 C   0  0  0  0  0  0  0  0  0  0  0  0
    1.6230   14.6450   -1.5910 C   0  0  0  0  0  0  0  0  0  0  0  0
   -0.2620    9.8710   -0.5380 C   0  0  1  0  0  0  0  0  0  0  0  0
    0.8870    9.2560    0.3180 C   0  0  0  0  0  0  0  0  0  0  0  0
   -0.9600    8.6680   -1.2750 C   0  0  0  0  0  0  0  0  0  0  0  0
   -2.4380    8.8560   -1.6670 C   0  0  0  0  0  0  0  0  0  0  0  0
   -3.2580    9.3730   -0.4800 C   0  0  2  0  0  0  0  0  0  0  0  0
   -3.2120    8.2830    0.6440 C   0  0  0  0  0  0  0  0  0  0  0  0
   -4.6649    6.7662   -0.2608 H   0  0  0  0  0  0  0  0  0  0  0  0
   -5.6040    6.5899   -1.7819 H   0  0  0  0  0  0  0  0  0  0  0  0
   -4.0577    7.5040   -1.7819 H   0  0  0  0  0  0  0  0  0  0  0  0
   -6.2373    8.3997    0.0819 H   0  0  0  0  0  0  0  0  0  0  0  0
   -7.3004    9.8027   -1.6470 H   0  0  0  0  0  0  0  0  0  0  0  0
   -6.2766    8.9555   -2.9029 H   0  0  0  0  0  0  0  0  0  0  0  0
   -8.6982    8.1723   -2.6684 H   0  0  0  0  0  0  0  0  0  0  0  0
   -7.3889    6.9198   -2.6074 H   0  0  0  0  0  0  0  0  0  0  0  0
   -7.4785    7.7242   -0.2491 H   0  0  0  0  0  0  0  0  0  0  0  0
  -11.7624    8.0433   -0.7926 H   0  0  0  0  0  0  0  0  0  0  0  0
  -10.4971    8.4953   -1.9850 H   0  0  0  0  0  0  0  0  0  0  0  0
  -11.1786    6.8332   -1.9850 H   0  0  0  0  0  0  0  0  0  0  0  0
   -9.2864    7.2548    1.6731 H   0  0  0  0  0  0  0  0  0  0  0  0
  -10.8023    8.1367    1.2845 H   0  0  0  0  0  0  0  0  0  0  0  0
  -10.7831    6.3406    1.2845 H   0  0  0  0  0  0  0  0  0  0  0  0
   -4.8489   10.1459   -1.7646 H   0  0  0  0  0  0  0  0  0  0  0  0
   -5.6985   11.5202    0.0308 H   0  0  0  0  0  0  0  0  0  0  0  0
   -5.6926   10.1620    1.1765 H   0  0  0  0  0  0  0  0  0  0  0  0
   -3.7803   12.2853    1.1073 H   0  0  0  0  0  0  0  0  0  0  0  0
   -3.5476   10.7756    1.9842 H   0  0  0  0  0  0  0  0  0  0  0  0
   -2.8542   12.8653   -0.6993 H   0  0  0  0  0  0  0  0  0  0  0  0
   -1.8751   11.8304   -1.7934 H   0  0  0  0  0  0  0  0  0  0  0  0
   -3.6662   11.6947   -1.7934 H   0  0  0  0  0  0  0  0  0  0  0  0
   -1.3738    9.9278    1.3284 H   0  0  0  0  0  0  0  0  0  0  0  0
   -1.3942   12.5005    1.4734 H   0  0  0  0  0  0  0  0  0  0  0  0
    0.1441   11.5404    1.7899 H   0  0  0  0  0  0  0  0  0  0  0  0
    0.4158   13.7389    0.3632 H   0  0  0  0  0  0  0  0  0  0  0  0
   -0.4565   10.9055   -2.3774 H   0  0  0  0  0  0  0  0  0  0  0  0
    2.4184   10.2475   -1.4855 H   0  0  0  0  0  0  0  0  0  0  0  0
    1.4183    9.3414   -2.7060 H   0  0  0  0  0  0  0  0  0  0  0  0
    3.1030   10.8042   -3.7753 H   0  0  0  0  0  0  0  0  0  0  0  0
    1.4041   11.2731   -4.1747 H   0  0  0  0  0  0  0  0  0  0  0  0
    2.6694   13.2644   -3.7364 H   0  0  0  0  0  0  0  0  0  0  0  0
    4.2330   12.0860   -2.3500 H   0  0  0  0  0  0  0  0  0  0  0  0
   -0.8262   13.8844   -2.7676 H   0  0  0  0  0  0  0  0  0  0  0  0
    0.4636   14.4351   -3.8900 H   0  0  0  0  0  0  0  0  0  0  0  0
   -0.0526   12.7146   -3.8900 H   0  0  0  0  0  0  0  0  0  0  0  0
    1.6041   14.5862   -0.4927 H   0  0  0  0  0  0  0  0  0  0  0  0
    2.6427   14.8829   -1.9280 H   0  0  0  0  0  0  0  0  0  0  0  0
    0.9324   15.4321   -1.9280 H   0  0  0  0  0  0  0  0  0  0  0  0
    0.6552    9.3801    1.3861 H   0  0  0  0  0  0  0  0  0  0  0  0
    0.9844    8.1852    0.0859 H   0  0  0  0  0  0  0  0  0  0  0  0
    1.8320    9.7689    0.0859 H   0  0  0  0  0  0  0  0  0  0  0  0
   -0.3940    8.4692   -2.1970 H   0  0  0  0  0  0  0  0  0  0  0  0
   -0.9584    7.8442   -0.5460 H   0  0  0  0  0  0  0  0  0  0  0  0
   -2.5023    9.5809   -2.4919 H   0  0  0  0  0  0  0  0  0  0  0  0
   -2.8454    7.8826   -1.9777 H   0  0  0  0  0  0  0  0  0  0  0  0
   -3.2326    8.7714    1.6294 H   0  0  0  0  0  0  0  0  0  0  0  0
   -4.0829    7.6182    0.5460 H   0  0  0  0  0  0  0  0  0  0  0  0
   -2.2882    7.6940    0.5460 H   0  0  0  0  0  0  0  0  0  0  0  0
  1  2  1  0
  2  3  1  0
  3  4  1  0
  4  5  1  0
  5  6  1  0
  6  7  1  0
  7  8  1  0
  7  9  1  0
  2 10  1  0
 10 11  1  0
 11 12  1  0
 12 13  1  0
 13 14  1  6
 13 15  1  0
 15 16  1  0
 16 17  1  0
 17 18  2  0
 18 19  1  0
 19 20  1  0
 20 21  1  0
 21 22  1  0
 22 23  1  0
 22 24  1  0
 24 25  1  0
 24 26  1  0
 19 27  1  0
 27 28  1  1
 27 29  1  0
 29 30  1  0
 30 31  1  0
 31 32  1  1
  7  5  1  0
 31 10  1  0
 31 13  1  0
 27 15  1  0
 24 18  1  0
  1 33  1  0
  1 34  1  0
  1 35  1  0
  2 36  1  1
  3 37  1  0
  3 38  1  0
  4 39  1  0
  4 40  1  0
  5 41  1  1
  8 42  1  0
  8 43  1  0
  8 44  1  0
  9 45  1  0
  9 46  1  0
  9 47  1  0
 10 48  1  6
 11 49  1  0
 11 50  1  0
 12 51  1  0
 12 52  1  0
 14 53  1  0
 14 54  1  0
 14 55  1  0
 15 56  1  1
 16 57  1  0
 16 58  1  0
 17 59  1  0
 19 60  1  6
 20 61  1  0
 20 62  1  0
 21 63  1  0
 21 64  1  0
 22 65  1  6
 23 66  1  0
 25 67  1  0
 25 68  1  0
 25 69  1  0
 26 70  1  0
 26 71  1  0
 26 72  1  0
 28 73  1  0
 28 74  1  0
 28 75  1  0
 29 76  1  0
 29 77  1  0
 30 78  1  0
 30 79  1  0
 32 80  1  0
 32 81  1  0
 32 82  1  0
M  END
>  <meeko>  (9) 
{"is_sidechain": [false], "intermolecular_energy": 2.731, "internal_energy": -0.839}

$$$$
EPH_relaxed_0001_pdb2pqr_Repair_344_r2_0001_out
     RDKit          3D

 82 86  0  0  0  0  0  0  0  0999 V2000
    1.1770   15.6820   -4.4920 C   0  0  0  0  0  0  0  0  0  0  0  0
    1.4830   14.2500   -4.9410 C   0  0  2  0  0  0  0  0  0  0  0  0
    1.1960   14.0380   -6.4410 C   0  0  0  0  0  0  0  0  0  0  0  0
    1.1800   15.3350   -7.2540 C   0  0  0  0  0  0  0  0  0  0  0  0
    2.2660   15.3560   -8.2860 C   0  0  2  0  0  0  0  0  0  0  0  0
    2.3460   16.5680   -9.0470 O   0  0  0  0  0  0  0  0  0  0  0  0
    2.0000   15.3820   -9.7800 C   0  0  0  0  0  0  0  0  0  0  0  0
    0.6060   15.3880  -10.3240 C   0  0  0  0  0  0  0  0  0  0  0  0
    3.0770   14.9110  -10.7070 C   0  0  0  0  0  0  0  0  0  0  0  0
    0.6720   13.2620   -4.1110 C   0  0  1  0  0  0  0  0  0  0  0  0
    0.7470   11.8140   -4.6650 C   0  0  0  0  0  0  0  0  0  0  0  0
    0.7200   10.8640   -3.4400 C   0  0  0  0  0  0  0  0  0  0  0  0
    0.2990   11.7660   -2.2560 C   0  0  1  0  0  0  0  0  0  0  0  0
   -1.2540   11.8730   -2.3660 C   0  0  0  0  0  0  0  0  0  0  0  0
    0.7450   11.2930   -0.8340 C   0  0  2  0  0  0  0  0  0  0  0  0
    0.1670    9.9400   -0.3850 C   0  0  0  0  0  0  0  0  0  0  0  0
   -1.1280   10.0140    0.3540 C   0  0  0  0  0  0  0  0  0  0  0  0
   -1.6580   11.1270    0.8940 C   0  0  0  0  0  0  0  0  0  0  0  0
   -0.8910   12.4550    0.8730 C   0  0  1  0  0  0  0  0  0  0  0  0
   -0.9530   13.1120    2.2770 C   0  0  0  0  0  0  0  0  0  0  0  0
   -2.3830   13.2720    2.7850 C   0  0  0  0  0  0  0  0  0  0  0  0
   -3.0940   11.9230    2.8470 C   0  0  2  0  0  0  0  0  0  0  0  0
   -2.4690   11.1180    3.8520 O   0  0  0  0  0  0  0  0  0  0  0  0
   -3.0870   11.1630    1.4910 C   0  0  0  0  0  0  0  0  0  0  0  0
   -4.0160   11.8860    0.4840 C   0  0  0  0  0  0  0  0  0  0  0  0
   -3.7090    9.7610    1.7260 C   0  0  0  0  0  0  0  0  0  0  0  0
    0.5880   12.3920    0.2930 C   0  0  1  0  0  0  0  0  0  0  0  0
    1.5880   12.0130    1.4280 C   0  0  0  0  0  0  0  0  0  0  0  0
    1.0060   13.8260   -0.2060 C   0  0  0  0  0  0  0  0  0  0  0  0
    0.6420   14.1890   -1.6580 C   0  0  0  0  0  0  0  0  0  0  0  0
    1.0740   13.0830   -2.6250 C   0  0  2  0  0  0  0  0  0  0  0  0
    2.6350   12.9670   -2.5530 C   0  0  0  0  0  0  0  0  0  0  0  0
    1.1673   15.7275   -3.3930 H   0  0  0  0  0  0  0  0  0  0  0  0
    1.9503   16.3612   -4.8803 H   0  0  0  0  0  0  0  0  0  0  0  0
    0.1937   15.9858   -4.8803 H   0  0  0  0  0  0  0  0  0  0  0  0
    2.5575   14.0754   -4.7829 H   0  0  0  0  0  0  0  0  0  0  0  0
    1.9741   13.3791   -6.8537 H   0  0  0  0  0  0  0  0  0  0  0  0
    0.1904   13.5987   -6.5168 H   0  0  0  0  0  0  0  0  0  0  0  0
    0.2070   15.4273   -7.7586 H   0  0  0  0  0  0  0  0  0  0  0  0
    1.3473   16.1746   -6.5633 H   0  0  0  0  0  0  0  0  0  0  0  0
    2.9044   14.7143   -7.6610 H   0  0  0  0  0  0  0  0  0  0  0  0
   -0.1126   15.3911   -9.4912 H   0  0  0  0  0  0  0  0  0  0  0  0
    0.4568   16.2868  -10.9404 H   0  0  0  0  0  0  0  0  0  0  0  0
    0.4491   14.4905  -10.9404 H   0  0  0  0  0  0  0  0  0  0  0  0
    3.9292   14.5383  -10.1197 H   0  0  0  0  0  0  0  0  0  0  0  0
    2.6867   14.1014  -11.3412 H   0  0  0  0  0  0  0  0  0  0  0  0
    3.4065   15.7472  -11.3412 H   0  0  0  0  0  0  0  0  0  0  0  0
   -0.3192   13.7342   -4.1787 H   0  0  0  0  0  0  0  0  0  0  0  0
   -0.1146   11.6135   -5.3188 H   0  0  0  0  0  0  0  0  0  0  0  0
    1.6605   11.6656   -5.2596 H   0  0  0  0  0  0  0  0  0  0  0  0
   -0.0106   10.0558   -3.5914 H   0  0  0  0  0  0  0  0  0  0  0  0
    1.6912   10.3767   -3.2685 H   0  0  0  0  0  0  0  0  0  0  0  0
   -1.6918   11.9032   -1.3573 H   0  0  0  0  0  0  0  0  0  0  0  0
   -1.5207   12.7916   -2.9091 H   0  0  0  0  0  0  0  0  0  0  0  0
   -1.6442   10.9996   -2.9091 H   0  0  0  0  0  0  0  0  0  0  0  0
    1.8239   11.1260   -0.9686 H   0  0  0  0  0  0  0  0  0  0  0  0
    0.0119    9.3221   -1.2818 H   0  0  0  0  0  0  0  0  0  0  0  0
    0.8966    9.5163    0.3208 H   0  0  0  0  0  0  0  0  0  0  0  0
   -1.6973    9.0796    0.4667 H   0  0  0  0  0  0  0  0  0  0  0  0
   -1.4072   13.0926    0.1402 H   0  0  0  0  0  0  0  0  0  0  0  0
   -0.3952   12.4825    2.9859 H   0  0  0  0  0  0  0  0  0  0  0  0
   -0.5130   14.1169    2.1954 H   0  0  0  0  0  0  0  0  0  0  0  0
   -2.3599   13.7134    3.7923 H   0  0  0  0  0  0  0  0  0  0  0  0
   -2.9310   13.9261    2.0909 H   0  0  0  0  0  0  0  0  0  0  0  0
   -4.1485   12.1176    3.0921 H   0  0  0  0  0  0  0  0  0  0  0  0
   -2.2200   11.7050    4.5860 H   0  0  0  0  0  0  0  0  0  0  0  0
   -4.7679   12.4712    1.0337 H   0  0  0  0  0  0  0  0  0  0  0  0
   -3.4183   12.5589   -0.1484 H   0  0  0  0  0  0  0  0  0  0  0  0
   -4.5215   11.1413   -0.1484 H   0  0  0  0  0  0  0  0  0  0  0  0
   -3.7923    9.5733    2.8067 H   0  0  0  0  0  0  0  0  0  0  0  0
   -4.7088    9.7221    1.2690 H   0  0  0  0  0  0  0  0  0  0  0  0
   -3.0669    8.9937    1.2690 H   0  0  0  0  0  0  0  0  0  0  0  0
    1.1173   12.1914    2.4061 H   0  0  0  0  0  0  0  0  0  0  0  0
    1.8577   10.9503    1.3393 H   0  0  0  0  0  0  0  0  0  0  0  0
    2.4943   12.6300    1.3393 H   0  0  0  0  0  0  0  0  0  0  0  0
    0.5215   14.5619    0.4526 H   0  0  0  0  0  0  0  0  0  0  0  0
    2.1055   13.8329   -0.1743 H   0  0  0  0  0  0  0  0  0  0  0  0
   -0.4468   14.3266   -1.7322 H   0  0  0  0  0  0  0  0  0  0  0  0
    1.1671   15.1167   -1.9295 H   0  0  0  0  0  0  0  0  0  0  0  0
    2.9527   12.9434   -1.5002 H   0  0  0  0  0  0  0  0  0  0  0  0
    2.9575   12.0424   -3.0541 H   0  0  0  0  0  0  0  0  0  0  0  0
    3.0906   13.8338   -3.0541 H   0  0  0  0  0  0  0  0  0  0  0  0
  1  2  1  0
  2  3  1  0
  3  4  1  0
  4  5  1  0
  5  6  1  0
  6  7  1  0
  7  8  1  0
  7  9  1  0
  2 10  1  0
 10 11  1  0
 11 12  1  0
 12 13  1  0
 13 14  1  1
 13 15  1  0
 15 16  1  0
 16 17  1  0
 17 18  2  0
 18 19  1  0
 19 20  1  0
 20 21  1  0
 21 22  1  0
 22 23  1  0
 22 24  1  0
 24 25  1  0
 24 26  1  0
 19 27  1  0
 27 28  1  1
 27 29  1  0
 29 30  1  0
 30 31  1  0
 31 32  1  6
  7  5  1  0
 31 10  1  0
 31 13  1  0
 27 15  1  0
 24 18  1  0
  1 33  1  0
  1 34  1  0
  1 35  1  0
  2 36  1  6
  3 37  1  0
  3 38  1  0
  4 39  1  0
  4 40  1  0
  5 41  1  6
  8 42  1  0
  8 43  1  0
  8 44  1  0
  9 45  1  0
  9 46  1  0
  9 47  1  0
 10 48  1  1
 11 49  1  0
 11 50  1  0
 12 51  1  0
 12 52  1  0
 14 53  1  0
 14 54  1  0
 14 55  1  0
 15 56  1  6
 16 57  1  0
 16 58  1  0
 17 59  1  0
 19 60  1  6
 20 61  1  0
 20 62  1  0
 21 63  1  0
 21 64  1  0
 22 65  1  1
 23 66  1  0
 25 67  1  0
 25 68  1  0
 25 69  1  0
 26 70  1  0
 26 71  1  0
 26 72  1  0
 28 73  1  0
 28 74  1  0
 28 75  1  0
 29 76  1  0
 29 77  1  0
 30 78  1  0
 30 79  1  0
 32 80  1  0
 32 81  1  0
 32 82  1  0
M  END
>  <meeko>  (10) 
{"is_sidechain": [false], "intermolecular_energy": 2.731, "internal_energy": -0.839}

$$$$
EPH_relaxed_0001_pdb2pqr_Repair_344_r2_0001_out
     RDKit          3D

 82 86  0  0  0  0  0  0  0  0999 V2000
   -3.4960    7.5440   -1.8070 C   0  0  0  0  0  0  0  0  0  0  0  0
   -4.0880    8.3790   -0.6680 C   0  0  2  0  0  0  0  0  0  0  0  0
   -5.6270    8.3020   -0.6300 C   0  0  0  0  0  0  0  0  0  0  0  0
   -6.1820    6.9090   -0.9420 C   0  0  0  0  0  0  0  0  0  0  0  0
   -6.9500    6.8940   -2.2290 C   0  0  2  0  0  0  0  0  0  0  0  0
   -7.5950    8.1320   -2.5560 O   0  0  0  0  0  0  0  0  0  0  0  0
   -8.4610    7.0140   -2.3020 C   0  0  0  0  0  0  0  0  0  0  0  0
   -9.2930    7.1560   -1.0670 C   0  0  0  0  0  0  0  0  0  0  0  0
   -9.1610    6.5040   -3.5240 C   0  0  0  0  0  0  0  0  0  0  0  0
   -3.6420    9.8300   -0.8010 C   0  0  1  0  0  0  0  0  0  0  0  0
   -4.8110   10.8340   -0.6160 C   0  0  0  0  0  0  0  0  0  0  0  0
   -4.2210   12.0810    0.0930 C   0  0  0  0  0  0  0  0  0  0  0  0
   -2.6890   11.8980   -0.0070 C   0  0  1  0  0  0  0  0  0  0  0  0
   -2.3200   12.3840   -1.4440 C   0  0  0  0  0  0  0  0  0  0  0  0
   -1.8340   12.6220    1.0840 C   0  0  2  0  0  0  0  0  0  0  0  0
   -1.9420   14.1570    1.0860 C   0  0  0  0  0  0  0  0  0  0  0  0
   -0.9430   14.8670    0.2330 C   0  0  0  0  0  0  0  0  0  0  0  0
    0.1770   14.3220   -0.2780 C   0  0  0  0  0  0  0  0  0  0  0  0
    0.5830   12.8840    0.0690 C   0  0  1  0  0  0  0  0  0  0  0  0
    2.0900   12.8450    0.4340 C   0  0  0  0  0  0  0  0  0  0  0  0
    2.9710   13.4540   -0.6530 C   0  0  0  0  0  0  0  0  0  0  0  0
    2.5750   14.9020   -0.9280 C   0  0  2  0  0  0  0  0  0  0  0  0
    2.8750   15.6900    0.2280 O   0  0  0  0  0  0  0  0  0  0  0  0
    1.0740   15.0670   -1.2970 C   0  0  0  0  0  0  0  0  0  0  0  0
    0.8150   14.4680   -2.7020 C   0  0  0  0  0  0  0  0  0  0  0  0
    0.7750   16.5860   -1.4110 C   0  0  0  0  0  0  0  0  0  0  0  0
   -0.3250   12.1480    1.1450 C   0  0  1  0  0  0  0  0  0  0  0  0
    0.1850   12.4720    2.5830 C   0  0  0  0  0  0  0  0  0  0  0  0
   -0.1790   10.5910    0.9630 C   0  0  0  0  0  0  0  0  0  0  0  0
   -1.1330    9.9170   -0.0420 C   0  0  0  0  0  0  0  0  0  0  0  0
   -2.5830   10.3440    0.2060 C   0  0  2  0  0  0  0  0  0  0  0  0
   -2.9890    9.8500    1.6360 C   0  0  0  0  0  0  0  0  0  0  0  0
   -2.9081    6.7148   -1.3865 H   0  0  0  0  0  0  0  0  0  0  0  0
   -4.3100    7.1392   -2.4263 H   0  0  0  0  0  0  0  0  0  0  0  0
   -2.8446    8.1782   -2.4263 H   0  0  0  0  0  0  0  0  0  0  0  0
   -3.7137    7.9603    0.2778 H   0  0  0  0  0  0  0  0  0  0  0  0
   -5.9645    8.5930    0.3757 H   0  0  0  0  0  0  0  0  0  0  0  0
   -6.0020    8.9796   -1.4111 H   0  0  0  0  0  0  0  0  0  0  0  0
   -5.3442    6.2003   -1.0185 H   0  0  0  0  0  0  0  0  0  0  0  0
   -6.8672    6.6231   -0.1303 H   0  0  0  0  0  0  0  0  0  0  0  0
   -6.2446    6.1739   -2.6693 H   0  0  0  0  0  0  0  0  0  0  0  0
   -8.6529    7.0468   -0.1791 H   0  0  0  0  0  0  0  0  0  0  0  0
   -9.7679    8.1482   -1.0569 H   0  0  0  0  0  0  0  0  0  0  0  0
  -10.0701    6.3775   -1.0569 H   0  0  0  0  0  0  0  0  0  0  0  0
  -10.0162    5.8809   -3.2235 H   0  0  0  0  0  0  0  0  0  0  0  0
   -9.5193    7.3542   -4.1230 H   0  0  0  0  0  0  0  0  0  0  0  0
   -8.4615    5.9024   -4.1230 H   0  0  0  0  0  0  0  0  0  0  0  0
   -3.2137    9.7987   -1.8137 H   0  0  0  0  0  0  0  0  0  0  0  0
   -5.2269   11.1158   -1.5946 H   0  0  0  0  0  0  0  0  0  0  0  0
   -5.6236   10.3895   -0.0226 H   0  0  0  0  0  0  0  0  0  0  0  0
   -4.5361   13.0032   -0.4172 H   0  0  0  0  0  0  0  0  0  0  0  0
   -4.5634   12.1697    1.1346 H   0  0  0  0  0  0  0  0  0  0  0  0
   -1.6561   13.2584   -1.3761 H   0  0  0  0  0  0  0  0  0  0  0  0
   -1.8066   11.5749   -1.9842 H   0  0  0  0  0  0  0  0  0  0  0  0
   -3.2373   12.6611   -1.9842 H   0  0  0  0  0  0  0  0  0  0  0  0
   -2.3113   12.2885    2.0173 H   0  0  0  0  0  0  0  0  0  0  0  0
   -2.9469   14.4277    0.7297 H   0  0  0  0  0  0  0  0  0  0  0  0
   -1.7410   14.4752    2.1196 H   0  0  0  0  0  0  0  0  0  0  0  0
   -1.1387   15.9247    0.0027 H   0  0  0  0  0  0  0  0  0  0  0  0
    0.4039   12.2899   -0.8392 H   0  0  0  0  0  0  0  0  0  0  0  0
    2.2415   13.4075    1.3671 H   0  0  0  0  0  0  0  0  0  0  0  0
    2.3793   11.7897    0.5461 H   0  0  0  0  0  0  0  0  0  0  0  0
    4.0205   13.4239   -0.3248 H   0  0  0  0  0  0  0  0  0  0  0  0
    2.8405   12.8725   -1.5776 H   0  0  0  0  0  0  0  0  0  0  0  0
    3.1522   15.2414   -1.8008 H   0  0  0  0  0  0  0  0  0  0  0  0
    3.7490   16.0930    0.0900 H   0  0  0  0  0  0  0  0  0  0  0  0
    0.3804   13.4629   -2.5977 H   0  0  0  0  0  0  0  0  0  0  0  0
    0.1160   15.1143   -3.2530 H   0  0  0  0  0  0  0  0  0  0  0  0
    1.7647   14.4014   -3.2530 H   0  0  0  0  0  0  0  0  0  0  0  0
    0.6897   17.0195   -0.4036 H   0  0  0  0  0  0  0  0  0  0  0  0
    1.5930   17.0809   -1.9551 H   0  0  0  0  0  0  0  0  0  0  0  0
   -0.1695   16.7340   -1.9551 H   0  0  0  0  0  0  0  0  0  0  0  0
   -0.5021   12.0355    3.3228 H   0  0  0  0  0  0  0  0  0  0  0  0
    1.1900   12.0464    2.7202 H   0  0  0  0  0  0  0  0  0  0  0  0
    0.2268   13.5626    2.7202 H   0  0  0  0  0  0  0  0  0  0  0  0
    0.8503   10.3897    0.6313 H   0  0  0  0  0  0  0  0  0  0  0  0
   -0.4403   10.1609    1.9411 H   0  0  0  0  0  0  0  0  0  0  0  0
   -0.8426   10.2059   -1.0629 H   0  0  0  0  0  0  0  0  0  0  0  0
   -1.0623    8.8266    0.0850 H   0  0  0  0  0  0  0  0  0  0  0  0
   -2.4829   10.4658    2.3941 H   0  0  0  0  0  0  0  0  0  0  0  0
   -4.0785    9.9389    1.7591 H   0  0  0  0  0  0  0  0  0  0  0  0
   -2.6907    8.7984    1.7591 H   0  0  0  0  0  0  0  0  0  0  0  0
  1  2  1  0
  2  3  1  0
  3  4  1  0
  4  5  1  0
  5  6  1  0
  6  7  1  0
  7  8  1  0
  7  9  1  0
  2 10  1  0
 10 11  1  0
 11 12  1  0
 12 13  1  0
 13 14  1  6
 13 15  1  0
 15 16  1  0
 16 17  1  0
 17 18  2  0
 18 19  1  0
 19 20  1  0
 20 21  1  0
 21 22  1  0
 22 23  1  0
 22 24  1  0
 24 25  1  0
 24 26  1  0
 19 27  1  0
 27 28  1  1
 27 29  1  0
 29 30  1  0
 30 31  1  0
 31 32  1  1
  7  5  1  0
 31 10  1  0
 31 13  1  0
 27 15  1  0
 24 18  1  0
  1 33  1  0
  1 34  1  0
  1 35  1  0
  2 36  1  1
  3 37  1  0
  3 38  1  0
  4 39  1  0
  4 40  1  0
  5 41  1  6
  8 42  1  0
  8 43  1  0
  8 44  1  0
  9 45  1  0
  9 46  1  0
  9 47  1  0
 10 48  1  6
 11 49  1  0
 11 50  1  0
 12 51  1  0
 12 52  1  0
 14 53  1  0
 14 54  1  0
 14 55  1  0
 15 56  1  1
 16 57  1  0
 16 58  1  0
 17 59  1  0
 19 60  1  6
 20 61  1  0
 20 62  1  0
 21 63  1  0
 21 64  1  0
 22 65  1  6
 23 66  1  0
 25 67  1  0
 25 68  1  0
 25 69  1  0
 26 70  1  0
 26 71  1  0
 26 72  1  0
 28 73  1  0
 28 74  1  0
 28 75  1  0
 29 76  1  0
 29 77  1  0
 30 78  1  0
 30 79  1  0
 32 80  1  0
 32 81  1  0
 32 82  1  0
M  END
>  <meeko>  (11) 
{"is_sidechain": [false], "intermolecular_energy": 2.731, "internal_energy": -0.839}

$$$$
EPH_relaxed_0001_pdb2pqr_Repair_344_r2_0001_out
     RDKit          3D

 82 86  0  0  0  0  0  0  0  0999 V2000
   -4.5350   11.3870    0.0390 C   0  0  0  0  0  0  0  0  0  0  0  0
   -3.1840   10.8330   -0.4220 C   0  0  2  0  0  0  0  0  0  0  0  0
   -2.9130    9.4220    0.1370 C   0  0  0  0  0  0  0  0  0  0  0  0
   -2.7580    8.3510   -0.9450 C   0  0  0  0  0  0  0  0  0  0  0  0
   -1.5860    8.6290   -1.8370 C   0  0  2  0  0  0  0  0  0  0  0  0
   -0.8620    7.4640   -2.2550 O   0  0  0  0  0  0  0  0  0  0  0  0
   -0.1450    8.3920   -1.4230 C   0  0  0  0  0  0  0  0  0  0  0  0
    0.2000    7.8540   -0.0700 C   0  0  0  0  0  0  0  0  0  0  0  0
    0.9370    9.1340   -2.1430 C   0  0  0  0  0  0  0  0  0  0  0  0
   -2.0650   11.7820   -0.0070 C   0  0  1  0  0  0  0  0  0  0  0  0
   -1.1530   11.1830    1.0980 C   0  0  0  0  0  0  0  0  0  0  0  0
    0.2830   11.6960    0.8190 C   0  0  0  0  0  0  0  0  0  0  0  0
    0.0990   12.8250   -0.2230 C   0  0  1  0  0  0  0  0  0  0  0  0
   -0.3210   14.0750    0.6110 C   0  0  0  0  0  0  0  0  0  0  0  0
    1.3300   13.1280   -1.1370 C   0  0  2  0  0  0  0  0  0  0  0  0
    2.5870   13.6200   -0.3990 C   0  0  0  0  0  0  0  0  0  0  0  0
    2.6940   15.1010   -0.2400 C   0  0  0  0  0  0  0  0  0  0  0  0
    1.9720   16.0140   -0.9150 C   0  0  0  0  0  0  0  0  0  0  0  0
    0.9980   15.5870   -2.0220 C   0  0  1  0  0  0  0  0  0  0  0  0
    1.1980   16.4940   -3.2650 C   0  0  0  0  0  0  0  0  0  0  0  0
    1.0870   17.9780   -2.9310 C   0  0  0  0  0  0  0  0  0  0  0  0
    2.1100   18.3760   -1.8690 C   0  0  2  0  0  0  0  0  0  0  0  0
    3.4230   18.2550   -2.4260 O   0  0  0  0  0  0  0  0  0  0  0  0
    2.0110   17.5240   -0.5730 C   0  0  0  0  0  0  0  0  0  0  0  0
    0.7110   17.8840    0.1880 C   0  0  0  0  0  0  0  0  0  0  0  0
    3.1860   17.9310    0.3570 C   0  0  0  0  0  0  0  0  0  0  0  0
    0.9990   14.0410   -2.3870 C   0  0  1  0  0  0  0  0  0  0  0  0
    2.0970   13.7470   -3.4560 C   0  0  0  0  0  0  0  0  0  0  0  0
   -0.3790   13.6690   -3.0520 C   0  0  0  0  0  0  0  0  0  0  0  0
   -1.5210   13.2620   -2.1020 C   0  0  0  0  0  0  0  0  0  0  0  0
   -1.0500   12.2050   -1.0990 C   0  0  2  0  0  0  0  0  0  0  0  0
   -0.6420   10.9270   -1.9070 C   0  0  0  0  0  0  0  0  0  0  0  0
   -4.5696   11.4012    1.1384 H   0  0  0  0  0  0  0  0  0  0  0  0
   -4.6622   12.4099   -0.3451 H   0  0  0  0  0  0  0  0  0  0  0  0
   -5.3437   10.7479   -0.3451 H   0  0  0  0  0  0  0  0  0  0  0  0
   -3.2160   10.7522   -1.5186 H   0  0  0  0  0  0  0  0  0  0  0  0
   -1.9861    9.4549    0.7284 H   0  0  0  0  0  0  0  0  0  0  0  0
   -3.7877    9.1427    0.7428 H   0  0  0  0  0  0  0  0  0  0  0  0
   -2.6137    7.3738   -0.4611 H   0  0  0  0  0  0  0  0  0  0  0  0
   -3.6677    8.3544   -1.5634 H   0  0  0  0  0  0  0  0  0  0  0  0
   -2.0944    9.5017   -2.2728 H   0  0  0  0  0  0  0  0  0  0  0  0
   -0.2217    8.5115    0.7045 H   0  0  0  0  0  0  0  0  0  0  0  0
   -0.2184    6.8427    0.0401 H   0  0  0  0  0  0  0  0  0  0  0  0
    1.2937    7.8123    0.0401 H   0  0  0  0  0  0  0  0  0  0  0  0
    1.6136    9.5980   -1.4102 H   0  0  0  0  0  0  0  0  0  0  0  0
    1.5043    8.4340   -2.7740 H   0  0  0  0  0  0  0  0  0  0  0  0
    0.4884    9.9154   -2.7740 H   0  0  0  0  0  0  0  0  0  0  0  0
   -2.6648   12.6494    0.3060 H   0  0  0  0  0  0  0  0  0  0  0  0
   -1.4892   11.5189    2.0900 H   0  0  0  0  0  0  0  0  0  0  0  0
   -1.1889   10.0836    1.0869 H   0  0  0  0  0  0  0  0  0  0  0  0
    0.7410   12.0878    1.7392 H   0  0  0  0  0  0  0  0  0  0  0  0
    0.9477   10.8981    0.4564 H   0  0  0  0  0  0  0  0  0  0  0  0
   -0.2431   13.8433    1.6835 H   0  0  0  0  0  0  0  0  0  0  0  0
    0.3434   14.9176    0.3687 H   0  0  0  0  0  0  0  0  0  0  0  0
   -1.3594   14.3454    0.3687 H   0  0  0  0  0  0  0  0  0  0  0  0
    1.5848   12.1314   -1.5268 H   0  0  0  0  0  0  0  0  0  0  0  0
    2.5905   13.1692    0.6044 H   0  0  0  0  0  0  0  0  0  0  0  0
    3.4429   13.3178   -1.0204 H   0  0  0  0  0  0  0  0  0  0  0  0
    3.4249   15.4774    0.4908 H   0  0  0  0  0  0  0  0  0  0  0  0
   -0.0124   15.7332   -1.6124 H   0  0  0  0  0  0  0  0  0  0  0  0
    2.1961   16.3010   -3.6853 H   0  0  0  0  0  0  0  0  0  0  0  0
    0.4018   16.2536   -3.9849 H   0  0  0  0  0  0  0  0  0  0  0  0
    1.2668   18.5667   -3.8427 H   0  0  0  0  0  0  0  0  0  0  0  0
    0.0785   18.1753   -2.5387 H   0  0  0  0  0  0  0  0  0  0  0  0
    1.8962   19.4149   -1.5776 H   0  0  0  0  0  0  0  0  0  0  0  0
    4.0120   17.9370   -1.7220 H   0  0  0  0  0  0  0  0  0  0  0  0
    0.8943   17.8332    1.2714 H   0  0  0  0  0  0  0  0  0  0  0  0
    0.3974   18.9028   -0.0835 H   0  0  0  0  0  0  0  0  0  0  0  0
   -0.0820   17.1717   -0.0835 H   0  0  0  0  0  0  0  0  0  0  0  0
    2.8765   17.8238    1.4071 H   0  0  0  0  0  0  0  0  0  0  0  0
    4.0509   17.2801    0.1613 H   0  0  0  0  0  0  0  0  0  0  0  0
    3.4630   18.9774    0.1613 H   0  0  0  0  0  0  0  0  0  0  0  0
    3.0413   13.4941   -2.9517 H   0  0  0  0  0  0  0  0  0  0  0  0
    1.7796   12.9022   -4.0849 H   0  0  0  0  0  0  0  0  0  0  0  0
    2.2442   14.6374   -4.0849 H   0  0  0  0  0  0  0  0  0  0  0  0
   -0.7189   14.5441   -3.6252 H   0  0  0  0  0  0  0  0  0  0  0  0
   -0.1744   12.7731   -3.6566 H   0  0  0  0  0  0  0  0  0  0  0  0
   -1.8660   14.1505   -1.5529 H   0  0  0  0  0  0  0  0  0  0  0  0
   -2.3401   12.8368   -2.7006 H   0  0  0  0  0  0  0  0  0  0  0  0
   -0.3837   10.1181   -1.2078 H   0  0  0  0  0  0  0  0  0  0  0  0
   -1.4834   10.6095   -2.5404 H   0  0  0  0  0  0  0  0  0  0  0  0
    0.2278   11.1558   -2.5404 H   0  0  0  0  0  0  0  0  0  0  0  0
  1  2  1  0
  2  3  1  0
  3  4  1  0
  4  5  1  0
  5  6  1  0
  6  7  1  0
  7  8  1  0
  7  9  1  0
  2 10  1  0
 10 11  1  0
 11 12  1  0
 12 13  1  0
 13 14  1  1
 13 15  1  0
 15 16  1  0
 16 17  1  0
 17 18  2  0
 18 19  1  0
 19 20  1  0
 20 21  1  0
 21 22  1  0
 22 23  1  0
 22 24  1  0
 24 25  1  0
 24 26  1  0
 19 27  1  0
 27 28  1  6
 27 29  1  0
 29 30  1  0
 30 31  1  0
 31 32  1  6
  7  5  1  0
 31 10  1  0
 31 13  1  0
 27 15  1  0
 24 18  1  0
  1 33  1  0
  1 34  1  0
  1 35  1  0
  2 36  1  6
  3 37  1  0
  3 38  1  0
  4 39  1  0
  4 40  1  0
  5 41  1  6
  8 42  1  0
  8 43  1  0
  8 44  1  0
  9 45  1  0
  9 46  1  0
  9 47  1  0
 10 48  1  1
 11 49  1  0
 11 50  1  0
 12 51  1  0
 12 52  1  0
 14 53  1  0
 14 54  1  0
 14 55  1  0
 15 56  1  6
 16 57  1  0
 16 58  1  0
 17 59  1  0
 19 60  1  1
 20 61  1  0
 20 62  1  0
 21 63  1  0
 21 64  1  0
 22 65  1  1
 23 66  1  0
 25 67  1  0
 25 68  1  0
 25 69  1  0
 26 70  1  0
 26 71  1  0
 26 72  1  0
 28 73  1  0
 28 74  1  0
 28 75  1  0
 29 76  1  0
 29 77  1  0
 30 78  1  0
 30 79  1  0
 32 80  1  0
 32 81  1  0
 32 82  1  0
M  END
>  <meeko>  (12) 
{"is_sidechain": [false], "intermolecular_energy": 2.731, "internal_energy": -0.839}

$$$$
EPH_relaxed_0001_pdb2pqr_Repair_344_r2_0001_out
     RDKit          3D

 82 86  0  0  0  0  0  0  0  0999 V2000
    0.3220   10.2730   -3.3560 C   0  0  0  0  0  0  0  0  0  0  0  0
    0.1050   10.0850   -1.8520 C   0  0  2  0  0  0  0  0  0  0  0  0
   -1.3350    9.6400   -1.5240 C   0  0  0  0  0  0  0  0  0  0  0  0
   -2.2780   10.8010   -1.1990 C   0  0  0  0  0  0  0  0  0  0  0  0
   -3.0140   10.5730    0.0870 C   0  0  2  0  0  0  0  0  0  0  0  0
   -4.0580   11.5180    0.3550 O   0  0  0  0  0  0  0  0  0  0  0  0
   -2.9490   11.5230    1.2680 C   0  0  0  0  0  0  0  0  0  0  0  0
   -2.1260   12.7720    1.2200 C   0  0  0  0  0  0  0  0  0  0  0  0
   -3.2860   10.9970    2.6290 C   0  0  0  0  0  0  0  0  0  0  0  0
    0.4310   11.3780   -1.1150 C   0  0  1  0  0  0  0  0  0  0  0  0
    1.5750   11.2040   -0.0800 C   0  0  0  0  0  0  0  0  0  0  0  0
    2.3810   12.5280   -0.0770 C   0  0  0  0  0  0  0  0  0  0  0  0
    1.4910   13.5280   -0.8520 C   0  0  1  0  0  0  0  0  0  0  0  0
    0.4390   14.0190    0.1920 C   0  0  0  0  0  0  0  0  0  0  0  0
    2.2290   14.7260   -1.5340 C   0  0  2  0  0  0  0  0  0  0  0  0
    2.9600   15.6770   -0.5700 C   0  0  0  0  0  0  0  0  0  0  0  0
    2.1490   16.8260   -0.0720 C   0  0  0  0  0  0  0  0  0  0  0  0
    0.9840   17.2480   -0.5980 C   0  0  0  0  0  0  0  0  0  0  0  0
    0.4170   16.6080   -1.8720 C   0  0  1  0  0  0  0  0  0  0  0  0
   -0.0450   17.7210   -2.8500 C   0  0  0  0  0  0  0  0  0  0  0  0
   -1.0220   18.6980   -2.2040 C   0  0  0  0  0  0  0  0  0  0  0  0
   -0.4010   19.3580   -0.9750 C   0  0  2  0  0  0  0  0  0  0  0  0
    0.6800   20.1940   -1.3970 O   0  0  0  0  0  0  0  0  0  0  0  0
    0.1100   18.3340    0.0770 C   0  0  0  0  0  0  0  0  0  0  0  0
   -1.0960   17.6360    0.7540 C   0  0  0  0  0  0  0  0  0  0  0  0
    0.8390   19.1250    1.1980 C   0  0  0  0  0  0  0  0  0  0  0  0
    1.3440   15.5250   -2.5750 C   0  0  1  0  0  0  0  0  0  0  0  0
    2.3330   16.2260   -3.5550 C   0  0  0  0  0  0  0  0  0  0  0  0
    0.4480   14.5740   -3.4530 C   0  0  0  0  0  0  0  0  0  0  0  0
   -0.1560   13.3430   -2.7500 C   0  0  0  0  0  0  0  0  0  0  0  0
    0.9160   12.5790   -1.9650 C   0  0  2  0  0  0  0  0  0  0  0  0
    1.9770   12.0540   -2.9910 C   0  0  0  0  0  0  0  0  0  0  0  0
    1.1439   10.9851   -3.5217 H   0  0  0  0  0  0  0  0  0  0  0  0
    0.5771    9.3057   -3.8134 H   0  0  0  0  0  0  0  0  0  0  0  0
   -0.5991   10.6633   -3.8134 H   0  0  0  0  0  0  0  0  0  0  0  0
    0.7818    9.2851   -1.5172 H   0  0  0  0  0  0  0  0  0  0  0  0
   -1.7375    9.0982   -2.3925 H   0  0  0  0  0  0  0  0  0  0  0  0
   -1.2798    9.0088   -0.6248 H   0  0  0  0  0  0  0  0  0  0  0  0
   -1.6887   11.7259   -1.1135 H   0  0  0  0  0  0  0  0  0  0  0  0
   -3.0182   10.8792   -2.0090 H   0  0  0  0  0  0  0  0  0  0  0  0
   -2.8669    9.4859    0.0056 H   0  0  0  0  0  0  0  0  0  0  0  0
   -1.9061   13.1058    2.2448 H   0  0  0  0  0  0  0  0  0  0  0  0
   -1.1835   12.5700    0.6900 H   0  0  0  0  0  0  0  0  0  0  0  0
   -2.6835   13.5583    0.6900 H   0  0  0  0  0  0  0  0  0  0  0  0
   -2.8600   11.6618    3.3949 H   0  0  0  0  0  0  0  0  0  0  0  0
   -4.3790   10.9559    2.7459 H   0  0  0  0  0  0  0  0  0  0  0  0
   -2.8665    9.9869    2.7459 H   0  0  0  0  0  0  0  0  0  0  0  0
   -0.5566   11.5972   -0.6830 H   0  0  0  0  0  0  0  0  0  0  0  0
    1.1561   11.0134    0.9191 H   0  0  0  0  0  0  0  0  0  0  0  0
    2.2181   10.3509   -0.3420 H   0  0  0  0  0  0  0  0  0  0  0  0
    2.5514   12.8766    0.9523 H   0  0  0  0  0  0  0  0  0  0  0  0
    3.3748   12.4126   -0.5343 H   0  0  0  0  0  0  0  0  0  0  0  0
    0.8203   13.8410    1.2083 H   0  0  0  0  0  0  0  0  0  0  0  0
    0.2576   15.0948    0.0516 H   0  0  0  0  0  0  0  0  0  0  0  0
   -0.5021   13.4671    0.0516 H   0  0  0  0  0  0  0  0  0  0  0  0
    3.0184   14.2197   -2.1088 H   0  0  0  0  0  0  0  0  0  0  0  0
    3.2899   15.0911    0.3006 H   0  0  0  0  0  0  0  0  0  0  0  0
    3.7887   16.1158   -1.1451 H   0  0  0  0  0  0  0  0  0  0  0  0
    2.5360   17.3750    0.7991 H   0  0  0  0  0  0  0  0  0  0  0  0
   -0.4487   16.0095   -1.5521 H   0  0  0  0  0  0  0  0  0  0  0  0
    0.8389   18.2799   -3.1912 H   0  0  0  0  0  0  0  0  0  0  0  0
   -0.5646   17.2343   -3.6886 H   0  0  0  0  0  0  0  0  0  0  0  0
   -1.2889   19.4761   -2.9343 H   0  0  0  0  0  0  0  0  0  0  0  0
   -1.9178   18.1425   -1.8894 H   0  0  0  0  0  0  0  0  0  0  0  0
   -1.1892   19.9468   -0.4830 H   0  0  0  0  0  0  0  0  0  0  0  0
    0.2980   21.0260   -1.7240 H   0  0  0  0  0  0  0  0  0  0  0  0
   -0.9892   17.6978    1.8471 H   0  0  0  0  0  0  0  0  0  0  0  0
   -2.0275   18.1346    0.4478 H   0  0  0  0  0  0  0  0  0  0  0  0
   -1.1277   16.5799    0.4478 H   0  0  0  0  0  0  0  0  0  0  0  0
    0.5039   18.7614    2.1806 H   0  0  0  0  0  0  0  0  0  0  0  0
    1.9251   18.9781    1.1035 H   0  0  0  0  0  0  0  0  0  0  0  0
    0.6042   20.1955    1.1035 H   0  0  0  0  0  0  0  0  0  0  0  0
    3.0976   16.7679   -2.9790 H   0  0  0  0  0  0  0  0  0  0  0  0
    2.8190   15.4696   -4.1888 H   0  0  0  0  0  0  0  0  0  0  0  0
    1.7803   16.9351   -4.1888 H   0  0  0  0  0  0  0  0  0  0  0  0
   -0.3853   15.1735   -3.8484 H   0  0  0  0  0  0  0  0  0  0  0  0
    1.1255   14.1652   -4.2171 H   0  0  0  0  0  0  0  0  0  0  0  0
   -0.9424   13.6747   -2.0560 H   0  0  0  0  0  0  0  0  0  0  0  0
   -0.5753   12.6727   -3.5148 H   0  0  0  0  0  0  0  0  0  0  0  0
    2.8341   11.6299   -2.4474 H   0  0  0  0  0  0  0  0  0  0  0  0
    1.5226   11.2767   -3.6230 H   0  0  0  0  0  0  0  0  0  0  0  0
    2.3193   12.8867   -3.6230 H   0  0  0  0  0  0  0  0  0  0  0  0
  1  2  1  0
  2  3  1  0
  3  4  1  0
  4  5  1  0
  5  6  1  0
  6  7  1  0
  7  8  1  0
  7  9  1  0
  2 10  1  0
 10 11  1  0
 11 12  1  0
 12 13  1  0
 13 14  1  1
 13 15  1  0
 15 16  1  0
 16 17  1  0
 17 18  2  0
 18 19  1  0
 19 20  1  0
 20 21  1  0
 21 22  1  0
 22 23  1  0
 22 24  1  0
 24 25  1  0
 24 26  1  0
 19 27  1  0
 27 28  1  6
 27 29  1  0
 29 30  1  0
 30 31  1  0
 31 32  1  6
  7  5  1  0
 31 10  1  0
 31 13  1  0
 27 15  1  0
 24 18  1  0
  1 33  1  0
  1 34  1  0
  1 35  1  0
  2 36  1  1
  3 37  1  0
  3 38  1  0
  4 39  1  0
  4 40  1  0
  5 41  1  1
  8 42  1  0
  8 43  1  0
  8 44  1  0
  9 45  1  0
  9 46  1  0
  9 47  1  0
 10 48  1  1
 11 49  1  0
 11 50  1  0
 12 51  1  0
 12 52  1  0
 14 53  1  0
 14 54  1  0
 14 55  1  0
 15 56  1  6
 16 57  1  0
 16 58  1  0
 17 59  1  0
 19 60  1  1
 20 61  1  0
 20 62  1  0
 21 63  1  0
 21 64  1  0
 22 65  1  1
 23 66  1  0
 25 67  1  0
 25 68  1  0
 25 69  1  0
 26 70  1  0
 26 71  1  0
 26 72  1  0
 28 73  1  0
 28 74  1  0
 28 75  1  0
 29 76  1  0
 29 77  1  0
 30 78  1  0
 30 79  1  0
 32 80  1  0
 32 81  1  0
 32 82  1  0
M  END
>  <meeko>  (13) 
{"is_sidechain": [false], "intermolecular_energy": 2.731, "internal_energy": -0.839}

$$$$
EPH_relaxed_0001_pdb2pqr_Repair_344_r2_0001_out
     RDKit          3D

 82 86  0  0  0  0  0  0  0  0999 V2000
    1.7260   13.5830   -5.9790 C   0  0  0  0  0  0  0  0  0  0  0  0
    2.3440   12.6790   -4.9090 C   0  0  2  0  0  0  0  0  0  0  0  0
    3.2260   11.5730   -5.5230 C   0  0  0  0  0  0  0  0  0  0  0  0
    4.6950   11.9740   -5.6820 C   0  0  0  0  0  0  0  0  0  0  0  0
    5.6180   10.9290   -5.1330 C   0  0  2  0  0  0  0  0  0  0  0  0
    5.2450   10.4160   -3.8470 O   0  0  0  0  0  0  0  0  0  0  0  0
    6.4850   11.1400   -3.9050 C   0  0  0  0  0  0  0  0  0  0  0  0
    6.4710   12.4330   -3.1530 C   0  0  0  0  0  0  0  0  0  0  0  0
    7.6950   10.2770   -3.7270 C   0  0  0  0  0  0  0  0  0  0  0  0
    1.2460   12.0560   -4.0570 C   0  0  1  0  0  0  0  0  0  0  0  0
    0.8360   10.6420   -4.5500 C   0  0  0  0  0  0  0  0  0  0  0  0
    0.4860    9.8120   -3.2880 C   0  0  0  0  0  0  0  0  0  0  0  0
    0.3830   10.8560   -2.1510 C   0  0  1  0  0  0  0  0  0  0  0  0
   -1.0440   11.4700   -2.2970 C   0  0  0  0  0  0  0  0  0  0  0  0
    0.6380   10.3260   -0.7020 C   0  0  2  0  0  0  0  0  0  0  0  0
   -0.3620    9.2650   -0.2100 C   0  0  0  0  0  0  0  0  0  0  0  0
   -1.5620    9.7990    0.4980 C   0  0  0  0  0  0  0  0  0  0  0  0
   -1.6930   11.0490    0.9810 C   0  0  0  0  0  0  0  0  0  0  0  0
   -0.5260   12.0430    0.9220 C   0  0  1  0  0  0  0  0  0  0  0  0
   -0.3740   12.7450    2.2970 C   0  0  0  0  0  0  0  0  0  0  0  0
   -1.6710   13.3960    2.7680 C   0  0  0  0  0  0  0  0  0  0  0  0
   -2.7920   12.3650    2.8700 C   0  0  2  0  0  0  0  0  0  0  0  0
   -2.4780   11.4450    3.9200 O   0  0  0  0  0  0  0  0  0  0  0  0
   -3.0310   11.5860    1.5470 C   0  0  0  0  0  0  0  0  0  0  0  0
   -3.6590   12.5310    0.4930 C   0  0  0  0  0  0  0  0  0  0  0  0
   -4.0880   10.4840    1.8260 C   0  0  0  0  0  0  0  0  0  0  0  0
    0.8500   11.4640    0.3760 C   0  0  1  0  0  0  0  0  0  0  0  0
    1.6590   10.8250    1.5460 C   0  0  0  0  0  0  0  0  0  0  0  0
    1.7260   12.6530   -0.1720 C   0  0  0  0  0  0  0  0  0  0  0  0
    1.5130   13.0500   -1.6450 C   0  0  0  0  0  0  0  0  0  0  0  0
    1.5560   11.8210   -2.5570 C   0  0  2  0  0  0  0  0  0  0  0  0
    2.9880   11.1940   -2.4480 C   0  0  0  0  0  0  0  0  0  0  0  0
    1.1690   14.3978   -5.4935 H   0  0  0  0  0  0  0  0  0  0  0  0
    2.5240   14.0072   -6.6061 H   0  0  0  0  0  0  0  0  0  0  0  0
    1.0411   12.9935   -6.6061 H   0  0  0  0  0  0  0  0  0  0  0  0
    2.9915   13.3067   -4.2791 H   0  0  0  0  0  0  0  0  0  0  0  0
    3.1763   10.6878   -4.8719 H   0  0  0  0  0  0  0  0  0  0  0  0
    2.8361   11.3744   -6.5322 H   0  0  0  0  0  0  0  0  0  0  0  0
    4.9122   12.1151   -6.7511 H   0  0  0  0  0  0  0  0  0  0  0  0
    4.8587   12.9052   -5.1198 H   0  0  0  0  0  0  0  0  0  0  0  0
    5.8486   10.5671   -6.1458 H   0  0  0  0  0  0  0  0  0  0  0  0
    6.4732   12.2286   -2.0722 H   0  0  0  0  0  0  0  0  0  0  0  0
    7.3628   13.0203   -3.4169 H   0  0  0  0  0  0  0  0  0  0  0  0
    5.5667   13.0009   -3.4169 H   0  0  0  0  0  0  0  0  0  0  0  0
    7.8910   10.1372   -2.6537 H   0  0  0  0  0  0  0  0  0  0  0  0
    7.5201    9.2986   -4.1983 H   0  0  0  0  0  0  0  0  0  0  0  0
    8.5631   10.7610   -4.1983 H   0  0  0  0  0  0  0  0  0  0  0  0
    0.4698   12.8280   -4.1646 H   0  0  0  0  0  0  0  0  0  0  0  0
   -0.0393   10.7110   -5.2127 H   0  0  0  0  0  0  0  0  0  0  0  0
    1.6508   10.1706   -5.1191 H   0  0  0  0  0  0  0  0  0  0  0  0
   -0.4716    9.2873   -3.4215 H   0  0  0  0  0  0  0  0  0  0  0  0
    1.2377    9.0373   -3.0764 H   0  0  0  0  0  0  0  0  0  0  0  0
   -1.4685   11.6526   -1.2988 H   0  0  0  0  0  0  0  0  0  0  0  0
   -0.9798   12.4201   -2.8476 H   0  0  0  0  0  0  0  0  0  0  0  0
   -1.6897   10.7701   -2.8476 H   0  0  0  0  0  0  0  0  0  0  0  0
    1.6001    9.8033   -0.8078 H   0  0  0  0  0  0  0  0  0  0  0  0
   -0.7091    8.6942   -1.0839 H   0  0  0  0  0  0  0  0  0  0  0  0
    0.1801    8.6554    0.5279 H   0  0  0  0  0  0  0  0  0  0  0  0
   -2.4112    9.1137    0.6371 H   0  0  0  0  0  0  0  0  0  0  0  0
   -0.7942   12.7829    0.1535 H   0  0  0  0  0  0  0  0  0  0  0  0
   -0.0637   11.9976    3.0421 H   0  0  0  0  0  0  0  0  0  0  0  0
    0.3773   13.5406    2.1845 H   0  0  0  0  0  0  0  0  0  0  0  0
   -1.5079   13.8497    3.7567 H   0  0  0  0  0  0  0  0  0  0  0  0
   -1.9648   14.1635    2.0368 H   0  0  0  0  0  0  0  0  0  0  0  0
   -3.7228   12.9105    3.0846 H   0  0  0  0  0  0  0  0  0  0  0  0
   -2.7120   10.5540    3.6100 H   0  0  0  0  0  0  0  0  0  0  0  0
   -4.1984   13.3426    1.0033 H   0  0  0  0  0  0  0  0  0  0  0  0
   -2.8643   12.9579   -0.1365 H   0  0  0  0  0  0  0  0  0  0  0  0
   -4.3604   11.9637   -0.1365 H   0  0  0  0  0  0  0  0  0  0  0  0
   -4.2086   10.3582    2.9121 H   0  0  0  0  0  0  0  0  0  0  0  0
   -5.0504   10.7781    1.3818 H   0  0  0  0  0  0  0  0  0  0  0  0
   -3.7540    9.5347    1.3818 H   0  0  0  0  0  0  0  0  0  0  0  0
    1.2386   11.1571    2.5067 H   0  0  0  0  0  0  0  0  0  0  0  0
    1.5978    9.7288    1.4783 H   0  0  0  0  0  0  0  0  0  0  0  0
    2.7112   11.1384    1.4783 H   0  0  0  0  0  0  0  0  0  0  0  0
    1.5107   13.5374    0.4457 H   0  0  0  0  0  0  0  0  0  0  0  0
    2.7646   12.2949   -0.1173 H   0  0  0  0  0  0  0  0  0  0  0  0
    0.5333   13.5396   -1.7474 H   0  0  0  0  0  0  0  0  0  0  0  0
    2.3199   13.7356   -1.9431 H   0  0  0  0  0  0  0  0  0  0  0  0
    3.2570   11.0762   -1.3879 H   0  0  0  0  0  0  0  0  0  0  0  0
    2.9959   10.2101   -2.9398 H   0  0  0  0  0  0  0  0  0  0  0  0
    3.7163   11.8556   -2.9398 H   0  0  0  0  0  0  0  0  0  0  0  0
  1  2  1  0
  2  3  1  0
  3  4  1  0
  4  5  1  0
  5  6  1  0
  6  7  1  0
  7  8  1  0
  7  9  1  0
  2 10  1  0
 10 11  1  0
 11 12  1  0
 12 13  1  0
 13 14  1  1
 13 15  1  0
 15 16  1  0
 16 17  1  0
 17 18  2  0
 18 19  1  0
 19 20  1  0
 20 21  1  0
 21 22  1  0
 22 23  1  0
 22 24  1  0
 24 25  1  0
 24 26  1  0
 19 27  1  0
 27 28  1  1
 27 29  1  0
 29 30  1  0
 30 31  1  0
 31 32  1  6
  7  5  1  0
 31 10  1  0
 31 13  1  0
 27 15  1  0
 24 18  1  0
  1 33  1  0
  1 34  1  0
  1 35  1  0
  2 36  1  1
  3 37  1  0
  3 38  1  0
  4 39  1  0
  4 40  1  0
  5 41  1  6
  8 42  1  0
  8 43  1  0
  8 44  1  0
  9 45  1  0
  9 46  1  0
  9 47  1  0
 10 48  1  1
 11 49  1  0
 11 50  1  0
 12 51  1  0
 12 52  1  0
 14 53  1  0
 14 54  1  0
 14 55  1  0
 15 56  1  6
 16 57  1  0
 16 58  1  0
 17 59  1  0
 19 60  1  6
 20 61  1  0
 20 62  1  0
 21 63  1  0
 21 64  1  0
 22 65  1  1
 23 66  1  0
 25 67  1  0
 25 68  1  0
 25 69  1  0
 26 70  1  0
 26 71  1  0
 26 72  1  0
 28 73  1  0
 28 74  1  0
 28 75  1  0
 29 76  1  0
 29 77  1  0
 30 78  1  0
 30 79  1  0
 32 80  1  0
 32 81  1  0
 32 82  1  0
M  END
>  <meeko>  (14) 
{"is_sidechain": [false], "intermolecular_energy": 2.731, "internal_energy": -0.839}

$$$$
EPH_relaxed_0001_pdb2pqr_Repair_344_r2_0001_out
     RDKit          3D

 82 86  0  0  0  0  0  0  0  0999 V2000
    1.8330   12.9990   -5.7200 C   0  0  0  0  0  0  0  0  0  0  0  0
    2.8100   12.2120   -4.8410 C   0  0  2  0  0  0  0  0  0  0  0  0
    3.7480   11.3160   -5.6740 C   0  0  0  0  0  0  0  0  0  0  0  0
    5.1970   11.8090   -5.7120 C   0  0  0  0  0  0  0  0  0  0  0  0
    6.1340   10.8270   -5.0760 C   0  0  2  0  0  0  0  0  0  0  0  0
    5.6720   10.2750   -3.8370 O   0  0  0  0  0  0  0  0  0  0  0  0
    6.8550   11.0870   -3.7670 C   0  0  0  0  0  0  0  0  0  0  0  0
    6.6720   12.3680   -3.0160 C   0  0  0  0  0  0  0  0  0  0  0  0
    8.1010   10.3120   -3.4710 C   0  0  0  0  0  0  0  0  0  0  0  0
    2.0370   11.3650   -3.8360 C   0  0  1  0  0  0  0  0  0  0  0  0
    2.9450   10.3570   -3.0820 C   0  0  0  0  0  0  0  0  0  0  0  0
    2.3850   10.2420   -1.6410 C   0  0  0  0  0  0  0  0  0  0  0  0
    0.9970   10.9200   -1.7060 C   0  0  1  0  0  0  0  0  0  0  0  0
    0.0460    9.8320   -2.2970 C   0  0  0  0  0  0  0  0  0  0  0  0
    0.4460   11.4990   -0.3620 C   0  0  2  0  0  0  0  0  0  0  0  0
    0.2070   10.4600    0.7470 C   0  0  0  0  0  0  0  0  0  0  0  0
   -1.1590    9.8580    0.7720 C   0  0  0  0  0  0  0  0  0  0  0  0
   -2.2380   10.3380    0.1270 C   0  0  0  0  0  0  0  0  0  0  0  0
   -2.1680   11.6600   -0.6490 C   0  0  1  0  0  0  0  0  0  0  0  0
   -3.4000   12.5340   -0.2960 C   0  0  0  0  0  0  0  0  0  0  0  0
   -4.7190   11.7990   -0.5130 C   0  0  0  0  0  0  0  0  0  0  0  0
   -4.7750   10.5200    0.3180 C   0  0  2  0  0  0  0  0  0  0  0  0
   -4.8130   10.8740    1.7050 O   0  0  0  0  0  0  0  0  0  0  0  0
   -3.5780    9.5650    0.0550 C   0  0  0  0  0  0  0  0  0  0  0  0
   -3.7070    8.9460   -1.3590 C   0  0  0  0  0  0  0  0  0  0  0  0
   -3.6800    8.3840    1.0570 C   0  0  0  0  0  0  0  0  0  0  0  0
   -0.7990   12.4600   -0.5320 C   0  0  1  0  0  0  0  0  0  0  0  0
   -0.8260   13.3810    0.7260 C   0  0  0  0  0  0  0  0  0  0  0  0
   -0.6540   13.4140   -1.7770 C   0  0  0  0  0  0  0  0  0  0  0  0
    0.0060   12.8180   -3.0350 C   0  0  0  0  0  0  0  0  0  0  0  0
    1.3180   12.1090   -2.6830 C   0  0  2  0  0  0  0  0  0  0  0  0
    2.3020   13.1840   -2.1070 C   0  0  0  0  0  0  0  0  0  0  0  0
    1.1357   13.5607   -5.0810 H   0  0  0  0  0  0  0  0  0  0  0  0
    2.3943   13.7002   -6.3551 H   0  0  0  0  0  0  0  0  0  0  0  0
    1.2674   12.3013   -6.3551 H   0  0  0  0  0  0  0  0  0  0  0  0
    3.4379   12.9413   -4.3082 H   0  0  0  0  0  0  0  0  0  0  0  0
    3.7366   10.3046   -5.2416 H   0  0  0  0  0  0  0  0  0  0  0  0
    3.3750   11.3345   -6.7087 H   0  0  0  0  0  0  0  0  0  0  0  0
    5.4952   11.9587   -6.7602 H   0  0  0  0  0  0  0  0  0  0  0  0
    5.2533   12.7514   -5.1475 H   0  0  0  0  0  0  0  0  0  0  0  0
    6.4911   10.4933   -6.0615 H   0  0  0  0  0  0  0  0  0  0  0  0
    6.7008   12.1666   -1.9350 H   0  0  0  0  0  0  0  0  0  0  0  0
    7.4795   13.0666   -3.2804 H   0  0  0  0  0  0  0  0  0  0  0  0
    5.7012   12.8126   -3.2804 H   0  0  0  0  0  0  0  0  0  0  0  0
    8.2321   10.2305   -2.3819 H   0  0  0  0  0  0  0  0  0  0  0  0
    8.0189    9.3054   -3.9068 H   0  0  0  0  0  0  0  0  0  0  0  0
    8.9676   10.8307   -3.9068 H   0  0  0  0  0  0  0  0  0  0  0  0
    1.2963   10.9093   -4.5096 H   0  0  0  0  0  0  0  0  0  0  0  0
    2.9163    9.3761   -3.5790 H   0  0  0  0  0  0  0  0  0  0  0  0
    3.9910   10.6974   -3.0733 H   0  0  0  0  0  0  0  0  0  0  0  0
    2.2882    9.1870   -1.3452 H   0  0  0  0  0  0  0  0  0  0  0  0
    3.0451   10.7139   -0.8983 H   0  0  0  0  0  0  0  0  0  0  0  0
   -0.4357    9.2809   -1.4759 H   0  0  0  0  0  0  0  0  0  0  0  0
   -0.7244   10.3153   -2.9158 H   0  0  0  0  0  0  0  0  0  0  0  0
    0.6281    9.1332   -2.9158 H   0  0  0  0  0  0  0  0  0  0  0  0
    1.2834   12.1209   -0.0128 H   0  0  0  0  0  0  0  0  0  0  0  0
    0.9349    9.6462    0.6131 H   0  0  0  0  0  0  0  0  0  0  0  0
    0.3199   10.9992    1.6991 H   0  0  0  0  0  0  0  0  0  0  0  0
   -1.2950    8.9440    1.3687 H   0  0  0  0  0  0  0  0  0  0  0  0
   -2.1960   11.3891   -1.7148 H   0  0  0  0  0  0  0  0  0  0  0  0
   -3.3311   12.8304    0.7611 H   0  0  0  0  0  0  0  0  0  0  0  0
   -3.3912   13.4089   -0.9627 H   0  0  0  0  0  0  0  0  0  0  0  0
   -5.5501   12.4565   -0.2179 H   0  0  0  0  0  0  0  0  0  0  0  0
   -4.7997   11.5300   -1.5765 H   0  0  0  0  0  0  0  0  0  0  0  0
   -5.6823    9.9731    0.0218 H   0  0  0  0  0  0  0  0  0  0  0  0
   -5.2450   11.7420    1.7750 H   0  0  0  0  0  0  0  0  0  0  0  0
   -3.9307    7.8726   -1.2704 H   0  0  0  0  0  0  0  0  0  0  0  0
   -4.5202    9.4461   -1.9054 H   0  0  0  0  0  0  0  0  0  0  0  0
   -2.7617    9.0796   -1.9054 H   0  0  0  0  0  0  0  0  0  0  0  0
   -3.6465    8.7720    2.0857 H   0  0  0  0  0  0  0  0  0  0  0  0
   -4.6277    7.8488    0.8977 H   0  0  0  0  0  0  0  0  0  0  0  0
   -2.8381    7.6942    0.8977 H   0  0  0  0  0  0  0  0  0  0  0  0
   -0.8078   12.7612    1.6346 H   0  0  0  0  0  0  0  0  0  0  0  0
    0.0532   14.0420    0.7154 H   0  0  0  0  0  0  0  0  0  0  0  0
   -1.7424   13.9894    0.7154 H   0  0  0  0  0  0  0  0  0  0  0  0
   -1.6629   13.7503   -2.0580 H   0  0  0  0  0  0  0  0  0  0  0  0
    0.0239   14.2155   -1.4483 H   0  0  0  0  0  0  0  0  0  0  0  0
   -0.6828   12.0932   -3.4936 H   0  0  0  0  0  0  0  0  0  0  0  0
    0.2269   13.6363   -3.7361 H   0  0  0  0  0  0  0  0  0  0  0  0
    2.2749   13.1543   -1.0077 H   0  0  0  0  0  0  0  0  0  0  0  0
    3.3234   12.9697   -2.4545 H   0  0  0  0  0  0  0  0  0  0  0  0
    1.9984   14.1826   -2.4545 H   0  0  0  0  0  0  0  0  0  0  0  0
  1  2  1  0
  2  3  1  0
  3  4  1  0
  4  5  1  0
  5  6  1  0
  6  7  1  0
  7  8  1  0
  7  9  1  0
  2 10  1  0
 10 11  1  0
 11 12  1  0
 12 13  1  0
 13 14  1  6
 13 15  1  0
 15 16  1  0
 16 17  1  0
 17 18  2  0
 18 19  1  0
 19 20  1  0
 20 21  1  0
 21 22  1  0
 22 23  1  0
 22 24  1  0
 24 25  1  0
 24 26  1  0
 19 27  1  0
 27 28  1  1
 27 29  1  0
 29 30  1  0
 30 31  1  0
 31 32  1  1
  7  5  1  0
 31 10  1  0
 31 13  1  0
 27 15  1  0
 24 18  1  0
  1 33  1  0
  1 34  1  0
  1 35  1  0
  2 36  1  1
  3 37  1  0
  3 38  1  0
  4 39  1  0
  4 40  1  0
  5 41  1  6
  8 42  1  0
  8 43  1  0
  8 44  1  0
  9 45  1  0
  9 46  1  0
  9 47  1  0
 10 48  1  6
 11 49  1  0
 11 50  1  0
 12 51  1  0
 12 52  1  0
 14 53  1  0
 14 54  1  0
 14 55  1  0
 15 56  1  1
 16 57  1  0
 16 58  1  0
 17 59  1  0
 19 60  1  6
 20 61  1  0
 20 62  1  0
 21 63  1  0
 21 64  1  0
 22 65  1  6
 23 66  1  0
 25 67  1  0
 25 68  1  0
 25 69  1  0
 26 70  1  0
 26 71  1  0
 26 72  1  0
 28 73  1  0
 28 74  1  0
 28 75  1  0
 29 76  1  0
 29 77  1  0
 30 78  1  0
 30 79  1  0
 32 80  1  0
 32 81  1  0
 32 82  1  0
M  END
>  <meeko>  (15) 
{"is_sidechain": [false], "intermolecular_energy": 2.731, "internal_energy": -0.839}

$$$$
EPH_relaxed_0001_pdb2pqr_Repair_344_r2_0001_out
     RDKit          3D

 82 86  0  0  0  0  0  0  0  0999 V2000
    2.8710   18.4650   -1.7190 C   0  0  0  0  0  0  0  0  0  0  0  0
    2.2290   17.3780   -2.5850 C   0  0  2  0  0  0  0  0  0  0  0  0
    0.7280   17.6380   -2.8240 C   0  0  0  0  0  0  0  0  0  0  0  0
    0.2560   19.0110   -2.3380 C   0  0  0  0  0  0  0  0  0  0  0  0
   -1.0550   18.9230   -1.6160 C   0  0  2  0  0  0  0  0  0  0  0  0
   -1.6220   20.1870   -1.2490 O   0  0  0  0  0  0  0  0  0  0  0  0
   -1.2390   19.3260   -0.1650 C   0  0  0  0  0  0  0  0  0  0  0  0
   -0.0980   19.8460    0.6520 C   0  0  0  0  0  0  0  0  0  0  0  0
   -2.3990   18.7590    0.5930 C   0  0  0  0  0  0  0  0  0  0  0  0
    2.4240   16.0130   -1.9360 C   0  0  1  0  0  0  0  0  0  0  0  0
    3.3810   16.0640   -0.7150 C   0  0  0  0  0  0  0  0  0  0  0  0
    2.8530   15.0270    0.3100 C   0  0  0  0  0  0  0  0  0  0  0  0
    1.8230   14.1870   -0.4810 C   0  0  1  0  0  0  0  0  0  0  0  0
    2.6770   13.1520   -1.2790 C   0  0  0  0  0  0  0  0  0  0  0  0
    0.7090   13.4870    0.3630 C   0  0  2  0  0  0  0  0  0  0  0  0
    1.2150   12.4440    1.3750 C   0  0  0  0  0  0  0  0  0  0  0  0
    1.3080   11.0470    0.8580 C   0  0  0  0  0  0  0  0  0  0  0  0
    0.7350   10.5910   -0.2710 C   0  0  0  0  0  0  0  0  0  0  0  0
   -0.1820   11.4910   -1.1090 C   0  0  1  0  0  0  0  0  0  0  0  0
   -1.4680   10.7110   -1.4890 C   0  0  0  0  0  0  0  0  0  0  0  0
   -1.1650    9.3850   -2.1790 C   0  0  0  0  0  0  0  0  0  0  0  0
   -0.2990    8.4940   -1.2910 C   0  0  2  0  0  0  0  0  0  0  0  0
   -1.0610    8.1070   -0.1430 O   0  0  0  0  0  0  0  0  0  0  0  0
    1.0200    9.1780   -0.8370 C   0  0  0  0  0  0  0  0  0  0  0  0
    1.9750    9.3220   -2.0480 C   0  0  0  0  0  0  0  0  0  0  0  0
    1.7310    8.2270    0.1640 C   0  0  0  0  0  0  0  0  0  0  0  0
   -0.4960   12.9230   -0.4940 C   0  0  1  0  0  0  0  0  0  0  0  0
   -1.7220   12.8330    0.4650 C   0  0  0  0  0  0  0  0  0  0  0  0
   -0.9130   13.9010   -1.6560 C   0  0  0  0  0  0  0  0  0  0  0  0
    0.2250   14.6540   -2.3720 C   0  0  0  0  0  0  0  0  0  0  0  0
    1.1680   15.3130   -1.3610 C   0  0  2  0  0  0  0  0  0  0  0  0
    0.3420   16.3750   -0.5580 C   0  0  0  0  0  0  0  0  0  0  0  0
    2.7264   18.2202   -0.6564 H   0  0  0  0  0  0  0  0  0  0  0  0
    3.9473   18.5212   -1.9392 H   0  0  0  0  0  0  0  0  0  0  0  0
    2.4006   19.4347   -1.9392 H   0  0  0  0  0  0  0  0  0  0  0  0
    2.7282   17.3980   -3.5650 H   0  0  0  0  0  0  0  0  0  0  0  0
    0.5306   17.5651   -3.9037 H   0  0  0  0  0  0  0  0  0  0  0  0
    0.1750   16.8843   -2.2443 H   0  0  0  0  0  0  0  0  0  0  0  0
    1.0117   19.4267   -1.6553 H   0  0  0  0  0  0  0  0  0  0  0  0
    0.1206   19.6581   -3.2172 H   0  0  0  0  0  0  0  0  0  0  0  0
   -1.3253   18.0111   -2.1686 H   0  0  0  0  0  0  0  0  0  0  0  0
   -0.3336   19.7386    1.7211 H   0  0  0  0  0  0  0  0  0  0  0  0
    0.8116   19.2735    0.4177 H   0  0  0  0  0  0  0  0  0  0  0  0
    0.0667   20.9081    0.4177 H   0  0  0  0  0  0  0  0  0  0  0  0
   -2.2114   18.8507    1.6730 H   0  0  0  0  0  0  0  0  0  0  0  0
   -3.3134   19.3118    0.3315 H   0  0  0  0  0  0  0  0  0  0  0  0
   -2.5245   17.6979    0.3315 H   0  0  0  0  0  0  0  0  0  0  0  0
    2.8049   15.4500   -2.8008 H   0  0  0  0  0  0  0  0  0  0  0  0
    4.4041   15.8040   -1.0243 H   0  0  0  0  0  0  0  0  0  0  0  0
    3.4100   17.0728   -0.2774 H   0  0  0  0  0  0  0  0  0  0  0  0
    3.6725   14.3917    0.6770 H   0  0  0  0  0  0  0  0  0  0  0  0
    2.4097   15.5046    1.1962 H   0  0  0  0  0  0  0  0  0  0  0  0
    3.2149   12.5000   -0.5750 H   0  0  0  0  0  0  0  0  0  0  0  0
    2.0161   12.5417   -1.9121 H   0  0  0  0  0  0  0  0  0  0  0  0
    3.4016   13.6850   -1.9121 H   0  0  0  0  0  0  0  0  0  0  0  0
    0.3119   14.3184    0.9639 H   0  0  0  0  0  0  0  0  0  0  0  0
    2.2178   12.7511    1.7069 H   0  0  0  0  0  0  0  0  0  0  0  0
    0.4710   12.4199    2.1849 H   0  0  0  0  0  0  0  0  0  0  0  0
    1.8947   10.3292    1.4501 H   0  0  0  0  0  0  0  0  0  0  0  0
    0.3845   11.7404   -2.0183 H   0  0  0  0  0  0  0  0  0  0  0  0
   -2.0415   10.5086   -0.5724 H   0  0  0  0  0  0  0  0  0  0  0  0
   -2.0390   11.3320   -2.1949 H   0  0  0  0  0  0  0  0  0  0  0  0
   -2.1111    8.8672   -2.3954 H   0  0  0  0  0  0  0  0  0  0  0  0
   -0.6178    9.5907   -3.1108 H   0  0  0  0  0  0  0  0  0  0  0  0
   -0.0075    7.6173   -1.8880 H   0  0  0  0  0  0  0  0  0  0  0  0
   -0.7950    8.6830    0.5940 H   0  0  0  0  0  0  0  0  0  0  0  0
    3.0028    9.4770   -1.6880 H   0  0  0  0  0  0  0  0  0  0  0  0
    1.9341    8.4075   -2.6580 H   0  0  0  0  0  0  0  0  0  0  0  0
    1.6663   10.1837   -2.6580 H   0  0  0  0  0  0  0  0  0  0  0  0
    1.4986    8.5378    1.1933 H   0  0  0  0  0  0  0  0  0  0  0  0
    1.3797    7.1970    0.0039 H   0  0  0  0  0  0  0  0  0  0  0  0
    2.8183    8.2726    0.0039 H   0  0  0  0  0  0  0  0  0  0  0  0
   -1.3741   12.8585    1.5082 H   0  0  0  0  0  0  0  0  0  0  0  0
   -2.3942   13.6842    0.2817 H   0  0  0  0  0  0  0  0  0  0  0  0
   -2.2627   11.8927    0.2817 H   0  0  0  0  0  0  0  0  0  0  0  0
   -1.4484   13.3092   -2.4130 H   0  0  0  0  0  0  0  0  0  0  0  0
   -1.5158   14.6833   -1.1716 H   0  0  0  0  0  0  0  0  0  0  0  0
    0.7964   13.9426   -2.9863 H   0  0  0  0  0  0  0  0  0  0  0  0
   -0.2169   15.4394   -3.0028 H   0  0  0  0  0  0  0  0  0  0  0  0
    0.4750   16.2040    0.5205 H   0  0  0  0  0  0  0  0  0  0  0  0
    0.6945   17.3847   -0.8153 H   0  0  0  0  0  0  0  0  0  0  0  0
   -0.7234   16.2819   -0.8153 H   0  0  0  0  0  0  0  0  0  0  0  0
  1  2  1  0
  2  3  1  0
  3  4  1  0
  4  5  1  0
  5  6  1  0
  6  7  1  0
  7  8  1  0
  7  9  1  0
  2 10  1  0
 10 11  1  0
 11 12  1  0
 12 13  1  0
 13 14  1  6
 13 15  1  0
 15 16  1  0
 16 17  1  0
 17 18  2  0
 18 19  1  0
 19 20  1  0
 20 21  1  0
 21 22  1  0
 22 23  1  0
 22 24  1  0
 24 25  1  0
 24 26  1  0
 19 27  1  0
 27 28  1  1
 27 29  1  0
 29 30  1  0
 30 31  1  0
 31 32  1  1
  7  5  1  0
 31 10  1  0
 31 13  1  0
 27 15  1  0
 24 18  1  0
  1 33  1  0
  1 34  1  0
  1 35  1  0
  2 36  1  6
  3 37  1  0
  3 38  1  0
  4 39  1  0
  4 40  1  0
  5 41  1  6
  8 42  1  0
  8 43  1  0
  8 44  1  0
  9 45  1  0
  9 46  1  0
  9 47  1  0
 10 48  1  6
 11 49  1  0
 11 50  1  0
 12 51  1  0
 12 52  1  0
 14 53  1  0
 14 54  1  0
 14 55  1  0
 15 56  1  1
 16 57  1  0
 16 58  1  0
 17 59  1  0
 19 60  1  6
 20 61  1  0
 20 62  1  0
 21 63  1  0
 21 64  1  0
 22 65  1  6
 23 66  1  0
 25 67  1  0
 25 68  1  0
 25 69  1  0
 26 70  1  0
 26 71  1  0
 26 72  1  0
 28 73  1  0
 28 74  1  0
 28 75  1  0
 29 76  1  0
 29 77  1  0
 30 78  1  0
 30 79  1  0
 32 80  1  0
 32 81  1  0
 32 82  1  0
M  END
>  <meeko>  (16) 
{"is_sidechain": [false], "intermolecular_energy": 2.731, "internal_energy": -0.839}

$$$$
EPH_relaxed_0001_pdb2pqr_Repair_344_r2_0001_out
     RDKit          3D

 82 86  0  0  0  0  0  0  0  0999 V2000
    3.7950   12.2730   -5.3310 C   0  0  0  0  0  0  0  0  0  0  0  0
    2.2710   12.3920   -5.4150 C   0  0  2  0  0  0  0  0  0  0  0  0
    1.7890   13.8430   -5.2110 C   0  0  0  0  0  0  0  0  0  0  0  0
    0.9470   14.3800   -6.3720 C   0  0  0  0  0  0  0  0  0  0  0  0
    1.7950   14.7290   -7.5570 C   0  0  2  0  0  0  0  0  0  0  0  0
    2.1340   16.1180   -7.6620 O   0  0  0  0  0  0  0  0  0  0  0  0
    1.3080   15.5860   -8.7110 C   0  0  0  0  0  0  0  0  0  0  0  0
   -0.0800   16.1450   -8.7350 C   0  0  0  0  0  0  0  0  0  0  0  0
    2.0060   15.4740  -10.0300 C   0  0  0  0  0  0  0  0  0  0  0  0
    1.6210   11.4780   -4.3830 C   0  0  1  0  0  0  0  0  0  0  0  0
    2.5990   10.4050   -3.8350 C   0  0  0  0  0  0  0  0  0  0  0  0
    2.2320   10.1840   -2.3450 C   0  0  0  0  0  0  0  0  0  0  0  0
    0.8610   10.8790   -2.1740 C   0  0  1  0  0  0  0  0  0  0  0  0
   -0.1810    9.8500   -2.7140 C   0  0  0  0  0  0  0  0  0  0  0  0
    0.5040   11.3570   -0.7290 C   0  0  2  0  0  0  0  0  0  0  0  0
    0.3920   10.2370    0.3200 C   0  0  0  0  0  0  0  0  0  0  0  0
   -0.9710    9.6490    0.4810 C   0  0  0  0  0  0  0  0  0  0  0  0
   -2.1150   10.1900    0.0230 C   0  0  0  0  0  0  0  0  0  0  0  0
   -2.1210   11.5670   -0.6520 C   0  0  1  0  0  0  0  0  0  0  0  0
   -3.2780   12.4230   -0.0730 C   0  0  0  0  0  0  0  0  0  0  0  0
   -4.6290   11.7210   -0.1690 C   0  0  0  0  0  0  0  0  0  0  0  0
   -4.6010   10.3820    0.5640 C   0  0  2  0  0  0  0  0  0  0  0  0
   -4.4490   10.6270    1.9660 O   0  0  0  0  0  0  0  0  0  0  0  0
   -3.4680    9.4380    0.0720 C   0  0  0  0  0  0  0  0  0  0  0  0
   -3.7950    8.9320   -1.3550 C   0  0  0  0  0  0  0  0  0  0  0  0
   -3.4620    8.1830    0.9870 C   0  0  0  0  0  0  0  0  0  0  0  0
   -0.7330   12.3420   -0.6590 C   0  0  1  0  0  0  0  0  0  0  0  0
   -0.5750   13.1620    0.6580 C   0  0  0  0  0  0  0  0  0  0  0  0
   -0.7330   13.3870   -1.8360 C   0  0  0  0  0  0  0  0  0  0  0  0
   -0.2570   12.8850   -3.2120 C   0  0  0  0  0  0  0  0  0  0  0  0
    1.0750   12.1370   -3.0920 C   0  0  2  0  0  0  0  0  0  0  0  0
    2.1480   13.1530   -2.5720 C   0  0  0  0  0  0  0  0  0  0  0  0
    4.1033   12.2489   -4.2754 H   0  0  0  0  0  0  0  0  0  0  0  0
    4.1185   11.3469   -5.8286 H   0  0  0  0  0  0  0  0  0  0  0  0
    4.2583   13.1377   -5.8286 H   0  0  0  0  0  0  0  0  0  0  0  0
    1.9706   12.0837   -6.4273 H   0  0  0  0  0  0  0  0  0  0  0  0
    1.1820   13.8819   -4.2945 H   0  0  0  0  0  0  0  0  0  0  0  0
    2.6874   14.4744   -5.1459 H   0  0  0  0  0  0  0  0  0  0  0  0
    0.2183   13.6114   -6.6691 H   0  0  0  0  0  0  0  0  0  0  0  0
    0.4391   15.2948   -6.0326 H   0  0  0  0  0  0  0  0  0  0  0  0
    2.2868   13.7456   -7.5247 H   0  0  0  0  0  0  0  0  0  0  0  0
   -0.4355   16.2882   -7.7039 H   0  0  0  0  0  0  0  0  0  0  0  0
   -0.0768   17.1120   -9.2594 H   0  0  0  0  0  0  0  0  0  0  0  0
   -0.7479   15.4457   -9.2594 H   0  0  0  0  0  0  0  0  0  0  0  0
    3.0796   15.3017   -9.8633 H   0  0  0  0  0  0  0  0  0  0  0  0
    1.5835   14.6322  -10.5981 H   0  0  0  0  0  0  0  0  0  0  0  0
    1.8680   16.4058  -10.5981 H   0  0  0  0  0  0  0  0  0  0  0  0
    0.7890   11.0837   -4.9850 H   0  0  0  0  0  0  0  0  0  0  0  0
    2.4845    9.4661   -4.3965 H   0  0  0  0  0  0  0  0  0  0  0  0
    3.6438   10.7328   -3.9398 H   0  0  0  0  0  0  0  0  0  0  0  0
    2.1539    9.1102   -2.1194 H   0  0  0  0  0  0  0  0  0  0  0  0
    2.9936   10.5900   -1.6630 H   0  0  0  0  0  0  0  0  0  0  0  0
   -0.6811    9.3562   -1.8678 H   0  0  0  0  0  0  0  0  0  0  0  0
   -0.9292   10.3734   -3.3274 H   0  0  0  0  0  0  0  0  0  0  0  0
    0.3329    9.0953   -3.3274 H   0  0  0  0  0  0  0  0  0  0  0  0
    1.3926   11.9410   -0.4475 H   0  0  0  0  0  0  0  0  0  0  0  0
    1.0789    9.4286    0.0290 H   0  0  0  0  0  0  0  0  0  0  0  0
    0.6406   10.6991    1.2868 H   0  0  0  0  0  0  0  0  0  0  0  0
   -1.0465    8.6928    1.0195 H   0  0  0  0  0  0  0  0  0  0  0  0
   -2.2945   11.3800   -1.7220 H   0  0  0  0  0  0  0  0  0  0  0  0
   -3.0648   12.6346    0.9852 H   0  0  0  0  0  0  0  0  0  0  0  0
   -3.3389   13.3474   -0.6661 H   0  0  0  0  0  0  0  0  0  0  0  0
   -5.4008   12.3622    0.2818 H   0  0  0  0  0  0  0  0  0  0  0  0
   -4.8542   11.5362   -1.2297 H   0  0  0  0  0  0  0  0  0  0  0  0
   -5.5506    9.8692    0.3513 H   0  0  0  0  0  0  0  0  0  0  0  0
   -3.5100   10.8190    2.1300 H   0  0  0  0  0  0  0  0  0  0  0  0
   -4.3910    8.0098   -1.2894 H   0  0  0  0  0  0  0  0  0  0  0  0
   -4.3675    9.7009   -1.8945 H   0  0  0  0  0  0  0  0  0  0  0  0
   -2.8588    8.7260   -1.8945 H   0  0  0  0  0  0  0  0  0  0  0  0
   -3.4635    8.4977    2.0410 H   0  0  0  0  0  0  0  0  0  0  0  0
   -4.3573    7.5769    0.7840 H   0  0  0  0  0  0  0  0  0  0  0  0
   -2.5610    7.5855    0.7840 H   0  0  0  0  0  0  0  0  0  0  0  0
   -0.7036   12.4948    1.5230 H   0  0  0  0  0  0  0  0  0  0  0  0
    0.4269   13.6149    0.6900 H   0  0  0  0  0  0  0  0  0  0  0  0
   -1.3369   13.9548    0.6900 H   0  0  0  0  0  0  0  0  0  0  0  0
   -1.7630   13.7547   -1.9542 H   0  0  0  0  0  0  0  0  0  0  0  0
   -0.0005   14.1526   -1.5404 H   0  0  0  0  0  0  0  0  0  0  0  0
   -1.0149   12.2056   -3.6291 H   0  0  0  0  0  0  0  0  0  0  0  0
   -0.1135   13.7534   -3.8718 H   0  0  0  0  0  0  0  0  0  0  0  0
    2.1492   13.1541   -1.4720 H   0  0  0  0  0  0  0  0  0  0  0  0
    3.1417   12.8570   -2.9394 H   0  0  0  0  0  0  0  0  0  0  0  0
    1.9066   14.1613   -2.9394 H   0  0  0  0  0  0  0  0  0  0  0  0
  1  2  1  0
  2  3  1  0
  3  4  1  0
  4  5  1  0
  5  6  1  0
  6  7  1  0
  7  8  1  0
  7  9  1  0
  2 10  1  0
 10 11  1  0
 11 12  1  0
 12 13  1  0
 13 14  1  6
 13 15  1  0
 15 16  1  0
 16 17  1  0
 17 18  2  0
 18 19  1  0
 19 20  1  0
 20 21  1  0
 21 22  1  0
 22 23  1  0
 22 24  1  0
 24 25  1  0
 24 26  1  0
 19 27  1  0
 27 28  1  1
 27 29  1  0
 29 30  1  0
 30 31  1  0
 31 32  1  1
  7  5  1  0
 31 10  1  0
 31 13  1  0
 27 15  1  0
 24 18  1  0
  1 33  1  0
  1 34  1  0
  1 35  1  0
  2 36  1  6
  3 37  1  0
  3 38  1  0
  4 39  1  0
  4 40  1  0
  5 41  1  6
  8 42  1  0
  8 43  1  0
  8 44  1  0
  9 45  1  0
  9 46  1  0
  9 47  1  0
 10 48  1  6
 11 49  1  0
 11 50  1  0
 12 51  1  0
 12 52  1  0
 14 53  1  0
 14 54  1  0
 14 55  1  0
 15 56  1  1
 16 57  1  0
 16 58  1  0
 17 59  1  0
 19 60  1  6
 20 61  1  0
 20 62  1  0
 21 63  1  0
 21 64  1  0
 22 65  1  1
 23 66  1  0
 25 67  1  0
 25 68  1  0
 25 69  1  0
 26 70  1  0
 26 71  1  0
 26 72  1  0
 28 73  1  0
 28 74  1  0
 28 75  1  0
 29 76  1  0
 29 77  1  0
 30 78  1  0
 30 79  1  0
 32 80  1  0
 32 81  1  0
 32 82  1  0
M  END
>  <meeko>  (17) 
{"is_sidechain": [false], "intermolecular_energy": 2.731, "internal_energy": -0.839}

$$$$
EPH_relaxed_0001_pdb2pqr_Repair_344_r2_0001_out
     RDKit          3D

 82 86  0  0  0  0  0  0  0  0999 V2000
   -3.7210   10.4520    2.3560 C   0  0  0  0  0  0  0  0  0  0  0  0
   -4.1400   10.1090    0.9240 C   0  0  2  0  0  0  0  0  0  0  0  0
   -4.0410    8.5970    0.6370 C   0  0  0  0  0  0  0  0  0  0  0  0
   -4.2080    8.2390   -0.8430 C   0  0  0  0  0  0  0  0  0  0  0  0
   -5.5770    7.7030   -1.1320 C   0  0  2  0  0  0  0  0  0  0  0  0
   -5.7160    6.2870   -0.9550 O   0  0  0  0  0  0  0  0  0  0  0  0
   -5.8850    6.7780   -2.2950 C   0  0  0  0  0  0  0  0  0  0  0  0
   -4.8150    6.3360   -3.2450 C   0  0  0  0  0  0  0  0  0  0  0  0
   -7.2940    6.6980   -2.7930 C   0  0  0  0  0  0  0  0  0  0  0  0
   -3.2820   10.8840   -0.0690 C   0  0  1  0  0  0  0  0  0  0  0  0
   -3.7700   12.3440   -0.2680 C   0  0  0  0  0  0  0  0  0  0  0  0
   -2.5050   13.2130   -0.4890 C   0  0  0  0  0  0  0  0  0  0  0  0
   -1.3700   12.1920   -0.7400 C   0  0  1  0  0  0  0  0  0  0  0  0
   -1.5130   11.7950   -2.2430 C   0  0  0  0  0  0  0  0  0  0  0  0
    0.0790   12.6750   -0.4050 C   0  0  2  0  0  0  0  0  0  0  0  0
    0.5770   13.8700   -1.2370 C   0  0  0  0  0  0  0  0  0  0  0  0
    1.2880   13.5150   -2.5010 C   0  0  0  0  0  0  0  0  0  0  0  0
    1.7690   12.2970   -2.8120 C   0  0  0  0  0  0  0  0  0  0  0  0
    1.7030   11.1430   -1.8040 C   0  0  1  0  0  0  0  0  0  0  0  0
    3.0750   10.4220   -1.7530 C   0  0  0  0  0  0  0  0  0  0  0  0
    3.5500    9.9670   -3.1300 C   0  0  0  0  0  0  0  0  0  0  0  0
    3.6590   11.1510   -4.0870 C   0  0  2  0  0  0  0  0  0  0  0  0
    4.7090   12.0120   -3.6380 O   0  0  0  0  0  0  0  0  0  0  0  0
    2.3380   11.9610   -4.2130 C   0  0  0  0  0  0  0  0  0  0  0  0
    1.2840   11.1210   -4.9770 C   0  0  0  0  0  0  0  0  0  0  0  0
    2.6230   13.2060   -5.0950 C   0  0  0  0  0  0  0  0  0  0  0  0
    1.1540   11.5140   -0.3600 C   0  0  1  0  0  0  0  0  0  0  0  0
    2.3220   12.0240    0.5380 C   0  0  0  0  0  0  0  0  0  0  0  0
    0.6000   10.2120    0.3300 C   0  0  0  0  0  0  0  0  0  0  0  0
   -0.8740    9.8540    0.0560 C   0  0  0  0  0  0  0  0  0  0  0  0
   -1.7830   11.0670    0.2770 C   0  0  2  0  0  0  0  0  0  0  0  0
   -1.6770   11.4750    1.7860 C   0  0  0  0  0  0  0  0  0  0  0  0
   -4.3713    9.9197    3.0658 H   0  0  0  0  0  0  0  0  0  0  0  0
   -2.6764   10.1464    2.5156 H   0  0  0  0  0  0  0  0  0  0  0  0
   -3.8143   11.5364    2.5156 H   0  0  0  0  0  0  0  0  0  0  0  0
   -5.1948   10.3993    0.8096 H   0  0  0  0  0  0  0  0  0  0  0  0
   -3.0539    8.2441    0.9704 H   0  0  0  0  0  0  0  0  0  0  0  0
   -4.8655    8.1120    1.1801 H   0  0  0  0  0  0  0  0  0  0  0  0
   -4.0434    9.1421   -1.4491 H   0  0  0  0  0  0  0  0  0  0  0  0
   -3.4742    7.4582   -1.0920 H   0  0  0  0  0  0  0  0  0  0  0  0
   -6.0412    8.6404   -0.7916 H   0  0  0  0  0  0  0  0  0  0  0  0
   -3.9450    5.9766   -2.6759 H   0  0  0  0  0  0  0  0  0  0  0  0
   -5.1999    5.5233   -3.8785 H   0  0  0  0  0  0  0  0  0  0  0  0
   -4.5141    7.1835   -3.8785 H   0  0  0  0  0  0  0  0  0  0  0  0
   -7.9838    6.6588   -1.9370 H   0  0  0  0  0  0  0  0  0  0  0  0
   -7.5179    7.5849   -3.4040 H   0  0  0  0  0  0  0  0  0  0  0  0
   -7.4160    5.7915   -3.4040 H   0  0  0  0  0  0  0  0  0  0  0  0
   -3.3885   10.2345   -0.9504 H   0  0  0  0  0  0  0  0  0  0  0  0
   -4.4303   12.4063   -1.1456 H   0  0  0  0  0  0  0  0  0  0  0  0
   -4.3403   12.6921    0.6059 H   0  0  0  0  0  0  0  0  0  0  0  0
   -2.6340   13.8724   -1.3600 H   0  0  0  0  0  0  0  0  0  0  0  0
   -2.2942   13.8691    0.3684 H   0  0  0  0  0  0  0  0  0  0  0  0
   -1.8850   10.7624   -2.3157 H   0  0  0  0  0  0  0  0  0  0  0  0
   -2.2224   12.4758   -2.7362 H   0  0  0  0  0  0  0  0  0  0  0  0
   -0.5324   11.8671   -2.7362 H   0  0  0  0  0  0  0  0  0  0  0  0
   -0.0287   13.0512    0.6231 H   0  0  0  0  0  0  0  0  0  0  0  0
   -0.2942   14.4882   -1.4992 H   0  0  0  0  0  0  0  0  0  0  0  0
    1.3145   14.3916   -0.6092 H   0  0  0  0  0  0  0  0  0  0  0  0
    1.4308   14.3166   -3.2406 H   0  0  0  0  0  0  0  0  0  0  0  0
    0.9328   10.4537   -2.1804 H   0  0  0  0  0  0  0  0  0  0  0  0
    3.8209   11.1132   -1.3336 H   0  0  0  0  0  0  0  0  0  0  0  0
    2.9569    9.5247   -1.1278 H   0  0  0  0  0  0  0  0  0  0  0  0
    4.5370    9.4914   -3.0316 H   0  0  0  0  0  0  0  0  0  0  0  0
    2.8183    9.2530   -3.5360 H   0  0  0  0  0  0  0  0  0  0  0  0
    3.8764   10.7472   -5.0868 H   0  0  0  0  0  0  0  0  0  0  0  0
    4.5040   12.2760   -2.7250 H   0  0  0  0  0  0  0  0  0  0  0  0
    0.6346   10.6035   -4.2556 H   0  0  0  0  0  0  0  0  0  0  0  0
    0.6748   11.7839   -5.6089 H   0  0  0  0  0  0  0  0  0  0  0  0
    1.7943   10.3792   -5.6089 H   0  0  0  0  0  0  0  0  0  0  0  0
    2.8218   14.0746   -4.4500 H   0  0  0  0  0  0  0  0  0  0  0  0
    3.5001   13.0125   -5.7300 H   0  0  0  0  0  0  0  0  0  0  0  0
    1.7491   13.4133   -5.7300 H   0  0  0  0  0  0  0  0  0  0  0  0
    2.0493   11.9049    1.5970 H   0  0  0  0  0  0  0  0  0  0  0  0
    3.2298   11.4404    0.3253 H   0  0  0  0  0  0  0  0  0  0  0  0
    2.5110   13.0866    0.3253 H   0  0  0  0  0  0  0  0  0  0  0  0
    1.2165    9.3669   -0.0102 H   0  0  0  0  0  0  0  0  0  0  0  0
    0.6512   10.4144    1.4100 H   0  0  0  0  0  0  0  0  0  0  0  0
   -0.9742    9.5142   -0.9854 H   0  0  0  0  0  0  0  0  0  0  0  0
   -1.1767    9.0575    0.7517 H   0  0  0  0  0  0  0  0  0  0  0  0
   -1.9034   10.6037    2.4182 H   0  0  0  0  0  0  0  0  0  0  0  0
   -0.6573   11.8280    1.9996 H   0  0  0  0  0  0  0  0  0  0  0  0
   -2.3959   12.2797    1.9996 H   0  0  0  0  0  0  0  0  0  0  0  0
  1  2  1  0
  2  3  1  0
  3  4  1  0
  4  5  1  0
  5  6  1  0
  6  7  1  0
  7  8  1  0
  7  9  1  0
  2 10  1  0
 10 11  1  0
 11 12  1  0
 12 13  1  0
 13 14  1  6
 13 15  1  0
 15 16  1  0
 16 17  1  0
 17 18  2  0
 18 19  1  0
 19 20  1  0
 20 21  1  0
 21 22  1  0
 22 23  1  0
 22 24  1  0
 24 25  1  0
 24 26  1  0
 19 27  1  0
 27 28  1  1
 27 29  1  0
 29 30  1  0
 30 31  1  0
 31 32  1  1
  7  5  1  0
 31 10  1  0
 31 13  1  0
 27 15  1  0
 24 18  1  0
  1 33  1  0
  1 34  1  0
  1 35  1  0
  2 36  1  1
  3 37  1  0
  3 38  1  0
  4 39  1  0
  4 40  1  0
  5 41  1  1
  8 42  1  0
  8 43  1  0
  8 44  1  0
  9 45  1  0
  9 46  1  0
  9 47  1  0
 10 48  1  6
 11 49  1  0
 11 50  1  0
 12 51  1  0
 12 52  1  0
 14 53  1  0
 14 54  1  0
 14 55  1  0
 15 56  1  1
 16 57  1  0
 16 58  1  0
 17 59  1  0
 19 60  1  6
 20 61  1  0
 20 62  1  0
 21 63  1  0
 21 64  1  0
 22 65  1  6
 23 66  1  0
 25 67  1  0
 25 68  1  0
 25 69  1  0
 26 70  1  0
 26 71  1  0
 26 72  1  0
 28 73  1  0
 28 74  1  0
 28 75  1  0
 29 76  1  0
 29 77  1  0
 30 78  1  0
 30 79  1  0
 32 80  1  0
 32 81  1  0
 32 82  1  0
M  END
>  <meeko>  (18) 
{"is_sidechain": [false], "intermolecular_energy": 2.731, "internal_energy": -0.839}

$$$$
EPH_relaxed_0001_pdb2pqr_Repair_344_r2_0001_out
     RDKit          3D

 82 86  0  0  0  0  0  0  0  0999 V2000
   -1.0570   16.4890   -6.0440 C   0  0  0  0  0  0  0  0  0  0  0  0
    0.1200   15.6970   -6.6190 C   0  0  2  0  0  0  0  0  0  0  0  0
   -0.1130   15.2970   -8.0900 C   0  0  0  0  0  0  0  0  0  0  0  0
    0.4180   16.3210   -9.0970 C   0  0  0  0  0  0  0  0  0  0  0  0
    1.8340   16.0290   -9.4910 C   0  0  2  0  0  0  0  0  0  0  0  0
    2.2580   16.6530  -10.7100 O   0  0  0  0  0  0  0  0  0  0  0  0
    2.2120   15.2170  -10.7160 C   0  0  0  0  0  0  0  0  0  0  0  0
    1.1690   14.6450  -11.6240 C   0  0  0  0  0  0  0  0  0  0  0  0
    3.5610   14.5710  -10.7580 C   0  0  0  0  0  0  0  0  0  0  0  0
    0.3720   14.4530   -5.7750 C   0  0  1  0  0  0  0  0  0  0  0  0
    1.4720   13.5370   -6.3740 C   0  0  0  0  0  0  0  0  0  0  0  0
    2.2350   12.9130   -5.1780 C   0  0  0  0  0  0  0  0  0  0  0  0
    1.3500   13.2210   -3.9470 C   0  0  1  0  0  0  0  0  0  0  0  0
    0.2360   12.1280   -3.9700 C   0  0  0  0  0  0  0  0  0  0  0  0
    2.0810   13.2730   -2.5660 C   0  0  2  0  0  0  0  0  0  0  0  0
    2.7370   11.9520   -2.1250 C   0  0  0  0  0  0  0  0  0  0  0  0
    1.8680   11.0480   -1.3150 C   0  0  0  0  0  0  0  0  0  0  0  0
    0.7160   11.4010   -0.7150 C   0  0  0  0  0  0  0  0  0  0  0  0
    0.2280   12.8560   -0.7400 C   0  0  1  0  0  0  0  0  0  0  0  0
   -0.2230   13.2740    0.6840 C   0  0  0  0  0  0  0  0  0  0  0  0
   -1.2590   12.3220    1.2730 C   0  0  0  0  0  0  0  0  0  0  0  0
   -0.7160   10.8960    1.3350 C   0  0  2  0  0  0  0  0  0  0  0  0
    0.3560   10.8520    2.2810 O   0  0  0  0  0  0  0  0  0  0  0  0
   -0.2220   10.3690   -0.0410 C   0  0  0  0  0  0  0  0  0  0  0  0
   -1.4350   10.1320   -0.9740 C   0  0  0  0  0  0  0  0  0  0  0  0
    0.4300    8.9780    0.1870 C   0  0  0  0  0  0  0  0  0  0  0  0
    1.2200   13.9080   -1.4000 C   0  0  1  0  0  0  0  0  0  0  0  0
    2.2300   14.4290   -0.3330 C   0  0  0  0  0  0  0  0  0  0  0  0
    0.3950   15.1600   -1.8800 C   0  0  0  0  0  0  0  0  0  0  0  0
   -0.2010   15.0980   -3.2990 C   0  0  0  0  0  0  0  0  0  0  0  0
    0.8560   14.6670   -4.3190 C   0  0  2  0  0  0  0  0  0  0  0  0
    1.9790   15.7590   -4.3350 C   0  0  0  0  0  0  0  0  0  0  0  0
   -1.0157   16.4612   -4.9451 H   0  0  0  0  0  0  0  0  0  0  0  0
   -0.9991   17.5326   -6.3868 H   0  0  0  0  0  0  0  0  0  0  0  0
   -2.0019   16.0423   -6.3868 H   0  0  0  0  0  0  0  0  0  0  0  0
    1.0041   16.3509   -6.5902 H   0  0  0  0  0  0  0  0  0  0  0  0
    0.3908   14.3364   -8.2728 H   0  0  0  0  0  0  0  0  0  0  0  0
   -1.2012   15.2345   -8.2380 H   0  0  0  0  0  0  0  0  0  0  0  0
   -0.2144   16.2970   -9.9967 H   0  0  0  0  0  0  0  0  0  0  0  0
    0.3920   17.3132   -8.6228 H   0  0  0  0  0  0  0  0  0  0  0  0
    2.1367   15.9571   -8.4359 H   0  0  0  0  0  0  0  0  0  0  0  0
    0.3617   14.2023  -11.0221 H   0  0  0  0  0  0  0  0  0  0  0  0
    0.7574   15.4436  -12.2587 H   0  0  0  0  0  0  0  0  0  0  0  0
    1.6212   13.8686  -12.2587 H   0  0  0  0  0  0  0  0  0  0  0  0
    3.9178   14.4001   -9.7316 H   0  0  0  0  0  0  0  0  0  0  0  0
    3.4905   13.6089  -11.2866 H   0  0  0  0  0  0  0  0  0  0  0  0
    4.2664   15.2290  -11.2866 H   0  0  0  0  0  0  0  0  0  0  0  0
   -0.6403   14.0226   -5.7751 H   0  0  0  0  0  0  0  0  0  0  0  0
    1.0142   12.7456   -6.9856 H   0  0  0  0  0  0  0  0  0  0  0  0
    2.1528   14.1092   -7.0214 H   0  0  0  0  0  0  0  0  0  0  0  0
    2.3478   11.8272   -5.3133 H   0  0  0  0  0  0  0  0  0  0  0  0
    3.2515   13.3203   -5.0734 H   0  0  0  0  0  0  0  0  0  0  0  0
   -0.0366   11.8605   -2.9384 H   0  0  0  0  0  0  0  0  0  0  0  0
   -0.6493   12.5177   -4.4939 H   0  0  0  0  0  0  0  0  0  0  0  0
    0.6088   11.2355   -4.4939 H   0  0  0  0  0  0  0  0  0  0  0  0
    2.9107   13.9674   -2.7643 H   0  0  0  0  0  0  0  0  0  0  0  0
    3.0450   11.4069   -3.0294 H   0  0  0  0  0  0  0  0  0  0  0  0
    3.5768   12.2323   -1.4722 H   0  0  0  0  0  0  0  0  0  0  0  0
    2.1971   10.0048   -1.1986 H   0  0  0  0  0  0  0  0  0  0  0  0
   -0.6320   12.8779   -1.4255 H   0  0  0  0  0  0  0  0  0  0  0  0
    0.6578   13.2879    1.3428 H   0  0  0  0  0  0  0  0  0  0  0  0
   -0.6881   14.2680    0.6084 H   0  0  0  0  0  0  0  0  0  0  0  0
   -1.5162   12.6539    2.2897 H   0  0  0  0  0  0  0  0  0  0  0  0
   -2.1506   12.3308    0.6288 H   0  0  0  0  0  0  0  0  0  0  0  0
   -1.5438   10.2402    1.6428 H   0  0  0  0  0  0  0  0  0  0  0  0
    0.9520   11.5950    2.0860 H   0  0  0  0  0  0  0  0  0  0  0  0
   -2.3355    9.9561   -0.3672 H   0  0  0  0  0  0  0  0  0  0  0  0
   -1.5878   11.0173   -1.6088 H   0  0  0  0  0  0  0  0  0  0  0  0
   -1.2434    9.2543   -1.6088 H   0  0  0  0  0  0  0  0  0  0  0  0
    0.5193    8.7875    1.2667 H   0  0  0  0  0  0  0  0  0  0  0  0
   -0.1970    8.1995   -0.2721 H   0  0  0  0  0  0  0  0  0  0  0  0
    1.4295    8.9618   -0.2721 H   0  0  0  0  0  0  0  0  0  0  0  0
    1.8367   14.2261    0.6740 H   0  0  0  0  0  0  0  0  0  0  0  0
    3.1948   13.9161   -0.4601 H   0  0  0  0  0  0  0  0  0  0  0  0
    2.3713   15.5125   -0.4601 H   0  0  0  0  0  0  0  0  0  0  0  0
   -0.4380   15.2995   -1.1752 H   0  0  0  0  0  0  0  0  0  0  0  0
    1.1191   15.9875   -1.9084 H   0  0  0  0  0  0  0  0  0  0  0  0
   -1.0285   14.3734   -3.3104 H   0  0  0  0  0  0  0  0  0  0  0  0
   -0.5631   16.1003   -3.5714 H   0  0  0  0  0  0  0  0  0  0  0  0
    2.2495   16.0220   -3.3017 H   0  0  0  0  0  0  0  0  0  0  0  0
    2.8642   15.3670   -4.8573 H   0  0  0  0  0  0  0  0  0  0  0  0
    1.6119   16.6548   -4.8573 H   0  0  0  0  0  0  0  0  0  0  0  0
  1  2  1  0
  2  3  1  0
  3  4  1  0
  4  5  1  0
  5  6  1  0
  6  7  1  0
  7  8  1  0
  7  9  1  0
  2 10  1  0
 10 11  1  0
 11 12  1  0
 12 13  1  0
 13 14  1  1
 13 15  1  0
 15 16  1  0
 16 17  1  0
 17 18  2  0
 18 19  1  0
 19 20  1  0
 20 21  1  0
 21 22  1  0
 22 23  1  0
 22 24  1  0
 24 25  1  0
 24 26  1  0
 19 27  1  0
 27 28  1  1
 27 29  1  0
 29 30  1  0
 30 31  1  0
 31 32  1  6
  7  5  1  0
 31 10  1  0
 31 13  1  0
 27 15  1  0
 24 18  1  0
  1 33  1  0
  1 34  1  0
  1 35  1  0
  2 36  1  6
  3 37  1  0
  3 38  1  0
  4 39  1  0
  4 40  1  0
  5 41  1  1
  8 42  1  0
  8 43  1  0
  8 44  1  0
  9 45  1  0
  9 46  1  0
  9 47  1  0
 10 48  1  1
 11 49  1  0
 11 50  1  0
 12 51  1  0
 12 52  1  0
 14 53  1  0
 14 54  1  0
 14 55  1  0
 15 56  1  6
 16 57  1  0
 16 58  1  0
 17 59  1  0
 19 60  1  6
 20 61  1  0
 20 62  1  0
 21 63  1  0
 21 64  1  0
 22 65  1  1
 23 66  1  0
 25 67  1  0
 25 68  1  0
 25 69  1  0
 26 70  1  0
 26 71  1  0
 26 72  1  0
 28 73  1  0
 28 74  1  0
 28 75  1  0
 29 76  1  0
 29 77  1  0
 30 78  1  0
 30 79  1  0
 32 80  1  0
 32 81  1  0
 32 82  1  0
M  END
>  <meeko>  (19) 
{"is_sidechain": [false], "intermolecular_energy": 2.731, "internal_energy": -0.839}

$$$$
EPH_relaxed_0001_pdb2pqr_Repair_344_r2_0001_out
     RDKit          3D

 82 86  0  0  0  0  0  0  0  0999 V2000
    0.3050    8.8290   -2.3140 C   0  0  0  0  0  0  0  0  0  0  0  0
    1.0490    9.9630   -3.0250 C   0  0  2  0  0  0  0  0  0  0  0  0
    2.5540    9.9700   -2.6910 C   0  0  0  0  0  0  0  0  0  0  0  0
    3.4290   10.5530   -3.8040 C   0  0  0  0  0  0  0  0  0  0  0  0
    4.8280   10.8110   -3.3320 C   0  0  2  0  0  0  0  0  0  0  0  0
    5.4160   12.0170   -3.8360 O   0  0  0  0  0  0  0  0  0  0  0  0
    6.0370   10.7890   -4.2480 C   0  0  0  0  0  0  0  0  0  0  0  0
    5.9040   10.4990   -5.7100 C   0  0  0  0  0  0  0  0  0  0  0  0
    7.3880   10.5640   -3.6430 C   0  0  0  0  0  0  0  0  0  0  0  0
    0.4270   11.3050   -2.6540 C   0  0  1  0  0  0  0  0  0  0  0  0
   -0.9350   11.1510   -1.9260 C   0  0  0  0  0  0  0  0  0  0  0  0
   -1.0190   12.3000   -0.8880 C   0  0  0  0  0  0  0  0  0  0  0  0
    0.1290   13.2610   -1.2760 C   0  0  1  0  0  0  0  0  0  0  0  0
   -0.4420   14.1130   -2.4530 C   0  0  0  0  0  0  0  0  0  0  0  0
    0.6920   14.1640   -0.1300 C   0  0  2  0  0  0  0  0  0  0  0  0
   -0.3190   15.1520    0.4780 C   0  0  0  0  0  0  0  0  0  0  0  0
   -0.3680   16.4950   -0.1740 C   0  0  0  0  0  0  0  0  0  0  0  0
    0.5590   16.9910   -1.0150 C   0  0  0  0  0  0  0  0  0  0  0  0
    1.8480   16.2150   -1.3120 C   0  0  1  0  0  0  0  0  0  0  0  0
    3.0630   17.1740   -1.2170 C   0  0  0  0  0  0  0  0  0  0  0  0
    2.9060   18.4060   -2.1030 C   0  0  0  0  0  0  0  0  0  0  0  0
    1.6440   19.1830   -1.7390 C   0  0  2  0  0  0  0  0  0  0  0  0
    1.8030   19.7320   -0.4270 O   0  0  0  0  0  0  0  0  0  0  0  0
    0.3550   18.3160   -1.7890 C   0  0  0  0  0  0  0  0  0  0  0  0
    0.0170   17.9720   -3.2610 C   0  0  0  0  0  0  0  0  0  0  0  0
   -0.8230   19.1800   -1.2640 C   0  0  0  0  0  0  0  0  0  0  0  0
    2.0600   14.8770   -0.4800 C   0  0  1  0  0  0  0  0  0  0  0  0
    2.7530   15.2010    0.8790 C   0  0  0  0  0  0  0  0  0  0  0  0
    3.0440   13.9330   -1.2660 C   0  0  0  0  0  0  0  0  0  0  0  0
    2.4140   12.9800   -2.3000 C   0  0  0  0  0  0  0  0  0  0  0  0
    1.2300   12.2200   -1.6950 C   0  0  2  0  0  0  0  0  0  0  0  0
    1.7770   11.3360   -0.5220 C   0  0  0  0  0  0  0  0  0  0  0  0
    0.3910    8.9601   -1.2252 H   0  0  0  0  0  0  0  0  0  0  0  0
   -0.7562    8.8489   -2.6030 H   0  0  0  0  0  0  0  0  0  0  0  0
    0.7457    7.8635   -2.6030 H   0  0  0  0  0  0  0  0  0  0  0  0
    0.9523    9.7943   -4.1077 H   0  0  0  0  0  0  0  0  0  0  0  0
    2.7049   10.5691   -1.7809 H   0  0  0  0  0  0  0  0  0  0  0  0
    2.8587    8.9214   -2.5587 H   0  0  0  0  0  0  0  0  0  0  0  0
    3.4611    9.8411   -4.6420 H   0  0  0  0  0  0  0  0  0  0  0  0
    2.9908   11.5119   -4.1178 H   0  0  0  0  0  0  0  0  0  0  0  0
    4.6210   10.3160   -2.3717 H   0  0  0  0  0  0  0  0  0  0  0  0
    5.4490    9.5069   -5.8471 H   0  0  0  0  0  0  0  0  0  0  0  0
    5.2662   11.2629   -6.1788 H   0  0  0  0  0  0  0  0  0  0  0  0
    6.8990   10.5140   -6.1788 H   0  0  0  0  0  0  0  0  0  0  0  0
    7.3055   10.5777   -2.5462 H   0  0  0  0  0  0  0  0  0  0  0  0
    7.7780    9.5885   -3.9692 H   0  0  0  0  0  0  0  0  0  0  0  0
    8.0731   11.3604   -3.9692 H   0  0  0  0  0  0  0  0  0  0  0  0
    0.3697   11.7644   -3.6518 H   0  0  0  0  0  0  0  0  0  0  0  0
   -1.7615   11.2310   -2.6475 H   0  0  0  0  0  0  0  0  0  0  0  0
   -1.0125   10.1692   -1.4360 H   0  0  0  0  0  0  0  0  0  0  0  0
   -1.9912   12.8107   -0.9518 H   0  0  0  0  0  0  0  0  0  0  0  0
   -0.9267   11.9358    0.1458 H   0  0  0  0  0  0  0  0  0  0  0  0
   -1.0114   14.9626   -2.0481 H   0  0  0  0  0  0  0  0  0  0  0  0
    0.3876   14.4884   -3.0701 H   0  0  0  0  0  0  0  0  0  0  0  0
   -1.1046   13.4883   -3.0701 H   0  0  0  0  0  0  0  0  0  0  0  0
    0.9079   13.4328    0.6630 H   0  0  0  0  0  0  0  0  0  0  0  0
   -1.3201   14.7020    0.4055 H   0  0  0  0  0  0  0  0  0  0  0  0
    0.0106   15.3273    1.5127 H   0  0  0  0  0  0  0  0  0  0  0  0
   -1.2351   17.1329    0.0522 H   0  0  0  0  0  0  0  0  0  0  0  0
    1.7470   15.8409   -2.3415 H   0  0  0  0  0  0  0  0  0  0  0  0
    3.1725   17.5021   -0.1728 H   0  0  0  0  0  0  0  0  0  0  0  0
    3.9505   16.6242   -1.5635 H   0  0  0  0  0  0  0  0  0  0  0  0
    3.7814   19.0587   -1.9702 H   0  0  0  0  0  0  0  0  0  0  0  0
    2.8261   18.0775   -3.1498 H   0  0  0  0  0  0  0  0  0  0  0  0
    1.5177   19.9770   -2.4897 H   0  0  0  0  0  0  0  0  0  0  0  0
    1.5780   20.6760   -0.4730 H   0  0  0  0  0  0  0  0  0  0  0  0
   -0.7537   17.1876   -3.2865 H   0  0  0  0  0  0  0  0  0  0  0  0
   -0.3583   18.8715   -3.7709 H   0  0  0  0  0  0  0  0  0  0  0  0
    0.9230   17.6126   -3.7709 H   0  0  0  0  0  0  0  0  0  0  0  0
   -0.8184   19.1766   -0.1640 H   0  0  0  0  0  0  0  0  0  0  0  0
   -0.7115   20.2120   -1.6280 H   0  0  0  0  0  0  0  0  0  0  0  0
   -1.7738   18.7636   -1.6280 H   0  0  0  0  0  0  0  0  0  0  0  0
    2.0972   14.8944    1.7072 H   0  0  0  0  0  0  0  0  0  0  0  0
    3.7057   14.6549    0.9442 H   0  0  0  0  0  0  0  0  0  0  0  0
    2.9449   16.2822    0.9442 H   0  0  0  0  0  0  0  0  0  0  0  0
    3.7646   14.5718   -1.7977 H   0  0  0  0  0  0  0  0  0  0  0  0
    3.4862   13.2772   -0.5016 H   0  0  0  0  0  0  0  0  0  0  0  0
    2.0628   13.5659   -3.1622 H   0  0  0  0  0  0  0  0  0  0  0  0
    3.1752   12.2507   -2.6143 H   0  0  0  0  0  0  0  0  0  0  0  0
    1.4966   11.7892    0.4403 H   0  0  0  0  0  0  0  0  0  0  0  0
    1.3454   10.3266   -0.5915 H   0  0  0  0  0  0  0  0  0  0  0  0
    2.8729   11.2718   -0.5915 H   0  0  0  0  0  0  0  0  0  0  0  0
  1  2  1  0
  2  3  1  0
  3  4  1  0
  4  5  1  0
  5  6  1  0
  6  7  1  0
  7  8  1  0
  7  9  1  0
  2 10  1  0
 10 11  1  0
 11 12  1  0
 12 13  1  0
 13 14  1  6
 13 15  1  0
 15 16  1  0
 16 17  1  0
 17 18  2  0
 18 19  1  0
 19 20  1  0
 20 21  1  0
 21 22  1  0
 22 23  1  0
 22 24  1  0
 24 25  1  0
 24 26  1  0
 19 27  1  0
 27 28  1  1
 27 29  1  0
 29 30  1  0
 30 31  1  0
 31 32  1  1
  7  5  1  0
 31 10  1  0
 31 13  1  0
 27 15  1  0
 24 18  1  0
  1 33  1  0
  1 34  1  0
  1 35  1  0
  2 36  1  6
  3 37  1  0
  3 38  1  0
  4 39  1  0
  4 40  1  0
  5 41  1  1
  8 42  1  0
  8 43  1  0
  8 44  1  0
  9 45  1  0
  9 46  1  0
  9 47  1  0
 10 48  1  6
 11 49  1  0
 11 50  1  0
 12 51  1  0
 12 52  1  0
 14 53  1  0
 14 54  1  0
 14 55  1  0
 15 56  1  1
 16 57  1  0
 16 58  1  0
 17 59  1  0
 19 60  1  6
 20 61  1  0
 20 62  1  0
 21 63  1  0
 21 64  1  0
 22 65  1  6
 23 66  1  0
 25 67  1  0
 25 68  1  0
 25 69  1  0
 26 70  1  0
 26 71  1  0
 26 72  1  0
 28 73  1  0
 28 74  1  0
 28 75  1  0
 29 76  1  0
 29 77  1  0
 30 78  1  0
 30 79  1  0
 32 80  1  0
 32 81  1  0
 32 82  1  0
M  END
>  <meeko>  (20) 
{"is_sidechain": [false], "intermolecular_energy": 2.731, "internal_energy": -0.839}

$$$$
