EPH_relaxed_0001_pdb2pqr_Repair_316_r2_0001_out
     RDKit          3D

 82 86  0  0  0  0  0  0  0  0999 V2000
    3.2420   17.3580   -2.8300 C   0  0  0  0  0  0  0  0  0  0  0  0
    1.8370   17.5180   -3.4160 C   0  0  2  0  0  0  0  0  0  0  0  0
    0.9570   18.4580   -2.5680 C   0  0  0  0  0  0  0  0  0  0  0  0
    0.8710   18.0570   -1.0930 C   0  0  0  0  0  0  0  0  0  0  0  0
    1.1760   19.2110   -0.1860 C   0  0  2  0  0  0  0  0  0  0  0  0
    2.3000   20.0050   -0.5850 O   0  0  0  0  0  0  0  0  0  0  0  0
    2.4320   19.3010    0.6600 C   0  0  0  0  0  0  0  0  0  0  0  0
    3.4650   18.2190    0.6410 C   0  0  0  0  0  0  0  0  0  0  0  0
    2.4220   20.1940    1.8610 C   0  0  0  0  0  0  0  0  0  0  0  0
    1.1690   16.1530   -3.5440 C   0  0  1  0  0  0  0  0  0  0  0  0
    0.8750   15.7670   -5.0180 C   0  0  0  0  0  0  0  0  0  0  0  0
    1.0690   14.2330   -5.1250 C   0  0  0  0  0  0  0  0  0  0  0  0
    1.1390   13.7450   -3.6590 C   0  0  1  0  0  0  0  0  0  0  0  0
   -0.3490   13.6520   -3.1960 C   0  0  0  0  0  0  0  0  0  0  0  0
    1.9050   12.4040   -3.4130 C   0  0  2  0  0  0  0  0  0  0  0  0
    1.2960   11.1690   -4.0990 C   0  0  0  0  0  0  0  0  0  0  0  0
    0.2930   10.4190   -3.2870 C   0  0  0  0  0  0  0  0  0  0  0  0
    0.1040   10.5510   -1.9610 C   0  0  0  0  0  0  0  0  0  0  0  0
    1.0120   11.4590   -1.1220 C   0  0  1  0  0  0  0  0  0  0  0  0
    1.4510   10.7090    0.1630 C   0  0  0  0  0  0  0  0  0  0  0  0
    0.2660   10.1720    0.9600 C   0  0  0  0  0  0  0  0  0  0  0  0
   -0.5800    9.2270    0.1110 C   0  0  2  0  0  0  0  0  0  0  0  0
    0.1880    8.0550   -0.1790 O   0  0  0  0  0  0  0  0  0  0  0  0
   -1.0710    9.8710   -1.2160 C   0  0  0  0  0  0  0  0  0  0  0  0
   -2.1390   10.9490   -0.9070 C   0  0  0  0  0  0  0  0  0  0  0  0
   -1.7910    8.7710   -2.0420 C   0  0  0  0  0  0  0  0  0  0  0  0
    2.2370   12.1170   -1.8930 C   0  0  1  0  0  0  0  0  0  0  0  0
    3.4570   11.1470   -1.8790 C   0  0  0  0  0  0  0  0  0  0  0  0
    2.6910   13.4140   -1.1240 C   0  0  0  0  0  0  0  0  0  0  0  0
    1.9790   14.7280   -1.4970 C   0  0  0  0  0  0  0  0  0  0  0  0
    1.9530   14.9260   -3.0150 C   0  0  2  0  0  0  0  0  0  0  0  0
    3.4350   15.0450   -3.5080 C   0  0  0  0  0  0  0  0  0  0  0  0
    3.1841   17.3646   -1.7315 H   0  0  0  0  0  0  0  0  0  0  0  0
    3.6742   16.4048   -3.1687 H   0  0  0  0  0  0  0  0  0  0  0  0
    3.8774   18.1896   -3.1687 H   0  0  0  0  0  0  0  0  0  0  0  0
    1.9435   17.9749   -4.4109 H   0  0  0  0  0  0  0  0  0  0  0  0
    1.3757   19.4734   -2.6279 H   0  0  0  0  0  0  0  0  0  0  0  0
   -0.0625   18.3993   -2.9768 H   0  0  0  0  0  0  0  0  0  0  0  0
   -0.1460   17.6957   -0.8805 H   0  0  0  0  0  0  0  0  0  0  0  0
    1.6160   17.2691   -0.9078 H   0  0  0  0  0  0  0  0  0  0  0  0
    0.1105   19.3292    0.0604 H   0  0  0  0  0  0  0  0  0  0  0  0
    3.7273   17.9443    1.6734 H   0  0  0  0  0  0  0  0  0  0  0  0
    3.0640   17.3384    0.1178 H   0  0  0  0  0  0  0  0  0  0  0  0
    4.3633   18.5788    0.1178 H   0  0  0  0  0  0  0  0  0  0  0  0
    2.4289   19.5806    2.7741 H   0  0  0  0  0  0  0  0  0  0  0  0
    3.3130   20.8389    1.8458 H   0  0  0  0  0  0  0  0  0  0  0  0
    1.5168   20.8188    1.8458 H   0  0  0  0  0  0  0  0  0  0  0  0
    0.2769   16.3253   -2.9240 H   0  0  0  0  0  0  0  0  0  0  0  0
   -0.1581   16.0376   -5.2817 H   0  0  0  0  0  0  0  0  0  0  0  0
    1.5467   16.2994   -5.7075 H   0  0  0  0  0  0  0  0  0  0  0  0
    0.2195   13.7698   -5.6483 H   0  0  0  0  0  0  0  0  0  0  0  0
    1.9697   13.9655   -5.6970 H   0  0  0  0  0  0  0  0  0  0  0  0
   -0.3915   13.6493   -2.0968 H   0  0  0  0  0  0  0  0  0  0  0  0
   -0.9080   14.5170   -3.5825 H   0  0  0  0  0  0  0  0  0  0  0  0
   -0.7960   12.7242   -3.5825 H   0  0  0  0  0  0  0  0  0  0  0  0
    2.8642   12.5838   -3.9205 H   0  0  0  0  0  0  0  0  0  0  0  0
    0.8035   11.5024   -5.0244 H   0  0  0  0  0  0  0  0  0  0  0  0
    2.1306   10.4733   -4.2704 H   0  0  0  0  0  0  0  0  0  0  0  0
   -0.3458    9.6973   -3.8172 H   0  0  0  0  0  0  0  0  0  0  0  0
    0.4018   12.3338   -0.8529 H   0  0  0  0  0  0  0  0  0  0  0  0
    2.0948    9.8645   -0.1240 H   0  0  0  0  0  0  0  0  0  0  0  0
    1.9861   11.4266    0.8024 H   0  0  0  0  0  0  0  0  0  0  0  0
    0.6408    9.6277    1.8394 H   0  0  0  0  0  0  0  0  0  0  0  0
   -0.3611   11.0206    1.2709 H   0  0  0  0  0  0  0  0  0  0  0  0
   -1.4804    8.9780    0.6918 H   0  0  0  0  0  0  0  0  0  0  0  0
    0.5570    8.1580   -1.0730 H   0  0  0  0  0  0  0  0  0  0  0  0
   -2.2462   11.0572    0.1824 H   0  0  0  0  0  0  0  0  0  0  0  0
   -1.8267   11.9099   -1.3420 H   0  0  0  0  0  0  0  0  0  0  0  0
   -3.1027   10.6456   -1.3420 H   0  0  0  0  0  0  0  0  0  0  0  0
   -2.2632    8.0496   -1.3589 H   0  0  0  0  0  0  0  0  0  0  0  0
   -2.5614    9.2339   -2.6761 H   0  0  0  0  0  0  0  0  0  0  0  0
   -1.0585    8.2502   -2.6761 H   0  0  0  0  0  0  0  0  0  0  0  0
    3.7367   10.9246   -0.8387 H   0  0  0  0  0  0  0  0  0  0  0  0
    3.1887   10.2129   -2.3942 H   0  0  0  0  0  0  0  0  0  0  0  0
    4.3066   11.6189   -2.3942 H   0  0  0  0  0  0  0  0  0  0  0  0
    2.5260   13.2393   -0.0506 H   0  0  0  0  0  0  0  0  0  0  0  0
    3.7423   13.5651   -1.4104 H   0  0  0  0  0  0  0  0  0  0  0  0
    0.9459   14.6968   -1.1205 H   0  0  0  0  0  0  0  0  0  0  0  0
    2.5292   15.5657   -1.0436 H   0  0  0  0  0  0  0  0  0  0  0  0
    4.1073   15.0990   -2.6390 H   0  0  0  0  0  0  0  0  0  0  0  0
    3.6911   14.1645   -4.1156 H   0  0  0  0  0  0  0  0  0  0  0  0
    3.5473   15.9551   -4.1156 H   0  0  0  0  0  0  0  0  0  0  0  0
  1  2  1  0
  2  3  1  0
  3  4  1  0
  4  5  1  0
  5  6  1  0
  6  7  1  0
  7  8  1  0
  7  9  1  0
  2 10  1  0
 10 11  1  0
 11 12  1  0
 12 13  1  0
 13 14  1  1
 13 15  1  0
 15 16  1  0
 16 17  1  0
 17 18  2  0
 18 19  1  0
 19 20  1  0
 20 21  1  0
 21 22  1  0
 22 23  1  0
 22 24  1  0
 24 25  1  0
 24 26  1  0
 19 27  1  0
 27 28  1  6
 27 29  1  0
 29 30  1  0
 30 31  1  0
 31 32  1  6
  7  5  1  0
 31 10  1  0
 31 13  1  0
 27 15  1  0
 24 18  1  0
  1 33  1  0
  1 34  1  0
  1 35  1  0
  2 36  1  6
  3 37  1  0
  3 38  1  0
  4 39  1  0
  4 40  1  0
  5 41  1  1
  8 42  1  0
  8 43  1  0
  8 44  1  0
  9 45  1  0
  9 46  1  0
  9 47  1  0
 10 48  1  1
 11 49  1  0
 11 50  1  0
 12 51  1  0
 12 52  1  0
 14 53  1  0
 14 54  1  0
 14 55  1  0
 15 56  1  6
 16 57  1  0
 16 58  1  0
 17 59  1  0
 19 60  1  1
 20 61  1  0
 20 62  1  0
 21 63  1  0
 21 64  1  0
 22 65  1  1
 23 66  1  0
 25 67  1  0
 25 68  1  0
 25 69  1  0
 26 70  1  0
 26 71  1  0
 26 72  1  0
 28 73  1  0
 28 74  1  0
 28 75  1  0
 29 76  1  0
 29 77  1  0
 30 78  1  0
 30 79  1  0
 32 80  1  0
 32 81  1  0
 32 82  1  0
M  END
>  <meeko>  (1) 
{"is_sidechain": [false], "intermolecular_energy": 2.731, "internal_energy": -0.839}

$$$$
EPH_relaxed_0001_pdb2pqr_Repair_316_r2_0001_out
     RDKit          3D

 82 86  0  0  0  0  0  0  0  0999 V2000
    3.8100   17.4430   -3.8110 C   0  0  0  0  0  0  0  0  0  0  0  0
    2.4860   17.4430   -3.0410 C   0  0  2  0  0  0  0  0  0  0  0  0
    2.6910   17.6830   -1.5320 C   0  0  0  0  0  0  0  0  0  0  0  0
    2.1120   19.0100   -1.0350 C   0  0  0  0  0  0  0  0  0  0  0  0
    0.8110   18.8130   -0.3170 C   0  0  2  0  0  0  0  0  0  0  0  0
    0.0240   17.7140   -0.7940 O   0  0  0  0  0  0  0  0  0  0  0  0
   -0.5430   19.0230   -0.9670 C   0  0  0  0  0  0  0  0  0  0  0  0
   -0.6650   19.4490   -2.3970 C   0  0  0  0  0  0  0  0  0  0  0  0
   -1.7260   19.2880   -0.0880 C   0  0  0  0  0  0  0  0  0  0  0  0
    1.7540   16.1250   -3.2640 C   0  0  1  0  0  0  0  0  0  0  0  0
    1.6040   15.7720   -4.7680 C   0  0  0  0  0  0  0  0  0  0  0  0
    1.7140   14.2300   -4.8790 C   0  0  0  0  0  0  0  0  0  0  0  0
    1.5900   13.7240   -3.4230 C   0  0  1  0  0  0  0  0  0  0  0  0
    0.0570   13.7200   -3.1280 C   0  0  0  0  0  0  0  0  0  0  0  0
    2.2410   12.3360   -3.1160 C   0  0  2  0  0  0  0  0  0  0  0  0
    1.6380   11.1480   -3.8850 C   0  0  0  0  0  0  0  0  0  0  0  0
    0.5070   10.4540   -3.2010 C   0  0  0  0  0  0  0  0  0  0  0  0
    0.1800   10.5840   -1.9020 C   0  0  0  0  0  0  0  0  0  0  0  0
    1.0430   11.4260   -0.9530 C   0  0  1  0  0  0  0  0  0  0  0  0
    1.2890   10.6370    0.3600 C   0  0  0  0  0  0  0  0  0  0  0  0
   -0.0080   10.1680    1.0120 C   0  0  0  0  0  0  0  0  0  0  0  0
   -0.8100    9.2860    0.0590 C   0  0  2  0  0  0  0  0  0  0  0  0
   -0.0880    8.0710   -0.1640 O   0  0  0  0  0  0  0  0  0  0  0  0
   -1.1110    9.9720   -1.3030 C   0  0  0  0  0  0  0  0  0  0  0  0
   -2.1390   11.1120   -1.0960 C   0  0  0  0  0  0  0  0  0  0  0  0
   -1.8000    8.9280   -2.2220 C   0  0  0  0  0  0  0  0  0  0  0  0
    2.3830   12.0140   -1.5730 C   0  0  1  0  0  0  0  0  0  0  0  0
    3.5330   10.9690   -1.4400 C   0  0  0  0  0  0  0  0  0  0  0  0
    2.8270   13.2720   -0.7370 C   0  0  0  0  0  0  0  0  0  0  0  0
    2.2430   14.6320   -1.1640 C   0  0  0  0  0  0  0  0  0  0  0  0
    2.3980   14.8460   -2.6730 C   0  0  2  0  0  0  0  0  0  0  0  0
    3.9310   14.8770   -2.9970 C   0  0  0  0  0  0  0  0  0  0  0  0
    4.1270   16.4059   -3.9953 H   0  0  0  0  0  0  0  0  0  0  0  0
    3.6754   17.9615   -4.7717 H   0  0  0  0  0  0  0  0  0  0  0  0
    4.5785   17.9615   -3.2189 H   0  0  0  0  0  0  0  0  0  0  0  0
    1.8793   18.2750   -3.4279 H   0  0  0  0  0  0  0  0  0  0  0  0
    2.2051   16.8642   -0.9811 H   0  0  0  0  0  0  0  0  0  0  0  0
    3.7764   17.7207   -1.3574 H   0  0  0  0  0  0  0  0  0  0  0  0
    2.8317   19.4775   -0.3469 H   0  0  0  0  0  0  0  0  0  0  0  0
    1.9276   19.6523   -1.9087 H   0  0  0  0  0  0  0  0  0  0  0  0
    1.2451   19.1888    0.6212 H   0  0  0  0  0  0  0  0  0  0  0  0
   -0.9676   20.5057   -2.4403 H   0  0  0  0  0  0  0  0  0  0  0  0
    0.3049   19.3244   -2.9007 H   0  0  0  0  0  0  0  0  0  0  0  0
   -1.4219   18.8299   -2.9007 H   0  0  0  0  0  0  0  0  0  0  0  0
   -1.4216   19.2198    0.9668 H   0  0  0  0  0  0  0  0  0  0  0  0
   -2.1164   20.2958   -0.2926 H   0  0  0  0  0  0  0  0  0  0  0  0
   -2.5090   18.5430   -0.2926 H   0  0  0  0  0  0  0  0  0  0  0  0
    0.8108   16.3471   -2.7434 H   0  0  0  0  0  0  0  0  0  0  0  0
    0.6256   16.1097   -5.1405 H   0  0  0  0  0  0  0  0  0  0  0  0
    2.3806   16.2675   -5.3691 H   0  0  0  0  0  0  0  0  0  0  0  0
    0.9013   13.8265   -5.5008 H   0  0  0  0  0  0  0  0  0  0  0  0
    2.6546   13.9120   -5.3523 H   0  0  0  0  0  0  0  0  0  0  0  0
   -0.1071   13.7196   -2.0403 H   0  0  0  0  0  0  0  0  0  0  0  0
   -0.4034   14.6169   -3.5679 H   0  0  0  0  0  0  0  0  0  0  0  0
   -0.3987   12.8207   -3.5679 H   0  0  0  0  0  0  0  0  0  0  0  0
    3.2600   12.4608   -3.5112 H   0  0  0  0  0  0  0  0  0  0  0  0
    1.2726   11.5202   -4.8535 H   0  0  0  0  0  0  0  0  0  0  0  0
    2.4426   10.4033   -3.9745 H   0  0  0  0  0  0  0  0  0  0  0  0
   -0.1117    9.7790   -3.8106 H   0  0  0  0  0  0  0  0  0  0  0  0
    0.4620   12.3351   -0.7383 H   0  0  0  0  0  0  0  0  0  0  0  0
    1.9075    9.7564    0.1317 H   0  0  0  0  0  0  0  0  0  0  0  0
    1.7926   11.3131    1.0666 H   0  0  0  0  0  0  0  0  0  0  0  0
    0.2322    9.5930    1.9185 H   0  0  0  0  0  0  0  0  0  0  0  0
   -0.6127   11.0512    1.2656 H   0  0  0  0  0  0  0  0  0  0  0  0
   -1.7827    9.0882    0.5331 H   0  0  0  0  0  0  0  0  0  0  0  0
   -0.7350    7.3820   -0.3920 H   0  0  0  0  0  0  0  0  0  0  0  0
   -2.2895   11.2789   -0.0192 H   0  0  0  0  0  0  0  0  0  0  0  0
   -1.7618   12.0348   -1.5609 H   0  0  0  0  0  0  0  0  0  0  0  0
   -3.0958   10.8319   -1.5609 H   0  0  0  0  0  0  0  0  0  0  0  0
   -2.3010    8.1689   -1.6033 H   0  0  0  0  0  0  0  0  0  0  0  0
   -2.5433    9.4323   -2.8570 H   0  0  0  0  0  0  0  0  0  0  0  0
   -1.0440    8.4429   -2.8570 H   0  0  0  0  0  0  0  0  0  0  0  0
    3.7379   10.7828   -0.3754 H   0  0  0  0  0  0  0  0  0  0  0  0
    3.2321   10.0289   -1.9254 H   0  0  0  0  0  0  0  0  0  0  0  0
    4.4401   11.3583   -1.9254 H   0  0  0  0  0  0  0  0  0  0  0  0
    2.5330   13.0973    0.3085 H   0  0  0  0  0  0  0  0  0  0  0  0
    3.9109   13.3596   -0.9031 H   0  0  0  0  0  0  0  0  0  0  0  0
    1.1746   14.6623   -0.9041 H   0  0  0  0  0  0  0  0  0  0  0  0
    2.7898   15.4289   -0.6388 H   0  0  0  0  0  0  0  0  0  0  0  0
    4.5040   14.8886   -2.0581 H   0  0  0  0  0  0  0  0  0  0  0  0
    4.2006   13.9841   -3.5801 H   0  0  0  0  0  0  0  0  0  0  0  0
    4.1643   15.7800   -3.5801 H   0  0  0  0  0  0  0  0  0  0  0  0
  1  2  1  0
  2  3  1  0
  3  4  1  0
  4  5  1  0
  5  6  1  0
  6  7  1  0
  7  8  1  0
  7  9  1  0
  2 10  1  0
 10 11  1  0
 11 12  1  0
 12 13  1  0
 13 14  1  1
 13 15  1  0
 15 16  1  0
 16 17  1  0
 17 18  2  0
 18 19  1  0
 19 20  1  0
 20 21  1  0
 21 22  1  0
 22 23  1  0
 22 24  1  0
 24 25  1  0
 24 26  1  0
 19 27  1  0
 27 28  1  6
 27 29  1  0
 29 30  1  0
 30 31  1  0
 31 32  1  1
  7  5  1  0
 31 10  1  0
 31 13  1  0
 27 15  1  0
 24 18  1  0
  1 33  1  0
  1 34  1  0
  1 35  1  0
  2 36  1  6
  3 37  1  0
  3 38  1  0
  4 39  1  0
  4 40  1  0
  5 41  1  1
  8 42  1  0
  8 43  1  0
  8 44  1  0
  9 45  1  0
  9 46  1  0
  9 47  1  0
 10 48  1  1
 11 49  1  0
 11 50  1  0
 12 51  1  0
 12 52  1  0
 14 53  1  0
 14 54  1  0
 14 55  1  0
 15 56  1  6
 16 57  1  0
 16 58  1  0
 17 59  1  0
 19 60  1  1
 20 61  1  0
 20 62  1  0
 21 63  1  0
 21 64  1  0
 22 65  1  1
 23 66  1  0
 25 67  1  0
 25 68  1  0
 25 69  1  0
 26 70  1  0
 26 71  1  0
 26 72  1  0
 28 73  1  0
 28 74  1  0
 28 75  1  0
 29 76  1  0
 29 77  1  0
 30 78  1  0
 30 79  1  0
 32 80  1  0
 32 81  1  0
 32 82  1  0
M  END
>  <meeko>  (2) 
{"is_sidechain": [false], "intermolecular_energy": 2.731, "internal_energy": -0.839}

$$$$
EPH_relaxed_0001_pdb2pqr_Repair_316_r2_0001_out
     RDKit          3D

 82 86  0  0  0  0  0  0  0  0999 V2000
    2.4380   20.1890   -0.1930 C   0  0  0  0  0  0  0  0  0  0  0  0
    2.4370   18.9800    0.7470 C   0  0  2  0  0  0  0  0  0  0  0  0
    3.8450   18.6670    1.2920 C   0  0  0  0  0  0  0  0  0  0  0  0
    4.3660   19.7100    2.2850 C   0  0  0  0  0  0  0  0  0  0  0  0
    5.5400   19.1960    3.0630 C   0  0  2  0  0  0  0  0  0  0  0  0
    5.3390   17.9150    3.6740 O   0  0  0  0  0  0  0  0  0  0  0  0
    5.5330   19.0220    4.5700 C   0  0  0  0  0  0  0  0  0  0  0  0
    4.3270   19.3600    5.3890 C   0  0  0  0  0  0  0  0  0  0  0  0
    6.8430   18.9890    5.2930 C   0  0  0  0  0  0  0  0  0  0  0  0
    1.8760   17.7610    0.0250 C   0  0  1  0  0  0  0  0  0  0  0  0
    0.3530   17.8790   -0.2510 C   0  0  0  0  0  0  0  0  0  0  0  0
    0.0900   17.1830   -1.6110 C   0  0  0  0  0  0  0  0  0  0  0  0
    1.3930   16.4060   -1.9110 C   0  0  1  0  0  0  0  0  0  0  0  0
    1.2780   15.0930   -1.0740 C   0  0  0  0  0  0  0  0  0  0  0  0
    1.6890   16.1070   -3.4170 C   0  0  2  0  0  0  0  0  0  0  0  0
    0.6520   15.2130   -4.1200 C   0  0  0  0  0  0  0  0  0  0  0  0
    0.9320   13.7480   -4.0650 C   0  0  0  0  0  0  0  0  0  0  0  0
    2.1080   13.1880   -3.7260 C   0  0  0  0  0  0  0  0  0  0  0  0
    3.3420   14.0560   -3.4460 C   0  0  1  0  0  0  0  0  0  0  0  0
    4.5690   13.4650   -4.1890 C   0  0  0  0  0  0  0  0  0  0  0  0
    4.8020   11.9950   -3.8570 C   0  0  0  0  0  0  0  0  0  0  0  0
    3.5740   11.1560   -4.2030 C   0  0  2  0  0  0  0  0  0  0  0  0
    3.4020   11.1550   -5.6230 O   0  0  0  0  0  0  0  0  0  0  0  0
    2.2740   11.6620   -3.5190 C   0  0  0  0  0  0  0  0  0  0  0  0
    2.3430   11.3830   -1.9970 C   0  0  0  0  0  0  0  0  0  0  0  0
    1.0890   10.8180   -4.0610 C   0  0  0  0  0  0  0  0  0  0  0  0
    3.1650   15.6140   -3.7020 C   0  0  1  0  0  0  0  0  0  0  0  0
    3.4650   15.9460   -5.1960 C   0  0  0  0  0  0  0  0  0  0  0  0
    4.2330   16.3990   -2.8500 C   0  0  0  0  0  0  0  0  0  0  0  0
    3.8350   16.7700   -1.4090 C   0  0  0  0  0  0  0  0  0  0  0  0
    2.4550   17.4330   -1.3740 C   0  0  2  0  0  0  0  0  0  0  0  0
    2.5460   18.7680   -2.1890 C   0  0  0  0  0  0  0  0  0  0  0  0
    2.4388   21.1150    0.4007 H   0  0  0  0  0  0  0  0  0  0  0  0
    3.3361   20.1594   -0.8274 H   0  0  0  0  0  0  0  0  0  0  0  0
    1.5398   20.1609   -0.8274 H   0  0  0  0  0  0  0  0  0  0  0  0
    1.7980   19.2300    1.6067 H   0  0  0  0  0  0  0  0  0  0  0  0
    3.8125   17.6910    1.7984 H   0  0  0  0  0  0  0  0  0  0  0  0
    4.5310   18.6706    0.4321 H   0  0  0  0  0  0  0  0  0  0  0  0
    4.6720   20.6091    1.7301 H   0  0  0  0  0  0  0  0  0  0  0  0
    3.5584   19.9413    2.9951 H   0  0  0  0  0  0  0  0  0  0  0  0
    6.2418   19.6994    2.3818 H   0  0  0  0  0  0  0  0  0  0  0  0
    4.5780   19.2896    6.4577 H   0  0  0  0  0  0  0  0  0  0  0  0
    4.0006   20.3842    5.1557 H   0  0  0  0  0  0  0  0  0  0  0  0
    3.5159   18.6546    5.1557 H   0  0  0  0  0  0  0  0  0  0  0  0
    6.6631   18.9935    6.3782 H   0  0  0  0  0  0  0  0  0  0  0  0
    7.3917   18.0767    5.0161 H   0  0  0  0  0  0  0  0  0  0  0  0
    7.4370   19.8725    5.0161 H   0  0  0  0  0  0  0  0  0  0  0  0
    2.1586   16.9762    0.7421 H   0  0  0  0  0  0  0  0  0  0  0  0
   -0.2164   17.3794    0.5466 H   0  0  0  0  0  0  0  0  0  0  0  0
    0.0369   18.9322   -0.2786 H   0  0  0  0  0  0  0  0  0  0  0  0
   -0.7642   16.4940   -1.5357 H   0  0  0  0  0  0  0  0  0  0  0  0
   -0.1591   17.9016   -2.4057 H   0  0  0  0  0  0  0  0  0  0  0  0
    1.2995   15.3385   -0.0020 H   0  0  0  0  0  0  0  0  0  0  0  0
    0.3320   14.5861   -1.3152 H   0  0  0  0  0  0  0  0  0  0  0  0
    2.1215   14.4294   -1.3152 H   0  0  0  0  0  0  0  0  0  0  0  0
    1.5900   17.1003   -3.8791 H   0  0  0  0  0  0  0  0  0  0  0  0
   -0.3255   15.3902   -3.6477 H   0  0  0  0  0  0  0  0  0  0  0  0
    0.6835   15.4892   -5.1843 H   0  0  0  0  0  0  0  0  0  0  0  0
    0.1069   13.0680   -4.3236 H   0  0  0  0  0  0  0  0  0  0  0  0
    3.5067   14.0111   -2.3593 H   0  0  0  0  0  0  0  0  0  0  0  0
    4.4043   13.5599   -5.2725 H   0  0  0  0  0  0  0  0  0  0  0  0
    5.4578   14.0255   -3.8637 H   0  0  0  0  0  0  0  0  0  0  0  0
    5.6632   11.6277   -4.4344 H   0  0  0  0  0  0  0  0  0  0  0  0
    4.9958   11.9053   -2.7779 H   0  0  0  0  0  0  0  0  0  0  0  0
    3.7517   10.1388   -3.8239 H   0  0  0  0  0  0  0  0  0  0  0  0
    3.5040   12.0710   -5.9320 H   0  0  0  0  0  0  0  0  0  0  0  0
    2.1147   12.3062   -1.4443 H   0  0  0  0  0  0  0  0  0  0  0  0
    1.6098   10.6067   -1.7329 H   0  0  0  0  0  0  0  0  0  0  0  0
    3.3535   11.0379   -1.7329 H   0  0  0  0  0  0  0  0  0  0  0  0
    0.5142   10.4086   -3.2172 H   0  0  0  0  0  0  0  0  0  0  0  0
    0.4355   11.4552   -4.6749 H   0  0  0  0  0  0  0  0  0  0  0  0
    1.4776    9.9921   -4.6749 H   0  0  0  0  0  0  0  0  0  0  0  0
    4.2016   16.7612   -5.2497 H   0  0  0  0  0  0  0  0  0  0  0  0
    3.8689   15.0533   -5.6960 H   0  0  0  0  0  0  0  0  0  0  0  0
    2.5361   16.2576   -5.6960 H   0  0  0  0  0  0  0  0  0  0  0  0
    5.1382   15.7764   -2.7954 H   0  0  0  0  0  0  0  0  0  0  0  0
    4.3652   17.3600   -3.3687 H   0  0  0  0  0  0  0  0  0  0  0  0
    3.8110   15.8569   -0.7961 H   0  0  0  0  0  0  0  0  0  0  0  0
    4.5753   17.4807   -1.0130 H   0  0  0  0  0  0  0  0  0  0  0  0
    2.6040   19.6187   -1.4940 H   0  0  0  0  0  0  0  0  0  0  0  0
    3.4450   18.7502   -2.8226 H   0  0  0  0  0  0  0  0  0  0  0  0
    1.6529   18.8724   -2.8226 H   0  0  0  0  0  0  0  0  0  0  0  0
  1  2  1  0
  2  3  1  0
  3  4  1  0
  4  5  1  0
  5  6  1  0
  6  7  1  0
  7  8  1  0
  7  9  1  0
  2 10  1  0
 10 11  1  0
 11 12  1  0
 12 13  1  0
 13 14  1  1
 13 15  1  0
 15 16  1  0
 16 17  1  0
 17 18  2  0
 18 19  1  0
 19 20  1  0
 20 21  1  0
 21 22  1  0
 22 23  1  0
 22 24  1  0
 24 25  1  0
 24 26  1  0
 19 27  1  0
 27 28  1  6
 27 29  1  0
 29 30  1  0
 30 31  1  0
 31 32  1  6
  7  5  1  0
 31 10  1  0
 31 13  1  0
 27 15  1  0
 24 18  1  0
  1 33  1  0
  1 34  1  0
  1 35  1  0
  2 36  1  1
  3 37  1  0
  3 38  1  0
  4 39  1  0
  4 40  1  0
  5 41  1  6
  8 42  1  0
  8 43  1  0
  8 44  1  0
  9 45  1  0
  9 46  1  0
  9 47  1  0
 10 48  1  1
 11 49  1  0
 11 50  1  0
 12 51  1  0
 12 52  1  0
 14 53  1  0
 14 54  1  0
 14 55  1  0
 15 56  1  6
 16 57  1  0
 16 58  1  0
 17 59  1  0
 19 60  1  1
 20 61  1  0
 20 62  1  0
 21 63  1  0
 21 64  1  0
 22 65  1  1
 23 66  1  0
 25 67  1  0
 25 68  1  0
 25 69  1  0
 26 70  1  0
 26 71  1  0
 26 72  1  0
 28 73  1  0
 28 74  1  0
 28 75  1  0
 29 76  1  0
 29 77  1  0
 30 78  1  0
 30 79  1  0
 32 80  1  0
 32 81  1  0
 32 82  1  0
M  END
>  <meeko>  (3) 
{"is_sidechain": [false], "intermolecular_energy": 2.731, "internal_energy": -0.839}

$$$$
EPH_relaxed_0001_pdb2pqr_Repair_316_r2_0001_out
     RDKit          3D

 82 86  0  0  0  0  0  0  0  0999 V2000
    5.1630   15.6680   -4.5760 C   0  0  0  0  0  0  0  0  0  0  0  0
    4.2120   14.8770   -5.4780 C   0  0  2  0  0  0  0  0  0  0  0  0
    2.9680   15.6980   -5.8720 C   0  0  0  0  0  0  0  0  0  0  0  0
    1.9990   14.9450   -6.7880 C   0  0  0  0  0  0  0  0  0  0  0  0
    2.3200   15.1660   -8.2350 C   0  0  2  0  0  0  0  0  0  0  0  0
    2.3120   16.5390   -8.6470 O   0  0  0  0  0  0  0  0  0  0  0  0
    1.3160   15.6930   -9.2440 C   0  0  0  0  0  0  0  0  0  0  0  0
   -0.0870   16.0290   -8.8460 C   0  0  0  0  0  0  0  0  0  0  0  0
    1.5510   15.4180  -10.6970 C   0  0  0  0  0  0  0  0  0  0  0  0
    3.7880   13.5880   -4.7830 C   0  0  1  0  0  0  0  0  0  0  0  0
    4.9810   12.6340   -4.5140 C   0  0  0  0  0  0  0  0  0  0  0  0
    4.6890   11.9200   -3.1690 C   0  0  0  0  0  0  0  0  0  0  0  0
    3.2030   12.2320   -2.8770 C   0  0  1  0  0  0  0  0  0  0  0  0
    2.4010   11.2070   -3.7390 C   0  0  0  0  0  0  0  0  0  0  0  0
    2.7690   12.1870   -1.3750 C   0  0  2  0  0  0  0  0  0  0  0  0
    2.9150   10.8140   -0.6950 C   0  0  0  0  0  0  0  0  0  0  0  0
    1.7140    9.9320   -0.7770 C   0  0  0  0  0  0  0  0  0  0  0  0
    0.4740   10.3280   -1.1200 C   0  0  0  0  0  0  0  0  0  0  0  0
    0.1620   11.8080   -1.3750 C   0  0  1  0  0  0  0  0  0  0  0  0
   -1.1450   12.1970   -0.6360 C   0  0  0  0  0  0  0  0  0  0  0  0
   -2.3140   11.2850   -0.9960 C   0  0  0  0  0  0  0  0  0  0  0  0
   -1.9880    9.8290   -0.6730 C   0  0  2  0  0  0  0  0  0  0  0  0
   -1.8750    9.6850    0.7460 O   0  0  0  0  0  0  0  0  0  0  0  0
   -0.6840    9.3270   -1.3550 C   0  0  0  0  0  0  0  0  0  0  0  0
   -0.9120    9.1970   -2.8820 C   0  0  0  0  0  0  0  0  0  0  0  0
   -0.3950    7.8930   -0.8360 C   0  0  0  0  0  0  0  0  0  0  0  0
    1.3500   12.8260   -1.0910 C   0  0  1  0  0  0  0  0  0  0  0  0
    1.3430   13.2450    0.4110 C   0  0  0  0  0  0  0  0  0  0  0  0
    1.1090   14.1420   -1.9210 C   0  0  0  0  0  0  0  0  0  0  0  0
    1.6650   14.1690   -3.3570 C   0  0  0  0  0  0  0  0  0  0  0  0
    3.1280   13.7170   -3.3870 C   0  0  2  0  0  0  0  0  0  0  0  0
    3.9630   14.7420   -2.5460 C   0  0  0  0  0  0  0  0  0  0  0  0
    4.9210   15.4667   -3.5220 H   0  0  0  0  0  0  0  0  0  0  0  0
    6.2000   15.3623   -4.7789 H   0  0  0  0  0  0  0  0  0  0  0  0
    5.0513   16.7433   -4.7789 H   0  0  0  0  0  0  0  0  0  0  0  0
    4.7559   14.6381   -6.4038 H   0  0  0  0  0  0  0  0  0  0  0  0
    2.4313   15.9779   -4.9535 H   0  0  0  0  0  0  0  0  0  0  0  0
    3.3253   16.5744   -6.4326 H   0  0  0  0  0  0  0  0  0  0  0  0
    2.0642   13.8691   -6.5686 H   0  0  0  0  0  0  0  0  0  0  0  0
    0.9839   15.3246   -6.5999 H   0  0  0  0  0  0  0  0  0  0  0  0
    2.9863   14.2908   -8.2451 H   0  0  0  0  0  0  0  0  0  0  0  0
   -0.1625   16.0471   -7.7487 H   0  0  0  0  0  0  0  0  0  0  0  0
   -0.3557   17.0169   -9.2484 H   0  0  0  0  0  0  0  0  0  0  0  0
   -0.7740   15.2700   -9.2484 H   0  0  0  0  0  0  0  0  0  0  0  0
    2.2623   14.5856  -10.8023 H   0  0  0  0  0  0  0  0  0  0  0  0
    0.5989   15.1497  -11.1781 H   0  0  0  0  0  0  0  0  0  0  0  0
    1.9644   16.3167  -11.1781 H   0  0  0  0  0  0  0  0  0  0  0  0
    3.0540   13.2174   -5.5137 H   0  0  0  0  0  0  0  0  0  0  0  0
    5.0653   11.8951   -5.3245 H   0  0  0  0  0  0  0  0  0  0  0  0
    5.9288   13.1904   -4.4679 H   0  0  0  0  0  0  0  0  0  0  0  0
    4.8470   10.8354   -3.2627 H   0  0  0  0  0  0  0  0  0  0  0  0
    5.3537   12.2620   -2.3620 H   0  0  0  0  0  0  0  0  0  0  0  0
    1.8597   10.5152   -3.0768 H   0  0  0  0  0  0  0  0  0  0  0  0
    1.6817   11.7452   -4.3738 H   0  0  0  0  0  0  0  0  0  0  0  0
    3.0964   10.6383   -4.3738 H   0  0  0  0  0  0  0  0  0  0  0  0
    3.5133   12.8387   -0.8941 H   0  0  0  0  0  0  0  0  0  0  0  0
    3.7565   10.2875   -1.1690 H   0  0  0  0  0  0  0  0  0  0  0  0
    3.0702   11.0187    0.3746 H   0  0  0  0  0  0  0  0  0  0  0  0
    1.8539    8.8677   -0.5367 H   0  0  0  0  0  0  0  0  0  0  0  0
    0.0193   11.9057   -2.4613 H   0  0  0  0  0  0  0  0  0  0  0  0
   -0.9693   12.1339    0.4480 H   0  0  0  0  0  0  0  0  0  0  0  0
   -1.4114   13.2188   -0.9440 H   0  0  0  0  0  0  0  0  0  0  0  0
   -3.2004   11.5917   -0.4214 H   0  0  0  0  0  0  0  0  0  0  0  0
   -2.5075   11.3709   -2.0754 H   0  0  0  0  0  0  0  0  0  0  0  0
   -2.8073    9.2120   -1.0705 H   0  0  0  0  0  0  0  0  0  0  0  0
   -1.0650   10.1460    1.0250 H   0  0  0  0  0  0  0  0  0  0  0  0
   -1.8539    8.6600   -3.0677 H   0  0  0  0  0  0  0  0  0  0  0  0
   -0.9669   10.1996   -3.3312 H   0  0  0  0  0  0  0  0  0  0  0  0
   -0.0771    8.6391   -3.3312 H   0  0  0  0  0  0  0  0  0  0  0  0
   -0.3952    7.8942    0.2640 H   0  0  0  0  0  0  0  0  0  0  0  0
   -1.1729    7.2068   -1.2021 H   0  0  0  0  0  0  0  0  0  0  0  0
    0.5880    7.5617   -1.2021 H   0  0  0  0  0  0  0  0  0  0  0  0
    1.3580   12.3447    1.0429 H   0  0  0  0  0  0  0  0  0  0  0  0
    2.2310   13.8579    0.6248 H   0  0  0  0  0  0  0  0  0  0  0  0
    0.4350   13.8279    0.6248 H   0  0  0  0  0  0  0  0  0  0  0  0
    0.0225   14.3028   -1.9818 H   0  0  0  0  0  0  0  0  0  0  0  0
    1.6618   14.9265   -1.3835 H   0  0  0  0  0  0  0  0  0  0  0  0
    1.0669   13.4943   -3.9872 H   0  0  0  0  0  0  0  0  0  0  0  0
    1.6087   15.2003   -3.7356 H   0  0  0  0  0  0  0  0  0  0  0  0
    3.8068   14.5503   -1.4742 H   0  0  0  0  0  0  0  0  0  0  0  0
    5.0305   14.6304   -2.7867 H   0  0  0  0  0  0  0  0  0  0  0  0
    3.6378   15.7649   -2.7867 H   0  0  0  0  0  0  0  0  0  0  0  0
  1  2  1  0
  2  3  1  0
  3  4  1  0
  4  5  1  0
  5  6  1  0
  6  7  1  0
  7  8  1  0
  7  9  1  0
  2 10  1  0
 10 11  1  0
 11 12  1  0
 12 13  1  0
 13 14  1  6
 13 15  1  0
 15 16  1  0
 16 17  1  0
 17 18  2  0
 18 19  1  0
 19 20  1  0
 20 21  1  0
 21 22  1  0
 22 23  1  0
 22 24  1  0
 24 25  1  0
 24 26  1  0
 19 27  1  0
 27 28  1  1
 27 29  1  0
 29 30  1  0
 30 31  1  0
 31 32  1  1
  7  5  1  0
 31 10  1  0
 31 13  1  0
 27 15  1  0
 24 18  1  0
  1 33  1  0
  1 34  1  0
  1 35  1  0
  2 36  1  6
  3 37  1  0
  3 38  1  0
  4 39  1  0
  4 40  1  0
  5 41  1  6
  8 42  1  0
  8 43  1  0
  8 44  1  0
  9 45  1  0
  9 46  1  0
  9 47  1  0
 10 48  1  6
 11 49  1  0
 11 50  1  0
 12 51  1  0
 12 52  1  0
 14 53  1  0
 14 54  1  0
 14 55  1  0
 15 56  1  1
 16 57  1  0
 16 58  1  0
 17 59  1  0
 19 60  1  6
 20 61  1  0
 20 62  1  0
 21 63  1  0
 21 64  1  0
 22 65  1  6
 23 66  1  0
 25 67  1  0
 25 68  1  0
 25 69  1  0
 26 70  1  0
 26 71  1  0
 26 72  1  0
 28 73  1  0
 28 74  1  0
 28 75  1  0
 29 76  1  0
 29 77  1  0
 30 78  1  0
 30 79  1  0
 32 80  1  0
 32 81  1  0
 32 82  1  0
M  END
>  <meeko>  (4) 
{"is_sidechain": [false], "intermolecular_energy": 2.731, "internal_energy": -0.839}

$$$$
EPH_relaxed_0001_pdb2pqr_Repair_316_r2_0001_out
     RDKit          3D

 82 86  0  0  0  0  0  0  0  0999 V2000
    5.0260   17.1610   -2.7640 C   0  0  0  0  0  0  0  0  0  0  0  0
    3.8600   17.8810   -2.0830 C   0  0  2  0  0  0  0  0  0  0  0  0
    4.2650   18.4870   -0.7240 C   0  0  0  0  0  0  0  0  0  0  0  0
    3.5080   17.8910    0.4660 C   0  0  0  0  0  0  0  0  0  0  0  0
    3.1120   18.9450    1.4550 C   0  0  2  0  0  0  0  0  0  0  0  0
    3.8110   20.1890    1.3160 O   0  0  0  0  0  0  0  0  0  0  0  0
    4.0380   19.4670    2.5380 C   0  0  0  0  0  0  0  0  0  0  0  0
    5.4330   18.9480    2.6870 C   0  0  0  0  0  0  0  0  0  0  0  0
    3.4340   20.1170    3.7430 C   0  0  0  0  0  0  0  0  0  0  0  0
    2.6920   16.9190   -1.8970 C   0  0  1  0  0  0  0  0  0  0  0  0
    1.3380   17.5280   -2.3470 C   0  0  0  0  0  0  0  0  0  0  0  0
    0.5040   16.3680   -2.9490 C   0  0  0  0  0  0  0  0  0  0  0  0
    1.2580   15.0860   -2.5270 C   0  0  1  0  0  0  0  0  0  0  0  0
    0.8040   14.8180   -1.0580 C   0  0  0  0  0  0  0  0  0  0  0  0
    1.0470   13.8300   -3.4350 C   0  0  2  0  0  0  0  0  0  0  0  0
   -0.3980   13.3060   -3.4980 C   0  0  0  0  0  0  0  0  0  0  0  0
   -0.7490   12.2780   -2.4750 C   0  0  0  0  0  0  0  0  0  0  0  0
    0.1310   11.5860   -1.7270 C   0  0  0  0  0  0  0  0  0  0  0  0
    1.6420   11.7400   -1.9450 C   0  0  1  0  0  0  0  0  0  0  0  0
    2.3050   10.3380   -1.9870 C   0  0  0  0  0  0  0  0  0  0  0  0
    1.9750    9.4980   -0.7570 C   0  0  0  0  0  0  0  0  0  0  0  0
    0.4670    9.3180   -0.6070 C   0  0  2  0  0  0  0  0  0  0  0  0
   -0.0130    8.5220   -1.6950 O   0  0  0  0  0  0  0  0  0  0  0  0
   -0.3090   10.6640   -0.5630 C   0  0  0  0  0  0  0  0  0  0  0  0
   -0.0140   11.3920    0.7720 C   0  0  0  0  0  0  0  0  0  0  0  0
   -1.8280   10.3400   -0.5530 C   0  0  0  0  0  0  0  0  0  0  0  0
    2.0760   12.6570   -3.1680 C   0  0  1  0  0  0  0  0  0  0  0  0
    2.1330   11.8090   -4.4750 C   0  0  0  0  0  0  0  0  0  0  0  0
    3.5370   13.1880   -2.9190 C   0  0  0  0  0  0  0  0  0  0  0  0
    3.6740   14.4970   -2.1180 C   0  0  0  0  0  0  0  0  0  0  0  0
    2.7430   15.5800   -2.6740 C   0  0  2  0  0  0  0  0  0  0  0  0
    3.1900   15.8860   -4.1440 C   0  0  0  0  0  0  0  0  0  0  0  0
    5.6981   16.7460   -1.9984 H   0  0  0  0  0  0  0  0  0  0  0  0
    4.6372   16.3455   -3.3915 H   0  0  0  0  0  0  0  0  0  0  0  0
    5.5809   17.8739   -3.3915 H   0  0  0  0  0  0  0  0  0  0  0  0
    3.5570   18.7116   -2.7374 H   0  0  0  0  0  0  0  0  0  0  0  0
    5.3407   18.3137   -0.5733 H   0  0  0  0  0  0  0  0  0  0  0  0
    4.0134   19.5572   -0.7616 H   0  0  0  0  0  0  0  0  0  0  0  0
    2.6011   17.3898    0.0968 H   0  0  0  0  0  0  0  0  0  0  0  0
    4.1738   17.1774    0.9734 H   0  0  0  0  0  0  0  0  0  0  0  0
    2.0819   18.5605    1.4877 H   0  0  0  0  0  0  0  0  0  0  0  0
    5.6781   18.8568    3.7555 H   0  0  0  0  0  0  0  0  0  0  0  0
    5.5102   17.9610    2.2076 H   0  0  0  0  0  0  0  0  0  0  0  0
    6.1365   19.6445    2.2076 H   0  0  0  0  0  0  0  0  0  0  0  0
    3.8545   19.6645    4.6532 H   0  0  0  0  0  0  0  0  0  0  0  0
    3.6597   21.1935    3.7308 H   0  0  0  0  0  0  0  0  0  0  0  0
    2.3438   19.9708    3.7308 H   0  0  0  0  0  0  0  0  0  0  0  0
    2.7792   16.7309   -0.8167 H   0  0  0  0  0  0  0  0  0  0  0  0
    0.8132   17.9638   -1.4841 H   0  0  0  0  0  0  0  0  0  0  0  0
    1.4910   18.3290   -3.0852 H   0  0  0  0  0  0  0  0  0  0  0  0
   -0.5170   16.3706   -2.5397 H   0  0  0  0  0  0  0  0  0  0  0  0
    0.4010   16.4511   -4.0410 H   0  0  0  0  0  0  0  0  0  0  0  0
    1.5379   15.2513   -0.3626 H   0  0  0  0  0  0  0  0  0  0  0  0
   -0.1795   15.2804   -0.8880 H   0  0  0  0  0  0  0  0  0  0  0  0
    0.7336   13.7335   -0.8880 H   0  0  0  0  0  0  0  0  0  0  0  0
    1.2657   14.2246   -4.4382 H   0  0  0  0  0  0  0  0  0  0  0  0
   -1.0759   14.1621   -3.3659 H   0  0  0  0  0  0  0  0  0  0  0  0
   -0.4992   12.8100   -4.4746 H   0  0  0  0  0  0  0  0  0  0  0  0
   -1.8173   12.0677   -2.3187 H   0  0  0  0  0  0  0  0  0  0  0  0
    2.0180   12.3047   -1.0791 H   0  0  0  0  0  0  0  0  0  0  0  0
    1.9501    9.8067   -2.8824 H   0  0  0  0  0  0  0  0  0  0  0  0
    3.3950   10.4845   -2.0088 H   0  0  0  0  0  0  0  0  0  0  0  0
    2.4470    8.5097   -0.8590 H   0  0  0  0  0  0  0  0  0  0  0  0
    2.3567   10.0168    0.1347 H   0  0  0  0  0  0  0  0  0  0  0  0
    0.2887    8.8210    0.3580 H   0  0  0  0  0  0  0  0  0  0  0  0
   -0.7450    9.0050   -2.1130 H   0  0  0  0  0  0  0  0  0  0  0  0
   -0.2799   10.7359    1.6139 H   0  0  0  0  0  0  0  0  0  0  0  0
    1.0561   11.6412    0.8251 H   0  0  0  0  0  0  0  0  0  0  0  0
   -0.6087   12.3158    0.8251 H   0  0  0  0  0  0  0  0  0  0  0  0
   -2.1801   10.2649    0.4864 H   0  0  0  0  0  0  0  0  0  0  0  0
   -2.3772   11.1412   -1.0692 H   0  0  0  0  0  0  0  0  0  0  0  0
   -2.0025    9.3844   -1.0692 H   0  0  0  0  0  0  0  0  0  0  0  0
    2.2047   10.7421   -4.2170 H   0  0  0  0  0  0  0  0  0  0  0  0
    1.2211   11.9831   -5.0651 H   0  0  0  0  0  0  0  0  0  0  0  0
    3.0134   12.1035   -5.0651 H   0  0  0  0  0  0  0  0  0  0  0  0
    4.0869   12.4060   -2.3749 H   0  0  0  0  0  0  0  0  0  0  0  0
    3.9329   13.4199   -3.9187 H   0  0  0  0  0  0  0  0  0  0  0  0
    3.4144   14.3044   -1.0666 H   0  0  0  0  0  0  0  0  0  0  0  0
    4.7122   14.8512   -2.1995 H   0  0  0  0  0  0  0  0  0  0  0  0
    4.0976   16.5073   -4.1294 H   0  0  0  0  0  0  0  0  0  0  0  0
    3.4005   14.9416   -4.6674 H   0  0  0  0  0  0  0  0  0  0  0  0
    2.3858   16.4239   -4.6674 H   0  0  0  0  0  0  0  0  0  0  0  0
  1  2  1  0
  2  3  1  0
  3  4  1  0
  4  5  1  0
  5  6  1  0
  6  7  1  0
  7  8  1  0
  7  9  1  0
  2 10  1  0
 10 11  1  0
 11 12  1  0
 12 13  1  0
 13 14  1  1
 13 15  1  0
 15 16  1  0
 16 17  1  0
 17 18  2  0
 18 19  1  0
 19 20  1  0
 20 21  1  0
 21 22  1  0
 22 23  1  0
 22 24  1  0
 24 25  1  0
 24 26  1  0
 19 27  1  0
 27 28  1  6
 27 29  1  0
 29 30  1  0
 30 31  1  0
 31 32  1  6
  7  5  1  0
 31 10  1  0
 31 13  1  0
 27 15  1  0
 24 18  1  0
  1 33  1  0
  1 34  1  0
  1 35  1  0
  2 36  1  6
  3 37  1  0
  3 38  1  0
  4 39  1  0
  4 40  1  0
  5 41  1  1
  8 42  1  0
  8 43  1  0
  8 44  1  0
  9 45  1  0
  9 46  1  0
  9 47  1  0
 10 48  1  1
 11 49  1  0
 11 50  1  0
 12 51  1  0
 12 52  1  0
 14 53  1  0
 14 54  1  0
 14 55  1  0
 15 56  1  6
 16 57  1  0
 16 58  1  0
 17 59  1  0
 19 60  1  1
 20 61  1  0
 20 62  1  0
 21 63  1  0
 21 64  1  0
 22 65  1  1
 23 66  1  0
 25 67  1  0
 25 68  1  0
 25 69  1  0
 26 70  1  0
 26 71  1  0
 26 72  1  0
 28 73  1  0
 28 74  1  0
 28 75  1  0
 29 76  1  0
 29 77  1  0
 30 78  1  0
 30 79  1  0
 32 80  1  0
 32 81  1  0
 32 82  1  0
M  END
>  <meeko>  (5) 
{"is_sidechain": [false], "intermolecular_energy": 2.731, "internal_energy": -0.839}

$$$$
EPH_relaxed_0001_pdb2pqr_Repair_316_r2_0001_out
     RDKit          3D

 82 86  0  0  0  0  0  0  0  0999 V2000
   -2.0520    8.1620   -2.0820 C   0  0  0  0  0  0  0  0  0  0  0  0
   -2.2880    8.8620   -0.7410 C   0  0  2  0  0  0  0  0  0  0  0  0
   -3.7840    9.1250   -0.4780 C   0  0  0  0  0  0  0  0  0  0  0  0
   -4.6300    7.8500   -0.4040 C   0  0  0  0  0  0  0  0  0  0  0  0
   -5.3890    7.6130   -1.6740 C   0  0  2  0  0  0  0  0  0  0  0  0
   -6.4160    8.5760   -1.9470 O   0  0  0  0  0  0  0  0  0  0  0  0
   -6.8560    7.2290   -1.7130 C   0  0  0  0  0  0  0  0  0  0  0  0
   -7.6510    7.0570   -0.4570 C   0  0  0  0  0  0  0  0  0  0  0  0
   -7.3850    6.5460   -2.9360 C   0  0  0  0  0  0  0  0  0  0  0  0
   -1.5130   10.1730   -0.6960 C   0  0  1  0  0  0  0  0  0  0  0  0
   -1.1440   10.6000    0.7500 C   0  0  0  0  0  0  0  0  0  0  0  0
    0.2410   11.2920    0.6720 C   0  0  0  0  0  0  0  0  0  0  0  0
    0.4710   11.5370   -0.8370 C   0  0  1  0  0  0  0  0  0  0  0  0
   -0.3360   12.8340   -1.1600 C   0  0  0  0  0  0  0  0  0  0  0  0
    1.9600   11.6530   -1.3000 C   0  0  2  0  0  0  0  0  0  0  0  0
    2.7410   12.8320   -0.6950 C   0  0  0  0  0  0  0  0  0  0  0  0
    2.6920   14.1010   -1.4800 C   0  0  0  0  0  0  0  0  0  0  0  0
    2.2890   14.2130   -2.7600 C   0  0  0  0  0  0  0  0  0  0  0  0
    1.9190   12.9710   -3.5810 C   0  0  1  0  0  0  0  0  0  0  0  0
    2.5930   13.0530   -4.9760 C   0  0  0  0  0  0  0  0  0  0  0  0
    2.2700   14.3530   -5.7060 C   0  0  0  0  0  0  0  0  0  0  0  0
    2.7050   15.5630   -4.8840 C   0  0  2  0  0  0  0  0  0  0  0  0
    4.1340   15.5730   -4.7990 O   0  0  0  0  0  0  0  0  0  0  0  0
    2.0960   15.5840   -3.4540 C   0  0  0  0  0  0  0  0  0  0  0  0
    0.5780   15.8760   -3.5400 C   0  0  0  0  0  0  0  0  0  0  0  0
    2.7250   16.7760   -2.6840 C   0  0  0  0  0  0  0  0  0  0  0  0
    2.1600   11.5720   -2.8680 C   0  0  1  0  0  0  0  0  0  0  0  0
    3.6260   11.0990   -3.1050 C   0  0  0  0  0  0  0  0  0  0  0  0
    1.2310   10.4890   -3.5340 C   0  0  0  0  0  0  0  0  0  0  0  0
   -0.1890   10.3400   -2.9540 C   0  0  0  0  0  0  0  0  0  0  0  0
   -0.1480   10.2180   -1.4270 C   0  0  2  0  0  0  0  0  0  0  0  0
    0.6380    8.9100   -1.0730 C   0  0  0  0  0  0  0  0  0  0  0  0
   -1.7053    7.1336   -1.9028 H   0  0  0  0  0  0  0  0  0  0  0  0
   -2.9917    8.1378   -2.6534 H   0  0  0  0  0  0  0  0  0  0  0  0
   -1.2895    8.7117   -2.6534 H   0  0  0  0  0  0  0  0  0  0  0  0
   -1.9274    8.1893    0.0511 H   0  0  0  0  0  0  0  0  0  0  0  0
   -3.8795    9.6610    0.4778 H   0  0  0  0  0  0  0  0  0  0  0  0
   -4.1614    9.7121   -1.3282 H   0  0  0  0  0  0  0  0  0  0  0  0
   -3.9664    6.9922   -0.2201 H   0  0  0  0  0  0  0  0  0  0  0  0
   -5.3573    7.9684    0.4127 H   0  0  0  0  0  0  0  0  0  0  0  0
   -4.4992    7.1770   -2.1516 H   0  0  0  0  0  0  0  0  0  0  0  0
   -6.9950    7.1989    0.4145 H   0  0  0  0  0  0  0  0  0  0  0  0
   -8.4611    7.8007   -0.4311 H   0  0  0  0  0  0  0  0  0  0  0  0
   -8.0813    6.0450   -0.4311 H   0  0  0  0  0  0  0  0  0  0  0  0
   -8.0332    5.7091   -2.6371 H   0  0  0  0  0  0  0  0  0  0  0  0
   -7.9653    7.2636   -3.5347 H   0  0  0  0  0  0  0  0  0  0  0  0
   -6.5451    6.1636   -3.5347 H   0  0  0  0  0  0  0  0  0  0  0  0
   -2.2340   10.8303   -1.2042 H   0  0  0  0  0  0  0  0  0  0  0  0
   -1.8961   11.3007    1.1417 H   0  0  0  0  0  0  0  0  0  0  0  0
   -1.1139    9.7305    1.4232 H   0  0  0  0  0  0  0  0  0  0  0  0
    0.2308   12.2441    1.2227 H   0  0  0  0  0  0  0  0  0  0  0  0
    1.0380   10.6813    1.1214 H   0  0  0  0  0  0  0  0  0  0  0  0
   -0.6389   13.3207   -0.2212 H   0  0  0  0  0  0  0  0  0  0  0  0
    0.2937   13.5220   -1.7432 H   0  0  0  0  0  0  0  0  0  0  0  0
   -1.2314   12.5730   -1.7432 H   0  0  0  0  0  0  0  0  0  0  0  0
    2.4107   10.7448   -0.8733 H   0  0  0  0  0  0  0  0  0  0  0  0
    2.3292   13.0349    0.3046 H   0  0  0  0  0  0  0  0  0  0  0  0
    3.7966   12.5228   -0.6831 H   0  0  0  0  0  0  0  0  0  0  0  0
    3.0119   15.0217   -0.9700 H   0  0  0  0  0  0  0  0  0  0  0  0
    0.8250   12.9951   -3.6932 H   0  0  0  0  0  0  0  0  0  0  0  0
    3.6830   12.9832   -4.8457 H   0  0  0  0  0  0  0  0  0  0  0  0
    2.2041   12.2230   -5.5841 H   0  0  0  0  0  0  0  0  0  0  0  0
    2.7980   14.3647   -6.6709 H   0  0  0  0  0  0  0  0  0  0  0  0
    1.1824   14.4072   -5.8618 H   0  0  0  0  0  0  0  0  0  0  0  0
    2.3311   16.4615   -5.3967 H   0  0  0  0  0  0  0  0  0  0  0  0
    4.4830   15.5600   -5.7060 H   0  0  0  0  0  0  0  0  0  0  0  0
    0.1619   15.9560   -2.5249 H   0  0  0  0  0  0  0  0  0  0  0  0
    0.4164   16.8217   -4.0781 H   0  0  0  0  0  0  0  0  0  0  0  0
    0.0771   15.0577   -4.0781 H   0  0  0  0  0  0  0  0  0  0  0  0
    2.6335   16.6026   -1.6016 H   0  0  0  0  0  0  0  0  0  0  0  0
    3.7880   16.8659   -2.9524 H   0  0  0  0  0  0  0  0  0  0  0  0
    2.1993   17.7042   -2.9524 H   0  0  0  0  0  0  0  0  0  0  0  0
    4.1210   10.9393   -2.1357 H   0  0  0  0  0  0  0  0  0  0  0  0
    3.6201   10.1572   -3.6733 H   0  0  0  0  0  0  0  0  0  0  0  0
    4.1716   11.8667   -3.6733 H   0  0  0  0  0  0  0  0  0  0  0  0
    1.1303   10.7464   -4.5987 H   0  0  0  0  0  0  0  0  0  0  0  0
    1.7248    9.5260   -3.3372 H   0  0  0  0  0  0  0  0  0  0  0  0
   -0.7843   11.2233   -3.2285 H   0  0  0  0  0  0  0  0  0  0  0  0
   -0.6423    9.4266   -3.3667 H   0  0  0  0  0  0  0  0  0  0  0  0
    0.7013    8.8047    0.0201 H   0  0  0  0  0  0  0  0  0  0  0  0
    0.1125    8.0408   -1.4953 H   0  0  0  0  0  0  0  0  0  0  0  0
    1.6522    8.9660   -1.4953 H   0  0  0  0  0  0  0  0  0  0  0  0
  1  2  1  0
  2  3  1  0
  3  4  1  0
  4  5  1  0
  5  6  1  0
  6  7  1  0
  7  8  1  0
  7  9  1  0
  2 10  1  0
 10 11  1  0
 11 12  1  0
 12 13  1  0
 13 14  1  6
 13 15  1  0
 15 16  1  0
 16 17  1  0
 17 18  2  0
 18 19  1  0
 19 20  1  0
 20 21  1  0
 21 22  1  0
 22 23  1  0
 22 24  1  0
 24 25  1  0
 24 26  1  0
 19 27  1  0
 27 28  1  1
 27 29  1  0
 29 30  1  0
 30 31  1  0
 31 32  1  6
  7  5  1  0
 31 10  1  0
 31 13  1  0
 27 15  1  0
 24 18  1  0
  1 33  1  0
  1 34  1  0
  1 35  1  0
  2 36  1  1
  3 37  1  0
  3 38  1  0
  4 39  1  0
  4 40  1  0
  5 41  1  6
  8 42  1  0
  8 43  1  0
  8 44  1  0
  9 45  1  0
  9 46  1  0
  9 47  1  0
 10 48  1  6
 11 49  1  0
 11 50  1  0
 12 51  1  0
 12 52  1  0
 14 53  1  0
 14 54  1  0
 14 55  1  0
 15 56  1  1
 16 57  1  0
 16 58  1  0
 17 59  1  0
 19 60  1  6
 20 61  1  0
 20 62  1  0
 21 63  1  0
 21 64  1  0
 22 65  1  6
 23 66  1  0
 25 67  1  0
 25 68  1  0
 25 69  1  0
 26 70  1  0
 26 71  1  0
 26 72  1  0
 28 73  1  0
 28 74  1  0
 28 75  1  0
 29 76  1  0
 29 77  1  0
 30 78  1  0
 30 79  1  0
 32 80  1  0
 32 81  1  0
 32 82  1  0
M  END
>  <meeko>  (6) 
{"is_sidechain": [false], "intermolecular_energy": 2.731, "internal_energy": -0.839}

$$$$
EPH_relaxed_0001_pdb2pqr_Repair_316_r2_0001_out
     RDKit          3D

 82 86  0  0  0  0  0  0  0  0999 V2000
   -0.6570    8.1280   -1.3290 C   0  0  0  0  0  0  0  0  0  0  0  0
   -0.9560    9.3390   -0.4420 C   0  0  2  0  0  0  0  0  0  0  0  0
   -2.2790   10.0300   -0.8280 C   0  0  0  0  0  0  0  0  0  0  0  0
   -3.4950    9.5080   -0.0570 C   0  0  0  0  0  0  0  0  0  0  0  0
   -3.8820    8.1300   -0.5000 C   0  0  2  0  0  0  0  0  0  0  0  0
   -4.0410    7.9790   -1.9170 O   0  0  0  0  0  0  0  0  0  0  0  0
   -5.2250    7.7980   -1.1230 C   0  0  0  0  0  0  0  0  0  0  0  0
   -6.2670    8.8500   -1.3370 C   0  0  0  0  0  0  0  0  0  0  0  0
   -5.7070    6.3820   -1.0730 C   0  0  0  0  0  0  0  0  0  0  0  0
    0.1940   10.3360   -0.5180 C   0  0  1  0  0  0  0  0  0  0  0  0
    1.5840    9.6540   -0.4150 C   0  0  0  0  0  0  0  0  0  0  0  0
    2.5460   10.4570   -1.3270 C   0  0  0  0  0  0  0  0  0  0  0  0
    1.7740   11.7550   -1.6600 C   0  0  1  0  0  0  0  0  0  0  0  0
    1.9820   12.6760   -0.4170 C   0  0  0  0  0  0  0  0  0  0  0  0
    2.1780   12.4780   -2.9870 C   0  0  2  0  0  0  0  0  0  0  0  0
    3.6290   12.9850   -3.0390 C   0  0  0  0  0  0  0  0  0  0  0  0
    3.8360   14.3790   -2.5470 C   0  0  0  0  0  0  0  0  0  0  0  0
    2.8660   15.2900   -2.3490 C   0  0  0  0  0  0  0  0  0  0  0  0
    1.4090   14.9840   -2.7210 C   0  0  1  0  0  0  0  0  0  0  0  0
    0.8100   16.1840   -3.4990 C   0  0  0  0  0  0  0  0  0  0  0  0
    0.9540   17.5020   -2.7440 C   0  0  0  0  0  0  0  0  0  0  0  0
    2.4210   17.8010   -2.4440 C   0  0  2  0  0  0  0  0  0  0  0  0
    3.1030   18.0450   -3.6770 O   0  0  0  0  0  0  0  0  0  0  0  0
    3.1330   16.6560   -1.6700 C   0  0  0  0  0  0  0  0  0  0  0  0
    2.5920   16.5930   -0.2200 C   0  0  0  0  0  0  0  0  0  0  0  0
    4.6380   17.0220   -1.5560 C   0  0  0  0  0  0  0  0  0  0  0  0
    1.1580   13.5950   -3.4520 C   0  0  1  0  0  0  0  0  0  0  0  0
    1.3520   13.7610   -4.9900 C   0  0  0  0  0  0  0  0  0  0  0  0
   -0.3410   13.1640   -3.2370 C   0  0  0  0  0  0  0  0  0  0  0  0
   -0.6550   12.3500   -1.9670 C   0  0  0  0  0  0  0  0  0  0  0  0
    0.3200   11.1790   -1.8120 C   0  0  2  0  0  0  0  0  0  0  0  0
    0.1180   10.2240   -3.0380 C   0  0  0  0  0  0  0  0  0  0  0  0
   -0.4413    7.2544   -0.6963 H   0  0  0  0  0  0  0  0  0  0  0  0
   -1.5294    7.9143   -1.9641 H   0  0  0  0  0  0  0  0  0  0  0  0
    0.2146    8.3449   -1.9641 H   0  0  0  0  0  0  0  0  0  0  0  0
   -1.0637    8.9739    0.5900 H   0  0  0  0  0  0  0  0  0  0  0  0
   -2.1786   11.1073   -0.6298 H   0  0  0  0  0  0  0  0  0  0  0  0
   -2.4560    9.8132   -1.8918 H   0  0  0  0  0  0  0  0  0  0  0  0
   -3.2530    9.4828    1.0158 H   0  0  0  0  0  0  0  0  0  0  0  0
   -4.3415   10.1821   -0.2543 H   0  0  0  0  0  0  0  0  0  0  0  0
   -3.3241    7.6796    0.3342 H   0  0  0  0  0  0  0  0  0  0  0  0
   -6.6268    9.2132   -0.3630 H   0  0  0  0  0  0  0  0  0  0  0  0
   -5.8321    9.6872   -1.9027 H   0  0  0  0  0  0  0  0  0  0  0  0
   -7.1083    8.4231   -1.9027 H   0  0  0  0  0  0  0  0  0  0  0  0
   -5.8139    6.0679   -0.0242 H   0  0  0  0  0  0  0  0  0  0  0  0
   -6.6809    6.3081   -1.5790 H   0  0  0  0  0  0  0  0  0  0  0  0
   -4.9804    5.7293   -1.5790 H   0  0  0  0  0  0  0  0  0  0  0  0
   -0.0686   10.9849    0.3305 H   0  0  0  0  0  0  0  0  0  0  0  0
    1.9409    9.6771    0.6252 H   0  0  0  0  0  0  0  0  0  0  0  0
    1.5308    8.6008   -0.7280 H   0  0  0  0  0  0  0  0  0  0  0  0
    3.4822   10.6869   -0.7972 H   0  0  0  0  0  0  0  0  0  0  0  0
    2.8300    9.8968   -2.2301 H   0  0  0  0  0  0  0  0  0  0  0  0
    1.8489   12.0868    0.5023 H   0  0  0  0  0  0  0  0  0  0  0  0
    2.9979   13.0973   -0.4387 H   0  0  0  0  0  0  0  0  0  0  0  0
    1.2457   13.4930   -0.4387 H   0  0  0  0  0  0  0  0  0  0  0  0
    2.1203   11.6648   -3.7255 H   0  0  0  0  0  0  0  0  0  0  0  0
    4.2460   12.3127   -2.4247 H   0  0  0  0  0  0  0  0  0  0  0  0
    3.9103   12.9930   -4.1024 H   0  0  0  0  0  0  0  0  0  0  0  0
    4.8689   14.6875   -2.3278 H   0  0  0  0  0  0  0  0  0  0  0  0
    0.8729   14.8524   -1.7695 H   0  0  0  0  0  0  0  0  0  0  0  0
    1.3291   16.2724   -4.4648 H   0  0  0  0  0  0  0  0  0  0  0  0
   -0.2648   15.9918   -3.6328 H   0  0  0  0  0  0  0  0  0  0  0  0
    0.5388   18.3154   -3.3571 H   0  0  0  0  0  0  0  0  0  0  0  0
    0.4097   17.4225   -1.7914 H   0  0  0  0  0  0  0  0  0  0  0  0
    2.4511   18.6864   -1.7920 H   0  0  0  0  0  0  0  0  0  0  0  0
    2.6370   18.7660   -4.1340 H   0  0  0  0  0  0  0  0  0  0  0  0
    3.4283   16.6904    0.4879 H   0  0  0  0  0  0  0  0  0  0  0  0
    1.8779   17.4141   -0.0591 H   0  0  0  0  0  0  0  0  0  0  0  0
    2.0856   15.6298   -0.0591 H   0  0  0  0  0  0  0  0  0  0  0  0
    4.9193   17.0904   -0.4948 H   0  0  0  0  0  0  0  0  0  0  0  0
    5.2425   16.2447   -2.0462 H   0  0  0  0  0  0  0  0  0  0  0  0
    4.8181   17.9901   -2.0462 H   0  0  0  0  0  0  0  0  0  0  0  0
    2.1750   14.4652   -5.1819 H   0  0  0  0  0  0  0  0  0  0  0  0
    1.5929   12.7850   -5.4366 H   0  0  0  0  0  0  0  0  0  0  0  0
    0.4250   14.1499   -5.4366 H   0  0  0  0  0  0  0  0  0  0  0  0
   -0.9491   14.0801   -3.2038 H   0  0  0  0  0  0  0  0  0  0  0  0
   -0.5692   12.4890   -4.0750 H   0  0  0  0  0  0  0  0  0  0  0  0
   -0.5712   13.0068   -1.0886 H   0  0  0  0  0  0  0  0  0  0  0  0
   -1.6755   11.9482   -2.0511 H   0  0  0  0  0  0  0  0  0  0  0  0
   -0.0972    9.2068   -2.6789 H   0  0  0  0  0  0  0  0  0  0  0  0
   -0.7240   10.5833   -3.6478 H   0  0  0  0  0  0  0  0  0  0  0  0
    1.0334   10.2116   -3.6478 H   0  0  0  0  0  0  0  0  0  0  0  0
  1  2  1  0
  2  3  1  0
  3  4  1  0
  4  5  1  0
  5  6  1  0
  6  7  1  0
  7  8  1  0
  7  9  1  0
  2 10  1  0
 10 11  1  0
 11 12  1  0
 12 13  1  0
 13 14  1  1
 13 15  1  0
 15 16  1  0
 16 17  1  0
 17 18  2  0
 18 19  1  0
 19 20  1  0
 20 21  1  0
 21 22  1  0
 22 23  1  0
 22 24  1  0
 24 25  1  0
 24 26  1  0
 19 27  1  0
 27 28  1  6
 27 29  1  0
 29 30  1  0
 30 31  1  0
 31 32  1  6
  7  5  1  0
 31 10  1  0
 31 13  1  0
 27 15  1  0
 24 18  1  0
  1 33  1  0
  1 34  1  0
  1 35  1  0
  2 36  1  1
  3 37  1  0
  3 38  1  0
  4 39  1  0
  4 40  1  0
  5 41  1  1
  8 42  1  0
  8 43  1  0
  8 44  1  0
  9 45  1  0
  9 46  1  0
  9 47  1  0
 10 48  1  1
 11 49  1  0
 11 50  1  0
 12 51  1  0
 12 52  1  0
 14 53  1  0
 14 54  1  0
 14 55  1  0
 15 56  1  6
 16 57  1  0
 16 58  1  0
 17 59  1  0
 19 60  1  1
 20 61  1  0
 20 62  1  0
 21 63  1  0
 21 64  1  0
 22 65  1  1
 23 66  1  0
 25 67  1  0
 25 68  1  0
 25 69  1  0
 26 70  1  0
 26 71  1  0
 26 72  1  0
 28 73  1  0
 28 74  1  0
 28 75  1  0
 29 76  1  0
 29 77  1  0
 30 78  1  0
 30 79  1  0
 32 80  1  0
 32 81  1  0
 32 82  1  0
M  END
>  <meeko>  (7) 
{"is_sidechain": [false], "intermolecular_energy": 2.731, "internal_energy": -0.839}

$$$$
EPH_relaxed_0001_pdb2pqr_Repair_316_r2_0001_out
     RDKit          3D

 82 86  0  0  0  0  0  0  0  0999 V2000
   -0.0130    9.7060    0.8230 C   0  0  0  0  0  0  0  0  0  0  0  0
   -0.7920   10.2830   -0.3630 C   0  0  2  0  0  0  0  0  0  0  0  0
   -1.7160    9.2360   -1.0160 C   0  0  0  0  0  0  0  0  0  0  0  0
   -3.1470    9.2540   -0.4730 C   0  0  0  0  0  0  0  0  0  0  0  0
   -3.8330    7.9370   -0.6760 C   0  0  2  0  0  0  0  0  0  0  0  0
   -4.1410    7.6260   -2.0410 O   0  0  0  0  0  0  0  0  0  0  0  0
   -5.2640    7.8060   -1.1640 C   0  0  0  0  0  0  0  0  0  0  0  0
   -6.0950    9.0100   -1.4780 C   0  0  0  0  0  0  0  0  0  0  0  0
   -6.0070    6.5400   -0.8690 C   0  0  0  0  0  0  0  0  0  0  0  0
    0.1770   10.8420   -1.3980 C   0  0  1  0  0  0  0  0  0  0  0  0
    0.0030   10.1860   -2.7940 C   0  0  0  0  0  0  0  0  0  0  0  0
    0.2850   11.2910   -3.8450 C   0  0  0  0  0  0  0  0  0  0  0  0
    0.9300   12.4420   -3.0380 C   0  0  1  0  0  0  0  0  0  0  0  0
    2.4280   12.0320   -2.8820 C   0  0  0  0  0  0  0  0  0  0  0  0
    0.7840   13.8760   -3.6430 C   0  0  2  0  0  0  0  0  0  0  0  0
    1.4510   14.0770   -5.0150 C   0  0  0  0  0  0  0  0  0  0  0  0
    2.8690   14.5440   -4.9720 C   0  0  0  0  0  0  0  0  0  0  0  0
    3.4890   15.0640   -3.8970 C   0  0  0  0  0  0  0  0  0  0  0  0
    2.7230   15.3160   -2.5910 C   0  0  1  0  0  0  0  0  0  0  0  0
    3.0640   16.7320   -2.0570 C   0  0  0  0  0  0  0  0  0  0  0  0
    4.5650   16.9550   -1.9050 C   0  0  0  0  0  0  0  0  0  0  0  0
    5.2840   16.7510   -3.2360 C   0  0  2  0  0  0  0  0  0  0  0  0
    4.8820   17.7850   -4.1400 O   0  0  0  0  0  0  0  0  0  0  0  0
    5.0080   15.3620   -3.8760 C   0  0  0  0  0  0  0  0  0  0  0  0
    5.7090   14.2580   -3.0450 C   0  0  0  0  0  0  0  0  0  0  0  0
    5.6760   15.3400   -5.2770 C   0  0  0  0  0  0  0  0  0  0  0  0
    1.1580   15.0430   -2.6420 C   0  0  1  0  0  0  0  0  0  0  0  0
    0.4110   16.3160   -3.1430 C   0  0  0  0  0  0  0  0  0  0  0  0
    0.6370   14.7680   -1.1810 C   0  0  0  0  0  0  0  0  0  0  0  0
    0.6970   13.3110   -0.6850 C   0  0  0  0  0  0  0  0  0  0  0  0
    0.0860   12.3560   -1.7150 C   0  0  2  0  0  0  0  0  0  0  0  0
   -1.4270   12.7300   -1.8760 C   0  0  0  0  0  0  0  0  0  0  0  0
   -0.4718   10.0458    1.7632 H   0  0  0  0  0  0  0  0  0  0  0  0
   -0.0385    8.6072    0.7787 H   0  0  0  0  0  0  0  0  0  0  0  0
    1.0307   10.0506    0.7787 H   0  0  0  0  0  0  0  0  0  0  0  0
   -1.4311   11.0911    0.0222 H   0  0  0  0  0  0  0  0  0  0  0  0
   -1.7526    9.4318   -2.0978 H   0  0  0  0  0  0  0  0  0  0  0  0
   -1.2960    8.2465   -0.7824 H   0  0  0  0  0  0  0  0  0  0  0  0
   -3.1171    9.4783    0.6035 H   0  0  0  0  0  0  0  0  0  0  0  0
   -3.7120   10.0231   -1.0201 H   0  0  0  0  0  0  0  0  0  0  0  0
   -3.3037    7.5020    0.1846 H   0  0  0  0  0  0  0  0  0  0  0  0
   -6.4223    9.4842   -0.5409 H   0  0  0  0  0  0  0  0  0  0  0  0
   -5.4977    9.7257   -2.0619 H   0  0  0  0  0  0  0  0  0  0  0  0
   -6.9760    8.7053   -2.0619 H   0  0  0  0  0  0  0  0  0  0  0  0
   -6.0855    6.4062    0.2200 H   0  0  0  0  0  0  0  0  0  0  0  0
   -7.0153    6.5965   -1.3051 H   0  0  0  0  0  0  0  0  0  0  0  0
   -5.4661    5.6873   -1.3051 H   0  0  0  0  0  0  0  0  0  0  0  0
    1.1303   10.6202   -0.8960 H   0  0  0  0  0  0  0  0  0  0  0  0
    0.7162    9.3573   -2.9148 H   0  0  0  0  0  0  0  0  0  0  0  0
   -1.0104    9.7754   -2.9143 H   0  0  0  0  0  0  0  0  0  0  0  0
    0.9761   10.9241   -4.6182 H   0  0  0  0  0  0  0  0  0  0  0  0
   -0.6276   11.6100   -4.3698 H   0  0  0  0  0  0  0  0  0  0  0  0
    2.6799   11.9631   -1.8135 H   0  0  0  0  0  0  0  0  0  0  0  0
    2.5928   11.0557   -3.3613 H   0  0  0  0  0  0  0  0  0  0  0  0
    3.0670   12.7883   -3.3613 H   0  0  0  0  0  0  0  0  0  0  0  0
   -0.2987   13.9458   -3.8245 H   0  0  0  0  0  0  0  0  0  0  0  0
    1.4256   13.1159   -5.5495 H   0  0  0  0  0  0  0  0  0  0  0  0
    0.8827   14.8745   -5.5160 H   0  0  0  0  0  0  0  0  0  0  0  0
    3.4564   14.4553   -5.8978 H   0  0  0  0  0  0  0  0  0  0  0  0
    3.0740   14.5541   -1.8794 H   0  0  0  0  0  0  0  0  0  0  0  0
    2.6661   17.4789   -2.7597 H   0  0  0  0  0  0  0  0  0  0  0  0
    2.6096   16.8308   -1.0601 H   0  0  0  0  0  0  0  0  0  0  0  0
    4.7427   17.9821   -1.5535 H   0  0  0  0  0  0  0  0  0  0  0  0
    4.9565   16.2271   -1.1791 H   0  0  0  0  0  0  0  0  0  0  0  0
    6.3649   16.7947   -3.0365 H   0  0  0  0  0  0  0  0  0  0  0  0
    3.9170   17.8770   -4.0710 H   0  0  0  0  0  0  0  0  0  0  0  0
    5.5767   14.4663   -1.9730 H   0  0  0  0  0  0  0  0  0  0  0  0
    5.2658   13.2805   -3.2860 H   0  0  0  0  0  0  0  0  0  0  0  0
    6.7822   14.2434   -3.2860 H   0  0  0  0  0  0  0  0  0  0  0  0
    6.7693   15.3040   -5.1614 H   0  0  0  0  0  0  0  0  0  0  0  0
    5.3365   14.4526   -5.8312 H   0  0  0  0  0  0  0  0  0  0  0  0
    5.3956   16.2479   -5.8312 H   0  0  0  0  0  0  0  0  0  0  0  0
    0.0666   16.9030   -2.2788 H   0  0  0  0  0  0  0  0  0  0  0  0
    1.0943   16.9263   -3.7519 H   0  0  0  0  0  0  0  0  0  0  0  0
   -0.4550   16.0172   -3.7519 H   0  0  0  0  0  0  0  0  0  0  0  0
    1.2392   15.3790   -0.4925 H   0  0  0  0  0  0  0  0  0  0  0  0
   -0.4335   15.0200   -1.2050 H   0  0  0  0  0  0  0  0  0  0  0  0
    1.7472   13.0320   -0.5140 H   0  0  0  0  0  0  0  0  0  0  0  0
    0.1214   13.2344    0.2493 H   0  0  0  0  0  0  0  0  0  0  0  0
   -1.8845   12.8431   -0.8821 H   0  0  0  0  0  0  0  0  0  0  0  0
   -1.5138   13.6766   -2.4295 H   0  0  0  0  0  0  0  0  0  0  0  0
   -1.9449   11.9328   -2.4295 H   0  0  0  0  0  0  0  0  0  0  0  0
  1  2  1  0
  2  3  1  0
  3  4  1  0
  4  5  1  0
  5  6  1  0
  6  7  1  0
  7  8  1  0
  7  9  1  0
  2 10  1  0
 10 11  1  0
 11 12  1  0
 12 13  1  0
 13 14  1  1
 13 15  1  0
 15 16  1  0
 16 17  1  0
 17 18  2  0
 18 19  1  0
 19 20  1  0
 20 21  1  0
 21 22  1  0
 22 23  1  0
 22 24  1  0
 24 25  1  0
 24 26  1  0
 19 27  1  0
 27 28  1  6
 27 29  1  0
 29 30  1  0
 30 31  1  0
 31 32  1  6
  7  5  1  0
 31 10  1  0
 31 13  1  0
 27 15  1  0
 24 18  1  0
  1 33  1  0
  1 34  1  0
  1 35  1  0
  2 36  1  1
  3 37  1  0
  3 38  1  0
  4 39  1  0
  4 40  1  0
  5 41  1  1
  8 42  1  0
  8 43  1  0
  8 44  1  0
  9 45  1  0
  9 46  1  0
  9 47  1  0
 10 48  1  1
 11 49  1  0
 11 50  1  0
 12 51  1  0
 12 52  1  0
 14 53  1  0
 14 54  1  0
 14 55  1  0
 15 56  1  6
 16 57  1  0
 16 58  1  0
 17 59  1  0
 19 60  1  1
 20 61  1  0
 20 62  1  0
 21 63  1  0
 21 64  1  0
 22 65  1  1
 23 66  1  0
 25 67  1  0
 25 68  1  0
 25 69  1  0
 26 70  1  0
 26 71  1  0
 26 72  1  0
 28 73  1  0
 28 74  1  0
 28 75  1  0
 29 76  1  0
 29 77  1  0
 30 78  1  0
 30 79  1  0
 32 80  1  0
 32 81  1  0
 32 82  1  0
M  END
>  <meeko>  (8) 
{"is_sidechain": [false], "intermolecular_energy": 2.731, "internal_energy": -0.839}

$$$$
EPH_relaxed_0001_pdb2pqr_Repair_316_r2_0001_out
     RDKit          3D

 82 86  0  0  0  0  0  0  0  0999 V2000
    0.0440   10.3050   -3.7390 C   0  0  0  0  0  0  0  0  0  0  0  0
    1.1440   10.1140   -2.6910 C   0  0  2  0  0  0  0  0  0  0  0  0
    0.8790    8.8950   -1.7860 C   0  0  0  0  0  0  0  0  0  0  0  0
    0.2410    9.2540   -0.4410 C   0  0  0  0  0  0  0  0  0  0  0  0
   -1.1840    8.7960   -0.3640 C   0  0  2  0  0  0  0  0  0  0  0  0
   -1.8860    8.8100   -1.6140 O   0  0  0  0  0  0  0  0  0  0  0  0
   -2.3710    9.7100   -0.6050 C   0  0  0  0  0  0  0  0  0  0  0  0
   -2.1860   11.1570   -0.9400 C   0  0  0  0  0  0  0  0  0  0  0  0
   -3.7010    9.3210   -0.0380 C   0  0  0  0  0  0  0  0  0  0  0  0
    1.2780   11.3740   -1.8430 C   0  0  1  0  0  0  0  0  0  0  0  0
    2.2400   11.1840   -0.6400 C   0  0  0  0  0  0  0  0  0  0  0  0
    2.9680   12.5370   -0.4310 C   0  0  0  0  0  0  0  0  0  0  0  0
    2.1720   13.5450   -1.2930 C   0  0  1  0  0  0  0  0  0  0  0  0
    0.9370   13.9320   -0.4210 C   0  0  0  0  0  0  0  0  0  0  0  0
    2.9550   14.8090   -1.7780 C   0  0  2  0  0  0  0  0  0  0  0  0
    3.4660   15.7300   -0.6560 C   0  0  0  0  0  0  0  0  0  0  0  0
    2.5270   16.8150   -0.2440 C   0  0  0  0  0  0  0  0  0  0  0  0
    1.4480   17.2210   -0.9390 C   0  0  0  0  0  0  0  0  0  0  0  0
    1.1350   16.6350   -2.3220 C   0  0  1  0  0  0  0  0  0  0  0  0
    0.7900   17.7840   -3.3050 C   0  0  0  0  0  0  0  0  0  0  0  0
   -0.3280   18.6820   -2.7860 C   0  0  0  0  0  0  0  0  0  0  0  0
    0.0440   19.2920   -1.4370 C   0  0  2  0  0  0  0  0  0  0  0  0
    1.1380   20.1940   -1.6250 O   0  0  0  0  0  0  0  0  0  0  0  0
    0.4210   18.2290   -0.3670 C   0  0  0  0  0  0  0  0  0  0  0  0
   -0.8460   17.4450    0.0570 C   0  0  0  0  0  0  0  0  0  0  0  0
    0.9110   18.9800    0.9000 C   0  0  0  0  0  0  0  0  0  0  0  0
    2.2190   15.6320   -2.9110 C   0  0  1  0  0  0  0  0  0  0  0  0
    3.3230   16.4290   -3.6710 C   0  0  0  0  0  0  0  0  0  0  0  0
    1.5310   14.7000   -3.9770 C   0  0  0  0  0  0  0  0  0  0  0  0
    0.8790   13.4070   -3.4510 C   0  0  0  0  0  0  0  0  0  0  0  0
    1.8390   12.6410   -2.5360 C   0  0  2  0  0  0  0  0  0  0  0  0
    3.0820   12.2200   -3.3920 C   0  0  0  0  0  0  0  0  0  0  0  0
   -0.9187   10.4722   -3.2338 H   0  0  0  0  0  0  0  0  0  0  0  0
    0.2839   11.1749   -4.3680 H   0  0  0  0  0  0  0  0  0  0  0  0
   -0.0234    9.4051   -4.3680 H   0  0  0  0  0  0  0  0  0  0  0  0
    2.0848    9.9262   -3.2292 H   0  0  0  0  0  0  0  0  0  0  0  0
    0.2046    8.2077   -2.3178 H   0  0  0  0  0  0  0  0  0  0  0  0
    1.8557    8.4389   -1.5670 H   0  0  0  0  0  0  0  0  0  0  0  0
    0.8142    8.7729    0.3652 H   0  0  0  0  0  0  0  0  0  0  0  0
    0.2556   10.3488   -0.3357 H   0  0  0  0  0  0  0  0  0  0  0  0
   -0.9412    8.1021    0.4542 H   0  0  0  0  0  0  0  0  0  0  0  0
   -2.1112   11.7417   -0.0113 H   0  0  0  0  0  0  0  0  0  0  0  0
   -1.2645   11.2825   -1.5275 H   0  0  0  0  0  0  0  0  0  0  0  0
   -3.0463   11.5103   -1.5275 H   0  0  0  0  0  0  0  0  0  0  0  0
   -3.6498    9.3360    1.0607 H   0  0  0  0  0  0  0  0  0  0  0  0
   -4.4673   10.0326   -0.3791 H   0  0  0  0  0  0  0  0  0  0  0  0
   -3.9631    8.3086   -0.3791 H   0  0  0  0  0  0  0  0  0  0  0  0
    0.2228   11.5286   -1.5735 H   0  0  0  0  0  0  0  0  0  0  0  0
    1.6701   10.9172    0.2622 H   0  0  0  0  0  0  0  0  0  0  0  0
    2.9591   10.3744   -0.8335 H   0  0  0  0  0  0  0  0  0  0  0  0
    2.9461   12.8302    0.6290 H   0  0  0  0  0  0  0  0  0  0  0  0
    4.0288   12.4888   -0.7180 H   0  0  0  0  0  0  0  0  0  0  0  0
    1.1998   13.8496    0.6440 H   0  0  0  0  0  0  0  0  0  0  0  0
    0.6389   14.9666   -0.6462 H   0  0  0  0  0  0  0  0  0  0  0  0
    0.1018   13.2525   -0.6462 H   0  0  0  0  0  0  0  0  0  0  0  0
    3.8532   14.3690   -2.2358 H   0  0  0  0  0  0  0  0  0  0  0  0
    3.6740   15.1073    0.2266 H   0  0  0  0  0  0  0  0  0  0  0  0
    4.3564   16.2350   -1.0588 H   0  0  0  0  0  0  0  0  0  0  0  0
    2.7343   17.3258    0.7079 H   0  0  0  0  0  0  0  0  0  0  0  0
    0.2582   15.9848   -2.1861 H   0  0  0  0  0  0  0  0  0  0  0  0
    1.6903   18.3964   -3.4614 H   0  0  0  0  0  0  0  0  0  0  0  0
    0.4428   17.3273   -4.2436 H   0  0  0  0  0  0  0  0  0  0  0  0
   -0.5056   19.4908   -3.5101 H   0  0  0  0  0  0  0  0  0  0  0  0
   -1.2358   18.0741   -2.6581 H   0  0  0  0  0  0  0  0  0  0  0  0
   -0.8439   19.8184   -1.0569 H   0  0  0  0  0  0  0  0  0  0  0  0
    1.1010   20.5150   -2.5420 H   0  0  0  0  0  0  0  0  0  0  0  0
   -0.9045   17.4088    1.1548 H   0  0  0  0  0  0  0  0  0  0  0  0
   -1.7392   17.9485   -0.3414 H   0  0  0  0  0  0  0  0  0  0  0  0
   -0.7940   16.4210   -0.3414 H   0  0  0  0  0  0  0  0  0  0  0  0
    0.5642   18.4484    1.7984 H   0  0  0  0  0  0  0  0  0  0  0  0
    2.0102   19.0211    0.8997 H   0  0  0  0  0  0  0  0  0  0  0  0
    0.5058   20.0027    0.8997 H   0  0  0  0  0  0  0  0  0  0  0  0
    3.9924   16.9123   -2.9441 H   0  0  0  0  0  0  0  0  0  0  0  0
    3.9034   15.7403   -4.3025 H   0  0  0  0  0  0  0  0  0  0  0  0
    2.8520   17.1967   -4.3025 H   0  0  0  0  0  0  0  0  0  0  0  0
    0.7475   15.2882   -4.4772 H   0  0  0  0  0  0  0  0  0  0  0  0
    2.3461   14.3645   -4.6350 H   0  0  0  0  0  0  0  0  0  0  0  0
   -0.0278   13.6660   -2.8848 H   0  0  0  0  0  0  0  0  0  0  0  0
    0.6277   12.7670   -4.3096 H   0  0  0  0  0  0  0  0  0  0  0  0
    3.9095   11.9397   -2.7237 H   0  0  0  0  0  0  0  0  0  0  0  0
    2.8164   11.3617   -4.0266 H   0  0  0  0  0  0  0  0  0  0  0  0
    3.3927   13.0630   -4.0266 H   0  0  0  0  0  0  0  0  0  0  0  0
  1  2  1  0
  2  3  1  0
  3  4  1  0
  4  5  1  0
  5  6  1  0
  6  7  1  0
  7  8  1  0
  7  9  1  0
  2 10  1  0
 10 11  1  0
 11 12  1  0
 12 13  1  0
 13 14  1  1
 13 15  1  0
 15 16  1  0
 16 17  1  0
 17 18  2  0
 18 19  1  0
 19 20  1  0
 20 21  1  0
 21 22  1  0
 22 23  1  0
 22 24  1  0
 24 25  1  0
 24 26  1  0
 19 27  1  0
 27 28  1  6
 27 29  1  0
 29 30  1  0
 30 31  1  0
 31 32  1  6
  7  5  1  0
 31 10  1  0
 31 13  1  0
 27 15  1  0
 24 18  1  0
  1 33  1  0
  1 34  1  0
  1 35  1  0
  2 36  1  6
  3 37  1  0
  3 38  1  0
  4 39  1  0
  4 40  1  0
  5 41  1  1
  8 42  1  0
  8 43  1  0
  8 44  1  0
  9 45  1  0
  9 46  1  0
  9 47  1  0
 10 48  1  1
 11 49  1  0
 11 50  1  0
 12 51  1  0
 12 52  1  0
 14 53  1  0
 14 54  1  0
 14 55  1  0
 15 56  1  6
 16 57  1  0
 16 58  1  0
 17 59  1  0
 19 60  1  1
 20 61  1  0
 20 62  1  0
 21 63  1  0
 21 64  1  0
 22 65  1  1
 23 66  1  0
 25 67  1  0
 25 68  1  0
 25 69  1  0
 26 70  1  0
 26 71  1  0
 26 72  1  0
 28 73  1  0
 28 74  1  0
 28 75  1  0
 29 76  1  0
 29 77  1  0
 30 78  1  0
 30 79  1  0
 32 80  1  0
 32 81  1  0
 32 82  1  0
M  END
>  <meeko>  (9) 
{"is_sidechain": [false], "intermolecular_energy": 2.731, "internal_energy": -0.839}

$$$$
EPH_relaxed_0001_pdb2pqr_Repair_316_r2_0001_out
     RDKit          3D

 82 86  0  0  0  0  0  0  0  0999 V2000
   -0.6360    8.1860   -0.8130 C   0  0  0  0  0  0  0  0  0  0  0  0
   -1.2990    9.4590   -0.2770 C   0  0  2  0  0  0  0  0  0  0  0  0
   -2.8240    9.2960   -0.1170 C   0  0  0  0  0  0  0  0  0  0  0  0
   -3.4160    8.1730   -0.9730 C   0  0  0  0  0  0  0  0  0  0  0  0
   -4.9130    8.1590   -0.9100 C   0  0  2  0  0  0  0  0  0  0  0  0
   -5.4850    6.8970   -0.5400 O   0  0  0  0  0  0  0  0  0  0  0  0
   -5.7840    7.3650   -1.8660 C   0  0  0  0  0  0  0  0  0  0  0  0
   -5.1860    6.5300   -2.9540 C   0  0  0  0  0  0  0  0  0  0  0  0
   -7.2090    7.7830   -2.0510 C   0  0  0  0  0  0  0  0  0  0  0  0
   -0.9940   10.6320   -1.2000 C   0  0  1  0  0  0  0  0  0  0  0  0
   -2.1790   11.6270   -1.3140 C   0  0  0  0  0  0  0  0  0  0  0  0
   -1.5640   13.0430   -1.4530 C   0  0  0  0  0  0  0  0  0  0  0  0
   -0.0660   12.7900   -1.7470 C   0  0  1  0  0  0  0  0  0  0  0  0
   -0.0050   12.4760   -3.2750 C   0  0  0  0  0  0  0  0  0  0  0  0
    0.9180   13.9390   -1.3530 C   0  0  2  0  0  0  0  0  0  0  0  0
    0.7000   15.2690   -2.0960 C   0  0  0  0  0  0  0  0  0  0  0  0
    1.4690   15.4240   -3.3660 C   0  0  0  0  0  0  0  0  0  0  0  0
    2.5130   14.6640   -3.7460 C   0  0  0  0  0  0  0  0  0  0  0  0
    3.0810   13.5840   -2.8160 C   0  0  1  0  0  0  0  0  0  0  0  0
    4.6280   13.6900   -2.7840 C   0  0  0  0  0  0  0  0  0  0  0  0
    5.2470   13.6440   -4.1780 C   0  0  0  0  0  0  0  0  0  0  0  0
    4.7010   14.7680   -5.0540 C   0  0  2  0  0  0  0  0  0  0  0  0
    5.1500   16.0210   -4.5300 O   0  0  0  0  0  0  0  0  0  0  0  0
    3.1500   14.7690   -5.1540 C   0  0  0  0  0  0  0  0  0  0  0  0
    2.6810   13.5530   -5.9910 C   0  0  0  0  0  0  0  0  0  0  0  0
    2.7230   16.0320   -5.9480 C   0  0  0  0  0  0  0  0  0  0  0  0
    2.4430   13.5160   -1.3620 C   0  0  1  0  0  0  0  0  0  0  0  0
    3.1840   14.5040   -0.4090 C   0  0  0  0  0  0  0  0  0  0  0  0
    2.6680   12.0750   -0.7680 C   0  0  0  0  0  0  0  0  0  0  0  0
    1.5990   11.0150   -1.0940 C   0  0  0  0  0  0  0  0  0  0  0  0
    0.1920   11.5520   -0.8130 C   0  0  2  0  0  0  0  0  0  0  0  0
    0.0930   11.8560    0.7210 C   0  0  0  0  0  0  0  0  0  0  0  0
   -0.3097    7.5596    0.0303 H   0  0  0  0  0  0  0  0  0  0  0  0
   -1.3577    7.6274   -1.4271 H   0  0  0  0  0  0  0  0  0  0  0  0
    0.2355    8.4571   -1.4271 H   0  0  0  0  0  0  0  0  0  0  0  0
   -0.8816    9.6543    0.7218 H   0  0  0  0  0  0  0  0  0  0  0  0
   -3.0411    9.0789    0.9393 H   0  0  0  0  0  0  0  0  0  0  0  0
   -3.2851   10.2355   -0.4556 H   0  0  0  0  0  0  0  0  0  0  0  0
   -3.1045    8.3190   -2.0178 H   0  0  0  0  0  0  0  0  0  0  0  0
   -3.0472    7.2131   -0.5824 H   0  0  0  0  0  0  0  0  0  0  0  0
   -4.9329    9.2133   -0.5968 H   0  0  0  0  0  0  0  0  0  0  0  0
   -4.6003    5.7122   -2.5087 H   0  0  0  0  0  0  0  0  0  0  0  0
   -5.9892    6.1090   -3.5766 H   0  0  0  0  0  0  0  0  0  0  0  0
   -4.5288    7.1549   -3.5766 H   0  0  0  0  0  0  0  0  0  0  0  0
   -7.6812    7.9215   -1.0672 H   0  0  0  0  0  0  0  0  0  0  0  0
   -7.2438    8.7292   -2.6109 H   0  0  0  0  0  0  0  0  0  0  0  0
   -7.7494    7.0055   -2.6109 H   0  0  0  0  0  0  0  0  0  0  0  0
   -0.7591   10.0829   -2.1238 H   0  0  0  0  0  0  0  0  0  0  0  0
   -2.7882   11.3904   -2.1988 H   0  0  0  0  0  0  0  0  0  0  0  0
   -2.8319   11.5655   -0.4309 H   0  0  0  0  0  0  0  0  0  0  0  0
   -2.0353   13.5915   -2.2818 H   0  0  0  0  0  0  0  0  0  0  0  0
   -1.7149   13.6541   -0.5509 H   0  0  0  0  0  0  0  0  0  0  0  0
    0.2029   11.4058   -3.4214 H   0  0  0  0  0  0  0  0  0  0  0  0
   -0.9691   12.7292   -3.7401 H   0  0  0  0  0  0  0  0  0  0  0  0
    0.7942   13.0718   -3.7401 H   0  0  0  0  0  0  0  0  0  0  0  0
    0.6457   14.1344   -0.3053 H   0  0  0  0  0  0  0  0  0  0  0  0
   -0.3705   15.3535   -2.3345 H   0  0  0  0  0  0  0  0  0  0  0  0
    1.0649   16.0575   -1.4214 H   0  0  0  0  0  0  0  0  0  0  0  0
    1.1560   16.2273   -4.0492 H   0  0  0  0  0  0  0  0  0  0  0  0
    2.7823   12.6191   -3.2516 H   0  0  0  0  0  0  0  0  0  0  0  0
    4.9064   14.6407   -2.3058 H   0  0  0  0  0  0  0  0  0  0  0  0
    5.0101   12.8260   -2.2205 H   0  0  0  0  0  0  0  0  0  0  0  0
    6.3382   13.7528   -4.0912 H   0  0  0  0  0  0  0  0  0  0  0  0
    4.9926   12.6805   -4.6437 H   0  0  0  0  0  0  0  0  0  0  0  0
    5.0807   14.6050   -6.0734 H   0  0  0  0  0  0  0  0  0  0  0  0
    5.8310   16.3650   -5.1320 H   0  0  0  0  0  0  0  0  0  0  0  0
    2.3683   12.7423   -5.3165 H   0  0  0  0  0  0  0  0  0  0  0  0
    1.8328   13.8498   -6.6255 H   0  0  0  0  0  0  0  0  0  0  0  0
    3.5088   13.2034   -6.6255 H   0  0  0  0  0  0  0  0  0  0  0  0
    2.4521   16.8331   -5.2446 H   0  0  0  0  0  0  0  0  0  0  0  0
    3.5579   16.3667   -6.5811 H   0  0  0  0  0  0  0  0  0  0  0  0
    1.8562   15.7914   -6.5811 H   0  0  0  0  0  0  0  0  0  0  0  0
    2.9780   14.2294    0.6361 H   0  0  0  0  0  0  0  0  0  0  0  0
    4.2668   14.4508   -0.5955 H   0  0  0  0  0  0  0  0  0  0  0  0
    2.8297   15.5285   -0.5955 H   0  0  0  0  0  0  0  0  0  0  0  0
    3.6311   11.7046   -1.1491 H   0  0  0  0  0  0  0  0  0  0  0  0
    2.6229   12.2032    0.3236 H   0  0  0  0  0  0  0  0  0  0  0  0
    1.6747   10.7425   -2.1570 H   0  0  0  0  0  0  0  0  0  0  0  0
    1.7723   10.1344   -0.4579 H   0  0  0  0  0  0  0  0  0  0  0  0
    0.3842   10.9618    1.2916 H   0  0  0  0  0  0  0  0  0  0  0  0
    0.7666   12.6879    0.9742 H   0  0  0  0  0  0  0  0  0  0  0  0
   -0.9414   12.1317    0.9742 H   0  0  0  0  0  0  0  0  0  0  0  0
  1  2  1  0
  2  3  1  0
  3  4  1  0
  4  5  1  0
  5  6  1  0
  6  7  1  0
  7  8  1  0
  7  9  1  0
  2 10  1  0
 10 11  1  0
 11 12  1  0
 12 13  1  0
 13 14  1  6
 13 15  1  0
 15 16  1  0
 16 17  1  0
 17 18  2  0
 18 19  1  0
 19 20  1  0
 20 21  1  0
 21 22  1  0
 22 23  1  0
 22 24  1  0
 24 25  1  0
 24 26  1  0
 19 27  1  0
 27 28  1  1
 27 29  1  0
 29 30  1  0
 30 31  1  0
 31 32  1  1
  7  5  1  0
 31 10  1  0
 31 13  1  0
 27 15  1  0
 24 18  1  0
  1 33  1  0
  1 34  1  0
  1 35  1  0
  2 36  1  1
  3 37  1  0
  3 38  1  0
  4 39  1  0
  4 40  1  0
  5 41  1  1
  8 42  1  0
  8 43  1  0
  8 44  1  0
  9 45  1  0
  9 46  1  0
  9 47  1  0
 10 48  1  6
 11 49  1  0
 11 50  1  0
 12 51  1  0
 12 52  1  0
 14 53  1  0
 14 54  1  0
 14 55  1  0
 15 56  1  1
 16 57  1  0
 16 58  1  0
 17 59  1  0
 19 60  1  6
 20 61  1  0
 20 62  1  0
 21 63  1  0
 21 64  1  0
 22 65  1  6
 23 66  1  0
 25 67  1  0
 25 68  1  0
 25 69  1  0
 26 70  1  0
 26 71  1  0
 26 72  1  0
 28 73  1  0
 28 74  1  0
 28 75  1  0
 29 76  1  0
 29 77  1  0
 30 78  1  0
 30 79  1  0
 32 80  1  0
 32 81  1  0
 32 82  1  0
M  END
>  <meeko>  (10) 
{"is_sidechain": [false], "intermolecular_energy": 2.731, "internal_energy": -0.839}

$$$$
EPH_relaxed_0001_pdb2pqr_Repair_316_r2_0001_out
     RDKit          3D

 82 86  0  0  0  0  0  0  0  0999 V2000
    4.6010   10.8800   -4.7950 C   0  0  0  0  0  0  0  0  0  0  0  0
    4.0100   11.1770   -3.4140 C   0  0  2  0  0  0  0  0  0  0  0  0
    2.5260   10.7700   -3.3180 C   0  0  0  0  0  0  0  0  0  0  0  0
    2.1670   10.0570   -2.0110 C   0  0  0  0  0  0  0  0  0  0  0  0
    0.7180    9.6790   -1.9660 C   0  0  2  0  0  0  0  0  0  0  0  0
   -0.1890   10.7450   -2.2780 O   0  0  0  0  0  0  0  0  0  0  0  0
   -0.2580   10.2250   -0.9400 C   0  0  0  0  0  0  0  0  0  0  0  0
    0.1780   11.1950    0.1130 C   0  0  0  0  0  0  0  0  0  0  0  0
   -1.5080    9.4500   -0.6580 C   0  0  0  0  0  0  0  0  0  0  0  0
    4.1670   12.6580   -3.0890 C   0  0  1  0  0  0  0  0  0  0  0  0
    5.3140   13.3280   -3.8920 C   0  0  0  0  0  0  0  0  0  0  0  0
    4.8590   14.7780   -4.1960 C   0  0  0  0  0  0  0  0  0  0  0  0
    3.6280   15.0000   -3.2860 C   0  0  1  0  0  0  0  0  0  0  0  0
    4.2220   15.3470   -1.8850 C   0  0  0  0  0  0  0  0  0  0  0  0
    2.6030   16.0810   -3.7620 C   0  0  2  0  0  0  0  0  0  0  0  0
    3.1580   17.5130   -3.8490 C   0  0  0  0  0  0  0  0  0  0  0  0
    3.0160   18.3290   -2.6070 C   0  0  0  0  0  0  0  0  0  0  0  0
    2.2170   18.0340   -1.5650 C   0  0  0  0  0  0  0  0  0  0  0  0
    1.2730   16.8260   -1.6130 C   0  0  1  0  0  0  0  0  0  0  0  0
   -0.1340   17.2470   -1.1120 C   0  0  0  0  0  0  0  0  0  0  0  0
   -0.0920   17.9010    0.2660 C   0  0  0  0  0  0  0  0  0  0  0  0
    0.8110   19.1320    0.2590 C   0  0  2  0  0  0  0  0  0  0  0  0
    0.2150   20.1350   -0.5700 O   0  0  0  0  0  0  0  0  0  0  0  0
    2.2520   18.8320   -0.2380 C   0  0  0  0  0  0  0  0  0  0  0  0
    3.0010   17.9820    0.8190 C   0  0  0  0  0  0  0  0  0  0  0  0
    3.0160   20.1800   -0.3310 C   0  0  0  0  0  0  0  0  0  0  0  0
    1.2190   16.0430   -2.9950 C   0  0  1  0  0  0  0  0  0  0  0  0
    0.1680   16.7030   -3.9400 C   0  0  0  0  0  0  0  0  0  0  0  0
    0.7190   14.5730   -2.7340 C   0  0  0  0  0  0  0  0  0  0  0  0
    1.7940   13.5260   -2.3850 C   0  0  0  0  0  0  0  0  0  0  0  0
    2.9570   13.5810   -3.3800 C   0  0  2  0  0  0  0  0  0  0  0  0
    2.3940   13.2150   -4.7960 C   0  0  0  0  0  0  0  0  0  0  0  0
    5.5783   10.3889   -4.6777 H   0  0  0  0  0  0  0  0  0  0  0  0
    3.9214   10.2164   -5.3497 H   0  0  0  0  0  0  0  0  0  0  0  0
    4.7279   11.8214   -5.3497 H   0  0  0  0  0  0  0  0  0  0  0  0
    4.5651   10.5749   -2.6797 H   0  0  0  0  0  0  0  0  0  0  0  0
    1.9108   11.6783   -3.3985 H   0  0  0  0  0  0  0  0  0  0  0  0
    2.3338   10.0594   -4.1354 H   0  0  0  0  0  0  0  0  0  0  0  0
    2.7762    9.1453   -1.9233 H   0  0  0  0  0  0  0  0  0  0  0  0
    2.3675   10.7467   -1.1778 H   0  0  0  0  0  0  0  0  0  0  0  0
    0.9512    8.6540   -2.2900 H   0  0  0  0  0  0  0  0  0  0  0  0
   -0.0143   10.7671    1.1079 H   0  0  0  0  0  0  0  0  0  0  0  0
    1.2536   11.3972    0.0025 H   0  0  0  0  0  0  0  0  0  0  0  0
   -0.3848   12.1336    0.0025 H   0  0  0  0  0  0  0  0  0  0  0  0
   -1.6481    9.3632    0.4296 H   0  0  0  0  0  0  0  0  0  0  0  0
   -2.3703    9.9721   -1.0982 H   0  0  0  0  0  0  0  0  0  0  0  0
   -1.4238    8.4455   -1.0982 H   0  0  0  0  0  0  0  0  0  0  0  0
    4.3382   12.5921   -2.0044 H   0  0  0  0  0  0  0  0  0  0  0  0
    6.2382   13.3381   -3.2956 H   0  0  0  0  0  0  0  0  0  0  0  0
    5.5209   12.7760   -4.8207 H   0  0  0  0  0  0  0  0  0  0  0  0
    5.6569   15.4946   -3.9514 H   0  0  0  0  0  0  0  0  0  0  0  0
    4.6232   14.9266   -5.2601 H   0  0  0  0  0  0  0  0  0  0  0  0
    3.5577   14.9589   -1.0988 H   0  0  0  0  0  0  0  0  0  0  0  0
    5.2165   14.8878   -1.7844 H   0  0  0  0  0  0  0  0  0  0  0  0
    4.3104   16.4388   -1.7844 H   0  0  0  0  0  0  0  0  0  0  0  0
    2.4021   15.7755   -4.7995 H   0  0  0  0  0  0  0  0  0  0  0  0
    4.2288   17.4482   -4.0924 H   0  0  0  0  0  0  0  0  0  0  0  0
    2.5611   18.0242   -4.6186 H   0  0  0  0  0  0  0  0  0  0  0  0
    3.6150   19.2490   -2.5377 H   0  0  0  0  0  0  0  0  0  0  0  0
    1.7031   16.0773   -0.9315 H   0  0  0  0  0  0  0  0  0  0  0  0
   -0.5644   17.9618   -1.8288 H   0  0  0  0  0  0  0  0  0  0  0  0
   -0.7463   16.3367   -1.0315 H   0  0  0  0  0  0  0  0  0  0  0  0
   -1.1102   18.2032    0.5521 H   0  0  0  0  0  0  0  0  0  0  0  0
    0.3108   17.1745    0.9871 H   0  0  0  0  0  0  0  0  0  0  0  0
    0.9044   19.4791    1.2986 H   0  0  0  0  0  0  0  0  0  0  0  0
    0.9340   20.6690   -0.9480 H   0  0  0  0  0  0  0  0  0  0  0  0
    2.7105   18.3117    1.8274 H   0  0  0  0  0  0  0  0  0  0  0  0
    2.7383   16.9217    0.6900 H   0  0  0  0  0  0  0  0  0  0  0  0
    4.0860   18.1092    0.6900 H   0  0  0  0  0  0  0  0  0  0  0  0
    3.2271   20.5525    0.6823 H   0  0  0  0  0  0  0  0  0  0  0  0
    3.9625   20.0285   -0.8706 H   0  0  0  0  0  0  0  0  0  0  0  0
    2.3998   20.9143   -0.8706 H   0  0  0  0  0  0  0  0  0  0  0  0
   -0.6111   17.1923   -3.3370 H   0  0  0  0  0  0  0  0  0  0  0  0
    0.6646   17.4517   -4.5747 H   0  0  0  0  0  0  0  0  0  0  0  0
   -0.2907   15.9305   -4.5747 H   0  0  0  0  0  0  0  0  0  0  0  0
    0.0045   14.6078   -1.8984 H   0  0  0  0  0  0  0  0  0  0  0  0
    0.2921   14.2396   -3.6914 H   0  0  0  0  0  0  0  0  0  0  0  0
    2.1764   13.7265   -1.3733 H   0  0  0  0  0  0  0  0  0  0  0  0
    1.3382   12.5261   -2.4335 H   0  0  0  0  0  0  0  0  0  0  0  0
    1.4766   12.6186   -4.6829 H   0  0  0  0  0  0  0  0  0  0  0  0
    2.1656   14.1377   -5.3495 H   0  0  0  0  0  0  0  0  0  0  0  0
    3.1446   12.6317   -5.3495 H   0  0  0  0  0  0  0  0  0  0  0  0
  1  2  1  0
  2  3  1  0
  3  4  1  0
  4  5  1  0
  5  6  1  0
  6  7  1  0
  7  8  1  0
  7  9  1  0
  2 10  1  0
 10 11  1  0
 11 12  1  0
 12 13  1  0
 13 14  1  1
 13 15  1  0
 15 16  1  0
 16 17  1  0
 17 18  2  0
 18 19  1  0
 19 20  1  0
 20 21  1  0
 21 22  1  0
 22 23  1  0
 22 24  1  0
 24 25  1  0
 24 26  1  0
 19 27  1  0
 27 28  1  6
 27 29  1  0
 29 30  1  0
 30 31  1  0
 31 32  1  6
  7  5  1  0
 31 10  1  0
 31 13  1  0
 27 15  1  0
 24 18  1  0
  1 33  1  0
  1 34  1  0
  1 35  1  0
  2 36  1  1
  3 37  1  0
  3 38  1  0
  4 39  1  0
  4 40  1  0
  5 41  1  6
  8 42  1  0
  8 43  1  0
  8 44  1  0
  9 45  1  0
  9 46  1  0
  9 47  1  0
 10 48  1  1
 11 49  1  0
 11 50  1  0
 12 51  1  0
 12 52  1  0
 14 53  1  0
 14 54  1  0
 14 55  1  0
 15 56  1  6
 16 57  1  0
 16 58  1  0
 17 59  1  0
 19 60  1  1
 20 61  1  0
 20 62  1  0
 21 63  1  0
 21 64  1  0
 22 65  1  1
 23 66  1  0
 25 67  1  0
 25 68  1  0
 25 69  1  0
 26 70  1  0
 26 71  1  0
 26 72  1  0
 28 73  1  0
 28 74  1  0
 28 75  1  0
 29 76  1  0
 29 77  1  0
 30 78  1  0
 30 79  1  0
 32 80  1  0
 32 81  1  0
 32 82  1  0
M  END
>  <meeko>  (11) 
{"is_sidechain": [false], "intermolecular_energy": 2.731, "internal_energy": -0.839}

$$$$
EPH_relaxed_0001_pdb2pqr_Repair_316_r2_0001_out
     RDKit          3D

 82 86  0  0  0  0  0  0  0  0999 V2000
   -0.7360    9.5170   -2.9750 C   0  0  0  0  0  0  0  0  0  0  0  0
    0.4740    9.2170   -2.0860 C   0  0  2  0  0  0  0  0  0  0  0  0
    0.0630    8.8880   -0.6370 C   0  0  0  0  0  0  0  0  0  0  0  0
    0.9790    9.5110    0.4190 C   0  0  0  0  0  0  0  0  0  0  0  0
    0.2200   10.4070    1.3510 C   0  0  2  0  0  0  0  0  0  0  0  0
   -0.3280   11.5820    0.7390 O   0  0  0  0  0  0  0  0  0  0  0  0
    0.6840   11.8000    1.7360 C   0  0  0  0  0  0  0  0  0  0  0  0
    1.9560   12.3750    1.1960 C   0  0  0  0  0  0  0  0  0  0  0  0
    0.1630   12.4040    3.0020 C   0  0  0  0  0  0  0  0  0  0  0  0
    1.4340   10.4000   -2.0990 C   0  0  1  0  0  0  0  0  0  0  0  0
    2.8560   10.0110   -2.5850 C   0  0  0  0  0  0  0  0  0  0  0  0
    3.4080   11.2260   -3.3740 C   0  0  0  0  0  0  0  0  0  0  0  0
    2.4370   12.3820   -3.0380 C   0  0  1  0  0  0  0  0  0  0  0  0
    2.9080   12.9110   -1.6480 C   0  0  0  0  0  0  0  0  0  0  0  0
    2.3430   13.5340   -4.0920 C   0  0  2  0  0  0  0  0  0  0  0  0
    3.6490   14.3130   -4.3260 C   0  0  0  0  0  0  0  0  0  0  0  0
    3.8430   15.5080   -3.4520 C   0  0  0  0  0  0  0  0  0  0  0  0
    2.8850   16.1050   -2.7190 C   0  0  0  0  0  0  0  0  0  0  0  0
    1.4260   15.6380   -2.8000 C   0  0  1  0  0  0  0  0  0  0  0  0
    0.4950   16.8710   -2.9440 C   0  0  0  0  0  0  0  0  0  0  0  0
    0.7180   17.9040   -1.8430 C   0  0  0  0  0  0  0  0  0  0  0  0
    2.1660   18.3860   -1.8330 C   0  0  2  0  0  0  0  0  0  0  0  0
    2.4160   19.1200   -3.0360 O   0  0  0  0  0  0  0  0  0  0  0  0
    3.1960   17.2300   -1.7020 C   0  0  0  0  0  0  0  0  0  0  0  0
    3.1260   16.6290   -0.2760 C   0  0  0  0  0  0  0  0  0  0  0  0
    4.6170   17.8380   -1.8460 C   0  0  0  0  0  0  0  0  0  0  0  0
    1.1170   14.5110   -3.8770 C   0  0  1  0  0  0  0  0  0  0  0  0
    0.8200   15.1650   -5.2610 C   0  0  0  0  0  0  0  0  0  0  0  0
   -0.1930   13.7450   -3.4570 C   0  0  0  0  0  0  0  0  0  0  0  0
   -0.0210   12.5430   -2.5090 C   0  0  0  0  0  0  0  0  0  0  0  0
    1.0740   11.5990   -3.0130 C   0  0  2  0  0  0  0  0  0  0  0  0
    0.6170   11.0330   -4.4010 C   0  0  0  0  0  0  0  0  0  0  0  0
   -1.6102    9.7337   -2.3435 H   0  0  0  0  0  0  0  0  0  0  0  0
   -0.5174   10.3881   -3.6101 H   0  0  0  0  0  0  0  0  0  0  0  0
   -0.9497    8.6446   -3.6101 H   0  0  0  0  0  0  0  0  0  0  0  0
    0.9741    8.3276   -2.4970 H   0  0  0  0  0  0  0  0  0  0  0  0
   -0.9592    9.2599   -0.4730 H   0  0  0  0  0  0  0  0  0  0  0  0
    0.1360    7.7964   -0.5222 H   0  0  0  0  0  0  0  0  0  0  0  0
    1.4497    8.7060    1.0025 H   0  0  0  0  0  0  0  0  0  0  0  0
    1.7371   10.1171   -0.0986 H   0  0  0  0  0  0  0  0  0  0  0  0
   -0.1050    9.5451    1.9522 H   0  0  0  0  0  0  0  0  0  0  0  0
    2.6086   12.6700    2.0310 H   0  0  0  0  0  0  0  0  0  0  0  0
    2.4671   11.6204    0.5801 H   0  0  0  0  0  0  0  0  0  0  0  0
    1.7272   13.2572    0.5801 H   0  0  0  0  0  0  0  0  0  0  0  0
    0.6085   11.8876    3.8651 H   0  0  0  0  0  0  0  0  0  0  0  0
    0.4289   13.4709    3.0358 H   0  0  0  0  0  0  0  0  0  0  0  0
   -0.9313   12.2976    3.0358 H   0  0  0  0  0  0  0  0  0  0  0  0
    1.3705   10.6995   -1.0425 H   0  0  0  0  0  0  0  0  0  0  0  0
    3.5041    9.7929   -1.7234 H   0  0  0  0  0  0  0  0  0  0  0  0
    2.8246    9.1113   -3.2171 H   0  0  0  0  0  0  0  0  0  0  0  0
    4.4298   11.4696   -3.0474 H   0  0  0  0  0  0  0  0  0  0  0  0
    3.4661   11.0304   -4.4549 H   0  0  0  0  0  0  0  0  0  0  0  0
    2.4042   12.3452   -0.8504 H   0  0  0  0  0  0  0  0  0  0  0  0
    3.9967   12.7832   -1.5567 H   0  0  0  0  0  0  0  0  0  0  0  0
    2.6551   13.9776   -1.5567 H   0  0  0  0  0  0  0  0  0  0  0  0
    2.1526   12.9842   -5.0255 H   0  0  0  0  0  0  0  0  0  0  0  0
    4.4904   13.6257   -4.1540 H   0  0  0  0  0  0  0  0  0  0  0  0
    3.5959   14.6944   -5.3564 H   0  0  0  0  0  0  0  0  0  0  0  0
    4.8548   15.9368   -3.4031 H   0  0  0  0  0  0  0  0  0  0  0  0
    1.2188   15.1223   -1.8507 H   0  0  0  0  0  0  0  0  0  0  0  0
    0.6869   17.3460   -3.9174 H   0  0  0  0  0  0  0  0  0  0  0  0
   -0.5433   16.5167   -2.8643 H   0  0  0  0  0  0  0  0  0  0  0  0
    0.0536   18.7635   -2.0158 H   0  0  0  0  0  0  0  0  0  0  0  0
    0.4968   17.4361   -0.8723 H   0  0  0  0  0  0  0  0  0  0  0  0
    2.2955   19.0225   -0.9453 H   0  0  0  0  0  0  0  0  0  0  0  0
    3.1590   18.6910   -3.4920 H   0  0  0  0  0  0  0  0  0  0  0  0
    3.2199   17.4350    0.4666 H   0  0  0  0  0  0  0  0  0  0  0  0
    2.1621   16.1165   -0.1410 H   0  0  0  0  0  0  0  0  0  0  0  0
    3.9463   15.9087   -0.1410 H   0  0  0  0  0  0  0  0  0  0  0  0
    5.0411   18.0195   -0.8474 H   0  0  0  0  0  0  0  0  0  0  0  0
    5.2617   17.1370   -2.3963 H   0  0  0  0  0  0  0  0  0  0  0  0
    4.5551   18.7884   -2.3963 H   0  0  0  0  0  0  0  0  0  0  0  0
    0.3695   16.1569   -5.1087 H   0  0  0  0  0  0  0  0  0  0  0  0
    1.7582   15.2711   -5.8253 H   0  0  0  0  0  0  0  0  0  0  0  0
    0.1227   14.5284   -5.8253 H   0  0  0  0  0  0  0  0  0  0  0  0
   -0.8567   14.4682   -2.9604 H   0  0  0  0  0  0  0  0  0  0  0  0
   -0.5902   13.3206   -4.3909 H   0  0  0  0  0  0  0  0  0  0  0  0
    0.2528   12.9100   -1.5088 H   0  0  0  0  0  0  0  0  0  0  0  0
   -0.9705   11.9890   -2.4697 H   0  0  0  0  0  0  0  0  0  0  0  0
   -0.0670   10.1859   -4.2443 H   0  0  0  0  0  0  0  0  0  0  0  0
    0.0998   11.8221   -4.9665 H   0  0  0  0  0  0  0  0  0  0  0  0
    1.4974   10.6937   -4.9665 H   0  0  0  0  0  0  0  0  0  0  0  0
  1  2  1  0
  2  3  1  0
  3  4  1  0
  4  5  1  0
  5  6  1  0
  6  7  1  0
  7  8  1  0
  7  9  1  0
  2 10  1  0
 10 11  1  0
 11 12  1  0
 12 13  1  0
 13 14  1  1
 13 15  1  0
 15 16  1  0
 16 17  1  0
 17 18  2  0
 18 19  1  0
 19 20  1  0
 20 21  1  0
 21 22  1  0
 22 23  1  0
 22 24  1  0
 24 25  1  0
 24 26  1  0
 19 27  1  0
 27 28  1  6
 27 29  1  0
 29 30  1  0
 30 31  1  0
 31 32  1  6
  7  5  1  0
 31 10  1  0
 31 13  1  0
 27 15  1  0
 24 18  1  0
  1 33  1  0
  1 34  1  0
  1 35  1  0
  2 36  1  6
  3 37  1  0
  3 38  1  0
  4 39  1  0
  4 40  1  0
  5 41  1  1
  8 42  1  0
  8 43  1  0
  8 44  1  0
  9 45  1  0
  9 46  1  0
  9 47  1  0
 10 48  1  1
 11 49  1  0
 11 50  1  0
 12 51  1  0
 12 52  1  0
 14 53  1  0
 14 54  1  0
 14 55  1  0
 15 56  1  6
 16 57  1  0
 16 58  1  0
 17 59  1  0
 19 60  1  1
 20 61  1  0
 20 62  1  0
 21 63  1  0
 21 64  1  0
 22 65  1  1
 23 66  1  0
 25 67  1  0
 25 68  1  0
 25 69  1  0
 26 70  1  0
 26 71  1  0
 26 72  1  0
 28 73  1  0
 28 74  1  0
 28 75  1  0
 29 76  1  0
 29 77  1  0
 30 78  1  0
 30 79  1  0
 32 80  1  0
 32 81  1  0
 32 82  1  0
M  END
>  <meeko>  (12) 
{"is_sidechain": [false], "intermolecular_energy": 2.731, "internal_energy": -0.839}

$$$$
EPH_relaxed_0001_pdb2pqr_Repair_316_r2_0001_out
     RDKit          3D

 82 86  0  0  0  0  0  0  0  0999 V2000
    5.5580   15.2850   -3.9170 C   0  0  0  0  0  0  0  0  0  0  0  0
    4.3440   16.2150   -3.9980 C   0  0  2  0  0  0  0  0  0  0  0  0
    4.6590   17.6280   -3.4680 C   0  0  0  0  0  0  0  0  0  0  0  0
    4.4890   17.7690   -1.9530 C   0  0  0  0  0  0  0  0  0  0  0  0
    3.0900   18.1610   -1.5860 C   0  0  2  0  0  0  0  0  0  0  0  0
    2.9660   19.4680   -1.0090 O   0  0  0  0  0  0  0  0  0  0  0  0
    2.6250   18.3630   -0.1560 C   0  0  0  0  0  0  0  0  0  0  0  0
    3.5570   18.1770    1.0010 C   0  0  0  0  0  0  0  0  0  0  0  0
    1.1620   18.2610    0.1420 C   0  0  0  0  0  0  0  0  0  0  0  0
    3.1770   15.6160   -3.2230 C   0  0  1  0  0  0  0  0  0  0  0  0
    1.8990   16.4930   -3.2950 C   0  0  0  0  0  0  0  0  0  0  0  0
    0.6900   15.5210   -3.3130 C   0  0  0  0  0  0  0  0  0  0  0  0
    1.2860   14.1500   -2.9200 C   0  0  1  0  0  0  0  0  0  0  0  0
    1.3910   14.1900   -1.3630 C   0  0  0  0  0  0  0  0  0  0  0  0
    0.5040   12.8890   -3.4130 C   0  0  2  0  0  0  0  0  0  0  0  0
   -0.9260   12.7510   -2.8620 C   0  0  0  0  0  0  0  0  0  0  0  0
   -1.0460   11.9800   -1.5890 C   0  0  0  0  0  0  0  0  0  0  0  0
   -0.0970   11.1820   -1.0650 C   0  0  0  0  0  0  0  0  0  0  0  0
    1.2120   10.9150   -1.8190 C   0  0  1  0  0  0  0  0  0  0  0  0
    1.5240    9.3960   -1.7920 C   0  0  0  0  0  0  0  0  0  0  0  0
    1.5390    8.8260   -0.3770 C   0  0  0  0  0  0  0  0  0  0  0  0
    0.2010    9.0600    0.3190 C   0  0  2  0  0  0  0  0  0  0  0  0
   -0.8050    8.2860   -0.3430 O   0  0  0  0  0  0  0  0  0  0  0  0
   -0.2240   10.5550    0.3450 C   0  0  0  0  0  0  0  0  0  0  0  0
    0.6980   11.3400    1.3110 C   0  0  0  0  0  0  0  0  0  0  0  0
   -1.6520   10.6350    0.9470 C   0  0  0  0  0  0  0  0  0  0  0  0
    1.3090   11.5330   -3.2800 C   0  0  1  0  0  0  0  0  0  0  0  0
    0.6930   10.5450   -4.3170 C   0  0  0  0  0  0  0  0  0  0  0  0
    2.8260   11.6970   -3.6690 C   0  0  0  0  0  0  0  0  0  0  0  0
    3.5100   13.0150   -3.2580 C   0  0  0  0  0  0  0  0  0  0  0  0
    2.6650   14.2240   -3.6710 C   0  0  2  0  0  0  0  0  0  0  0  0
    2.5610   14.2220   -5.2340 C   0  0  0  0  0  0  0  0  0  0  0  0
    5.8051   15.0957   -2.8620 H   0  0  0  0  0  0  0  0  0  0  0  0
    5.3243   14.3327   -4.4154 H   0  0  0  0  0  0  0  0  0  0  0  0
    6.4166   15.7586   -4.4154 H   0  0  0  0  0  0  0  0  0  0  0  0
    4.0730   16.3134   -5.0596 H   0  0  0  0  0  0  0  0  0  0  0  0
    5.7007   17.8710   -3.7247 H   0  0  0  0  0  0  0  0  0  0  0  0
    3.9398   18.3152   -3.9376 H   0  0  0  0  0  0  0  0  0  0  0  0
    4.7260   16.8062   -1.4766 H   0  0  0  0  0  0  0  0  0  0  0  0
    5.1693   18.5598   -1.6039 H   0  0  0  0  0  0  0  0  0  0  0  0
    2.6811   17.5688   -2.4179 H   0  0  0  0  0  0  0  0  0  0  0  0
    2.9993   18.2883    1.9426 H   0  0  0  0  0  0  0  0  0  0  0  0
    4.0024   17.1723    0.9552 H   0  0  0  0  0  0  0  0  0  0  0  0
    4.3540   18.9338    0.9552 H   0  0  0  0  0  0  0  0  0  0  0  0
    1.0096   18.2504    1.2313 H   0  0  0  0  0  0  0  0  0  0  0  0
    0.6381   19.1248   -0.2931 H   0  0  0  0  0  0  0  0  0  0  0  0
    0.7630   17.3329   -0.2931 H   0  0  0  0  0  0  0  0  0  0  0  0
    3.6356   15.5452   -2.2256 H   0  0  0  0  0  0  0  0  0  0  0  0
    1.8420   17.1523   -2.4163 H   0  0  0  0  0  0  0  0  0  0  0  0
    1.9071   17.1302   -4.1916 H   0  0  0  0  0  0  0  0  0  0  0  0
   -0.0724   15.8360   -2.5853 H   0  0  0  0  0  0  0  0  0  0  0  0
    0.1914   15.4936   -4.2931 H   0  0  0  0  0  0  0  0  0  0  0  0
    0.4490   13.8312   -0.9226 H   0  0  0  0  0  0  0  0  0  0  0  0
    2.2187   13.5442   -1.0346 H   0  0  0  0  0  0  0  0  0  0  0  0
    1.5792   15.2228   -1.0346 H   0  0  0  0  0  0  0  0  0  0  0  0
    0.3911   13.0879   -4.4890 H   0  0  0  0  0  0  0  0  0  0  0  0
   -1.3217   13.7621   -2.6858 H   0  0  0  0  0  0  0  0  0  0  0  0
   -1.4900   12.1832   -3.6166 H   0  0  0  0  0  0  0  0  0  0  0  0
   -1.9901   12.0719   -1.0320 H   0  0  0  0  0  0  0  0  0  0  0  0
    1.9940   11.4660   -1.2761 H   0  0  0  0  0  0  0  0  0  0  0  0
    0.7561    8.8680   -2.3765 H   0  0  0  0  0  0  0  0  0  0  0  0
    2.5276    9.2540   -2.2194 H   0  0  0  0  0  0  0  0  0  0  0  0
    1.7349    7.7447   -0.4264 H   0  0  0  0  0  0  0  0  0  0  0  0
    2.3275    9.3336    0.1979 H   0  0  0  0  0  0  0  0  0  0  0  0
    0.3167    8.7486    1.3676 H   0  0  0  0  0  0  0  0  0  0  0  0
   -0.8600    7.4270    0.1090 H   0  0  0  0  0  0  0  0  0  0  0  0
    0.4238   11.1065    2.3504 H   0  0  0  0  0  0  0  0  0  0  0  0
    1.7447   11.0516    1.1343 H   0  0  0  0  0  0  0  0  0  0  0  0
    0.5802   12.4193    1.1343 H   0  0  0  0  0  0  0  0  0  0  0  0
   -1.5877   10.6314    2.0451 H   0  0  0  0  0  0  0  0  0  0  0  0
   -2.1400   11.5619    0.6113 H   0  0  0  0  0  0  0  0  0  0  0  0
   -2.2405    9.7684    0.6113 H   0  0  0  0  0  0  0  0  0  0  0  0
    0.1832    9.7273   -3.7864 H   0  0  0  0  0  0  0  0  0  0  0  0
   -0.0315   11.0805   -4.9481 H   0  0  0  0  0  0  0  0  0  0  0  0
    1.4927   10.1301   -4.9481 H   0  0  0  0  0  0  0  0  0  0  0  0
    3.3814   10.8728   -3.1976 H   0  0  0  0  0  0  0  0  0  0  0  0
    2.8430   11.6947   -4.7689 H   0  0  0  0  0  0  0  0  0  0  0  0
    3.6437   13.0257   -2.1662 H   0  0  0  0  0  0  0  0  0  0  0  0
    4.4836   13.0779   -3.7661 H   0  0  0  0  0  0  0  0  0  0  0  0
    1.5020   14.2016   -5.5310 H   0  0  0  0  0  0  0  0  0  0  0  0
    3.0367   15.1295   -5.6343 H   0  0  0  0  0  0  0  0  0  0  0  0
    3.0712   13.3335   -5.6343 H   0  0  0  0  0  0  0  0  0  0  0  0
  1  2  1  0
  2  3  1  0
  3  4  1  0
  4  5  1  0
  5  6  1  0
  6  7  1  0
  7  8  1  0
  7  9  1  0
  2 10  1  0
 10 11  1  0
 11 12  1  0
 12 13  1  0
 13 14  1  1
 13 15  1  0
 15 16  1  0
 16 17  1  0
 17 18  2  0
 18 19  1  0
 19 20  1  0
 20 21  1  0
 21 22  1  0
 22 23  1  0
 22 24  1  0
 24 25  1  0
 24 26  1  0
 19 27  1  0
 27 28  1  6
 27 29  1  0
 29 30  1  0
 30 31  1  0
 31 32  1  6
  7  5  1  0
 31 10  1  0
 31 13  1  0
 27 15  1  0
 24 18  1  0
  1 33  1  0
  1 34  1  0
  1 35  1  0
  2 36  1  6
  3 37  1  0
  3 38  1  0
  4 39  1  0
  4 40  1  0
  5 41  1  6
  8 42  1  0
  8 43  1  0
  8 44  1  0
  9 45  1  0
  9 46  1  0
  9 47  1  0
 10 48  1  1
 11 49  1  0
 11 50  1  0
 12 51  1  0
 12 52  1  0
 14 53  1  0
 14 54  1  0
 14 55  1  0
 15 56  1  6
 16 57  1  0
 16 58  1  0
 17 59  1  0
 19 60  1  1
 20 61  1  0
 20 62  1  0
 21 63  1  0
 21 64  1  0
 22 65  1  1
 23 66  1  0
 25 67  1  0
 25 68  1  0
 25 69  1  0
 26 70  1  0
 26 71  1  0
 26 72  1  0
 28 73  1  0
 28 74  1  0
 28 75  1  0
 29 76  1  0
 29 77  1  0
 30 78  1  0
 30 79  1  0
 32 80  1  0
 32 81  1  0
 32 82  1  0
M  END
>  <meeko>  (13) 
{"is_sidechain": [false], "intermolecular_energy": 2.731, "internal_energy": -0.839}

$$$$
EPH_relaxed_0001_pdb2pqr_Repair_316_r2_0001_out
     RDKit          3D

 82 86  0  0  0  0  0  0  0  0999 V2000
   -0.2130   16.1710   -7.1440 C   0  0  0  0  0  0  0  0  0  0  0  0
    1.2470   15.9670   -6.7300 C   0  0  2  0  0  0  0  0  0  0  0  0
    2.1960   15.9320   -7.9440 C   0  0  0  0  0  0  0  0  0  0  0  0
    1.7830   16.8780   -9.0750 C   0  0  0  0  0  0  0  0  0  0  0  0
    1.1880   16.1330  -10.2320 C   0  0  2  0  0  0  0  0  0  0  0  0
    1.0050   14.7290  -10.0090 O   0  0  0  0  0  0  0  0  0  0  0  0
    1.9440   15.0910  -11.0340 C   0  0  0  0  0  0  0  0  0  0  0  0
    3.3620   14.7370  -10.7130 C   0  0  0  0  0  0  0  0  0  0  0  0
    1.4750   14.7760  -12.4200 C   0  0  0  0  0  0  0  0  0  0  0  0
    1.3840   14.6800   -5.9240 C   0  0  1  0  0  0  0  0  0  0  0  0
    2.4370   13.7100   -6.5230 C   0  0  0  0  0  0  0  0  0  0  0  0
    3.1160   12.9940   -5.3270 C   0  0  0  0  0  0  0  0  0  0  0  0
    2.2150   13.3220   -4.1130 C   0  0  1  0  0  0  0  0  0  0  0  0
    1.0290   12.3110   -4.2090 C   0  0  0  0  0  0  0  0  0  0  0  0
    2.9020   13.2750   -2.7100 C   0  0  2  0  0  0  0  0  0  0  0  0
    3.4500   11.8970   -2.2980 C   0  0  0  0  0  0  0  0  0  0  0  0
    2.4950   11.0290   -1.5470 C   0  0  0  0  0  0  0  0  0  0  0  0
    1.3510   11.4420   -0.9700 C   0  0  0  0  0  0  0  0  0  0  0  0
    0.9670   12.9270   -0.9560 C   0  0  1  0  0  0  0  0  0  0  0  0
    0.5000   13.3280    0.4670 C   0  0  0  0  0  0  0  0  0  0  0  0
   -0.6180   12.4320    0.9910 C   0  0  0  0  0  0  0  0  0  0  0  0
   -0.1780   10.9700    1.0170 C   0  0  2  0  0  0  0  0  0  0  0  0
    0.8580   10.8180    1.9930 O   0  0  0  0  0  0  0  0  0  0  0  0
    0.3230   10.4570   -0.3620 C   0  0  0  0  0  0  0  0  0  0  0  0
   -0.8730   10.3370   -1.3390 C   0  0  0  0  0  0  0  0  0  0  0  0
    0.8680    9.0160   -0.1650 C   0  0  0  0  0  0  0  0  0  0  0  0
    2.0500   13.9290   -1.5480 C   0  0  1  0  0  0  0  0  0  0  0  0
    3.0590   14.3410   -0.4330 C   0  0  0  0  0  0  0  0  0  0  0  0
    1.3300   15.2520   -2.0070 C   0  0  0  0  0  0  0  0  0  0  0  0
    0.7770   15.2800   -3.4440 C   0  0  0  0  0  0  0  0  0  0  0  0
    1.8350   14.8100   -4.4480 C   0  0  2  0  0  0  0  0  0  0  0  0
    3.0310   15.8210   -4.3900 C   0  0  0  0  0  0  0  0  0  0  0  0
   -0.8403   16.2587   -6.2447 H   0  0  0  0  0  0  0  0  0  0  0  0
   -0.2995   17.0900   -7.7424 H   0  0  0  0  0  0  0  0  0  0  0  0
   -0.5481   15.3109   -7.7424 H   0  0  0  0  0  0  0  0  0  0  0  0
    1.5377   16.8273   -6.1092 H   0  0  0  0  0  0  0  0  0  0  0  0
    3.2037   16.2145   -7.6054 H   0  0  0  0  0  0  0  0  0  0  0  0
    2.1611   14.9104   -8.3503 H   0  0  0  0  0  0  0  0  0  0  0  0
    1.0392   17.5909   -8.6897 H   0  0  0  0  0  0  0  0  0  0  0  0
    2.6832   17.4009   -9.4304 H   0  0  0  0  0  0  0  0  0  0  0  0
    0.6075   17.0174  -10.5334 H   0  0  0  0  0  0  0  0  0  0  0  0
    3.4936   14.7041   -9.6214 H   0  0  0  0  0  0  0  0  0  0  0  0
    3.5999   13.7519  -11.1408 H   0  0  0  0  0  0  0  0  0  0  0  0
    4.0349   15.4947  -11.1408 H   0  0  0  0  0  0  0  0  0  0  0  0
    0.5629   14.1634  -12.3681 H   0  0  0  0  0  0  0  0  0  0  0  0
    1.2580   15.7121  -12.9553 H   0  0  0  0  0  0  0  0  0  0  0  0
    2.2595   14.2210  -12.9553 H   0  0  0  0  0  0  0  0  0  0  0  0
    0.3448   14.3221   -5.9693 H   0  0  0  0  0  0  0  0  0  0  0  0
    1.9457   12.9737   -7.1761 H   0  0  0  0  0  0  0  0  0  0  0  0
    3.1761   14.2543   -7.1292 H   0  0  0  0  0  0  0  0  0  0  0  0
    3.1578   11.9081   -5.4974 H   0  0  0  0  0  0  0  0  0  0  0  0
    4.1542   13.3252   -5.1774 H   0  0  0  0  0  0  0  0  0  0  0  0
    0.7020   12.0322   -3.1964 H   0  0  0  0  0  0  0  0  0  0  0  0
    0.1921   12.7778   -4.7491 H   0  0  0  0  0  0  0  0  0  0  0  0
    1.3574   11.4108   -4.7491 H   0  0  0  0  0  0  0  0  0  0  0  0
    3.7838   13.9157   -2.8579 H   0  0  0  0  0  0  0  0  0  0  0  0
    3.7481   11.3627   -3.2121 H   0  0  0  0  0  0  0  0  0  0  0  0
    4.2858   12.0951   -1.6109 H   0  0  0  0  0  0  0  0  0  0  0  0
    2.7475    9.9621   -1.4577 H   0  0  0  0  0  0  0  0  0  0  0  0
    0.1330   13.0318   -1.6656 H   0  0  0  0  0  0  0  0  0  0  0  0
    1.3578   13.2584    1.1521 H   0  0  0  0  0  0  0  0  0  0  0  0
    0.1071   14.3540    0.4123 H   0  0  0  0  0  0  0  0  0  0  0  0
   -0.8832   12.7464    2.0112 H   0  0  0  0  0  0  0  0  0  0  0  0
   -1.4861   12.5258    0.3220 H   0  0  0  0  0  0  0  0  0  0  0  0
   -1.0590   10.3642    1.2755 H   0  0  0  0  0  0  0  0  0  0  0  0
    1.3780   10.0340    1.7500 H   0  0  0  0  0  0  0  0  0  0  0  0
   -1.8070   10.2433   -0.7655 H   0  0  0  0  0  0  0  0  0  0  0  0
   -0.9203   11.2349   -1.9727 H   0  0  0  0  0  0  0  0  0  0  0  0
   -0.7410    9.4476   -1.9727 H   0  0  0  0  0  0  0  0  0  0  0  0
    0.9501    8.7989    0.9102 H   0  0  0  0  0  0  0  0  0  0  0  0
    0.1799    8.2966   -0.6329 H   0  0  0  0  0  0  0  0  0  0  0  0
    1.8600    8.9320   -0.6329 H   0  0  0  0  0  0  0  0  0  0  0  0
    2.6097   14.1575    0.5541 H   0  0  0  0  0  0  0  0  0  0  0  0
    3.9791   13.7466   -0.5333 H   0  0  0  0  0  0  0  0  0  0  0  0
    3.3001   15.4096   -0.5333 H   0  0  0  0  0  0  0  0  0  0  0  0
    0.4866   15.4263   -1.3226 H   0  0  0  0  0  0  0  0  0  0  0  0
    2.1105   16.0267   -1.9843 H   0  0  0  0  0  0  0  0  0  0  0  0
   -0.0979   14.6161   -3.5059 H   0  0  0  0  0  0  0  0  0  0  0  0
    0.4940   16.3139   -3.6909 H   0  0  0  0  0  0  0  0  0  0  0  0
    3.2815   16.0328   -3.3400 H   0  0  0  0  0  0  0  0  0  0  0  0
    3.9053   15.3840   -4.8946 H   0  0  0  0  0  0  0  0  0  0  0  0
    2.7457   16.7559   -4.8946 H   0  0  0  0  0  0  0  0  0  0  0  0
  1  2  1  0
  2  3  1  0
  3  4  1  0
  4  5  1  0
  5  6  1  0
  6  7  1  0
  7  8  1  0
  7  9  1  0
  2 10  1  0
 10 11  1  0
 11 12  1  0
 12 13  1  0
 13 14  1  1
 13 15  1  0
 15 16  1  0
 16 17  1  0
 17 18  2  0
 18 19  1  0
 19 20  1  0
 20 21  1  0
 21 22  1  0
 22 23  1  0
 22 24  1  0
 24 25  1  0
 24 26  1  0
 19 27  1  0
 27 28  1  1
 27 29  1  0
 29 30  1  0
 30 31  1  0
 31 32  1  6
  7  5  1  0
 31 10  1  0
 31 13  1  0
 27 15  1  0
 24 18  1  0
  1 33  1  0
  1 34  1  0
  1 35  1  0
  2 36  1  1
  3 37  1  0
  3 38  1  0
  4 39  1  0
  4 40  1  0
  5 41  1  6
  8 42  1  0
  8 43  1  0
  8 44  1  0
  9 45  1  0
  9 46  1  0
  9 47  1  0
 10 48  1  1
 11 49  1  0
 11 50  1  0
 12 51  1  0
 12 52  1  0
 14 53  1  0
 14 54  1  0
 14 55  1  0
 15 56  1  6
 16 57  1  0
 16 58  1  0
 17 59  1  0
 19 60  1  6
 20 61  1  0
 20 62  1  0
 21 63  1  0
 21 64  1  0
 22 65  1  1
 23 66  1  0
 25 67  1  0
 25 68  1  0
 25 69  1  0
 26 70  1  0
 26 71  1  0
 26 72  1  0
 28 73  1  0
 28 74  1  0
 28 75  1  0
 29 76  1  0
 29 77  1  0
 30 78  1  0
 30 79  1  0
 32 80  1  0
 32 81  1  0
 32 82  1  0
M  END
>  <meeko>  (14) 
{"is_sidechain": [false], "intermolecular_energy": 2.731, "internal_energy": -0.839}

$$$$
EPH_relaxed_0001_pdb2pqr_Repair_316_r2_0001_out
     RDKit          3D

 82 86  0  0  0  0  0  0  0  0999 V2000
    3.4680   12.3290   -5.3730 C   0  0  0  0  0  0  0  0  0  0  0  0
    2.5710   13.3590   -6.0650 C   0  0  2  0  0  0  0  0  0  0  0  0
    3.3880   14.4310   -6.8140 C   0  0  0  0  0  0  0  0  0  0  0  0
    2.5280   15.5210   -7.4590 C   0  0  0  0  0  0  0  0  0  0  0  0
    2.4970   15.3920   -8.9520 C   0  0  2  0  0  0  0  0  0  0  0  0
    2.2520   16.6180   -9.6540 O   0  0  0  0  0  0  0  0  0  0  0  0
    1.2450   15.6010   -9.7840 C   0  0  0  0  0  0  0  0  0  0  0  0
   -0.0630   15.9550   -9.1500 C   0  0  0  0  0  0  0  0  0  0  0  0
    1.1820   14.9870  -11.1480 C   0  0  0  0  0  0  0  0  0  0  0  0
    1.6550   14.0220   -5.0430 C   0  0  1  0  0  0  0  0  0  0  0  0
    0.5390   13.0710   -4.5350 C   0  0  0  0  0  0  0  0  0  0  0  0
    0.2970   13.4200   -3.0440 C   0  0  0  0  0  0  0  0  0  0  0  0
    1.0330   14.7640   -2.8340 C   0  0  1  0  0  0  0  0  0  0  0  0
    0.0500   15.8480   -3.3780 C   0  0  0  0  0  0  0  0  0  0  0  0
    1.4910   15.0810   -1.3730 C   0  0  2  0  0  0  0  0  0  0  0  0
    0.3520   15.2130   -0.3470 C   0  0  0  0  0  0  0  0  0  0  0  0
   -0.1950   16.5910   -0.1750 C   0  0  0  0  0  0  0  0  0  0  0  0
    0.3920   17.7250   -0.6020 C   0  0  0  0  0  0  0  0  0  0  0  0
    1.7830   17.6960   -1.2470 C   0  0  1  0  0  0  0  0  0  0  0  0
    2.6630   18.8150   -0.6300 C   0  0  0  0  0  0  0  0  0  0  0  0
    2.0080   20.1900   -0.7180 C   0  0  0  0  0  0  0  0  0  0  0  0
    0.6530   20.1940   -0.0140 C   0  0  2  0  0  0  0  0  0  0  0  0
    0.8610   20.0110    1.3890 O   0  0  0  0  0  0  0  0  0  0  0  0
   -0.3160   19.1010   -0.5460 C   0  0  0  0  0  0  0  0  0  0  0  0
   -0.7800   19.4680   -1.9770 C   0  0  0  0  0  0  0  0  0  0  0  0
   -1.5900   19.1210    0.3410 C   0  0  0  0  0  0  0  0  0  0  0  0
    2.5130   16.2840   -1.2610 C   0  0  1  0  0  0  0  0  0  0  0  0
    3.2980   16.0780    0.0710 C   0  0  0  0  0  0  0  0  0  0  0  0
    3.5830   16.2700   -2.4150 C   0  0  0  0  0  0  0  0  0  0  0  0
    3.0960   15.8330   -3.8090 C   0  0  0  0  0  0  0  0  0  0  0  0
    2.3040   14.5250   -3.7280 C   0  0  2  0  0  0  0  0  0  0  0  0
    3.2730   13.4100   -3.2050 C   0  0  0  0  0  0  0  0  0  0  0  0
    3.3750   12.4358   -4.2822 H   0  0  0  0  0  0  0  0  0  0  0  0
    3.1594   11.3158   -5.6698 H   0  0  0  0  0  0  0  0  0  0  0  0
    4.5140   12.4955   -5.6698 H   0  0  0  0  0  0  0  0  0  0  0  0
    1.9673   12.8224   -6.8118 H   0  0  0  0  0  0  0  0  0  0  0  0
    4.0738   14.9079   -6.0983 H   0  0  0  0  0  0  0  0  0  0  0  0
    3.9210   13.9183   -7.6282 H   0  0  0  0  0  0  0  0  0  0  0  0
    1.5012   15.4400   -7.0728 H   0  0  0  0  0  0  0  0  0  0  0  0
    2.9676   16.4977   -7.2084 H   0  0  0  0  0  0  0  0  0  0  0  0
    3.2343   14.5763   -8.9205 H   0  0  0  0  0  0  0  0  0  0  0  0
    0.0407   15.9269   -8.0553 H   0  0  0  0  0  0  0  0  0  0  0  0
   -0.3611   16.9661   -9.4643 H   0  0  0  0  0  0  0  0  0  0  0  0
   -0.8303   15.2322   -9.4643 H   0  0  0  0  0  0  0  0  0  0  0  0
    1.0701   13.8967  -11.0545 H   0  0  0  0  0  0  0  0  0  0  0  0
    0.3213   15.3983  -11.6958 H   0  0  0  0  0  0  0  0  0  0  0  0
    2.1082   15.2149  -11.6958 H   0  0  0  0  0  0  0  0  0  0  0  0
    1.3004   14.8758   -5.6391 H   0  0  0  0  0  0  0  0  0  0  0  0
   -0.3831   13.2257   -5.1145 H   0  0  0  0  0  0  0  0  0  0  0  0
    0.8351   12.0179   -4.6507 H   0  0  0  0  0  0  0  0  0  0  0  0
   -0.7784   13.5301   -2.8405 H   0  0  0  0  0  0  0  0  0  0  0  0
    0.6622   12.6339   -2.3668 H   0  0  0  0  0  0  0  0  0  0  0  0
   -0.4236   16.3703   -2.5337 H   0  0  0  0  0  0  0  0  0  0  0  0
    0.6058   16.5721   -3.9918 H   0  0  0  0  0  0  0  0  0  0  0  0
   -0.7248   15.3654   -3.9918 H   0  0  0  0  0  0  0  0  0  0  0  0
    2.0399   14.1695   -1.0941 H   0  0  0  0  0  0  0  0  0  0  0  0
   -0.4716   14.5580   -0.6674 H   0  0  0  0  0  0  0  0  0  0  0  0
    0.7845   14.9339    0.6251 H   0  0  0  0  0  0  0  0  0  0  0  0
   -1.1596   16.6884    0.3447 H   0  0  0  0  0  0  0  0  0  0  0  0
    1.6251   17.8920   -2.3178 H   0  0  0  0  0  0  0  0  0  0  0  0
    2.8440   18.5778    0.4288 H   0  0  0  0  0  0  0  0  0  0  0  0
    3.6016   18.8552   -1.2021 H   0  0  0  0  0  0  0  0  0  0  0  0
    2.6641   20.9327   -0.2406 H   0  0  0  0  0  0  0  0  0  0  0  0
    1.8539   20.4387   -1.7784 H   0  0  0  0  0  0  0  0  0  0  0  0
    0.1767   21.1637   -0.2208 H   0  0  0  0  0  0  0  0  0  0  0  0
    1.2280   20.8390    1.7430 H   0  0  0  0  0  0  0  0  0  0  0  0
   -1.6416   20.1495   -1.9196 H   0  0  0  0  0  0  0  0  0  0  0  0
    0.0432   19.9621   -2.5140 H   0  0  0  0  0  0  0  0  0  0  0  0
   -1.0712   18.5532   -2.5140 H   0  0  0  0  0  0  0  0  0  0  0  0
   -1.2984   19.1164    1.4016 H   0  0  0  0  0  0  0  0  0  0  0  0
   -2.1730   20.0284    0.1249 H   0  0  0  0  0  0  0  0  0  0  0  0
   -2.2012   18.2323    0.1249 H   0  0  0  0  0  0  0  0  0  0  0  0
    2.6259   16.2544    0.9237 H   0  0  0  0  0  0  0  0  0  0  0  0
    3.6829   15.0484    0.1143 H   0  0  0  0  0  0  0  0  0  0  0  0
    4.1388   16.7859    0.1143 H   0  0  0  0  0  0  0  0  0  0  0  0
    3.9856   17.2895   -2.5078 H   0  0  0  0  0  0  0  0  0  0  0  0
    4.3187   15.5089   -2.1158 H   0  0  0  0  0  0  0  0  0  0  0  0
    2.4504   16.6192   -4.2274 H   0  0  0  0  0  0  0  0  0  0  0  0
    3.9735   15.6723   -4.4525 H   0  0  0  0  0  0  0  0  0  0  0  0
    3.2727   13.4104   -2.1050 H   0  0  0  0  0  0  0  0  0  0  0  0
    2.9353   12.4293   -3.5714 H   0  0  0  0  0  0  0  0  0  0  0  0
    4.2912   13.6076   -3.5714 H   0  0  0  0  0  0  0  0  0  0  0  0
  1  2  1  0
  2  3  1  0
  3  4  1  0
  4  5  1  0
  5  6  1  0
  6  7  1  0
  7  8  1  0
  7  9  1  0
  2 10  1  0
 10 11  1  0
 11 12  1  0
 12 13  1  0
 13 14  1  6
 13 15  1  0
 15 16  1  0
 16 17  1  0
 17 18  2  0
 18 19  1  0
 19 20  1  0
 20 21  1  0
 21 22  1  0
 22 23  1  0
 22 24  1  0
 24 25  1  0
 24 26  1  0
 19 27  1  0
 27 28  1  1
 27 29  1  0
 29 30  1  0
 30 31  1  0
 31 32  1  1
  7  5  1  0
 31 10  1  0
 31 13  1  0
 27 15  1  0
 24 18  1  0
  1 33  1  0
  1 34  1  0
  1 35  1  0
  2 36  1  6
  3 37  1  0
  3 38  1  0
  4 39  1  0
  4 40  1  0
  5 41  1  6
  8 42  1  0
  8 43  1  0
  8 44  1  0
  9 45  1  0
  9 46  1  0
  9 47  1  0
 10 48  1  6
 11 49  1  0
 11 50  1  0
 12 51  1  0
 12 52  1  0
 14 53  1  0
 14 54  1  0
 14 55  1  0
 15 56  1  1
 16 57  1  0
 16 58  1  0
 17 59  1  0
 19 60  1  6
 20 61  1  0
 20 62  1  0
 21 63  1  0
 21 64  1  0
 22 65  1  1
 23 66  1  0
 25 67  1  0
 25 68  1  0
 25 69  1  0
 26 70  1  0
 26 71  1  0
 26 72  1  0
 28 73  1  0
 28 74  1  0
 28 75  1  0
 29 76  1  0
 29 77  1  0
 30 78  1  0
 30 79  1  0
 32 80  1  0
 32 81  1  0
 32 82  1  0
M  END
>  <meeko>  (15) 
{"is_sidechain": [false], "intermolecular_energy": 2.731, "internal_energy": -0.839}

$$$$
EPH_relaxed_0001_pdb2pqr_Repair_316_r2_0001_out
     RDKit          3D

 82 86  0  0  0  0  0  0  0  0999 V2000
    5.2460   16.4360   -3.7800 C   0  0  0  0  0  0  0  0  0  0  0  0
    3.9810   16.0240   -4.5380 C   0  0  2  0  0  0  0  0  0  0  0  0
    2.7850   16.9420   -4.2130 C   0  0  0  0  0  0  0  0  0  0  0  0
    3.0590   17.9300   -3.0760 C   0  0  0  0  0  0  0  0  0  0  0  0
    1.8100   18.2580   -2.3140 C   0  0  2  0  0  0  0  0  0  0  0  0
    1.8720   19.4750   -1.5590 O   0  0  0  0  0  0  0  0  0  0  0  0
    1.7320   18.2640   -0.7990 C   0  0  0  0  0  0  0  0  0  0  0  0
    2.9230   17.9350    0.0450 C   0  0  0  0  0  0  0  0  0  0  0  0
    0.3910   18.1100   -0.1510 C   0  0  0  0  0  0  0  0  0  0  0  0
    3.6290   14.5770   -4.2140 C   0  0  1  0  0  0  0  0  0  0  0  0
    4.8620   13.6360   -4.2690 C   0  0  0  0  0  0  0  0  0  0  0  0
    4.6570   12.5650   -3.1660 C   0  0  0  0  0  0  0  0  0  0  0  0
    3.1780   12.7210   -2.7410 C   0  0  1  0  0  0  0  0  0  0  0  0
    2.3650   11.9430   -3.8230 C   0  0  0  0  0  0  0  0  0  0  0  0
    2.8200   12.2430   -1.2960 C   0  0  2  0  0  0  0  0  0  0  0  0
    3.0390   10.7430   -1.0320 C   0  0  0  0  0  0  0  0  0  0  0  0
    1.8620    9.8680   -1.3110 C   0  0  0  0  0  0  0  0  0  0  0  0
    0.5950   10.2920   -1.4810 C   0  0  0  0  0  0  0  0  0  0  0  0
    0.2290   11.7700   -1.3000 C   0  0  1  0  0  0  0  0  0  0  0  0
   -1.0520   11.8840   -0.4320 C   0  0  0  0  0  0  0  0  0  0  0  0
   -2.2100   11.0590   -0.9860 C   0  0  0  0  0  0  0  0  0  0  0  0
   -1.8260    9.5860   -1.0960 C   0  0  2  0  0  0  0  0  0  0  0  0
   -1.6390    9.0590    0.2210 O   0  0  0  0  0  0  0  0  0  0  0  0
   -0.5430    9.3480   -1.9410 C   0  0  0  0  0  0  0  0  0  0  0  0
   -0.8410    9.6380   -3.4330 C   0  0  0  0  0  0  0  0  0  0  0  0
   -0.1870    7.8390   -1.8550 C   0  0  0  0  0  0  0  0  0  0  0  0
    1.3980   12.7180   -0.7900 C   0  0  1  0  0  0  0  0  0  0  0  0
    1.4530   12.7030    0.7690 C   0  0  0  0  0  0  0  0  0  0  0  0
    1.0780   14.2010   -1.2090 C   0  0  0  0  0  0  0  0  0  0  0  0
    1.5630   14.6500   -2.6010 C   0  0  0  0  0  0  0  0  0  0  0  0
    3.0350   14.2850   -2.8130 C   0  0  2  0  0  0  0  0  0  0  0  0
    3.8800   15.0700   -1.7520 C   0  0  0  0  0  0  0  0  0  0  0  0
    5.0608   16.3757   -2.6974 H   0  0  0  0  0  0  0  0  0  0  0  0
    6.0711   15.7602   -4.0490 H   0  0  0  0  0  0  0  0  0  0  0  0
    5.5149   17.4681   -4.0490 H   0  0  0  0  0  0  0  0  0  0  0  0
    4.1920   16.1237   -5.6130 H   0  0  0  0  0  0  0  0  0  0  0  0
    2.5310   17.5147   -5.1171 H   0  0  0  0  0  0  0  0  0  0  0  0
    1.9612   16.2921   -3.8828 H   0  0  0  0  0  0  0  0  0  0  0  0
    3.7913   17.4854   -2.3860 H   0  0  0  0  0  0  0  0  0  0  0  0
    3.4469   18.8606   -3.5160 H   0  0  0  0  0  0  0  0  0  0  0  0
    1.1864   17.7786   -3.0830 H   0  0  0  0  0  0  0  0  0  0  0  0
    2.6510   18.0101    1.1082 H   0  0  0  0  0  0  0  0  0  0  0  0
    3.2576   16.9108   -0.1764 H   0  0  0  0  0  0  0  0  0  0  0  0
    3.7359   18.6422   -0.1764 H   0  0  0  0  0  0  0  0  0  0  0  0
    0.5085   18.1235    0.9426 H   0  0  0  0  0  0  0  0  0  0  0  0
   -0.2628   18.9390   -0.4598 H   0  0  0  0  0  0  0  0  0  0  0  0
   -0.0579   17.1544   -0.4598 H   0  0  0  0  0  0  0  0  0  0  0  0
    2.8704   14.3942   -4.9893 H   0  0  0  0  0  0  0  0  0  0  0  0
    4.9279   13.1553   -5.2562 H   0  0  0  0  0  0  0  0  0  0  0  0
    5.7943   14.1967   -4.1067 H   0  0  0  0  0  0  0  0  0  0  0  0
    4.8422   11.5566   -3.5646 H   0  0  0  0  0  0  0  0  0  0  0  0
    5.3498   12.6974   -2.3219 H   0  0  0  0  0  0  0  0  0  0  0  0
    1.6547   11.2633   -3.3296 H   0  0  0  0  0  0  0  0  0  0  0  0
    1.8127   12.6577   -4.4509 H   0  0  0  0  0  0  0  0  0  0  0  0
    3.0547   11.3599   -4.4509 H   0  0  0  0  0  0  0  0  0  0  0  0
    3.5680   12.7662   -0.6822 H   0  0  0  0  0  0  0  0  0  0  0  0
    3.8720   10.4044   -1.6656 H   0  0  0  0  0  0  0  0  0  0  0  0
    3.2390   10.6497    0.0456 H   0  0  0  0  0  0  0  0  0  0  0  0
    2.0450    8.7858   -1.3839 H   0  0  0  0  0  0  0  0  0  0  0  0
    0.0320   12.1593   -2.3098 H   0  0  0  0  0  0  0  0  0  0  0  0
   -0.8220   11.5309    0.5841 H   0  0  0  0  0  0  0  0  0  0  0  0
   -1.3632   12.9390   -0.4334 H   0  0  0  0  0  0  0  0  0  0  0  0
   -3.0754   11.1563   -0.3139 H   0  0  0  0  0  0  0  0  0  0  0  0
   -2.4591   11.4330   -1.9900 H   0  0  0  0  0  0  0  0  0  0  0  0
   -2.6452    9.0700   -1.6182 H   0  0  0  0  0  0  0  0  0  0  0  0
   -2.2490    9.5280    0.8150 H   0  0  0  0  0  0  0  0  0  0  0  0
   -1.6275   10.4034   -3.5078 H   0  0  0  0  0  0  0  0  0  0  0  0
    0.0728   10.0019   -3.9254 H   0  0  0  0  0  0  0  0  0  0  0  0
   -1.1800    8.7146   -3.9254 H   0  0  0  0  0  0  0  0  0  0  0  0
   -0.1161    7.5386   -0.7992 H   0  0  0  0  0  0  0  0  0  0  0  0
   -0.9705    7.2485   -2.3524 H   0  0  0  0  0  0  0  0  0  0  0  0
    0.7778    7.6610   -2.3524 H   0  0  0  0  0  0  0  0  0  0  0  0
    0.4660   12.9722    1.1733 H   0  0  0  0  0  0  0  0  0  0  0  0
    1.7295   11.6966    1.1165 H   0  0  0  0  0  0  0  0  0  0  0  0
    2.2022   13.4296    1.1165 H   0  0  0  0  0  0  0  0  0  0  0  0
   -0.0145   14.3263   -1.1809 H   0  0  0  0  0  0  0  0  0  0  0  0
    1.6326   14.8277   -0.4951 H   0  0  0  0  0  0  0  0  0  0  0  0
    0.9547   14.1535   -3.3714 H   0  0  0  0  0  0  0  0  0  0  0  0
    1.4589   15.7427   -2.6729 H   0  0  0  0  0  0  0  0  0  0  0  0
    3.5633   14.7758   -0.7405 H   0  0  0  0  0  0  0  0  0  0  0  0
    4.9462   14.8346   -1.8854 H   0  0  0  0  0  0  0  0  0  0  0  0
    3.7236   16.1506   -1.8854 H   0  0  0  0  0  0  0  0  0  0  0  0
  1  2  1  0
  2  3  1  0
  3  4  1  0
  4  5  1  0
  5  6  1  0
  6  7  1  0
  7  8  1  0
  7  9  1  0
  2 10  1  0
 10 11  1  0
 11 12  1  0
 12 13  1  0
 13 14  1  6
 13 15  1  0
 15 16  1  0
 16 17  1  0
 17 18  2  0
 18 19  1  0
 19 20  1  0
 20 21  1  0
 21 22  1  0
 22 23  1  0
 22 24  1  0
 24 25  1  0
 24 26  1  0
 19 27  1  0
 27 28  1  1
 27 29  1  0
 29 30  1  0
 30 31  1  0
 31 32  1  1
  7  5  1  0
 31 10  1  0
 31 13  1  0
 27 15  1  0
 24 18  1  0
  1 33  1  0
  1 34  1  0
  1 35  1  0
  2 36  1  6
  3 37  1  0
  3 38  1  0
  4 39  1  0
  4 40  1  0
  5 41  1  6
  8 42  1  0
  8 43  1  0
  8 44  1  0
  9 45  1  0
  9 46  1  0
  9 47  1  0
 10 48  1  6
 11 49  1  0
 11 50  1  0
 12 51  1  0
 12 52  1  0
 14 53  1  0
 14 54  1  0
 14 55  1  0
 15 56  1  1
 16 57  1  0
 16 58  1  0
 17 59  1  0
 19 60  1  6
 20 61  1  0
 20 62  1  0
 21 63  1  0
 21 64  1  0
 22 65  1  6
 23 66  1  0
 25 67  1  0
 25 68  1  0
 25 69  1  0
 26 70  1  0
 26 71  1  0
 26 72  1  0
 28 73  1  0
 28 74  1  0
 28 75  1  0
 29 76  1  0
 29 77  1  0
 30 78  1  0
 30 79  1  0
 32 80  1  0
 32 81  1  0
 32 82  1  0
M  END
>  <meeko>  (16) 
{"is_sidechain": [false], "intermolecular_energy": 2.731, "internal_energy": -0.839}

$$$$
EPH_relaxed_0001_pdb2pqr_Repair_316_r2_0001_out
     RDKit          3D

 82 86  0  0  0  0  0  0  0  0999 V2000
    3.8630   17.8940    0.1900 C   0  0  0  0  0  0  0  0  0  0  0  0
    3.5940   17.0490   -1.0580 C   0  0  2  0  0  0  0  0  0  0  0  0
    3.3460   17.9190   -2.3070 C   0  0  0  0  0  0  0  0  0  0  0  0
    4.3990   17.7350   -3.4040 C   0  0  0  0  0  0  0  0  0  0  0  0
    5.3440   16.6170   -3.0830 C   0  0  2  0  0  0  0  0  0  0  0  0
    6.4260   16.4630   -4.0110 O   0  0  0  0  0  0  0  0  0  0  0  0
    5.4910   15.3740   -3.9420 C   0  0  0  0  0  0  0  0  0  0  0  0
    4.6830   15.1860   -5.1870 C   0  0  0  0  0  0  0  0  0  0  0  0
    6.0540   14.1360   -3.3170 C   0  0  0  0  0  0  0  0  0  0  0  0
    2.4000   16.1320   -0.8170 C   0  0  1  0  0  0  0  0  0  0  0  0
    1.0530   16.9020   -0.7820 C   0  0  0  0  0  0  0  0  0  0  0  0
   -0.0130   15.9670   -1.4090 C   0  0  0  0  0  0  0  0  0  0  0  0
    0.6740   14.5830   -1.4790 C   0  0  1  0  0  0  0  0  0  0  0  0
    0.5300   13.9910   -0.0420 C   0  0  0  0  0  0  0  0  0  0  0  0
    0.1350   13.5970   -2.5660 C   0  0  2  0  0  0  0  0  0  0  0  0
   -1.3370   13.1800   -2.3960 C   0  0  0  0  0  0  0  0  0  0  0  0
   -1.5610   11.9540   -1.5750 C   0  0  0  0  0  0  0  0  0  0  0  0
   -0.6170   11.0570   -1.2350 C   0  0  0  0  0  0  0  0  0  0  0  0
    0.8160   11.1810   -1.7690 C   0  0  1  0  0  0  0  0  0  0  0  0
    1.3000    9.7990   -2.2810 C   0  0  0  0  0  0  0  0  0  0  0  0
    1.1620    8.7040   -1.2280 C   0  0  0  0  0  0  0  0  0  0  0  0
   -0.2860    8.5710   -0.7640 C   0  0  2  0  0  0  0  0  0  0  0  0
   -1.0770    8.0880   -1.8550 O   0  0  0  0  0  0  0  0  0  0  0  0
   -0.8850    9.9050   -0.2360 C   0  0  0  0  0  0  0  0  0  0  0  0
   -0.2250   10.2710    1.1170 C   0  0  0  0  0  0  0  0  0  0  0  0
   -2.3890    9.6660    0.0660 C   0  0  0  0  0  0  0  0  0  0  0  0
    1.0650   12.3440   -2.8230 C   0  0  1  0  0  0  0  0  0  0  0  0
    0.7400   11.8360   -4.2610 C   0  0  0  0  0  0  0  0  0  0  0  0
    2.5930   12.7220   -2.8200 C   0  0  0  0  0  0  0  0  0  0  0  0
    3.0430   13.7890   -1.8040 C   0  0  0  0  0  0  0  0  0  0  0  0
    2.1350   15.0200   -1.8630 C   0  0  2  0  0  0  0  0  0  0  0  0
    2.2760   15.6500   -3.2910 C   0  0  0  0  0  0  0  0  0  0  0  0
    3.6710   17.2908    1.0896 H   0  0  0  0  0  0  0  0  0  0  0  0
    4.9115   18.2267    0.1885 H   0  0  0  0  0  0  0  0  0  0  0  0
    3.1998   18.7716    0.1885 H   0  0  0  0  0  0  0  0  0  0  0  0
    4.4940   16.4461   -1.2494 H   0  0  0  0  0  0  0  0  0  0  0  0
    2.3618   17.6573   -2.7228 H   0  0  0  0  0  0  0  0  0  0  0  0
    3.3988   18.9690   -1.9833 H   0  0  0  0  0  0  0  0  0  0  0  0
    3.8899   17.5101   -4.3528 H   0  0  0  0  0  0  0  0  0  0  0  0
    4.9813   18.6651   -3.4800 H   0  0  0  0  0  0  0  0  0  0  0  0
    5.1770   16.7532   -2.0043 H   0  0  0  0  0  0  0  0  0  0  0  0
    3.6444   14.9443   -4.9171 H   0  0  0  0  0  0  0  0  0  0  0  0
    4.7017   16.1125   -5.7797 H   0  0  0  0  0  0  0  0  0  0  0  0
    5.1088   14.3629   -5.7797 H   0  0  0  0  0  0  0  0  0  0  0  0
    6.0126   14.2269   -2.2215 H   0  0  0  0  0  0  0  0  0  0  0  0
    5.4640   13.2638   -3.6351 H   0  0  0  0  0  0  0  0  0  0  0  0
    7.0991   14.0074   -3.6351 H   0  0  0  0  0  0  0  0  0  0  0  0
    2.7023   15.6831    0.1407 H   0  0  0  0  0  0  0  0  0  0  0  0
    0.7815   17.1434    0.2563 H   0  0  0  0  0  0  0  0  0  0  0  0
    1.1245   17.8484   -1.3381 H   0  0  0  0  0  0  0  0  0  0  0  0
   -0.9114   15.9229   -0.7758 H   0  0  0  0  0  0  0  0  0  0  0  0
   -0.3459   16.3177   -2.3970 H   0  0  0  0  0  0  0  0  0  0  0  0
    0.7218   14.7797    0.7004 H   0  0  0  0  0  0  0  0  0  0  0  0
   -0.4894   13.6003    0.0932 H   0  0  0  0  0  0  0  0  0  0  0  0
    1.2560   13.1758    0.0932 H   0  0  0  0  0  0  0  0  0  0  0  0
    0.1682   14.2106   -3.4784 H   0  0  0  0  0  0  0  0  0  0  0  0
   -1.8731   14.0126   -1.9170 H   0  0  0  0  0  0  0  0  0  0  0  0
   -1.7046   12.9421   -3.4051 H   0  0  0  0  0  0  0  0  0  0  0  0
   -2.5844   11.7677   -1.2174 H   0  0  0  0  0  0  0  0  0  0  0  0
    1.4320   11.4986   -0.9148 H   0  0  0  0  0  0  0  0  0  0  0  0
    0.7017    9.5196   -3.1608 H   0  0  0  0  0  0  0  0  0  0  0  0
    2.3676    9.8903   -2.5298 H   0  0  0  0  0  0  0  0  0  0  0  0
    1.4910    7.7469   -1.6590 H   0  0  0  0  0  0  0  0  0  0  0  0
    1.7847    8.9706   -0.3613 H   0  0  0  0  0  0  0  0  0  0  0  0
   -0.2986    7.8652    0.0796 H   0  0  0  0  0  0  0  0  0  0  0  0
   -0.9600    8.7030   -2.5980 H   0  0  0  0  0  0  0  0  0  0  0  0
   -0.8609    9.9184    1.9424 H   0  0  0  0  0  0  0  0  0  0  0  0
    0.7628    9.7918    1.1846 H   0  0  0  0  0  0  0  0  0  0  0  0
   -0.1083   11.3627    1.1846 H   0  0  0  0  0  0  0  0  0  0  0  0
   -2.5450    9.6412    1.1546 H   0  0  0  0  0  0  0  0  0  0  0  0
   -2.9848   10.4807   -0.3713 H   0  0  0  0  0  0  0  0  0  0  0  0
   -2.7029    8.7067   -0.3713 H   0  0  0  0  0  0  0  0  0  0  0  0
    0.1482   10.9109   -4.1980 H   0  0  0  0  0  0  0  0  0  0  0  0
    0.1647   12.6034   -4.7997 H   0  0  0  0  0  0  0  0  0  0  0  0
    1.6778   11.6353   -4.7997 H   0  0  0  0  0  0  0  0  0  0  0  0
    3.1624   11.8040   -2.6126 H   0  0  0  0  0  0  0  0  0  0  0  0
    2.7809   13.1680   -3.8078 H   0  0  0  0  0  0  0  0  0  0  0  0
    3.0034   13.3610   -0.7915 H   0  0  0  0  0  0  0  0  0  0  0  0
    4.0692   14.0982   -2.0518 H   0  0  0  0  0  0  0  0  0  0  0  0
    2.5154   16.7196   -3.1979 H   0  0  0  0  0  0  0  0  0  0  0  0
    3.0823   15.1401   -3.8387 H   0  0  0  0  0  0  0  0  0  0  0  0
    1.3293   15.5325   -3.8387 H   0  0  0  0  0  0  0  0  0  0  0  0
  1  2  1  0
  2  3  1  0
  3  4  1  0
  4  5  1  0
  5  6  1  0
  6  7  1  0
  7  8  1  0
  7  9  1  0
  2 10  1  0
 10 11  1  0
 11 12  1  0
 12 13  1  0
 13 14  1  1
 13 15  1  0
 15 16  1  0
 16 17  1  0
 17 18  2  0
 18 19  1  0
 19 20  1  0
 20 21  1  0
 21 22  1  0
 22 23  1  0
 22 24  1  0
 24 25  1  0
 24 26  1  0
 19 27  1  0
 27 28  1  6
 27 29  1  0
 29 30  1  0
 30 31  1  0
 31 32  1  6
  7  5  1  0
 31 10  1  0
 31 13  1  0
 27 15  1  0
 24 18  1  0
  1 33  1  0
  1 34  1  0
  1 35  1  0
  2 36  1  6
  3 37  1  0
  3 38  1  0
  4 39  1  0
  4 40  1  0
  5 41  1  1
  8 42  1  0
  8 43  1  0
  8 44  1  0
  9 45  1  0
  9 46  1  0
  9 47  1  0
 10 48  1  1
 11 49  1  0
 11 50  1  0
 12 51  1  0
 12 52  1  0
 14 53  1  0
 14 54  1  0
 14 55  1  0
 15 56  1  6
 16 57  1  0
 16 58  1  0
 17 59  1  0
 19 60  1  1
 20 61  1  0
 20 62  1  0
 21 63  1  0
 21 64  1  0
 22 65  1  1
 23 66  1  0
 25 67  1  0
 25 68  1  0
 25 69  1  0
 26 70  1  0
 26 71  1  0
 26 72  1  0
 28 73  1  0
 28 74  1  0
 28 75  1  0
 29 76  1  0
 29 77  1  0
 30 78  1  0
 30 79  1  0
 32 80  1  0
 32 81  1  0
 32 82  1  0
M  END
>  <meeko>  (17) 
{"is_sidechain": [false], "intermolecular_energy": 2.731, "internal_energy": -0.839}

$$$$
EPH_relaxed_0001_pdb2pqr_Repair_316_r2_0001_out
     RDKit          3D

 82 86  0  0  0  0  0  0  0  0999 V2000
   -1.0530    8.5530   -1.0320 C   0  0  0  0  0  0  0  0  0  0  0  0
   -0.0140    9.4660   -0.3740 C   0  0  2  0  0  0  0  0  0  0  0  0
   -0.6600   10.4870    0.5830 C   0  0  0  0  0  0  0  0  0  0  0  0
    0.2490   10.9060    1.7410 C   0  0  0  0  0  0  0  0  0  0  0  0
   -0.3900   11.9600    2.5940 C   0  0  2  0  0  0  0  0  0  0  0  0
    0.2630   13.2360    2.5580 O   0  0  0  0  0  0  0  0  0  0  0  0
    0.2700   12.5550    3.8240 C   0  0  0  0  0  0  0  0  0  0  0  0
    1.6290   12.1140    4.2700 C   0  0  0  0  0  0  0  0  0  0  0  0
   -0.5960   13.2000    4.8600 C   0  0  0  0  0  0  0  0  0  0  0  0
    0.7910   10.1920   -1.4460 C   0  0  1  0  0  0  0  0  0  0  0  0
    0.5190    9.6440   -2.8720 C   0  0  0  0  0  0  0  0  0  0  0  0
    0.5980   10.8540   -3.8390 C   0  0  0  0  0  0  0  0  0  0  0  0
    1.2340   11.9850   -2.9970 C   0  0  1  0  0  0  0  0  0  0  0  0
    2.7680   11.6970   -3.0310 C   0  0  0  0  0  0  0  0  0  0  0  0
    0.9110   13.4470   -3.4480 C   0  0  2  0  0  0  0  0  0  0  0  0
    1.4090   13.8200   -4.8550 C   0  0  0  0  0  0  0  0  0  0  0  0
    2.7820   14.4050   -4.9110 C   0  0  0  0  0  0  0  0  0  0  0  0
    3.4710   14.8850   -3.8600 C   0  0  0  0  0  0  0  0  0  0  0  0
    2.8330   14.9580   -2.4670 C   0  0  1  0  0  0  0  0  0  0  0  0
    3.1170   16.3490   -1.8400 C   0  0  0  0  0  0  0  0  0  0  0  0
    4.6040   16.6890   -1.8190 C   0  0  0  0  0  0  0  0  0  0  0  0
    5.1890   16.6630   -3.2290 C   0  0  2  0  0  0  0  0  0  0  0  0
    4.6120   17.7300   -3.9870 O   0  0  0  0  0  0  0  0  0  0  0  0
    4.9560   15.3130   -3.9640 C   0  0  0  0  0  0  0  0  0  0  0  0
    5.8270   14.2090   -3.3140 C   0  0  0  0  0  0  0  0  0  0  0  0
    5.4680   15.4680   -5.4210 C   0  0  0  0  0  0  0  0  0  0  0  0
    1.2980   14.5530   -2.3850 C   0  0  1  0  0  0  0  0  0  0  0  0
    0.4040   15.7940   -2.6880 C   0  0  0  0  0  0  0  0  0  0  0  0
    0.9610   14.1120   -0.9120 C   0  0  0  0  0  0  0  0  0  0  0  0
    1.1880   12.6290   -0.5610 C   0  0  0  0  0  0  0  0  0  0  0  0
    0.5470   11.7140   -1.6090 C   0  0  2  0  0  0  0  0  0  0  0  0
   -0.9990   11.9650   -1.5820 C   0  0  0  0  0  0  0  0  0  0  0  0
   -1.6364    8.0404   -0.2530 H   0  0  0  0  0  0  0  0  0  0  0  0
   -1.7272    9.1562   -1.6578 H   0  0  0  0  0  0  0  0  0  0  0  0
   -0.5415    7.8068   -1.6578 H   0  0  0  0  0  0  0  0  0  0  0  0
    0.6535    8.8300    0.2260 H   0  0  0  0  0  0  0  0  0  0  0  0
   -0.9235   11.3855    0.0057 H   0  0  0  0  0  0  0  0  0  0  0  0
   -1.5408    9.9994    1.0261 H   0  0  0  0  0  0  0  0  0  0  0  0
    0.4625   10.0246    2.3636 H   0  0  0  0  0  0  0  0  0  0  0  0
    1.1746   11.3226    1.3170 H   0  0  0  0  0  0  0  0  0  0  0  0
   -1.3858   11.5222    2.4303 H   0  0  0  0  0  0  0  0  0  0  0  0
    1.6680   12.1014    5.3692 H   0  0  0  0  0  0  0  0  0  0  0  0
    1.8317   11.1040    3.8843 H   0  0  0  0  0  0  0  0  0  0  0  0
    2.3861   12.8126    3.8843 H   0  0  0  0  0  0  0  0  0  0  0  0
   -0.2324   12.9292    5.8622 H   0  0  0  0  0  0  0  0  0  0  0  0
   -0.5596   14.2928    4.7397 H   0  0  0  0  0  0  0  0  0  0  0  0
   -1.6326   12.8522    4.7397 H   0  0  0  0  0  0  0  0  0  0  0  0
    1.8077   10.0118   -1.0668 H   0  0  0  0  0  0  0  0  0  0  0  0
    1.2777    8.8942   -3.1407 H   0  0  0  0  0  0  0  0  0  0  0  0
   -0.4663    9.1581   -2.9271 H   0  0  0  0  0  0  0  0  0  0  0  0
    1.2282   10.6158   -4.7085 H   0  0  0  0  0  0  0  0  0  0  0  0
   -0.3880   11.1346   -4.2377 H   0  0  0  0  0  0  0  0  0  0  0  0
    3.1505   11.6252   -2.0021 H   0  0  0  0  0  0  0  0  0  0  0  0
    2.9515   10.7487   -3.5574 H   0  0  0  0  0  0  0  0  0  0  0  0
    3.2829   12.5142   -3.5574 H   0  0  0  0  0  0  0  0  0  0  0  0
   -0.1870   13.4377   -3.5128 H   0  0  0  0  0  0  0  0  0  0  0  0
    1.4025   12.9085   -5.4707 H   0  0  0  0  0  0  0  0  0  0  0  0
    0.7290   14.6034   -5.2209 H   0  0  0  0  0  0  0  0  0  0  0  0
    3.2714   14.4469   -5.8952 H   0  0  0  0  0  0  0  0  0  0  0  0
    3.3179   14.1727   -1.8686 H   0  0  0  0  0  0  0  0  0  0  0  0
    2.5885   17.1148   -2.4268 H   0  0  0  0  0  0  0  0  0  0  0  0
    2.7658   16.3233   -0.7979 H   0  0  0  0  0  0  0  0  0  0  0  0
    4.7376   17.6940   -1.3922 H   0  0  0  0  0  0  0  0  0  0  0  0
    5.1273   15.9391   -1.2076 H   0  0  0  0  0  0  0  0  0  0  0  0
    6.2783   16.7856   -3.1369 H   0  0  0  0  0  0  0  0  0  0  0  0
    5.1600   18.5200   -3.8480 H   0  0  0  0  0  0  0  0  0  0  0  0
    5.7636   14.2893   -2.2188 H   0  0  0  0  0  0  0  0  0  0  0  0
    5.4628   13.2206   -3.6308 H   0  0  0  0  0  0  0  0  0  0  0  0
    6.8730   14.3332   -3.6308 H   0  0  0  0  0  0  0  0  0  0  0  0
    6.5207   15.7867   -5.4078 H   0  0  0  0  0  0  0  0  0  0  0  0
    5.3833   14.5040   -5.9439 H   0  0  0  0  0  0  0  0  0  0  0  0
    4.8628   16.2232   -5.9439 H   0  0  0  0  0  0  0  0  0  0  0  0
    0.0760   16.2494   -1.7419 H   0  0  0  0  0  0  0  0  0  0  0  0
    0.9814   16.5291   -3.2679 H   0  0  0  0  0  0  0  0  0  0  0  0
   -0.4761   15.4791   -3.2679 H   0  0  0  0  0  0  0  0  0  0  0  0
    1.5842   14.7135   -0.2339 H   0  0  0  0  0  0  0  0  0  0  0  0
   -0.1223   14.2702   -0.8052 H   0  0  0  0  0  0  0  0  0  0  0  0
    2.2691   12.4297   -0.5221 H   0  0  0  0  0  0  0  0  0  0  0  0
    0.7237   12.4242    0.4149 H   0  0  0  0  0  0  0  0  0  0  0  0
   -1.3432   12.0209   -0.5387 H   0  0  0  0  0  0  0  0  0  0  0  0
   -1.2258   12.9117   -2.0941 H   0  0  0  0  0  0  0  0  0  0  0  0
   -1.5136   11.1386   -2.0941 H   0  0  0  0  0  0  0  0  0  0  0  0
  1  2  1  0
  2  3  1  0
  3  4  1  0
  4  5  1  0
  5  6  1  0
  6  7  1  0
  7  8  1  0
  7  9  1  0
  2 10  1  0
 10 11  1  0
 11 12  1  0
 12 13  1  0
 13 14  1  1
 13 15  1  0
 15 16  1  0
 16 17  1  0
 17 18  2  0
 18 19  1  0
 19 20  1  0
 20 21  1  0
 21 22  1  0
 22 23  1  0
 22 24  1  0
 24 25  1  0
 24 26  1  0
 19 27  1  0
 27 28  1  6
 27 29  1  0
 29 30  1  0
 30 31  1  0
 31 32  1  6
  7  5  1  0
 31 10  1  0
 31 13  1  0
 27 15  1  0
 24 18  1  0
  1 33  1  0
  1 34  1  0
  1 35  1  0
  2 36  1  1
  3 37  1  0
  3 38  1  0
  4 39  1  0
  4 40  1  0
  5 41  1  1
  8 42  1  0
  8 43  1  0
  8 44  1  0
  9 45  1  0
  9 46  1  0
  9 47  1  0
 10 48  1  1
 11 49  1  0
 11 50  1  0
 12 51  1  0
 12 52  1  0
 14 53  1  0
 14 54  1  0
 14 55  1  0
 15 56  1  6
 16 57  1  0
 16 58  1  0
 17 59  1  0
 19 60  1  1
 20 61  1  0
 20 62  1  0
 21 63  1  0
 21 64  1  0
 22 65  1  1
 23 66  1  0
 25 67  1  0
 25 68  1  0
 25 69  1  0
 26 70  1  0
 26 71  1  0
 26 72  1  0
 28 73  1  0
 28 74  1  0
 28 75  1  0
 29 76  1  0
 29 77  1  0
 30 78  1  0
 30 79  1  0
 32 80  1  0
 32 81  1  0
 32 82  1  0
M  END
>  <meeko>  (18) 
{"is_sidechain": [false], "intermolecular_energy": 2.731, "internal_energy": -0.839}

$$$$
