EPH_relaxed_0001_pdb2pqr_Repair_55_r2_0001_out
     RDKit          3D

 82 86  0  0  0  0  0  0  0  0999 V2000
   -1.7030    8.5800   -1.8510 C   0  0  0  0  0  0  0  0  0  0  0  0
   -2.0950    9.1130   -0.4700 C   0  0  2  0  0  0  0  0  0  0  0  0
   -3.5890    9.4850   -0.3940 C   0  0  0  0  0  0  0  0  0  0  0  0
   -4.5150    8.2790   -0.2110 C   0  0  0  0  0  0  0  0  0  0  0  0
   -5.1920    7.9000   -1.4940 C   0  0  2  0  0  0  0  0  0  0  0  0
   -6.3430    8.6900   -1.8190 O   0  0  0  0  0  0  0  0  0  0  0  0
   -6.5830    7.2970   -1.5590 C   0  0  0  0  0  0  0  0  0  0  0  0
   -7.3800    7.0380   -0.3190 C   0  0  0  0  0  0  0  0  0  0  0  0
   -6.9670    6.5150   -2.7760 C   0  0  0  0  0  0  0  0  0  0  0  0
   -1.2390   10.3240   -0.1180 C   0  0  1  0  0  0  0  0  0  0  0  0
   -0.2150   10.0240    1.0090 C   0  0  0  0  0  0  0  0  0  0  0  0
    1.0570   10.8510    0.6900 C   0  0  0  0  0  0  0  0  0  0  0  0
    0.6110   11.8430   -0.4100 C   0  0  1  0  0  0  0  0  0  0  0  0
   -0.1010   13.0000    0.3590 C   0  0  0  0  0  0  0  0  0  0  0  0
    1.7370   12.3820   -1.3510 C   0  0  2  0  0  0  0  0  0  0  0  0
    2.8350   13.2020   -0.6520 C   0  0  0  0  0  0  0  0  0  0  0  0
    2.5830   14.6720   -0.5760 C   0  0  0  0  0  0  0  0  0  0  0  0
    1.6640   15.3460   -1.2930 C   0  0  0  0  0  0  0  0  0  0  0  0
    0.8270   14.6380   -2.3650 C   0  0  1  0  0  0  0  0  0  0  0  0
    0.8080   15.4950   -3.6580 C   0  0  0  0  0  0  0  0  0  0  0  0
    0.3420   16.9260   -3.4040 C   0  0  0  0  0  0  0  0  0  0  0  0
    1.2340   17.6160   -2.3750 C   0  0  2  0  0  0  0  0  0  0  0  0
    2.5390   17.7830   -2.9370 O   0  0  0  0  0  0  0  0  0  0  0  0
    1.3380   16.8380   -1.0340 C   0  0  0  0  0  0  0  0  0  0  0  0
   -0.0130   16.9160   -0.2810 C   0  0  0  0  0  0  0  0  0  0  0  0
    2.3760   17.5660   -0.1390 C   0  0  0  0  0  0  0  0  0  0  0  0
    1.2010   13.1190   -2.6460 C   0  0  1  0  0  0  0  0  0  0  0  0
    2.3410   13.0390   -3.7070 C   0  0  0  0  0  0  0  0  0  0  0  0
   -0.0440   12.3900   -3.2770 C   0  0  0  0  0  0  0  0  0  0  0  0
   -1.0590   11.7740   -2.2950 C   0  0  0  0  0  0  0  0  0  0  0  0
   -0.3520   10.9180   -1.2400 C   0  0  2  0  0  0  0  0  0  0  0  0
    0.3560    9.7330   -1.9820 C   0  0  0  0  0  0  0  0  0  0  0  0
   -1.0550    7.6989   -1.7336 H   0  0  0  0  0  0  0  0  0  0  0  0
   -2.6097    8.2970   -2.4057 H   0  0  0  0  0  0  0  0  0  0  0  0
   -1.1627    9.3612   -2.4057 H   0  0  0  0  0  0  0  0  0  0  0  0
   -1.9175    8.3076    0.2579 H   0  0  0  0  0  0  0  0  0  0  0  0
   -3.7343   10.1667    0.4570 H   0  0  0  0  0  0  0  0  0  0  0  0
   -3.8537    9.9507   -1.3547 H   0  0  0  0  0  0  0  0  0  0  0  0
   -3.9210    7.4242    0.1447 H   0  0  0  0  0  0  0  0  0  0  0  0
   -5.2915    8.5506    0.5193 H   0  0  0  0  0  0  0  0  0  0  0  0
   -4.2333    7.5926   -1.9371 H   0  0  0  0  0  0  0  0  0  0  0  0
   -6.7581    7.2401    0.5655 H   0  0  0  0  0  0  0  0  0  0  0  0
   -8.2614    7.6959   -0.3056 H   0  0  0  0  0  0  0  0  0  0  0  0
   -7.7063    5.9876   -0.3056 H   0  0  0  0  0  0  0  0  0  0  0  0
   -7.4328    5.5665   -2.4705 H   0  0  0  0  0  0  0  0  0  0  0  0
   -7.6814    7.0978   -3.3760 H   0  0  0  0  0  0  0  0  0  0  0  0
   -6.0690    6.3060   -3.3760 H   0  0  0  0  0  0  0  0  0  0  0  0
   -2.0312   11.0375    0.1527 H   0  0  0  0  0  0  0  0  0  0  0  0
   -0.6266   10.3233    1.9842 H   0  0  0  0  0  0  0  0  0  0  0  0
    0.0148    8.9494    1.0578 H   0  0  0  0  0  0  0  0  0  0  0  0
    1.4031   11.3915    1.5834 H   0  0  0  0  0  0  0  0  0  0  0  0
    1.8961   10.2179    0.3658 H   0  0  0  0  0  0  0  0  0  0  0  0
   -0.0005   12.8367    1.4422 H   0  0  0  0  0  0  0  0  0  0  0  0
    0.3628   13.9600    0.0884 H   0  0  0  0  0  0  0  0  0  0  0  0
   -1.1670   13.0186    0.0884 H   0  0  0  0  0  0  0  0  0  0  0  0
    2.2257   11.4562   -1.6888 H   0  0  0  0  0  0  0  0  0  0  0  0
    2.9413   12.8219    0.3748 H   0  0  0  0  0  0  0  0  0  0  0  0
    3.7414   13.0800   -1.2632 H   0  0  0  0  0  0  0  0  0  0  0  0
    3.2002   15.2532    0.1249 H   0  0  0  0  0  0  0  0  0  0  0  0
   -0.1902   14.5607   -1.9534 H   0  0  0  0  0  0  0  0  0  0  0  0
    1.8247   15.5242   -4.0768 H   0  0  0  0  0  0  0  0  0  0  0  0
    0.0961   15.0307   -4.3563 H   0  0  0  0  0  0  0  0  0  0  0  0
    0.3790   17.4895   -4.3480 H   0  0  0  0  0  0  0  0  0  0  0  0
   -0.6860   16.8963   -3.0137 H   0  0  0  0  0  0  0  0  0  0  0  0
    0.7753   18.5873   -2.1382 H   0  0  0  0  0  0  0  0  0  0  0  0
    2.5320   17.3840   -3.8230 H   0  0  0  0  0  0  0  0  0  0  0  0
    0.1706   16.9054    0.8035 H   0  0  0  0  0  0  0  0  0  0  0  0
   -0.5328   17.8457   -0.5558 H   0  0  0  0  0  0  0  0  0  0  0  0
   -0.6364   16.0523   -0.5558 H   0  0  0  0  0  0  0  0  0  0  0  0
    2.1316   17.3946    0.9197 H   0  0  0  0  0  0  0  0  0  0  0  0
    3.3818   17.1744   -0.3512 H   0  0  0  0  0  0  0  0  0  0  0  0
    2.3504   18.6450   -0.3512 H   0  0  0  0  0  0  0  0  0  0  0  0
    3.3129   12.9708   -3.1964 H   0  0  0  0  0  0  0  0  0  0  0  0
    2.1942   12.1489   -4.3365 H   0  0  0  0  0  0  0  0  0  0  0  0
    2.3200   13.9408   -4.3365 H   0  0  0  0  0  0  0  0  0  0  0  0
   -0.5819   13.1242   -3.8947 H   0  0  0  0  0  0  0  0  0  0  0  0
    0.3728   11.5373   -3.8331 H   0  0  0  0  0  0  0  0  0  0  0  0
   -1.6094   12.5828   -1.7921 H   0  0  0  0  0  0  0  0  0  0  0  0
   -1.7497   11.1322   -2.8616 H   0  0  0  0  0  0  0  0  0  0  0  0
    0.7735    9.0342   -1.2421 H   0  0  0  0  0  0  0  0  0  0  0  0
   -0.3753    9.2059   -2.6123 H   0  0  0  0  0  0  0  0  0  0  0  0
    1.1667   10.1272   -2.6123 H   0  0  0  0  0  0  0  0  0  0  0  0
  1  2  1  0
  2  3  1  0
  3  4  1  0
  4  5  1  0
  5  6  1  0
  6  7  1  0
  7  8  1  0
  7  9  1  0
  2 10  1  0
 10 11  1  0
 11 12  1  0
 12 13  1  0
 13 14  1  1
 13 15  1  0
 15 16  1  0
 16 17  1  0
 17 18  2  0
 18 19  1  0
 19 20  1  0
 20 21  1  0
 21 22  1  0
 22 23  1  0
 22 24  1  0
 24 25  1  0
 24 26  1  0
 19 27  1  0
 27 28  1  6
 27 29  1  0
 29 30  1  0
 30 31  1  0
 31 32  1  6
  7  5  1  0
 31 10  1  0
 31 13  1  0
 27 15  1  0
 24 18  1  0
  1 33  1  0
  1 34  1  0
  1 35  1  0
  2 36  1  1
  3 37  1  0
  3 38  1  0
  4 39  1  0
  4 40  1  0
  5 41  1  6
  8 42  1  0
  8 43  1  0
  8 44  1  0
  9 45  1  0
  9 46  1  0
  9 47  1  0
 10 48  1  1
 11 49  1  0
 11 50  1  0
 12 51  1  0
 12 52  1  0
 14 53  1  0
 14 54  1  0
 14 55  1  0
 15 56  1  6
 16 57  1  0
 16 58  1  0
 17 59  1  0
 19 60  1  1
 20 61  1  0
 20 62  1  0
 21 63  1  0
 21 64  1  0
 22 65  1  1
 23 66  1  0
 25 67  1  0
 25 68  1  0
 25 69  1  0
 26 70  1  0
 26 71  1  0
 26 72  1  0
 28 73  1  0
 28 74  1  0
 28 75  1  0
 29 76  1  0
 29 77  1  0
 30 78  1  0
 30 79  1  0
 32 80  1  0
 32 81  1  0
 32 82  1  0
M  END
>  <meeko>  (1) 
{"is_sidechain": [false], "intermolecular_energy": 2.731, "internal_energy": -0.839}

$$$$
EPH_relaxed_0001_pdb2pqr_Repair_55_r2_0001_out
     RDKit          3D

 82 86  0  0  0  0  0  0  0  0999 V2000
    4.2460   17.4700   -0.6400 C   0  0  0  0  0  0  0  0  0  0  0  0
    2.8860   18.0630   -0.2620 C   0  0  2  0  0  0  0  0  0  0  0  0
    2.9260   18.7860    1.0990 C   0  0  0  0  0  0  0  0  0  0  0  0
    4.2810   18.6950    1.8050 C   0  0  0  0  0  0  0  0  0  0  0  0
    4.2170   19.2370    3.2010 C   0  0  2  0  0  0  0  0  0  0  0  0
    5.2350   20.1940    3.5200 O   0  0  0  0  0  0  0  0  0  0  0  0
    5.2730   18.9610    4.2550 C   0  0  0  0  0  0  0  0  0  0  0  0
    6.4690   18.1120    3.9570 C   0  0  0  0  0  0  0  0  0  0  0  0
    4.9000   19.1070    5.6970 C   0  0  0  0  0  0  0  0  0  0  0  0
    1.8290   16.9660   -0.2390 C   0  0  1  0  0  0  0  0  0  0  0  0
    0.4070   17.4990   -0.5580 C   0  0  0  0  0  0  0  0  0  0  0  0
   -0.3230   16.3830   -1.3490 C   0  0  0  0  0  0  0  0  0  0  0  0
    0.5700   15.1330   -1.1730 C   0  0  1  0  0  0  0  0  0  0  0  0
    0.1900   14.5620    0.2290 C   0  0  0  0  0  0  0  0  0  0  0  0
    0.4610   14.0430   -2.2880 C   0  0  2  0  0  0  0  0  0  0  0  0
   -0.9250   13.3890   -2.4290 C   0  0  0  0  0  0  0  0  0  0  0  0
   -1.1380   12.1640   -1.6030 C   0  0  0  0  0  0  0  0  0  0  0  0
   -0.1710   11.4470   -1.0020 C   0  0  0  0  0  0  0  0  0  0  0  0
    1.3090   11.7960   -1.2050 C   0  0  1  0  0  0  0  0  0  0  0  0
    2.1100   10.5020   -1.5050 C   0  0  0  0  0  0  0  0  0  0  0  0
    1.9040    9.4270   -0.4420 C   0  0  0  0  0  0  0  0  0  0  0  0
    0.4270    9.0660   -0.3110 C   0  0  2  0  0  0  0  0  0  0  0  0
   -0.0010    8.4290   -1.5180 O   0  0  0  0  0  0  0  0  0  0  0  0
   -0.4800   10.2930   -0.0170 C   0  0  0  0  0  0  0  0  0  0  0  0
   -0.2210   10.8000    1.4230 C   0  0  0  0  0  0  0  0  0  0  0  0
   -1.9570    9.8140   -0.0490 C   0  0  0  0  0  0  0  0  0  0  0  0
    1.6110   12.9570   -2.2480 C   0  0  1  0  0  0  0  0  0  0  0  0
    1.7150   12.3650   -3.6870 C   0  0  0  0  0  0  0  0  0  0  0  0
    3.0180   13.5860   -1.9240 C   0  0  0  0  0  0  0  0  0  0  0  0
    3.0440   14.7390   -0.9030 C   0  0  0  0  0  0  0  0  0  0  0  0
    1.9930   15.7990   -1.2450 C   0  0  2  0  0  0  0  0  0  0  0  0
    2.3620   16.4070   -2.6410 C   0  0  0  0  0  0  0  0  0  0  0  0
    4.8064   17.2256    0.2745 H   0  0  0  0  0  0  0  0  0  0  0  0
    4.0954   16.5559   -1.2330 H   0  0  0  0  0  0  0  0  0  0  0  0
    4.8133   18.2024   -1.2330 H   0  0  0  0  0  0  0  0  0  0  0  0
    2.6275   18.8116   -1.0254 H   0  0  0  0  0  0  0  0  0  0  0  0
    2.6906   19.8479    0.9351 H   0  0  0  0  0  0  0  0  0  0  0  0
    2.1911   18.2884    1.7488 H   0  0  0  0  0  0  0  0  0  0  0  0
    4.5913   17.6405    1.8460 H   0  0  0  0  0  0  0  0  0  0  0  0
    5.0047   19.2974    1.2364 H   0  0  0  0  0  0  0  0  0  0  0  0
    3.1211   19.1430    3.2117 H   0  0  0  0  0  0  0  0  0  0  0  0
    6.9304   17.7845    4.9003 H   0  0  0  0  0  0  0  0  0  0  0  0
    6.1579   17.2314    3.3758 H   0  0  0  0  0  0  0  0  0  0  0  0
    7.1977   18.6961    3.3758 H   0  0  0  0  0  0  0  0  0  0  0  0
    5.7391   18.7785    6.3279 H   0  0  0  0  0  0  0  0  0  0  0  0
    4.6707   20.1612    5.9115 H   0  0  0  0  0  0  0  0  0  0  0  0
    4.0160   18.4885    5.9115 H   0  0  0  0  0  0  0  0  0  0  0  0
    1.9670   16.5993    0.7889 H   0  0  0  0  0  0  0  0  0  0  0  0
   -0.1335   17.7175    0.3748 H   0  0  0  0  0  0  0  0  0  0  0  0
    0.4563   18.4294   -1.1427 H   0  0  0  0  0  0  0  0  0  0  0  0
   -1.3261   16.2053   -0.9340 H   0  0  0  0  0  0  0  0  0  0  0  0
   -0.4672   16.6473   -2.4070 H   0  0  0  0  0  0  0  0  0  0  0  0
    0.6169   15.2034    1.0141 H   0  0  0  0  0  0  0  0  0  0  0  0
   -0.9050   14.5377    0.3305 H   0  0  0  0  0  0  0  0  0  0  0  0
    0.5904   13.5425    0.3305 H   0  0  0  0  0  0  0  0  0  0  0  0
    0.6086   14.6305   -3.2062 H   0  0  0  0  0  0  0  0  0  0  0  0
   -1.6826   14.1315   -2.1378 H   0  0  0  0  0  0  0  0  0  0  0  0
   -1.0047   13.0670   -3.4778 H   0  0  0  0  0  0  0  0  0  0  0  0
   -2.1742   11.8178   -1.4747 H   0  0  0  0  0  0  0  0  0  0  0  0
    1.6509   12.2345   -0.2559 H   0  0  0  0  0  0  0  0  0  0  0  0
    1.7848   10.1034   -2.4773 H   0  0  0  0  0  0  0  0  0  0  0  0
    3.1782   10.7645   -1.5120 H   0  0  0  0  0  0  0  0  0  0  0  0
    2.4708    8.5277   -0.7248 H   0  0  0  0  0  0  0  0  0  0  0  0
    2.2575    9.8161    0.5242 H   0  0  0  0  0  0  0  0  0  0  0  0
    0.3282    8.3899    0.5510 H   0  0  0  0  0  0  0  0  0  0  0  0
    0.7630    7.9530   -1.8870 H   0  0  0  0  0  0  0  0  0  0  0  0
   -0.5984   10.0612    2.1453 H   0  0  0  0  0  0  0  0  0  0  0  0
    0.8595   10.9409    1.5733 H   0  0  0  0  0  0  0  0  0  0  0  0
   -0.7401   11.7581    1.5733 H   0  0  0  0  0  0  0  0  0  0  0  0
   -2.3260    9.6943    0.9803 H   0  0  0  0  0  0  0  0  0  0  0  0
   -2.5726   10.5585   -0.5750 H   0  0  0  0  0  0  0  0  0  0  0  0
   -2.0185    8.8499   -0.5750 H   0  0  0  0  0  0  0  0  0  0  0  0
    1.9050   11.2833   -3.6256 H   0  0  0  0  0  0  0  0  0  0  0  0
    0.7721   12.5417   -4.2252 H   0  0  0  0  0  0  0  0  0  0  0  0
    2.5413   12.8525   -4.2252 H   0  0  0  0  0  0  0  0  0  0  0  0
    3.6604   12.7823   -1.5349 H   0  0  0  0  0  0  0  0  0  0  0  0
    3.3594   14.0312   -2.8702 H   0  0  0  0  0  0  0  0  0  0  0  0
    2.8360   14.3366    0.0994 H   0  0  0  0  0  0  0  0  0  0  0  0
    4.0380   15.2094   -0.9309 H   0  0  0  0  0  0  0  0  0  0  0  0
    2.9278   17.3393   -2.4969 H   0  0  0  0  0  0  0  0  0  0  0  0
    2.9764   15.6883   -3.2031 H   0  0  0  0  0  0  0  0  0  0  0  0
    1.4408   16.6203   -3.2031 H   0  0  0  0  0  0  0  0  0  0  0  0
  1  2  1  0
  2  3  1  0
  3  4  1  0
  4  5  1  0
  5  6  1  0
  6  7  1  0
  7  8  1  0
  7  9  1  0
  2 10  1  0
 10 11  1  0
 11 12  1  0
 12 13  1  0
 13 14  1  1
 13 15  1  0
 15 16  1  0
 16 17  1  0
 17 18  2  0
 18 19  1  0
 19 20  1  0
 20 21  1  0
 21 22  1  0
 22 23  1  0
 22 24  1  0
 24 25  1  0
 24 26  1  0
 19 27  1  0
 27 28  1  6
 27 29  1  0
 29 30  1  0
 30 31  1  0
 31 32  1  6
  7  5  1  0
 31 10  1  0
 31 13  1  0
 27 15  1  0
 24 18  1  0
  1 33  1  0
  1 34  1  0
  1 35  1  0
  2 36  1  6
  3 37  1  0
  3 38  1  0
  4 39  1  0
  4 40  1  0
  5 41  1  1
  8 42  1  0
  8 43  1  0
  8 44  1  0
  9 45  1  0
  9 46  1  0
  9 47  1  0
 10 48  1  1
 11 49  1  0
 11 50  1  0
 12 51  1  0
 12 52  1  0
 14 53  1  0
 14 54  1  0
 14 55  1  0
 15 56  1  6
 16 57  1  0
 16 58  1  0
 17 59  1  0
 19 60  1  1
 20 61  1  0
 20 62  1  0
 21 63  1  0
 21 64  1  0
 22 65  1  1
 23 66  1  0
 25 67  1  0
 25 68  1  0
 25 69  1  0
 26 70  1  0
 26 71  1  0
 26 72  1  0
 28 73  1  0
 28 74  1  0
 28 75  1  0
 29 76  1  0
 29 77  1  0
 30 78  1  0
 30 79  1  0
 32 80  1  0
 32 81  1  0
 32 82  1  0
M  END
>  <meeko>  (2) 
{"is_sidechain": [false], "intermolecular_energy": 2.731, "internal_energy": -0.839}

$$$$
EPH_relaxed_0001_pdb2pqr_Repair_55_r2_0001_out
     RDKit          3D

 82 86  0  0  0  0  0  0  0  0999 V2000
    2.3550   17.9840   -2.7190 C   0  0  0  0  0  0  0  0  0  0  0  0
    1.0500   17.6140   -2.0100 C   0  0  2  0  0  0  0  0  0  0  0  0
    1.1830   17.6830   -0.4750 C   0  0  0  0  0  0  0  0  0  0  0  0
    0.8620   19.0620    0.1090 C   0  0  0  0  0  0  0  0  0  0  0  0
   -0.5790   19.1750    0.5050 C   0  0  2  0  0  0  0  0  0  0  0  0
   -1.4550   18.2520   -0.1550 O   0  0  0  0  0  0  0  0  0  0  0  0
   -1.6720   19.6440   -0.4370 C   0  0  0  0  0  0  0  0  0  0  0  0
   -1.3700   20.0330   -1.8500 C   0  0  0  0  0  0  0  0  0  0  0  0
   -2.9370   20.1880    0.1500 C   0  0  0  0  0  0  0  0  0  0  0  0
    0.6070   16.2180   -2.4320 C   0  0  1  0  0  0  0  0  0  0  0  0
    0.7090   15.9960   -3.9640 C   0  0  0  0  0  0  0  0  0  0  0  0
    1.1140   14.5150   -4.1760 C   0  0  0  0  0  0  0  0  0  0  0  0
    0.9090   13.8530   -2.7940 C   0  0  1  0  0  0  0  0  0  0  0  0
   -0.6210   13.5540   -2.7150 C   0  0  0  0  0  0  0  0  0  0  0  0
    1.7630   12.5750   -2.5070 C   0  0  2  0  0  0  0  0  0  0  0  0
    1.4870   11.3830   -3.4400 C   0  0  0  0  0  0  0  0  0  0  0  0
    0.4290   10.4390   -2.9740 C   0  0  0  0  0  0  0  0  0  0  0  0
   -0.0730   10.3810   -1.7260 C   0  0  0  0  0  0  0  0  0  0  0  0
    0.4980   11.2600   -0.6060 C   0  0  1  0  0  0  0  0  0  0  0  0
    0.7230   10.3990    0.6640 C   0  0  0  0  0  0  0  0  0  0  0  0
   -0.5340    9.6490    1.0940 C   0  0  0  0  0  0  0  0  0  0  0  0
   -1.0380    8.7420   -0.0260 C   0  0  2  0  0  0  0  0  0  0  0  0
   -0.0820    7.6980   -0.2380 O   0  0  0  0  0  0  0  0  0  0  0  0
   -1.2910    9.4980   -1.3600 C   0  0  0  0  0  0  0  0  0  0  0  0
   -2.5290   10.4170   -1.2100 C   0  0  0  0  0  0  0  0  0  0  0  0
   -1.6590    8.4470   -2.4420 C   0  0  0  0  0  0  0  0  0  0  0  0
    1.7720   12.1290   -0.9880 C   0  0  1  0  0  0  0  0  0  0  0  0
    3.0700   11.2920   -0.7780 C   0  0  0  0  0  0  0  0  0  0  0  0
    1.8710   13.3560   -0.0050 C   0  0  0  0  0  0  0  0  0  0  0  0
    1.1020   14.6300   -0.4050 C   0  0  0  0  0  0  0  0  0  0  0  0
    1.3990   15.0170   -1.8570 C   0  0  2  0  0  0  0  0  0  0  0  0
    2.9270   15.3450   -1.9620 C   0  0  0  0  0  0  0  0  0  0  0  0
    3.1298   18.2037   -1.9697 H   0  0  0  0  0  0  0  0  0  0  0  0
    2.6815   17.1430   -3.3484 H   0  0  0  0  0  0  0  0  0  0  0  0
    2.1915   18.8712   -3.3484 H   0  0  0  0  0  0  0  0  0  0  0  0
    0.2905   18.3514   -2.3090 H   0  0  0  0  0  0  0  0  0  0  0  0
    0.4926   16.9494   -0.0332 H   0  0  0  0  0  0  0  0  0  0  0  0
    2.2344   17.4681   -0.2333 H   0  0  0  0  0  0  0  0  0  0  0  0
    1.4897   19.2279    0.9970 H   0  0  0  0  0  0  0  0  0  0  0  0
    1.0651   19.8174   -0.6644 H   0  0  0  0  0  0  0  0  0  0  0  0
   -0.2992   19.4852    1.5226 H   0  0  0  0  0  0  0  0  0  0  0  0
   -0.6954   20.9019   -1.8549 H   0  0  0  0  0  0  0  0  0  0  0  0
   -0.8868   19.1908   -2.3669 H   0  0  0  0  0  0  0  0  0  0  0  0
   -2.3057   20.2923   -2.3669 H   0  0  0  0  0  0  0  0  0  0  0  0
   -2.8733   20.1606    1.2478 H   0  0  0  0  0  0  0  0  0  0  0  0
   -3.0788   21.2267   -0.1832 H   0  0  0  0  0  0  0  0  0  0  0  0
   -3.7885   19.5765   -0.1832 H   0  0  0  0  0  0  0  0  0  0  0  0
   -0.4174   16.2208   -2.0311 H   0  0  0  0  0  0  0  0  0  0  0  0
   -0.2620   16.1950   -4.4409 H   0  0  0  0  0  0  0  0  0  0  0  0
    1.4485   16.6755   -4.4129 H   0  0  0  0  0  0  0  0  0  0  0  0
    0.4714   14.0412   -4.9327 H   0  0  0  0  0  0  0  0  0  0  0  0
    2.1476   14.4129   -4.5382 H   0  0  0  0  0  0  0  0  0  0  0  0
   -0.9289   13.4938   -1.6607 H   0  0  0  0  0  0  0  0  0  0  0  0
   -1.1784   14.3602   -3.2143 H   0  0  0  0  0  0  0  0  0  0  0  0
   -0.8339   12.5973   -3.2143 H   0  0  0  0  0  0  0  0  0  0  0  0
    2.7818   12.9134   -2.7470 H   0  0  0  0  0  0  0  0  0  0  0  0
    1.1799   11.7813   -4.4183 H   0  0  0  0  0  0  0  0  0  0  0  0
    2.4199   10.8012   -3.4737 H   0  0  0  0  0  0  0  0  0  0  0  0
    0.0253    9.7308   -3.7126 H   0  0  0  0  0  0  0  0  0  0  0  0
   -0.2624   12.0291   -0.4054 H   0  0  0  0  0  0  0  0  0  0  0  0
    1.5170    9.6664    0.4570 H   0  0  0  0  0  0  0  0  0  0  0  0
    1.0020   11.0788    1.4825 H   0  0  0  0  0  0  0  0  0  0  0  0
   -0.3028    9.0357    1.9774 H   0  0  0  0  0  0  0  0  0  0  0  0
   -1.3177   10.3838    1.3304 H   0  0  0  0  0  0  0  0  0  0  0  0
   -2.0089    8.3338    0.2913 H   0  0  0  0  0  0  0  0  0  0  0  0
    0.5200    7.6910    0.5250 H   0  0  0  0  0  0  0  0  0  0  0  0
   -2.7414   10.5747   -0.1423 H   0  0  0  0  0  0  0  0  0  0  0  0
   -2.3270   11.3856   -1.6906 H   0  0  0  0  0  0  0  0  0  0  0  0
   -3.3977    9.9433   -1.6906 H   0  0  0  0  0  0  0  0  0  0  0  0
   -1.9847    7.5167   -1.9537 H   0  0  0  0  0  0  0  0  0  0  0  0
   -2.4742    8.8367   -3.0694 H   0  0  0  0  0  0  0  0  0  0  0  0
   -0.7788    8.2430   -3.0694 H   0  0  0  0  0  0  0  0  0  0  0  0
    3.2579   11.1708    0.2990 H   0  0  0  0  0  0  0  0  0  0  0  0
    2.9473   10.3024   -1.2424 H   0  0  0  0  0  0  0  0  0  0  0  0
    3.9208   11.8121   -1.2424 H   0  0  0  0  0  0  0  0  0  0  0  0
    1.4890   13.0301    0.9737 H   0  0  0  0  0  0  0  0  0  0  0  0
    2.9321   13.6459   -0.0122 H   0  0  0  0  0  0  0  0  0  0  0  0
    0.0227   14.4483   -0.2947 H   0  0  0  0  0  0  0  0  0  0  0  0
    1.4230   15.4534    0.2499 H   0  0  0  0  0  0  0  0  0  0  0  0
    3.3527   15.4364   -0.9518 H   0  0  0  0  0  0  0  0  0  0  0  0
    3.4392   14.5363   -2.5040 H   0  0  0  0  0  0  0  0  0  0  0  0
    3.0622   16.2926   -2.5040 H   0  0  0  0  0  0  0  0  0  0  0  0
  1  2  1  0
  2  3  1  0
  3  4  1  0
  4  5  1  0
  5  6  1  0
  6  7  1  0
  7  8  1  0
  7  9  1  0
  2 10  1  0
 10 11  1  0
 11 12  1  0
 12 13  1  0
 13 14  1  1
 13 15  1  0
 15 16  1  0
 16 17  1  0
 17 18  2  0
 18 19  1  0
 19 20  1  0
 20 21  1  0
 21 22  1  0
 22 23  1  0
 22 24  1  0
 24 25  1  0
 24 26  1  0
 19 27  1  0
 27 28  1  6
 27 29  1  0
 29 30  1  0
 30 31  1  0
 31 32  1  1
  7  5  1  0
 31 10  1  0
 31 13  1  0
 27 15  1  0
 24 18  1  0
  1 33  1  0
  1 34  1  0
  1 35  1  0
  2 36  1  6
  3 37  1  0
  3 38  1  0
  4 39  1  0
  4 40  1  0
  5 41  1  1
  8 42  1  0
  8 43  1  0
  8 44  1  0
  9 45  1  0
  9 46  1  0
  9 47  1  0
 10 48  1  1
 11 49  1  0
 11 50  1  0
 12 51  1  0
 12 52  1  0
 14 53  1  0
 14 54  1  0
 14 55  1  0
 15 56  1  6
 16 57  1  0
 16 58  1  0
 17 59  1  0
 19 60  1  1
 20 61  1  0
 20 62  1  0
 21 63  1  0
 21 64  1  0
 22 65  1  1
 23 66  1  0
 25 67  1  0
 25 68  1  0
 25 69  1  0
 26 70  1  0
 26 71  1  0
 26 72  1  0
 28 73  1  0
 28 74  1  0
 28 75  1  0
 29 76  1  0
 29 77  1  0
 30 78  1  0
 30 79  1  0
 32 80  1  0
 32 81  1  0
 32 82  1  0
M  END
>  <meeko>  (3) 
{"is_sidechain": [false], "intermolecular_energy": 2.731, "internal_energy": -0.839}

$$$$
EPH_relaxed_0001_pdb2pqr_Repair_55_r2_0001_out
     RDKit          3D

 82 86  0  0  0  0  0  0  0  0999 V2000
    2.1890   18.0160   -2.5520 C   0  0  0  0  0  0  0  0  0  0  0  0
    0.6680   17.8570   -2.6350 C   0  0  2  0  0  0  0  0  0  0  0  0
   -0.0350   18.3150   -1.3410 C   0  0  0  0  0  0  0  0  0  0  0  0
    0.7010   17.9040   -0.0620 C   0  0  0  0  0  0  0  0  0  0  0  0
    1.2230   19.0950    0.6830 C   0  0  2  0  0  0  0  0  0  0  0  0
    2.1000   19.9390   -0.0740 O   0  0  0  0  0  0  0  0  0  0  0  0
    2.6820   19.2730    1.0580 C   0  0  0  0  0  0  0  0  0  0  0  0
    3.7110   18.2480    0.6990 C   0  0  0  0  0  0  0  0  0  0  0  0
    3.0240   20.1940    2.1880 C   0  0  0  0  0  0  0  0  0  0  0  0
    0.3130   16.4050   -2.9340 C   0  0  1  0  0  0  0  0  0  0  0  0
    0.3960   16.0700   -4.4470 C   0  0  0  0  0  0  0  0  0  0  0  0
    0.8970   14.6070   -4.5550 C   0  0  0  0  0  0  0  0  0  0  0  0
    0.7680   14.0440   -3.1200 C   0  0  1  0  0  0  0  0  0  0  0  0
   -0.7360   13.6520   -2.9760 C   0  0  0  0  0  0  0  0  0  0  0  0
    1.7130   12.8530   -2.7570 C   0  0  2  0  0  0  0  0  0  0  0  0
    1.5000   11.5750   -3.5870 C   0  0  0  0  0  0  0  0  0  0  0  0
    0.5190   10.6020   -3.0210 C   0  0  0  0  0  0  0  0  0  0  0  0
    0.0500   10.6100   -1.7590 C   0  0  0  0  0  0  0  0  0  0  0  0
    0.5830   11.6120   -0.7270 C   0  0  1  0  0  0  0  0  0  0  0  0
    0.8940   10.8710    0.6000 C   0  0  0  0  0  0  0  0  0  0  0  0
   -0.2990   10.0760    1.1210 C   0  0  0  0  0  0  0  0  0  0  0  0
   -0.7640    9.0510    0.0890 C   0  0  2  0  0  0  0  0  0  0  0  0
    0.2560    8.0600   -0.0670 O   0  0  0  0  0  0  0  0  0  0  0  0
   -1.0970    9.6800   -1.2920 C   0  0  0  0  0  0  0  0  0  0  0  0
   -2.3920   10.5230   -1.1810 C   0  0  0  0  0  0  0  0  0  0  0  0
   -1.4160    8.5250   -2.2790 C   0  0  0  0  0  0  0  0  0  0  0  0
    1.7860   12.5310   -1.2090 C   0  0  1  0  0  0  0  0  0  0  0  0
    3.1430   11.8000   -0.9700 C   0  0  0  0  0  0  0  0  0  0  0  0
    1.8220   13.8350   -0.3280 C   0  0  0  0  0  0  0  0  0  0  0  0
    0.9600   15.0190   -0.8040 C   0  0  0  0  0  0  0  0  0  0  0  0
    1.1970   15.3090   -2.2890 C   0  0  2  0  0  0  0  0  0  0  0  0
    2.6970   15.7280   -2.4610 C   0  0  0  0  0  0  0  0  0  0  0  0
    2.4972   18.0482   -1.4966 H   0  0  0  0  0  0  0  0  0  0  0  0
    2.6745   17.1637   -3.0499 H   0  0  0  0  0  0  0  0  0  0  0  0
    2.4877   18.9503   -3.0499 H   0  0  0  0  0  0  0  0  0  0  0  0
    0.3117   18.5029   -3.4510 H   0  0  0  0  0  0  0  0  0  0  0  0
   -0.1147   19.4120   -1.3586 H   0  0  0  0  0  0  0  0  0  0  0  0
   -1.0187   17.8232   -1.3181 H   0  0  0  0  0  0  0  0  0  0  0  0
    0.0056   17.3532    0.5884 H   0  0  0  0  0  0  0  0  0  0  0  0
    1.5571   17.2743   -0.3458 H   0  0  0  0  0  0  0  0  0  0  0  0
    0.2961   19.1620    1.2715 H   0  0  0  0  0  0  0  0  0  0  0  0
    4.1395   17.8212    1.6178 H   0  0  0  0  0  0  0  0  0  0  0  0
    3.2412   17.4483    0.1076 H   0  0  0  0  0  0  0  0  0  0  0  0
    4.5089   18.7209    0.1076 H   0  0  0  0  0  0  0  0  0  0  0  0
    2.8353   19.6858    3.1452 H   0  0  0  0  0  0  0  0  0  0  0  0
    4.0859   20.4737    2.1245 H   0  0  0  0  0  0  0  0  0  0  0  0
    2.4020   21.0990    2.1245 H   0  0  0  0  0  0  0  0  0  0  0  0
   -0.6997   16.3707   -2.5059 H   0  0  0  0  0  0  0  0  0  0  0  0
   -0.5968   16.1655   -4.9110 H   0  0  0  0  0  0  0  0  0  0  0  0
    1.0769   16.7598   -4.9672 H   0  0  0  0  0  0  0  0  0  0  0  0
    0.2720   14.0331   -5.2550 H   0  0  0  0  0  0  0  0  0  0  0  0
    1.9269   14.5456   -4.9364 H   0  0  0  0  0  0  0  0  0  0  0  0
   -0.9967   13.5840   -1.9095 H   0  0  0  0  0  0  0  0  0  0  0  0
   -1.3621   14.4170   -3.4585 H   0  0  0  0  0  0  0  0  0  0  0  0
   -0.9091   12.6787   -3.4585 H   0  0  0  0  0  0  0  0  0  0  0  0
    2.7008   13.2386   -3.0495 H   0  0  0  0  0  0  0  0  0  0  0  0
    1.1457   11.8731   -4.5848 H   0  0  0  0  0  0  0  0  0  0  0  0
    2.4698   11.0560   -3.6001 H   0  0  0  0  0  0  0  0  0  0  0  0
    0.1484    9.8125   -3.6913 H   0  0  0  0  0  0  0  0  0  0  0  0
   -0.2239   12.3424   -0.5673 H   0  0  0  0  0  0  0  0  0  0  0  0
    1.7313   10.1785    0.4290 H   0  0  0  0  0  0  0  0  0  0  0  0
    1.1438   11.6307    1.3553 H   0  0  0  0  0  0  0  0  0  0  0  0
   -0.0074    9.5518    2.0430 H   0  0  0  0  0  0  0  0  0  0  0  0
   -1.1258   10.7736    1.3205 H   0  0  0  0  0  0  0  0  0  0  0  0
   -1.6974    8.6054    0.4634 H   0  0  0  0  0  0  0  0  0  0  0  0
   -0.1200    7.3300   -0.5870 H   0  0  0  0  0  0  0  0  0  0  0  0
   -2.6362   10.6820   -0.1203 H   0  0  0  0  0  0  0  0  0  0  0  0
   -2.2397   11.4955   -1.6719 H   0  0  0  0  0  0  0  0  0  0  0  0
   -3.2196    9.9901   -1.6719 H   0  0  0  0  0  0  0  0  0  0  0  0
   -1.6669    7.6166   -1.7116 H   0  0  0  0  0  0  0  0  0  0  0  0
   -2.2693    8.8091   -2.9124 H   0  0  0  0  0  0  0  0  0  0  0  0
   -0.5378    8.3309   -2.9124 H   0  0  0  0  0  0  0  0  0  0  0  0
    3.3221   11.7035    0.1110 H   0  0  0  0  0  0  0  0  0  0  0  0
    3.1060   10.7998   -1.4262 H   0  0  0  0  0  0  0  0  0  0  0  0
    3.9579   12.3812   -1.4262 H   0  0  0  0  0  0  0  0  0  0  0  0
    1.4844   13.5629    0.6830 H   0  0  0  0  0  0  0  0  0  0  0  0
    2.8604   14.1932   -0.3867 H   0  0  0  0  0  0  0  0  0  0  0  0
   -0.1017   14.7757   -0.6501 H   0  0  0  0  0  0  0  0  0  0  0  0
    1.2392   15.9110   -0.2240 H   0  0  0  0  0  0  0  0  0  0  0  0
    3.1577   15.8567   -1.4704 H   0  0  0  0  0  0  0  0  0  0  0  0
    3.2348   14.9457   -3.0167 H   0  0  0  0  0  0  0  0  0  0  0  0
    2.7516   16.6758   -3.0167 H   0  0  0  0  0  0  0  0  0  0  0  0
  1  2  1  0
  2  3  1  0
  3  4  1  0
  4  5  1  0
  5  6  1  0
  6  7  1  0
  7  8  1  0
  7  9  1  0
  2 10  1  0
 10 11  1  0
 11 12  1  0
 12 13  1  0
 13 14  1  1
 13 15  1  0
 15 16  1  0
 16 17  1  0
 17 18  2  0
 18 19  1  0
 19 20  1  0
 20 21  1  0
 21 22  1  0
 22 23  1  0
 22 24  1  0
 24 25  1  0
 24 26  1  0
 19 27  1  0
 27 28  1  6
 27 29  1  0
 29 30  1  0
 30 31  1  0
 31 32  1  1
  7  5  1  0
 31 10  1  0
 31 13  1  0
 27 15  1  0
 24 18  1  0
  1 33  1  0
  1 34  1  0
  1 35  1  0
  2 36  1  6
  3 37  1  0
  3 38  1  0
  4 39  1  0
  4 40  1  0
  5 41  1  1
  8 42  1  0
  8 43  1  0
  8 44  1  0
  9 45  1  0
  9 46  1  0
  9 47  1  0
 10 48  1  1
 11 49  1  0
 11 50  1  0
 12 51  1  0
 12 52  1  0
 14 53  1  0
 14 54  1  0
 14 55  1  0
 15 56  1  6
 16 57  1  0
 16 58  1  0
 17 59  1  0
 19 60  1  1
 20 61  1  0
 20 62  1  0
 21 63  1  0
 21 64  1  0
 22 65  1  1
 23 66  1  0
 25 67  1  0
 25 68  1  0
 25 69  1  0
 26 70  1  0
 26 71  1  0
 26 72  1  0
 28 73  1  0
 28 74  1  0
 28 75  1  0
 29 76  1  0
 29 77  1  0
 30 78  1  0
 30 79  1  0
 32 80  1  0
 32 81  1  0
 32 82  1  0
M  END
>  <meeko>  (4) 
{"is_sidechain": [false], "intermolecular_energy": 2.731, "internal_energy": -0.839}

$$$$
EPH_relaxed_0001_pdb2pqr_Repair_55_r2_0001_out
     RDKit          3D

 82 86  0  0  0  0  0  0  0  0999 V2000
   -3.4040    9.3100    0.5260 C   0  0  0  0  0  0  0  0  0  0  0  0
   -2.5760    9.6730   -0.7100 C   0  0  2  0  0  0  0  0  0  0  0  0
   -1.9070    8.4370   -1.3440 C   0  0  0  0  0  0  0  0  0  0  0  0
   -2.8240    7.6610   -2.2930 C   0  0  0  0  0  0  0  0  0  0  0  0
   -4.2630    7.7720   -1.8890 C   0  0  2  0  0  0  0  0  0  0  0  0
   -4.8180    6.5800   -1.3160 O   0  0  0  0  0  0  0  0  0  0  0  0
   -5.3840    7.0060   -2.5660 C   0  0  0  0  0  0  0  0  0  0  0  0
   -5.1150    6.0730   -3.7050 C   0  0  0  0  0  0  0  0  0  0  0  0
   -6.7820    7.5290   -2.4470 C   0  0  0  0  0  0  0  0  0  0  0  0
   -1.5170   10.7060   -0.3410 C   0  0  1  0  0  0  0  0  0  0  0  0
   -0.4180   10.1280    0.5910 C   0  0  0  0  0  0  0  0  0  0  0  0
    0.9120   10.8210    0.1970 C   0  0  0  0  0  0  0  0  0  0  0  0
    0.4840   12.0010   -0.7080 C   0  0  1  0  0  0  0  0  0  0  0  0
    0.0450   13.1260    0.2810 C   0  0  0  0  0  0  0  0  0  0  0  0
    1.5530   12.5130   -1.7270 C   0  0  2  0  0  0  0  0  0  0  0  0
    2.8350   13.0840   -1.0960 C   0  0  0  0  0  0  0  0  0  0  0  0
    2.8090   14.5500   -0.8150 C   0  0  0  0  0  0  0  0  0  0  0  0
    1.9180   15.4270   -1.3140 C   0  0  0  0  0  0  0  0  0  0  0  0
    0.8630   14.9820   -2.3360 C   0  0  1  0  0  0  0  0  0  0  0  0
    0.8110   16.0000   -3.5040 C   0  0  0  0  0  0  0  0  0  0  0  0
    0.5910   17.4310   -3.0240 C   0  0  0  0  0  0  0  0  0  0  0  0
    1.6920   17.8570   -2.0560 C   0  0  2  0  0  0  0  0  0  0  0  0
    2.9300   17.9300   -2.7690 O   0  0  0  0  0  0  0  0  0  0  0  0
    1.8440   16.8990   -0.8410 C   0  0  0  0  0  0  0  0  0  0  0  0
    0.6190   17.0480    0.0950 C   0  0  0  0  0  0  0  0  0  0  0  0
    3.0770   17.3620   -0.0200 C   0  0  0  0  0  0  0  0  0  0  0  0
    0.9770   13.4790   -2.8400 C   0  0  1  0  0  0  0  0  0  0  0  0
    1.9570   13.3970   -4.0510 C   0  0  0  0  0  0  0  0  0  0  0  0
   -0.4280   13.0070   -3.3730 C   0  0  0  0  0  0  0  0  0  0  0  0
   -1.3950   12.4000   -2.3390 C   0  0  0  0  0  0  0  0  0  0  0  0
   -0.6960   11.3270   -1.4990 C   0  0  2  0  0  0  0  0  0  0  0  0
   -0.2620   10.1710   -2.4640 C   0  0  0  0  0  0  0  0  0  0  0  0
   -2.8356    9.5592    1.4342 H   0  0  0  0  0  0  0  0  0  0  0  0
   -4.3462    9.8776    0.5158 H   0  0  0  0  0  0  0  0  0  0  0  0
   -3.6250    8.2325    0.5158 H   0  0  0  0  0  0  0  0  0  0  0  0
   -3.2641   10.0958   -1.4568 H   0  0  0  0  0  0  0  0  0  0  0  0
   -1.0246    8.7712   -1.9094 H   0  0  0  0  0  0  0  0  0  0  0  0
   -1.6444    7.7556   -0.5213 H   0  0  0  0  0  0  0  0  0  0  0  0
   -2.7073    8.0638   -3.3099 H   0  0  0  0  0  0  0  0  0  0  0  0
   -2.5381    6.5995   -2.2538 H   0  0  0  0  0  0  0  0  0  0  0  0
   -4.1377    8.8383   -1.6498 H   0  0  0  0  0  0  0  0  0  0  0  0
   -4.8305    5.0861   -3.3112 H   0  0  0  0  0  0  0  0  0  0  0  0
   -6.0214    5.9748   -4.3204 H   0  0  0  0  0  0  0  0  0  0  0  0
   -4.2954    6.4724   -4.3204 H   0  0  0  0  0  0  0  0  0  0  0  0
   -7.0471    7.6282   -1.3840 H   0  0  0  0  0  0  0  0  0  0  0  0
   -6.8482    8.5127   -2.9348 H   0  0  0  0  0  0  0  0  0  0  0  0
   -7.4776    6.8303   -2.9348 H   0  0  0  0  0  0  0  0  0  0  0  0
   -2.1585   11.4724    0.1185 H   0  0  0  0  0  0  0  0  0  0  0  0
   -0.6607   10.3436    1.6420 H   0  0  0  0  0  0  0  0  0  0  0  0
   -0.3419    9.0360    0.4823 H   0  0  0  0  0  0  0  0  0  0  0  0
    1.4383   11.1879    1.0905 H   0  0  0  0  0  0  0  0  0  0  0  0
    1.6051   10.1350   -0.3119 H   0  0  0  0  0  0  0  0  0  0  0  0
    0.1808   12.7781    1.3157 H   0  0  0  0  0  0  0  0  0  0  0  0
    0.6591   14.0228    0.1121 H   0  0  0  0  0  0  0  0  0  0  0  0
   -1.0143   13.3698    0.1121 H   0  0  0  0  0  0  0  0  0  0  0  0
    1.8574   11.5861   -2.2352 H   0  0  0  0  0  0  0  0  0  0  0  0
    3.0090   12.5587   -0.1453 H   0  0  0  0  0  0  0  0  0  0  0  0
    3.6334   12.9302   -1.8368 H   0  0  0  0  0  0  0  0  0  0  0  0
    3.5839   14.9473   -0.1430 H   0  0  0  0  0  0  0  0  0  0  0  0
   -0.0977   14.9808   -1.8002 H   0  0  0  0  0  0  0  0  0  0  0  0
    1.7628   15.9549   -4.0535 H   0  0  0  0  0  0  0  0  0  0  0  0
   -0.0404   15.7286   -4.1455 H   0  0  0  0  0  0  0  0  0  0  0  0
    0.5938   18.1064   -3.8922 H   0  0  0  0  0  0  0  0  0  0  0  0
   -0.3753   17.4812   -2.5008 H   0  0  0  0  0  0  0  0  0  0  0  0
    1.4105   18.8389   -1.6478 H   0  0  0  0  0  0  0  0  0  0  0  0
    3.6230   17.5670   -2.1930 H   0  0  0  0  0  0  0  0  0  0  0  0
    0.9512   17.0076    1.1429 H   0  0  0  0  0  0  0  0  0  0  0  0
    0.1264   18.0127   -0.0966 H   0  0  0  0  0  0  0  0  0  0  0  0
   -0.0905   16.2295   -0.0966 H   0  0  0  0  0  0  0  0  0  0  0  0
    2.8547   17.2785    1.0541 H   0  0  0  0  0  0  0  0  0  0  0  0
    3.9408   16.7270   -0.2661 H   0  0  0  0  0  0  0  0  0  0  0  0
    3.3094   18.4086   -0.2661 H   0  0  0  0  0  0  0  0  0  0  0  0
    2.9896   13.3106   -3.6819 H   0  0  0  0  0  0  0  0  0  0  0  0
    1.7113   12.5163   -4.6625 H   0  0  0  0  0  0  0  0  0  0  0  0
    1.8611   14.3063   -4.6625 H   0  0  0  0  0  0  0  0  0  0  0  0
   -0.9247   13.8805   -3.8205 H   0  0  0  0  0  0  0  0  0  0  0  0
   -0.2093   12.1903   -4.0767 H   0  0  0  0  0  0  0  0  0  0  0  0
   -1.7581   13.1976   -1.6742 H   0  0  0  0  0  0  0  0  0  0  0  0
   -2.2348   11.9339   -2.8753 H   0  0  0  0  0  0  0  0  0  0  0  0
    0.0640    9.3027   -1.8726 H   0  0  0  0  0  0  0  0  0  0  0  0
   -1.1135    9.8838   -3.0984 H   0  0  0  0  0  0  0  0  0  0  0  0
    0.5682   10.5151   -3.0984 H   0  0  0  0  0  0  0  0  0  0  0  0
  1  2  1  0
  2  3  1  0
  3  4  1  0
  4  5  1  0
  5  6  1  0
  6  7  1  0
  7  8  1  0
  7  9  1  0
  2 10  1  0
 10 11  1  0
 11 12  1  0
 12 13  1  0
 13 14  1  1
 13 15  1  0
 15 16  1  0
 16 17  1  0
 17 18  2  0
 18 19  1  0
 19 20  1  0
 20 21  1  0
 21 22  1  0
 22 23  1  0
 22 24  1  0
 24 25  1  0
 24 26  1  0
 19 27  1  0
 27 28  1  6
 27 29  1  0
 29 30  1  0
 30 31  1  0
 31 32  1  6
  7  5  1  0
 31 10  1  0
 31 13  1  0
 27 15  1  0
 24 18  1  0
  1 33  1  0
  1 34  1  0
  1 35  1  0
  2 36  1  6
  3 37  1  0
  3 38  1  0
  4 39  1  0
  4 40  1  0
  5 41  1  1
  8 42  1  0
  8 43  1  0
  8 44  1  0
  9 45  1  0
  9 46  1  0
  9 47  1  0
 10 48  1  1
 11 49  1  0
 11 50  1  0
 12 51  1  0
 12 52  1  0
 14 53  1  0
 14 54  1  0
 14 55  1  0
 15 56  1  6
 16 57  1  0
 16 58  1  0
 17 59  1  0
 19 60  1  1
 20 61  1  0
 20 62  1  0
 21 63  1  0
 21 64  1  0
 22 65  1  1
 23 66  1  0
 25 67  1  0
 25 68  1  0
 25 69  1  0
 26 70  1  0
 26 71  1  0
 26 72  1  0
 28 73  1  0
 28 74  1  0
 28 75  1  0
 29 76  1  0
 29 77  1  0
 30 78  1  0
 30 79  1  0
 32 80  1  0
 32 81  1  0
 32 82  1  0
M  END
>  <meeko>  (5) 
{"is_sidechain": [false], "intermolecular_energy": 2.731, "internal_energy": -0.839}

$$$$
EPH_relaxed_0001_pdb2pqr_Repair_55_r2_0001_out
     RDKit          3D

 82 86  0  0  0  0  0  0  0  0999 V2000
    3.9510   17.4240    0.2700 C   0  0  0  0  0  0  0  0  0  0  0  0
    2.8570   17.7900   -0.7370 C   0  0  2  0  0  0  0  0  0  0  0  0
    2.2380   19.1720   -0.4450 C   0  0  0  0  0  0  0  0  0  0  0  0
    1.2030   19.1570    0.6830 C   0  0  0  0  0  0  0  0  0  0  0  0
   -0.0330   19.9180    0.3120 C   0  0  2  0  0  0  0  0  0  0  0  0
   -0.9200   20.1900    1.4050 O   0  0  0  0  0  0  0  0  0  0  0  0
   -1.4290   19.3270    0.3750 C   0  0  0  0  0  0  0  0  0  0  0  0
   -1.6610   17.9180    0.8220 C   0  0  0  0  0  0  0  0  0  0  0  0
   -2.5080   19.9510   -0.4540 C   0  0  0  0  0  0  0  0  0  0  0  0
    1.7700   16.7220   -0.7360 C   0  0  1  0  0  0  0  0  0  0  0  0
    0.4280   17.2350   -1.3220 C   0  0  0  0  0  0  0  0  0  0  0  0
   -0.2190   16.0410   -2.0700 C   0  0  0  0  0  0  0  0  0  0  0  0
    0.5960   14.8080   -1.6160 C   0  0  1  0  0  0  0  0  0  0  0  0
   -0.0000   14.4230   -0.2250 C   0  0  0  0  0  0  0  0  0  0  0  0
    0.6100   13.5890   -2.5950 C   0  0  2  0  0  0  0  0  0  0  0  0
   -0.7630   12.9460   -2.8570 C   0  0  0  0  0  0  0  0  0  0  0  0
   -1.1350   11.8370   -1.9290 C   0  0  0  0  0  0  0  0  0  0  0  0
   -0.2880   11.1850   -1.1110 C   0  0  0  0  0  0  0  0  0  0  0  0
    1.2170   11.4820   -1.1360 C   0  0  1  0  0  0  0  0  0  0  0  0
    2.0070   10.1470   -1.1570 C   0  0  0  0  0  0  0  0  0  0  0  0
    1.6150    9.2160   -0.0140 C   0  0  0  0  0  0  0  0  0  0  0  0
    0.1230    8.8980   -0.0570 C   0  0  2  0  0  0  0  0  0  0  0  0
   -0.1500    8.1230   -1.2280 O   0  0  0  0  0  0  0  0  0  0  0  0
   -0.7750   10.1680   -0.0490 C   0  0  0  0  0  0  0  0  0  0  0  0
   -0.7060   10.8450    1.3410 C   0  0  0  0  0  0  0  0  0  0  0  0
   -2.2470    9.7120   -0.2390 C   0  0  0  0  0  0  0  0  0  0  0  0
    1.7050   12.4980   -2.2560 C   0  0  1  0  0  0  0  0  0  0  0  0
    1.9930   11.7300   -3.5820 C   0  0  0  0  0  0  0  0  0  0  0  0
    3.0710   13.1390   -1.8090 C   0  0  0  0  0  0  0  0  0  0  0  0
    2.9910   14.4100   -0.9410 C   0  0  0  0  0  0  0  0  0  0  0  0
    2.0360   15.4360   -1.5590 C   0  0  2  0  0  0  0  0  0  0  0  0
    2.6220   15.8590   -2.9490 C   0  0  0  0  0  0  0  0  0  0  0  0
    3.5662   17.5527    1.2924 H   0  0  0  0  0  0  0  0  0  0  0  0
    4.2514   16.3764    0.1205 H   0  0  0  0  0  0  0  0  0  0  0  0
    4.8213   18.0799    0.1205 H   0  0  0  0  0  0  0  0  0  0  0  0
    3.3262   17.8413   -1.7306 H   0  0  0  0  0  0  0  0  0  0  0  0
    3.0470   19.8627   -0.1648 H   0  0  0  0  0  0  0  0  0  0  0  0
    1.7133   19.4886   -1.3585 H   0  0  0  0  0  0  0  0  0  0  0  0
    0.9278   18.1144    0.9003 H   0  0  0  0  0  0  0  0  0  0  0  0
    1.6503   19.6390    1.5648 H   0  0  0  0  0  0  0  0  0  0  0  0
    0.5067   20.4532   -0.4832 H   0  0  0  0  0  0  0  0  0  0  0  0
   -1.6675   17.8784    1.9213 H   0  0  0  0  0  0  0  0  0  0  0  0
   -2.6292   17.5658    0.4367 H   0  0  0  0  0  0  0  0  0  0  0  0
   -0.8568   17.2740    0.4367 H   0  0  0  0  0  0  0  0  0  0  0  0
   -3.2695   20.3914    0.2065 H   0  0  0  0  0  0  0  0  0  0  0  0
   -2.0741   20.7376   -1.0888 H   0  0  0  0  0  0  0  0  0  0  0  0
   -2.9733   19.1826   -1.0888 H   0  0  0  0  0  0  0  0  0  0  0  0
    1.7463   16.4839    0.3377 H   0  0  0  0  0  0  0  0  0  0  0  0
   -0.2328   17.5775   -0.5120 H   0  0  0  0  0  0  0  0  0  0  0  0
    0.5927   18.0842   -2.0015 H   0  0  0  0  0  0  0  0  0  0  0  0
   -1.2766   15.9329   -1.7874 H   0  0  0  0  0  0  0  0  0  0  0  0
   -0.2010   16.1738   -3.1618 H   0  0  0  0  0  0  0  0  0  0  0  0
    0.6361   14.8339    0.5729 H   0  0  0  0  0  0  0  0  0  0  0  0
   -1.0153   14.8364   -0.1340 H   0  0  0  0  0  0  0  0  0  0  0  0
   -0.0406   13.3275   -0.1340 H   0  0  0  0  0  0  0  0  0  0  0  0
    0.9073   14.0543   -3.5464 H   0  0  0  0  0  0  0  0  0  0  0  0
   -1.5282   13.7317   -2.7718 H   0  0  0  0  0  0  0  0  0  0  0  0
   -0.7026   12.4969   -3.8593 H   0  0  0  0  0  0  0  0  0  0  0  0
   -2.1902   11.5267   -1.9125 H   0  0  0  0  0  0  0  0  0  0  0  0
    1.4347   12.0304   -0.2076 H   0  0  0  0  0  0  0  0  0  0  0  0
    1.8102    9.6360   -2.1110 H   0  0  0  0  0  0  0  0  0  0  0  0
    3.0736   10.3889   -1.0391 H   0  0  0  0  0  0  0  0  0  0  0  0
    2.1854    8.2794   -0.1008 H   0  0  0  0  0  0  0  0  0  0  0  0
    1.8401    9.7164    0.9394 H   0  0  0  0  0  0  0  0  0  0  0  0
   -0.1207    8.3359    0.8566 H   0  0  0  0  0  0  0  0  0  0  0  0
   -0.2400    7.1950   -0.9520 H   0  0  0  0  0  0  0  0  0  0  0  0
   -0.7841   10.0787    2.1263 H   0  0  0  0  0  0  0  0  0  0  0  0
    0.2511   11.3777    1.4423 H   0  0  0  0  0  0  0  0  0  0  0  0
   -1.5359   11.5598    1.4423 H   0  0  0  0  0  0  0  0  0  0  0  0
   -2.7158    9.5668    0.7454 H   0  0  0  0  0  0  0  0  0  0  0  0
   -2.7998   10.4810   -0.7985 H   0  0  0  0  0  0  0  0  0  0  0  0
   -2.2682    8.7652   -0.7985 H   0  0  0  0  0  0  0  0  0  0  0  0
    2.3704   10.7236   -3.3483 H   0  0  0  0  0  0  0  0  0  0  0  0
    1.0649   11.6469   -4.1666 H   0  0  0  0  0  0  0  0  0  0  0  0
    2.7468   12.2777   -4.1666 H   0  0  0  0  0  0  0  0  0  0  0  0
    3.6236   12.3794   -1.2366 H   0  0  0  0  0  0  0  0  0  0  0  0
    3.5584   13.4579   -2.7422 H   0  0  0  0  0  0  0  0  0  0  0  0
    2.6285   14.1390    0.0616 H   0  0  0  0  0  0  0  0  0  0  0  0
    3.9943   14.8568   -0.8795 H   0  0  0  0  0  0  0  0  0  0  0  0
    3.5052   16.4966   -2.7959 H   0  0  0  0  0  0  0  0  0  0  0  0
    2.9118   14.9605   -3.5135 H   0  0  0  0  0  0  0  0  0  0  0  0
    1.8604   16.4170   -3.5135 H   0  0  0  0  0  0  0  0  0  0  0  0
  1  2  1  0
  2  3  1  0
  3  4  1  0
  4  5  1  0
  5  6  1  0
  6  7  1  0
  7  8  1  0
  7  9  1  0
  2 10  1  0
 10 11  1  0
 11 12  1  0
 12 13  1  0
 13 14  1  1
 13 15  1  0
 15 16  1  0
 16 17  1  0
 17 18  2  0
 18 19  1  0
 19 20  1  0
 20 21  1  0
 21 22  1  0
 22 23  1  0
 22 24  1  0
 24 25  1  0
 24 26  1  0
 19 27  1  0
 27 28  1  6
 27 29  1  0
 29 30  1  0
 30 31  1  0
 31 32  1  6
  7  5  1  0
 31 10  1  0
 31 13  1  0
 27 15  1  0
 24 18  1  0
  1 33  1  0
  1 34  1  0
  1 35  1  0
  2 36  1  6
  3 37  1  0
  3 38  1  0
  4 39  1  0
  4 40  1  0
  5 41  1  6
  8 42  1  0
  8 43  1  0
  8 44  1  0
  9 45  1  0
  9 46  1  0
  9 47  1  0
 10 48  1  1
 11 49  1  0
 11 50  1  0
 12 51  1  0
 12 52  1  0
 14 53  1  0
 14 54  1  0
 14 55  1  0
 15 56  1  6
 16 57  1  0
 16 58  1  0
 17 59  1  0
 19 60  1  1
 20 61  1  0
 20 62  1  0
 21 63  1  0
 21 64  1  0
 22 65  1  1
 23 66  1  0
 25 67  1  0
 25 68  1  0
 25 69  1  0
 26 70  1  0
 26 71  1  0
 26 72  1  0
 28 73  1  0
 28 74  1  0
 28 75  1  0
 29 76  1  0
 29 77  1  0
 30 78  1  0
 30 79  1  0
 32 80  1  0
 32 81  1  0
 32 82  1  0
M  END
>  <meeko>  (6) 
{"is_sidechain": [false], "intermolecular_energy": 2.731, "internal_energy": -0.839}

$$$$
EPH_relaxed_0001_pdb2pqr_Repair_55_r2_0001_out
     RDKit          3D

 82 86  0  0  0  0  0  0  0  0999 V2000
  -14.5460    5.5640    0.6940 C   0  0  0  0  0  0  0  0  0  0  0  0
  -13.9290    6.9430    0.4500 C   0  0  2  0  0  0  0  0  0  0  0  0
  -14.9950    8.0080    0.1230 C   0  0  0  0  0  0  0  0  0  0  0  0
  -14.4620    9.4430    0.1530 C   0  0  0  0  0  0  0  0  0  0  0  0
  -15.2110   10.3320   -0.7930 C   0  0  2  0  0  0  0  0  0  0  0  0
  -15.1160    9.9540   -2.1720 O   0  0  0  0  0  0  0  0  0  0  0  0
  -14.5340   11.2200   -1.8200 C   0  0  0  0  0  0  0  0  0  0  0  0
  -13.0440   11.2620   -1.9540 C   0  0  0  0  0  0  0  0  0  0  0  0
  -15.2870   12.3990   -2.3540 C   0  0  0  0  0  0  0  0  0  0  0  0
  -12.9090    6.8630   -0.6800 C   0  0  1  0  0  0  0  0  0  0  0  0
  -13.2870    7.7580   -1.8910 C   0  0  0  0  0  0  0  0  0  0  0  0
  -11.9590    8.2970   -2.4810 C   0  0  0  0  0  0  0  0  0  0  0  0
  -10.8590    7.4430   -1.8100 C   0  0  1  0  0  0  0  0  0  0  0  0
  -10.8280    6.1140   -2.6270 C   0  0  0  0  0  0  0  0  0  0  0  0
   -9.4410    8.0950   -1.7140 C   0  0  2  0  0  0  0  0  0  0  0  0
   -8.7750    8.4110   -3.0650 C   0  0  0  0  0  0  0  0  0  0  0  0
   -7.9280    7.3200   -3.6300 C   0  0  0  0  0  0  0  0  0  0  0  0
   -7.4780    6.2480   -2.9510 C   0  0  0  0  0  0  0  0  0  0  0  0
   -7.7350    6.1040   -1.4450 C   0  0  1  0  0  0  0  0  0  0  0  0
   -6.4220    5.6870   -0.7330 C   0  0  0  0  0  0  0  0  0  0  0  0
   -5.8000    4.4330   -1.3410 C   0  0  0  0  0  0  0  0  0  0  0  0
   -5.5050    4.6360   -2.8250 C   0  0  2  0  0  0  0  0  0  0  0  0
   -4.4750    5.6210   -2.9600 O   0  0  0  0  0  0  0  0  0  0  0  0
   -6.7520    5.0690   -3.6440 C   0  0  0  0  0  0  0  0  0  0  0  0
   -7.7430    3.8830   -3.7490 C   0  0  0  0  0  0  0  0  0  0  0  0
   -6.2890    5.3760   -5.0940 C   0  0  0  0  0  0  0  0  0  0  0  0
   -8.4450    7.3400   -0.7420 C   0  0  1  0  0  0  0  0  0  0  0  0
   -7.3760    8.3860   -0.3000 C   0  0  0  0  0  0  0  0  0  0  0  0
   -9.1530    6.8460    0.5740 C   0  0  0  0  0  0  0  0  0  0  0  0
  -10.5960    6.3250    0.4330 C   0  0  0  0  0  0  0  0  0  0  0  0
  -11.4590    7.3090   -0.3630 C   0  0  2  0  0  0  0  0  0  0  0  0
  -11.5270    8.6490    0.4460 C   0  0  0  0  0  0  0  0  0  0  0  0
  -14.6263    5.3845    1.7763 H   0  0  0  0  0  0  0  0  0  0  0  0
  -15.5474    5.5249    0.2406 H   0  0  0  0  0  0  0  0  0  0  0  0
  -13.9078    4.7913    0.2406 H   0  0  0  0  0  0  0  0  0  0  0  0
  -13.4303    7.2512    1.3807 H   0  0  0  0  0  0  0  0  0  0  0  0
  -15.3906    7.8056   -0.8832 H   0  0  0  0  0  0  0  0  0  0  0  0
  -15.7693    7.9367    0.9011 H   0  0  0  0  0  0  0  0  0  0  0  0
  -14.5655    9.8405    1.1734 H   0  0  0  0  0  0  0  0  0  0  0  0
  -13.4068    9.4236   -0.1571 H   0  0  0  0  0  0  0  0  0  0  0  0
  -15.9767   10.5375   -0.0305 H   0  0  0  0  0  0  0  0  0  0  0  0
  -12.5861   11.2749   -0.9539 H   0  0  0  0  0  0  0  0  0  0  0  0
  -12.7001   10.3732   -2.5033 H   0  0  0  0  0  0  0  0  0  0  0  0
  -12.7507   12.1688   -2.5033 H   0  0  0  0  0  0  0  0  0  0  0  0
  -15.6705   12.9994   -1.5159 H   0  0  0  0  0  0  0  0  0  0  0  0
  -14.6149   13.0153   -2.9692 H   0  0  0  0  0  0  0  0  0  0  0  0
  -16.1288   12.0484   -2.9692 H   0  0  0  0  0  0  0  0  0  0  0  0
  -12.9362    5.7809   -0.8757 H   0  0  0  0  0  0  0  0  0  0  0  0
  -13.8243    7.1659   -2.6464 H   0  0  0  0  0  0  0  0  0  0  0  0
  -13.9453    8.5832   -1.5817 H   0  0  0  0  0  0  0  0  0  0  0  0
  -11.9387    8.1679   -3.5732 H   0  0  0  0  0  0  0  0  0  0  0  0
  -11.8251    9.3725   -2.2927 H   0  0  0  0  0  0  0  0  0  0  0  0
  -10.8081    5.2588   -1.9354 H   0  0  0  0  0  0  0  0  0  0  0  0
  -11.7249    6.0522   -3.2608 H   0  0  0  0  0  0  0  0  0  0  0  0
   -9.9291    6.0941   -3.2608 H   0  0  0  0  0  0  0  0  0  0  0  0
   -9.6604    9.0696   -1.2535 H   0  0  0  0  0  0  0  0  0  0  0  0
   -9.5700    8.6347   -3.7916 H   0  0  0  0  0  0  0  0  0  0  0  0
   -8.0967    9.2568   -2.8789 H   0  0  0  0  0  0  0  0  0  0  0  0
   -7.6476    7.3982   -4.6908 H   0  0  0  0  0  0  0  0  0  0  0  0
   -8.4856    5.3069   -1.3393 H   0  0  0  0  0  0  0  0  0  0  0  0
   -5.6999    6.5130   -0.8126 H   0  0  0  0  0  0  0  0  0  0  0  0
   -6.6671    5.4635    0.3158 H   0  0  0  0  0  0  0  0  0  0  0  0
   -4.8611    4.2053   -0.8150 H   0  0  0  0  0  0  0  0  0  0  0  0
   -6.5114    3.6008   -1.2347 H   0  0  0  0  0  0  0  0  0  0  0  0
   -5.1835    3.6663   -3.2327 H   0  0  0  0  0  0  0  0  0  0  0  0
   -4.8440    6.3650   -3.4640 H   0  0  0  0  0  0  0  0  0  0  0  0
   -8.0226    3.5483   -2.7391 H   0  0  0  0  0  0  0  0  0  0  0  0
   -8.6442    4.2051   -4.2912 H   0  0  0  0  0  0  0  0  0  0  0  0
   -7.2658    3.0534   -4.2912 H   0  0  0  0  0  0  0  0  0  0  0  0
   -5.3725    5.9837   -5.0654 H   0  0  0  0  0  0  0  0  0  0  0  0
   -6.0869    4.4324   -5.6219 H   0  0  0  0  0  0  0  0  0  0  0  0
   -7.0796    5.9294   -5.6219 H   0  0  0  0  0  0  0  0  0  0  0  0
   -7.3348    8.4264    0.7985 H   0  0  0  0  0  0  0  0  0  0  0  0
   -6.3915    8.0928   -0.6934 H   0  0  0  0  0  0  0  0  0  0  0  0
   -7.6478    9.3767   -0.6934 H   0  0  0  0  0  0  0  0  0  0  0  0
   -8.5445    6.0312    0.9935 H   0  0  0  0  0  0  0  0  0  0  0  0
   -9.2305    7.7389    1.2117 H   0  0  0  0  0  0  0  0  0  0  0  0
  -10.5796    5.3569   -0.0890 H   0  0  0  0  0  0  0  0  0  0  0  0
  -11.0283    6.2132    1.4383 H   0  0  0  0  0  0  0  0  0  0  0  0
  -11.5158    8.4278    1.5235 H   0  0  0  0  0  0  0  0  0  0  0  0
  -10.6595    9.2755    0.1913 H   0  0  0  0  0  0  0  0  0  0  0  0
  -12.4535    9.1845    0.1913 H   0  0  0  0  0  0  0  0  0  0  0  0
  1  2  1  0
  2  3  1  0
  3  4  1  0
  4  5  1  0
  5  6  1  0
  6  7  1  0
  7  8  1  0
  7  9  1  0
  2 10  1  0
 10 11  1  0
 11 12  1  0
 12 13  1  0
 13 14  1  6
 13 15  1  0
 15 16  1  0
 16 17  1  0
 17 18  2  0
 18 19  1  0
 19 20  1  0
 20 21  1  0
 21 22  1  0
 22 23  1  0
 22 24  1  0
 24 25  1  0
 24 26  1  0
 19 27  1  0
 27 28  1  1
 27 29  1  0
 29 30  1  0
 30 31  1  0
 31 32  1  1
  7  5  1  0
 31 10  1  0
 31 13  1  0
 27 15  1  0
 24 18  1  0
  1 33  1  0
  1 34  1  0
  1 35  1  0
  2 36  1  1
  3 37  1  0
  3 38  1  0
  4 39  1  0
  4 40  1  0
  5 41  1  1
  8 42  1  0
  8 43  1  0
  8 44  1  0
  9 45  1  0
  9 46  1  0
  9 47  1  0
 10 48  1  6
 11 49  1  0
 11 50  1  0
 12 51  1  0
 12 52  1  0
 14 53  1  0
 14 54  1  0
 14 55  1  0
 15 56  1  1
 16 57  1  0
 16 58  1  0
 17 59  1  0
 19 60  1  6
 20 61  1  0
 20 62  1  0
 21 63  1  0
 21 64  1  0
 22 65  1  6
 23 66  1  0
 25 67  1  0
 25 68  1  0
 25 69  1  0
 26 70  1  0
 26 71  1  0
 26 72  1  0
 28 73  1  0
 28 74  1  0
 28 75  1  0
 29 76  1  0
 29 77  1  0
 30 78  1  0
 30 79  1  0
 32 80  1  0
 32 81  1  0
 32 82  1  0
M  END
>  <meeko>  (7) 
{"is_sidechain": [false], "intermolecular_energy": 2.731, "internal_energy": -0.839}

$$$$
EPH_relaxed_0001_pdb2pqr_Repair_55_r2_0001_out
     RDKit          3D

 82 86  0  0  0  0  0  0  0  0999 V2000
   -5.1450    5.8690   -1.8950 C   0  0  0  0  0  0  0  0  0  0  0  0
   -5.4780    7.3630   -1.8560 C   0  0  2  0  0  0  0  0  0  0  0  0
   -5.2630    7.9700   -0.4550 C   0  0  0  0  0  0  0  0  0  0  0  0
   -4.2250    9.0950   -0.4250 C   0  0  0  0  0  0  0  0  0  0  0  0
   -2.8530    8.5920   -0.7590 C   0  0  2  0  0  0  0  0  0  0  0  0
   -1.8400    8.9370    0.1960 O   0  0  0  0  0  0  0  0  0  0  0  0
   -1.6920    9.5020   -1.1170 C   0  0  0  0  0  0  0  0  0  0  0  0
   -1.8520   10.9900   -1.1600 C   0  0  0  0  0  0  0  0  0  0  0  0
   -0.5480    8.9300   -1.8940 C   0  0  0  0  0  0  0  0  0  0  0  0
   -6.9180    7.5860   -2.3040 C   0  0  1  0  0  0  0  0  0  0  0  0
   -7.2400    6.8840   -3.6510 C   0  0  0  0  0  0  0  0  0  0  0  0
   -8.7140    6.4100   -3.5660 C   0  0  0  0  0  0  0  0  0  0  0  0
   -9.2870    7.1360   -2.3270 C   0  0  1  0  0  0  0  0  0  0  0  0
   -9.6450    8.5690   -2.8320 C   0  0  0  0  0  0  0  0  0  0  0  0
  -10.5050    6.4500   -1.6260 C   0  0  2  0  0  0  0  0  0  0  0  0
  -11.7690    6.3190   -2.4930 C   0  0  0  0  0  0  0  0  0  0  0  0
  -12.7230    7.4640   -2.4060 C   0  0  0  0  0  0  0  0  0  0  0  0
  -12.7160    8.4170   -1.4560 C   0  0  0  0  0  0  0  0  0  0  0  0
  -11.7380    8.3470   -0.2760 C   0  0  1  0  0  0  0  0  0  0  0  0
  -12.4990    8.6310    1.0450 C   0  0  0  0  0  0  0  0  0  0  0  0
  -13.2710    9.9470    1.0050 C   0  0  0  0  0  0  0  0  0  0  0  0
  -14.2740    9.9560   -0.1460 C   0  0  2  0  0  0  0  0  0  0  0  0
  -15.2870    8.9810    0.1190 O   0  0  0  0  0  0  0  0  0  0  0  0
  -13.6230    9.6710   -1.5280 C   0  0  0  0  0  0  0  0  0  0  0  0
  -12.7510   10.8780   -1.9520 C   0  0  0  0  0  0  0  0  0  0  0  0
  -14.7610    9.5680   -2.5790 C   0  0  0  0  0  0  0  0  0  0  0  0
  -10.8430    7.0360   -0.1950 C   0  0  1  0  0  0  0  0  0  0  0  0
  -11.6080    5.9170    0.5750 C   0  0  0  0  0  0  0  0  0  0  0  0
   -9.5490    7.3490    0.6450 C   0  0  0  0  0  0  0  0  0  0  0  0
   -8.3400    7.9130   -0.1250 C   0  0  0  0  0  0  0  0  0  0  0  0
   -8.0420    7.0710   -1.3700 C   0  0  2  0  0  0  0  0  0  0  0  0
   -7.6560    5.6300   -0.8920 C   0  0  0  0  0  0  0  0  0  0  0  0
   -5.0595    5.4855   -0.8676 H   0  0  0  0  0  0  0  0  0  0  0  0
   -5.9448    5.3287   -2.4227 H   0  0  0  0  0  0  0  0  0  0  0  0
   -4.1915    5.7195   -2.4227 H   0  0  0  0  0  0  0  0  0  0  0  0
   -4.7899    7.8733   -2.5460 H   0  0  0  0  0  0  0  0  0  0  0  0
   -6.2229    8.3734   -0.1002 H   0  0  0  0  0  0  0  0  0  0  0  0
   -4.8827    7.1641    0.1899 H   0  0  0  0  0  0  0  0  0  0  0  0
   -4.5111    9.8638   -1.1579 H   0  0  0  0  0  0  0  0  0  0  0  0
   -4.1994    9.5112    0.5929 H   0  0  0  0  0  0  0  0  0  0  0  0
   -3.2732    7.7033   -1.2525 H   0  0  0  0  0  0  0  0  0  0  0  0
   -1.8944   11.3840   -0.1339 H   0  0  0  0  0  0  0  0  0  0  0  0
   -0.9966   11.4356   -1.6889 H   0  0  0  0  0  0  0  0  0  0  0  0
   -2.7826   11.2436   -1.6889 H   0  0  0  0  0  0  0  0  0  0  0  0
    0.2139    8.5491   -1.1980 H   0  0  0  0  0  0  0  0  0  0  0  0
   -0.9102    8.1069   -2.5276 H   0  0  0  0  0  0  0  0  0  0  0  0
   -0.1068    9.7136   -2.5276 H   0  0  0  0  0  0  0  0  0  0  0  0
   -6.9320    8.6854   -2.3384 H   0  0  0  0  0  0  0  0  0  0  0  0
   -7.1165    7.5901   -4.4854 H   0  0  0  0  0  0  0  0  0  0  0  0
   -6.5616    6.0362   -3.8272 H   0  0  0  0  0  0  0  0  0  0  0  0
   -9.2665    6.6955   -4.4733 H   0  0  0  0  0  0  0  0  0  0  0  0
   -8.7961    5.3162   -3.4833 H   0  0  0  0  0  0  0  0  0  0  0  0
   -9.8104    9.2311   -1.9693 H   0  0  0  0  0  0  0  0  0  0  0  0
   -8.8171    8.9605   -3.4413 H   0  0  0  0  0  0  0  0  0  0  0  0
  -10.5598    8.5252   -3.4413 H   0  0  0  0  0  0  0  0  0  0  0  0
  -10.1413    5.4232   -1.4731 H   0  0  0  0  0  0  0  0  0  0  0  0
  -11.4529    6.2188   -3.5418 H   0  0  0  0  0  0  0  0  0  0  0  0
  -12.3109    5.4415   -2.1106 H   0  0  0  0  0  0  0  0  0  0  0  0
  -13.4971    7.5346   -3.1843 H   0  0  0  0  0  0  0  0  0  0  0  0
  -10.9910    9.1349   -0.4527 H   0  0  0  0  0  0  0  0  0  0  0  0
  -13.2094    7.8109    1.2259 H   0  0  0  0  0  0  0  0  0  0  0  0
  -11.7533    8.7060    1.8502 H   0  0  0  0  0  0  0  0  0  0  0  0
  -13.8113   10.0765    1.9544 H   0  0  0  0  0  0  0  0  0  0  0  0
  -12.5560   10.7692    0.8543 H   0  0  0  0  0  0  0  0  0  0  0  0
  -14.7015   10.9679   -0.2039 H   0  0  0  0  0  0  0  0  0  0  0  0
  -15.7140    9.2220    0.9590 H   0  0  0  0  0  0  0  0  0  0  0  0
  -12.3782   11.3941   -1.0550 H   0  0  0  0  0  0  0  0  0  0  0  0
  -11.8996   10.5228   -2.5511 H   0  0  0  0  0  0  0  0  0  0  0  0
  -13.3557   11.5747   -2.5511 H   0  0  0  0  0  0  0  0  0  0  0  0
  -15.7290    9.4804   -2.0639 H   0  0  0  0  0  0  0  0  0  0  0  0
  -14.7611   10.4698   -3.2089 H   0  0  0  0  0  0  0  0  0  0  0  0
  -14.5992    8.6808   -3.2089 H   0  0  0  0  0  0  0  0  0  0  0  0
  -11.4988    6.0767    1.6579 H   0  0  0  0  0  0  0  0  0  0  0  0
  -12.6739    5.9493    0.3052 H   0  0  0  0  0  0  0  0  0  0  0  0
  -11.1910    4.9355    0.3052 H   0  0  0  0  0  0  0  0  0  0  0  0
   -9.8232    8.0827    1.4174 H   0  0  0  0  0  0  0  0  0  0  0  0
   -9.2147    6.3750    1.0318 H   0  0  0  0  0  0  0  0  0  0  0  0
   -8.5595    8.9459   -0.4331 H   0  0  0  0  0  0  0  0  0  0  0  0
   -7.4604    7.8870    0.5350 H   0  0  0  0  0  0  0  0  0  0  0  0
   -7.6475    5.5984    0.2075 H   0  0  0  0  0  0  0  0  0  0  0  0
   -8.3923    4.9075   -1.2739 H   0  0  0  0  0  0  0  0  0  0  0  0
   -6.6572    5.3723   -1.2739 H   0  0  0  0  0  0  0  0  0  0  0  0
  1  2  1  0
  2  3  1  0
  3  4  1  0
  4  5  1  0
  5  6  1  0
  6  7  1  0
  7  8  1  0
  7  9  1  0
  2 10  1  0
 10 11  1  0
 11 12  1  0
 12 13  1  0
 13 14  1  6
 13 15  1  0
 15 16  1  0
 16 17  1  0
 17 18  2  0
 18 19  1  0
 19 20  1  0
 20 21  1  0
 21 22  1  0
 22 23  1  0
 22 24  1  0
 24 25  1  0
 24 26  1  0
 19 27  1  0
 27 28  1  1
 27 29  1  0
 29 30  1  0
 30 31  1  0
 31 32  1  1
  7  5  1  0
 31 10  1  0
 31 13  1  0
 27 15  1  0
 24 18  1  0
  1 33  1  0
  1 34  1  0
  1 35  1  0
  2 36  1  6
  3 37  1  0
  3 38  1  0
  4 39  1  0
  4 40  1  0
  5 41  1  6
  8 42  1  0
  8 43  1  0
  8 44  1  0
  9 45  1  0
  9 46  1  0
  9 47  1  0
 10 48  1  6
 11 49  1  0
 11 50  1  0
 12 51  1  0
 12 52  1  0
 14 53  1  0
 14 54  1  0
 14 55  1  0
 15 56  1  1
 16 57  1  0
 16 58  1  0
 17 59  1  0
 19 60  1  6
 20 61  1  0
 20 62  1  0
 21 63  1  0
 21 64  1  0
 22 65  1  6
 23 66  1  0
 25 67  1  0
 25 68  1  0
 25 69  1  0
 26 70  1  0
 26 71  1  0
 26 72  1  0
 28 73  1  0
 28 74  1  0
 28 75  1  0
 29 76  1  0
 29 77  1  0
 30 78  1  0
 30 79  1  0
 32 80  1  0
 32 81  1  0
 32 82  1  0
M  END
>  <meeko>  (8) 
{"is_sidechain": [false], "intermolecular_energy": 2.731, "internal_energy": -0.839}

$$$$
EPH_relaxed_0001_pdb2pqr_Repair_55_r2_0001_out
     RDKit          3D

 82 86  0  0  0  0  0  0  0  0999 V2000
    0.4280    8.7920   -2.3390 C   0  0  0  0  0  0  0  0  0  0  0  0
    1.1610    9.9310   -3.0540 C   0  0  2  0  0  0  0  0  0  0  0  0
    2.6650    9.9550   -2.7150 C   0  0  0  0  0  0  0  0  0  0  0  0
    3.5310   10.5890   -3.8070 C   0  0  0  0  0  0  0  0  0  0  0  0
    4.9310   10.8360   -3.3310 C   0  0  2  0  0  0  0  0  0  0  0  0
    5.5330   12.0350   -3.8360 O   0  0  0  0  0  0  0  0  0  0  0  0
    6.1430   10.8000   -4.2430 C   0  0  0  0  0  0  0  0  0  0  0  0
    6.0120   10.5090   -5.7050 C   0  0  0  0  0  0  0  0  0  0  0  0
    7.4900   10.5630   -3.6330 C   0  0  0  0  0  0  0  0  0  0  0  0
    0.5240   11.2670   -2.6920 C   0  0  1  0  0  0  0  0  0  0  0  0
   -0.8510   11.1030   -1.9910 C   0  0  0  0  0  0  0  0  0  0  0  0
   -0.9630   12.2480   -0.9520 C   0  0  0  0  0  0  0  0  0  0  0  0
    0.1860   13.2180   -1.3150 C   0  0  1  0  0  0  0  0  0  0  0  0
   -0.3680   14.0690   -2.5010 C   0  0  0  0  0  0  0  0  0  0  0  0
    0.7200   14.1210   -0.1570 C   0  0  2  0  0  0  0  0  0  0  0  0
   -0.3080   15.1020    0.4340 C   0  0  0  0  0  0  0  0  0  0  0  0
   -0.3540   16.4450   -0.2150 C   0  0  0  0  0  0  0  0  0  0  0  0
    0.5860   16.9490   -1.0370 C   0  0  0  0  0  0  0  0  0  0  0  0
    1.8860   16.1830   -1.3110 C   0  0  1  0  0  0  0  0  0  0  0  0
    3.0930   17.1500   -1.1910 C   0  0  0  0  0  0  0  0  0  0  0  0
    2.9440   18.3830   -2.0770 C   0  0  0  0  0  0  0  0  0  0  0  0
    1.6700   19.1510   -1.7350 C   0  0  2  0  0  0  0  0  0  0  0  0
    1.8000   19.6970   -0.4190 O   0  0  0  0  0  0  0  0  0  0  0  0
    0.3880   18.2750   -1.8120 C   0  0  0  0  0  0  0  0  0  0  0  0
    0.0810   17.9320   -3.2910 C   0  0  0  0  0  0  0  0  0  0  0  0
   -0.8050   19.1310   -1.3080 C   0  0  0  0  0  0  0  0  0  0  0  0
    2.0910   14.8450   -0.4780 C   0  0  1  0  0  0  0  0  0  0  0  0
    2.7550   15.1690    0.8940 C   0  0  0  0  0  0  0  0  0  0  0  0
    3.0950   13.9080   -1.2480 C   0  0  0  0  0  0  0  0  0  0  0  0
    2.4920   12.9540   -2.2960 C   0  0  0  0  0  0  0  0  0  0  0  0
    1.3010   12.1850   -1.7160 C   0  0  2  0  0  0  0  0  0  0  0  0
    1.8310   11.3020   -0.5350 C   0  0  0  0  0  0  0  0  0  0  0  0
    0.5145    8.9265   -1.2507 H   0  0  0  0  0  0  0  0  0  0  0  0
   -0.6337    8.8018   -2.6264 H   0  0  0  0  0  0  0  0  0  0  0  0
    0.8768    7.8297   -2.6264 H   0  0  0  0  0  0  0  0  0  0  0  0
    1.0688    9.7569   -4.1362 H   0  0  0  0  0  0  0  0  0  0  0  0
    2.8027   10.5278   -1.7860 H   0  0  0  0  0  0  0  0  0  0  0  0
    2.9890    8.9086   -2.6142 H   0  0  0  0  0  0  0  0  0  0  0  0
    3.5634    9.9126   -4.6739 H   0  0  0  0  0  0  0  0  0  0  0  0
    3.0855   11.5573   -4.0789 H   0  0  0  0  0  0  0  0  0  0  0  0
    4.7155   10.3461   -2.3700 H   0  0  0  0  0  0  0  0  0  0  0  0
    5.5640    9.5138   -5.8421 H   0  0  0  0  0  0  0  0  0  0  0  0
    5.3689   11.2683   -6.1738 H   0  0  0  0  0  0  0  0  0  0  0  0
    7.0068   10.5310   -6.1738 H   0  0  0  0  0  0  0  0  0  0  0  0
    7.4038   10.5782   -2.5365 H   0  0  0  0  0  0  0  0  0  0  0  0
    7.8722    9.5838   -3.9572 H   0  0  0  0  0  0  0  0  0  0  0  0
    8.1835   11.3529   -3.9572 H   0  0  0  0  0  0  0  0  0  0  0  0
    0.4840   11.7278   -3.6900 H   0  0  0  0  0  0  0  0  0  0  0  0
   -1.6636   11.1799   -2.7284 H   0  0  0  0  0  0  0  0  0  0  0  0
   -0.9316   10.1195   -1.5050 H   0  0  0  0  0  0  0  0  0  0  0  0
   -1.9372   12.7523   -1.0333 H   0  0  0  0  0  0  0  0  0  0  0  0
   -0.8884   11.8814    0.0824 H   0  0  0  0  0  0  0  0  0  0  0  0
   -0.9279   14.9291   -2.1050 H   0  0  0  0  0  0  0  0  0  0  0  0
    0.4695   14.4288   -3.1168 H   0  0  0  0  0  0  0  0  0  0  0  0
   -1.0359   13.4487   -3.1168 H   0  0  0  0  0  0  0  0  0  0  0  0
    0.9240   13.3878    0.6372 H   0  0  0  0  0  0  0  0  0  0  0  0
   -1.3048   14.6459    0.3423 H   0  0  0  0  0  0  0  0  0  0  0  0
    0.0022   15.2775    1.4747 H   0  0  0  0  0  0  0  0  0  0  0  0
   -1.2296   17.0765   -0.0041 H   0  0  0  0  0  0  0  0  0  0  0  0
    1.8074   15.8111   -2.3433 H   0  0  0  0  0  0  0  0  0  0  0  0
    3.1809   17.4763   -0.1442 H   0  0  0  0  0  0  0  0  0  0  0  0
    3.9905   16.6070   -1.5220 H   0  0  0  0  0  0  0  0  0  0  0  0
    3.8123   19.0413   -1.9265 H   0  0  0  0  0  0  0  0  0  0  0  0
    2.8856   18.0562   -3.1257 H   0  0  0  0  0  0  0  0  0  0  0  0
    1.5528   19.9466   -2.4856 H   0  0  0  0  0  0  0  0  0  0  0  0
    2.5050   20.3660   -0.4470 H   0  0  0  0  0  0  0  0  0  0  0  0
   -0.6521   17.1130   -3.3329 H   0  0  0  0  0  0  0  0  0  0  0  0
   -0.3307   18.8187   -3.7952 H   0  0  0  0  0  0  0  0  0  0  0  0
    1.0078   17.6207   -3.7952 H   0  0  0  0  0  0  0  0  0  0  0  0
   -0.8132   19.1369   -0.2080 H   0  0  0  0  0  0  0  0  0  0  0  0
   -0.7000   20.1611   -1.6794 H   0  0  0  0  0  0  0  0  0  0  0  0
   -1.7472   18.7016   -1.6794 H   0  0  0  0  0  0  0  0  0  0  0  0
    2.0906   14.8448    1.7085 H   0  0  0  0  0  0  0  0  0  0  0  0
    3.7154   14.6383    0.9710 H   0  0  0  0  0  0  0  0  0  0  0  0
    2.9277   16.2526    0.9710 H   0  0  0  0  0  0  0  0  0  0  0  0
    3.8219   14.5523   -1.7641 H   0  0  0  0  0  0  0  0  0  0  0  0
    3.5252   13.2524   -0.4766 H   0  0  0  0  0  0  0  0  0  0  0  0
    2.1542   13.5397   -3.1637 H   0  0  0  0  0  0  0  0  0  0  0  0
    3.2639   12.2304   -2.5970 H   0  0  0  0  0  0  0  0  0  0  0  0
    1.5528   11.7656    0.4230 H   0  0  0  0  0  0  0  0  0  0  0  0
    1.3861   10.2981   -0.5994 H   0  0  0  0  0  0  0  0  0  0  0  0
    2.9262   11.2225   -0.5994 H   0  0  0  0  0  0  0  0  0  0  0  0
  1  2  1  0
  2  3  1  0
  3  4  1  0
  4  5  1  0
  5  6  1  0
  6  7  1  0
  7  8  1  0
  7  9  1  0
  2 10  1  0
 10 11  1  0
 11 12  1  0
 12 13  1  0
 13 14  1  6
 13 15  1  0
 15 16  1  0
 16 17  1  0
 17 18  2  0
 18 19  1  0
 19 20  1  0
 20 21  1  0
 21 22  1  0
 22 23  1  0
 22 24  1  0
 24 25  1  0
 24 26  1  0
 19 27  1  0
 27 28  1  1
 27 29  1  0
 29 30  1  0
 30 31  1  0
 31 32  1  1
  7  5  1  0
 31 10  1  0
 31 13  1  0
 27 15  1  0
 24 18  1  0
  1 33  1  0
  1 34  1  0
  1 35  1  0
  2 36  1  6
  3 37  1  0
  3 38  1  0
  4 39  1  0
  4 40  1  0
  5 41  1  1
  8 42  1  0
  8 43  1  0
  8 44  1  0
  9 45  1  0
  9 46  1  0
  9 47  1  0
 10 48  1  6
 11 49  1  0
 11 50  1  0
 12 51  1  0
 12 52  1  0
 14 53  1  0
 14 54  1  0
 14 55  1  0
 15 56  1  1
 16 57  1  0
 16 58  1  0
 17 59  1  0
 19 60  1  6
 20 61  1  0
 20 62  1  0
 21 63  1  0
 21 64  1  0
 22 65  1  6
 23 66  1  0
 25 67  1  0
 25 68  1  0
 25 69  1  0
 26 70  1  0
 26 71  1  0
 26 72  1  0
 28 73  1  0
 28 74  1  0
 28 75  1  0
 29 76  1  0
 29 77  1  0
 30 78  1  0
 30 79  1  0
 32 80  1  0
 32 81  1  0
 32 82  1  0
M  END
>  <meeko>  (9) 
{"is_sidechain": [false], "intermolecular_energy": 2.731, "internal_energy": -0.839}

$$$$
EPH_relaxed_0001_pdb2pqr_Repair_55_r2_0001_out
     RDKit          3D

 82 86  0  0  0  0  0  0  0  0999 V2000
   -0.8650   16.3560   -5.8470 C   0  0  0  0  0  0  0  0  0  0  0  0
    0.2250   15.6550   -6.6620 C   0  0  2  0  0  0  0  0  0  0  0  0
   -0.1800   15.4760   -8.1390 C   0  0  0  0  0  0  0  0  0  0  0  0
    0.4610   16.4980   -9.0820 C   0  0  0  0  0  0  0  0  0  0  0  0
    1.8610   16.1110   -9.4510 C   0  0  2  0  0  0  0  0  0  0  0  0
    2.3320   16.6700  -10.6830 O   0  0  0  0  0  0  0  0  0  0  0  0
    2.2010   15.2400  -10.6460 C   0  0  0  0  0  0  0  0  0  0  0  0
    1.1350   14.7030  -11.5480 C   0  0  0  0  0  0  0  0  0  0  0  0
    3.5100   14.5140  -10.6530 C   0  0  0  0  0  0  0  0  0  0  0  0
    0.5480   14.3010   -6.0420 C   0  0  1  0  0  0  0  0  0  0  0  0
    1.8100   13.6450   -6.6640 C   0  0  0  0  0  0  0  0  0  0  0  0
    2.5240   12.8780   -5.5210 C   0  0  0  0  0  0  0  0  0  0  0  0
    1.4900   12.8390   -4.3720 C   0  0  1  0  0  0  0  0  0  0  0  0
    0.5320   11.6610   -4.7340 C   0  0  0  0  0  0  0  0  0  0  0  0
    2.0680   12.6890   -2.9270 C   0  0  2  0  0  0  0  0  0  0  0  0
    2.8390   11.3840   -2.6650 C   0  0  0  0  0  0  0  0  0  0  0  0
    2.0170   10.2490   -2.1500 C   0  0  0  0  0  0  0  0  0  0  0  0
    0.7760   10.3520   -1.6400 C   0  0  0  0  0  0  0  0  0  0  0  0
    0.1120   11.7220   -1.4510 C   0  0  1  0  0  0  0  0  0  0  0  0
   -0.5270   11.7970   -0.0390 C   0  0  0  0  0  0  0  0  0  0  0  0
   -1.4870   10.6420    0.2310 C   0  0  0  0  0  0  0  0  0  0  0  0
   -0.7760    9.2980    0.0900 C   0  0  2  0  0  0  0  0  0  0  0  0
    0.1950    9.1790    1.1340 O   0  0  0  0  0  0  0  0  0  0  0  0
   -0.0850    9.1130   -1.2900 C   0  0  0  0  0  0  0  0  0  0  0  0
   -1.1600    8.9400   -2.3910 C   0  0  0  0  0  0  0  0  0  0  0  0
    0.7120    7.7810   -1.2490 C   0  0  0  0  0  0  0  0  0  0  0  0
    1.0220   12.9840   -1.7760 C   0  0  1  0  0  0  0  0  0  0  0  0
    1.8480   13.3840   -0.5160 C   0  0  0  0  0  0  0  0  0  0  0  0
    0.0960   14.2130   -2.1100 C   0  0  0  0  0  0  0  0  0  0  0  0
   -0.3440   14.3730   -3.5770 C   0  0  0  0  0  0  0  0  0  0  0  0
    0.8550   14.2690   -4.5240 C   0  0  2  0  0  0  0  0  0  0  0  0
    1.8260   15.4550   -4.1980 C   0  0  0  0  0  0  0  0  0  0  0  0
   -0.6617   16.2253   -4.7739 H   0  0  0  0  0  0  0  0  0  0  0  0
   -0.8724   17.4286   -6.0908 H   0  0  0  0  0  0  0  0  0  0  0  0
   -1.8441   15.9178   -6.0908 H   0  0  0  0  0  0  0  0  0  0  0  0
    1.1188   16.2958   -6.6401 H   0  0  0  0  0  0  0  0  0  0  0  0
    0.1216   14.4687   -8.4620 H   0  0  0  0  0  0  0  0  0  0  0  0
   -1.2683   15.6266   -8.1941 H   0  0  0  0  0  0  0  0  0  0  0  0
   -0.1434   16.5653   -9.9986 H   0  0  0  0  0  0  0  0  0  0  0  0
    0.4990   17.4668   -8.5624 H   0  0  0  0  0  0  0  0  0  0  0  0
    2.1494   16.0547   -8.3910 H   0  0  0  0  0  0  0  0  0  0  0  0
    0.3153   14.2901  -10.9417 H   0  0  0  0  0  0  0  0  0  0  0  0
    0.7489   15.5142  -12.1828 H   0  0  0  0  0  0  0  0  0  0  0  0
    1.5570   13.9099  -12.1828 H   0  0  0  0  0  0  0  0  0  0  0  0
    3.8349   14.3338   -9.6176 H   0  0  0  0  0  0  0  0  0  0  0  0
    3.3929   13.5519  -11.1733 H   0  0  0  0  0  0  0  0  0  0  0  0
    4.2641   15.1228  -11.1733 H   0  0  0  0  0  0  0  0  0  0  0  0
   -0.3963   13.7748   -6.2457 H   0  0  0  0  0  0  0  0  0  0  0  0
    1.5196   12.9483   -7.4642 H   0  0  0  0  0  0  0  0  0  0  0  0
    2.4731   14.4037   -7.1053 H   0  0  0  0  0  0  0  0  0  0  0  0
    2.7865   11.8591   -5.8419 H   0  0  0  0  0  0  0  0  0  0  0  0
    3.4651   13.3608   -5.2190 H   0  0  0  0  0  0  0  0  0  0  0  0
    0.1552   11.1977   -3.8102 H   0  0  0  0  0  0  0  0  0  0  0  0
   -0.3140   12.0443   -5.3234 H   0  0  0  0  0  0  0  0  0  0  0  0
    1.0796   10.9109   -5.3234 H   0  0  0  0  0  0  0  0  0  0  0  0
    2.8188   13.4921   -2.8890 H   0  0  0  0  0  0  0  0  0  0  0  0
    3.3013   11.0667   -3.6114 H   0  0  0  0  0  0  0  0  0  0  0  0
    3.5676   11.6151   -1.8739 H   0  0  0  0  0  0  0  0  0  0  0  0
    2.4632    9.2444   -2.1909 H   0  0  0  0  0  0  0  0  0  0  0  0
   -0.6717   11.7890   -2.2199 H   0  0  0  0  0  0  0  0  0  0  0  0
    0.2754   11.7717    0.7130 H   0  0  0  0  0  0  0  0  0  0  0  0
   -1.1048   12.7314    0.0168 H   0  0  0  0  0  0  0  0  0  0  0  0
   -1.8831   10.7344    1.2530 H   0  0  0  0  0  0  0  0  0  0  0  0
   -2.3047   10.6857   -0.5035 H   0  0  0  0  0  0  0  0  0  0  0  0
   -1.5400    8.5103    0.1664 H   0  0  0  0  0  0  0  0  0  0  0  0
    0.8590    8.5300    0.8460 H   0  0  0  0  0  0  0  0  0  0  0  0
   -2.1426    8.7819   -1.9225 H   0  0  0  0  0  0  0  0  0  0  0  0
   -1.1932    9.8444   -3.0163 H   0  0  0  0  0  0  0  0  0  0  0  0
   -0.9078    8.0709   -3.0163 H   0  0  0  0  0  0  0  0  0  0  0  0
    0.8861    7.4900   -0.2026 H   0  0  0  0  0  0  0  0  0  0  0  0
    0.1365    6.9936   -1.7577 H   0  0  0  0  0  0  0  0  0  0  0  0
    1.6779    7.9159   -1.7577 H   0  0  0  0  0  0  0  0  0  0  0  0
    1.2878   13.1127    0.3910 H   0  0  0  0  0  0  0  0  0  0  0  0
    2.8110   12.8524   -0.5249 H   0  0  0  0  0  0  0  0  0  0  0  0
    2.0281   14.4691   -0.5249 H   0  0  0  0  0  0  0  0  0  0  0  0
   -0.8134   14.1203   -1.4981 H   0  0  0  0  0  0  0  0  0  0  0  0
    0.7082   15.1012   -1.8948 H   0  0  0  0  0  0  0  0  0  0  0  0
   -1.0672   13.5818   -3.8240 H   0  0  0  0  0  0  0  0  0  0  0  0
   -0.8021   15.3656   -3.6992 H   0  0  0  0  0  0  0  0  0  0  0  0
    1.9165   15.5656   -3.1073 H   0  0  0  0  0  0  0  0  0  0  0  0
    2.8165   15.2470   -4.6289 H   0  0  0  0  0  0  0  0  0  0  0  0
    1.4266   16.3849   -4.6289 H   0  0  0  0  0  0  0  0  0  0  0  0
  1  2  1  0
  2  3  1  0
  3  4  1  0
  4  5  1  0
  5  6  1  0
  6  7  1  0
  7  8  1  0
  7  9  1  0
  2 10  1  0
 10 11  1  0
 11 12  1  0
 12 13  1  0
 13 14  1  6
 13 15  1  0
 15 16  1  0
 16 17  1  0
 17 18  2  0
 18 19  1  0
 19 20  1  0
 20 21  1  0
 21 22  1  0
 22 23  1  0
 22 24  1  0
 24 25  1  0
 24 26  1  0
 19 27  1  0
 27 28  1  1
 27 29  1  0
 29 30  1  0
 30 31  1  0
 31 32  1  1
  7  5  1  0
 31 10  1  0
 31 13  1  0
 27 15  1  0
 24 18  1  0
  1 33  1  0
  1 34  1  0
  1 35  1  0
  2 36  1  6
  3 37  1  0
  3 38  1  0
  4 39  1  0
  4 40  1  0
  5 41  1  1
  8 42  1  0
  8 43  1  0
  8 44  1  0
  9 45  1  0
  9 46  1  0
  9 47  1  0
 10 48  1  1
 11 49  1  0
 11 50  1  0
 12 51  1  0
 12 52  1  0
 14 53  1  0
 14 54  1  0
 14 55  1  0
 15 56  1  6
 16 57  1  0
 16 58  1  0
 17 59  1  0
 19 60  1  6
 20 61  1  0
 20 62  1  0
 21 63  1  0
 21 64  1  0
 22 65  1  1
 23 66  1  0
 25 67  1  0
 25 68  1  0
 25 69  1  0
 26 70  1  0
 26 71  1  0
 26 72  1  0
 28 73  1  0
 28 74  1  0
 28 75  1  0
 29 76  1  0
 29 77  1  0
 30 78  1  0
 30 79  1  0
 32 80  1  0
 32 81  1  0
 32 82  1  0
M  END
>  <meeko>  (10) 
{"is_sidechain": [false], "intermolecular_energy": 2.731, "internal_energy": -0.839}

$$$$
EPH_relaxed_0001_pdb2pqr_Repair_55_r2_0001_out
     RDKit          3D

 82 86  0  0  0  0  0  0  0  0999 V2000
   -4.0390    7.3830   -3.5020 C   0  0  0  0  0  0  0  0  0  0  0  0
   -3.7160    7.3060   -2.0070 C   0  0  2  0  0  0  0  0  0  0  0  0
   -4.9410    6.8890   -1.1690 C   0  0  0  0  0  0  0  0  0  0  0  0
   -6.1450    6.4580   -2.0110 C   0  0  0  0  0  0  0  0  0  0  0  0
   -7.3710    6.2680   -1.1700 C   0  0  2  0  0  0  0  0  0  0  0  0
   -8.4330    5.5510   -1.8120 O   0  0  0  0  0  0  0  0  0  0  0  0
   -8.7060    6.9210   -1.4770 C   0  0  0  0  0  0  0  0  0  0  0  0
   -8.8830    7.8150   -2.6640 C   0  0  0  0  0  0  0  0  0  0  0  0
   -9.6950    7.0840   -0.3650 C   0  0  0  0  0  0  0  0  0  0  0  0
   -3.1850    8.6490   -1.5200 C   0  0  1  0  0  0  0  0  0  0  0  0
   -3.8250    9.0940   -0.1780 C   0  0  0  0  0  0  0  0  0  0  0  0
   -2.7250    9.8440    0.6160 C   0  0  0  0  0  0  0  0  0  0  0  0
   -1.6010   10.0950   -0.4170 C   0  0  1  0  0  0  0  0  0  0  0  0
   -2.0630   11.3560   -1.2120 C   0  0  0  0  0  0  0  0  0  0  0  0
   -0.1590   10.2730    0.1610 C   0  0  2  0  0  0  0  0  0  0  0  0
    0.0270   11.4850    1.0900 C   0  0  0  0  0  0  0  0  0  0  0  0
    0.4450   12.7480    0.4130 C   0  0  0  0  0  0  0  0  0  0  0  0
    0.9380   12.8410   -0.8360 C   0  0  0  0  0  0  0  0  0  0  0  0
    1.2080   11.5820   -1.6710 C   0  0  1  0  0  0  0  0  0  0  0  0
    2.6090   11.6890   -2.3300 C   0  0  0  0  0  0  0  0  0  0  0  0
    2.7790   12.9730   -3.1360 C   0  0  0  0  0  0  0  0  0  0  0  0
    2.5600   14.2020   -2.2580 C   0  0  2  0  0  0  0  0  0  0  0  0
    3.6120   14.2720   -1.2910 O   0  0  0  0  0  0  0  0  0  0  0  0
    1.1840   14.2000   -1.5350 C   0  0  0  0  0  0  0  0  0  0  0  0
    0.0520   14.4290   -2.5670 C   0  0  0  0  0  0  0  0  0  0  0  0
    1.1480   15.4200   -0.5750 C   0  0  0  0  0  0  0  0  0  0  0  0
    0.9880   10.1960   -0.9260 C   0  0  1  0  0  0  0  0  0  0  0  0
    2.2890    9.7850   -0.1720 C   0  0  0  0  0  0  0  0  0  0  0  0
    0.7230    9.0730   -1.9980 C   0  0  0  0  0  0  0  0  0  0  0  0
   -0.7390    8.8660   -2.4400 C   0  0  0  0  0  0  0  0  0  0  0  0
   -1.6670    8.7490   -1.2270 C   0  0  2  0  0  0  0  0  0  0  0  0
   -1.2410    7.4760   -0.4190 C   0  0  0  0  0  0  0  0  0  0  0  0
   -5.1012    7.6362   -3.6351 H   0  0  0  0  0  0  0  0  0  0  0  0
   -3.4157    8.1577   -3.9724 H   0  0  0  0  0  0  0  0  0  0  0  0
   -3.8322    6.4104   -3.9724 H   0  0  0  0  0  0  0  0  0  0  0  0
   -2.9461    6.5316   -1.8745 H   0  0  0  0  0  0  0  0  0  0  0  0
   -4.6498    6.0475   -0.5232 H   0  0  0  0  0  0  0  0  0  0  0  0
   -5.2518    7.7727   -0.5924 H   0  0  0  0  0  0  0  0  0  0  0  0
   -6.3472    7.2320   -2.7660 H   0  0  0  0  0  0  0  0  0  0  0  0
   -5.9035    5.4961   -2.4869 H   0  0  0  0  0  0  0  0  0  0  0  0
   -6.7638    6.2250   -0.2538 H   0  0  0  0  0  0  0  0  0  0  0  0
   -9.0861    8.8410   -2.3233 H   0  0  0  0  0  0  0  0  0  0  0  0
   -7.9654    7.8050   -3.2706 H   0  0  0  0  0  0  0  0  0  0  0  0
   -9.7275    7.4561   -3.2706 H   0  0  0  0  0  0  0  0  0  0  0  0
   -9.1771    6.9987    0.6017 H   0  0  0  0  0  0  0  0  0  0  0  0
  -10.1712    8.0727   -0.4398 H   0  0  0  0  0  0  0  0  0  0  0  0
  -10.4633    6.3004   -0.4398 H   0  0  0  0  0  0  0  0  0  0  0  0
   -3.4436    9.2747   -2.3870 H   0  0  0  0  0  0  0  0  0  0  0  0
   -4.6773    9.7629   -0.3683 H   0  0  0  0  0  0  0  0  0  0  0  0
   -4.1986    8.2276    0.3875 H   0  0  0  0  0  0  0  0  0  0  0  0
   -3.1107   10.7961    1.0093 H   0  0  0  0  0  0  0  0  0  0  0  0
   -2.3723    9.2692    1.4850 H   0  0  0  0  0  0  0  0  0  0  0  0
   -2.3533   12.1483   -0.5063 H   0  0  0  0  0  0  0  0  0  0  0  0
   -1.2373   11.7132   -1.8450 H   0  0  0  0  0  0  0  0  0  0  0  0
   -2.9240   11.0953   -1.8450 H   0  0  0  0  0  0  0  0  0  0  0  0
   -0.0508    9.3864    0.8030 H   0  0  0  0  0  0  0  0  0  0  0  0
   -0.9296   11.6728    1.5996 H   0  0  0  0  0  0  0  0  0  0  0  0
    0.8462   11.2210    1.7750 H   0  0  0  0  0  0  0  0  0  0  0  0
    0.3413   13.6827    0.9837 H   0  0  0  0  0  0  0  0  0  0  0  0
    0.4304   11.5595   -2.4487 H   0  0  0  0  0  0  0  0  0  0  0  0
    3.3735   11.6650   -1.5394 H   0  0  0  0  0  0  0  0  0  0  0  0
    2.7176   10.8422   -3.0236 H   0  0  0  0  0  0  0  0  0  0  0  0
    3.7968   13.0047   -3.5520 H   0  0  0  0  0  0  0  0  0  0  0  0
    2.0325   12.9815   -3.9439 H   0  0  0  0  0  0  0  0  0  0  0  0
    2.5674   15.0833   -2.9162 H   0  0  0  0  0  0  0  0  0  0  0  0
    4.4390   14.0240   -1.7380 H   0  0  0  0  0  0  0  0  0  0  0  0
   -0.8933   14.6202   -2.0380 H   0  0  0  0  0  0  0  0  0  0  0  0
    0.3007   15.2950   -3.1980 H   0  0  0  0  0  0  0  0  0  0  0  0
   -0.0554   13.5344   -3.1980 H   0  0  0  0  0  0  0  0  0  0  0  0
    1.1584   15.0672    0.4668 H   0  0  0  0  0  0  0  0  0  0  0  0
    2.0278   16.0550   -0.7559 H   0  0  0  0  0  0  0  0  0  0  0  0
    0.2323   16.0020   -0.7559 H   0  0  0  0  0  0  0  0  0  0  0  0
    2.1167    9.8394    0.9131 H   0  0  0  0  0  0  0  0  0  0  0  0
    2.5636    8.7563   -0.4485 H   0  0  0  0  0  0  0  0  0  0  0  0
    3.1047   10.4692   -0.4485 H   0  0  0  0  0  0  0  0  0  0  0  0
    1.3095    9.3234   -2.8943 H   0  0  0  0  0  0  0  0  0  0  0  0
    1.0114    8.1320   -1.5067 H   0  0  0  0  0  0  0  0  0  0  0  0
   -1.0544    9.7231   -3.0531 H   0  0  0  0  0  0  0  0  0  0  0  0
   -0.8013    7.9338   -3.0206 H   0  0  0  0  0  0  0  0  0  0  0  0
   -1.3110    7.6853    0.6586 H   0  0  0  0  0  0  0  0  0  0  0  0
   -1.9082    6.6395   -0.6742 H   0  0  0  0  0  0  0  0  0  0  0  0
   -0.2047    7.2095   -0.6742 H   0  0  0  0  0  0  0  0  0  0  0  0
  1  2  1  0
  2  3  1  0
  3  4  1  0
  4  5  1  0
  5  6  1  0
  6  7  1  0
  7  8  1  0
  7  9  1  0
  2 10  1  0
 10 11  1  0
 11 12  1  0
 12 13  1  0
 13 14  1  6
 13 15  1  0
 15 16  1  0
 16 17  1  0
 17 18  2  0
 18 19  1  0
 19 20  1  0
 20 21  1  0
 21 22  1  0
 22 23  1  0
 22 24  1  0
 24 25  1  0
 24 26  1  0
 19 27  1  0
 27 28  1  1
 27 29  1  0
 29 30  1  0
 30 31  1  0
 31 32  1  1
  7  5  1  0
 31 10  1  0
 31 13  1  0
 27 15  1  0
 24 18  1  0
  1 33  1  0
  1 34  1  0
  1 35  1  0
  2 36  1  6
  3 37  1  0
  3 38  1  0
  4 39  1  0
  4 40  1  0
  5 41  1  1
  8 42  1  0
  8 43  1  0
  8 44  1  0
  9 45  1  0
  9 46  1  0
  9 47  1  0
 10 48  1  6
 11 49  1  0
 11 50  1  0
 12 51  1  0
 12 52  1  0
 14 53  1  0
 14 54  1  0
 14 55  1  0
 15 56  1  1
 16 57  1  0
 16 58  1  0
 17 59  1  0
 19 60  1  6
 20 61  1  0
 20 62  1  0
 21 63  1  0
 21 64  1  0
 22 65  1  6
 23 66  1  0
 25 67  1  0
 25 68  1  0
 25 69  1  0
 26 70  1  0
 26 71  1  0
 26 72  1  0
 28 73  1  0
 28 74  1  0
 28 75  1  0
 29 76  1  0
 29 77  1  0
 30 78  1  0
 30 79  1  0
 32 80  1  0
 32 81  1  0
 32 82  1  0
M  END
>  <meeko>  (11) 
{"is_sidechain": [false], "intermolecular_energy": 2.731, "internal_energy": -0.839}

$$$$
EPH_relaxed_0001_pdb2pqr_Repair_55_r2_0001_out
     RDKit          3D

 82 86  0  0  0  0  0  0  0  0999 V2000
    3.5680   18.5150   -2.3650 C   0  0  0  0  0  0  0  0  0  0  0  0
    2.3550   17.6460   -2.7090 C   0  0  2  0  0  0  0  0  0  0  0  0
    1.0240   18.3360   -2.3480 C   0  0  0  0  0  0  0  0  0  0  0  0
    1.2010   19.7120   -1.6990 C   0  0  0  0  0  0  0  0  0  0  0  0
    1.5780   19.5980   -0.2530 C   0  0  2  0  0  0  0  0  0  0  0  0
    0.9580   18.5100    0.4430 O   0  0  0  0  0  0  0  0  0  0  0  0
    0.6030   19.8300    0.8860 C   0  0  0  0  0  0  0  0  0  0  0  0
   -0.8250   20.1940    0.6290 C   0  0  0  0  0  0  0  0  0  0  0  0
    1.1490   20.1800    2.2350 C   0  0  0  0  0  0  0  0  0  0  0  0
    2.4570   16.3040   -1.9930 C   0  0  1  0  0  0  0  0  0  0  0  0
    2.9840   16.4410   -0.5400 C   0  0  0  0  0  0  0  0  0  0  0  0
    2.2580   15.3610    0.3030 C   0  0  0  0  0  0  0  0  0  0  0  0
    1.5950   14.4320   -0.7410 C   0  0  1  0  0  0  0  0  0  0  0  0
    2.7370   13.4770   -1.2110 C   0  0  0  0  0  0  0  0  0  0  0  0
    0.3390   13.6360   -0.2590 C   0  0  2  0  0  0  0  0  0  0  0  0
    0.5960   12.6430    0.8880 C   0  0  0  0  0  0  0  0  0  0  0  0
    0.9620   11.2600    0.4640 C   0  0  0  0  0  0  0  0  0  0  0  0
    0.8040   10.7530   -0.7730 C   0  0  0  0  0  0  0  0  0  0  0  0
    0.1150   11.5680   -1.8750 C   0  0  1  0  0  0  0  0  0  0  0  0
   -0.9210   10.6760   -2.6080 C   0  0  0  0  0  0  0  0  0  0  0  0
   -0.3090    9.3810   -3.1350 C   0  0  0  0  0  0  0  0  0  0  0  0
    0.3140    8.5720   -2.0010 C   0  0  2  0  0  0  0  0  0  0  0  0
   -0.7280    8.1200   -1.1310 O   0  0  0  0  0  0  0  0  0  0  0  0
    1.3680    9.3710   -1.1850 C   0  0  0  0  0  0  0  0  0  0  0  0
    2.6320    9.6000   -2.0500 C   0  0  0  0  0  0  0  0  0  0  0  0
    1.8140    8.4890    0.0120 C   0  0  0  0  0  0  0  0  0  0  0  0
   -0.4920   12.9670   -1.4270 C   0  0  1  0  0  0  0  0  0  0  0  0
   -1.9410   12.7680   -0.8850 C   0  0  0  0  0  0  0  0  0  0  0  0
   -0.6140   13.9020   -2.6870 C   0  0  0  0  0  0  0  0  0  0  0  0
    0.6210   14.7530   -3.0420 C   0  0  0  0  0  0  0  0  0  0  0  0
    1.1480   15.4950   -1.8100 C   0  0  2  0  0  0  0  0  0  0  0  0
    0.0290   16.4790   -1.3290 C   0  0  0  0  0  0  0  0  0  0  0  0
    3.6691   18.5874   -1.2720 H   0  0  0  0  0  0  0  0  0  0  0  0
    4.4762   18.0608   -2.7879 H   0  0  0  0  0  0  0  0  0  0  0  0
    3.4301   19.5210   -2.7879 H   0  0  0  0  0  0  0  0  0  0  0  0
    2.3598   17.4881   -3.7976 H   0  0  0  0  0  0  0  0  0  0  0  0
    0.4356   18.4594   -3.2692 H   0  0  0  0  0  0  0  0  0  0  0  0
    0.5188   17.6949   -1.6106 H   0  0  0  0  0  0  0  0  0  0  0  0
    1.9931   20.2584   -2.2320 H   0  0  0  0  0  0  0  0  0  0  0  0
    0.2420   20.2472   -1.7624 H   0  0  0  0  0  0  0  0  0  0  0  0
    2.5814   19.9991   -0.4585 H   0  0  0  0  0  0  0  0  0  0  0  0
   -1.3477   20.3272    1.5877 H   0  0  0  0  0  0  0  0  0  0  0  0
   -0.8669   21.1315    0.0552 H   0  0  0  0  0  0  0  0  0  0  0  0
   -1.3105   19.3909    0.0552 H   0  0  0  0  0  0  0  0  0  0  0  0
    0.4959   19.7613    3.0148 H   0  0  0  0  0  0  0  0  0  0  0  0
    2.1609   19.7618    2.3408 H   0  0  0  0  0  0  0  0  0  0  0  0
    1.1915   21.2741    2.3408 H   0  0  0  0  0  0  0  0  0  0  0  0
    3.1321   15.7770   -2.6833 H   0  0  0  0  0  0  0  0  0  0  0  0
    4.0710   16.2744   -0.5140 H   0  0  0  0  0  0  0  0  0  0  0  0
    2.7900   17.4483   -0.1429 H   0  0  0  0  0  0  0  0  0  0  0  0
    2.9768   14.8016    0.9197 H   0  0  0  0  0  0  0  0  0  0  0  0
    1.5256   15.7970    0.9983 H   0  0  0  0  0  0  0  0  0  0  0  0
    3.2447   13.0524   -0.3324 H   0  0  0  0  0  0  0  0  0  0  0  0
    2.3093   12.6639   -1.8159 H   0  0  0  0  0  0  0  0  0  0  0  0
    3.4616   14.0418   -1.8159 H   0  0  0  0  0  0  0  0  0  0  0  0
   -0.2924   14.4289    0.1683 H   0  0  0  0  0  0  0  0  0  0  0  0
    1.4181   13.0388    1.5024 H   0  0  0  0  0  0  0  0  0  0  0  0
   -0.3562   12.5527    1.4312 H   0  0  0  0  0  0  0  0  0  0  0  0
    1.3980   10.5985    1.2271 H   0  0  0  0  0  0  0  0  0  0  0  0
    0.9102   11.8674   -2.5736 H   0  0  0  0  0  0  0  0  0  0  0  0
   -1.7290   10.4239   -1.9055 H   0  0  0  0  0  0  0  0  0  0  0  0
   -1.2981   11.2430   -3.4719 H   0  0  0  0  0  0  0  0  0  0  0  0
   -1.0954    8.7807   -3.6159 H   0  0  0  0  0  0  0  0  0  0  0  0
    0.4786    9.6341   -3.8600 H   0  0  0  0  0  0  0  0  0  0  0  0
    0.8476    7.7240   -2.4551 H   0  0  0  0  0  0  0  0  0  0  0  0
   -1.3530    7.6010   -1.6640 H   0  0  0  0  0  0  0  0  0  0  0  0
    3.5012    9.7575   -1.3946 H   0  0  0  0  0  0  0  0  0  0  0  0
    2.8064    8.7188   -2.6849 H   0  0  0  0  0  0  0  0  0  0  0  0
    2.4862   10.4863   -2.6849 H   0  0  0  0  0  0  0  0  0  0  0  0
    1.5585    8.9943    0.9551 H   0  0  0  0  0  0  0  0  0  0  0  0
    1.2983    7.5185   -0.0354 H   0  0  0  0  0  0  0  0  0  0  0  0
    2.9013    8.3291   -0.0354 H   0  0  0  0  0  0  0  0  0  0  0  0
   -1.9246   12.7703    0.2149 H   0  0  0  0  0  0  0  0  0  0  0  0
   -2.5823   13.5865   -1.2438 H   0  0  0  0  0  0  0  0  0  0  0  0
   -2.3379   11.8069   -1.2438 H   0  0  0  0  0  0  0  0  0  0  0  0
   -0.8393   13.2641   -3.5544 H   0  0  0  0  0  0  0  0  0  0  0  0
   -1.4005   14.6276   -2.4323 H   0  0  0  0  0  0  0  0  0  0  0  0
    1.4117   14.0948   -3.4312 H   0  0  0  0  0  0  0  0  0  0  0  0
    0.3296   15.4948   -3.8002 H   0  0  0  0  0  0  0  0  0  0  0  0
    0.0062   16.4990   -0.2294 H   0  0  0  0  0  0  0  0  0  0  0  0
    0.2404   17.4891   -1.7098 H   0  0  0  0  0  0  0  0  0  0  0  0
   -0.9458   16.1401   -1.7098 H   0  0  0  0  0  0  0  0  0  0  0  0
  1  2  1  0
  2  3  1  0
  3  4  1  0
  4  5  1  0
  5  6  1  0
  6  7  1  0
  7  8  1  0
  7  9  1  0
  2 10  1  0
 10 11  1  0
 11 12  1  0
 12 13  1  0
 13 14  1  6
 13 15  1  0
 15 16  1  0
 16 17  1  0
 17 18  2  0
 18 19  1  0
 19 20  1  0
 20 21  1  0
 21 22  1  0
 22 23  1  0
 22 24  1  0
 24 25  1  0
 24 26  1  0
 19 27  1  0
 27 28  1  1
 27 29  1  0
 29 30  1  0
 30 31  1  0
 31 32  1  1
  7  5  1  0
 31 10  1  0
 31 13  1  0
 27 15  1  0
 24 18  1  0
  1 33  1  0
  1 34  1  0
  1 35  1  0
  2 36  1  6
  3 37  1  0
  3 38  1  0
  4 39  1  0
  4 40  1  0
  5 41  1  1
  8 42  1  0
  8 43  1  0
  8 44  1  0
  9 45  1  0
  9 46  1  0
  9 47  1  0
 10 48  1  6
 11 49  1  0
 11 50  1  0
 12 51  1  0
 12 52  1  0
 14 53  1  0
 14 54  1  0
 14 55  1  0
 15 56  1  1
 16 57  1  0
 16 58  1  0
 17 59  1  0
 19 60  1  6
 20 61  1  0
 20 62  1  0
 21 63  1  0
 21 64  1  0
 22 65  1  6
 23 66  1  0
 25 67  1  0
 25 68  1  0
 25 69  1  0
 26 70  1  0
 26 71  1  0
 26 72  1  0
 28 73  1  0
 28 74  1  0
 28 75  1  0
 29 76  1  0
 29 77  1  0
 30 78  1  0
 30 79  1  0
 32 80  1  0
 32 81  1  0
 32 82  1  0
M  END
>  <meeko>  (12) 
{"is_sidechain": [false], "intermolecular_energy": 2.731, "internal_energy": -0.839}

$$$$
EPH_relaxed_0001_pdb2pqr_Repair_55_r2_0001_out
     RDKit          3D

 82 86  0  0  0  0  0  0  0  0999 V2000
    0.2630   19.1950   -2.4520 C   0  0  0  0  0  0  0  0  0  0  0  0
   -0.0140   18.1910   -1.3290 C   0  0  2  0  0  0  0  0  0  0  0  0
    0.6710   18.5940   -0.0080 C   0  0  0  0  0  0  0  0  0  0  0  0
    1.8440   19.5600   -0.1930 C   0  0  0  0  0  0  0  0  0  0  0  0
    2.7460   19.5730    1.0050 C   0  0  2  0  0  0  0  0  0  0  0  0
    4.0210   20.1920    0.7870 O   0  0  0  0  0  0  0  0  0  0  0  0
    4.0410   18.7860    1.0850 C   0  0  0  0  0  0  0  0  0  0  0  0
    4.5050   17.9300   -0.0510 C   0  0  0  0  0  0  0  0  0  0  0  0
    4.5990   18.4640    2.4360 C   0  0  0  0  0  0  0  0  0  0  0  0
    0.4440   16.8000   -1.7510 C   0  0  1  0  0  0  0  0  0  0  0  0
    1.8270   16.8150   -2.4560 C   0  0  0  0  0  0  0  0  0  0  0  0
    2.5520   15.5080   -2.0460 C   0  0  0  0  0  0  0  0  0  0  0  0
    1.4510   14.6370   -1.3960 C   0  0  1  0  0  0  0  0  0  0  0  0
    0.6930   13.9880   -2.5970 C   0  0  0  0  0  0  0  0  0  0  0  0
    1.9350   13.5620   -0.3700 C   0  0  2  0  0  0  0  0  0  0  0  0
    2.8560   12.4750   -0.9500 C   0  0  0  0  0  0  0  0  0  0  0  0
    2.1610   11.2600   -1.4690 C   0  0  0  0  0  0  0  0  0  0  0  0
    0.8830   10.9220   -1.2150 C   0  0  0  0  0  0  0  0  0  0  0  0
    0.0260   11.7510   -0.2500 C   0  0  1  0  0  0  0  0  0  0  0  0
   -0.7210   10.8020    0.7240 C   0  0  0  0  0  0  0  0  0  0  0  0
   -1.5310    9.7340   -0.0050 C   0  0  0  0  0  0  0  0  0  0  0  0
   -0.6340    8.8940   -0.9110 C   0  0  2  0  0  0  0  0  0  0  0  0
    0.2630    8.1340   -0.0950 O   0  0  0  0  0  0  0  0  0  0  0  0
    0.1760    9.7430   -1.9290 C   0  0  0  0  0  0  0  0  0  0  0  0
   -0.7800   10.3250   -2.9990 C   0  0  0  0  0  0  0  0  0  0  0  0
    1.1430    8.7900   -2.6830 C   0  0  0  0  0  0  0  0  0  0  0  0
    0.7760   12.9320    0.5040 C   0  0  1  0  0  0  0  0  0  0  0  0
    1.4430   12.3930    1.8060 C   0  0  0  0  0  0  0  0  0  0  0  0
   -0.2820   14.0050    0.9580 C   0  0  0  0  0  0  0  0  0  0  0  0
   -0.6300   15.1110   -0.0560 C   0  0  0  0  0  0  0  0  0  0  0  0
    0.6400   15.7460   -0.6320 C   0  0  2  0  0  0  0  0  0  0  0  0
    1.4120   16.4260    0.5490 C   0  0  0  0  0  0  0  0  0  0  0  0
    0.5315   20.1684   -2.0156 H   0  0  0  0  0  0  0  0  0  0  0  0
    1.0940   18.8300   -3.0735 H   0  0  0  0  0  0  0  0  0  0  0  0
   -0.6376   19.3077   -3.0735 H   0  0  0  0  0  0  0  0  0  0  0  0
   -1.0992   18.1861   -1.1494 H   0  0  0  0  0  0  0  0  0  0  0  0
   -0.0773   19.0761    0.6383 H   0  0  0  0  0  0  0  0  0  0  0  0
    1.0790   17.6741    0.4363 H   0  0  0  0  0  0  0  0  0  0  0  0
    2.4256   19.2501   -1.0738 H   0  0  0  0  0  0  0  0  0  0  0  0
    1.4363   20.5729   -0.3263 H   0  0  0  0  0  0  0  0  0  0  0  0
    1.8835   19.6453    1.6839 H   0  0  0  0  0  0  0  0  0  0  0  0
    4.9940   17.0280    0.3455 H   0  0  0  0  0  0  0  0  0  0  0  0
    3.6415   17.6383   -0.6669 H   0  0  0  0  0  0  0  0  0  0  0  0
    5.2207   18.4944   -0.6669 H   0  0  0  0  0  0  0  0  0  0  0  0
    3.9249   18.8530    3.2134 H   0  0  0  0  0  0  0  0  0  0  0  0
    4.6922   17.3733    2.5438 H   0  0  0  0  0  0  0  0  0  0  0  0
    5.5900   18.9291    2.5438 H   0  0  0  0  0  0  0  0  0  0  0  0
   -0.4017   16.5142   -2.3938 H   0  0  0  0  0  0  0  0  0  0  0  0
    1.6954   16.8488   -3.5476 H   0  0  0  0  0  0  0  0  0  0  0  0
    2.4108   17.6996   -2.1616 H   0  0  0  0  0  0  0  0  0  0  0  0
    2.9742   15.0051   -2.9285 H   0  0  0  0  0  0  0  0  0  0  0  0
    3.3932   15.6950   -1.3623 H   0  0  0  0  0  0  0  0  0  0  0  0
   -0.0909   13.3168   -2.2162 H   0  0  0  0  0  0  0  0  0  0  0  0
    0.2338   14.7772   -3.2104 H   0  0  0  0  0  0  0  0  0  0  0  0
    1.4021   13.4128   -3.2104 H   0  0  0  0  0  0  0  0  0  0  0  0
    2.5636   14.1531    0.3122 H   0  0  0  0  0  0  0  0  0  0  0  0
    3.4268   12.9198   -1.7784 H   0  0  0  0  0  0  0  0  0  0  0  0
    3.4850   12.1322   -0.1152 H   0  0  0  0  0  0  0  0  0  0  0  0
    2.7422   10.5839   -2.1133 H   0  0  0  0  0  0  0  0  0  0  0  0
   -0.6998   12.2916   -0.8753 H   0  0  0  0  0  0  0  0  0  0  0  0
    0.0189   10.3047    1.3684 H   0  0  0  0  0  0  0  0  0  0  0  0
   -1.4241   11.4117    1.3104 H   0  0  0  0  0  0  0  0  0  0  0  0
   -2.0106    9.0774    0.7359 H   0  0  0  0  0  0  0  0  0  0  0  0
   -2.2905   10.2316   -0.6259 H   0  0  0  0  0  0  0  0  0  0  0  0
   -1.2868    8.2355   -1.5028 H   0  0  0  0  0  0  0  0  0  0  0  0
   -0.2660    7.6860    0.5860 H   0  0  0  0  0  0  0  0  0  0  0  0
   -1.6185   10.8355   -2.5027 H   0  0  0  0  0  0  0  0  0  0  0  0
   -0.2333   11.0436   -3.6272 H   0  0  0  0  0  0  0  0  0  0  0  0
   -1.1673    9.5093   -3.6272 H   0  0  0  0  0  0  0  0  0  0  0  0
    1.7299    8.2116   -1.9544 H   0  0  0  0  0  0  0  0  0  0  0  0
    0.5616    8.1020   -3.3144 H   0  0  0  0  0  0  0  0  0  0  0  0
    1.8224    9.3814   -3.3144 H   0  0  0  0  0  0  0  0  0  0  0  0
    0.9262   12.8106    2.6827 H   0  0  0  0  0  0  0  0  0  0  0  0
    1.3722   11.2955    1.8270 H   0  0  0  0  0  0  0  0  0  0  0  0
    2.5012   12.6926    1.8270 H   0  0  0  0  0  0  0  0  0  0  0  0
   -1.2129   13.4719    1.2013 H   0  0  0  0  0  0  0  0  0  0  0  0
    0.1850   14.5285    1.8053 H   0  0  0  0  0  0  0  0  0  0  0  0
   -1.2183   14.6747   -0.8767 H   0  0  0  0  0  0  0  0  0  0  0  0
   -1.2090   15.8908    0.4604 H   0  0  0  0  0  0  0  0  0  0  0  0
    1.0059   16.0683    1.5067 H   0  0  0  0  0  0  0  0  0  0  0  0
    2.4798   16.1697    0.4849 H   0  0  0  0  0  0  0  0  0  0  0  0
    1.2925   17.5176    0.4849 H   0  0  0  0  0  0  0  0  0  0  0  0
  1  2  1  0
  2  3  1  0
  3  4  1  0
  4  5  1  0
  5  6  1  0
  6  7  1  0
  7  8  1  0
  7  9  1  0
  2 10  1  0
 10 11  1  0
 11 12  1  0
 12 13  1  0
 13 14  1  6
 13 15  1  0
 15 16  1  0
 16 17  1  0
 17 18  2  0
 18 19  1  0
 19 20  1  0
 20 21  1  0
 21 22  1  0
 22 23  1  0
 22 24  1  0
 24 25  1  0
 24 26  1  0
 19 27  1  0
 27 28  1  1
 27 29  1  0
 29 30  1  0
 30 31  1  0
 31 32  1  1
  7  5  1  0
 31 10  1  0
 31 13  1  0
 27 15  1  0
 24 18  1  0
  1 33  1  0
  1 34  1  0
  1 35  1  0
  2 36  1  1
  3 37  1  0
  3 38  1  0
  4 39  1  0
  4 40  1  0
  5 41  1  1
  8 42  1  0
  8 43  1  0
  8 44  1  0
  9 45  1  0
  9 46  1  0
  9 47  1  0
 10 48  1  6
 11 49  1  0
 11 50  1  0
 12 51  1  0
 12 52  1  0
 14 53  1  0
 14 54  1  0
 14 55  1  0
 15 56  1  1
 16 57  1  0
 16 58  1  0
 17 59  1  0
 19 60  1  6
 20 61  1  0
 20 62  1  0
 21 63  1  0
 21 64  1  0
 22 65  1  6
 23 66  1  0
 25 67  1  0
 25 68  1  0
 25 69  1  0
 26 70  1  0
 26 71  1  0
 26 72  1  0
 28 73  1  0
 28 74  1  0
 28 75  1  0
 29 76  1  0
 29 77  1  0
 30 78  1  0
 30 79  1  0
 32 80  1  0
 32 81  1  0
 32 82  1  0
M  END
>  <meeko>  (13) 
{"is_sidechain": [false], "intermolecular_energy": 2.731, "internal_energy": -0.839}

$$$$
EPH_relaxed_0001_pdb2pqr_Repair_55_r2_0001_out
     RDKit          3D

 82 86  0  0  0  0  0  0  0  0999 V2000
   -2.1960    7.8060   -2.1080 C   0  0  0  0  0  0  0  0  0  0  0  0
   -2.3770    8.4960   -0.7530 C   0  0  2  0  0  0  0  0  0  0  0  0
   -3.8530    8.5250   -0.3090 C   0  0  0  0  0  0  0  0  0  0  0  0
   -4.6850    7.3640   -0.8600 C   0  0  0  0  0  0  0  0  0  0  0  0
   -6.0680    7.8020   -1.2350 C   0  0  2  0  0  0  0  0  0  0  0  0
   -7.1190    7.1560   -0.5050 O   0  0  0  0  0  0  0  0  0  0  0  0
   -7.0760    6.8950   -1.9170 C   0  0  0  0  0  0  0  0  0  0  0  0
   -6.7420    5.4790   -2.2650 C   0  0  0  0  0  0  0  0  0  0  0  0
   -8.2010    7.5230   -2.6800 C   0  0  0  0  0  0  0  0  0  0  0  0
   -1.8240    9.9150   -0.8150 C   0  0  1  0  0  0  0  0  0  0  0  0
   -1.3930   10.4500    0.5770 C   0  0  0  0  0  0  0  0  0  0  0  0
   -0.1520   11.3500    0.3470 C   0  0  0  0  0  0  0  0  0  0  0  0
   -0.1100   11.5710   -1.1840 C   0  0  1  0  0  0  0  0  0  0  0  0
   -1.1430   12.7100   -1.4530 C   0  0  0  0  0  0  0  0  0  0  0  0
    1.2890   11.9050   -1.7950 C   0  0  2  0  0  0  0  0  0  0  0  0
    1.9240   13.2160   -1.2970 C   0  0  0  0  0  0  0  0  0  0  0  0
    1.5950   14.4290   -2.1020 C   0  0  0  0  0  0  0  0  0  0  0  0
    1.0590   14.4270   -3.3370 C   0  0  0  0  0  0  0  0  0  0  0  0
    0.8190   13.1120   -4.0890 C   0  0  1  0  0  0  0  0  0  0  0  0
    1.3350   13.2470   -5.5460 C   0  0  0  0  0  0  0  0  0  0  0  0
    0.7380   14.4500   -6.2690 C   0  0  0  0  0  0  0  0  0  0  0  0
    1.0480   15.7450   -5.5210 C   0  0  2  0  0  0  0  0  0  0  0  0
    2.4570   15.9850   -5.5800 O   0  0  0  0  0  0  0  0  0  0  0  0
    0.5820   15.7230   -4.0390 C   0  0  0  0  0  0  0  0  0  0  0  0
   -0.9650   15.7660   -3.9780 C   0  0  0  0  0  0  0  0  0  0  0  0
    1.0800   17.0280   -3.3620 C   0  0  0  0  0  0  0  0  0  0  0  0
    1.3500   11.7970   -3.3730 C   0  0  1  0  0  0  0  0  0  0  0  0
    2.8450   11.5550   -3.7450 C   0  0  0  0  0  0  0  0  0  0  0  0
    0.5500   10.5550   -3.9180 C   0  0  0  0  0  0  0  0  0  0  0  0
   -0.7650   10.2040   -3.1960 C   0  0  0  0  0  0  0  0  0  0  0  0
   -0.5600   10.1490   -1.6800 C   0  0  2  0  0  0  0  0  0  0  0  0
    0.4580    8.9970   -1.3760 C   0  0  0  0  0  0  0  0  0  0  0  0
   -1.9198    6.7531   -1.9493 H   0  0  0  0  0  0  0  0  0  0  0  0
   -3.1378    7.8567   -2.6740 H   0  0  0  0  0  0  0  0  0  0  0  0
   -1.4003    8.3125   -2.6740 H   0  0  0  0  0  0  0  0  0  0  0  0
   -1.8192    7.9115   -0.0065 H   0  0  0  0  0  0  0  0  0  0  0  0
   -3.8858    8.4848    0.7898 H   0  0  0  0  0  0  0  0  0  0  0  0
   -4.2905    9.4517   -0.7087 H   0  0  0  0  0  0  0  0  0  0  0  0
   -4.1851    6.9592   -1.7523 H   0  0  0  0  0  0  0  0  0  0  0  0
   -4.7690    6.5991   -0.0740 H   0  0  0  0  0  0  0  0  0  0  0  0
   -5.7095    8.8152   -1.4695 H   0  0  0  0  0  0  0  0  0  0  0  0
   -6.6047    4.8971   -1.3417 H   0  0  0  0  0  0  0  0  0  0  0  0
   -7.5620    5.0431   -2.8546 H   0  0  0  0  0  0  0  0  0  0  0  0
   -5.8137    5.4555   -2.8546 H   0  0  0  0  0  0  0  0  0  0  0  0
   -8.9379    7.9344   -1.9745 H   0  0  0  0  0  0  0  0  0  0  0  0
   -7.8080    8.3322   -3.3130 H   0  0  0  0  0  0  0  0  0  0  0  0
   -8.6835    6.7638   -3.3130 H   0  0  0  0  0  0  0  0  0  0  0  0
   -2.6871   10.4292   -1.2629 H   0  0  0  0  0  0  0  0  0  0  0  0
   -2.2080   11.0365    1.0261 H   0  0  0  0  0  0  0  0  0  0  0  0
   -1.1584    9.6222    1.2624 H   0  0  0  0  0  0  0  0  0  0  0  0
   -0.2639   12.3085    0.8750 H   0  0  0  0  0  0  0  0  0  0  0  0
    0.7725   10.8920    0.7284 H   0  0  0  0  0  0  0  0  0  0  0  0
   -1.5057   13.1099   -0.4946 H   0  0  0  0  0  0  0  0  0  0  0  0
   -0.6603   13.5147   -2.0270 H   0  0  0  0  0  0  0  0  0  0  0  0
   -1.9909   12.3080   -2.0270 H   0  0  0  0  0  0  0  0  0  0  0  0
    1.9190   11.0971   -1.3944 H   0  0  0  0  0  0  0  0  0  0  0  0
    1.5822   13.3892   -0.2659 H   0  0  0  0  0  0  0  0  0  0  0  0
    3.0121   13.0793   -1.3829 H   0  0  0  0  0  0  0  0  0  0  0  0
    1.8086   15.4077   -1.6476 H   0  0  0  0  0  0  0  0  0  0  0  0
   -0.2701   12.9577   -4.0916 H   0  0  0  0  0  0  0  0  0  0  0  0
    2.4293   13.3564   -5.5238 H   0  0  0  0  0  0  0  0  0  0  0  0
    1.0294   12.3431   -6.0934 H   0  0  0  0  0  0  0  0  0  0  0  0
    1.1630   14.5087   -7.2819 H   0  0  0  0  0  0  0  0  0  0  0  0
   -0.3538   14.3248   -6.3168 H   0  0  0  0  0  0  0  0  0  0  0  0
    0.4869   16.5531   -6.0132 H   0  0  0  0  0  0  0  0  0  0  0  0
    2.6800   16.6040   -4.8640 H   0  0  0  0  0  0  0  0  0  0  0  0
   -1.2904   15.7750   -2.9273 H   0  0  0  0  0  0  0  0  0  0  0  0
   -1.3267   16.6745   -4.4817 H   0  0  0  0  0  0  0  0  0  0  0  0
   -1.3766   14.8789   -4.4817 H   0  0  0  0  0  0  0  0  0  0  0  0
    1.0364   16.9137   -2.2688 H   0  0  0  0  0  0  0  0  0  0  0  0
    2.1174   17.2274   -3.6687 H   0  0  0  0  0  0  0  0  0  0  0  0
    0.4392   17.8678   -3.6687 H   0  0  0  0  0  0  0  0  0  0  0  0
    3.4407   11.4586   -2.8253 H   0  0  0  0  0  0  0  0  0  0  0  0
    2.9309   10.6313   -4.3360 H   0  0  0  0  0  0  0  0  0  0  0  0
    3.2179   12.4045   -4.3360 H   0  0  0  0  0  0  0  0  0  0  0  0
    0.3081   10.7519   -4.9729 H   0  0  0  0  0  0  0  0  0  0  0  0
    1.2100    9.6913   -3.7496 H   0  0  0  0  0  0  0  0  0  0  0  0
   -1.5192   10.9699   -3.4296 H   0  0  0  0  0  0  0  0  0  0  0  0
   -1.1011    9.2149   -3.5406 H   0  0  0  0  0  0  0  0  0  0  0  0
    0.5630    8.8782   -0.2875 H   0  0  0  0  0  0  0  0  0  0  0  0
    0.0898    8.0573   -1.8136 H   0  0  0  0  0  0  0  0  0  0  0  0
    1.4358    9.2468   -1.8136 H   0  0  0  0  0  0  0  0  0  0  0  0
  1  2  1  0
  2  3  1  0
  3  4  1  0
  4  5  1  0
  5  6  1  0
  6  7  1  0
  7  8  1  0
  7  9  1  0
  2 10  1  0
 10 11  1  0
 11 12  1  0
 12 13  1  0
 13 14  1  1
 13 15  1  0
 15 16  1  0
 16 17  1  0
 17 18  2  0
 18 19  1  0
 19 20  1  0
 20 21  1  0
 21 22  1  0
 22 23  1  0
 22 24  1  0
 24 25  1  0
 24 26  1  0
 19 27  1  0
 27 28  1  1
 27 29  1  0
 29 30  1  0
 30 31  1  0
 31 32  1  6
  7  5  1  0
 31 10  1  0
 31 13  1  0
 27 15  1  0
 24 18  1  0
  1 33  1  0
  1 34  1  0
  1 35  1  0
  2 36  1  1
  3 37  1  0
  3 38  1  0
  4 39  1  0
  4 40  1  0
  5 41  1  6
  8 42  1  0
  8 43  1  0
  8 44  1  0
  9 45  1  0
  9 46  1  0
  9 47  1  0
 10 48  1  6
 11 49  1  0
 11 50  1  0
 12 51  1  0
 12 52  1  0
 14 53  1  0
 14 54  1  0
 14 55  1  0
 15 56  1  1
 16 57  1  0
 16 58  1  0
 17 59  1  0
 19 60  1  6
 20 61  1  0
 20 62  1  0
 21 63  1  0
 21 64  1  0
 22 65  1  6
 23 66  1  0
 25 67  1  0
 25 68  1  0
 25 69  1  0
 26 70  1  0
 26 71  1  0
 26 72  1  0
 28 73  1  0
 28 74  1  0
 28 75  1  0
 29 76  1  0
 29 77  1  0
 30 78  1  0
 30 79  1  0
 32 80  1  0
 32 81  1  0
 32 82  1  0
M  END
>  <meeko>  (14) 
{"is_sidechain": [false], "intermolecular_energy": 2.731, "internal_energy": -0.839}

$$$$
EPH_relaxed_0001_pdb2pqr_Repair_55_r2_0001_out
     RDKit          3D

 82 86  0  0  0  0  0  0  0  0999 V2000
    2.8260   11.3630   -5.3660 C   0  0  0  0  0  0  0  0  0  0  0  0
    1.8180   11.0590   -4.2550 C   0  0  2  0  0  0  0  0  0  0  0  0
    0.6960   10.1140   -4.7300 C   0  0  0  0  0  0  0  0  0  0  0  0
   -0.3740    9.8460   -3.6690 C   0  0  0  0  0  0  0  0  0  0  0  0
    0.1690    9.0450   -2.5240 C   0  0  2  0  0  0  0  0  0  0  0  0
   -0.6630    7.9530   -2.1090 O   0  0  0  0  0  0  0  0  0  0  0  0
   -0.4750    9.0070   -1.1500 C   0  0  0  0  0  0  0  0  0  0  0  0
   -1.7180    9.7840   -0.8490 C   0  0  0  0  0  0  0  0  0  0  0  0
    0.3660    8.6110    0.0230 C   0  0  0  0  0  0  0  0  0  0  0  0
    1.2170   12.3570   -3.7280 C   0  0  1  0  0  0  0  0  0  0  0  0
   -0.3220   12.2730   -3.5490 C   0  0  0  0  0  0  0  0  0  0  0  0
   -0.6750   13.1300   -2.3060 C   0  0  0  0  0  0  0  0  0  0  0  0
    0.6110   13.9390   -2.0120 C   0  0  1  0  0  0  0  0  0  0  0  0
    0.5660   15.1390   -3.0080 C   0  0  0  0  0  0  0  0  0  0  0  0
    0.8020   14.4200   -0.5370 C   0  0  2  0  0  0  0  0  0  0  0  0
   -0.2740   15.3920   -0.0230 C   0  0  0  0  0  0  0  0  0  0  0  0
    0.0210   16.8400   -0.2370 C   0  0  0  0  0  0  0  0  0  0  0  0
    1.2230   17.3550   -0.5570 C   0  0  0  0  0  0  0  0  0  0  0  0
    2.4660   16.4600   -0.6400 C   0  0  1  0  0  0  0  0  0  0  0  0
    3.6430   17.1370    0.1100 C   0  0  0  0  0  0  0  0  0  0  0  0
    3.9110   18.5560   -0.3820 C   0  0  0  0  0  0  0  0  0  0  0  0
    2.6700   19.4300   -0.2290 C   0  0  2  0  0  0  0  0  0  0  0  0
    2.3980   19.6050    1.1650 O   0  0  0  0  0  0  0  0  0  0  0  0
    1.4160   18.8430   -0.9370 C   0  0  0  0  0  0  0  0  0  0  0  0
    1.5950   18.9340   -2.4720 C   0  0  0  0  0  0  0  0  0  0  0  0
    0.2040   19.7480   -0.5860 C   0  0  0  0  0  0  0  0  0  0  0  0
    2.2590   14.9440   -0.2100 C   0  0  1  0  0  0  0  0  0  0  0  0
    2.4500   14.7980    1.3310 C   0  0  0  0  0  0  0  0  0  0  0  0
    3.3770   14.0610   -0.8810 C   0  0  0  0  0  0  0  0  0  0  0  0
    3.0790   13.5170   -2.2910 C   0  0  0  0  0  0  0  0  0  0  0  0
    1.6990   12.8530   -2.3420 C   0  0  2  0  0  0  0  0  0  0  0  0
    1.7210   11.6280   -1.3660 C   0  0  0  0  0  0  0  0  0  0  0  0
    3.7882   11.6532   -4.9188 H   0  0  0  0  0  0  0  0  0  0  0  0
    2.9664   10.4673   -5.9888 H   0  0  0  0  0  0  0  0  0  0  0  0
    2.4478   12.1870   -5.9888 H   0  0  0  0  0  0  0  0  0  0  0  0
    2.3615   10.5461   -3.4478 H   0  0  0  0  0  0  0  0  0  0  0  0
    0.2097   10.5659   -5.6071 H   0  0  0  0  0  0  0  0  0  0  0  0
    1.1671    9.1475   -4.9623 H   0  0  0  0  0  0  0  0  0  0  0  0
   -0.7456   10.8081   -3.2865 H   0  0  0  0  0  0  0  0  0  0  0  0
   -1.1845    9.2686   -4.1376 H   0  0  0  0  0  0  0  0  0  0  0  0
    1.2022    9.2356   -2.8497 H   0  0  0  0  0  0  0  0  0  0  0  0
   -1.8457    9.8638    0.2406 H   0  0  0  0  0  0  0  0  0  0  0  0
   -1.6349   10.7913   -1.2832 H   0  0  0  0  0  0  0  0  0  0  0  0
   -2.5871    9.2681   -1.2832 H   0  0  0  0  0  0  0  0  0  0  0  0
   -0.1633    8.8602    0.9545 H   0  0  0  0  0  0  0  0  0  0  0  0
    0.5571    7.5283   -0.0117 H   0  0  0  0  0  0  0  0  0  0  0  0
    1.3223    9.1534   -0.0117 H   0  0  0  0  0  0  0  0  0  0  0  0
    1.5555   13.0489   -4.5133 H   0  0  0  0  0  0  0  0  0  0  0  0
   -0.8293   12.6711   -4.4401 H   0  0  0  0  0  0  0  0  0  0  0  0
   -0.6479   11.2309   -3.4158 H   0  0  0  0  0  0  0  0  0  0  0  0
   -1.5162   13.8040   -2.5251 H   0  0  0  0  0  0  0  0  0  0  0  0
   -0.9856   12.5142   -1.4491 H   0  0  0  0  0  0  0  0  0  0  0  0
    0.5306   16.0826   -2.4438 H   0  0  0  0  0  0  0  0  0  0  0  0
    1.4653   15.1239   -3.6412 H   0  0  0  0  0  0  0  0  0  0  0  0
   -0.3297   15.0566   -3.6412 H   0  0  0  0  0  0  0  0  0  0  0  0
    0.6615   13.4906    0.0344 H   0  0  0  0  0  0  0  0  0  0  0  0
   -1.2176   15.1576   -0.5374 H   0  0  0  0  0  0  0  0  0  0  0  0
   -0.3191   15.2481    1.0666 H   0  0  0  0  0  0  0  0  0  0  0  0
   -0.8149   17.5460   -0.1235 H   0  0  0  0  0  0  0  0  0  0  0  0
    2.7067   16.3726   -1.7098 H   0  0  0  0  0  0  0  0  0  0  0  0
    3.4023   17.1752    1.1827 H   0  0  0  0  0  0  0  0  0  0  0  0
    4.5476   16.5409   -0.0808 H   0  0  0  0  0  0  0  0  0  0  0  0
    4.7326   18.9915    0.2056 H   0  0  0  0  0  0  0  0  0  0  0  0
    4.1807   18.5129   -1.4476 H   0  0  0  0  0  0  0  0  0  0  0  0
    2.8828   20.3932   -0.7158 H   0  0  0  0  0  0  0  0  0  0  0  0
    3.1630   19.2650    1.6590 H   0  0  0  0  0  0  0  0  0  0  0  0
    2.5541   19.4216   -2.7010 H   0  0  0  0  0  0  0  0  0  0  0  0
    1.5861   17.9219   -2.9028 H   0  0  0  0  0  0  0  0  0  0  0  0
    0.7720   19.5232   -2.9028 H   0  0  0  0  0  0  0  0  0  0  0  0
    0.1056   19.8214    0.5071 H   0  0  0  0  0  0  0  0  0  0  0  0
    0.3612   20.7515   -1.0082 H   0  0  0  0  0  0  0  0  0  0  0  0
   -0.7135   19.3122   -1.0082 H   0  0  0  0  0  0  0  0  0  0  0  0
    1.6808   15.3860    1.8531 H   0  0  0  0  0  0  0  0  0  0  0  0
    2.3565   13.7390    1.6134 H   0  0  0  0  0  0  0  0  0  0  0  0
    3.4474   15.1661    1.6134 H   0  0  0  0  0  0  0  0  0  0  0  0
    4.2894   14.6720   -0.9460 H   0  0  0  0  0  0  0  0  0  0  0  0
    3.4633   13.1705   -0.2411 H   0  0  0  0  0  0  0  0  0  0  0  0
    3.1051   14.3486   -3.0105 H   0  0  0  0  0  0  0  0  0  0  0  0
    3.8401   12.7644   -2.5448 H   0  0  0  0  0  0  0  0  0  0  0  0
    1.7145   11.9873   -0.3264 H   0  0  0  0  0  0  0  0  0  0  0  0
    0.8340   11.0021   -1.5431 H   0  0  0  0  0  0  0  0  0  0  0  0
    2.6300   11.0343   -1.5431 H   0  0  0  0  0  0  0  0  0  0  0  0
  1  2  1  0
  2  3  1  0
  3  4  1  0
  4  5  1  0
  5  6  1  0
  6  7  1  0
  7  8  1  0
  7  9  1  0
  2 10  1  0
 10 11  1  0
 11 12  1  0
 12 13  1  0
 13 14  1  6
 13 15  1  0
 15 16  1  0
 16 17  1  0
 17 18  2  0
 18 19  1  0
 19 20  1  0
 20 21  1  0
 21 22  1  0
 22 23  1  0
 22 24  1  0
 24 25  1  0
 24 26  1  0
 19 27  1  0
 27 28  1  1
 27 29  1  0
 29 30  1  0
 30 31  1  0
 31 32  1  1
  7  5  1  0
 31 10  1  0
 31 13  1  0
 27 15  1  0
 24 18  1  0
  1 33  1  0
  1 34  1  0
  1 35  1  0
  2 36  1  1
  3 37  1  0
  3 38  1  0
  4 39  1  0
  4 40  1  0
  5 41  1  1
  8 42  1  0
  8 43  1  0
  8 44  1  0
  9 45  1  0
  9 46  1  0
  9 47  1  0
 10 48  1  6
 11 49  1  0
 11 50  1  0
 12 51  1  0
 12 52  1  0
 14 53  1  0
 14 54  1  0
 14 55  1  0
 15 56  1  1
 16 57  1  0
 16 58  1  0
 17 59  1  0
 19 60  1  6
 20 61  1  0
 20 62  1  0
 21 63  1  0
 21 64  1  0
 22 65  1  6
 23 66  1  0
 25 67  1  0
 25 68  1  0
 25 69  1  0
 26 70  1  0
 26 71  1  0
 26 72  1  0
 28 73  1  0
 28 74  1  0
 28 75  1  0
 29 76  1  0
 29 77  1  0
 30 78  1  0
 30 79  1  0
 32 80  1  0
 32 81  1  0
 32 82  1  0
M  END
>  <meeko>  (15) 
{"is_sidechain": [false], "intermolecular_energy": 2.731, "internal_energy": -0.839}

$$$$
EPH_relaxed_0001_pdb2pqr_Repair_55_r2_0001_out
     RDKit          3D

 82 86  0  0  0  0  0  0  0  0999 V2000
   -5.0040    8.5770   -0.7950 C   0  0  0  0  0  0  0  0  0  0  0  0
   -5.5050    7.4470   -1.6980 C   0  0  2  0  0  0  0  0  0  0  0  0
   -4.5980    7.2430   -2.9290 C   0  0  0  0  0  0  0  0  0  0  0  0
   -4.2230    5.7800   -3.1810 C   0  0  0  0  0  0  0  0  0  0  0  0
   -5.2470    4.8400   -2.6190 C   0  0  2  0  0  0  0  0  0  0  0  0
   -5.1240    3.4840   -3.0660 O   0  0  0  0  0  0  0  0  0  0  0  0
   -6.3220    4.1750   -3.4570 C   0  0  0  0  0  0  0  0  0  0  0  0
   -6.4280    4.4230   -4.9290 C   0  0  0  0  0  0  0  0  0  0  0  0
   -7.5560    3.6760   -2.7730 C   0  0  0  0  0  0  0  0  0  0  0  0
   -6.9330    7.7330   -2.1450 C   0  0  1  0  0  0  0  0  0  0  0  0
   -7.2600    7.1170   -3.5320 C   0  0  0  0  0  0  0  0  0  0  0  0
   -8.7460    6.6780   -3.4870 C   0  0  0  0  0  0  0  0  0  0  0  0
   -9.3130    7.3490   -2.2140 C   0  0  1  0  0  0  0  0  0  0  0  0
   -9.6280    8.8170   -2.6400 C   0  0  0  0  0  0  0  0  0  0  0  0
  -10.5550    6.6570   -1.5630 C   0  0  2  0  0  0  0  0  0  0  0  0
  -11.8130    6.6090   -2.4470 C   0  0  0  0  0  0  0  0  0  0  0  0
  -12.7380    7.7730   -2.3040 C   0  0  0  0  0  0  0  0  0  0  0  0
  -12.7160    8.6700   -1.3010 C   0  0  0  0  0  0  0  0  0  0  0  0
  -11.7520    8.5070   -0.1190 C   0  0  1  0  0  0  0  0  0  0  0  0
  -12.5190    8.7370    1.2100 C   0  0  0  0  0  0  0  0  0  0  0  0
  -13.2550   10.0730    1.2370 C   0  0  0  0  0  0  0  0  0  0  0  0
  -14.2460   10.1740    0.0800 C   0  0  2  0  0  0  0  0  0  0  0  0
  -15.2870    9.2130    0.2810 O   0  0  0  0  0  0  0  0  0  0  0  0
  -13.5890    9.9490   -1.3100 C   0  0  0  0  0  0  0  0  0  0  0  0
  -12.6810   11.1550   -1.6580 C   0  0  0  0  0  0  0  0  0  0  0  0
  -14.7190    9.9360   -2.3760 C   0  0  0  0  0  0  0  0  0  0  0  0
  -10.8930    7.1710   -0.1050 C   0  0  1  0  0  0  0  0  0  0  0  0
  -11.6940    6.0300    0.5940 C   0  0  0  0  0  0  0  0  0  0  0  0
   -9.5990    7.4000    0.7630 C   0  0  0  0  0  0  0  0  0  0  0  0
   -8.3680    7.9740    0.0360 C   0  0  0  0  0  0  0  0  0  0  0  0
   -8.0790    7.1970   -1.2510 C   0  0  2  0  0  0  0  0  0  0  0  0
   -7.7370    5.7210   -0.8520 C   0  0  0  0  0  0  0  0  0  0  0  0
   -5.1320    8.2884    0.2587 H   0  0  0  0  0  0  0  0  0  0  0  0
   -3.9390    8.7633   -0.9974 H   0  0  0  0  0  0  0  0  0  0  0  0
   -5.5811    9.4913   -0.9974 H   0  0  0  0  0  0  0  0  0  0  0  0
   -5.4791    6.5174   -1.1106 H   0  0  0  0  0  0  0  0  0  0  0  0
   -5.1253    7.6242   -3.8160 H   0  0  0  0  0  0  0  0  0  0  0  0
   -3.6617    7.7857   -2.7322 H   0  0  0  0  0  0  0  0  0  0  0  0
   -4.1440    5.6140   -4.2655 H   0  0  0  0  0  0  0  0  0  0  0  0
   -3.2638    5.5809   -2.6807 H   0  0  0  0  0  0  0  0  0  0  0  0
   -5.2924    5.4133   -1.6813 H   0  0  0  0  0  0  0  0  0  0  0  0
   -6.8549    5.4218   -5.1028 H   0  0  0  0  0  0  0  0  0  0  0  0
   -5.4276    4.3677   -5.3831 H   0  0  0  0  0  0  0  0  0  0  0  0
   -7.0794    3.6618   -5.3831 H   0  0  0  0  0  0  0  0  0  0  0  0
   -7.4189    3.7314   -1.6830 H   0  0  0  0  0  0  0  0  0  0  0  0
   -8.4148    4.2975   -3.0666 H   0  0  0  0  0  0  0  0  0  0  0  0
   -7.7414    2.6322   -3.0666 H   0  0  0  0  0  0  0  0  0  0  0  0
   -6.9176    8.8326   -2.1179 H   0  0  0  0  0  0  0  0  0  0  0  0
   -7.1099    7.8656   -4.3239 H   0  0  0  0  0  0  0  0  0  0  0  0
   -6.6021    6.2628   -3.7499 H   0  0  0  0  0  0  0  0  0  0  0  0
   -9.2815    7.0280   -4.3818 H   0  0  0  0  0  0  0  0  0  0  0  0
   -8.8572    5.5838   -3.4665 H   0  0  0  0  0  0  0  0  0  0  0  0
   -9.7614    9.4387   -1.7424 H   0  0  0  0  0  0  0  0  0  0  0  0
   -8.7942    9.2119   -3.2389 H   0  0  0  0  0  0  0  0  0  0  0  0
  -10.5505    8.8351   -3.2389 H   0  0  0  0  0  0  0  0  0  0  0  0
  -10.2191    5.6142   -1.4644 H   0  0  0  0  0  0  0  0  0  0  0  0
  -11.4889    6.5594   -3.4970 H   0  0  0  0  0  0  0  0  0  0  0  0
  -12.3817    5.7263   -2.1193 H   0  0  0  0  0  0  0  0  0  0  0  0
  -13.5015    7.9085   -3.0842 H   0  0  0  0  0  0  0  0  0  0  0  0
  -10.9823    9.2828   -0.2444 H   0  0  0  0  0  0  0  0  0  0  0  0
  -13.2527    7.9276    1.3383 H   0  0  0  0  0  0  0  0  0  0  0  0
  -11.7800    8.7464    2.0247 H   0  0  0  0  0  0  0  0  0  0  0  0
  -13.8010   10.1640    2.1876 H   0  0  0  0  0  0  0  0  0  0  0  0
  -12.5167   10.8824    1.1383 H   0  0  0  0  0  0  0  0  0  0  0  0
  -14.6459   11.1987    0.0757 H   0  0  0  0  0  0  0  0  0  0  0  0
  -15.9580    9.3580   -0.4080 H   0  0  0  0  0  0  0  0  0  0  0  0
  -12.3260   11.6265   -0.7298 H   0  0  0  0  0  0  0  0  0  0  0  0
  -11.8186   10.8072   -2.2457 H   0  0  0  0  0  0  0  0  0  0  0  0
  -13.2537   11.8876   -2.2457 H   0  0  0  0  0  0  0  0  0  0  0  0
  -15.6973    9.9247   -1.8732 H   0  0  0  0  0  0  0  0  0  0  0  0
  -14.6402   10.8351   -3.0048 H   0  0  0  0  0  0  0  0  0  0  0  0
  -14.6196    9.0389   -3.0048 H   0  0  0  0  0  0  0  0  0  0  0  0
  -11.6152    6.1422    1.6854 H   0  0  0  0  0  0  0  0  0  0  0  0
  -12.7510    6.0876    0.2948 H   0  0  0  0  0  0  0  0  0  0  0  0
  -11.2808    5.0555    0.2948 H   0  0  0  0  0  0  0  0  0  0  0  0
   -9.8610    8.0955    1.5739 H   0  0  0  0  0  0  0  0  0  0  0  0
   -9.2947    6.3969    1.0966 H   0  0  0  0  0  0  0  0  0  0  0  0
   -8.5576    9.0280   -0.2151 H   0  0  0  0  0  0  0  0  0  0  0  0
   -7.4962    7.8870    0.7011 H   0  0  0  0  0  0  0  0  0  0  0  0
   -7.7166    5.6329    0.2443 H   0  0  0  0  0  0  0  0  0  0  0  0
   -8.5021    5.0442   -1.2601 H   0  0  0  0  0  0  0  0  0  0  0  0
   -6.7522    5.4497   -1.2601 H   0  0  0  0  0  0  0  0  0  0  0  0
  1  2  1  0
  2  3  1  0
  3  4  1  0
  4  5  1  0
  5  6  1  0
  6  7  1  0
  7  8  1  0
  7  9  1  0
  2 10  1  0
 10 11  1  0
 11 12  1  0
 12 13  1  0
 13 14  1  6
 13 15  1  0
 15 16  1  0
 16 17  1  0
 17 18  2  0
 18 19  1  0
 19 20  1  0
 20 21  1  0
 21 22  1  0
 22 23  1  0
 22 24  1  0
 24 25  1  0
 24 26  1  0
 19 27  1  0
 27 28  1  1
 27 29  1  0
 29 30  1  0
 30 31  1  0
 31 32  1  1
  7  5  1  0
 31 10  1  0
 31 13  1  0
 27 15  1  0
 24 18  1  0
  1 33  1  0
  1 34  1  0
  1 35  1  0
  2 36  1  1
  3 37  1  0
  3 38  1  0
  4 39  1  0
  4 40  1  0
  5 41  1  1
  8 42  1  0
  8 43  1  0
  8 44  1  0
  9 45  1  0
  9 46  1  0
  9 47  1  0
 10 48  1  6
 11 49  1  0
 11 50  1  0
 12 51  1  0
 12 52  1  0
 14 53  1  0
 14 54  1  0
 14 55  1  0
 15 56  1  1
 16 57  1  0
 16 58  1  0
 17 59  1  0
 19 60  1  6
 20 61  1  0
 20 62  1  0
 21 63  1  0
 21 64  1  0
 22 65  1  6
 23 66  1  0
 25 67  1  0
 25 68  1  0
 25 69  1  0
 26 70  1  0
 26 71  1  0
 26 72  1  0
 28 73  1  0
 28 74  1  0
 28 75  1  0
 29 76  1  0
 29 77  1  0
 30 78  1  0
 30 79  1  0
 32 80  1  0
 32 81  1  0
 32 82  1  0
M  END
>  <meeko>  (16) 
{"is_sidechain": [false], "intermolecular_energy": 2.731, "internal_energy": -0.839}

$$$$
EPH_relaxed_0001_pdb2pqr_Repair_55_r2_0001_out
     RDKit          3D

 82 86  0  0  0  0  0  0  0  0999 V2000
    0.0650   10.5130   -3.8670 C   0  0  0  0  0  0  0  0  0  0  0  0
    1.1140   10.2920   -2.7730 C   0  0  2  0  0  0  0  0  0  0  0  0
    0.8470    9.0070   -1.9630 C   0  0  0  0  0  0  0  0  0  0  0  0
    0.2870    9.2680   -0.5620 C   0  0  0  0  0  0  0  0  0  0  0  0
   -1.1340    8.8080   -0.4380 C   0  0  2  0  0  0  0  0  0  0  0  0
   -1.8800    8.8310   -1.6620 O   0  0  0  0  0  0  0  0  0  0  0  0
   -2.3290    9.7220   -0.6290 C   0  0  0  0  0  0  0  0  0  0  0  0
   -2.1580   11.1720   -0.9590 C   0  0  0  0  0  0  0  0  0  0  0  0
   -3.6380    9.3260   -0.0190 C   0  0  0  0  0  0  0  0  0  0  0  0
    1.1530   11.4970   -1.8400 C   0  0  1  0  0  0  0  0  0  0  0  0
    2.2110   11.3460   -0.7150 C   0  0  0  0  0  0  0  0  0  0  0  0
    2.7840   12.7620   -0.4470 C   0  0  0  0  0  0  0  0  0  0  0  0
    1.8150   13.7190   -1.1800 C   0  0  1  0  0  0  0  0  0  0  0  0
    0.6060   13.8880   -0.2080 C   0  0  0  0  0  0  0  0  0  0  0  0
    2.4050   15.1010   -1.6120 C   0  0  2  0  0  0  0  0  0  0  0  0
    2.8780   15.9990   -0.4550 C   0  0  0  0  0  0  0  0  0  0  0  0
    1.8460   16.9280    0.0940 C   0  0  0  0  0  0  0  0  0  0  0  0
    0.6810   17.2430   -0.5020 C   0  0  0  0  0  0  0  0  0  0  0  0
    0.3470   16.7190   -1.9040 C   0  0  1  0  0  0  0  0  0  0  0  0
   -0.2010   17.8810   -2.7740 C   0  0  0  0  0  0  0  0  0  0  0  0
   -1.3810   18.5940   -2.1210 C   0  0  0  0  0  0  0  0  0  0  0  0
   -0.9930   19.1520   -0.7540 C   0  0  2  0  0  0  0  0  0  0  0  0
   -0.0300   20.1950   -0.9380 O   0  0  0  0  0  0  0  0  0  0  0  0
   -0.4180   18.0730    0.2060 C   0  0  0  0  0  0  0  0  0  0  0  0
   -1.5490   17.1100    0.6440 C   0  0  0  0  0  0  0  0  0  0  0  0
    0.0650   18.7910    1.4960 C   0  0  0  0  0  0  0  0  0  0  0  0
    1.4990   15.9020   -2.6320 C   0  0  1  0  0  0  0  0  0  0  0  0
    2.4450   16.8810   -3.3940 C   0  0  0  0  0  0  0  0  0  0  0  0
    0.8560   14.9670   -3.7240 C   0  0  0  0  0  0  0  0  0  0  0  0
    0.4020   13.5690   -3.2600 C   0  0  0  0  0  0  0  0  0  0  0  0
    1.5090   12.8690   -2.4660 C   0  0  2  0  0  0  0  0  0  0  0  0
    2.7310   12.6660   -3.4240 C   0  0  0  0  0  0  0  0  0  0  0  0
   -0.9109   10.7186   -3.4030 H   0  0  0  0  0  0  0  0  0  0  0  0
    0.3614   11.3684   -4.4918 H   0  0  0  0  0  0  0  0  0  0  0  0
   -0.0089    9.6107   -4.4918 H   0  0  0  0  0  0  0  0  0  0  0  0
    2.0889   10.1731   -3.2684 H   0  0  0  0  0  0  0  0  0  0  0  0
    0.1233    8.3912   -2.5171 H   0  0  0  0  0  0  0  0  0  0  0  0
    1.8154    8.5017   -1.8332 H   0  0  0  0  0  0  0  0  0  0  0  0
    0.9017    8.7286    0.1737 H   0  0  0  0  0  0  0  0  0  0  0  0
    0.3134   10.3523   -0.3789 H   0  0  0  0  0  0  0  0  0  0  0  0
   -0.8616    8.1079    0.3655 H   0  0  0  0  0  0  0  0  0  0  0  0
   -2.0893   11.7542   -0.0283 H   0  0  0  0  0  0  0  0  0  0  0  0
   -1.2375   11.3085   -1.5456 H   0  0  0  0  0  0  0  0  0  0  0  0
   -3.0215   11.5188   -1.5456 H   0  0  0  0  0  0  0  0  0  0  0  0
   -3.5541    9.3514    1.0775 H   0  0  0  0  0  0  0  0  0  0  0  0
   -4.4208   10.0275   -0.3432 H   0  0  0  0  0  0  0  0  0  0  0  0
   -3.9006    8.3082   -0.3432 H   0  0  0  0  0  0  0  0  0  0  0  0
    0.1079   11.4997   -1.4968 H   0  0  0  0  0  0  0  0  0  0  0  0
    1.7406   10.9489    0.1966 H   0  0  0  0  0  0  0  0  0  0  0  0
    3.0070   10.6475   -1.0125 H   0  0  0  0  0  0  0  0  0  0  0  0
    2.8002   12.9768    0.6317 H   0  0  0  0  0  0  0  0  0  0  0  0
    3.8206   12.8666   -0.7998 H   0  0  0  0  0  0  0  0  0  0  0  0
    0.9617   13.8383    0.8317 H   0  0  0  0  0  0  0  0  0  0  0  0
    0.1264   14.8619   -0.3853 H   0  0  0  0  0  0  0  0  0  0  0  0
   -0.1223   13.0829   -0.3853 H   0  0  0  0  0  0  0  0  0  0  0  0
    3.3159   14.8092   -2.1553 H   0  0  0  0  0  0  0  0  0  0  0  0
    3.2189   15.3477    0.3633 H   0  0  0  0  0  0  0  0  0  0  0  0
    3.6721   16.6371   -0.8700 H   0  0  0  0  0  0  0  0  0  0  0  0
    2.0555   17.3944    1.0679 H   0  0  0  0  0  0  0  0  0  0  0  0
   -0.4333   15.9562   -1.7655 H   0  0  0  0  0  0  0  0  0  0  0  0
    0.6059   18.6107   -2.9366 H   0  0  0  0  0  0  0  0  0  0  0  0
   -0.5543   17.4503   -3.7225 H   0  0  0  0  0  0  0  0  0  0  0  0
   -1.7047   19.4218   -2.7690 H   0  0  0  0  0  0  0  0  0  0  0  0
   -2.1975   17.8695   -1.9855 H   0  0  0  0  0  0  0  0  0  0  0  0
   -1.9091   19.5366   -0.2818 H   0  0  0  0  0  0  0  0  0  0  0  0
    0.7440   19.9800   -0.3900 H   0  0  0  0  0  0  0  0  0  0  0  0
   -1.5934   17.0722    1.7424 H   0  0  0  0  0  0  0  0  0  0  0  0
   -2.5107   17.4708    0.2503 H   0  0  0  0  0  0  0  0  0  0  0  0
   -1.3462   16.1031    0.2503 H   0  0  0  0  0  0  0  0  0  0  0  0
   -0.3017   18.2459    2.3782 H   0  0  0  0  0  0  0  0  0  0  0  0
    1.1646   18.8165    1.5116 H   0  0  0  0  0  0  0  0  0  0  0  0
   -0.3258   19.8191    1.5116 H   0  0  0  0  0  0  0  0  0  0  0  0
    3.0193   17.4753   -2.6681 H   0  0  0  0  0  0  0  0  0  0  0  0
    3.1372   16.3049   -4.0256 H   0  0  0  0  0  0  0  0  0  0  0  0
    1.8455   17.5531   -4.0256 H   0  0  0  0  0  0  0  0  0  0  0  0
   -0.0251   15.4857   -4.1296 H   0  0  0  0  0  0  0  0  0  0  0  0
    1.6579   14.7823   -4.4540 H   0  0  0  0  0  0  0  0  0  0  0  0
   -0.4879   13.6730   -2.6219 H   0  0  0  0  0  0  0  0  0  0  0  0
    0.1701   12.9627   -4.1480 H   0  0  0  0  0  0  0  0  0  0  0  0
    3.6430   12.5145   -2.8279 H   0  0  0  0  0  0  0  0  0  0  0  0
    2.5570   11.7845   -4.0585 H   0  0  0  0  0  0  0  0  0  0  0  0
    2.8514   13.5565   -4.0585 H   0  0  0  0  0  0  0  0  0  0  0  0
  1  2  1  0
  2  3  1  0
  3  4  1  0
  4  5  1  0
  5  6  1  0
  6  7  1  0
  7  8  1  0
  7  9  1  0
  2 10  1  0
 10 11  1  0
 11 12  1  0
 12 13  1  0
 13 14  1  1
 13 15  1  0
 15 16  1  0
 16 17  1  0
 17 18  2  0
 18 19  1  0
 19 20  1  0
 20 21  1  0
 21 22  1  0
 22 23  1  0
 22 24  1  0
 24 25  1  0
 24 26  1  0
 19 27  1  0
 27 28  1  6
 27 29  1  0
 29 30  1  0
 30 31  1  0
 31 32  1  6
  7  5  1  0
 31 10  1  0
 31 13  1  0
 27 15  1  0
 24 18  1  0
  1 33  1  0
  1 34  1  0
  1 35  1  0
  2 36  1  6
  3 37  1  0
  3 38  1  0
  4 39  1  0
  4 40  1  0
  5 41  1  1
  8 42  1  0
  8 43  1  0
  8 44  1  0
  9 45  1  0
  9 46  1  0
  9 47  1  0
 10 48  1  1
 11 49  1  0
 11 50  1  0
 12 51  1  0
 12 52  1  0
 14 53  1  0
 14 54  1  0
 14 55  1  0
 15 56  1  6
 16 57  1  0
 16 58  1  0
 17 59  1  0
 19 60  1  1
 20 61  1  0
 20 62  1  0
 21 63  1  0
 21 64  1  0
 22 65  1  1
 23 66  1  0
 25 67  1  0
 25 68  1  0
 25 69  1  0
 26 70  1  0
 26 71  1  0
 26 72  1  0
 28 73  1  0
 28 74  1  0
 28 75  1  0
 29 76  1  0
 29 77  1  0
 30 78  1  0
 30 79  1  0
 32 80  1  0
 32 81  1  0
 32 82  1  0
M  END
>  <meeko>  (17) 
{"is_sidechain": [false], "intermolecular_energy": 2.731, "internal_energy": -0.839}

$$$$
EPH_relaxed_0001_pdb2pqr_Repair_55_r2_0001_out
     RDKit          3D

 82 86  0  0  0  0  0  0  0  0999 V2000
    0.0740   14.8810   -4.1270 C   0  0  0  0  0  0  0  0  0  0  0  0
    1.2400   13.9100   -4.3340 C   0  0  2  0  0  0  0  0  0  0  0  0
    1.9130   14.0960   -5.7080 C   0  0  0  0  0  0  0  0  0  0  0  0
    1.1160   14.9820   -6.6690 C   0  0  0  0  0  0  0  0  0  0  0  0
    1.7680   15.0660   -8.0160 C   0  0  2  0  0  0  0  0  0  0  0  0
    2.2210   16.3760   -8.3820 O   0  0  0  0  0  0  0  0  0  0  0  0
    1.1710   15.8190   -9.1900 C   0  0  0  0  0  0  0  0  0  0  0  0
   -0.1350   16.5400   -9.0710 C   0  0  0  0  0  0  0  0  0  0  0  0
    1.6060   15.4490  -10.5730 C   0  0  0  0  0  0  0  0  0  0  0  0
    0.7540   12.4740   -4.1810 C   0  0  1  0  0  0  0  0  0  0  0  0
    1.8600   11.4320   -4.4970 C   0  0  0  0  0  0  0  0  0  0  0  0
    1.6320   10.2340   -3.5400 C   0  0  0  0  0  0  0  0  0  0  0  0
    0.2240   10.4720   -2.9440 C   0  0  1  0  0  0  0  0  0  0  0  0
   -0.7660    9.9530   -4.0340 C   0  0  0  0  0  0  0  0  0  0  0  0
   -0.0560    9.8200   -1.5520 C   0  0  2  0  0  0  0  0  0  0  0  0
    0.0110    8.2830   -1.5260 C   0  0  0  0  0  0  0  0  0  0  0  0
   -1.2800    7.5840   -1.7990 C   0  0  0  0  0  0  0  0  0  0  0  0
   -2.4990    8.1540   -1.7740 C   0  0  0  0  0  0  0  0  0  0  0  0
   -2.6750    9.6180   -1.3500 C   0  0  1  0  0  0  0  0  0  0  0  0
   -3.8510    9.7280   -0.3450 C   0  0  0  0  0  0  0  0  0  0  0  0
   -5.1410    9.1180   -0.8850 C   0  0  0  0  0  0  0  0  0  0  0  0
   -4.9410    7.6470   -1.2400 C   0  0  2  0  0  0  0  0  0  0  0  0
   -4.7000    6.9110   -0.0370 O   0  0  0  0  0  0  0  0  0  0  0  0
   -3.7750    7.4110   -2.2400 C   0  0  0  0  0  0  0  0  0  0  0  0
   -4.1690    7.9520   -3.6370 C   0  0  0  0  0  0  0  0  0  0  0  0
   -3.5890    5.8780   -2.4040 C   0  0  0  0  0  0  0  0  0  0  0  0
   -1.3630   10.3540   -0.8370 C   0  0  1  0  0  0  0  0  0  0  0  0
   -1.1720   10.0990    0.6890 C   0  0  0  0  0  0  0  0  0  0  0  0
   -1.5460   11.9090   -1.0080 C   0  0  0  0  0  0  0  0  0  0  0  0
   -1.1390   12.5110   -2.3660 C   0  0  0  0  0  0  0  0  0  0  0  0
    0.2570   12.0360   -2.7810 C   0  0  2  0  0  0  0  0  0  0  0  0
    1.2780   12.5620   -1.7150 C   0  0  0  0  0  0  0  0  0  0  0  0
   -0.0975   15.0238   -3.0499 H   0  0  0  0  0  0  0  0  0  0  0  0
    0.3157   15.8485   -4.5912 H   0  0  0  0  0  0  0  0  0  0  0  0
   -0.8338   14.4682   -4.5912 H   0  0  0  0  0  0  0  0  0  0  0  0
    1.9949   14.1301   -3.5648 H   0  0  0  0  0  0  0  0  0  0  0  0
    2.9008   14.5541   -5.5517 H   0  0  0  0  0  0  0  0  0  0  0  0
    1.9805   13.1001   -6.1702 H   0  0  0  0  0  0  0  0  0  0  0  0
    0.1065   14.5614   -6.7873 H   0  0  0  0  0  0  0  0  0  0  0  0
    1.0736   15.9961   -6.2449 H   0  0  0  0  0  0  0  0  0  0  0  0
    2.1558   14.0414   -7.9173 H   0  0  0  0  0  0  0  0  0  0  0  0
   -0.3828   16.6768   -8.0080 H   0  0  0  0  0  0  0  0  0  0  0  0
   -0.0570   17.5229   -9.5587 H   0  0  0  0  0  0  0  0  0  0  0  0
   -0.9252   15.9503   -9.5587 H   0  0  0  0  0  0  0  0  0  0  0  0
    2.4428   14.7373  -10.5161 H   0  0  0  0  0  0  0  0  0  0  0  0
    0.7656   14.9847  -11.1098 H   0  0  0  0  0  0  0  0  0  0  0  0
    1.9294   16.3530  -11.1098 H   0  0  0  0  0  0  0  0  0  0  0  0
   -0.0865   12.4879   -4.8905 H   0  0  0  0  0  0  0  0  0  0  0  0
    1.7813   11.1014   -5.5432 H   0  0  0  0  0  0  0  0  0  0  0  0
    2.8617   11.8644   -4.3570 H   0  0  0  0  0  0  0  0  0  0  0  0
    1.6638    9.2837   -4.0932 H   0  0  0  0  0  0  0  0  0  0  0  0
    2.4078   10.1677   -2.7630 H   0  0  0  0  0  0  0  0  0  0  0  0
   -1.6398    9.4949   -3.5475 H   0  0  0  0  0  0  0  0  0  0  0  0
   -1.0949   10.7947   -4.6612 H   0  0  0  0  0  0  0  0  0  0  0  0
   -0.2609    9.2037   -4.6612 H   0  0  0  0  0  0  0  0  0  0  0  0
    0.7993   10.1663   -0.9532 H   0  0  0  0  0  0  0  0  0  0  0  0
    0.7389    7.9615   -2.2855 H   0  0  0  0  0  0  0  0  0  0  0  0
    0.2951    8.0079   -0.4995 H   0  0  0  0  0  0  0  0  0  0  0  0
   -1.2305    6.5121   -2.0411 H   0  0  0  0  0  0  0  0  0  0  0  0
   -2.9155   10.1737   -2.2684 H   0  0  0  0  0  0  0  0  0  0  0  0
   -3.5736    9.2034    0.5812 H   0  0  0  0  0  0  0  0  0  0  0  0
   -4.0371   10.7970   -0.1645 H   0  0  0  0  0  0  0  0  0  0  0  0
   -5.9264    9.2001   -0.1192 H   0  0  0  0  0  0  0  0  0  0  0  0
   -5.4333    9.6626   -1.7950 H   0  0  0  0  0  0  0  0  0  0  0  0
   -5.8575    7.3009   -1.7403 H   0  0  0  0  0  0  0  0  0  0  0  0
   -3.8810    6.4020   -0.1630 H   0  0  0  0  0  0  0  0  0  0  0  0
   -4.8129    8.8361   -3.5196 H   0  0  0  0  0  0  0  0  0  0  0  0
   -3.2609    8.2308   -4.1917 H   0  0  0  0  0  0  0  0  0  0  0  0
   -4.7130    7.1733   -4.1917 H   0  0  0  0  0  0  0  0  0  0  0  0
   -3.5319    5.4073   -1.4114 H   0  0  0  0  0  0  0  0  0  0  0  0
   -4.4433    5.4622   -2.9584 H   0  0  0  0  0  0  0  0  0  0  0  0
   -2.6601    5.6786   -2.9584 H   0  0  0  0  0  0  0  0  0  0  0  0
   -1.7357   10.8516    1.2599 H   0  0  0  0  0  0  0  0  0  0  0  0
   -1.5416    9.0943    0.9420 H   0  0  0  0  0  0  0  0  0  0  0  0
   -0.1039   10.1712    0.9420 H   0  0  0  0  0  0  0  0  0  0  0  0
   -2.6098   12.1385   -0.8477 H   0  0  0  0  0  0  0  0  0  0  0  0
   -0.8613   12.3616   -0.2757 H   0  0  0  0  0  0  0  0  0  0  0  0
   -1.8667   12.1998   -3.1300 H   0  0  0  0  0  0  0  0  0  0  0  0
   -1.1229   13.6069   -2.2727 H   0  0  0  0  0  0  0  0  0  0  0  0
    0.8897   12.3620   -0.7054 H   0  0  0  0  0  0  0  0  0  0  0  0
    2.2418   12.0482   -1.8456 H   0  0  0  0  0  0  0  0  0  0  0  0
    1.4192   13.6451   -1.8456 H   0  0  0  0  0  0  0  0  0  0  0  0
  1  2  1  0
  2  3  1  0
  3  4  1  0
  4  5  1  0
  5  6  1  0
  6  7  1  0
  7  8  1  0
  7  9  1  0
  2 10  1  0
 10 11  1  0
 11 12  1  0
 12 13  1  0
 13 14  1  6
 13 15  1  0
 15 16  1  0
 16 17  1  0
 17 18  2  0
 18 19  1  0
 19 20  1  0
 20 21  1  0
 21 22  1  0
 22 23  1  0
 22 24  1  0
 24 25  1  0
 24 26  1  0
 19 27  1  0
 27 28  1  1
 27 29  1  0
 29 30  1  0
 30 31  1  0
 31 32  1  1
  7  5  1  0
 31 10  1  0
 31 13  1  0
 27 15  1  0
 24 18  1  0
  1 33  1  0
  1 34  1  0
  1 35  1  0
  2 36  1  1
  3 37  1  0
  3 38  1  0
  4 39  1  0
  4 40  1  0
  5 41  1  6
  8 42  1  0
  8 43  1  0
  8 44  1  0
  9 45  1  0
  9 46  1  0
  9 47  1  0
 10 48  1  6
 11 49  1  0
 11 50  1  0
 12 51  1  0
 12 52  1  0
 14 53  1  0
 14 54  1  0
 14 55  1  0
 15 56  1  1
 16 57  1  0
 16 58  1  0
 17 59  1  0
 19 60  1  6
 20 61  1  0
 20 62  1  0
 21 63  1  0
 21 64  1  0
 22 65  1  6
 23 66  1  0
 25 67  1  0
 25 68  1  0
 25 69  1  0
 26 70  1  0
 26 71  1  0
 26 72  1  0
 28 73  1  0
 28 74  1  0
 28 75  1  0
 29 76  1  0
 29 77  1  0
 30 78  1  0
 30 79  1  0
 32 80  1  0
 32 81  1  0
 32 82  1  0
M  END
>  <meeko>  (18) 
{"is_sidechain": [false], "intermolecular_energy": 2.731, "internal_energy": -0.839}

$$$$
EPH_relaxed_0001_pdb2pqr_Repair_55_r2_0001_out
     RDKit          3D

 82 86  0  0  0  0  0  0  0  0999 V2000
   -2.4170    7.8060   -0.0560 C   0  0  0  0  0  0  0  0  0  0  0  0
   -3.0350    9.2070   -0.0470 C   0  0  2  0  0  0  0  0  0  0  0  0
   -4.5280    9.1850   -0.4290 C   0  0  0  0  0  0  0  0  0  0  0  0
   -5.1470    7.7850   -0.4150 C   0  0  0  0  0  0  0  0  0  0  0  0
   -5.7730    7.4420   -1.7320 C   0  0  2  0  0  0  0  0  0  0  0  0
   -6.7430    8.3890   -2.1990 O   0  0  0  0  0  0  0  0  0  0  0  0
   -7.2370    7.0750   -1.8930 C   0  0  0  0  0  0  0  0  0  0  0  0
   -8.1640    7.0320   -0.7180 C   0  0  0  0  0  0  0  0  0  0  0  0
   -7.6500    6.2910   -3.0990 C   0  0  0  0  0  0  0  0  0  0  0  0
   -2.2670   10.1190   -0.9960 C   0  0  1  0  0  0  0  0  0  0  0  0
   -2.9000   11.5320   -1.1090 C   0  0  0  0  0  0  0  0  0  0  0  0
   -1.7300   12.5330   -1.2840 C   0  0  0  0  0  0  0  0  0  0  0  0
   -0.5010   11.6470   -1.5970 C   0  0  1  0  0  0  0  0  0  0  0  0
   -0.6180   11.3250   -3.1200 C   0  0  0  0  0  0  0  0  0  0  0  0
    0.8960   12.2520   -1.2410 C   0  0  2  0  0  0  0  0  0  0  0  0
    1.2650   13.5360   -2.0040 C   0  0  0  0  0  0  0  0  0  0  0  0
    1.9960   13.3270   -3.2890 C   0  0  0  0  0  0  0  0  0  0  0  0
    2.5920   12.1830   -3.6720 C   0  0  0  0  0  0  0  0  0  0  0  0
    2.6510   10.9720   -2.7320 C   0  0  1  0  0  0  0  0  0  0  0  0
    4.0890   10.3890   -2.7270 C   0  0  0  0  0  0  0  0  0  0  0  0
    4.5930   10.0640   -4.1300 C   0  0  0  0  0  0  0  0  0  0  0  0
    4.5740   11.3060   -5.0170 C   0  0  2  0  0  0  0  0  0  0  0  0
    5.5390   12.2400   -4.5230 O   0  0  0  0  0  0  0  0  0  0  0  0
    3.1780   11.9850   -5.0920 C   0  0  0  0  0  0  0  0  0  0  0  0
    2.2060   11.0900   -5.8990 C   0  0  0  0  0  0  0  0  0  0  0  0
    3.3300   13.3010   -5.9020 C   0  0  0  0  0  0  0  0  0  0  0  0
    2.0810   11.2040   -1.2660 C   0  0  1  0  0  0  0  0  0  0  0  0
    3.2010   11.7760   -0.3450 C   0  0  0  0  0  0  0  0  0  0  0  0
    1.6650    9.8150   -0.6510 C   0  0  0  0  0  0  0  0  0  0  0  0
    0.2330    9.3290   -0.9400 C   0  0  0  0  0  0  0  0  0  0  0  0
   -0.7900   10.4300   -0.6460 C   0  0  2  0  0  0  0  0  0  0  0  0
   -0.7120   10.7600    0.8840 C   0  0  0  0  0  0  0  0  0  0  0  0
   -2.2666    7.4650    0.9789 H   0  0  0  0  0  0  0  0  0  0  0  0
   -3.0920    7.1108   -0.5767 H   0  0  0  0  0  0  0  0  0  0  0  0
   -1.4485    7.8358   -0.5767 H   0  0  0  0  0  0  0  0  0  0  0  0
   -2.9634    9.5945    0.9800 H   0  0  0  0  0  0  0  0  0  0  0  0
   -5.0784    9.8150    0.2852 H   0  0  0  0  0  0  0  0  0  0  0  0
   -4.6009    9.5580   -1.4613 H   0  0  0  0  0  0  0  0  0  0  0  0
   -4.3599    7.0496   -0.1923 H   0  0  0  0  0  0  0  0  0  0  0  0
   -5.9337    7.7659    0.3536 H   0  0  0  0  0  0  0  0  0  0  0  0
   -4.8480    6.9522   -2.0703 H   0  0  0  0  0  0  0  0  0  0  0  0
   -7.5780    7.0592    0.2125 H   0  0  0  0  0  0  0  0  0  0  0  0
   -8.8391    7.8998   -0.7516 H   0  0  0  0  0  0  0  0  0  0  0  0
   -8.7559    6.1054   -0.7516 H   0  0  0  0  0  0  0  0  0  0  0  0
   -8.1407    5.3595   -2.7804 H   0  0  0  0  0  0  0  0  0  0  0  0
   -8.3511    6.8872   -3.7015 H   0  0  0  0  0  0  0  0  0  0  0  0
   -6.7618    6.0500   -3.7015 H   0  0  0  0  0  0  0  0  0  0  0  0
   -2.3161    9.5134   -1.9130 H   0  0  0  0  0  0  0  0  0  0  0  0
   -3.5713   11.5779   -1.9792 H   0  0  0  0  0  0  0  0  0  0  0  0
   -3.4943   11.7713   -0.2148 H   0  0  0  0  0  0  0  0  0  0  0  0
   -1.9318   13.2246   -2.1153 H   0  0  0  0  0  0  0  0  0  0  0  0
   -1.5777   13.1566   -0.3907 H   0  0  0  0  0  0  0  0  0  0  0  0
   -0.9910   10.2984   -3.2501 H   0  0  0  0  0  0  0  0  0  0  0  0
   -1.3169   12.0316   -3.5915 H   0  0  0  0  0  0  0  0  0  0  0  0
    0.3714   11.4181   -3.5915 H   0  0  0  0  0  0  0  0  0  0  0  0
    0.7609   12.5565   -0.1927 H   0  0  0  0  0  0  0  0  0  0  0  0
    0.3342   14.0782   -2.2268 H   0  0  0  0  0  0  0  0  0  0  0  0
    1.9529   14.0915   -1.3497 H   0  0  0  0  0  0  0  0  0  0  0  0
    2.0521   14.1802   -3.9810 H   0  0  0  0  0  0  0  0  0  0  0  0
    1.9502   10.2318   -3.1455 H   0  0  0  0  0  0  0  0  0  0  0  0
    4.7666   11.1256   -2.2706 H   0  0  0  0  0  0  0  0  0  0  0  0
    4.0669    9.4502   -2.1542 H   0  0  0  0  0  0  0  0  0  0  0  0
    5.6234    9.6846   -4.0636 H   0  0  0  0  0  0  0  0  0  0  0  0
    3.9319    9.3051   -4.5738 H   0  0  0  0  0  0  0  0  0  0  0  0
    4.8202   10.9847   -6.0398 H   0  0  0  0  0  0  0  0  0  0  0  0
    5.9400   11.8550   -3.7260 H   0  0  0  0  0  0  0  0  0  0  0  0
    1.5781   10.5119   -5.2051 H   0  0  0  0  0  0  0  0  0  0  0  0
    1.5663   11.7218   -6.5327 H   0  0  0  0  0  0  0  0  0  0  0  0
    2.7830   10.4004   -6.5327 H   0  0  0  0  0  0  0  0  0  0  0  0
    3.4280   14.1492   -5.2085 H   0  0  0  0  0  0  0  0  0  0  0  0
    4.2271   13.2400   -6.5357 H   0  0  0  0  0  0  0  0  0  0  0  0
    2.4426   13.4461   -6.5357 H   0  0  0  0  0  0  0  0  0  0  0  0
    2.9187   11.6318    0.7084 H   0  0  0  0  0  0  0  0  0  0  0  0
    4.1458   11.2500   -0.5467 H   0  0  0  0  0  0  0  0  0  0  0  0
    3.3288   12.8498   -0.5467 H   0  0  0  0  0  0  0  0  0  0  0  0
    2.3591    9.0566   -1.0421 H   0  0  0  0  0  0  0  0  0  0  0  0
    1.7058    9.9588    0.4388 H   0  0  0  0  0  0  0  0  0  0  0  0
    0.1576    9.0414   -1.9991 H   0  0  0  0  0  0  0  0  0  0  0  0
    0.0174    8.4678   -0.2905 H   0  0  0  0  0  0  0  0  0  0  0  0
   -0.9267    9.8518    1.4664 H   0  0  0  0  0  0  0  0  0  0  0  0
    0.2968   11.1233    1.1298 H   0  0  0  0  0  0  0  0  0  0  0  0
   -1.4514   11.5365    1.1298 H   0  0  0  0  0  0  0  0  0  0  0  0
  1  2  1  0
  2  3  1  0
  3  4  1  0
  4  5  1  0
  5  6  1  0
  6  7  1  0
  7  8  1  0
  7  9  1  0
  2 10  1  0
 10 11  1  0
 11 12  1  0
 12 13  1  0
 13 14  1  6
 13 15  1  0
 15 16  1  0
 16 17  1  0
 17 18  2  0
 18 19  1  0
 19 20  1  0
 20 21  1  0
 21 22  1  0
 22 23  1  0
 22 24  1  0
 24 25  1  0
 24 26  1  0
 19 27  1  0
 27 28  1  1
 27 29  1  0
 29 30  1  0
 30 31  1  0
 31 32  1  1
  7  5  1  0
 31 10  1  0
 31 13  1  0
 27 15  1  0
 24 18  1  0
  1 33  1  0
  1 34  1  0
  1 35  1  0
  2 36  1  1
  3 37  1  0
  3 38  1  0
  4 39  1  0
  4 40  1  0
  5 41  1  6
  8 42  1  0
  8 43  1  0
  8 44  1  0
  9 45  1  0
  9 46  1  0
  9 47  1  0
 10 48  1  6
 11 49  1  0
 11 50  1  0
 12 51  1  0
 12 52  1  0
 14 53  1  0
 14 54  1  0
 14 55  1  0
 15 56  1  1
 16 57  1  0
 16 58  1  0
 17 59  1  0
 19 60  1  6
 20 61  1  0
 20 62  1  0
 21 63  1  0
 21 64  1  0
 22 65  1  6
 23 66  1  0
 25 67  1  0
 25 68  1  0
 25 69  1  0
 26 70  1  0
 26 71  1  0
 26 72  1  0
 28 73  1  0
 28 74  1  0
 28 75  1  0
 29 76  1  0
 29 77  1  0
 30 78  1  0
 30 79  1  0
 32 80  1  0
 32 81  1  0
 32 82  1  0
M  END
>  <meeko>  (19) 
{"is_sidechain": [false], "intermolecular_energy": 2.731, "internal_energy": -0.839}

$$$$
