EPH_relaxed_0001_pdb2pqr_Repair_232_r2_0001_out
     RDKit          3D

 82 86  0  0  0  0  0  0  0  0999 V2000
   -1.7000    8.5830   -1.8630 C   0  0  0  0  0  0  0  0  0  0  0  0
   -2.0840    9.1140   -0.4790 C   0  0  2  0  0  0  0  0  0  0  0  0
   -3.5770    9.4890   -0.3950 C   0  0  0  0  0  0  0  0  0  0  0  0
   -4.5080    8.2830   -0.2440 C   0  0  0  0  0  0  0  0  0  0  0  0
   -5.1990    7.9520   -1.5320 C   0  0  2  0  0  0  0  0  0  0  0  0
   -6.3570    8.7500   -1.8120 O   0  0  0  0  0  0  0  0  0  0  0  0
   -6.5890    7.3470   -1.6040 C   0  0  0  0  0  0  0  0  0  0  0  0
   -7.3700    7.0370   -0.3660 C   0  0  0  0  0  0  0  0  0  0  0  0
   -6.9850    6.6110   -2.8450 C   0  0  0  0  0  0  0  0  0  0  0  0
   -1.2230   10.3210   -0.1290 C   0  0  1  0  0  0  0  0  0  0  0  0
   -0.1890   10.0140    0.9870 C   0  0  0  0  0  0  0  0  0  0  0  0
    1.0810   10.8410    0.6600 C   0  0  0  0  0  0  0  0  0  0  0  0
    0.6270   11.8390   -0.4300 C   0  0  1  0  0  0  0  0  0  0  0  0
   -0.0760   12.9930    0.3510 C   0  0  0  0  0  0  0  0  0  0  0  0
    1.7450   12.3820   -1.3790 C   0  0  2  0  0  0  0  0  0  0  0  0
    2.8510   13.1960   -0.6860 C   0  0  0  0  0  0  0  0  0  0  0  0
    2.6020   14.6660   -0.6000 C   0  0  0  0  0  0  0  0  0  0  0  0
    1.6780   15.3450   -1.3040 C   0  0  0  0  0  0  0  0  0  0  0  0
    0.8290   14.6440   -2.3730 C   0  0  1  0  0  0  0  0  0  0  0  0
    0.7990   15.5080   -3.6600 C   0  0  0  0  0  0  0  0  0  0  0  0
    0.3380   16.9380   -3.3950 C   0  0  0  0  0  0  0  0  0  0  0  0
    1.2410   17.6210   -2.3710 C   0  0  2  0  0  0  0  0  0  0  0  0
    2.5410   17.7900   -2.9440 O   0  0  0  0  0  0  0  0  0  0  0  0
    1.3560   16.8360   -1.0350 C   0  0  0  0  0  0  0  0  0  0  0  0
    0.0120   16.9120   -0.2690 C   0  0  0  0  0  0  0  0  0  0  0  0
    2.4040   17.5580   -0.1450 C   0  0  0  0  0  0  0  0  0  0  0  0
    1.1980   13.1260   -2.6650 C   0  0  1  0  0  0  0  0  0  0  0  0
    2.3280   13.0500   -3.7370 C   0  0  0  0  0  0  0  0  0  0  0  0
   -0.0540   12.4030   -3.2880 C   0  0  0  0  0  0  0  0  0  0  0  0
   -1.0610   11.7830   -2.3000 C   0  0  0  0  0  0  0  0  0  0  0  0
   -0.3450   10.9200   -1.2560 C   0  0  2  0  0  0  0  0  0  0  0  0
    0.3540    9.7380   -2.0110 C   0  0  0  0  0  0  0  0  0  0  0  0
   -1.0588    7.6963   -1.7506 H   0  0  0  0  0  0  0  0  0  0  0  0
   -2.6105    8.3093   -2.4163 H   0  0  0  0  0  0  0  0  0  0  0  0
   -1.1549    9.3619   -2.4163 H   0  0  0  0  0  0  0  0  0  0  0  0
   -1.9054    8.3070    0.2469 H   0  0  0  0  0  0  0  0  0  0  0  0
   -3.7207   10.1492    0.4730 H   0  0  0  0  0  0  0  0  0  0  0  0
   -3.8386    9.9796   -1.3441 H   0  0  0  0  0  0  0  0  0  0  0  0
   -3.9157    7.4133    0.0766 H   0  0  0  0  0  0  0  0  0  0  0  0
   -5.2758    8.5337    0.5027 H   0  0  0  0  0  0  0  0  0  0  0  0
   -4.2447    7.6657   -1.9982 H   0  0  0  0  0  0  0  0  0  0  0  0
   -6.7638    7.2776    0.5198 H   0  0  0  0  0  0  0  0  0  0  0  0
   -8.2915    7.6375   -0.3538 H   0  0  0  0  0  0  0  0  0  0  0  0
   -7.6288    5.9680   -0.3538 H   0  0  0  0  0  0  0  0  0  0  0  0
   -7.4896    5.6731   -2.5698 H   0  0  0  0  0  0  0  0  0  0  0  0
   -7.6692    7.2349   -3.4388 H   0  0  0  0  0  0  0  0  0  0  0  0
   -6.0873    6.3838   -3.4388 H   0  0  0  0  0  0  0  0  0  0  0  0
   -2.0120   11.0340    0.1524 H   0  0  0  0  0  0  0  0  0  0  0  0
   -0.5911   10.3090    1.9675 H   0  0  0  0  0  0  0  0  0  0  0  0
    0.0397    8.9388    1.0286 H   0  0  0  0  0  0  0  0  0  0  0  0
    1.4363   11.3763    1.5529 H   0  0  0  0  0  0  0  0  0  0  0  0
    1.9158   10.2081    0.3243 H   0  0  0  0  0  0  0  0  0  0  0  0
    0.0288   12.8209    1.4324 H   0  0  0  0  0  0  0  0  0  0  0  0
    0.3909   13.9530    0.0855 H   0  0  0  0  0  0  0  0  0  0  0  0
   -1.1432   13.0185    0.0855 H   0  0  0  0  0  0  0  0  0  0  0  0
    2.2292   11.4575   -1.7266 H   0  0  0  0  0  0  0  0  0  0  0  0
    2.9663   12.8103    0.3377 H   0  0  0  0  0  0  0  0  0  0  0  0
    3.7516   13.0755   -1.3060 H   0  0  0  0  0  0  0  0  0  0  0  0
    3.2269   15.2425    0.0980 H   0  0  0  0  0  0  0  0  0  0  0  0
   -0.1848   14.5660   -1.9532 H   0  0  0  0  0  0  0  0  0  0  0  0
    1.8118   15.5378   -4.0882 H   0  0  0  0  0  0  0  0  0  0  0  0
    0.0792   15.0486   -4.3534 H   0  0  0  0  0  0  0  0  0  0  0  0
    0.3673   17.5061   -4.3365 H   0  0  0  0  0  0  0  0  0  0  0  0
   -0.6865   16.9085   -2.9955 H   0  0  0  0  0  0  0  0  0  0  0  0
    0.7860   18.5918   -2.1250 H   0  0  0  0  0  0  0  0  0  0  0  0
    2.9700   16.9170   -2.9630 H   0  0  0  0  0  0  0  0  0  0  0  0
    0.2059   16.9010    0.8137 H   0  0  0  0  0  0  0  0  0  0  0  0
   -0.5115   17.8412   -0.5383 H   0  0  0  0  0  0  0  0  0  0  0  0
   -0.6129   16.0478   -0.5383 H   0  0  0  0  0  0  0  0  0  0  0  0
    2.1620   17.3913    0.9150 H   0  0  0  0  0  0  0  0  0  0  0  0
    3.4057   17.1575   -0.3598 H   0  0  0  0  0  0  0  0  0  0  0  0
    2.3866   18.6367   -0.3598 H   0  0  0  0  0  0  0  0  0  0  0  0
    3.3050   12.9843   -3.2359 H   0  0  0  0  0  0  0  0  0  0  0  0
    2.1778   12.1599   -4.3657 H   0  0  0  0  0  0  0  0  0  0  0  0
    2.2983   13.9522   -4.3657 H   0  0  0  0  0  0  0  0  0  0  0  0
   -0.5964   13.1418   -3.8963 H   0  0  0  0  0  0  0  0  0  0  0  0
    0.3560   11.5527   -3.8527 H   0  0  0  0  0  0  0  0  0  0  0  0
   -1.6056   12.5898   -1.7876 H   0  0  0  0  0  0  0  0  0  0  0  0
   -1.7579   11.1454   -2.8636 H   0  0  0  0  0  0  0  0  0  0  0  0
    0.7719    9.0314   -1.2789 H   0  0  0  0  0  0  0  0  0  0  0  0
   -0.3827    9.2193   -2.6421 H   0  0  0  0  0  0  0  0  0  0  0  0
    1.1635   10.1337   -2.6421 H   0  0  0  0  0  0  0  0  0  0  0  0
  1  2  1  0
  2  3  1  0
  3  4  1  0
  4  5  1  0
  5  6  1  0
  6  7  1  0
  7  8  1  0
  7  9  1  0
  2 10  1  0
 10 11  1  0
 11 12  1  0
 12 13  1  0
 13 14  1  1
 13 15  1  0
 15 16  1  0
 16 17  1  0
 17 18  2  0
 18 19  1  0
 19 20  1  0
 20 21  1  0
 21 22  1  0
 22 23  1  0
 22 24  1  0
 24 25  1  0
 24 26  1  0
 19 27  1  0
 27 28  1  6
 27 29  1  0
 29 30  1  0
 30 31  1  0
 31 32  1  6
  7  5  1  0
 31 10  1  0
 31 13  1  0
 27 15  1  0
 24 18  1  0
  1 33  1  0
  1 34  1  0
  1 35  1  0
  2 36  1  1
  3 37  1  0
  3 38  1  0
  4 39  1  0
  4 40  1  0
  5 41  1  6
  8 42  1  0
  8 43  1  0
  8 44  1  0
  9 45  1  0
  9 46  1  0
  9 47  1  0
 10 48  1  1
 11 49  1  0
 11 50  1  0
 12 51  1  0
 12 52  1  0
 14 53  1  0
 14 54  1  0
 14 55  1  0
 15 56  1  6
 16 57  1  0
 16 58  1  0
 17 59  1  0
 19 60  1  1
 20 61  1  0
 20 62  1  0
 21 63  1  0
 21 64  1  0
 22 65  1  1
 23 66  1  0
 25 67  1  0
 25 68  1  0
 25 69  1  0
 26 70  1  0
 26 71  1  0
 26 72  1  0
 28 73  1  0
 28 74  1  0
 28 75  1  0
 29 76  1  0
 29 77  1  0
 30 78  1  0
 30 79  1  0
 32 80  1  0
 32 81  1  0
 32 82  1  0
M  END
>  <meeko>  (1) 
{"is_sidechain": [false], "intermolecular_energy": 2.731, "internal_energy": -0.839}

$$$$
EPH_relaxed_0001_pdb2pqr_Repair_232_r2_0001_out
     RDKit          3D

 82 86  0  0  0  0  0  0  0  0999 V2000
    4.1900   17.5750   -0.6150 C   0  0  0  0  0  0  0  0  0  0  0  0
    2.8300   18.1380   -0.1920 C   0  0  2  0  0  0  0  0  0  0  0  0
    2.8880   18.8200    1.1890 C   0  0  0  0  0  0  0  0  0  0  0  0
    4.2470   18.6920    1.8820 C   0  0  0  0  0  0  0  0  0  0  0  0
    4.2120   19.2420    3.2760 C   0  0  2  0  0  0  0  0  0  0  0  0
    5.2430   20.1940    3.5700 O   0  0  0  0  0  0  0  0  0  0  0  0
    5.2860   18.9650    4.3120 C   0  0  0  0  0  0  0  0  0  0  0  0
    6.4700   18.1050    3.9980 C   0  0  0  0  0  0  0  0  0  0  0  0
    4.9400   19.1220    5.7600 C   0  0  0  0  0  0  0  0  0  0  0  0
    1.7880   17.0250   -0.1800 C   0  0  1  0  0  0  0  0  0  0  0  0
    0.3600   17.5400   -0.5000 C   0  0  0  0  0  0  0  0  0  0  0  0
   -0.3510   16.4200   -1.3010 C   0  0  0  0  0  0  0  0  0  0  0  0
    0.5590   15.1810   -1.1310 C   0  0  1  0  0  0  0  0  0  0  0  0
    0.1820   14.5950    0.2660 C   0  0  0  0  0  0  0  0  0  0  0  0
    0.4690   14.0970   -2.2550 C   0  0  2  0  0  0  0  0  0  0  0  0
   -0.9060   13.4250   -2.4040 C   0  0  0  0  0  0  0  0  0  0  0  0
   -1.1060   12.1910   -1.5880 C   0  0  0  0  0  0  0  0  0  0  0  0
   -0.1300   11.4840   -0.9880 C   0  0  0  0  0  0  0  0  0  0  0  0
    1.3460   11.8560   -1.1840 C   0  0  1  0  0  0  0  0  0  0  0  0
    2.1660   10.5750   -1.4900 C   0  0  0  0  0  0  0  0  0  0  0  0
    1.9720    9.4900   -0.4360 C   0  0  0  0  0  0  0  0  0  0  0  0
    0.5000    9.1060   -0.3120 C   0  0  2  0  0  0  0  0  0  0  0  0
    0.0850    8.4720   -1.5250 O   0  0  0  0  0  0  0  0  0  0  0  0
   -0.4260   10.3190   -0.0130 C   0  0  0  0  0  0  0  0  0  0  0  0
   -0.1780   10.8190    1.4320 C   0  0  0  0  0  0  0  0  0  0  0  0
   -1.8950    9.8180   -0.0530 C   0  0  0  0  0  0  0  0  0  0  0  0
    1.6350   13.0270   -2.2180 C   0  0  1  0  0  0  0  0  0  0  0  0
    1.7520   12.4470   -3.6600 C   0  0  0  0  0  0  0  0  0  0  0  0
    3.0310   13.6740   -1.8850 C   0  0  0  0  0  0  0  0  0  0  0  0
    3.0380   14.8210   -0.8550 C   0  0  0  0  0  0  0  0  0  0  0  0
    1.9720   15.8680   -1.1930 C   0  0  2  0  0  0  0  0  0  0  0  0
    2.3380   16.4900   -2.5840 C   0  0  0  0  0  0  0  0  0  0  0  0
    4.7803   17.3306    0.2805 H   0  0  0  0  0  0  0  0  0  0  0  0
    4.0397   16.6651   -1.2146 H   0  0  0  0  0  0  0  0  0  0  0  0
    4.7268   18.3248   -1.2146 H   0  0  0  0  0  0  0  0  0  0  0  0
    2.5463   18.9054   -0.9272 H   0  0  0  0  0  0  0  0  0  0  0  0
    2.6643   19.8890    1.0580 H   0  0  0  0  0  0  0  0  0  0  0  0
    2.1516   18.3124    1.8293 H   0  0  0  0  0  0  0  0  0  0  0  0
    4.5266   17.6290    1.9250 H   0  0  0  0  0  0  0  0  0  0  0  0
    4.9829   19.2698    1.3036 H   0  0  0  0  0  0  0  0  0  0  0  0
    3.1159   19.1554    3.3080 H   0  0  0  0  0  0  0  0  0  0  0  0
    6.9361   17.7664    4.9351 H   0  0  0  0  0  0  0  0  0  0  0  0
    6.1442   17.2316    3.4141 H   0  0  0  0  0  0  0  0  0  0  0  0
    7.1999   18.6849    3.4141 H   0  0  0  0  0  0  0  0  0  0  0  0
    5.7687   18.7460    6.3779 H   0  0  0  0  0  0  0  0  0  0  0  0
    4.7696   20.1856    5.9831 H   0  0  0  0  0  0  0  0  0  0  0  0
    4.0274   18.5498    5.9831 H   0  0  0  0  0  0  0  0  0  0  0  0
    1.9277   16.6530    0.8457 H   0  0  0  0  0  0  0  0  0  0  0  0
   -0.1867   17.7441    0.4324 H   0  0  0  0  0  0  0  0  0  0  0  0
    0.3980   18.4752   -1.0779 H   0  0  0  0  0  0  0  0  0  0  0  0
   -1.3529   16.2252   -0.8907 H   0  0  0  0  0  0  0  0  0  0  0  0
   -0.4951   16.6899   -2.3576 H   0  0  0  0  0  0  0  0  0  0  0  0
    0.5956   15.2379    1.0570 H   0  0  0  0  0  0  0  0  0  0  0  0
   -0.9129   14.5531    0.3627 H   0  0  0  0  0  0  0  0  0  0  0  0
    0.5977   13.5812    0.3627 H   0  0  0  0  0  0  0  0  0  0  0  0
    0.6108   14.6921   -3.1692 H   0  0  0  0  0  0  0  0  0  0  0  0
   -1.6744   14.1550   -2.1097 H   0  0  0  0  0  0  0  0  0  0  0  0
   -0.9771   13.1088   -3.4552 H   0  0  0  0  0  0  0  0  0  0  0  0
   -2.1376   11.8290   -1.4668 H   0  0  0  0  0  0  0  0  0  0  0  0
    1.6784   12.2938   -0.2312 H   0  0  0  0  0  0  0  0  0  0  0  0
    1.8496   10.1788   -2.4662 H   0  0  0  0  0  0  0  0  0  0  0  0
    3.2304   10.8526   -1.4911 H   0  0  0  0  0  0  0  0  0  0  0  0
    2.5528    8.6011   -0.7234 H   0  0  0  0  0  0  0  0  0  0  0  0
    2.3163    9.8777    0.5341 H   0  0  0  0  0  0  0  0  0  0  0  0
    0.4084    8.4222    0.5447 H   0  0  0  0  0  0  0  0  0  0  0  0
   -0.8640    8.6470   -1.6390 H   0  0  0  0  0  0  0  0  0  0  0  0
   -0.5492   10.0707    2.1477 H   0  0  0  0  0  0  0  0  0  0  0  0
    0.9002   10.9716    1.5872 H   0  0  0  0  0  0  0  0  0  0  0  0
   -0.7090   11.7698    1.5872 H   0  0  0  0  0  0  0  0  0  0  0  0
   -2.2672    9.6911    0.9743 H   0  0  0  0  0  0  0  0  0  0  0  0
   -2.5192   10.5541   -0.5808 H   0  0  0  0  0  0  0  0  0  0  0  0
   -1.9394    8.8539   -0.5808 H   0  0  0  0  0  0  0  0  0  0  0  0
    1.9692   11.3700   -3.6055 H   0  0  0  0  0  0  0  0  0  0  0  0
    0.8043   12.6032   -4.1961 H   0  0  0  0  0  0  0  0  0  0  0  0
    2.5651   12.9584   -4.1961 H   0  0  0  0  0  0  0  0  0  0  0  0
    3.6837   12.8768   -1.4997 H   0  0  0  0  0  0  0  0  0  0  0  0
    3.3682   14.1312   -2.8270 H   0  0  0  0  0  0  0  0  0  0  0  0
    2.8334   14.4087    0.1441 H   0  0  0  0  0  0  0  0  0  0  0  0
    4.0251   15.3059   -0.8767 H   0  0  0  0  0  0  0  0  0  0  0  0
    2.8905   17.4289   -2.4318 H   0  0  0  0  0  0  0  0  0  0  0  0
    2.9643   15.7833   -3.1483 H   0  0  0  0  0  0  0  0  0  0  0  0
    1.4161   16.6943   -3.1483 H   0  0  0  0  0  0  0  0  0  0  0  0
  1  2  1  0
  2  3  1  0
  3  4  1  0
  4  5  1  0
  5  6  1  0
  6  7  1  0
  7  8  1  0
  7  9  1  0
  2 10  1  0
 10 11  1  0
 11 12  1  0
 12 13  1  0
 13 14  1  1
 13 15  1  0
 15 16  1  0
 16 17  1  0
 17 18  2  0
 18 19  1  0
 19 20  1  0
 20 21  1  0
 21 22  1  0
 22 23  1  0
 22 24  1  0
 24 25  1  0
 24 26  1  0
 19 27  1  0
 27 28  1  6
 27 29  1  0
 29 30  1  0
 30 31  1  0
 31 32  1  6
  7  5  1  0
 31 10  1  0
 31 13  1  0
 27 15  1  0
 24 18  1  0
  1 33  1  0
  1 34  1  0
  1 35  1  0
  2 36  1  6
  3 37  1  0
  3 38  1  0
  4 39  1  0
  4 40  1  0
  5 41  1  1
  8 42  1  0
  8 43  1  0
  8 44  1  0
  9 45  1  0
  9 46  1  0
  9 47  1  0
 10 48  1  1
 11 49  1  0
 11 50  1  0
 12 51  1  0
 12 52  1  0
 14 53  1  0
 14 54  1  0
 14 55  1  0
 15 56  1  6
 16 57  1  0
 16 58  1  0
 17 59  1  0
 19 60  1  1
 20 61  1  0
 20 62  1  0
 21 63  1  0
 21 64  1  0
 22 65  1  1
 23 66  1  0
 25 67  1  0
 25 68  1  0
 25 69  1  0
 26 70  1  0
 26 71  1  0
 26 72  1  0
 28 73  1  0
 28 74  1  0
 28 75  1  0
 29 76  1  0
 29 77  1  0
 30 78  1  0
 30 79  1  0
 32 80  1  0
 32 81  1  0
 32 82  1  0
M  END
>  <meeko>  (2) 
{"is_sidechain": [false], "intermolecular_energy": 2.731, "internal_energy": -0.839}

$$$$
EPH_relaxed_0001_pdb2pqr_Repair_232_r2_0001_out
     RDKit          3D

 82 86  0  0  0  0  0  0  0  0999 V2000
    2.3830   17.9730   -2.7850 C   0  0  0  0  0  0  0  0  0  0  0  0
    1.1410   17.5600   -1.9900 C   0  0  2  0  0  0  0  0  0  0  0  0
    1.3880   17.5910   -0.4680 C   0  0  0  0  0  0  0  0  0  0  0  0
    1.1760   18.9700    0.1620 C   0  0  0  0  0  0  0  0  0  0  0  0
   -0.2260   19.1410    0.6630 C   0  0  2  0  0  0  0  0  0  0  0  0
   -1.1720   18.2060    0.1260 O   0  0  0  0  0  0  0  0  0  0  0  0
   -1.3800   19.5860   -0.2160 C   0  0  0  0  0  0  0  0  0  0  0  0
   -1.1830   19.8900   -1.6680 C   0  0  0  0  0  0  0  0  0  0  0  0
   -2.5830   20.1940    0.4360 C   0  0  0  0  0  0  0  0  0  0  0  0
    0.6900   16.1680   -2.4160 C   0  0  1  0  0  0  0  0  0  0  0  0
    0.8110   15.9430   -3.9470 C   0  0  0  0  0  0  0  0  0  0  0  0
    1.2050   14.4570   -4.1520 C   0  0  0  0  0  0  0  0  0  0  0  0
    0.9740   13.7990   -2.7710 C   0  0  1  0  0  0  0  0  0  0  0  0
   -0.5600   13.5160   -2.7130 C   0  0  0  0  0  0  0  0  0  0  0  0
    1.8100   12.5130   -2.4710 C   0  0  2  0  0  0  0  0  0  0  0  0
    1.5360   11.3230   -3.4060 C   0  0  0  0  0  0  0  0  0  0  0  0
    0.4620   10.3900   -2.9540 C   0  0  0  0  0  0  0  0  0  0  0  0
   -0.0580   10.3380   -1.7140 C   0  0  0  0  0  0  0  0  0  0  0  0
    0.5060   11.2130   -0.5860 C   0  0  1  0  0  0  0  0  0  0  0  0
    0.7050   10.3520    0.6880 C   0  0  0  0  0  0  0  0  0  0  0  0
   -0.5660    9.6150    1.1010 C   0  0  0  0  0  0  0  0  0  0  0  0
   -1.0630    8.7110   -0.0250 C   0  0  2  0  0  0  0  0  0  0  0  0
   -0.1140    7.6580   -0.2230 O   0  0  0  0  0  0  0  0  0  0  0  0
   -1.2900    9.4680   -1.3630 C   0  0  0  0  0  0  0  0  0  0  0  0
   -2.5210   10.3990   -1.2320 C   0  0  0  0  0  0  0  0  0  0  0  0
   -1.6520    8.4200   -2.4490 C   0  0  0  0  0  0  0  0  0  0  0  0
    1.7940   12.0700   -0.9520 C   0  0  1  0  0  0  0  0  0  0  0  0
    3.0810   11.2190   -0.7220 C   0  0  0  0  0  0  0  0  0  0  0  0
    1.8910   13.2960    0.0310 C   0  0  0  0  0  0  0  0  0  0  0  0
    1.1410   14.5770   -0.3810 C   0  0  0  0  0  0  0  0  0  0  0  0
    1.4610   14.9590   -1.8290 C   0  0  2  0  0  0  0  0  0  0  0  0
    2.9940   15.2720   -1.9130 C   0  0  0  0  0  0  0  0  0  0  0  0
    3.1913   18.2418   -2.0890 H   0  0  0  0  0  0  0  0  0  0  0  0
    2.7083   17.1347   -3.4185 H   0  0  0  0  0  0  0  0  0  0  0  0
    2.1415   18.8392   -3.4185 H   0  0  0  0  0  0  0  0  0  0  0  0
    0.3493   18.2911   -2.2107 H   0  0  0  0  0  0  0  0  0  0  0  0
    0.6975   16.8808    0.0104 H   0  0  0  0  0  0  0  0  0  0  0  0
    2.4429   17.3233   -0.3081 H   0  0  0  0  0  0  0  0  0  0  0  0
    1.8727   19.0876    1.0051 H   0  0  0  0  0  0  0  0  0  0  0  0
    1.3594   19.7316   -0.6102 H   0  0  0  0  0  0  0  0  0  0  0  0
    0.1403   19.4983    1.6367 H   0  0  0  0  0  0  0  0  0  0  0  0
   -0.5875   20.8089   -1.7727 H   0  0  0  0  0  0  0  0  0  0  0  0
   -0.6546   19.0538   -2.1493 H   0  0  0  0  0  0  0  0  0  0  0  0
   -2.1621   20.0307   -2.1493 H   0  0  0  0  0  0  0  0  0  0  0  0
   -2.4745   20.1392    1.5293 H   0  0  0  0  0  0  0  0  0  0  0  0
   -2.6740   21.2463    0.1289 H   0  0  0  0  0  0  0  0  0  0  0  0
   -3.4842   19.6432    0.1289 H   0  0  0  0  0  0  0  0  0  0  0  0
   -0.3394   16.1820   -2.0286 H   0  0  0  0  0  0  0  0  0  0  0  0
   -0.1515   16.1507   -4.4375 H   0  0  0  0  0  0  0  0  0  0  0  0
    1.5630   16.6149   -4.3864 H   0  0  0  0  0  0  0  0  0  0  0  0
    0.5685   13.9883   -4.9170 H   0  0  0  0  0  0  0  0  0  0  0  0
    2.2424   14.3443   -4.5000 H   0  0  0  0  0  0  0  0  0  0  0  0
   -0.8824   13.4565   -1.6630 H   0  0  0  0  0  0  0  0  0  0  0  0
   -1.1022   14.3293   -3.2176 H   0  0  0  0  0  0  0  0  0  0  0  0
   -0.7763   12.5628   -3.2176 H   0  0  0  0  0  0  0  0  0  0  0  0
    2.8353   12.8403   -2.6980 H   0  0  0  0  0  0  0  0  0  0  0  0
    1.2470   11.7229   -4.3891 H   0  0  0  0  0  0  0  0  0  0  0  0
    2.4636   10.7320   -3.4256 H   0  0  0  0  0  0  0  0  0  0  0  0
    0.0617    9.6852   -3.6977 H   0  0  0  0  0  0  0  0  0  0  0  0
   -0.2500   11.9891   -0.3961 H   0  0  0  0  0  0  0  0  0  0  0  0
    1.4945    9.6113    0.4932 H   0  0  0  0  0  0  0  0  0  0  0  0
    0.9796   11.0300    1.5095 H   0  0  0  0  0  0  0  0  0  0  0  0
   -0.3538    9.0009    1.9886 H   0  0  0  0  0  0  0  0  0  0  0  0
   -1.3457   10.3580    1.3248 H   0  0  0  0  0  0  0  0  0  0  0  0
   -2.0418    8.3120    0.2795 H   0  0  0  0  0  0  0  0  0  0  0  0
    0.3840    7.8590   -1.0330 H   0  0  0  0  0  0  0  0  0  0  0  0
   -2.7424   10.5665   -0.1676 H   0  0  0  0  0  0  0  0  0  0  0  0
   -2.3056   11.3622   -1.7177 H   0  0  0  0  0  0  0  0  0  0  0  0
   -3.3891    9.9295   -1.7177 H   0  0  0  0  0  0  0  0  0  0  0  0
   -1.9745    7.4865   -1.9647 H   0  0  0  0  0  0  0  0  0  0  0  0
   -2.4680    8.8086   -3.0760 H   0  0  0  0  0  0  0  0  0  0  0  0
   -0.7701    8.2221   -3.0760 H   0  0  0  0  0  0  0  0  0  0  0  0
    3.2560   11.1033    0.3578 H   0  0  0  0  0  0  0  0  0  0  0  0
    2.9519   10.2276   -1.1808 H   0  0  0  0  0  0  0  0  0  0  0  0
    3.9427   11.7260   -1.1808 H   0  0  0  0  0  0  0  0  0  0  0  0
    1.4914   12.9748    1.0042 H   0  0  0  0  0  0  0  0  0  0  0  0
    2.9550   13.5751    0.0392 H   0  0  0  0  0  0  0  0  0  0  0  0
    0.0585   14.4067   -0.2848 H   0  0  0  0  0  0  0  0  0  0  0  0
    1.4621   15.3979    0.2770 H   0  0  0  0  0  0  0  0  0  0  0  0
    3.4072   15.3564   -0.8971 H   0  0  0  0  0  0  0  0  0  0  0  0
    3.5052   14.4597   -2.4505 H   0  0  0  0  0  0  0  0  0  0  0  0
    3.1458   16.2197   -2.4505 H   0  0  0  0  0  0  0  0  0  0  0  0
  1  2  1  0
  2  3  1  0
  3  4  1  0
  4  5  1  0
  5  6  1  0
  6  7  1  0
  7  8  1  0
  7  9  1  0
  2 10  1  0
 10 11  1  0
 11 12  1  0
 12 13  1  0
 13 14  1  1
 13 15  1  0
 15 16  1  0
 16 17  1  0
 17 18  2  0
 18 19  1  0
 19 20  1  0
 20 21  1  0
 21 22  1  0
 22 23  1  0
 22 24  1  0
 24 25  1  0
 24 26  1  0
 19 27  1  0
 27 28  1  6
 27 29  1  0
 29 30  1  0
 30 31  1  0
 31 32  1  1
  7  5  1  0
 31 10  1  0
 31 13  1  0
 27 15  1  0
 24 18  1  0
  1 33  1  0
  1 34  1  0
  1 35  1  0
  2 36  1  1
  3 37  1  0
  3 38  1  0
  4 39  1  0
  4 40  1  0
  5 41  1  1
  8 42  1  0
  8 43  1  0
  8 44  1  0
  9 45  1  0
  9 46  1  0
  9 47  1  0
 10 48  1  1
 11 49  1  0
 11 50  1  0
 12 51  1  0
 12 52  1  0
 14 53  1  0
 14 54  1  0
 14 55  1  0
 15 56  1  6
 16 57  1  0
 16 58  1  0
 17 59  1  0
 19 60  1  1
 20 61  1  0
 20 62  1  0
 21 63  1  0
 21 64  1  0
 22 65  1  1
 23 66  1  0
 25 67  1  0
 25 68  1  0
 25 69  1  0
 26 70  1  0
 26 71  1  0
 26 72  1  0
 28 73  1  0
 28 74  1  0
 28 75  1  0
 29 76  1  0
 29 77  1  0
 30 78  1  0
 30 79  1  0
 32 80  1  0
 32 81  1  0
 32 82  1  0
M  END
>  <meeko>  (3) 
{"is_sidechain": [false], "intermolecular_energy": 2.731, "internal_energy": -0.839}

$$$$
EPH_relaxed_0001_pdb2pqr_Repair_232_r2_0001_out
     RDKit          3D

 82 86  0  0  0  0  0  0  0  0999 V2000
    0.3960   18.4200   -0.1000 C   0  0  0  0  0  0  0  0  0  0  0  0
    1.4810   17.3550   -0.2850 C   0  0  2  0  0  0  0  0  0  0  0  0
    2.7110   17.9030   -1.0360 C   0  0  0  0  0  0  0  0  0  0  0  0
    3.9380   18.1060   -0.1430 C   0  0  0  0  0  0  0  0  0  0  0  0
    3.5550   18.5940    1.2220 C   0  0  2  0  0  0  0  0  0  0  0  0
    3.7770   19.9930    1.4410 O   0  0  0  0  0  0  0  0  0  0  0  0
    4.5600   19.0940    2.2430 C   0  0  0  0  0  0  0  0  0  0  0  0
    6.0250   19.1300    1.9440 C   0  0  0  0  0  0  0  0  0  0  0  0
    4.1740   19.0860    3.6900 C   0  0  0  0  0  0  0  0  0  0  0  0
    0.9090   16.1540   -1.0290 C   0  0  1  0  0  0  0  0  0  0  0  0
    0.7900   16.3990   -2.5570 C   0  0  0  0  0  0  0  0  0  0  0  0
    1.0800   15.0440   -3.2510 C   0  0  0  0  0  0  0  0  0  0  0  0
    1.0280   14.0020   -2.1100 C   0  0  1  0  0  0  0  0  0  0  0  0
   -0.4910   13.7120   -1.9000 C   0  0  0  0  0  0  0  0  0  0  0  0
    1.8400   12.6860   -2.3380 C   0  0  2  0  0  0  0  0  0  0  0  0
    1.3760   11.8310   -3.5300 C   0  0  0  0  0  0  0  0  0  0  0  0
    0.3400   10.8040   -3.2130 C   0  0  0  0  0  0  0  0  0  0  0  0
    0.0090   10.3820   -1.9780 C   0  0  0  0  0  0  0  0  0  0  0  0
    0.7740   10.8790   -0.7450 C   0  0  1  0  0  0  0  0  0  0  0  0
    1.1210    9.6750    0.1700 C   0  0  0  0  0  0  0  0  0  0  0  0
   -0.1060    8.8470    0.5390 C   0  0  0  0  0  0  0  0  0  0  0  0
   -0.8060    8.3220   -0.7120 C   0  0  2  0  0  0  0  0  0  0  0  0
    0.0530    7.3780   -1.3590 O   0  0  0  0  0  0  0  0  0  0  0  0
   -1.1960    9.4450   -1.7140 C   0  0  0  0  0  0  0  0  0  0  0  0
   -2.3490   10.2930   -1.1220 C   0  0  0  0  0  0  0  0  0  0  0  0
   -1.7640    8.7700   -2.9910 C   0  0  0  0  0  0  0  0  0  0  0  0
    2.0310   11.8070   -1.0360 C   0  0  1  0  0  0  0  0  0  0  0  0
    3.2970   10.9280   -1.2730 C   0  0  0  0  0  0  0  0  0  0  0  0
    2.3290   12.6830    0.2380 C   0  0  0  0  0  0  0  0  0  0  0  0
    1.5850   14.0270    0.3470 C   0  0  0  0  0  0  0  0  0  0  0  0
    1.7030   14.8260   -0.9540 C   0  0  2  0  0  0  0  0  0  0  0  0
    3.2190   15.1520   -1.1800 C   0  0  0  0  0  0  0  0  0  0  0  0
    0.2256   18.5872    0.9738 H   0  0  0  0  0  0  0  0  0  0  0  0
    0.7207   19.3598   -0.5705 H   0  0  0  0  0  0  0  0  0  0  0  0
   -0.5376   18.0779   -0.5705 H   0  0  0  0  0  0  0  0  0  0  0  0
    1.8161   17.0470    0.7164 H   0  0  0  0  0  0  0  0  0  0  0  0
    2.9756   17.1930   -1.8334 H   0  0  0  0  0  0  0  0  0  0  0  0
    2.4329   18.8919   -1.4294 H   0  0  0  0  0  0  0  0  0  0  0  0
    4.4689   17.1478   -0.0432 H   0  0  0  0  0  0  0  0  0  0  0  0
    4.5812   18.8657   -0.6111 H   0  0  0  0  0  0  0  0  0  0  0  0
    2.7443   17.8533    1.2860 H   0  0  0  0  0  0  0  0  0  0  0  0
    6.5914   19.1439    2.8869 H   0  0  0  0  0  0  0  0  0  0  0  0
    6.3026   18.2384    1.3626 H   0  0  0  0  0  0  0  0  0  0  0  0
    6.2585   20.0342    1.3626 H   0  0  0  0  0  0  0  0  0  0  0  0
    5.0813   19.1048    4.3116 H   0  0  0  0  0  0  0  0  0  0  0  0
    3.5600   19.9716    3.9106 H   0  0  0  0  0  0  0  0  0  0  0  0
    3.5972   18.1757    3.9106 H   0  0  0  0  0  0  0  0  0  0  0  0
   -0.0496   16.0494   -0.4997 H   0  0  0  0  0  0  0  0  0  0  0  0
   -0.2242   16.7435   -2.8075 H   0  0  0  0  0  0  0  0  0  0  0  0
    1.4980   17.1725   -2.8893 H   0  0  0  0  0  0  0  0  0  0  0  0
    0.3156   14.8257   -4.0113 H   0  0  0  0  0  0  0  0  0  0  0  0
    2.0478   15.0420   -3.7738 H   0  0  0  0  0  0  0  0  0  0  0  0
   -0.7108   13.6700   -0.8230 H   0  0  0  0  0  0  0  0  0  0  0  0
   -1.0849   14.5130   -2.3645 H   0  0  0  0  0  0  0  0  0  0  0  0
   -0.7480   12.7486   -2.3645 H   0  0  0  0  0  0  0  0  0  0  0  0
    2.8341   13.0681   -2.6132 H   0  0  0  0  0  0  0  0  0  0  0  0
    0.9622   12.5071   -4.2926 H   0  0  0  0  0  0  0  0  0  0  0  0
    2.2624   11.2747   -3.8688 H   0  0  0  0  0  0  0  0  0  0  0  0
   -0.1985   10.3539   -4.0600 H   0  0  0  0  0  0  0  0  0  0  0  0
    0.0911   11.5624   -0.2190 H   0  0  0  0  0  0  0  0  0  0  0  0
    1.8379    9.0275   -0.3562 H   0  0  0  0  0  0  0  0  0  0  0  0
    1.5455   10.0760    1.1022 H   0  0  0  0  0  0  0  0  0  0  0  0
    0.2080    7.9952    1.1601 H   0  0  0  0  0  0  0  0  0  0  0  0
   -0.8087    9.4877    1.0919 H   0  0  0  0  0  0  0  0  0  0  0  0
   -1.7455    7.8493   -0.3897 H   0  0  0  0  0  0  0  0  0  0  0  0
   -0.3610    7.1350   -2.2050 H   0  0  0  0  0  0  0  0  0  0  0  0
   -2.3026   10.2589   -0.0235 H   0  0  0  0  0  0  0  0  0  0  0  0
   -2.2495   11.3347   -1.4610 H   0  0  0  0  0  0  0  0  0  0  0  0
   -3.3138    9.8876   -1.4610 H   0  0  0  0  0  0  0  0  0  0  0  0
   -2.4476    7.9577   -2.7032 H   0  0  0  0  0  0  0  0  0  0  0  0
   -2.3107    9.5153   -3.5874 H   0  0  0  0  0  0  0  0  0  0  0  0
   -0.9363    8.3587   -3.5874 H   0  0  0  0  0  0  0  0  0  0  0  0
    3.7242   10.6314   -0.3037 H   0  0  0  0  0  0  0  0  0  0  0  0
    3.0177   10.0285   -1.8413 H   0  0  0  0  0  0  0  0  0  0  0  0
    4.0422   11.5040   -1.8413 H   0  0  0  0  0  0  0  0  0  0  0  0
    2.0656   12.0843    1.1224 H   0  0  0  0  0  0  0  0  0  0  0  0
    3.3936   12.9491    0.1613 H   0  0  0  0  0  0  0  0  0  0  0  0
    0.5223   13.8341    0.5557 H   0  0  0  0  0  0  0  0  0  0  0  0
    2.0370   14.6131    1.1607 H   0  0  0  0  0  0  0  0  0  0  0  0
    3.7199   15.2597   -0.2066 H   0  0  0  0  0  0  0  0  0  0  0  0
    3.6894   14.3345   -1.7460 H   0  0  0  0  0  0  0  0  0  0  0  0
    3.3118   16.0906   -1.7460 H   0  0  0  0  0  0  0  0  0  0  0  0
  1  2  1  0
  2  3  1  0
  3  4  1  0
  4  5  1  0
  5  6  1  0
  6  7  1  0
  7  8  1  0
  7  9  1  0
  2 10  1  0
 10 11  1  0
 11 12  1  0
 12 13  1  0
 13 14  1  1
 13 15  1  0
 15 16  1  0
 16 17  1  0
 17 18  2  0
 18 19  1  0
 19 20  1  0
 20 21  1  0
 21 22  1  0
 22 23  1  0
 22 24  1  0
 24 25  1  0
 24 26  1  0
 19 27  1  0
 27 28  1  6
 27 29  1  0
 29 30  1  0
 30 31  1  0
 31 32  1  6
  7  5  1  0
 31 10  1  0
 31 13  1  0
 27 15  1  0
 24 18  1  0
  1 33  1  0
  1 34  1  0
  1 35  1  0
  2 36  1  1
  3 37  1  0
  3 38  1  0
  4 39  1  0
  4 40  1  0
  5 41  1  1
  8 42  1  0
  8 43  1  0
  8 44  1  0
  9 45  1  0
  9 46  1  0
  9 47  1  0
 10 48  1  1
 11 49  1  0
 11 50  1  0
 12 51  1  0
 12 52  1  0
 14 53  1  0
 14 54  1  0
 14 55  1  0
 15 56  1  6
 16 57  1  0
 16 58  1  0
 17 59  1  0
 19 60  1  1
 20 61  1  0
 20 62  1  0
 21 63  1  0
 21 64  1  0
 22 65  1  1
 23 66  1  0
 25 67  1  0
 25 68  1  0
 25 69  1  0
 26 70  1  0
 26 71  1  0
 26 72  1  0
 28 73  1  0
 28 74  1  0
 28 75  1  0
 29 76  1  0
 29 77  1  0
 30 78  1  0
 30 79  1  0
 32 80  1  0
 32 81  1  0
 32 82  1  0
M  END
>  <meeko>  (4) 
{"is_sidechain": [false], "intermolecular_energy": 2.731, "internal_energy": -0.839}

$$$$
EPH_relaxed_0001_pdb2pqr_Repair_232_r2_0001_out
     RDKit          3D

 82 86  0  0  0  0  0  0  0  0999 V2000
   -3.4220    9.3200    0.5080 C   0  0  0  0  0  0  0  0  0  0  0  0
   -2.5800    9.6720   -0.7220 C   0  0  2  0  0  0  0  0  0  0  0  0
   -1.9110    8.4290   -1.3430 C   0  0  0  0  0  0  0  0  0  0  0  0
   -2.8250    7.6460   -2.2900 C   0  0  0  0  0  0  0  0  0  0  0  0
   -4.2620    7.7390   -1.8760 C   0  0  2  0  0  0  0  0  0  0  0  0
   -4.8110    6.5280   -1.3400 O   0  0  0  0  0  0  0  0  0  0  0  0
   -5.3840    6.9920   -2.5740 C   0  0  0  0  0  0  0  0  0  0  0  0
   -5.1160    6.0980   -3.7440 C   0  0  0  0  0  0  0  0  0  0  0  0
   -6.7820    7.5060   -2.4320 C   0  0  0  0  0  0  0  0  0  0  0  0
   -1.5210   10.7020   -0.3500 C   0  0  1  0  0  0  0  0  0  0  0  0
   -0.4250   10.1220    0.5830 C   0  0  0  0  0  0  0  0  0  0  0  0
    0.9060   10.8140    0.1930 C   0  0  0  0  0  0  0  0  0  0  0  0
    0.4820   11.9960   -0.7100 C   0  0  1  0  0  0  0  0  0  0  0  0
    0.0420   13.1190    0.2800 C   0  0  0  0  0  0  0  0  0  0  0  0
    1.5540   12.5090   -1.7260 C   0  0  2  0  0  0  0  0  0  0  0  0
    2.8350   13.0770   -1.0920 C   0  0  0  0  0  0  0  0  0  0  0  0
    2.8100   14.5430   -0.8080 C   0  0  0  0  0  0  0  0  0  0  0  0
    1.9210   15.4210   -1.3080 C   0  0  0  0  0  0  0  0  0  0  0  0
    0.8680   14.9790   -2.3320 C   0  0  1  0  0  0  0  0  0  0  0  0
    0.8200   16.0000   -3.4990 C   0  0  0  0  0  0  0  0  0  0  0  0
    0.6000   17.4300   -3.0170 C   0  0  0  0  0  0  0  0  0  0  0  0
    1.7000   17.8530   -2.0450 C   0  0  2  0  0  0  0  0  0  0  0  0
    2.9400   17.9260   -2.7560 O   0  0  0  0  0  0  0  0  0  0  0  0
    1.8480   16.8930   -0.8320 C   0  0  0  0  0  0  0  0  0  0  0  0
    0.6220   17.0420    0.1020 C   0  0  0  0  0  0  0  0  0  0  0  0
    3.0810   17.3520   -0.0080 C   0  0  0  0  0  0  0  0  0  0  0  0
    0.9810   13.4770   -2.8390 C   0  0  1  0  0  0  0  0  0  0  0  0
    1.9630   13.3960   -4.0480 C   0  0  0  0  0  0  0  0  0  0  0  0
   -0.4230   13.0080   -3.3750 C   0  0  0  0  0  0  0  0  0  0  0  0
   -1.3930   12.4000   -2.3440 C   0  0  0  0  0  0  0  0  0  0  0  0
   -0.6970   11.3240   -1.5050 C   0  0  2  0  0  0  0  0  0  0  0  0
   -0.2630   10.1700   -2.4710 C   0  0  0  0  0  0  0  0  0  0  0  0
   -2.8551    9.5570    1.4204 H   0  0  0  0  0  0  0  0  0  0  0  0
   -4.3542    9.9038    0.4935 H   0  0  0  0  0  0  0  0  0  0  0  0
   -3.6614    8.2465    0.4935 H   0  0  0  0  0  0  0  0  0  0  0  0
   -3.2590   10.0937   -1.4777 H   0  0  0  0  0  0  0  0  0  0  0  0
   -1.0254    8.7567   -1.9072 H   0  0  0  0  0  0  0  0  0  0  0  0
   -1.6541    7.7541   -0.5133 H   0  0  0  0  0  0  0  0  0  0  0  0
   -2.7195    8.0544   -3.3059 H   0  0  0  0  0  0  0  0  0  0  0  0
   -2.5266    6.5877   -2.2576 H   0  0  0  0  0  0  0  0  0  0  0  0
   -4.1387    8.7972   -1.6020 H   0  0  0  0  0  0  0  0  0  0  0  0
   -4.8175    5.1024   -3.3839 H   0  0  0  0  0  0  0  0  0  0  0  0
   -6.0271    6.0094   -4.3540 H   0  0  0  0  0  0  0  0  0  0  0  0
   -4.3064    6.5252   -4.3540 H   0  0  0  0  0  0  0  0  0  0  0  0
   -7.0322    7.5980   -1.3648 H   0  0  0  0  0  0  0  0  0  0  0  0
   -6.8608    8.4919   -2.9134 H   0  0  0  0  0  0  0  0  0  0  0  0
   -7.4807    6.8060   -2.9134 H   0  0  0  0  0  0  0  0  0  0  0  0
   -2.1628   11.4683    0.1092 H   0  0  0  0  0  0  0  0  0  0  0  0
   -0.6697   10.3363    1.6338 H   0  0  0  0  0  0  0  0  0  0  0  0
   -0.3497    9.0301    0.4728 H   0  0  0  0  0  0  0  0  0  0  0  0
    1.4310   11.1783    1.0883 H   0  0  0  0  0  0  0  0  0  0  0  0
    1.5989   10.1280   -0.3162 H   0  0  0  0  0  0  0  0  0  0  0  0
    0.1786   12.7702    1.3143 H   0  0  0  0  0  0  0  0  0  0  0  0
    0.6548   14.0169    0.1118 H   0  0  0  0  0  0  0  0  0  0  0  0
   -1.0177   13.3616    0.1118 H   0  0  0  0  0  0  0  0  0  0  0  0
    1.8588   11.5827   -2.2349 H   0  0  0  0  0  0  0  0  0  0  0  0
    3.0069   12.5496   -0.1421 H   0  0  0  0  0  0  0  0  0  0  0  0
    3.6346   12.9238   -1.8317 H   0  0  0  0  0  0  0  0  0  0  0  0
    3.5835   14.9385   -0.1332 H   0  0  0  0  0  0  0  0  0  0  0  0
   -0.0936   14.9774   -1.7978 H   0  0  0  0  0  0  0  0  0  0  0  0
    1.7733   15.9551   -4.0461 H   0  0  0  0  0  0  0  0  0  0  0  0
   -0.0299   15.7306   -4.1432 H   0  0  0  0  0  0  0  0  0  0  0  0
    0.6055   18.1071   -3.8839 H   0  0  0  0  0  0  0  0  0  0  0  0
   -0.3676   17.4804   -2.4962 H   0  0  0  0  0  0  0  0  0  0  0  0
    1.4190   18.8343   -1.6350 H   0  0  0  0  0  0  0  0  0  0  0  0
    3.3880   17.0690   -2.6540 H   0  0  0  0  0  0  0  0  0  0  0  0
    0.9527   17.0018    1.1503 H   0  0  0  0  0  0  0  0  0  0  0  0
    0.1295   18.0066   -0.0904 H   0  0  0  0  0  0  0  0  0  0  0  0
   -0.0872   16.2234   -0.0904 H   0  0  0  0  0  0  0  0  0  0  0  0
    2.8563   17.2684    1.0656 H   0  0  0  0  0  0  0  0  0  0  0  0
    3.9435   16.7147   -0.2528 H   0  0  0  0  0  0  0  0  0  0  0  0
    3.3168   18.3982   -0.2528 H   0  0  0  0  0  0  0  0  0  0  0  0
    2.9951   13.3109   -3.6770 H   0  0  0  0  0  0  0  0  0  0  0  0
    1.7194   12.5149   -4.6598 H   0  0  0  0  0  0  0  0  0  0  0  0
    1.8671   14.3051   -4.6598 H   0  0  0  0  0  0  0  0  0  0  0  0
   -0.9178   13.8830   -3.8216 H   0  0  0  0  0  0  0  0  0  0  0  0
   -0.2040   12.1923   -4.0797 H   0  0  0  0  0  0  0  0  0  0  0  0
   -1.7562   13.1967   -1.6781 H   0  0  0  0  0  0  0  0  0  0  0  0
   -2.2324   11.9363   -2.8829 H   0  0  0  0  0  0  0  0  0  0  0  0
    0.0638    9.3012   -1.8808 H   0  0  0  0  0  0  0  0  0  0  0  0
   -1.1146    9.8830   -3.1053 H   0  0  0  0  0  0  0  0  0  0  0  0
    0.5667   10.5153   -3.1053 H   0  0  0  0  0  0  0  0  0  0  0  0
  1  2  1  0
  2  3  1  0
  3  4  1  0
  4  5  1  0
  5  6  1  0
  6  7  1  0
  7  8  1  0
  7  9  1  0
  2 10  1  0
 10 11  1  0
 11 12  1  0
 12 13  1  0
 13 14  1  1
 13 15  1  0
 15 16  1  0
 16 17  1  0
 17 18  2  0
 18 19  1  0
 19 20  1  0
 20 21  1  0
 21 22  1  0
 22 23  1  0
 22 24  1  0
 24 25  1  0
 24 26  1  0
 19 27  1  0
 27 28  1  6
 27 29  1  0
 29 30  1  0
 30 31  1  0
 31 32  1  6
  7  5  1  0
 31 10  1  0
 31 13  1  0
 27 15  1  0
 24 18  1  0
  1 33  1  0
  1 34  1  0
  1 35  1  0
  2 36  1  6
  3 37  1  0
  3 38  1  0
  4 39  1  0
  4 40  1  0
  5 41  1  1
  8 42  1  0
  8 43  1  0
  8 44  1  0
  9 45  1  0
  9 46  1  0
  9 47  1  0
 10 48  1  1
 11 49  1  0
 11 50  1  0
 12 51  1  0
 12 52  1  0
 14 53  1  0
 14 54  1  0
 14 55  1  0
 15 56  1  6
 16 57  1  0
 16 58  1  0
 17 59  1  0
 19 60  1  1
 20 61  1  0
 20 62  1  0
 21 63  1  0
 21 64  1  0
 22 65  1  1
 23 66  1  0
 25 67  1  0
 25 68  1  0
 25 69  1  0
 26 70  1  0
 26 71  1  0
 26 72  1  0
 28 73  1  0
 28 74  1  0
 28 75  1  0
 29 76  1  0
 29 77  1  0
 30 78  1  0
 30 79  1  0
 32 80  1  0
 32 81  1  0
 32 82  1  0
M  END
>  <meeko>  (5) 
{"is_sidechain": [false], "intermolecular_energy": 2.731, "internal_energy": -0.839}

$$$$
EPH_relaxed_0001_pdb2pqr_Repair_232_r2_0001_out
     RDKit          3D

 82 86  0  0  0  0  0  0  0  0999 V2000
    3.8100   17.9240    0.7580 C   0  0  0  0  0  0  0  0  0  0  0  0
    2.7790   18.3660   -0.2840 C   0  0  2  0  0  0  0  0  0  0  0  0
    2.0530   19.6610    0.1310 C   0  0  0  0  0  0  0  0  0  0  0  0
    0.8370   19.4240    1.0310 C   0  0  0  0  0  0  0  0  0  0  0  0
   -0.4000   20.0540    0.4690 C   0  0  2  0  0  0  0  0  0  0  0  0
   -1.4850   20.1780    1.3980 O   0  0  0  0  0  0  0  0  0  0  0  0
   -1.7070   19.3070    0.2770 C   0  0  0  0  0  0  0  0  0  0  0  0
   -1.8410   17.8630    0.6460 C   0  0  0  0  0  0  0  0  0  0  0  0
   -2.6970   19.8380   -0.7120 C   0  0  0  0  0  0  0  0  0  0  0  0
    1.7650   17.2520   -0.5170 C   0  0  1  0  0  0  0  0  0  0  0  0
    0.5670   17.7090   -1.3920 C   0  0  0  0  0  0  0  0  0  0  0  0
    0.1540   16.4900   -2.2560 C   0  0  0  0  0  0  0  0  0  0  0  0
    0.8980   15.2920   -1.6210 C   0  0  1  0  0  0  0  0  0  0  0  0
    0.0230   14.8790   -0.3970 C   0  0  0  0  0  0  0  0  0  0  0  0
    1.1820   14.0770   -2.5640 C   0  0  2  0  0  0  0  0  0  0  0  0
   -0.0700   13.3760   -3.1200 C   0  0  0  0  0  0  0  0  0  0  0  0
   -0.5930   12.2510   -2.2900 C   0  0  0  0  0  0  0  0  0  0  0  0
    0.0760   11.6340   -1.2980 C   0  0  0  0  0  0  0  0  0  0  0  0
    1.5350   11.9940   -0.9890 C   0  0  1  0  0  0  0  0  0  0  0  0
    2.3650   10.6940   -0.8230 C   0  0  0  0  0  0  0  0  0  0  0  0
    1.7660    9.7460    0.2110 C   0  0  0  0  0  0  0  0  0  0  0  0
    0.3360    9.3650   -0.1610 C   0  0  2  0  0  0  0  0  0  0  0  0
    0.3650    8.5810   -1.3580 O   0  0  0  0  0  0  0  0  0  0  0  0
   -0.5930   10.5950   -0.3650 C   0  0  0  0  0  0  0  0  0  0  0  0
   -0.8650   11.2730    1.0010 C   0  0  0  0  0  0  0  0  0  0  0  0
   -1.9650   10.0780   -0.8740 C   0  0  0  0  0  0  0  0  0  0  0  0
    2.2170   13.0320   -1.9800 C   0  0  1  0  0  0  0  0  0  0  0  0
    2.8270   12.2790   -3.2020 C   0  0  0  0  0  0  0  0  0  0  0  0
    3.4210   13.7300   -1.2440 C   0  0  0  0  0  0  0  0  0  0  0  0
    3.0960   14.9950   -0.4260 C   0  0  0  0  0  0  0  0  0  0  0  0
    2.2620   15.9810   -1.2500 C   0  0  2  0  0  0  0  0  0  0  0  0
    3.1250   16.4300   -2.4770 C   0  0  0  0  0  0  0  0  0  0  0  0
    3.4082   18.0963    1.7674 H   0  0  0  0  0  0  0  0  0  0  0  0
    4.0274   16.8536    0.6276 H   0  0  0  0  0  0  0  0  0  0  0  0
    4.7352   18.5046    0.6276 H   0  0  0  0  0  0  0  0  0  0  0  0
    3.3212   18.5762   -1.2177 H   0  0  0  0  0  0  0  0  0  0  0  0
    2.7659   20.3006    0.6719 H   0  0  0  0  0  0  0  0  0  0  0  0
    1.6829   20.1317   -0.7917 H   0  0  0  0  0  0  0  0  0  0  0  0
    0.6721   18.3409    1.1294 H   0  0  0  0  0  0  0  0  0  0  0  0
    1.0407   19.8826    2.0099 H   0  0  0  0  0  0  0  0  0  0  0  0
    0.1992   20.6792   -0.2094 H   0  0  0  0  0  0  0  0  0  0  0  0
   -1.8502   17.7638    1.7415 H   0  0  0  0  0  0  0  0  0  0  0  0
   -2.7800   17.4648    0.2339 H   0  0  0  0  0  0  0  0  0  0  0  0
   -0.9913   17.2989    0.2339 H   0  0  0  0  0  0  0  0  0  0  0  0
   -3.5434   20.2920   -0.1759 H   0  0  0  0  0  0  0  0  0  0  0  0
   -2.2131   20.5976   -1.3435 H   0  0  0  0  0  0  0  0  0  0  0  0
   -3.0621   19.0146   -1.3435 H   0  0  0  0  0  0  0  0  0  0  0  0
    1.5122   17.0104    0.5259 H   0  0  0  0  0  0  0  0  0  0  0  0
   -0.2717   18.0217   -0.7526 H   0  0  0  0  0  0  0  0  0  0  0  0
    0.8435   18.5657   -2.0241 H   0  0  0  0  0  0  0  0  0  0  0  0
   -0.9345   16.3366   -2.2160 H   0  0  0  0  0  0  0  0  0  0  0  0
    0.4098   16.6250   -3.3173 H   0  0  0  0  0  0  0  0  0  0  0  0
    0.5531   15.1292    0.5338 H   0  0  0  0  0  0  0  0  0  0  0  0
   -0.9339   15.4205   -0.4309 H   0  0  0  0  0  0  0  0  0  0  0  0
   -0.1671   13.7961   -0.4309 H   0  0  0  0  0  0  0  0  0  0  0  0
    1.6648   14.5568   -3.4282 H   0  0  0  0  0  0  0  0  0  0  0  0
   -0.8671   14.1282   -3.2138 H   0  0  0  0  0  0  0  0  0  0  0  0
    0.2316   12.9311   -4.0798 H   0  0  0  0  0  0  0  0  0  0  0  0
   -1.6112   11.8961   -2.5073 H   0  0  0  0  0  0  0  0  0  0  0  0
    1.5174   12.5487   -0.0393 H   0  0  0  0  0  0  0  0  0  0  0  0
    2.4078   10.1766   -1.7928 H   0  0  0  0  0  0  0  0  0  0  0  0
    3.3676   10.9803   -0.4725 H   0  0  0  0  0  0  0  0  0  0  0  0
    2.3797    8.8345    0.2616 H   0  0  0  0  0  0  0  0  0  0  0  0
    1.7510   10.2548    1.1862 H   0  0  0  0  0  0  0  0  0  0  0  0
   -0.0822    8.7923    0.6799 H   0  0  0  0  0  0  0  0  0  0  0  0
    1.2960    8.4560   -1.6060 H   0  0  0  0  0  0  0  0  0  0  0  0
   -0.5889   10.5847    1.8134 H   0  0  0  0  0  0  0  0  0  0  0  0
   -0.2661   12.1923    1.0798 H   0  0  0  0  0  0  0  0  0  0  0  0
   -1.9332   11.5235    1.0798 H   0  0  0  0  0  0  0  0  0  0  0  0
   -2.6074    9.8359   -0.0145 H   0  0  0  0  0  0  0  0  0  0  0  0
   -2.4467   10.8563   -1.4841 H   0  0  0  0  0  0  0  0  0  0  0  0
   -1.8133    9.1754   -1.4841 H   0  0  0  0  0  0  0  0  0  0  0  0
    3.4819   11.4706   -2.8449 H   0  0  0  0  0  0  0  0  0  0  0  0
    2.0168   11.8523   -3.8115 H   0  0  0  0  0  0  0  0  0  0  0  0
    3.4125   12.9830   -3.8115 H   0  0  0  0  0  0  0  0  0  0  0  0
    3.8629   12.9936   -0.5566 H   0  0  0  0  0  0  0  0  0  0  0  0
    4.0909   14.0708   -2.0472 H   0  0  0  0  0  0  0  0  0  0  0  0
    2.5297   14.7073    0.4720 H   0  0  0  0  0  0  0  0  0  0  0  0
    4.0407   15.4836   -0.1451 H   0  0  0  0  0  0  0  0  0  0  0  0
    4.0480   16.9102   -2.1200 H   0  0  0  0  0  0  0  0  0  0  0  0
    3.3812   15.5508   -3.0865 H   0  0  0  0  0  0  0  0  0  0  0  0
    2.5521   17.1444   -3.0865 H   0  0  0  0  0  0  0  0  0  0  0  0
  1  2  1  0
  2  3  1  0
  3  4  1  0
  4  5  1  0
  5  6  1  0
  6  7  1  0
  7  8  1  0
  7  9  1  0
  2 10  1  0
 10 11  1  0
 11 12  1  0
 12 13  1  0
 13 14  1  1
 13 15  1  0
 15 16  1  0
 16 17  1  0
 17 18  2  0
 18 19  1  0
 19 20  1  0
 20 21  1  0
 21 22  1  0
 22 23  1  0
 22 24  1  0
 24 25  1  0
 24 26  1  0
 19 27  1  0
 27 28  1  6
 27 29  1  0
 29 30  1  0
 30 31  1  0
 31 32  1  6
  7  5  1  0
 31 10  1  0
 31 13  1  0
 27 15  1  0
 24 18  1  0
  1 33  1  0
  1 34  1  0
  1 35  1  0
  2 36  1  6
  3 37  1  0
  3 38  1  0
  4 39  1  0
  4 40  1  0
  5 41  1  6
  8 42  1  0
  8 43  1  0
  8 44  1  0
  9 45  1  0
  9 46  1  0
  9 47  1  0
 10 48  1  1
 11 49  1  0
 11 50  1  0
 12 51  1  0
 12 52  1  0
 14 53  1  0
 14 54  1  0
 14 55  1  0
 15 56  1  6
 16 57  1  0
 16 58  1  0
 17 59  1  0
 19 60  1  1
 20 61  1  0
 20 62  1  0
 21 63  1  0
 21 64  1  0
 22 65  1  1
 23 66  1  0
 25 67  1  0
 25 68  1  0
 25 69  1  0
 26 70  1  0
 26 71  1  0
 26 72  1  0
 28 73  1  0
 28 74  1  0
 28 75  1  0
 29 76  1  0
 29 77  1  0
 30 78  1  0
 30 79  1  0
 32 80  1  0
 32 81  1  0
 32 82  1  0
M  END
>  <meeko>  (6) 
{"is_sidechain": [false], "intermolecular_energy": 2.731, "internal_energy": -0.839}

$$$$
EPH_relaxed_0001_pdb2pqr_Repair_232_r2_0001_out
     RDKit          3D

 82 86  0  0  0  0  0  0  0  0999 V2000
   -5.2880    5.7580   -1.5980 C   0  0  0  0  0  0  0  0  0  0  0  0
   -5.5050    7.2570   -1.8220 C   0  0  2  0  0  0  0  0  0  0  0  0
   -5.2020    8.0830   -0.5560 C   0  0  0  0  0  0  0  0  0  0  0  0
   -4.2060    9.2230   -0.7880 C   0  0  0  0  0  0  0  0  0  0  0  0
   -2.8270    8.8540   -0.3340 C   0  0  2  0  0  0  0  0  0  0  0  0
   -2.3180    9.6530    0.7420 O   0  0  0  0  0  0  0  0  0  0  0  0
   -1.6190    9.7570   -0.5090 C   0  0  0  0  0  0  0  0  0  0  0  0
   -1.7360   11.0980   -1.1620 C   0  0  0  0  0  0  0  0  0  0  0  0
   -0.2560    9.1390   -0.4920 C   0  0  0  0  0  0  0  0  0  0  0  0
   -6.9360    7.5120   -2.2820 C   0  0  1  0  0  0  0  0  0  0  0  0
   -7.2650    6.8140   -3.6280 C   0  0  0  0  0  0  0  0  0  0  0  0
   -8.7500    6.3750   -3.5530 C   0  0  0  0  0  0  0  0  0  0  0  0
   -9.3140    7.1190   -2.3200 C   0  0  1  0  0  0  0  0  0  0  0  0
   -9.6350    8.5580   -2.8320 C   0  0  0  0  0  0  0  0  0  0  0  0
  -10.5530    6.4640   -1.6250 C   0  0  2  0  0  0  0  0  0  0  0  0
  -11.8130    6.3600   -2.5020 C   0  0  0  0  0  0  0  0  0  0  0  0
  -12.7410    7.5280   -2.4250 C   0  0  0  0  0  0  0  0  0  0  0  0
  -12.7180    8.4840   -1.4780 C   0  0  0  0  0  0  0  0  0  0  0  0
  -11.7510    8.3940   -0.2910 C   0  0  1  0  0  0  0  0  0  0  0  0
  -12.5140    8.7000    1.0250 C   0  0  0  0  0  0  0  0  0  0  0  0
  -13.2540   10.0340    0.9750 C   0  0  0  0  0  0  0  0  0  0  0  0
  -14.2480   10.0620   -0.1830 C   0  0  2  0  0  0  0  0  0  0  0  0
  -15.2870    9.1130    0.0770 O   0  0  0  0  0  0  0  0  0  0  0  0
  -13.5950    9.7580   -1.5600 C   0  0  0  0  0  0  0  0  0  0  0  0
  -12.6910   10.9430   -1.9810 C   0  0  0  0  0  0  0  0  0  0  0  0
  -14.7270    9.6780   -2.6190 C   0  0  0  0  0  0  0  0  0  0  0  0
  -10.8880    7.0620   -0.1990 C   0  0  1  0  0  0  0  0  0  0  0  0
  -11.6840    5.9630    0.5690 C   0  0  0  0  0  0  0  0  0  0  0  0
   -9.5920    7.3460    0.6500 C   0  0  0  0  0  0  0  0  0  0  0  0
   -8.3650    7.8790   -0.1140 C   0  0  0  0  0  0  0  0  0  0  0  0
   -8.0780    7.0270   -1.3540 C   0  0  2  0  0  0  0  0  0  0  0  0
   -7.7300    5.5790   -0.8690 C   0  0  0  0  0  0  0  0  0  0  0  0
   -5.2578    5.5492   -0.5184 H   0  0  0  0  0  0  0  0  0  0  0  0
   -6.1140    5.1953   -2.0573 H   0  0  0  0  0  0  0  0  0  0  0  0
   -4.3363    5.4526   -2.0573 H   0  0  0  0  0  0  0  0  0  0  0  0
   -4.8010    7.5807   -2.6027 H   0  0  0  0  0  0  0  0  0  0  0  0
   -6.1449    8.5149   -0.1893 H   0  0  0  0  0  0  0  0  0  0  0  0
   -4.7427    7.3982    0.1721 H   0  0  0  0  0  0  0  0  0  0  0  0
   -4.1768    9.4580   -1.8622 H   0  0  0  0  0  0  0  0  0  0  0  0
   -4.5384   10.0934   -0.2033 H   0  0  0  0  0  0  0  0  0  0  0  0
   -3.0009    7.7972   -0.5851 H   0  0  0  0  0  0  0  0  0  0  0  0
   -1.8040   11.8776   -0.3889 H   0  0  0  0  0  0  0  0  0  0  0  0
   -0.8503   11.2792   -1.7886 H   0  0  0  0  0  0  0  0  0  0  0  0
   -2.6397   11.1231   -1.7886 H   0  0  0  0  0  0  0  0  0  0  0  0
    0.0672    8.9925    0.5492 H   0  0  0  0  0  0  0  0  0  0  0  0
   -0.2876    8.1672   -1.0063 H   0  0  0  0  0  0  0  0  0  0  0  0
    0.4542    9.8032   -1.0063 H   0  0  0  0  0  0  0  0  0  0  0  0
   -6.9236    8.6112   -2.3211 H   0  0  0  0  0  0  0  0  0  0  0  0
   -7.1188    7.5144   -4.4635 H   0  0  0  0  0  0  0  0  0  0  0  0
   -6.6057    5.9497   -3.7962 H   0  0  0  0  0  0  0  0  0  0  0  0
   -9.2890    6.6706   -4.4652 H   0  0  0  0  0  0  0  0  0  0  0  0
   -8.8590    5.2837   -3.4681 H   0  0  0  0  0  0  0  0  0  0  0  0
   -9.7845    9.2281   -1.9726 H   0  0  0  0  0  0  0  0  0  0  0  0
   -8.7968    8.9256   -3.4421 H   0  0  0  0  0  0  0  0  0  0  0  0
  -10.5500    8.5345   -3.4421 H   0  0  0  0  0  0  0  0  0  0  0  0
  -10.2145    5.4297   -1.4648 H   0  0  0  0  0  0  0  0  0  0  0  0
  -11.4911    6.2498   -3.5481 H   0  0  0  0  0  0  0  0  0  0  0  0
  -12.3782    5.4961   -2.1222 H   0  0  0  0  0  0  0  0  0  0  0  0
  -13.5081    7.6140   -3.2087 H   0  0  0  0  0  0  0  0  0  0  0  0
  -10.9847    9.1636   -0.4656 H   0  0  0  0  0  0  0  0  0  0  0  0
  -13.2449    7.8976    1.2037 H   0  0  0  0  0  0  0  0  0  0  0  0
  -11.7724    8.7594    1.8352 H   0  0  0  0  0  0  0  0  0  0  0  0
  -13.7977   10.1800    1.9200 H   0  0  0  0  0  0  0  0  0  0  0  0
  -12.5187   10.8386    0.8267 H   0  0  0  0  0  0  0  0  0  0  0  0
  -14.6503   11.0838   -0.2462 H   0  0  0  0  0  0  0  0  0  0  0  0
  -15.1630    8.3670   -0.5330 H   0  0  0  0  0  0  0  0  0  0  0  0
  -12.3060   11.4477   -1.0826 H   0  0  0  0  0  0  0  0  0  0  0  0
  -11.8484   10.5667   -2.5797 H   0  0  0  0  0  0  0  0  0  0  0  0
  -13.2766   11.6562   -2.5797 H   0  0  0  0  0  0  0  0  0  0  0  0
  -15.7002    9.6092   -2.1109 H   0  0  0  0  0  0  0  0  0  0  0  0
  -14.7048   10.5800   -3.2483 H   0  0  0  0  0  0  0  0  0  0  0  0
  -14.5782    8.7881   -3.2483 H   0  0  0  0  0  0  0  0  0  0  0  0
  -11.5715    6.1183    1.6522 H   0  0  0  0  0  0  0  0  0  0  0  0
  -12.7484    6.0246    0.2983 H   0  0  0  0  0  0  0  0  0  0  0  0
  -11.2936    4.9709    0.2983 H   0  0  0  0  0  0  0  0  0  0  0  0
   -9.8536    8.0880    1.4188 H   0  0  0  0  0  0  0  0  0  0  0  0
   -9.2838    6.3656    1.0421 H   0  0  0  0  0  0  0  0  0  0  0  0
   -8.5584    8.9157   -0.4267 H   0  0  0  0  0  0  0  0  0  0  0  0
   -7.4907    7.8342    0.5521 H   0  0  0  0  0  0  0  0  0  0  0  0
   -7.7236    5.5523    0.2307 H   0  0  0  0  0  0  0  0  0  0  0  0
   -8.4843    4.8740   -1.2485 H   0  0  0  0  0  0  0  0  0  0  0  0
   -6.7377    5.2938   -1.2485 H   0  0  0  0  0  0  0  0  0  0  0  0
  1  2  1  0
  2  3  1  0
  3  4  1  0
  4  5  1  0
  5  6  1  0
  6  7  1  0
  7  8  1  0
  7  9  1  0
  2 10  1  0
 10 11  1  0
 11 12  1  0
 12 13  1  0
 13 14  1  6
 13 15  1  0
 15 16  1  0
 16 17  1  0
 17 18  2  0
 18 19  1  0
 19 20  1  0
 20 21  1  0
 21 22  1  0
 22 23  1  0
 22 24  1  0
 24 25  1  0
 24 26  1  0
 19 27  1  0
 27 28  1  1
 27 29  1  0
 29 30  1  0
 30 31  1  0
 31 32  1  1
  7  5  1  0
 31 10  1  0
 31 13  1  0
 27 15  1  0
 24 18  1  0
  1 33  1  0
  1 34  1  0
  1 35  1  0
  2 36  1  6
  3 37  1  0
  3 38  1  0
  4 39  1  0
  4 40  1  0
  5 41  1  1
  8 42  1  0
  8 43  1  0
  8 44  1  0
  9 45  1  0
  9 46  1  0
  9 47  1  0
 10 48  1  6
 11 49  1  0
 11 50  1  0
 12 51  1  0
 12 52  1  0
 14 53  1  0
 14 54  1  0
 14 55  1  0
 15 56  1  1
 16 57  1  0
 16 58  1  0
 17 59  1  0
 19 60  1  6
 20 61  1  0
 20 62  1  0
 21 63  1  0
 21 64  1  0
 22 65  1  6
 23 66  1  0
 25 67  1  0
 25 68  1  0
 25 69  1  0
 26 70  1  0
 26 71  1  0
 26 72  1  0
 28 73  1  0
 28 74  1  0
 28 75  1  0
 29 76  1  0
 29 77  1  0
 30 78  1  0
 30 79  1  0
 32 80  1  0
 32 81  1  0
 32 82  1  0
M  END
>  <meeko>  (7) 
{"is_sidechain": [false], "intermolecular_energy": 2.731, "internal_energy": -0.839}

$$$$
EPH_relaxed_0001_pdb2pqr_Repair_232_r2_0001_out
     RDKit          3D

 82 86  0  0  0  0  0  0  0  0999 V2000
    0.4400    8.8610   -2.4620 C   0  0  0  0  0  0  0  0  0  0  0  0
    1.1960   10.0150   -3.1270 C   0  0  2  0  0  0  0  0  0  0  0  0
    2.6910   10.0240   -2.7510 C   0  0  0  0  0  0  0  0  0  0  0  0
    3.5970   10.6010   -3.8410 C   0  0  0  0  0  0  0  0  0  0  0  0
    4.9910   10.8300   -3.3400 C   0  0  2  0  0  0  0  0  0  0  0  0
    5.5980   12.0460   -3.7950 O   0  0  0  0  0  0  0  0  0  0  0  0
    6.2140   10.8260   -4.2380 C   0  0  0  0  0  0  0  0  0  0  0  0
    6.1000   10.5870   -5.7110 C   0  0  0  0  0  0  0  0  0  0  0  0
    7.5530   10.5680   -3.6220 C   0  0  0  0  0  0  0  0  0  0  0  0
    0.5550   11.3440   -2.7460 C   0  0  1  0  0  0  0  0  0  0  0  0
   -0.8180   11.1660   -2.0440 C   0  0  0  0  0  0  0  0  0  0  0  0
   -0.9310   12.2970   -0.9900 C   0  0  0  0  0  0  0  0  0  0  0  0
    0.2140   13.2760   -1.3430 C   0  0  1  0  0  0  0  0  0  0  0  0
   -0.3450   14.1410   -2.5160 C   0  0  0  0  0  0  0  0  0  0  0  0
    0.7480   14.1650   -0.1740 C   0  0  2  0  0  0  0  0  0  0  0  0
   -0.2820   15.1340    0.4320 C   0  0  0  0  0  0  0  0  0  0  0  0
   -0.3330   16.4860   -0.1980 C   0  0  0  0  0  0  0  0  0  0  0  0
    0.6020   17.0040   -1.0160 C   0  0  0  0  0  0  0  0  0  0  0  0
    1.9040   16.2450   -1.3030 C   0  0  1  0  0  0  0  0  0  0  0  0
    3.1080   17.2150   -1.1730 C   0  0  0  0  0  0  0  0  0  0  0  0
    2.9540   18.4590   -2.0420 C   0  0  0  0  0  0  0  0  0  0  0  0
    1.6780   19.2180   -1.6870 C   0  0  2  0  0  0  0  0  0  0  0  0
    1.8100   19.7480   -0.3640 O   0  0  0  0  0  0  0  0  0  0  0  0
    0.3990   18.3400   -1.7730 C   0  0  0  0  0  0  0  0  0  0  0  0
    0.0890   18.0160   -3.2550 C   0  0  0  0  0  0  0  0  0  0  0  0
   -0.7960   19.1840   -1.2550 C   0  0  0  0  0  0  0  0  0  0  0  0
    2.1160   14.8970   -0.4890 C   0  0  1  0  0  0  0  0  0  0  0  0
    2.7830   15.2060    0.8870 C   0  0  0  0  0  0  0  0  0  0  0  0
    3.1220   13.9750   -1.2730 C   0  0  0  0  0  0  0  0  0  0  0  0
    2.5190   13.0320   -2.3320 C   0  0  0  0  0  0  0  0  0  0  0  0
    1.3320   12.2510   -1.7590 C   0  0  2  0  0  0  0  0  0  0  0  0
    1.8680   11.3550   -0.5920 C   0  0  0  0  0  0  0  0  0  0  0  0
    0.5058    8.9614   -1.3686 H   0  0  0  0  0  0  0  0  0  0  0  0
   -0.6157    8.8885   -2.7699 H   0  0  0  0  0  0  0  0  0  0  0  0
    0.8869    7.9042   -2.7699 H   0  0  0  0  0  0  0  0  0  0  0  0
    1.1309    9.8691   -4.2153 H   0  0  0  0  0  0  0  0  0  0  0  0
    2.8162   10.6278   -1.8401 H   0  0  0  0  0  0  0  0  0  0  0  0
    2.9917    8.9760   -2.6051 H   0  0  0  0  0  0  0  0  0  0  0  0
    3.6328    9.8961   -4.6847 H   0  0  0  0  0  0  0  0  0  0  0  0
    3.1818   11.5703   -4.1542 H   0  0  0  0  0  0  0  0  0  0  0  0
    4.7645   10.3060   -2.3997 H   0  0  0  0  0  0  0  0  0  0  0  0
    5.6326    9.6072   -5.8884 H   0  0  0  0  0  0  0  0  0  0  0  0
    5.4811   11.3758   -6.1636 H   0  0  0  0  0  0  0  0  0  0  0  0
    7.1024   10.6024   -6.1636 H   0  0  0  0  0  0  0  0  0  0  0  0
    7.4619   10.5856   -2.5259 H   0  0  0  0  0  0  0  0  0  0  0  0
    7.9208    9.5825   -3.9436 H   0  0  0  0  0  0  0  0  0  0  0  0
    8.2607   11.3463   -3.9436 H   0  0  0  0  0  0  0  0  0  0  0  0
    0.5105   11.8182   -3.7375 H   0  0  0  0  0  0  0  0  0  0  0  0
   -1.6327   11.2498   -2.7784 H   0  0  0  0  0  0  0  0  0  0  0  0
   -0.8944   10.1759   -1.5708 H   0  0  0  0  0  0  0  0  0  0  0  0
   -1.9071   12.7990   -1.0623 H   0  0  0  0  0  0  0  0  0  0  0  0
   -0.8523   11.9171    0.0393 H   0  0  0  0  0  0  0  0  0  0  0  0
   -0.8993   14.9987   -2.1073 H   0  0  0  0  0  0  0  0  0  0  0  0
    0.4895   14.5044   -3.1337 H   0  0  0  0  0  0  0  0  0  0  0  0
   -1.0191   13.5294   -3.1337 H   0  0  0  0  0  0  0  0  0  0  0  0
    0.9566   13.4228    0.6106 H   0  0  0  0  0  0  0  0  0  0  0  0
   -1.2775   14.6761    0.3351 H   0  0  0  0  0  0  0  0  0  0  0  0
    0.0290   15.2957    1.4747 H   0  0  0  0  0  0  0  0  0  0  0  0
   -1.2092   17.1124    0.0251 H   0  0  0  0  0  0  0  0  0  0  0  0
    1.8236   15.8856   -2.3395 H   0  0  0  0  0  0  0  0  0  0  0  0
    3.1968   17.5278   -0.1222 H   0  0  0  0  0  0  0  0  0  0  0  0
    4.0064   16.6793   -1.5135 H   0  0  0  0  0  0  0  0  0  0  0  0
    3.8205   19.1179   -1.8841 H   0  0  0  0  0  0  0  0  0  0  0  0
    2.8952   18.1465   -3.0950 H   0  0  0  0  0  0  0  0  0  0  0  0
    1.5560   20.0227   -2.4270 H   0  0  0  0  0  0  0  0  0  0  0  0
    2.6820   19.4820   -0.0260 H   0  0  0  0  0  0  0  0  0  0  0  0
   -0.6707   17.2220   -3.3056 H   0  0  0  0  0  0  0  0  0  0  0  0
   -0.2902   18.9188   -3.7561 H   0  0  0  0  0  0  0  0  0  0  0  0
    1.0077   17.6770   -3.7561 H   0  0  0  0  0  0  0  0  0  0  0  0
   -0.7956   19.1837   -0.1550 H   0  0  0  0  0  0  0  0  0  0  0  0
   -0.7016   20.2169   -1.6214 H   0  0  0  0  0  0  0  0  0  0  0  0
   -1.7378   18.7496   -1.6214 H   0  0  0  0  0  0  0  0  0  0  0  0
    2.1098   14.8941    1.6991 H   0  0  0  0  0  0  0  0  0  0  0  0
    3.7323   14.6559    0.9661 H   0  0  0  0  0  0  0  0  0  0  0  0
    2.9772   16.2858    0.9661 H   0  0  0  0  0  0  0  0  0  0  0  0
    3.8448   14.6290   -1.7827 H   0  0  0  0  0  0  0  0  0  0  0  0
    3.5579   13.3116   -0.5115 H   0  0  0  0  0  0  0  0  0  0  0  0
    2.1767   13.6277   -3.1911 H   0  0  0  0  0  0  0  0  0  0  0  0
    3.2926   12.3150   -2.6442 H   0  0  0  0  0  0  0  0  0  0  0  0
    1.5967   11.8085    0.3728 H   0  0  0  0  0  0  0  0  0  0  0  0
    1.4211   10.3525   -0.6645 H   0  0  0  0  0  0  0  0  0  0  0  0
    2.9627   11.2746   -0.6645 H   0  0  0  0  0  0  0  0  0  0  0  0
  1  2  1  0
  2  3  1  0
  3  4  1  0
  4  5  1  0
  5  6  1  0
  6  7  1  0
  7  8  1  0
  7  9  1  0
  2 10  1  0
 10 11  1  0
 11 12  1  0
 12 13  1  0
 13 14  1  6
 13 15  1  0
 15 16  1  0
 16 17  1  0
 17 18  2  0
 18 19  1  0
 19 20  1  0
 20 21  1  0
 21 22  1  0
 22 23  1  0
 22 24  1  0
 24 25  1  0
 24 26  1  0
 19 27  1  0
 27 28  1  1
 27 29  1  0
 29 30  1  0
 30 31  1  0
 31 32  1  1
  7  5  1  0
 31 10  1  0
 31 13  1  0
 27 15  1  0
 24 18  1  0
  1 33  1  0
  1 34  1  0
  1 35  1  0
  2 36  1  6
  3 37  1  0
  3 38  1  0
  4 39  1  0
  4 40  1  0
  5 41  1  1
  8 42  1  0
  8 43  1  0
  8 44  1  0
  9 45  1  0
  9 46  1  0
  9 47  1  0
 10 48  1  6
 11 49  1  0
 11 50  1  0
 12 51  1  0
 12 52  1  0
 14 53  1  0
 14 54  1  0
 14 55  1  0
 15 56  1  1
 16 57  1  0
 16 58  1  0
 17 59  1  0
 19 60  1  6
 20 61  1  0
 20 62  1  0
 21 63  1  0
 21 64  1  0
 22 65  1  6
 23 66  1  0
 25 67  1  0
 25 68  1  0
 25 69  1  0
 26 70  1  0
 26 71  1  0
 26 72  1  0
 28 73  1  0
 28 74  1  0
 28 75  1  0
 29 76  1  0
 29 77  1  0
 30 78  1  0
 30 79  1  0
 32 80  1  0
 32 81  1  0
 32 82  1  0
M  END
>  <meeko>  (8) 
{"is_sidechain": [false], "intermolecular_energy": 2.731, "internal_energy": -0.839}

$$$$
EPH_relaxed_0001_pdb2pqr_Repair_232_r2_0001_out
     RDKit          3D

 82 86  0  0  0  0  0  0  0  0999 V2000
   -3.7330    7.1800   -3.3630 C   0  0  0  0  0  0  0  0  0  0  0  0
   -3.7570    7.2810   -1.8350 C   0  0  2  0  0  0  0  0  0  0  0  0
   -5.1750    7.0790   -1.2630 C   0  0  0  0  0  0  0  0  0  0  0  0
   -6.2870    7.2330   -2.3040 C   0  0  0  0  0  0  0  0  0  0  0  0
   -7.6220    7.4540   -1.6590 C   0  0  2  0  0  0  0  0  0  0  0  0
   -8.2210    6.2760   -1.1030 O   0  0  0  0  0  0  0  0  0  0  0  0
   -8.9180    6.8820   -2.2040 C   0  0  0  0  0  0  0  0  0  0  0  0
   -8.9420    6.0460   -3.4440 C   0  0  0  0  0  0  0  0  0  0  0  0
  -10.2070    7.5350   -1.8140 C   0  0  0  0  0  0  0  0  0  0  0  0
   -3.2050    8.6310   -1.3950 C   0  0  1  0  0  0  0  0  0  0  0  0
   -3.8180    9.1190   -0.0550 C   0  0  0  0  0  0  0  0  0  0  0  0
   -2.6970    9.8790    0.6990 C   0  0  0  0  0  0  0  0  0  0  0  0
   -1.5890   10.0920   -0.3600 C   0  0  1  0  0  0  0  0  0  0  0  0
   -2.0540   11.3350   -1.1810 C   0  0  0  0  0  0  0  0  0  0  0  0
   -0.1360   10.2710    0.1870 C   0  0  2  0  0  0  0  0  0  0  0  0
    0.0780   11.5060    1.0790 C   0  0  0  0  0  0  0  0  0  0  0  0
    0.4960   12.7470    0.3620 C   0  0  0  0  0  0  0  0  0  0  0  0
    0.9670   12.8000   -0.8980 C   0  0  0  0  0  0  0  0  0  0  0  0
    1.2110   11.5170   -1.7030 C   0  0  1  0  0  0  0  0  0  0  0  0
    2.6000   11.5930   -2.3890 C   0  0  0  0  0  0  0  0  0  0  0  0
    2.7680   12.8530   -3.2340 C   0  0  0  0  0  0  0  0  0  0  0  0
    2.5750   14.1070   -2.3860 C   0  0  2  0  0  0  0  0  0  0  0  0
    3.6450   14.1930   -1.4400 O   0  0  0  0  0  0  0  0  0  0  0  0
    1.2130   14.1380   -1.6380 C   0  0  0  0  0  0  0  0  0  0  0  0
    0.0650   14.3490   -2.6560 C   0  0  0  0  0  0  0  0  0  0  0  0
    1.2050   15.3840   -0.7110 C   0  0  0  0  0  0  0  0  0  0  0  0
    0.9910   10.1540   -0.9180 C   0  0  1  0  0  0  0  0  0  0  0  0
    2.3020    9.7510   -0.1750 C   0  0  0  0  0  0  0  0  0  0  0  0
    0.6970    9.0050   -1.9530 C   0  0  0  0  0  0  0  0  0  0  0  0
   -0.7740    8.8000   -2.3630 C   0  0  0  0  0  0  0  0  0  0  0  0
   -1.6810    8.7250   -1.1310 C   0  0  2  0  0  0  0  0  0  0  0  0
   -1.2530    7.4700   -0.2970 C   0  0  0  0  0  0  0  0  0  0  0  0
   -3.4880    6.1491   -3.6585 H   0  0  0  0  0  0  0  0  0  0  0  0
   -4.7207    7.4515   -3.7640 H   0  0  0  0  0  0  0  0  0  0  0  0
   -2.9730    7.8668   -3.7640 H   0  0  0  0  0  0  0  0  0  0  0  0
   -3.1230    6.4739   -1.4392 H   0  0  0  0  0  0  0  0  0  0  0  0
   -5.2364    6.0669   -0.8366 H   0  0  0  0  0  0  0  0  0  0  0  0
   -5.3313    7.8632   -0.5077 H   0  0  0  0  0  0  0  0  0  0  0  0
   -6.0554    8.0937   -2.9486 H   0  0  0  0  0  0  0  0  0  0  0  0
   -6.3388    6.3042   -2.8911 H   0  0  0  0  0  0  0  0  0  0  0  0
   -7.3340    8.4713   -1.3555 H   0  0  0  0  0  0  0  0  0  0  0  0
   -8.9726    4.9816   -3.1681 H   0  0  0  0  0  0  0  0  0  0  0  0
   -9.8333    6.2966   -4.0379 H   0  0  0  0  0  0  0  0  0  0  0  0
   -8.0378    6.2450   -4.0379 H   0  0  0  0  0  0  0  0  0  0  0  0
  -10.2817    7.5728   -0.7172 H   0  0  0  0  0  0  0  0  0  0  0  0
  -10.2374    8.5572   -2.2191 H   0  0  0  0  0  0  0  0  0  0  0  0
  -11.0492    6.9548   -2.2191 H   0  0  0  0  0  0  0  0  0  0  0  0
   -3.4723    9.2348   -2.2748 H   0  0  0  0  0  0  0  0  0  0  0  0
   -4.6668    9.7911   -0.2493 H   0  0  0  0  0  0  0  0  0  0  0  0
   -4.1907    8.2724    0.5404 H   0  0  0  0  0  0  0  0  0  0  0  0
   -3.0669   10.8448    1.0736 H   0  0  0  0  0  0  0  0  0  0  0  0
   -2.3340    9.3237    1.5765 H   0  0  0  0  0  0  0  0  0  0  0  0
   -2.3544   12.1381   -0.4919 H   0  0  0  0  0  0  0  0  0  0  0  0
   -1.2265   11.6862   -1.8149 H   0  0  0  0  0  0  0  0  0  0  0  0
   -2.9089   11.0569   -1.8149 H   0  0  0  0  0  0  0  0  0  0  0  0
   -0.0248    9.4007    0.8505 H   0  0  0  0  0  0  0  0  0  0  0  0
   -0.8676   11.7168    1.5999 H   0  0  0  0  0  0  0  0  0  0  0  0
    0.9072   11.2521    1.7557 H   0  0  0  0  0  0  0  0  0  0  0  0
    0.4121   13.6976    0.9091 H   0  0  0  0  0  0  0  0  0  0  0  0
    0.4196   11.4812   -2.4662 H   0  0  0  0  0  0  0  0  0  0  0  0
    3.3781   11.5836   -1.6115 H   0  0  0  0  0  0  0  0  0  0  0  0
    2.6881   10.7265   -3.0609 H   0  0  0  0  0  0  0  0  0  0  0  0
    3.7788   12.8636   -3.6678 H   0  0  0  0  0  0  0  0  0  0  0  0
    2.0085   12.8464   -4.0297 H   0  0  0  0  0  0  0  0  0  0  0  0
    2.5774   14.9697   -3.0685 H   0  0  0  0  0  0  0  0  0  0  0  0
    3.9280   13.2860   -1.2320 H   0  0  0  0  0  0  0  0  0  0  0  0
   -0.8772   14.5222   -2.1154 H   0  0  0  0  0  0  0  0  0  0  0  0
    0.2908   15.2207   -3.2878 H   0  0  0  0  0  0  0  0  0  0  0  0
   -0.0339   13.4540   -3.2878 H   0  0  0  0  0  0  0  0  0  0  0  0
    1.2071   15.0592    0.3399 H   0  0  0  0  0  0  0  0  0  0  0  0
    2.0993   15.9935   -0.9082 H   0  0  0  0  0  0  0  0  0  0  0  0
    0.3030   15.9819   -0.9082 H   0  0  0  0  0  0  0  0  0  0  0  0
    2.1380    9.8014    0.9115 H   0  0  0  0  0  0  0  0  0  0  0  0
    2.5824    8.7252   -0.4563 H   0  0  0  0  0  0  0  0  0  0  0  0
    3.1102   10.4422   -0.4563 H   0  0  0  0  0  0  0  0  0  0  0  0
    1.2696    9.2249   -2.8661 H   0  0  0  0  0  0  0  0  0  0  0  0
    0.9857    8.0752   -1.4411 H   0  0  0  0  0  0  0  0  0  0  0  0
   -1.0926    9.6430   -2.9937 H   0  0  0  0  0  0  0  0  0  0  0  0
   -0.8552    7.8529   -2.9166 H   0  0  0  0  0  0  0  0  0  0  0  0
   -1.3310    7.6988    0.7761 H   0  0  0  0  0  0  0  0  0  0  0  0
   -1.9138    6.6250   -0.5407 H   0  0  0  0  0  0  0  0  0  0  0  0
   -0.2136    7.2048   -0.5407 H   0  0  0  0  0  0  0  0  0  0  0  0
  1  2  1  0
  2  3  1  0
  3  4  1  0
  4  5  1  0
  5  6  1  0
  6  7  1  0
  7  8  1  0
  7  9  1  0
  2 10  1  0
 10 11  1  0
 11 12  1  0
 12 13  1  0
 13 14  1  6
 13 15  1  0
 15 16  1  0
 16 17  1  0
 17 18  2  0
 18 19  1  0
 19 20  1  0
 20 21  1  0
 21 22  1  0
 22 23  1  0
 22 24  1  0
 24 25  1  0
 24 26  1  0
 19 27  1  0
 27 28  1  1
 27 29  1  0
 29 30  1  0
 30 31  1  0
 31 32  1  1
  7  5  1  0
 31 10  1  0
 31 13  1  0
 27 15  1  0
 24 18  1  0
  1 33  1  0
  1 34  1  0
  1 35  1  0
  2 36  1  1
  3 37  1  0
  3 38  1  0
  4 39  1  0
  4 40  1  0
  5 41  1  1
  8 42  1  0
  8 43  1  0
  8 44  1  0
  9 45  1  0
  9 46  1  0
  9 47  1  0
 10 48  1  6
 11 49  1  0
 11 50  1  0
 12 51  1  0
 12 52  1  0
 14 53  1  0
 14 54  1  0
 14 55  1  0
 15 56  1  1
 16 57  1  0
 16 58  1  0
 17 59  1  0
 19 60  1  6
 20 61  1  0
 20 62  1  0
 21 63  1  0
 21 64  1  0
 22 65  1  6
 23 66  1  0
 25 67  1  0
 25 68  1  0
 25 69  1  0
 26 70  1  0
 26 71  1  0
 26 72  1  0
 28 73  1  0
 28 74  1  0
 28 75  1  0
 29 76  1  0
 29 77  1  0
 30 78  1  0
 30 79  1  0
 32 80  1  0
 32 81  1  0
 32 82  1  0
M  END
>  <meeko>  (9) 
{"is_sidechain": [false], "intermolecular_energy": 2.731, "internal_energy": -0.839}

$$$$
EPH_relaxed_0001_pdb2pqr_Repair_232_r2_0001_out
     RDKit          3D

 82 86  0  0  0  0  0  0  0  0999 V2000
   -0.8660   16.3570   -5.8380 C   0  0  0  0  0  0  0  0  0  0  0  0
    0.2260   15.6550   -6.6510 C   0  0  2  0  0  0  0  0  0  0  0  0
   -0.1730   15.4790   -8.1300 C   0  0  0  0  0  0  0  0  0  0  0  0
    0.4660   16.5090   -9.0660 C   0  0  0  0  0  0  0  0  0  0  0  0
    1.8630   16.1220   -9.4440 C   0  0  2  0  0  0  0  0  0  0  0  0
    2.3260   16.6820  -10.6800 O   0  0  0  0  0  0  0  0  0  0  0  0
    2.1960   15.2510  -10.6410 C   0  0  0  0  0  0  0  0  0  0  0  0
    1.1240   14.7140  -11.5370 C   0  0  0  0  0  0  0  0  0  0  0  0
    3.5060   14.5260  -10.6570 C   0  0  0  0  0  0  0  0  0  0  0  0
    0.5440   14.2990   -6.0320 C   0  0  1  0  0  0  0  0  0  0  0  0
    1.8000   13.6370   -6.6580 C   0  0  0  0  0  0  0  0  0  0  0  0
    2.5140   12.8650   -5.5180 C   0  0  0  0  0  0  0  0  0  0  0  0
    1.4830   12.8310   -4.3650 C   0  0  1  0  0  0  0  0  0  0  0  0
    0.5180   11.6580   -4.7250 C   0  0  0  0  0  0  0  0  0  0  0  0
    2.0650   12.6780   -2.9220 C   0  0  2  0  0  0  0  0  0  0  0  0
    2.8300   11.3680   -2.6630 C   0  0  0  0  0  0  0  0  0  0  0  0
    2.0030   10.2380   -2.1470 C   0  0  0  0  0  0  0  0  0  0  0  0
    0.7640   10.3460   -1.6320 C   0  0  0  0  0  0  0  0  0  0  0  0
    0.1090   11.7200   -1.4400 C   0  0  1  0  0  0  0  0  0  0  0  0
   -0.5260   11.7980   -0.0270 C   0  0  0  0  0  0  0  0  0  0  0  0
   -1.4910   10.6470    0.2450 C   0  0  0  0  0  0  0  0  0  0  0  0
   -0.7870    9.3000    0.1010 C   0  0  2  0  0  0  0  0  0  0  0  0
    0.1860    9.1750    1.1430 O   0  0  0  0  0  0  0  0  0  0  0  0
   -0.1020    9.1110   -1.2800 C   0  0  0  0  0  0  0  0  0  0  0  0
   -1.1810    8.9450   -2.3790 C   0  0  0  0  0  0  0  0  0  0  0  0
    0.6880    7.7750   -1.2430 C   0  0  0  0  0  0  0  0  0  0  0  0
    1.0240   12.9770   -1.7690 C   0  0  1  0  0  0  0  0  0  0  0  0
    1.8560   13.3720   -0.5100 C   0  0  0  0  0  0  0  0  0  0  0  0
    0.1030   14.2110   -2.0980 C   0  0  0  0  0  0  0  0  0  0  0  0
   -0.3400   14.3740   -3.5640 C   0  0  0  0  0  0  0  0  0  0  0  0
    0.8560   14.2650   -4.5150 C   0  0  2  0  0  0  0  0  0  0  0  0
    1.8340   15.4450   -4.1920 C   0  0  0  0  0  0  0  0  0  0  0  0
   -0.6644   16.2274   -4.7644 H   0  0  0  0  0  0  0  0  0  0  0  0
   -0.8732   17.4294   -6.0829 H   0  0  0  0  0  0  0  0  0  0  0  0
   -1.8446   15.9184   -6.0829 H   0  0  0  0  0  0  0  0  0  0  0  0
    1.1206   16.2946   -6.6249 H   0  0  0  0  0  0  0  0  0  0  0  0
    0.1356   14.4748   -8.4560 H   0  0  0  0  0  0  0  0  0  0  0  0
   -1.2620   15.6227   -8.1888 H   0  0  0  0  0  0  0  0  0  0  0  0
   -0.1421   16.5864   -9.9794 H   0  0  0  0  0  0  0  0  0  0  0  0
    0.5080   17.4730   -8.5379 H   0  0  0  0  0  0  0  0  0  0  0  0
    2.1582   16.0653   -8.3859 H   0  0  0  0  0  0  0  0  0  0  0  0
    0.3063   14.3044  -10.9257 H   0  0  0  0  0  0  0  0  0  0  0  0
    0.7367   15.5245  -12.1719 H   0  0  0  0  0  0  0  0  0  0  0  0
    1.5412   13.9185  -12.1719 H   0  0  0  0  0  0  0  0  0  0  0  0
    3.8365   14.3431   -9.6239 H   0  0  0  0  0  0  0  0  0  0  0  0
    3.3870   13.5653  -11.1794 H   0  0  0  0  0  0  0  0  0  0  0  0
    4.2569   15.1370  -11.1794 H   0  0  0  0  0  0  0  0  0  0  0  0
   -0.4038   13.7779   -6.2325 H   0  0  0  0  0  0  0  0  0  0  0  0
    1.5033   12.9425   -7.4578 H   0  0  0  0  0  0  0  0  0  0  0  0
    2.4657   14.3927   -7.1005 H   0  0  0  0  0  0  0  0  0  0  0  0
    2.7697   11.8449   -5.8406 H   0  0  0  0  0  0  0  0  0  0  0  0
    3.4589   13.3421   -5.2190 H   0  0  0  0  0  0  0  0  0  0  0  0
    0.1394   11.1978   -3.8004 H   0  0  0  0  0  0  0  0  0  0  0  0
   -0.3263   12.0454   -5.3141 H   0  0  0  0  0  0  0  0  0  0  0  0
    1.0609   10.9042   -5.3141 H   0  0  0  0  0  0  0  0  0  0  0  0
    2.8200   13.4771   -2.8855 H   0  0  0  0  0  0  0  0  0  0  0  0
    3.2880   11.0488   -3.6108 H   0  0  0  0  0  0  0  0  0  0  0  0
    3.5622   11.5942   -1.8739 H   0  0  0  0  0  0  0  0  0  0  0  0
    2.4434    9.2310   -2.1913 H   0  0  0  0  0  0  0  0  0  0  0  0
   -0.6767   11.7919   -2.2065 H   0  0  0  0  0  0  0  0  0  0  0  0
    0.2781   11.7689    0.7231 H   0  0  0  0  0  0  0  0  0  0  0  0
   -1.0992   12.7351    0.0304 H   0  0  0  0  0  0  0  0  0  0  0  0
   -1.8837   10.7405    1.2682 H   0  0  0  0  0  0  0  0  0  0  0  0
   -2.3106   10.6952   -0.4871 H   0  0  0  0  0  0  0  0  0  0  0  0
   -1.5550    8.5163    0.1787 H   0  0  0  0  0  0  0  0  0  0  0  0
    0.8780    9.8380    0.9800 H   0  0  0  0  0  0  0  0  0  0  0  0
   -2.1636    8.7938   -1.9082 H   0  0  0  0  0  0  0  0  0  0  0  0
   -1.2094    9.8493   -3.0046 H   0  0  0  0  0  0  0  0  0  0  0  0
   -0.9362    8.0739   -3.0046 H   0  0  0  0  0  0  0  0  0  0  0  0
    0.8620    7.4808   -0.1975 H   0  0  0  0  0  0  0  0  0  0  0  0
    0.1078    6.9917   -1.7527 H   0  0  0  0  0  0  0  0  0  0  0  0
    1.6540    7.9060   -1.7527 H   0  0  0  0  0  0  0  0  0  0  0  0
    1.2954   13.1059    0.3983 H   0  0  0  0  0  0  0  0  0  0  0  0
    2.8148   12.8330   -0.5202 H   0  0  0  0  0  0  0  0  0  0  0  0
    2.0444   14.4557   -0.5202 H   0  0  0  0  0  0  0  0  0  0  0  0
   -0.8051   14.1220   -1.4836 H   0  0  0  0  0  0  0  0  0  0  0  0
    0.7193   15.0963   -1.8828 H   0  0  0  0  0  0  0  0  0  0  0  0
   -1.0676   13.5864   -3.8095 H   0  0  0  0  0  0  0  0  0  0  0  0
   -0.7934   15.3690   -3.6842 H   0  0  0  0  0  0  0  0  0  0  0  0
    1.9265   15.5566   -3.1016 H   0  0  0  0  0  0  0  0  0  0  0  0
    2.8227   15.2304   -4.6238 H   0  0  0  0  0  0  0  0  0  0  0  0
    1.4397   16.3767   -4.6238 H   0  0  0  0  0  0  0  0  0  0  0  0
  1  2  1  0
  2  3  1  0
  3  4  1  0
  4  5  1  0
  5  6  1  0
  6  7  1  0
  7  8  1  0
  7  9  1  0
  2 10  1  0
 10 11  1  0
 11 12  1  0
 12 13  1  0
 13 14  1  6
 13 15  1  0
 15 16  1  0
 16 17  1  0
 17 18  2  0
 18 19  1  0
 19 20  1  0
 20 21  1  0
 21 22  1  0
 22 23  1  0
 22 24  1  0
 24 25  1  0
 24 26  1  0
 19 27  1  0
 27 28  1  1
 27 29  1  0
 29 30  1  0
 30 31  1  0
 31 32  1  1
  7  5  1  0
 31 10  1  0
 31 13  1  0
 27 15  1  0
 24 18  1  0
  1 33  1  0
  1 34  1  0
  1 35  1  0
  2 36  1  6
  3 37  1  0
  3 38  1  0
  4 39  1  0
  4 40  1  0
  5 41  1  1
  8 42  1  0
  8 43  1  0
  8 44  1  0
  9 45  1  0
  9 46  1  0
  9 47  1  0
 10 48  1  1
 11 49  1  0
 11 50  1  0
 12 51  1  0
 12 52  1  0
 14 53  1  0
 14 54  1  0
 14 55  1  0
 15 56  1  6
 16 57  1  0
 16 58  1  0
 17 59  1  0
 19 60  1  6
 20 61  1  0
 20 62  1  0
 21 63  1  0
 21 64  1  0
 22 65  1  1
 23 66  1  0
 25 67  1  0
 25 68  1  0
 25 69  1  0
 26 70  1  0
 26 71  1  0
 26 72  1  0
 28 73  1  0
 28 74  1  0
 28 75  1  0
 29 76  1  0
 29 77  1  0
 30 78  1  0
 30 79  1  0
 32 80  1  0
 32 81  1  0
 32 82  1  0
M  END
>  <meeko>  (10) 
{"is_sidechain": [false], "intermolecular_energy": 2.731, "internal_energy": -0.839}

$$$$
EPH_relaxed_0001_pdb2pqr_Repair_232_r2_0001_out
     RDKit          3D

 82 86  0  0  0  0  0  0  0  0999 V2000
   -4.9360    9.2010   -0.4840 C   0  0  0  0  0  0  0  0  0  0  0  0
   -5.1740    8.0080   -1.4140 C   0  0  2  0  0  0  0  0  0  0  0  0
   -4.1540    7.9610   -2.5700 C   0  0  0  0  0  0  0  0  0  0  0  0
   -2.7120    7.7300   -2.1100 C   0  0  0  0  0  0  0  0  0  0  0  0
   -1.8260    8.8860   -2.4650 C   0  0  2  0  0  0  0  0  0  0  0  0
   -0.4220    8.6260   -2.3340 O   0  0  0  0  0  0  0  0  0  0  0  0
   -0.9670    9.6220   -1.4540 C   0  0  0  0  0  0  0  0  0  0  0  0
   -0.9530    9.2320   -0.0100 C   0  0  0  0  0  0  0  0  0  0  0  0
   -0.5220   11.0160   -1.7740 C   0  0  0  0  0  0  0  0  0  0  0  0
   -6.5910    8.0580   -1.9720 C   0  0  1  0  0  0  0  0  0  0  0  0
   -6.7290    7.3060   -3.3220 C   0  0  0  0  0  0  0  0  0  0  0  0
   -8.1410    6.6670   -3.3360 C   0  0  0  0  0  0  0  0  0  0  0  0
   -8.8850    7.3390   -2.1580 C   0  0  1  0  0  0  0  0  0  0  0  0
   -9.3650    8.7140   -2.7200 C   0  0  0  0  0  0  0  0  0  0  0  0
  -10.0670    6.5270   -1.5340 C   0  0  2  0  0  0  0  0  0  0  0  0
  -11.2380    6.2410   -2.4890 C   0  0  0  0  0  0  0  0  0  0  0  0
  -12.3200    7.2690   -2.4970 C   0  0  0  0  0  0  0  0  0  0  0  0
  -12.4940    8.2290   -1.5700 C   0  0  0  0  0  0  0  0  0  0  0  0
  -11.6060    8.2870   -0.3200 C   0  0  1  0  0  0  0  0  0  0  0  0
  -12.4920    8.5000    0.9350 C   0  0  0  0  0  0  0  0  0  0  0  0
  -13.4030    9.7180    0.8090 C   0  0  0  0  0  0  0  0  0  0  0  0
  -14.3110    9.5960   -0.4120 C   0  0  2  0  0  0  0  0  0  0  0  0
  -15.2240    8.5150   -0.2010 O   0  0  0  0  0  0  0  0  0  0  0  0
  -13.5290    9.3690   -1.7360 C   0  0  0  0  0  0  0  0  0  0  0  0
  -12.7700   10.6630   -2.1210 C   0  0  0  0  0  0  0  0  0  0  0  0
  -14.5650    9.1220   -2.8660 C   0  0  0  0  0  0  0  0  0  0  0  0
  -10.5770    7.0890   -0.1450 C   0  0  1  0  0  0  0  0  0  0  0  0
  -11.2650    5.8990    0.5910 C   0  0  0  0  0  0  0  0  0  0  0  0
   -9.3930    7.5590    0.7810 C   0  0  0  0  0  0  0  0  0  0  0  0
   -8.2010    8.2480    0.0900 C   0  0  0  0  0  0  0  0  0  0  0  0
   -7.7160    7.4300   -1.1110 C   0  0  2  0  0  0  0  0  0  0  0  0
   -7.2070    6.0490   -0.5750 C   0  0  0  0  0  0  0  0  0  0  0  0
   -5.0022    8.8690    0.5626 H   0  0  0  0  0  0  0  0  0  0  0  0
   -3.9366    9.6198   -0.6733 H   0  0  0  0  0  0  0  0  0  0  0  0
   -5.6982    9.9712   -0.6733 H   0  0  0  0  0  0  0  0  0  0  0  0
   -5.0414    7.0927   -0.8185 H   0  0  0  0  0  0  0  0  0  0  0  0
   -4.4368    7.1436   -3.2496 H   0  0  0  0  0  0  0  0  0  0  0  0
   -4.1806    8.9444   -3.0621 H   0  0  0  0  0  0  0  0  0  0  0  0
   -2.7030    7.5958   -1.0182 H   0  0  0  0  0  0  0  0  0  0  0  0
   -2.3283    6.8340   -2.6199 H   0  0  0  0  0  0  0  0  0  0  0  0
   -2.5473    9.2392   -3.2167 H   0  0  0  0  0  0  0  0  0  0  0  0
   -0.9855   10.1369    0.6145 H   0  0  0  0  0  0  0  0  0  0  0  0
   -1.8292    8.6039    0.2087 H   0  0  0  0  0  0  0  0  0  0  0  0
   -0.0340    8.6684    0.2087 H   0  0  0  0  0  0  0  0  0  0  0  0
   -0.3457   11.5683   -0.8392 H   0  0  0  0  0  0  0  0  0  0  0  0
    0.4089   10.9786   -2.3589 H   0  0  0  0  0  0  0  0  0  0  0  0
   -1.3024   11.5248   -2.3589 H   0  0  0  0  0  0  0  0  0  0  0  0
   -6.7269    9.1479   -2.0330 H   0  0  0  0  0  0  0  0  0  0  0  0
   -6.6237    8.0103   -4.1604 H   0  0  0  0  0  0  0  0  0  0  0  0
   -5.9475    6.5392   -3.4285 H   0  0  0  0  0  0  0  0  0  0  0  0
   -8.6521    6.8753   -4.2875 H   0  0  0  0  0  0  0  0  0  0  0  0
   -8.1045    5.5721   -3.2362 H   0  0  0  0  0  0  0  0  0  0  0  0
   -9.6008    9.3895   -1.8845 H   0  0  0  0  0  0  0  0  0  0  0  0
   -8.5683    9.1567   -3.3358 H   0  0  0  0  0  0  0  0  0  0  0  0
  -10.2642    8.5647   -3.3358 H   0  0  0  0  0  0  0  0  0  0  0  0
   -9.6020    5.5508   -1.3320 H   0  0  0  0  0  0  0  0  0  0  0  0
  -10.8338    6.1651   -3.5092 H   0  0  0  0  0  0  0  0  0  0  0  0
  -11.7039    5.3117   -2.1293 H   0  0  0  0  0  0  0  0  0  0  0  0
  -13.0361    7.2395   -3.3315 H   0  0  0  0  0  0  0  0  0  0  0  0
  -10.9415    9.1526   -0.4585 H   0  0  0  0  0  0  0  0  0  0  0  0
  -13.1165    7.6064    1.0815 H   0  0  0  0  0  0  0  0  0  0  0  0
  -11.8226    8.6711    1.7909 H   0  0  0  0  0  0  0  0  0  0  0  0
  -14.0244    9.7979    1.7132 H   0  0  0  0  0  0  0  0  0  0  0  0
  -12.7764   10.6146    0.6925 H   0  0  0  0  0  0  0  0  0  0  0  0
  -14.8453   10.5511   -0.5231 H   0  0  0  0  0  0  0  0  0  0  0  0
  -14.8280    7.7150   -0.5870 H   0  0  0  0  0  0  0  0  0  0  0  0
  -12.4599   11.1917   -1.2076 H   0  0  0  0  0  0  0  0  0  0  0  0
  -11.8808   10.4038   -2.7144 H   0  0  0  0  0  0  0  0  0  0  0  0
  -13.4302   11.3126   -2.7144 H   0  0  0  0  0  0  0  0  0  0  0  0
  -15.5438    8.8886   -2.4215 H   0  0  0  0  0  0  0  0  0  0  0  0
  -14.6509   10.0248   -3.4885 H   0  0  0  0  0  0  0  0  0  0  0  0
  -14.2343    8.2775   -3.4885 H   0  0  0  0  0  0  0  0  0  0  0  0
  -11.1818    6.0430    1.6784 H   0  0  0  0  0  0  0  0  0  0  0  0
  -12.3269    5.8568    0.3069 H   0  0  0  0  0  0  0  0  0  0  0  0
  -10.7718    4.9577    0.3069 H   0  0  0  0  0  0  0  0  0  0  0  0
   -9.8058    8.2662    1.5155 H   0  0  0  0  0  0  0  0  0  0  0  0
   -8.9805    6.6346    1.2116 H   0  0  0  0  0  0  0  0  0  0  0  0
   -8.5124    9.2448   -0.2556 H   0  0  0  0  0  0  0  0  0  0  0  0
   -7.3766    8.3316    0.8134 H   0  0  0  0  0  0  0  0  0  0  0  0
   -7.2106    6.0587    0.5250 H   0  0  0  0  0  0  0  0  0  0  0  0
   -7.8692    5.2486   -0.9368 H   0  0  0  0  0  0  0  0  0  0  0  0
   -6.1838    5.8698   -0.9368 H   0  0  0  0  0  0  0  0  0  0  0  0
  1  2  1  0
  2  3  1  0
  3  4  1  0
  4  5  1  0
  5  6  1  0
  6  7  1  0
  7  8  1  0
  7  9  1  0
  2 10  1  0
 10 11  1  0
 11 12  1  0
 12 13  1  0
 13 14  1  6
 13 15  1  0
 15 16  1  0
 16 17  1  0
 17 18  2  0
 18 19  1  0
 19 20  1  0
 20 21  1  0
 21 22  1  0
 22 23  1  0
 22 24  1  0
 24 25  1  0
 24 26  1  0
 19 27  1  0
 27 28  1  1
 27 29  1  0
 29 30  1  0
 30 31  1  0
 31 32  1  1
  7  5  1  0
 31 10  1  0
 31 13  1  0
 27 15  1  0
 24 18  1  0
  1 33  1  0
  1 34  1  0
  1 35  1  0
  2 36  1  1
  3 37  1  0
  3 38  1  0
  4 39  1  0
  4 40  1  0
  5 41  1  6
  8 42  1  0
  8 43  1  0
  8 44  1  0
  9 45  1  0
  9 46  1  0
  9 47  1  0
 10 48  1  6
 11 49  1  0
 11 50  1  0
 12 51  1  0
 12 52  1  0
 14 53  1  0
 14 54  1  0
 14 55  1  0
 15 56  1  1
 16 57  1  0
 16 58  1  0
 17 59  1  0
 19 60  1  6
 20 61  1  0
 20 62  1  0
 21 63  1  0
 21 64  1  0
 22 65  1  6
 23 66  1  0
 25 67  1  0
 25 68  1  0
 25 69  1  0
 26 70  1  0
 26 71  1  0
 26 72  1  0
 28 73  1  0
 28 74  1  0
 28 75  1  0
 29 76  1  0
 29 77  1  0
 30 78  1  0
 30 79  1  0
 32 80  1  0
 32 81  1  0
 32 82  1  0
M  END
>  <meeko>  (11) 
{"is_sidechain": [false], "intermolecular_energy": 2.731, "internal_energy": -0.839}

$$$$
EPH_relaxed_0001_pdb2pqr_Repair_232_r2_0001_out
     RDKit          3D

 82 86  0  0  0  0  0  0  0  0999 V2000
    0.1870    9.3170   -2.3910 C   0  0  0  0  0  0  0  0  0  0  0  0
    1.1780   10.3770   -2.8810 C   0  0  2  0  0  0  0  0  0  0  0  0
    2.6020    9.8090   -3.0460 C   0  0  0  0  0  0  0  0  0  0  0  0
    3.5030   10.6570   -3.9470 C   0  0  0  0  0  0  0  0  0  0  0  0
    4.8880   10.7800   -3.3870 C   0  0  2  0  0  0  0  0  0  0  0  0
    5.5930   11.9630   -3.7880 O   0  0  0  0  0  0  0  0  0  0  0  0
    6.1430   10.7140   -4.2380 C   0  0  0  0  0  0  0  0  0  0  0  0
    6.0720   10.5170   -5.7200 C   0  0  0  0  0  0  0  0  0  0  0  0
    7.4370   10.3520   -3.5780 C   0  0  0  0  0  0  0  0  0  0  0  0
    1.1970   11.5560   -1.9150 C   0  0  1  0  0  0  0  0  0  0  0  0
    2.2690   11.4010   -0.8030 C   0  0  0  0  0  0  0  0  0  0  0  0
    2.8090   12.8220   -0.5010 C   0  0  0  0  0  0  0  0  0  0  0  0
    1.8110   13.7760   -1.1990 C   0  0  1  0  0  0  0  0  0  0  0  0
    0.6060   13.8870   -0.2120 C   0  0  0  0  0  0  0  0  0  0  0  0
    2.3630   15.1830   -1.5970 C   0  0  2  0  0  0  0  0  0  0  0  0
    2.8240   16.0600   -0.4200 C   0  0  0  0  0  0  0  0  0  0  0  0
    1.7750   16.9480    0.1630 C   0  0  0  0  0  0  0  0  0  0  0  0
    0.5970   17.2500   -0.4140 C   0  0  0  0  0  0  0  0  0  0  0  0
    0.2620   16.7570   -1.8270 C   0  0  1  0  0  0  0  0  0  0  0  0
   -0.3210   17.9280   -2.6600 C   0  0  0  0  0  0  0  0  0  0  0  0
   -1.5120   18.5940   -1.9780 C   0  0  0  0  0  0  0  0  0  0  0  0
   -1.1250   19.1230   -0.5990 C   0  0  2  0  0  0  0  0  0  0  0  0
   -0.1910   20.1940   -0.7620 O   0  0  0  0  0  0  0  0  0  0  0  0
   -0.5160   18.0330    0.3260 C   0  0  0  0  0  0  0  0  0  0  0  0
   -1.6190   17.0310    0.7470 C   0  0  0  0  0  0  0  0  0  0  0  0
   -0.0390   18.7270    1.6310 C   0  0  0  0  0  0  0  0  0  0  0  0
    1.4280   15.9890   -2.5880 C   0  0  1  0  0  0  0  0  0  0  0  0
    2.3430   17.0120   -3.3300 C   0  0  0  0  0  0  0  0  0  0  0  0
    0.7980   15.0690   -3.6990 C   0  0  0  0  0  0  0  0  0  0  0  0
    0.3830   13.6480   -3.2710 C   0  0  0  0  0  0  0  0  0  0  0  0
    1.5130   12.9540   -2.5050 C   0  0  2  0  0  0  0  0  0  0  0  0
    2.7310   12.8070   -3.4800 C   0  0  0  0  0  0  0  0  0  0  0  0
    0.1763    9.3056   -1.2911 H   0  0  0  0  0  0  0  0  0  0  0  0
   -0.8196    9.5554   -2.7650 H   0  0  0  0  0  0  0  0  0  0  0  0
    0.4925    8.3287   -2.7650 H   0  0  0  0  0  0  0  0  0  0  0  0
    0.8397   10.7130   -3.8723 H   0  0  0  0  0  0  0  0  0  0  0  0
    3.0675    9.7447   -2.0514 H   0  0  0  0  0  0  0  0  0  0  0  0
    2.5014    8.8250   -3.5272 H   0  0  0  0  0  0  0  0  0  0  0  0
    3.5601   10.1857   -4.9393 H   0  0  0  0  0  0  0  0  0  0  0  0
    3.0693   11.6656   -4.0144 H   0  0  0  0  0  0  0  0  0  0  0  0
    4.5899   10.2515   -2.4695 H   0  0  0  0  0  0  0  0  0  0  0  0
    5.7064    9.5027   -5.9380 H   0  0  0  0  0  0  0  0  0  0  0  0
    5.3838   11.2563   -6.1556 H   0  0  0  0  0  0  0  0  0  0  0  0
    7.0736   10.6472   -6.1556 H   0  0  0  0  0  0  0  0  0  0  0  0
    7.3136   10.3865   -2.4855 H   0  0  0  0  0  0  0  0  0  0  0  0
    7.7321    9.3368   -3.8818 H   0  0  0  0  0  0  0  0  0  0  0  0
    8.2161   11.0667   -3.8818 H   0  0  0  0  0  0  0  0  0  0  0  0
    0.1554   11.5222   -1.5630 H   0  0  0  0  0  0  0  0  0  0  0  0
    1.8168   10.9676    0.1012 H   0  0  0  0  0  0  0  0  0  0  0  0
    3.0794   10.7311   -1.1264 H   0  0  0  0  0  0  0  0  0  0  0  0
    2.8296   13.0072    0.5831 H   0  0  0  0  0  0  0  0  0  0  0  0
    3.8394   12.9614   -0.8599 H   0  0  0  0  0  0  0  0  0  0  0  0
    0.9758   13.8529    0.8234 H   0  0  0  0  0  0  0  0  0  0  0  0
    0.0791   14.8375   -0.3821 H   0  0  0  0  0  0  0  0  0  0  0  0
   -0.0857   13.0488   -0.3821 H   0  0  0  0  0  0  0  0  0  0  0  0
    3.2763   14.9293   -2.1551 H   0  0  0  0  0  0  0  0  0  0  0  0
    3.1878   15.3951    0.3772 H   0  0  0  0  0  0  0  0  0  0  0  0
    3.5985   16.7286   -0.8239 H   0  0  0  0  0  0  0  0  0  0  0  0
    1.9823   17.3931    1.1473 H   0  0  0  0  0  0  0  0  0  0  0  0
   -0.4990   15.9725   -1.7023 H   0  0  0  0  0  0  0  0  0  0  0  0
    0.4667   18.6812   -2.8091 H   0  0  0  0  0  0  0  0  0  0  0  0
   -0.6720   17.5149   -3.6172 H   0  0  0  0  0  0  0  0  0  0  0  0
   -1.8610   19.4315   -2.6000 H   0  0  0  0  0  0  0  0  0  0  0  0
   -2.3100   17.8468   -1.8563 H   0  0  0  0  0  0  0  0  0  0  0  0
   -2.0458   19.4711   -0.1082 H   0  0  0  0  0  0  0  0  0  0  0  0
   -0.5840   20.9900   -0.3660 H   0  0  0  0  0  0  0  0  0  0  0  0
   -1.6715   16.9833    1.8447 H   0  0  0  0  0  0  0  0  0  0  0  0
   -2.5884   17.3637    0.3477 H   0  0  0  0  0  0  0  0  0  0  0  0
   -1.3806   16.0341    0.3477 H   0  0  0  0  0  0  0  0  0  0  0  0
   -0.4200   18.1727    2.5014 H   0  0  0  0  0  0  0  0  0  0  0  0
    1.0606   18.7412    1.6579 H   0  0  0  0  0  0  0  0  0  0  0  0
   -0.4198   19.7586    1.6579 H   0  0  0  0  0  0  0  0  0  0  0  0
    2.8868   17.6200   -2.5921 H   0  0  0  0  0  0  0  0  0  0  0  0
    3.0631   16.4698   -3.9605 H   0  0  0  0  0  0  0  0  0  0  0  0
    1.7242   17.6674   -3.9605 H   0  0  0  0  0  0  0  0  0  0  0  0
   -0.0995   15.5767   -4.0820 H   0  0  0  0  0  0  0  0  0  0  0  0
    1.5975   14.9244   -4.4406 H   0  0  0  0  0  0  0  0  0  0  0  0
   -0.5041   13.7119   -2.6238 H   0  0  0  0  0  0  0  0  0  0  0  0
    0.1595   13.0610   -4.1741 H   0  0  0  0  0  0  0  0  0  0  0  0
    3.6566   12.6953   -2.8962 H   0  0  0  0  0  0  0  0  0  0  0  0
    2.5881   11.9196   -4.1141 H   0  0  0  0  0  0  0  0  0  0  0  0
    2.8033   13.7029   -4.1141 H   0  0  0  0  0  0  0  0  0  0  0  0
  1  2  1  0
  2  3  1  0
  3  4  1  0
  4  5  1  0
  5  6  1  0
  6  7  1  0
  7  8  1  0
  7  9  1  0
  2 10  1  0
 10 11  1  0
 11 12  1  0
 12 13  1  0
 13 14  1  1
 13 15  1  0
 15 16  1  0
 16 17  1  0
 17 18  2  0
 18 19  1  0
 19 20  1  0
 20 21  1  0
 21 22  1  0
 22 23  1  0
 22 24  1  0
 24 25  1  0
 24 26  1  0
 19 27  1  0
 27 28  1  6
 27 29  1  0
 29 30  1  0
 30 31  1  0
 31 32  1  6
  7  5  1  0
 31 10  1  0
 31 13  1  0
 27 15  1  0
 24 18  1  0
  1 33  1  0
  1 34  1  0
  1 35  1  0
  2 36  1  6
  3 37  1  0
  3 38  1  0
  4 39  1  0
  4 40  1  0
  5 41  1  1
  8 42  1  0
  8 43  1  0
  8 44  1  0
  9 45  1  0
  9 46  1  0
  9 47  1  0
 10 48  1  1
 11 49  1  0
 11 50  1  0
 12 51  1  0
 12 52  1  0
 14 53  1  0
 14 54  1  0
 14 55  1  0
 15 56  1  6
 16 57  1  0
 16 58  1  0
 17 59  1  0
 19 60  1  1
 20 61  1  0
 20 62  1  0
 21 63  1  0
 21 64  1  0
 22 65  1  1
 23 66  1  0
 25 67  1  0
 25 68  1  0
 25 69  1  0
 26 70  1  0
 26 71  1  0
 26 72  1  0
 28 73  1  0
 28 74  1  0
 28 75  1  0
 29 76  1  0
 29 77  1  0
 30 78  1  0
 30 79  1  0
 32 80  1  0
 32 81  1  0
 32 82  1  0
M  END
>  <meeko>  (12) 
{"is_sidechain": [false], "intermolecular_energy": 2.731, "internal_energy": -0.839}

$$$$
EPH_relaxed_0001_pdb2pqr_Repair_232_r2_0001_out
     RDKit          3D

 82 86  0  0  0  0  0  0  0  0999 V2000
   -2.0690    7.8400   -1.8560 C   0  0  0  0  0  0  0  0  0  0  0  0
   -2.3560    8.6240   -0.5720 C   0  0  2  0  0  0  0  0  0  0  0  0
   -3.8640    8.6930   -0.2590 C   0  0  0  0  0  0  0  0  0  0  0  0
   -4.6110    7.3850   -0.5330 C   0  0  0  0  0  0  0  0  0  0  0  0
   -5.4850    7.4880   -1.7460 C   0  0  2  0  0  0  0  0  0  0  0  0
   -6.4000    8.5920   -1.7320 O   0  0  0  0  0  0  0  0  0  0  0  0
   -6.9880    7.2810   -1.7140 C   0  0  0  0  0  0  0  0  0  0  0  0
   -7.7030    6.9530   -0.4410 C   0  0  0  0  0  0  0  0  0  0  0  0
   -7.6870    6.9170   -2.9860 C   0  0  0  0  0  0  0  0  0  0  0  0
   -1.7820   10.0310   -0.6840 C   0  0  1  0  0  0  0  0  0  0  0  0
   -1.3010   10.5900    0.6820 C   0  0  0  0  0  0  0  0  0  0  0  0
   -0.0530   11.4640    0.3930 C   0  0  0  0  0  0  0  0  0  0  0  0
   -0.0530   11.6490   -1.1420 C   0  0  1  0  0  0  0  0  0  0  0  0
   -1.0750   12.7990   -1.4080 C   0  0  0  0  0  0  0  0  0  0  0  0
    1.3330   11.9450   -1.8030 C   0  0  2  0  0  0  0  0  0  0  0  0
    2.0030   13.2550   -1.3550 C   0  0  0  0  0  0  0  0  0  0  0  0
    1.6700   14.4550   -2.1780 C   0  0  0  0  0  0  0  0  0  0  0  0
    1.0980   14.4340   -3.3960 C   0  0  0  0  0  0  0  0  0  0  0  0
    0.8130   13.1060   -4.1100 C   0  0  1  0  0  0  0  0  0  0  0  0
    1.2870   13.1990   -5.5840 C   0  0  0  0  0  0  0  0  0  0  0  0
    0.6890   14.3950   -6.3170 C   0  0  0  0  0  0  0  0  0  0  0  0
    1.0420   15.7010   -5.6100 C   0  0  2  0  0  0  0  0  0  0  0  0
    2.4530   15.9150   -5.7150 O   0  0  0  0  0  0  0  0  0  0  0  0
    0.6210   15.7210   -4.1140 C   0  0  0  0  0  0  0  0  0  0  0  0
   -0.9230   15.7930   -4.0080 C   0  0  0  0  0  0  0  0  0  0  0  0
    1.1600   17.0330   -3.4830 C   0  0  0  0  0  0  0  0  0  0  0  0
    1.3440   11.7990   -3.3790 C   0  0  1  0  0  0  0  0  0  0  0  0
    2.8230   11.5230   -3.7890 C   0  0  0  0  0  0  0  0  0  0  0  0
    0.5080   10.5590   -3.8710 C   0  0  0  0  0  0  0  0  0  0  0  0
   -0.7910   10.2470   -3.1020 C   0  0  0  0  0  0  0  0  0  0  0  0
   -0.5410   10.2230   -1.5910 C   0  0  2  0  0  0  0  0  0  0  0  0
    0.4670    9.0610   -1.2910 C   0  0  0  0  0  0  0  0  0  0  0  0
   -1.7014    6.8358   -1.5981 H   0  0  0  0  0  0  0  0  0  0  0  0
   -2.9931    7.7518   -2.4461 H   0  0  0  0  0  0  0  0  0  0  0  0
   -1.3063    8.3693   -2.4461 H   0  0  0  0  0  0  0  0  0  0  0  0
   -1.8711    8.0896    0.2582 H   0  0  0  0  0  0  0  0  0  0  0  0
   -3.9865    8.9465    0.8044 H   0  0  0  0  0  0  0  0  0  0  0  0
   -4.2955    9.4547   -0.9250 H   0  0  0  0  0  0  0  0  0  0  0  0
   -3.8764    6.5815   -0.6904 H   0  0  0  0  0  0  0  0  0  0  0  0
   -5.2527    7.1691    0.3340 H   0  0  0  0  0  0  0  0  0  0  0  0
   -4.6948    7.0611   -2.3812 H   0  0  0  0  0  0  0  0  0  0  0  0
   -7.0763    7.2405    0.4161 H   0  0  0  0  0  0  0  0  0  0  0  0
   -8.6536    7.5050   -0.4017 H   0  0  0  0  0  0  0  0  0  0  0  0
   -7.9046    5.8724   -0.4017 H   0  0  0  0  0  0  0  0  0  0  0  0
   -8.6402    6.4206   -2.7515 H   0  0  0  0  0  0  0  0  0  0  0  0
   -7.8821    7.8280   -3.5708 H   0  0  0  0  0  0  0  0  0  0  0  0
   -7.0525    6.2348   -3.5708 H   0  0  0  0  0  0  0  0  0  0  0  0
   -2.6491   10.5499   -1.1185 H   0  0  0  0  0  0  0  0  0  0  0  0
   -2.0926   11.2001    1.1416 H   0  0  0  0  0  0  0  0  0  0  0  0
   -1.0593    9.7745    1.3796 H   0  0  0  0  0  0  0  0  0  0  0  0
   -0.1337   12.4362    0.9013 H   0  0  0  0  0  0  0  0  0  0  0  0
    0.8751   10.9991    0.7570 H   0  0  0  0  0  0  0  0  0  0  0  0
   -1.4324   13.2011   -0.4485 H   0  0  0  0  0  0  0  0  0  0  0  0
   -0.5850   13.5997   -1.9814 H   0  0  0  0  0  0  0  0  0  0  0  0
   -1.9277   12.4064   -1.9814 H   0  0  0  0  0  0  0  0  0  0  0  0
    1.9624   11.1362   -1.4033 H   0  0  0  0  0  0  0  0  0  0  0  0
    1.6948   13.4574   -0.3186 H   0  0  0  0  0  0  0  0  0  0  0  0
    3.0857   13.0980   -1.4698 H   0  0  0  0  0  0  0  0  0  0  0  0
    1.9127   15.4400   -1.7528 H   0  0  0  0  0  0  0  0  0  0  0  0
   -0.2781   12.9701   -4.0771 H   0  0  0  0  0  0  0  0  0  0  0  0
    2.3832   13.2899   -5.5967 H   0  0  0  0  0  0  0  0  0  0  0  0
    0.9499   12.2884   -6.1009 H   0  0  0  0  0  0  0  0  0  0  0  0
    1.0846   14.4229   -7.3430 H   0  0  0  0  0  0  0  0  0  0  0  0
   -0.4057   14.2875   -6.3294 H   0  0  0  0  0  0  0  0  0  0  0  0
    0.4797   16.5065   -6.1050 H   0  0  0  0  0  0  0  0  0  0  0  0
    2.8040   15.2610   -6.3420 H   0  0  0  0  0  0  0  0  0  0  0  0
   -1.2175   15.8067   -2.9483 H   0  0  0  0  0  0  0  0  0  0  0  0
   -1.2820   16.7089   -4.5002 H   0  0  0  0  0  0  0  0  0  0  0  0
   -1.3657   14.9145   -4.5002 H   0  0  0  0  0  0  0  0  0  0  0  0
    1.1271   16.9530   -2.3864 H   0  0  0  0  0  0  0  0  0  0  0  0
    2.1982   17.1965   -3.8077 H   0  0  0  0  0  0  0  0  0  0  0  0
    0.5366   17.8791   -3.8077 H   0  0  0  0  0  0  0  0  0  0  0  0
    3.4388   11.4081   -2.8848 H   0  0  0  0  0  0  0  0  0  0  0  0
    2.8720   10.6002   -4.3857 H   0  0  0  0  0  0  0  0  0  0  0  0
    3.2015   12.3660   -4.3857 H   0  0  0  0  0  0  0  0  0  0  0  0
    0.2379   10.7359   -4.9225 H   0  0  0  0  0  0  0  0  0  0  0  0
    1.1585    9.6882   -3.7023 H   0  0  0  0  0  0  0  0  0  0  0  0
   -1.5392   11.0202   -3.3308 H   0  0  0  0  0  0  0  0  0  0  0  0
   -1.1537    9.2563   -3.4134 H   0  0  0  0  0  0  0  0  0  0  0  0
    0.5727    8.9391   -0.2029 H   0  0  0  0  0  0  0  0  0  0  0  0
    0.0894    8.1256   -1.7298 H   0  0  0  0  0  0  0  0  0  0  0  0
    1.4463    9.3027   -1.7298 H   0  0  0  0  0  0  0  0  0  0  0  0
  1  2  1  0
  2  3  1  0
  3  4  1  0
  4  5  1  0
  5  6  1  0
  6  7  1  0
  7  8  1  0
  7  9  1  0
  2 10  1  0
 10 11  1  0
 11 12  1  0
 12 13  1  0
 13 14  1  1
 13 15  1  0
 15 16  1  0
 16 17  1  0
 17 18  2  0
 18 19  1  0
 19 20  1  0
 20 21  1  0
 21 22  1  0
 22 23  1  0
 22 24  1  0
 24 25  1  0
 24 26  1  0
 19 27  1  0
 27 28  1  6
 27 29  1  0
 29 30  1  0
 30 31  1  0
 31 32  1  6
  7  5  1  0
 31 10  1  0
 31 13  1  0
 27 15  1  0
 24 18  1  0
  1 33  1  0
  1 34  1  0
  1 35  1  0
  2 36  1  1
  3 37  1  0
  3 38  1  0
  4 39  1  0
  4 40  1  0
  5 41  1  6
  8 42  1  0
  8 43  1  0
  8 44  1  0
  9 45  1  0
  9 46  1  0
  9 47  1  0
 10 48  1  6
 11 49  1  0
 11 50  1  0
 12 51  1  0
 12 52  1  0
 14 53  1  0
 14 54  1  0
 14 55  1  0
 15 56  1  1
 16 57  1  0
 16 58  1  0
 17 59  1  0
 19 60  1  6
 20 61  1  0
 20 62  1  0
 21 63  1  0
 21 64  1  0
 22 65  1  6
 23 66  1  0
 25 67  1  0
 25 68  1  0
 25 69  1  0
 26 70  1  0
 26 71  1  0
 26 72  1  0
 28 73  1  0
 28 74  1  0
 28 75  1  0
 29 76  1  0
 29 77  1  0
 30 78  1  0
 30 79  1  0
 32 80  1  0
 32 81  1  0
 32 82  1  0
M  END
>  <meeko>  (13) 
{"is_sidechain": [false], "intermolecular_energy": 2.731, "internal_energy": -0.839}

$$$$
EPH_relaxed_0001_pdb2pqr_Repair_232_r2_0001_out
     RDKit          3D

 82 86  0  0  0  0  0  0  0  0999 V2000
    3.0520   18.4400   -1.8510 C   0  0  0  0  0  0  0  0  0  0  0  0
    2.3530   17.3490   -2.6670 C   0  0  2  0  0  0  0  0  0  0  0  0
    0.8630   17.6650   -2.9050 C   0  0  0  0  0  0  0  0  0  0  0  0
    0.4220   19.0150   -2.3330 C   0  0  0  0  0  0  0  0  0  0  0  0
   -0.9120   18.9220   -1.6570 C   0  0  2  0  0  0  0  0  0  0  0  0
   -1.4750   20.1810   -1.2650 O   0  0  0  0  0  0  0  0  0  0  0  0
   -1.1380   19.2780   -0.1990 C   0  0  0  0  0  0  0  0  0  0  0  0
   -0.0170   19.7540    0.6710 C   0  0  0  0  0  0  0  0  0  0  0  0
   -2.3290   18.7020    0.5020 C   0  0  0  0  0  0  0  0  0  0  0  0
    2.4940   16.0030   -1.9650 C   0  0  1  0  0  0  0  0  0  0  0  0
    3.1710   16.1240   -0.5730 C   0  0  0  0  0  0  0  0  0  0  0  0
    2.5080   15.0610    0.3400 C   0  0  0  0  0  0  0  0  0  0  0  0
    1.7190   14.1510   -0.6290 C   0  0  1  0  0  0  0  0  0  0  0  0
    2.7830   13.1690   -1.2130 C   0  0  0  0  0  0  0  0  0  0  0  0
    0.4990   13.3860   -0.0200 C   0  0  2  0  0  0  0  0  0  0  0  0
    0.8480   12.3850    1.0950 C   0  0  0  0  0  0  0  0  0  0  0  0
    1.1340   10.9930    0.6360 C   0  0  0  0  0  0  0  0  0  0  0  0
    0.8370   10.4930   -0.5780 C   0  0  0  0  0  0  0  0  0  0  0  0
    0.0590   11.3270   -1.6040 C   0  0  1  0  0  0  0  0  0  0  0  0
   -1.0680   10.4630   -2.2270 C   0  0  0  0  0  0  0  0  0  0  0  0
   -0.5460    9.1540   -2.8130 C   0  0  0  0  0  0  0  0  0  0  0  0
    0.1690    8.3270   -1.7480 C   0  0  2  0  0  0  0  0  0  0  0  0
   -0.7890    7.9000   -0.7750 O   0  0  0  0  0  0  0  0  0  0  0  0
    1.3210    9.0980   -1.0440 C   0  0  0  0  0  0  0  0  0  0  0  0
    2.4950    9.2970   -2.0340 C   0  0  0  0  0  0  0  0  0  0  0  0
    1.8650    8.2020    0.1010 C   0  0  0  0  0  0  0  0  0  0  0  0
   -0.4640   12.7390   -1.0970 C   0  0  1  0  0  0  0  0  0  0  0  0
   -1.8540   12.5760   -0.4100 C   0  0  0  0  0  0  0  0  0  0  0  0
   -0.6900   13.6800   -2.3390 C   0  0  0  0  0  0  0  0  0  0  0  0
    0.5220   14.5010   -2.8190 C   0  0  0  0  0  0  0  0  0  0  0  0
    1.1920   15.2260   -1.6480 C   0  0  2  0  0  0  0  0  0  0  0  0
    0.1530   16.2380   -1.0550 C   0  0  0  0  0  0  0  0  0  0  0  0
    2.9212   18.2359   -0.7780 H   0  0  0  0  0  0  0  0  0  0  0  0
    4.1247   18.4494   -2.0944 H   0  0  0  0  0  0  0  0  0  0  0  0
    2.6122   19.4184   -2.0944 H   0  0  0  0  0  0  0  0  0  0  0  0
    2.8428   17.3084   -3.6511 H   0  0  0  0  0  0  0  0  0  0  0  0
    0.6778   17.6699   -3.9893 H   0  0  0  0  0  0  0  0  0  0  0  0
    0.2823   16.8896   -2.3839 H   0  0  0  0  0  0  0  0  0  0  0  0
    1.1698   19.3531   -1.6006 H   0  0  0  0  0  0  0  0  0  0  0  0
    0.3350   19.7281   -3.1660 H   0  0  0  0  0  0  0  0  0  0  0  0
   -1.1758   18.0334   -2.2492 H   0  0  0  0  0  0  0  0  0  0  0  0
   -0.2973   19.6350    1.7280 H   0  0  0  0  0  0  0  0  0  0  0  0
    0.8861   19.1617    0.4622 H   0  0  0  0  0  0  0  0  0  0  0  0
    0.1840   20.8151    0.4622 H   0  0  0  0  0  0  0  0  0  0  0  0
   -2.1835   18.7723    1.5901 H   0  0  0  0  0  0  0  0  0  0  0  0
   -3.2303   19.2638    0.2155 H   0  0  0  0  0  0  0  0  0  0  0  0
   -2.4482   17.6467    0.2155 H   0  0  0  0  0  0  0  0  0  0  0  0
    3.0806   15.4610   -2.7213 H   0  0  0  0  0  0  0  0  0  0  0  0
    4.2504   15.9300   -0.6585 H   0  0  0  0  0  0  0  0  0  0  0  0
    3.0446   17.1351   -0.1586 H   0  0  0  0  0  0  0  0  0  0  0  0
    3.2718   14.4827    0.8804 H   0  0  0  0  0  0  0  0  0  0  0  0
    1.8614   15.5142    1.1059 H   0  0  0  0  0  0  0  0  0  0  0  0
    3.3180   12.6753   -0.3884 H   0  0  0  0  0  0  0  0  0  0  0  0
    2.2812   12.4099   -1.8311 H   0  0  0  0  0  0  0  0  0  0  0  0
    3.4995   13.7299   -1.8311 H   0  0  0  0  0  0  0  0  0  0  0  0
   -0.0659   14.1934    0.4689 H   0  0  0  0  0  0  0  0  0  0  0  0
    1.7386   12.7591    1.6211 H   0  0  0  0  0  0  0  0  0  0  0  0
   -0.0450   12.3174    1.7337 H   0  0  0  0  0  0  0  0  0  0  0  0
    1.6294   10.3191    1.3505 H   0  0  0  0  0  0  0  0  0  0  0  0
    0.7859   11.6079   -2.3804 H   0  0  0  0  0  0  0  0  0  0  0  0
   -1.8064   10.2299   -1.4457 H   0  0  0  0  0  0  0  0  0  0  0  0
   -1.5165   11.0411   -3.0484 H   0  0  0  0  0  0  0  0  0  0  0  0
   -1.3923    8.5747   -3.2107 H   0  0  0  0  0  0  0  0  0  0  0  0
    0.1697    9.3887   -3.6147 H   0  0  0  0  0  0  0  0  0  0  0  0
    0.6311    7.4667   -2.2543 H   0  0  0  0  0  0  0  0  0  0  0  0
   -1.0060    8.6670   -0.2190 H   0  0  0  0  0  0  0  0  0  0  0  0
    3.4267    9.4549   -1.4709 H   0  0  0  0  0  0  0  0  0  0  0  0
    2.5962    8.4032   -2.6671 H   0  0  0  0  0  0  0  0  0  0  0  0
    2.2960   10.1742   -2.6671 H   0  0  0  0  0  0  0  0  0  0  0  0
    1.5965    8.6442    1.0717 H   0  0  0  0  0  0  0  0  0  0  0  0
    1.4243    7.1973    0.0213 H   0  0  0  0  0  0  0  0  0  0  0  0
    2.9597    8.1295    0.0213 H   0  0  0  0  0  0  0  0  0  0  0  0
   -1.7270   12.5909    0.6825 H   0  0  0  0  0  0  0  0  0  0  0  0
   -2.5125   13.4031   -0.7139 H   0  0  0  0  0  0  0  0  0  0  0  0
   -2.3032   11.6190   -0.7139 H   0  0  0  0  0  0  0  0  0  0  0  0
   -1.0183   13.0496   -3.1786 H   0  0  0  0  0  0  0  0  0  0  0  0
   -1.4276   14.4246   -2.0051 H   0  0  0  0  0  0  0  0  0  0  0  0
    1.2516   13.8246   -3.2883 H   0  0  0  0  0  0  0  0  0  0  0  0
    0.1722   15.2522   -3.5425 H   0  0  0  0  0  0  0  0  0  0  0  0
    0.1910   16.2010    0.0437 H   0  0  0  0  0  0  0  0  0  0  0  0
    0.3960   17.2551   -1.3962 H   0  0  0  0  0  0  0  0  0  0  0  0
   -0.8574   15.9683   -1.3962 H   0  0  0  0  0  0  0  0  0  0  0  0
  1  2  1  0
  2  3  1  0
  3  4  1  0
  4  5  1  0
  5  6  1  0
  6  7  1  0
  7  8  1  0
  7  9  1  0
  2 10  1  0
 10 11  1  0
 11 12  1  0
 12 13  1  0
 13 14  1  6
 13 15  1  0
 15 16  1  0
 16 17  1  0
 17 18  2  0
 18 19  1  0
 19 20  1  0
 20 21  1  0
 21 22  1  0
 22 23  1  0
 22 24  1  0
 24 25  1  0
 24 26  1  0
 19 27  1  0
 27 28  1  1
 27 29  1  0
 29 30  1  0
 30 31  1  0
 31 32  1  1
  7  5  1  0
 31 10  1  0
 31 13  1  0
 27 15  1  0
 24 18  1  0
  1 33  1  0
  1 34  1  0
  1 35  1  0
  2 36  1  6
  3 37  1  0
  3 38  1  0
  4 39  1  0
  4 40  1  0
  5 41  1  6
  8 42  1  0
  8 43  1  0
  8 44  1  0
  9 45  1  0
  9 46  1  0
  9 47  1  0
 10 48  1  6
 11 49  1  0
 11 50  1  0
 12 51  1  0
 12 52  1  0
 14 53  1  0
 14 54  1  0
 14 55  1  0
 15 56  1  1
 16 57  1  0
 16 58  1  0
 17 59  1  0
 19 60  1  6
 20 61  1  0
 20 62  1  0
 21 63  1  0
 21 64  1  0
 22 65  1  6
 23 66  1  0
 25 67  1  0
 25 68  1  0
 25 69  1  0
 26 70  1  0
 26 71  1  0
 26 72  1  0
 28 73  1  0
 28 74  1  0
 28 75  1  0
 29 76  1  0
 29 77  1  0
 30 78  1  0
 30 79  1  0
 32 80  1  0
 32 81  1  0
 32 82  1  0
M  END
>  <meeko>  (14) 
{"is_sidechain": [false], "intermolecular_energy": 2.731, "internal_energy": -0.839}

$$$$
EPH_relaxed_0001_pdb2pqr_Repair_232_r2_0001_out
     RDKit          3D

 82 86  0  0  0  0  0  0  0  0999 V2000
    2.8770   11.3350   -5.2920 C   0  0  0  0  0  0  0  0  0  0  0  0
    1.8490   11.0420   -4.1960 C   0  0  2  0  0  0  0  0  0  0  0  0
    0.7320   10.0980   -4.6850 C   0  0  0  0  0  0  0  0  0  0  0  0
   -0.3540    9.8340   -3.6380 C   0  0  0  0  0  0  0  0  0  0  0  0
    0.1710    9.0310   -2.4860 C   0  0  2  0  0  0  0  0  0  0  0  0
   -0.6860    7.9630   -2.0610 O   0  0  0  0  0  0  0  0  0  0  0  0
   -0.4730    9.0210   -1.1120 C   0  0  0  0  0  0  0  0  0  0  0  0
   -1.6970    9.8300   -0.8170 C   0  0  0  0  0  0  0  0  0  0  0  0
    0.3590    8.6160    0.0650 C   0  0  0  0  0  0  0  0  0  0  0  0
    1.2440   12.3450   -3.6880 C   0  0  1  0  0  0  0  0  0  0  0  0
   -0.2950   12.2580   -3.5020 C   0  0  0  0  0  0  0  0  0  0  0  0
   -0.6470   13.1320   -2.2710 C   0  0  0  0  0  0  0  0  0  0  0  0
    0.6360   13.9500   -1.9940 C   0  0  1  0  0  0  0  0  0  0  0  0
    0.5830   15.1350   -3.0080 C   0  0  0  0  0  0  0  0  0  0  0  0
    0.8300   14.4550   -0.5270 C   0  0  2  0  0  0  0  0  0  0  0  0
   -0.2480   15.4310   -0.0240 C   0  0  0  0  0  0  0  0  0  0  0  0
    0.0390   16.8760   -0.2610 C   0  0  0  0  0  0  0  0  0  0  0  0
    1.2380   17.3910   -0.5940 C   0  0  0  0  0  0  0  0  0  0  0  0
    2.4840   16.5000   -0.6670 C   0  0  1  0  0  0  0  0  0  0  0  0
    3.6610   17.1940    0.0690 C   0  0  0  0  0  0  0  0  0  0  0  0
    3.9210   18.6060   -0.4460 C   0  0  0  0  0  0  0  0  0  0  0  0
    2.6760   19.4780   -0.3020 C   0  0  2  0  0  0  0  0  0  0  0  0
    2.4080   19.6730    1.0900 O   0  0  0  0  0  0  0  0  0  0  0  0
    1.4230   18.8750   -0.9970 C   0  0  0  0  0  0  0  0  0  0  0  0
    1.5960   18.9430   -2.5340 C   0  0  0  0  0  0  0  0  0  0  0  0
    0.2070   19.7790   -0.6570 C   0  0  0  0  0  0  0  0  0  0  0  0
    2.2860   14.9900   -0.2130 C   0  0  1  0  0  0  0  0  0  0  0  0
    2.4820   14.8690    1.3290 C   0  0  0  0  0  0  0  0  0  0  0  0
    3.4050   14.1030   -0.8740 C   0  0  0  0  0  0  0  0  0  0  0  0
    3.1050   13.5350   -2.2740 C   0  0  0  0  0  0  0  0  0  0  0  0
    1.7280   12.8650   -2.3110 C   0  0  2  0  0  0  0  0  0  0  0  0
    1.7580   11.6550   -1.3160 C   0  0  0  0  0  0  0  0  0  0  0  0
    3.8372   11.6087   -4.8304 H   0  0  0  0  0  0  0  0  0  0  0  0
    3.0124   10.4397   -5.9165 H   0  0  0  0  0  0  0  0  0  0  0  0
    2.5200   12.1672   -5.9165 H   0  0  0  0  0  0  0  0  0  0  0  0
    2.3764   10.5329   -3.3759 H   0  0  0  0  0  0  0  0  0  0  0  0
    0.2589   10.5490   -5.5698 H   0  0  0  0  0  0  0  0  0  0  0  0
    1.2045    9.1302   -4.9087 H   0  0  0  0  0  0  0  0  0  0  0  0
   -0.7271   10.7975   -3.2605 H   0  0  0  0  0  0  0  0  0  0  0  0
   -1.1606    9.2598   -4.1173 H   0  0  0  0  0  0  0  0  0  0  0  0
    1.2083    9.1942   -2.8136 H   0  0  0  0  0  0  0  0  0  0  0  0
   -1.8263    9.9155    0.2720 H   0  0  0  0  0  0  0  0  0  0  0  0
   -1.5869   10.8338   -1.2531 H   0  0  0  0  0  0  0  0  0  0  0  0
   -2.5774    9.3353   -1.2531 H   0  0  0  0  0  0  0  0  0  0  0  0
   -0.1703    8.8737    0.9942 H   0  0  0  0  0  0  0  0  0  0  0  0
    0.5362    7.5308    0.0328 H   0  0  0  0  0  0  0  0  0  0  0  0
    1.3224    9.1459    0.0328 H   0  0  0  0  0  0  0  0  0  0  0  0
    1.5770   13.0251   -4.4858 H   0  0  0  0  0  0  0  0  0  0  0  0
   -0.8070   12.6408   -4.3972 H   0  0  0  0  0  0  0  0  0  0  0  0
   -0.6164   11.2168   -3.3519 H   0  0  0  0  0  0  0  0  0  0  0  0
   -1.4917   13.7993   -2.4972 H   0  0  0  0  0  0  0  0  0  0  0  0
   -0.9520   12.5279   -1.4038 H   0  0  0  0  0  0  0  0  0  0  0  0
    0.5404   16.0866   -2.4579 H   0  0  0  0  0  0  0  0  0  0  0  0
    1.4828   15.1170   -3.6404 H   0  0  0  0  0  0  0  0  0  0  0  0
   -0.3116   15.0367   -3.6404 H   0  0  0  0  0  0  0  0  0  0  0  0
    0.6948   13.5338    0.0588 H   0  0  0  0  0  0  0  0  0  0  0  0
   -1.1926   15.1846   -0.5310 H   0  0  0  0  0  0  0  0  0  0  0  0
   -0.2874   15.3040    1.0679 H   0  0  0  0  0  0  0  0  0  0  0  0
   -0.7995   17.5800   -0.1548 H   0  0  0  0  0  0  0  0  0  0  0  0
    2.7206   16.3967   -1.7363 H   0  0  0  0  0  0  0  0  0  0  0  0
    3.4235   17.2480    1.1417 H   0  0  0  0  0  0  0  0  0  0  0  0
    4.5676   16.5989   -0.1152 H   0  0  0  0  0  0  0  0  0  0  0  0
    4.7429   19.0541    0.1316 H   0  0  0  0  0  0  0  0  0  0  0  0
    4.1868   18.5473   -1.5118 H   0  0  0  0  0  0  0  0  0  0  0  0
    2.8829   20.4348   -0.8037 H   0  0  0  0  0  0  0  0  0  0  0  0
    3.2210   19.4610    1.5780 H   0  0  0  0  0  0  0  0  0  0  0  0
    2.5952   19.3358   -2.7735 H   0  0  0  0  0  0  0  0  0  0  0  0
    1.4864   17.9349   -2.9603 H   0  0  0  0  0  0  0  0  0  0  0  0
    0.8293   19.6067   -2.9603 H   0  0  0  0  0  0  0  0  0  0  0  0
    0.1021   19.8570    0.4352 H   0  0  0  0  0  0  0  0  0  0  0  0
    0.3646   20.7810   -1.0827 H   0  0  0  0  0  0  0  0  0  0  0  0
   -0.7071   19.3394   -1.0827 H   0  0  0  0  0  0  0  0  0  0  0  0
    1.6553   15.3794    1.8449 H   0  0  0  0  0  0  0  0  0  0  0  0
    2.4927   13.8069    1.6150 H   0  0  0  0  0  0  0  0  0  0  0  0
    3.4363   15.3354    1.6150 H   0  0  0  0  0  0  0  0  0  0  0  0
    4.3139   14.7177   -0.9521 H   0  0  0  0  0  0  0  0  0  0  0  0
    3.4980   13.2231   -0.2205 H   0  0  0  0  0  0  0  0  0  0  0  0
    3.1259   14.3550   -3.0069 H   0  0  0  0  0  0  0  0  0  0  0  0
    3.8682   12.7811   -2.5173 H   0  0  0  0  0  0  0  0  0  0  0  0
    1.7487   12.0302   -0.2820 H   0  0  0  0  0  0  0  0  0  0  0  0
    0.8753   11.0204   -1.4837 H   0  0  0  0  0  0  0  0  0  0  0  0
    2.6711   11.0649   -1.4837 H   0  0  0  0  0  0  0  0  0  0  0  0
  1  2  1  0
  2  3  1  0
  3  4  1  0
  4  5  1  0
  5  6  1  0
  6  7  1  0
  7  8  1  0
  7  9  1  0
  2 10  1  0
 10 11  1  0
 11 12  1  0
 12 13  1  0
 13 14  1  6
 13 15  1  0
 15 16  1  0
 16 17  1  0
 17 18  2  0
 18 19  1  0
 19 20  1  0
 20 21  1  0
 21 22  1  0
 22 23  1  0
 22 24  1  0
 24 25  1  0
 24 26  1  0
 19 27  1  0
 27 28  1  1
 27 29  1  0
 29 30  1  0
 30 31  1  0
 31 32  1  1
  7  5  1  0
 31 10  1  0
 31 13  1  0
 27 15  1  0
 24 18  1  0
  1 33  1  0
  1 34  1  0
  1 35  1  0
  2 36  1  1
  3 37  1  0
  3 38  1  0
  4 39  1  0
  4 40  1  0
  5 41  1  1
  8 42  1  0
  8 43  1  0
  8 44  1  0
  9 45  1  0
  9 46  1  0
  9 47  1  0
 10 48  1  6
 11 49  1  0
 11 50  1  0
 12 51  1  0
 12 52  1  0
 14 53  1  0
 14 54  1  0
 14 55  1  0
 15 56  1  1
 16 57  1  0
 16 58  1  0
 17 59  1  0
 19 60  1  6
 20 61  1  0
 20 62  1  0
 21 63  1  0
 21 64  1  0
 22 65  1  6
 23 66  1  0
 25 67  1  0
 25 68  1  0
 25 69  1  0
 26 70  1  0
 26 71  1  0
 26 72  1  0
 28 73  1  0
 28 74  1  0
 28 75  1  0
 29 76  1  0
 29 77  1  0
 30 78  1  0
 30 79  1  0
 32 80  1  0
 32 81  1  0
 32 82  1  0
M  END
>  <meeko>  (15) 
{"is_sidechain": [false], "intermolecular_energy": 2.731, "internal_energy": -0.839}

$$$$
EPH_relaxed_0001_pdb2pqr_Repair_232_r2_0001_out
     RDKit          3D

 82 86  0  0  0  0  0  0  0  0999 V2000
    0.8770   14.8330   -2.6130 C   0  0  0  0  0  0  0  0  0  0  0  0
    1.1610   14.1500   -3.9540 C   0  0  2  0  0  0  0  0  0  0  0  0
    0.4810   14.8780   -5.1310 C   0  0  0  0  0  0  0  0  0  0  0  0
    1.1460   14.6140   -6.4840 C   0  0  0  0  0  0  0  0  0  0  0  0
    0.8770   15.7200   -7.4590 C   0  0  2  0  0  0  0  0  0  0  0  0
    0.3750   15.2890   -8.7310 O   0  0  0  0  0  0  0  0  0  0  0  0
    1.6670   15.9170   -8.7400 C   0  0  0  0  0  0  0  0  0  0  0  0
    2.7870   14.9980   -9.1150 C   0  0  0  0  0  0  0  0  0  0  0  0
    1.6740   17.2720   -9.3750 C   0  0  0  0  0  0  0  0  0  0  0  0
    0.7020   12.6980   -3.9050 C   0  0  1  0  0  0  0  0  0  0  0  0
    1.8320   11.7010   -4.2770 C   0  0  0  0  0  0  0  0  0  0  0  0
    1.6190   10.4370   -3.4060 C   0  0  0  0  0  0  0  0  0  0  0  0
    0.2000   10.6070   -2.8130 C   0  0  1  0  0  0  0  0  0  0  0  0
   -0.7670   10.1440   -3.9470 C   0  0  0  0  0  0  0  0  0  0  0  0
   -0.0820    9.8560   -1.4710 C   0  0  2  0  0  0  0  0  0  0  0  0
    0.0160    8.3230   -1.5480 C   0  0  0  0  0  0  0  0  0  0  0  0
   -1.2570    7.6190   -1.8830 C   0  0  0  0  0  0  0  0  0  0  0  0
   -2.4880    8.1620   -1.8350 C   0  0  0  0  0  0  0  0  0  0  0  0
   -2.6980    9.5900   -1.3150 C   0  0  1  0  0  0  0  0  0  0  0  0
   -3.8870    9.6090   -0.3190 C   0  0  0  0  0  0  0  0  0  0  0  0
   -5.1590    9.0120   -0.9140 C   0  0  0  0  0  0  0  0  0  0  0  0
   -4.9250    7.5720   -1.3660 C   0  0  2  0  0  0  0  0  0  0  0  0
   -4.6820    6.7610   -0.2130 O   0  0  0  0  0  0  0  0  0  0  0  0
   -3.7440    7.4280   -2.3650 C   0  0  0  0  0  0  0  0  0  0  0  0
   -4.1340    8.0540   -3.7270 C   0  0  0  0  0  0  0  0  0  0  0  0
   -3.5250    5.9140   -2.6310 C   0  0  0  0  0  0  0  0  0  0  0  0
   -1.4070   10.3150   -0.7370 C   0  0  1  0  0  0  0  0  0  0  0  0
   -1.2270    9.9610    0.7700 C   0  0  0  0  0  0  0  0  0  0  0  0
   -1.6190   11.8740   -0.8050 C   0  0  0  0  0  0  0  0  0  0  0  0
   -1.2100   12.5750   -2.1140 C   0  0  0  0  0  0  0  0  0  0  0  0
    0.2000   12.1560   -2.5430 C   0  0  2  0  0  0  0  0  0  0  0  0
    1.1980   12.6280   -1.4320 C   0  0  0  0  0  0  0  0  0  0  0  0
    1.1577   14.1580   -1.7910 H   0  0  0  0  0  0  0  0  0  0  0  0
    1.4640   15.7606   -2.5424 H   0  0  0  0  0  0  0  0  0  0  0  0
   -0.1946   15.0709   -2.5424 H   0  0  0  0  0  0  0  0  0  0  0  0
    2.2471   14.1909   -4.1232 H   0  0  0  0  0  0  0  0  0  0  0  0
   -0.5657   14.5446   -5.1875 H   0  0  0  0  0  0  0  0  0  0  0  0
    0.5677   15.9569   -4.9351 H   0  0  0  0  0  0  0  0  0  0  0  0
    2.2324   14.5256   -6.3360 H   0  0  0  0  0  0  0  0  0  0  0  0
    0.7274   13.6841   -6.8962 H   0  0  0  0  0  0  0  0  0  0  0  0
    0.6124   16.4072   -6.6419 H   0  0  0  0  0  0  0  0  0  0  0  0
    3.2623   14.6080   -8.2029 H   0  0  0  0  0  0  0  0  0  0  0  0
    2.3912   14.1609   -9.7089 H   0  0  0  0  0  0  0  0  0  0  0  0
    3.5307   15.5496   -9.7089 H   0  0  0  0  0  0  0  0  0  0  0  0
    1.6780   18.0441   -8.5915 H   0  0  0  0  0  0  0  0  0  0  0  0
    2.5727   17.3793  -10.0001 H   0  0  0  0  0  0  0  0  0  0  0  0
    0.7764   17.3886  -10.0001 H   0  0  0  0  0  0  0  0  0  0  0  0
   -0.1309   12.7442   -4.6221 H   0  0  0  0  0  0  0  0  0  0  0  0
    1.7709   11.4403   -5.3439 H   0  0  0  0  0  0  0  0  0  0  0  0
    2.8231   12.1425   -4.0960 H   0  0  0  0  0  0  0  0  0  0  0  0
    1.6764    9.5270   -4.0214 H   0  0  0  0  0  0  0  0  0  0  0  0
    2.3877   10.3332   -2.6260 H   0  0  0  0  0  0  0  0  0  0  0  0
   -1.6739    9.7098   -3.5009 H   0  0  0  0  0  0  0  0  0  0  0  0
   -1.0422   11.0080   -4.5697 H   0  0  0  0  0  0  0  0  0  0  0  0
   -0.2665    9.3879   -4.5697 H   0  0  0  0  0  0  0  0  0  0  0  0
    0.7597   10.1773   -0.8399 H   0  0  0  0  0  0  0  0  0  0  0  0
    0.7584    8.0681   -2.3186 H   0  0  0  0  0  0  0  0  0  0  0  0
    0.2946    7.9847   -0.5391 H   0  0  0  0  0  0  0  0  0  0  0  0
   -1.1830    6.5670   -2.1957 H   0  0  0  0  0  0  0  0  0  0  0  0
   -2.9395   10.2016   -2.1969 H   0  0  0  0  0  0  0  0  0  0  0  0
   -3.6089    9.0285    0.5730 H   0  0  0  0  0  0  0  0  0  0  0  0
   -4.0965   10.6597   -0.0695 H   0  0  0  0  0  0  0  0  0  0  0  0
   -5.9536    9.0262   -0.1534 H   0  0  0  0  0  0  0  0  0  0  0  0
   -5.4533    9.6115   -1.7881 H   0  0  0  0  0  0  0  0  0  0  0  0
   -5.8286    7.2426   -1.8998 H   0  0  0  0  0  0  0  0  0  0  0  0
   -3.7990    6.9870    0.1250 H   0  0  0  0  0  0  0  0  0  0  0  0
   -4.7086    8.9762   -3.5556 H   0  0  0  0  0  0  0  0  0  0  0  0
   -3.2229    8.2901   -4.2964 H   0  0  0  0  0  0  0  0  0  0  0  0
   -4.7475    7.3403   -4.2964 H   0  0  0  0  0  0  0  0  0  0  0  0
   -3.4478    5.3806   -1.6721 H   0  0  0  0  0  0  0  0  0  0  0  0
   -4.3749    5.5158   -3.2047 H   0  0  0  0  0  0  0  0  0  0  0  0
   -2.5971    5.7730   -3.2047 H   0  0  0  0  0  0  0  0  0  0  0  0
   -1.6392   10.7716    1.3888 H   0  0  0  0  0  0  0  0  0  0  0  0
   -1.7580    9.0237    0.9924 H   0  0  0  0  0  0  0  0  0  0  0  0
   -0.1568    9.8378    0.9924 H   0  0  0  0  0  0  0  0  0  0  0  0
   -2.6888   12.0716   -0.6421 H   0  0  0  0  0  0  0  0  0  0  0  0
   -0.9507   12.2887   -0.0360 H   0  0  0  0  0  0  0  0  0  0  0  0
   -1.9230   12.3026   -2.9061 H   0  0  0  0  0  0  0  0  0  0  0  0
   -1.2172   13.6622   -1.9468 H   0  0  0  0  0  0  0  0  0  0  0  0
    0.7666   12.4240   -0.4409 H   0  0  0  0  0  0  0  0  0  0  0  0
    2.1481   12.0838   -1.5374 H   0  0  0  0  0  0  0  0  0  0  0  0
    1.3802   13.7077   -1.5374 H   0  0  0  0  0  0  0  0  0  0  0  0
  1  2  1  0
  2  3  1  0
  3  4  1  0
  4  5  1  0
  5  6  1  0
  6  7  1  0
  7  8  1  0
  7  9  1  0
  2 10  1  0
 10 11  1  0
 11 12  1  0
 12 13  1  0
 13 14  1  6
 13 15  1  0
 15 16  1  0
 16 17  1  0
 17 18  2  0
 18 19  1  0
 19 20  1  0
 20 21  1  0
 21 22  1  0
 22 23  1  0
 22 24  1  0
 24 25  1  0
 24 26  1  0
 19 27  1  0
 27 28  1  1
 27 29  1  0
 29 30  1  0
 30 31  1  0
 31 32  1  1
  7  5  1  0
 31 10  1  0
 31 13  1  0
 27 15  1  0
 24 18  1  0
  1 33  1  0
  1 34  1  0
  1 35  1  0
  2 36  1  6
  3 37  1  0
  3 38  1  0
  4 39  1  0
  4 40  1  0
  5 41  1  1
  8 42  1  0
  8 43  1  0
  8 44  1  0
  9 45  1  0
  9 46  1  0
  9 47  1  0
 10 48  1  6
 11 49  1  0
 11 50  1  0
 12 51  1  0
 12 52  1  0
 14 53  1  0
 14 54  1  0
 14 55  1  0
 15 56  1  1
 16 57  1  0
 16 58  1  0
 17 59  1  0
 19 60  1  6
 20 61  1  0
 20 62  1  0
 21 63  1  0
 21 64  1  0
 22 65  1  6
 23 66  1  0
 25 67  1  0
 25 68  1  0
 25 69  1  0
 26 70  1  0
 26 71  1  0
 26 72  1  0
 28 73  1  0
 28 74  1  0
 28 75  1  0
 29 76  1  0
 29 77  1  0
 30 78  1  0
 30 79  1  0
 32 80  1  0
 32 81  1  0
 32 82  1  0
M  END
>  <meeko>  (16) 
{"is_sidechain": [false], "intermolecular_energy": 2.731, "internal_energy": -0.839}

$$$$
EPH_relaxed_0001_pdb2pqr_Repair_232_r2_0001_out
     RDKit          3D

 82 86  0  0  0  0  0  0  0  0999 V2000
   -2.4050    7.7060   -0.0480 C   0  0  0  0  0  0  0  0  0  0  0  0
   -3.0620    9.0890   -0.0590 C   0  0  2  0  0  0  0  0  0  0  0  0
   -4.5460    9.0240   -0.4700 C   0  0  0  0  0  0  0  0  0  0  0  0
   -5.0970    7.5980   -0.5630 C   0  0  0  0  0  0  0  0  0  0  0  0
   -5.8750    7.3860   -1.8260 C   0  0  2  0  0  0  0  0  0  0  0  0
   -6.7840    8.4450   -2.1550 O   0  0  0  0  0  0  0  0  0  0  0  0
   -7.3770    7.1710   -1.8580 C   0  0  0  0  0  0  0  0  0  0  0  0
   -8.1890    7.1560   -0.6010 C   0  0  0  0  0  0  0  0  0  0  0  0
   -7.9770    6.4930   -3.0490 C   0  0  0  0  0  0  0  0  0  0  0  0
   -2.3010   10.0180   -0.9980 C   0  0  1  0  0  0  0  0  0  0  0  0
   -2.9540   11.4220   -1.1070 C   0  0  0  0  0  0  0  0  0  0  0  0
   -1.7970   12.4420   -1.2680 C   0  0  0  0  0  0  0  0  0  0  0  0
   -0.5540   11.5750   -1.5790 C   0  0  1  0  0  0  0  0  0  0  0  0
   -0.6560   11.2590   -3.1040 C   0  0  0  0  0  0  0  0  0  0  0  0
    0.8320   12.1980   -1.2100 C   0  0  2  0  0  0  0  0  0  0  0  0
    1.1870   13.4920   -1.9630 C   0  0  0  0  0  0  0  0  0  0  0  0
    1.9300   13.3010   -3.2440 C   0  0  0  0  0  0  0  0  0  0  0  0
    2.5450   12.1670   -3.6300 C   0  0  0  0  0  0  0  0  0  0  0  0
    2.6150   10.9520   -2.6960 C   0  0  1  0  0  0  0  0  0  0  0  0
    4.0610   10.3900   -2.6840 C   0  0  0  0  0  0  0  0  0  0  0  0
    4.5790   10.0800   -4.0850 C   0  0  0  0  0  0  0  0  0  0  0  0
    4.5490   11.3260   -4.9670 C   0  0  2  0  0  0  0  0  0  0  0  0
    5.4960   12.2720   -4.4610 O   0  0  0  0  0  0  0  0  0  0  0  0
    3.1430   11.9860   -5.0460 C   0  0  0  0  0  0  0  0  0  0  0  0
    2.1890   11.0810   -5.8650 C   0  0  0  0  0  0  0  0  0  0  0  0
    3.2810   13.3080   -5.8480 C   0  0  0  0  0  0  0  0  0  0  0  0
    2.0320   11.1670   -1.2330 C   0  0  1  0  0  0  0  0  0  0  0  0
    3.1380   11.7510   -0.3000 C   0  0  0  0  0  0  0  0  0  0  0  0
    1.6330    9.7700   -0.6280 C   0  0  0  0  0  0  0  0  0  0  0  0
    0.2090    9.2640   -0.9290 C   0  0  0  0  0  0  0  0  0  0  0  0
   -0.8320   10.3490   -0.6360 C   0  0  2  0  0  0  0  0  0  0  0  0
   -0.7680   10.6720    0.8960 C   0  0  0  0  0  0  0  0  0  0  0  0
   -2.2509    7.3815    0.9917 H   0  0  0  0  0  0  0  0  0  0  0  0
   -3.0573    6.9861   -0.5639 H   0  0  0  0  0  0  0  0  0  0  0  0
   -1.4348    7.7568   -0.5639 H   0  0  0  0  0  0  0  0  0  0  0  0
   -3.0215    9.4829    0.9673 H   0  0  0  0  0  0  0  0  0  0  0  0
   -5.1372    9.5769    0.2748 H   0  0  0  0  0  0  0  0  0  0  0  0
   -4.6207    9.4638   -1.4755 H   0  0  0  0  0  0  0  0  0  0  0  0
   -4.2565    6.8887   -0.5387 H   0  0  0  0  0  0  0  0  0  0  0  0
   -5.7743    7.4358    0.2884 H   0  0  0  0  0  0  0  0  0  0  0  0
   -5.0398    6.8276   -2.2739 H   0  0  0  0  0  0  0  0  0  0  0  0
   -7.5170    7.1684    0.2698 H   0  0  0  0  0  0  0  0  0  0  0  0
   -8.8400    8.0423   -0.5744 H   0  0  0  0  0  0  0  0  0  0  0  0
   -8.8068    6.2463   -0.5744 H   0  0  0  0  0  0  0  0  0  0  0  0
   -8.6712    5.7085   -2.7133 H   0  0  0  0  0  0  0  0  0  0  0  0
   -8.5231    7.2312   -3.6547 H   0  0  0  0  0  0  0  0  0  0  0  0
   -7.1779    6.0408   -3.6547 H   0  0  0  0  0  0  0  0  0  0  0  0
   -2.3348    9.4170   -1.9187 H   0  0  0  0  0  0  0  0  0  0  0  0
   -3.6199   11.4633   -1.9816 H   0  0  0  0  0  0  0  0  0  0  0  0
   -3.5579   11.6471   -0.2156 H   0  0  0  0  0  0  0  0  0  0  0  0
   -2.0035   13.1362   -2.0960 H   0  0  0  0  0  0  0  0  0  0  0  0
   -1.6593   13.0623   -0.3701 H   0  0  0  0  0  0  0  0  0  0  0  0
   -0.9912   10.2204   -3.2416 H   0  0  0  0  0  0  0  0  0  0  0  0
   -1.3790   11.9428   -3.5726 H   0  0  0  0  0  0  0  0  0  0  0  0
    0.3304   11.3910   -3.5726 H   0  0  0  0  0  0  0  0  0  0  0  0
    0.6862   12.4944   -0.1608 H   0  0  0  0  0  0  0  0  0  0  0  0
    0.2498   14.0216   -2.1893 H   0  0  0  0  0  0  0  0  0  0  0  0
    1.8618   14.0542   -1.3007 H   0  0  0  0  0  0  0  0  0  0  0  0
    1.9791   14.1592   -3.9304 H   0  0  0  0  0  0  0  0  0  0  0  0
    1.9275   10.2045   -3.1185 H   0  0  0  0  0  0  0  0  0  0  0  0
    4.7247   11.1339   -2.2191 H   0  0  0  0  0  0  0  0  0  0  0  0
    4.0487    9.4480   -2.1162 H   0  0  0  0  0  0  0  0  0  0  0  0
    5.6141    9.7148   -4.0133 H   0  0  0  0  0  0  0  0  0  0  0  0
    3.9310    9.3146   -4.5371 H   0  0  0  0  0  0  0  0  0  0  0  0
    4.8075   11.0132   -5.9894 H   0  0  0  0  0  0  0  0  0  0  0  0
    5.7060   12.8920   -5.1800 H   0  0  0  0  0  0  0  0  0  0  0  0
    1.5654   10.4895   -5.1785 H   0  0  0  0  0  0  0  0  0  0  0  0
    1.5440   11.7071   -6.4990 H   0  0  0  0  0  0  0  0  0  0  0  0
    2.7802   10.4039   -6.4990 H   0  0  0  0  0  0  0  0  0  0  0  0
    3.3692   14.1531   -5.1495 H   0  0  0  0  0  0  0  0  0  0  0  0
    4.1791   13.2606   -6.4814 H   0  0  0  0  0  0  0  0  0  0  0  0
    2.3925   13.4471   -6.4814 H   0  0  0  0  0  0  0  0  0  0  0  0
    2.8495   11.5987    0.7505 H   0  0  0  0  0  0  0  0  0  0  0  0
    4.0914   11.2388   -0.4964 H   0  0  0  0  0  0  0  0  0  0  0  0
    3.2527   12.8272   -0.4964 H   0  0  0  0  0  0  0  0  0  0  0  0
    2.3408    9.0239   -1.0183 H   0  0  0  0  0  0  0  0  0  0  0  0
    1.6647    9.9089    0.4627 H   0  0  0  0  0  0  0  0  0  0  0  0
    0.1446    8.9807   -1.9899 H   0  0  0  0  0  0  0  0  0  0  0  0
    0.0018    8.3963   -0.2854 H   0  0  0  0  0  0  0  0  0  0  0  0
   -0.9501    9.7530    1.4724 H   0  0  0  0  0  0  0  0  0  0  0  0
    0.2265   11.0703    1.1455 H   0  0  0  0  0  0  0  0  0  0  0  0
   -1.5355   11.4194    1.1455 H   0  0  0  0  0  0  0  0  0  0  0  0
  1  2  1  0
  2  3  1  0
  3  4  1  0
  4  5  1  0
  5  6  1  0
  6  7  1  0
  7  8  1  0
  7  9  1  0
  2 10  1  0
 10 11  1  0
 11 12  1  0
 12 13  1  0
 13 14  1  6
 13 15  1  0
 15 16  1  0
 16 17  1  0
 17 18  2  0
 18 19  1  0
 19 20  1  0
 20 21  1  0
 21 22  1  0
 22 23  1  0
 22 24  1  0
 24 25  1  0
 24 26  1  0
 19 27  1  0
 27 28  1  1
 27 29  1  0
 29 30  1  0
 30 31  1  0
 31 32  1  1
  7  5  1  0
 31 10  1  0
 31 13  1  0
 27 15  1  0
 24 18  1  0
  1 33  1  0
  1 34  1  0
  1 35  1  0
  2 36  1  1
  3 37  1  0
  3 38  1  0
  4 39  1  0
  4 40  1  0
  5 41  1  6
  8 42  1  0
  8 43  1  0
  8 44  1  0
  9 45  1  0
  9 46  1  0
  9 47  1  0
 10 48  1  6
 11 49  1  0
 11 50  1  0
 12 51  1  0
 12 52  1  0
 14 53  1  0
 14 54  1  0
 14 55  1  0
 15 56  1  1
 16 57  1  0
 16 58  1  0
 17 59  1  0
 19 60  1  6
 20 61  1  0
 20 62  1  0
 21 63  1  0
 21 64  1  0
 22 65  1  6
 23 66  1  0
 25 67  1  0
 25 68  1  0
 25 69  1  0
 26 70  1  0
 26 71  1  0
 26 72  1  0
 28 73  1  0
 28 74  1  0
 28 75  1  0
 29 76  1  0
 29 77  1  0
 30 78  1  0
 30 79  1  0
 32 80  1  0
 32 81  1  0
 32 82  1  0
M  END
>  <meeko>  (17) 
{"is_sidechain": [false], "intermolecular_energy": 2.731, "internal_energy": -0.839}

$$$$
EPH_relaxed_0001_pdb2pqr_Repair_232_r2_0001_out
     RDKit          3D

 82 86  0  0  0  0  0  0  0  0999 V2000
    3.1330   14.8660   -7.5470 C   0  0  0  0  0  0  0  0  0  0  0  0
    1.6080   14.8780   -7.4030 C   0  0  2  0  0  0  0  0  0  0  0  0
    0.9710   16.1090   -8.0780 C   0  0  0  0  0  0  0  0  0  0  0  0
    1.8870   16.7980   -9.0930 C   0  0  0  0  0  0  0  0  0  0  0  0
    1.5620   16.3910  -10.4980 C   0  0  2  0  0  0  0  0  0  0  0  0
    0.9810   15.0860  -10.6250 O   0  0  0  0  0  0  0  0  0  0  0  0
    2.2720   15.2660  -11.2290 C   0  0  0  0  0  0  0  0  0  0  0  0
    3.3650   14.4790  -10.5770 C   0  0  0  0  0  0  0  0  0  0  0  0
    2.2440   15.2560  -12.7260 C   0  0  0  0  0  0  0  0  0  0  0  0
    1.2250   14.8350   -5.9280 C   0  0  1  0  0  0  0  0  0  0  0  0
   -0.0310   15.6900   -5.6130 C   0  0  0  0  0  0  0  0  0  0  0  0
   -0.8080   14.9480   -4.4940 C   0  0  0  0  0  0  0  0  0  0  0  0
    0.1830   13.8800   -3.9750 C   0  0  1  0  0  0  0  0  0  0  0  0
    1.1200   14.6470   -2.9900 C   0  0  0  0  0  0  0  0  0  0  0  0
   -0.4500   12.6180   -3.3040 C   0  0  2  0  0  0  0  0  0  0  0  0
   -1.2670   12.8970   -2.0300 C   0  0  0  0  0  0  0  0  0  0  0  0
   -0.4960   12.8420   -0.7530 C   0  0  0  0  0  0  0  0  0  0  0  0
    0.7280   12.3040   -0.6010 C   0  0  0  0  0  0  0  0  0  0  0  0
    1.4230   11.5860   -1.7660 C   0  0  1  0  0  0  0  0  0  0  0  0
    2.0130   10.2410   -1.2660 C   0  0  0  0  0  0  0  0  0  0  0  0
    2.9300   10.4170   -0.0590 C   0  0  0  0  0  0  0  0  0  0  0  0
    2.1870   11.0810    1.0970 C   0  0  2  0  0  0  0  0  0  0  0  0
    1.1760   10.1850    1.5710 O   0  0  0  0  0  0  0  0  0  0  0  0
    1.5400   12.4400    0.7100 C   0  0  0  0  0  0  0  0  0  0  0  0
    2.6490   13.4990    0.4880 C   0  0  0  0  0  0  0  0  0  0  0  0
    0.7050   12.9340    1.9220 C   0  0  0  0  0  0  0  0  0  0  0  0
    0.5620   11.4200   -3.0910 C   0  0  1  0  0  0  0  0  0  0  0  0
   -0.2970   10.1210   -3.0080 C   0  0  0  0  0  0  0  0  0  0  0  0
    1.5330   11.2330   -4.3150 C   0  0  0  0  0  0  0  0  0  0  0  0
    2.0300   12.5140   -5.0110 C   0  0  0  0  0  0  0  0  0  0  0  0
    0.8630   13.4540   -5.3270 C   0  0  2  0  0  0  0  0  0  0  0  0
   -0.0850   12.7180   -6.3340 C   0  0  0  0  0  0  0  0  0  0  0  0
    3.5955   14.8624   -6.5490 H   0  0  0  0  0  0  0  0  0  0  0  0
    3.4422   13.9654   -8.0977 H   0  0  0  0  0  0  0  0  0  0  0  0
    3.4564   15.7616   -8.0977 H   0  0  0  0  0  0  0  0  0  0  0  0
    1.2199   13.9844   -7.9136 H   0  0  0  0  0  0  0  0  0  0  0  0
    0.0574   15.7857   -8.5983 H   0  0  0  0  0  0  0  0  0  0  0  0
    0.7649   16.8406   -7.2828 H   0  0  0  0  0  0  0  0  0  0  0  0
    1.7661   17.8874   -9.0004 H   0  0  0  0  0  0  0  0  0  0  0  0
    2.9233   16.4970   -8.8796 H   0  0  0  0  0  0  0  0  0  0  0  0
    1.3506   17.4341  -10.7759 H   0  0  0  0  0  0  0  0  0  0  0  0
    3.2661   14.5502   -9.4838 H   0  0  0  0  0  0  0  0  0  0  0  0
    3.2914   13.4253  -10.8840 H   0  0  0  0  0  0  0  0  0  0  0  0
    4.3410   14.8830  -10.8840 H   0  0  0  0  0  0  0  0  0  0  0  0
    1.2607   14.9048  -13.0720 H   0  0  0  0  0  0  0  0  0  0  0  0
    2.4233   16.2737  -13.1029 H   0  0  0  0  0  0  0  0  0  0  0  0
    3.0275   14.5821  -13.1029 H   0  0  0  0  0  0  0  0  0  0  0  0
    2.1608   15.2041   -5.4830 H   0  0  0  0  0  0  0  0  0  0  0  0
    0.2686   16.6902   -5.2669 H   0  0  0  0  0  0  0  0  0  0  0  0
   -0.6559   15.8191   -6.5090 H   0  0  0  0  0  0  0  0  0  0  0  0
   -1.0873   15.6430   -3.6884 H   0  0  0  0  0  0  0  0  0  0  0  0
   -1.7458   14.5047   -4.8601 H   0  0  0  0  0  0  0  0  0  0  0  0
    0.8337   14.4126   -1.9541 H   0  0  0  0  0  0  0  0  0  0  0  0
    2.1622   14.3394   -3.1609 H   0  0  0  0  0  0  0  0  0  0  0  0
    1.0244   15.7294   -3.1609 H   0  0  0  0  0  0  0  0  0  0  0  0
   -1.1782   12.2895   -4.0601 H   0  0  0  0  0  0  0  0  0  0  0  0
   -1.7042   13.9024   -2.1200 H   0  0  0  0  0  0  0  0  0  0  0  0
   -2.0167   12.0944   -1.9675 H   0  0  0  0  0  0  0  0  0  0  0  0
   -0.9685   13.2782    0.1394 H   0  0  0  0  0  0  0  0  0  0  0  0
    2.2353   12.2518   -2.0930 H   0  0  0  0  0  0  0  0  0  0  0  0
    1.1839    9.5751   -0.9848 H   0  0  0  0  0  0  0  0  0  0  0  0
    2.6144    9.8159   -2.0831 H   0  0  0  0  0  0  0  0  0  0  0  0
    3.2922    9.4302    0.2651 H   0  0  0  0  0  0  0  0  0  0  0  0
    3.7742   11.0596   -0.3496 H   0  0  0  0  0  0  0  0  0  0  0  0
    2.9261   11.2978    1.8823 H   0  0  0  0  0  0  0  0  0  0  0  0
    0.3230   10.4930    1.2220 H   0  0  0  0  0  0  0  0  0  0  0  0
    3.0189   13.8522    1.4619 H   0  0  0  0  0  0  0  0  0  0  0  0
    3.4780   13.0487   -0.0777 H   0  0  0  0  0  0  0  0  0  0  0  0
    2.2374   14.3479   -0.0777 H   0  0  0  0  0  0  0  0  0  0  0  0
    1.2046   12.6384    2.8564 H   0  0  0  0  0  0  0  0  0  0  0  0
    0.6167   14.0298    1.8842 H   0  0  0  0  0  0  0  0  0  0  0  0
   -0.2979   12.4838    1.8842 H   0  0  0  0  0  0  0  0  0  0  0  0
   -0.4685    9.8616   -1.9529 H   0  0  0  0  0  0  0  0  0  0  0  0
   -1.2633   10.2880   -3.5063 H   0  0  0  0  0  0  0  0  0  0  0  0
    0.2350    9.2972   -3.5063 H   0  0  0  0  0  0  0  0  0  0  0  0
    2.4169   10.6845   -3.9574 H   0  0  0  0  0  0  0  0  0  0  0  0
    0.9384   10.7053   -5.0753 H   0  0  0  0  0  0  0  0  0  0  0  0
    2.7396   13.0313   -4.3485 H   0  0  0  0  0  0  0  0  0  0  0  0
    2.5196   12.2329   -5.9551 H   0  0  0  0  0  0  0  0  0  0  0  0
   -0.8334   12.1370   -5.7752 H   0  0  0  0  0  0  0  0  0  0  0  0
   -0.5944   13.4596   -6.9669 H   0  0  0  0  0  0  0  0  0  0  0  0
    0.5072   12.0407   -6.9669 H   0  0  0  0  0  0  0  0  0  0  0  0
  1  2  1  0
  2  3  1  0
  3  4  1  0
  4  5  1  0
  5  6  1  0
  6  7  1  0
  7  8  1  0
  7  9  1  0
  2 10  1  0
 10 11  1  0
 11 12  1  0
 12 13  1  0
 13 14  1  1
 13 15  1  0
 15 16  1  0
 16 17  1  0
 17 18  2  0
 18 19  1  0
 19 20  1  0
 20 21  1  0
 21 22  1  0
 22 23  1  0
 22 24  1  0
 24 25  1  0
 24 26  1  0
 19 27  1  0
 27 28  1  1
 27 29  1  0
 29 30  1  0
 30 31  1  0
 31 32  1  6
  7  5  1  0
 31 10  1  0
 31 13  1  0
 27 15  1  0
 24 18  1  0
  1 33  1  0
  1 34  1  0
  1 35  1  0
  2 36  1  6
  3 37  1  0
  3 38  1  0
  4 39  1  0
  4 40  1  0
  5 41  1  6
  8 42  1  0
  8 43  1  0
  8 44  1  0
  9 45  1  0
  9 46  1  0
  9 47  1  0
 10 48  1  1
 11 49  1  0
 11 50  1  0
 12 51  1  0
 12 52  1  0
 14 53  1  0
 14 54  1  0
 14 55  1  0
 15 56  1  6
 16 57  1  0
 16 58  1  0
 17 59  1  0
 19 60  1  6
 20 61  1  0
 20 62  1  0
 21 63  1  0
 21 64  1  0
 22 65  1  1
 23 66  1  0
 25 67  1  0
 25 68  1  0
 25 69  1  0
 26 70  1  0
 26 71  1  0
 26 72  1  0
 28 73  1  0
 28 74  1  0
 28 75  1  0
 29 76  1  0
 29 77  1  0
 30 78  1  0
 30 79  1  0
 32 80  1  0
 32 81  1  0
 32 82  1  0
M  END
>  <meeko>  (18) 
{"is_sidechain": [false], "intermolecular_energy": 2.731, "internal_energy": -0.839}

$$$$
EPH_relaxed_0001_pdb2pqr_Repair_232_r2_0001_out
     RDKit          3D

 82 86  0  0  0  0  0  0  0  0999 V2000
    1.6320   18.3080   -2.7840 C   0  0  0  0  0  0  0  0  0  0  0  0
    2.0270   17.6380   -1.4650 C   0  0  2  0  0  0  0  0  0  0  0  0
    3.3230   18.2310   -0.8770 C   0  0  0  0  0  0  0  0  0  0  0  0
    3.0880   19.4320    0.0430 C   0  0  0  0  0  0  0  0  0  0  0  0
    3.2880   19.0740    1.4840 C   0  0  2  0  0  0  0  0  0  0  0  0
    3.3570   20.1940    2.3760 O   0  0  0  0  0  0  0  0  0  0  0  0
    4.5490   19.4010    2.2610 C   0  0  0  0  0  0  0  0  0  0  0  0
    5.6970   20.1170    1.6200 C   0  0  0  0  0  0  0  0  0  0  0  0
    4.8620   18.6020    3.4880 C   0  0  0  0  0  0  0  0  0  0  0  0
    2.1880   16.1370   -1.6720 C   0  0  1  0  0  0  0  0  0  0  0  0
    3.6750   15.6980   -1.7310 C   0  0  0  0  0  0  0  0  0  0  0  0
    3.7550   14.2980   -1.0700 C   0  0  0  0  0  0  0  0  0  0  0  0
    2.2830   13.8360   -0.9560 C   0  0  1  0  0  0  0  0  0  0  0  0
    1.9240   13.2870   -2.3720 C   0  0  0  0  0  0  0  0  0  0  0  0
    1.9720   12.7910    0.1650 C   0  0  2  0  0  0  0  0  0  0  0  0
    2.6870   11.4380    0.0120 C   0  0  0  0  0  0  0  0  0  0  0  0
    1.9400   10.4060   -0.7670 C   0  0  0  0  0  0  0  0  0  0  0  0
    0.6320   10.4570   -1.0800 C   0  0  0  0  0  0  0  0  0  0  0  0
   -0.2600   11.5890   -0.5530 C   0  0  1  0  0  0  0  0  0  0  0  0
   -1.5790   10.9930    0.0030 C   0  0  0  0  0  0  0  0  0  0  0  0
   -2.2970   10.1090   -1.0130 C   0  0  0  0  0  0  0  0  0  0  0  0
   -1.3980    8.9620   -1.4680 C   0  0  2  0  0  0  0  0  0  0  0  0
   -1.1740    8.0840   -0.3600 O   0  0  0  0  0  0  0  0  0  0  0  0
   -0.0350    9.4410   -2.0400 C   0  0  0  0  0  0  0  0  0  0  0  0
   -0.2580   10.1370   -3.4050 C   0  0  0  0  0  0  0  0  0  0  0  0
    0.8300    8.1840   -2.3290 C   0  0  0  0  0  0  0  0  0  0  0  0
    0.4290   12.6000    0.4610 C   0  0  1  0  0  0  0  0  0  0  0  0
    0.3210   12.0490    1.9160 C   0  0  0  0  0  0  0  0  0  0  0  0
   -0.3580   13.9630    0.4430 C   0  0  0  0  0  0  0  0  0  0  0  0
    0.0760   15.0010   -0.6100 C   0  0  0  0  0  0  0  0  0  0  0  0
    1.5950   15.2010   -0.5890 C   0  0  2  0  0  0  0  0  0  0  0  0
    1.9830   15.7740    0.8160 C   0  0  0  0  0  0  0  0  0  0  0  0
    1.0837   19.2380   -2.5731 H   0  0  0  0  0  0  0  0  0  0  0  0
    2.5380   18.5398   -3.3632 H   0  0  0  0  0  0  0  0  0  0  0  0
    0.9906   17.6275   -3.3632 H   0  0  0  0  0  0  0  0  0  0  0  0
    1.2197   17.8291   -0.7427 H   0  0  0  0  0  0  0  0  0  0  0  0
    3.8335   17.4460   -0.2998 H   0  0  0  0  0  0  0  0  0  0  0  0
    3.9265   18.5883   -1.7244 H   0  0  0  0  0  0  0  0  0  0  0  0
    3.7939   20.2313   -0.2270 H   0  0  0  0  0  0  0  0  0  0  0  0
    2.0475   19.7645   -0.0864 H   0  0  0  0  0  0  0  0  0  0  0  0
    2.7236   18.1389    1.3533 H   0  0  0  0  0  0  0  0  0  0  0  0
    6.3549   20.5273    2.4002 H   0  0  0  0  0  0  0  0  0  0  0  0
    6.2651   19.4128    0.9944 H   0  0  0  0  0  0  0  0  0  0  0  0
    5.3145   20.9369    0.9944 H   0  0  0  0  0  0  0  0  0  0  0  0
    4.6287   19.1977    4.3828 H   0  0  0  0  0  0  0  0  0  0  0  0
    4.2574   17.6831    3.4913 H   0  0  0  0  0  0  0  0  0  0  0  0
    5.9299   18.3383    3.4913 H   0  0  0  0  0  0  0  0  0  0  0  0
    1.6323   16.0211   -2.6142 H   0  0  0  0  0  0  0  0  0  0  0  0
    4.0125   15.6430   -2.7765 H   0  0  0  0  0  0  0  0  0  0  0  0
    4.3205   16.4190   -1.2080 H   0  0  0  0  0  0  0  0  0  0  0  0
    4.3323   13.6041   -1.6987 H   0  0  0  0  0  0  0  0  0  0  0  0
    4.2604   14.3259   -0.0934 H   0  0  0  0  0  0  0  0  0  0  0  0
    1.3246   12.3704   -2.2688 H   0  0  0  0  0  0  0  0  0  0  0  0
    1.3455   14.0433   -2.9227 H   0  0  0  0  0  0  0  0  0  0  0  0
    2.8489   13.0603   -2.9227 H   0  0  0  0  0  0  0  0  0  0  0  0
    2.4127   13.2615    1.0563 H   0  0  0  0  0  0  0  0  0  0  0  0
    3.6474   11.6164   -0.4938 H   0  0  0  0  0  0  0  0  0  0  0  0
    2.7932   11.0333    1.0293 H   0  0  0  0  0  0  0  0  0  0  0  0
    2.5069    9.5297   -1.1145 H   0  0  0  0  0  0  0  0  0  0  0  0
   -0.4775   12.2325   -1.4183 H   0  0  0  0  0  0  0  0  0  0  0  0
   -1.3456   10.3895    0.8926 H   0  0  0  0  0  0  0  0  0  0  0  0
   -2.2475   11.8320    0.2463 H   0  0  0  0  0  0  0  0  0  0  0  0
   -3.2049    9.6937   -0.5512 H   0  0  0  0  0  0  0  0  0  0  0  0
   -2.5574   10.7206   -1.8894 H   0  0  0  0  0  0  0  0  0  0  0  0
   -1.9159    8.4425   -2.2877 H   0  0  0  0  0  0  0  0  0  0  0  0
   -1.9880    8.0680    0.1720 H   0  0  0  0  0  0  0  0  0  0  0  0
   -0.5898   11.1725   -3.2387 H   0  0  0  0  0  0  0  0  0  0  0  0
    0.6840   10.1405   -3.9730 H   0  0  0  0  0  0  0  0  0  0  0  0
   -1.0266    9.5924   -3.9730 H   0  0  0  0  0  0  0  0  0  0  0  0
    1.1436    7.7282   -1.3783 H   0  0  0  0  0  0  0  0  0  0  0  0
    0.2396    7.4576   -2.9067 H   0  0  0  0  0  0  0  0  0  0  0  0
    1.7194    8.4759   -2.9067 H   0  0  0  0  0  0  0  0  0  0  0  0
    0.4817   12.8689    2.6315 H   0  0  0  0  0  0  0  0  0  0  0  0
   -0.6788   11.6175    2.0714 H   0  0  0  0  0  0  0  0  0  0  0  0
    1.0839   11.2720    2.0714 H   0  0  0  0  0  0  0  0  0  0  0  0
   -1.4189   13.7326    0.2659 H   0  0  0  0  0  0  0  0  0  0  0  0
   -0.1447   14.4319    1.4149 H   0  0  0  0  0  0  0  0  0  0  0  0
   -0.2270   14.6501   -1.6075 H   0  0  0  0  0  0  0  0  0  0  0  0
   -0.4075   15.9610   -0.3764 H   0  0  0  0  0  0  0  0  0  0  0  0
    1.5522   15.1378    1.6032 H   0  0  0  0  0  0  0  0  0  0  0  0
    3.0783   15.7898    0.9158 H   0  0  0  0  0  0  0  0  0  0  0  0
    1.5910   16.7969    0.9158 H   0  0  0  0  0  0  0  0  0  0  0  0
  1  2  1  0
  2  3  1  0
  3  4  1  0
  4  5  1  0
  5  6  1  0
  6  7  1  0
  7  8  1  0
  7  9  1  0
  2 10  1  0
 10 11  1  0
 11 12  1  0
 12 13  1  0
 13 14  1  6
 13 15  1  0
 15 16  1  0
 16 17  1  0
 17 18  2  0
 18 19  1  0
 19 20  1  0
 20 21  1  0
 21 22  1  0
 22 23  1  0
 22 24  1  0
 24 25  1  0
 24 26  1  0
 19 27  1  0
 27 28  1  1
 27 29  1  0
 29 30  1  0
 30 31  1  0
 31 32  1  1
  7  5  1  0
 31 10  1  0
 31 13  1  0
 27 15  1  0
 24 18  1  0
  1 33  1  0
  1 34  1  0
  1 35  1  0
  2 36  1  1
  3 37  1  0
  3 38  1  0
  4 39  1  0
  4 40  1  0
  5 41  1  1
  8 42  1  0
  8 43  1  0
  8 44  1  0
  9 45  1  0
  9 46  1  0
  9 47  1  0
 10 48  1  6
 11 49  1  0
 11 50  1  0
 12 51  1  0
 12 52  1  0
 14 53  1  0
 14 54  1  0
 14 55  1  0
 15 56  1  1
 16 57  1  0
 16 58  1  0
 17 59  1  0
 19 60  1  6
 20 61  1  0
 20 62  1  0
 21 63  1  0
 21 64  1  0
 22 65  1  6
 23 66  1  0
 25 67  1  0
 25 68  1  0
 25 69  1  0
 26 70  1  0
 26 71  1  0
 26 72  1  0
 28 73  1  0
 28 74  1  0
 28 75  1  0
 29 76  1  0
 29 77  1  0
 30 78  1  0
 30 79  1  0
 32 80  1  0
 32 81  1  0
 32 82  1  0
M  END
>  <meeko>  (19) 
{"is_sidechain": [false], "intermolecular_energy": 2.731, "internal_energy": -0.839}

$$$$
