EPH_relaxed_0001_pdb2pqr_Repair_274_r2_0001_out
     RDKit          3D

 82 86  0  0  0  0  0  0  0  0999 V2000
   -1.7140    8.5860   -1.8780 C   0  0  0  0  0  0  0  0  0  0  0  0
   -2.0900    9.1080   -0.4880 C   0  0  2  0  0  0  0  0  0  0  0  0
   -3.5840    9.4780   -0.3910 C   0  0  0  0  0  0  0  0  0  0  0  0
   -4.5090    8.2680   -0.2350 C   0  0  0  0  0  0  0  0  0  0  0  0
   -5.2110    7.9380   -1.5180 C   0  0  2  0  0  0  0  0  0  0  0  0
   -6.3570    8.7520   -1.7990 O   0  0  0  0  0  0  0  0  0  0  0  0
   -6.6110    7.3550   -1.5790 C   0  0  0  0  0  0  0  0  0  0  0  0
   -7.3920    7.0670   -0.3350 C   0  0  0  0  0  0  0  0  0  0  0  0
   -7.0250    6.6160   -2.8130 C   0  0  0  0  0  0  0  0  0  0  0  0
   -1.2310   10.3160   -0.1360 C   0  0  1  0  0  0  0  0  0  0  0  0
   -0.2010   10.0110    0.9840 C   0  0  0  0  0  0  0  0  0  0  0  0
    1.0700   10.8380    0.6610 C   0  0  0  0  0  0  0  0  0  0  0  0
    0.6200   11.8340   -0.4330 C   0  0  1  0  0  0  0  0  0  0  0  0
   -0.0870   12.9890    0.3430 C   0  0  0  0  0  0  0  0  0  0  0  0
    1.7410   12.3750   -1.3790 C   0  0  2  0  0  0  0  0  0  0  0  0
    2.8440   13.1910   -0.6820 C   0  0  0  0  0  0  0  0  0  0  0  0
    2.5940   14.6610   -0.6000 C   0  0  0  0  0  0  0  0  0  0  0  0
    1.6730   15.3390   -1.3090 C   0  0  0  0  0  0  0  0  0  0  0  0
    0.8290   14.6350   -2.3800 C   0  0  1  0  0  0  0  0  0  0  0  0
    0.8040   15.4970   -3.6690 C   0  0  0  0  0  0  0  0  0  0  0  0
    0.3410   16.9270   -3.4080 C   0  0  0  0  0  0  0  0  0  0  0  0
    1.2400   17.6120   -2.3820 C   0  0  2  0  0  0  0  0  0  0  0  0
    2.5420   17.7800   -2.9500 O   0  0  0  0  0  0  0  0  0  0  0  0
    1.3490   16.8300   -1.0440 C   0  0  0  0  0  0  0  0  0  0  0  0
    0.0020   16.9070   -0.2840 C   0  0  0  0  0  0  0  0  0  0  0  0
    2.3940   17.5540   -0.1520 C   0  0  0  0  0  0  0  0  0  0  0  0
    1.2000   13.1170   -2.6680 C   0  0  1  0  0  0  0  0  0  0  0  0
    2.3340   13.0390   -3.7350 C   0  0  0  0  0  0  0  0  0  0  0  0
   -0.0500   12.3920   -3.2940 C   0  0  0  0  0  0  0  0  0  0  0  0
   -1.0600   11.7740   -2.3100 C   0  0  0  0  0  0  0  0  0  0  0  0
   -0.3490   10.9130   -1.2610 C   0  0  2  0  0  0  0  0  0  0  0  0
    0.3530    9.7300   -2.0110 C   0  0  0  0  0  0  0  0  0  0  0  0
   -1.0739    7.6974   -1.7752 H   0  0  0  0  0  0  0  0  0  0  0  0
   -2.6278    8.3179   -2.4286 H   0  0  0  0  0  0  0  0  0  0  0  0
   -1.1703    9.3678   -2.4286 H   0  0  0  0  0  0  0  0  0  0  0  0
   -1.9031    8.2969    0.2312 H   0  0  0  0  0  0  0  0  0  0  0  0
   -3.7230   10.1359    0.4796 H   0  0  0  0  0  0  0  0  0  0  0  0
   -3.8553    9.9701   -1.3366 H   0  0  0  0  0  0  0  0  0  0  0  0
   -3.9105    7.3996    0.0775 H   0  0  0  0  0  0  0  0  0  0  0  0
   -5.2708    8.5136    0.5195 H   0  0  0  0  0  0  0  0  0  0  0  0
   -4.2636    7.6328   -1.9862 H   0  0  0  0  0  0  0  0  0  0  0  0
   -6.7746    7.2947    0.5465 H   0  0  0  0  0  0  0  0  0  0  0  0
   -8.2984    7.6900   -0.3186 H   0  0  0  0  0  0  0  0  0  0  0  0
   -7.6769    6.0047   -0.3186 H   0  0  0  0  0  0  0  0  0  0  0  0
   -7.5443    5.6890   -2.5284 H   0  0  0  0  0  0  0  0  0  0  0  0
   -7.7010    7.2469   -3.4088 H   0  0  0  0  0  0  0  0  0  0  0  0
   -6.1339    6.3690   -3.4088 H   0  0  0  0  0  0  0  0  0  0  0  0
   -2.0210   11.0291    0.1421 H   0  0  0  0  0  0  0  0  0  0  0  0
   -0.6069   10.3070    1.9626 H   0  0  0  0  0  0  0  0  0  0  0  0
    0.0281    8.9360    1.0275 H   0  0  0  0  0  0  0  0  0  0  0  0
    1.4212   11.3751    1.5544 H   0  0  0  0  0  0  0  0  0  0  0  0
    1.9065   10.2050    0.3301 H   0  0  0  0  0  0  0  0  0  0  0  0
    0.0161   12.8206    1.4251 H   0  0  0  0  0  0  0  0  0  0  0  0
    0.3783   13.9491    0.0754 H   0  0  0  0  0  0  0  0  0  0  0  0
   -1.1537   13.0113    0.0754 H   0  0  0  0  0  0  0  0  0  0  0  0
    2.2257   11.4498   -1.7240 H   0  0  0  0  0  0  0  0  0  0  0  0
    2.9546   12.8072    0.3429 H   0  0  0  0  0  0  0  0  0  0  0  0
    3.7476   13.0696   -1.2975 H   0  0  0  0  0  0  0  0  0  0  0  0
    3.2158   15.2388    0.0997 H   0  0  0  0  0  0  0  0  0  0  0  0
   -0.1862   14.5566   -1.9639 H   0  0  0  0  0  0  0  0  0  0  0  0
    1.8186   15.5268   -4.0929 H   0  0  0  0  0  0  0  0  0  0  0  0
    0.0876   15.0360   -4.3649 H   0  0  0  0  0  0  0  0  0  0  0  0
    0.3732   17.4936   -4.3503 H   0  0  0  0  0  0  0  0  0  0  0  0
   -0.6849   16.8975   -3.0122 H   0  0  0  0  0  0  0  0  0  0  0  0
    0.7844   18.5835   -2.1399 H   0  0  0  0  0  0  0  0  0  0  0  0
    3.0800   18.2770   -2.3100 H   0  0  0  0  0  0  0  0  0  0  0  0
    0.1912   16.8962    0.7995 H   0  0  0  0  0  0  0  0  0  0  0  0
   -0.5198   17.8364   -0.5558 H   0  0  0  0  0  0  0  0  0  0  0  0
   -0.6223   16.0431   -0.5558 H   0  0  0  0  0  0  0  0  0  0  0  0
    2.1511   17.3857    0.9076 H   0  0  0  0  0  0  0  0  0  0  0  0
    3.3970   17.1563   -0.3659 H   0  0  0  0  0  0  0  0  0  0  0  0
    2.3741   18.6328   -0.3659 H   0  0  0  0  0  0  0  0  0  0  0  0
    3.3088   12.9719   -3.2298 H   0  0  0  0  0  0  0  0  0  0  0  0
    2.1850   12.1490   -4.3640 H   0  0  0  0  0  0  0  0  0  0  0  0
    2.3083   13.9410   -4.3640 H   0  0  0  0  0  0  0  0  0  0  0  0
   -0.5903   13.1294   -3.9058 H   0  0  0  0  0  0  0  0  0  0  0  0
    0.3627   11.5405   -3.8549 H   0  0  0  0  0  0  0  0  0  0  0  0
   -1.6070   12.5816   -1.8016 H   0  0  0  0  0  0  0  0  0  0  0  0
   -1.7539   11.1349   -2.8757 H   0  0  0  0  0  0  0  0  0  0  0  0
    0.7706    9.0262   -1.2760 H   0  0  0  0  0  0  0  0  0  0  0  0
   -0.3818    9.2083   -2.6418 H   0  0  0  0  0  0  0  0  0  0  0  0
    1.1630   10.1250   -2.6418 H   0  0  0  0  0  0  0  0  0  0  0  0
  1  2  1  0
  2  3  1  0
  3  4  1  0
  4  5  1  0
  5  6  1  0
  6  7  1  0
  7  8  1  0
  7  9  1  0
  2 10  1  0
 10 11  1  0
 11 12  1  0
 12 13  1  0
 13 14  1  1
 13 15  1  0
 15 16  1  0
 16 17  1  0
 17 18  2  0
 18 19  1  0
 19 20  1  0
 20 21  1  0
 21 22  1  0
 22 23  1  0
 22 24  1  0
 24 25  1  0
 24 26  1  0
 19 27  1  0
 27 28  1  6
 27 29  1  0
 29 30  1  0
 30 31  1  0
 31 32  1  6
  7  5  1  0
 31 10  1  0
 31 13  1  0
 27 15  1  0
 24 18  1  0
  1 33  1  0
  1 34  1  0
  1 35  1  0
  2 36  1  1
  3 37  1  0
  3 38  1  0
  4 39  1  0
  4 40  1  0
  5 41  1  6
  8 42  1  0
  8 43  1  0
  8 44  1  0
  9 45  1  0
  9 46  1  0
  9 47  1  0
 10 48  1  1
 11 49  1  0
 11 50  1  0
 12 51  1  0
 12 52  1  0
 14 53  1  0
 14 54  1  0
 14 55  1  0
 15 56  1  6
 16 57  1  0
 16 58  1  0
 17 59  1  0
 19 60  1  1
 20 61  1  0
 20 62  1  0
 21 63  1  0
 21 64  1  0
 22 65  1  1
 23 66  1  0
 25 67  1  0
 25 68  1  0
 25 69  1  0
 26 70  1  0
 26 71  1  0
 26 72  1  0
 28 73  1  0
 28 74  1  0
 28 75  1  0
 29 76  1  0
 29 77  1  0
 30 78  1  0
 30 79  1  0
 32 80  1  0
 32 81  1  0
 32 82  1  0
M  END
>  <meeko>  (1) 
{"is_sidechain": [false], "intermolecular_energy": 2.731, "internal_energy": -0.839}

$$$$
EPH_relaxed_0001_pdb2pqr_Repair_274_r2_0001_out
     RDKit          3D

 82 86  0  0  0  0  0  0  0  0999 V2000
    4.2690   17.3970   -0.5770 C   0  0  0  0  0  0  0  0  0  0  0  0
    2.9060   18.0030   -0.2290 C   0  0  2  0  0  0  0  0  0  0  0  0
    2.9280   18.7420    1.1240 C   0  0  0  0  0  0  0  0  0  0  0  0
    4.2910   18.7130    1.8200 C   0  0  0  0  0  0  0  0  0  0  0  0
    4.2180   19.2770    3.2070 C   0  0  2  0  0  0  0  0  0  0  0  0
    5.2690   20.1940    3.5360 O   0  0  0  0  0  0  0  0  0  0  0  0
    5.2370   18.9710    4.2890 C   0  0  0  0  0  0  0  0  0  0  0  0
    6.4010   18.0670    4.0310 C   0  0  0  0  0  0  0  0  0  0  0  0
    4.8370   19.1540    5.7200 C   0  0  0  0  0  0  0  0  0  0  0  0
    1.8420   16.9120   -0.2100 C   0  0  1  0  0  0  0  0  0  0  0  0
    0.4200   17.4600   -0.5010 C   0  0  0  0  0  0  0  0  0  0  0  0
   -0.3280   16.3620   -1.3000 C   0  0  0  0  0  0  0  0  0  0  0  0
    0.5590   15.1030   -1.1570 C   0  0  1  0  0  0  0  0  0  0  0  0
    0.1940   14.5120    0.2410 C   0  0  0  0  0  0  0  0  0  0  0  0
    0.4280   14.0330   -2.2890 C   0  0  2  0  0  0  0  0  0  0  0  0
   -0.9640   13.3910   -2.4220 C   0  0  0  0  0  0  0  0  0  0  0  0
   -1.1750   12.1530   -1.6130 C   0  0  0  0  0  0  0  0  0  0  0  0
   -0.2040   11.4200   -1.0370 C   0  0  0  0  0  0  0  0  0  0  0  0
    1.2760   11.7630   -1.2540 C   0  0  1  0  0  0  0  0  0  0  0  0
    2.0630   10.4690   -1.5870 C   0  0  0  0  0  0  0  0  0  0  0  0
    1.8650    9.3780   -0.5390 C   0  0  0  0  0  0  0  0  0  0  0  0
    0.3870    9.0240   -0.3940 C   0  0  2  0  0  0  0  0  0  0  0  0
   -0.0610    8.4100   -1.6060 O   0  0  0  0  0  0  0  0  0  0  0  0
   -0.5080   10.2520   -0.0680 C   0  0  0  0  0  0  0  0  0  0  0  0
   -0.2260   10.7330    1.3770 C   0  0  0  0  0  0  0  0  0  0  0  0
   -1.9880    9.7820   -0.0880 C   0  0  0  0  0  0  0  0  0  0  0  0
    1.5710   12.9390   -2.2820 C   0  0  1  0  0  0  0  0  0  0  0  0
    1.6520   12.3700   -3.7320 C   0  0  0  0  0  0  0  0  0  0  0  0
    2.9860   13.5540   -1.9670 C   0  0  0  0  0  0  0  0  0  0  0  0
    3.0340   14.6890   -0.9270 C   0  0  0  0  0  0  0  0  0  0  0  0
    1.9850   15.7610   -1.2370 C   0  0  2  0  0  0  0  0  0  0  0  0
    2.3400   16.3900   -2.6280 C   0  0  0  0  0  0  0  0  0  0  0  0
    4.8106   17.1562    0.3497 H   0  0  0  0  0  0  0  0  0  0  0  0
    4.1227   16.4791   -1.1653 H   0  0  0  0  0  0  0  0  0  0  0  0
    4.8525   18.1205   -1.1653 H   0  0  0  0  0  0  0  0  0  0  0  0
    2.6646   18.7437   -1.0056 H   0  0  0  0  0  0  0  0  0  0  0  0
    2.6491   19.7918    0.9506 H   0  0  0  0  0  0  0  0  0  0  0  0
    2.2188   18.2224    1.7851 H   0  0  0  0  0  0  0  0  0  0  0  0
    4.6401   17.6714    1.8767 H   0  0  0  0  0  0  0  0  0  0  0  0
    4.9878   19.3312    1.2349 H   0  0  0  0  0  0  0  0  0  0  0  0
    3.1191   19.2301    3.1939 H   0  0  0  0  0  0  0  0  0  0  0  0
    6.8275   17.7358    4.9893 H   0  0  0  0  0  0  0  0  0  0  0  0
    6.0647   17.1910    3.4570 H   0  0  0  0  0  0  0  0  0  0  0  0
    7.1665   18.6097    3.4570 H   0  0  0  0  0  0  0  0  0  0  0  0
    5.6405   18.7864    6.3752 H   0  0  0  0  0  0  0  0  0  0  0  0
    4.6620   20.2218    5.9181 H   0  0  0  0  0  0  0  0  0  0  0  0
    3.9147   18.5883    5.9181 H   0  0  0  0  0  0  0  0  0  0  0  0
    1.9910   16.5268    0.8095 H   0  0  0  0  0  0  0  0  0  0  0  0
   -0.1065   17.6670    0.4424 H   0  0  0  0  0  0  0  0  0  0  0  0
    0.4680   18.3996   -1.0710 H   0  0  0  0  0  0  0  0  0  0  0  0
   -1.3265   16.1840   -0.8742 H   0  0  0  0  0  0  0  0  0  0  0  0
   -0.4847   16.6448   -2.3514 H   0  0  0  0  0  0  0  0  0  0  0  0
    0.5963   15.1634    1.0308 H   0  0  0  0  0  0  0  0  0  0  0  0
   -0.8999   14.4500    0.3386 H   0  0  0  0  0  0  0  0  0  0  0  0
    0.6284   13.5061    0.3386 H   0  0  0  0  0  0  0  0  0  0  0  0
    0.5676   14.6344   -3.1994 H   0  0  0  0  0  0  0  0  0  0  0  0
   -1.7123   14.1337   -2.1084 H   0  0  0  0  0  0  0  0  0  0  0  0
   -1.0598   13.0869   -3.4748 H   0  0  0  0  0  0  0  0  0  0  0  0
   -2.2117   11.8115   -1.4764 H   0  0  0  0  0  0  0  0  0  0  0  0
    1.6344   12.1833   -0.3027 H   0  0  0  0  0  0  0  0  0  0  0  0
    1.7207   10.0888   -2.5608 H   0  0  0  0  0  0  0  0  0  0  0  0
    3.1328   10.7242   -1.6054 H   0  0  0  0  0  0  0  0  0  0  0  0
    2.4222    8.4800   -0.8442 H   0  0  0  0  0  0  0  0  0  0  0  0
    2.2343    9.7488    0.4286 H   0  0  0  0  0  0  0  0  0  0  0  0
    0.2950    8.3343    0.4580 H   0  0  0  0  0  0  0  0  0  0  0  0
    0.4680    8.7760   -2.3350 H   0  0  0  0  0  0  0  0  0  0  0  0
   -0.6486   10.0122    2.0924 H   0  0  0  0  0  0  0  0  0  0  0  0
    0.8602   10.8100    1.5324 H   0  0  0  0  0  0  0  0  0  0  0  0
   -0.6894   11.7185    1.5324 H   0  0  0  0  0  0  0  0  0  0  0  0
   -2.3502    9.6670    0.9443 H   0  0  0  0  0  0  0  0  0  0  0  0
   -2.6029   10.5291   -0.6112 H   0  0  0  0  0  0  0  0  0  0  0  0
   -2.0592    8.8170   -0.6112 H   0  0  0  0  0  0  0  0  0  0  0  0
    1.8069   11.2817   -3.6907 H   0  0  0  0  0  0  0  0  0  0  0  0
    0.7139   12.5869   -4.2639 H   0  0  0  0  0  0  0  0  0  0  0  0
    2.4923   12.8401   -4.2639 H   0  0  0  0  0  0  0  0  0  0  0  0
    3.6287   12.7398   -1.6009 H   0  0  0  0  0  0  0  0  0  0  0  0
    3.3165   14.0136   -2.9101 H   0  0  0  0  0  0  0  0  0  0  0  0
    2.8372   14.2710    0.0713 H   0  0  0  0  0  0  0  0  0  0  0  0
    4.0306   15.1534   -0.9602 H   0  0  0  0  0  0  0  0  0  0  0  0
    2.8754   17.3387   -2.4755 H   0  0  0  0  0  0  0  0  0  0  0  0
    2.9790   15.6949   -3.1924 H   0  0  0  0  0  0  0  0  0  0  0  0
    1.4147   16.5778   -3.1924 H   0  0  0  0  0  0  0  0  0  0  0  0
  1  2  1  0
  2  3  1  0
  3  4  1  0
  4  5  1  0
  5  6  1  0
  6  7  1  0
  7  8  1  0
  7  9  1  0
  2 10  1  0
 10 11  1  0
 11 12  1  0
 12 13  1  0
 13 14  1  1
 13 15  1  0
 15 16  1  0
 16 17  1  0
 17 18  2  0
 18 19  1  0
 19 20  1  0
 20 21  1  0
 21 22  1  0
 22 23  1  0
 22 24  1  0
 24 25  1  0
 24 26  1  0
 19 27  1  0
 27 28  1  6
 27 29  1  0
 29 30  1  0
 30 31  1  0
 31 32  1  6
  7  5  1  0
 31 10  1  0
 31 13  1  0
 27 15  1  0
 24 18  1  0
  1 33  1  0
  1 34  1  0
  1 35  1  0
  2 36  1  6
  3 37  1  0
  3 38  1  0
  4 39  1  0
  4 40  1  0
  5 41  1  1
  8 42  1  0
  8 43  1  0
  8 44  1  0
  9 45  1  0
  9 46  1  0
  9 47  1  0
 10 48  1  1
 11 49  1  0
 11 50  1  0
 12 51  1  0
 12 52  1  0
 14 53  1  0
 14 54  1  0
 14 55  1  0
 15 56  1  6
 16 57  1  0
 16 58  1  0
 17 59  1  0
 19 60  1  1
 20 61  1  0
 20 62  1  0
 21 63  1  0
 21 64  1  0
 22 65  1  1
 23 66  1  0
 25 67  1  0
 25 68  1  0
 25 69  1  0
 26 70  1  0
 26 71  1  0
 26 72  1  0
 28 73  1  0
 28 74  1  0
 28 75  1  0
 29 76  1  0
 29 77  1  0
 30 78  1  0
 30 79  1  0
 32 80  1  0
 32 81  1  0
 32 82  1  0
M  END
>  <meeko>  (2) 
{"is_sidechain": [false], "intermolecular_energy": 2.731, "internal_energy": -0.839}

$$$$
EPH_relaxed_0001_pdb2pqr_Repair_274_r2_0001_out
     RDKit          3D

 82 86  0  0  0  0  0  0  0  0999 V2000
    2.4070   17.9560   -2.6460 C   0  0  0  0  0  0  0  0  0  0  0  0
    1.0800   17.6080   -1.9660 C   0  0  2  0  0  0  0  0  0  0  0  0
    1.1780   17.6810   -0.4290 C   0  0  0  0  0  0  0  0  0  0  0  0
    0.8090   19.0500    0.1470 C   0  0  0  0  0  0  0  0  0  0  0  0
   -0.6580   19.1520    0.4390 C   0  0  2  0  0  0  0  0  0  0  0  0
   -1.4840   18.2660   -0.3270 O   0  0  0  0  0  0  0  0  0  0  0  0
   -1.6760   19.6710   -0.5590 C   0  0  0  0  0  0  0  0  0  0  0  0
   -1.2670   20.1240   -1.9260 C   0  0  0  0  0  0  0  0  0  0  0  0
   -2.9800   20.1940   -0.0440 C   0  0  0  0  0  0  0  0  0  0  0  0
    0.6260   16.2180   -2.3940 C   0  0  1  0  0  0  0  0  0  0  0  0
    0.7070   16.0090   -3.9300 C   0  0  0  0  0  0  0  0  0  0  0  0
    1.1040   14.5280   -4.1590 C   0  0  0  0  0  0  0  0  0  0  0  0
    0.9140   13.8550   -2.7800 C   0  0  1  0  0  0  0  0  0  0  0  0
   -0.6170   13.5610   -2.6840 C   0  0  0  0  0  0  0  0  0  0  0  0
    1.7650   12.5700   -2.5140 C   0  0  2  0  0  0  0  0  0  0  0  0
    1.4730   11.3880   -3.4550 C   0  0  0  0  0  0  0  0  0  0  0  0
    0.4160   10.4440   -2.9830 C   0  0  0  0  0  0  0  0  0  0  0  0
   -0.0700   10.3770   -1.7300 C   0  0  0  0  0  0  0  0  0  0  0  0
    0.5180   11.2450   -0.6100 C   0  0  1  0  0  0  0  0  0  0  0  0
    0.7560   10.3710    0.6500 C   0  0  0  0  0  0  0  0  0  0  0  0
   -0.4990    9.6240    1.0890 C   0  0  0  0  0  0  0  0  0  0  0  0
   -1.0200    8.7280   -0.0320 C   0  0  2  0  0  0  0  0  0  0  0  0
   -0.0720    7.6820   -0.2650 O   0  0  0  0  0  0  0  0  0  0  0  0
   -1.2870    9.4970   -1.3560 C   0  0  0  0  0  0  0  0  0  0  0  0
   -2.5200   10.4190   -1.1830 C   0  0  0  0  0  0  0  0  0  0  0  0
   -1.6730    8.4570   -2.4420 C   0  0  0  0  0  0  0  0  0  0  0  0
    1.7910   12.1120   -1.0000 C   0  0  1  0  0  0  0  0  0  0  0  0
    3.0890   11.2670   -0.8130 C   0  0  0  0  0  0  0  0  0  0  0  0
    1.9080   13.3290   -0.0080 C   0  0  0  0  0  0  0  0  0  0  0  0
    1.1400   14.6100   -0.3870 C   0  0  0  0  0  0  0  0  0  0  0  0
    1.4190   15.0080   -1.8390 C   0  0  2  0  0  0  0  0  0  0  0  0
    2.9480   15.3310   -1.9610 C   0  0  0  0  0  0  0  0  0  0  0  0
    3.1703   18.1562   -1.8796 H   0  0  0  0  0  0  0  0  0  0  0  0
    2.7299   17.1122   -3.2734 H   0  0  0  0  0  0  0  0  0  0  0  0
    2.2742   18.8497   -3.2734 H   0  0  0  0  0  0  0  0  0  0  0  0
    0.3387   18.3556   -2.2847 H   0  0  0  0  0  0  0  0  0  0  0  0
    0.4977   16.9297   -0.0016 H   0  0  0  0  0  0  0  0  0  0  0  0
    2.2293   17.4940   -0.1648 H   0  0  0  0  0  0  0  0  0  0  0  0
    1.3699   19.2070    1.0801 H   0  0  0  0  0  0  0  0  0  0  0  0
    1.0639   19.8162   -0.6000 H   0  0  0  0  0  0  0  0  0  0  0  0
   -0.4546   19.4123    1.4882 H   0  0  0  0  0  0  0  0  0  0  0  0
   -0.5322   20.9378   -1.8380 H   0  0  0  0  0  0  0  0  0  0  0  0
   -0.8175   19.2816   -2.4722 H   0  0  0  0  0  0  0  0  0  0  0  0
   -2.1508   20.4854   -2.4722 H   0  0  0  0  0  0  0  0  0  0  0  0
   -2.9682   20.1893    1.0559 H   0  0  0  0  0  0  0  0  0  0  0  0
   -3.1308   21.2222   -0.4047 H   0  0  0  0  0  0  0  0  0  0  0  0
   -3.7995   19.5550   -0.4047 H   0  0  0  0  0  0  0  0  0  0  0  0
   -0.3930   16.2218   -1.9797 H   0  0  0  0  0  0  0  0  0  0  0  0
   -0.2695   16.2154   -4.3925 H   0  0  0  0  0  0  0  0  0  0  0  0
    1.4425   16.6899   -4.3832 H   0  0  0  0  0  0  0  0  0  0  0  0
    0.4503   14.0627   -4.9114 H   0  0  0  0  0  0  0  0  0  0  0  0
    2.1327   14.4254   -4.5348 H   0  0  0  0  0  0  0  0  0  0  0  0
   -0.9138   13.5040   -1.6263 H   0  0  0  0  0  0  0  0  0  0  0  0
   -1.1771   14.3680   -3.1790 H   0  0  0  0  0  0  0  0  0  0  0  0
   -0.8383   12.6039   -3.1790 H   0  0  0  0  0  0  0  0  0  0  0  0
    2.7828   12.9049   -2.7629 H   0  0  0  0  0  0  0  0  0  0  0  0
    1.1553   11.7965   -4.4257 H   0  0  0  0  0  0  0  0  0  0  0  0
    2.4030   10.8029   -3.5070 H   0  0  0  0  0  0  0  0  0  0  0  0
   -0.0005    9.7442   -3.7225 H   0  0  0  0  0  0  0  0  0  0  0  0
   -0.2367   12.0155   -0.3939 H   0  0  0  0  0  0  0  0  0  0  0  0
    1.5434    9.6363    0.4260 H   0  0  0  0  0  0  0  0  0  0  0  0
    1.0498   11.0416    1.4710 H   0  0  0  0  0  0  0  0  0  0  0  0
   -0.2605    9.0029    1.9650 H   0  0  0  0  0  0  0  0  0  0  0  0
   -1.2765   10.3605    1.3403 H   0  0  0  0  0  0  0  0  0  0  0  0
   -1.9881    8.3201    0.2943 H   0  0  0  0  0  0  0  0  0  0  0  0
    0.5360    7.9860   -0.9600 H   0  0  0  0  0  0  0  0  0  0  0  0
   -2.7191   10.5679   -0.1115 H   0  0  0  0  0  0  0  0  0  0  0  0
   -2.3203   11.3912   -1.6574 H   0  0  0  0  0  0  0  0  0  0  0  0
   -3.3960    9.9526   -1.6574 H   0  0  0  0  0  0  0  0  0  0  0  0
   -2.0166    7.5312   -1.9574 H   0  0  0  0  0  0  0  0  0  0  0  0
   -2.4800    8.8640   -3.0690 H   0  0  0  0  0  0  0  0  0  0  0  0
   -0.7959    8.2389   -3.0690 H   0  0  0  0  0  0  0  0  0  0  0  0
    3.2899   11.1362    0.2606 H   0  0  0  0  0  0  0  0  0  0  0  0
    2.9562   10.2818   -1.2839 H   0  0  0  0  0  0  0  0  0  0  0  0
    3.9362   11.7872   -1.2839 H   0  0  0  0  0  0  0  0  0  0  0  0
    1.5367   12.9961    0.9725 H   0  0  0  0  0  0  0  0  0  0  0  0
    2.9703   13.6141   -0.0259 H   0  0  0  0  0  0  0  0  0  0  0  0
    0.0614   14.4325   -0.2636 H   0  0  0  0  0  0  0  0  0  0  0  0
    1.4741   15.4262    0.2704 H   0  0  0  0  0  0  0  0  0  0  0  0
    3.3846   15.4232   -0.9556 H   0  0  0  0  0  0  0  0  0  0  0  0
    3.4518   14.5195   -2.5065 H   0  0  0  0  0  0  0  0  0  0  0  0
    3.0805   16.2770   -2.5065 H   0  0  0  0  0  0  0  0  0  0  0  0
  1  2  1  0
  2  3  1  0
  3  4  1  0
  4  5  1  0
  5  6  1  0
  6  7  1  0
  7  8  1  0
  7  9  1  0
  2 10  1  0
 10 11  1  0
 11 12  1  0
 12 13  1  0
 13 14  1  1
 13 15  1  0
 15 16  1  0
 16 17  1  0
 17 18  2  0
 18 19  1  0
 19 20  1  0
 20 21  1  0
 21 22  1  0
 22 23  1  0
 22 24  1  0
 24 25  1  0
 24 26  1  0
 19 27  1  0
 27 28  1  6
 27 29  1  0
 29 30  1  0
 30 31  1  0
 31 32  1  1
  7  5  1  0
 31 10  1  0
 31 13  1  0
 27 15  1  0
 24 18  1  0
  1 33  1  0
  1 34  1  0
  1 35  1  0
  2 36  1  6
  3 37  1  0
  3 38  1  0
  4 39  1  0
  4 40  1  0
  5 41  1  1
  8 42  1  0
  8 43  1  0
  8 44  1  0
  9 45  1  0
  9 46  1  0
  9 47  1  0
 10 48  1  1
 11 49  1  0
 11 50  1  0
 12 51  1  0
 12 52  1  0
 14 53  1  0
 14 54  1  0
 14 55  1  0
 15 56  1  6
 16 57  1  0
 16 58  1  0
 17 59  1  0
 19 60  1  1
 20 61  1  0
 20 62  1  0
 21 63  1  0
 21 64  1  0
 22 65  1  1
 23 66  1  0
 25 67  1  0
 25 68  1  0
 25 69  1  0
 26 70  1  0
 26 71  1  0
 26 72  1  0
 28 73  1  0
 28 74  1  0
 28 75  1  0
 29 76  1  0
 29 77  1  0
 30 78  1  0
 30 79  1  0
 32 80  1  0
 32 81  1  0
 32 82  1  0
M  END
>  <meeko>  (3) 
{"is_sidechain": [false], "intermolecular_energy": 2.731, "internal_energy": -0.839}

$$$$
EPH_relaxed_0001_pdb2pqr_Repair_274_r2_0001_out
     RDKit          3D

 82 86  0  0  0  0  0  0  0  0999 V2000
    0.3710   18.4760   -0.1630 C   0  0  0  0  0  0  0  0  0  0  0  0
    1.4500   17.3980   -0.3080 C   0  0  2  0  0  0  0  0  0  0  0  0
    2.7000   17.9240   -1.0410 C   0  0  0  0  0  0  0  0  0  0  0  0
    3.9260   18.0760   -0.1360 C   0  0  0  0  0  0  0  0  0  0  0  0
    3.5500   18.5700    1.2280 C   0  0  2  0  0  0  0  0  0  0  0  0
    3.7650   19.9720    1.4380 O   0  0  0  0  0  0  0  0  0  0  0  0
    4.5580   19.0820    2.2400 C   0  0  0  0  0  0  0  0  0  0  0  0
    6.0210   19.1250    1.9300 C   0  0  0  0  0  0  0  0  0  0  0  0
    4.1820   19.0800    3.6890 C   0  0  0  0  0  0  0  0  0  0  0  0
    0.8830   16.1910   -1.0460 C   0  0  1  0  0  0  0  0  0  0  0  0
    0.7610   16.4280   -2.5750 C   0  0  0  0  0  0  0  0  0  0  0  0
    1.0570   15.0710   -3.2630 C   0  0  0  0  0  0  0  0  0  0  0  0
    1.0110   14.0340   -2.1160 C   0  0  1  0  0  0  0  0  0  0  0  0
   -0.5060   13.7380   -1.9030 C   0  0  0  0  0  0  0  0  0  0  0  0
    1.8300   12.7210   -2.3390 C   0  0  2  0  0  0  0  0  0  0  0  0
    1.3680   11.8580   -3.5270 C   0  0  0  0  0  0  0  0  0  0  0  0
    0.3370   10.8280   -3.2030 C   0  0  0  0  0  0  0  0  0  0  0  0
    0.0100   10.4100   -1.9660 C   0  0  0  0  0  0  0  0  0  0  0  0
    0.7740   10.9170   -0.7360 C   0  0  1  0  0  0  0  0  0  0  0  0
    1.1280    9.7190    0.1840 C   0  0  0  0  0  0  0  0  0  0  0  0
   -0.0950    8.8870    0.5580 C   0  0  0  0  0  0  0  0  0  0  0  0
   -0.7930    8.3520   -0.6900 C   0  0  2  0  0  0  0  0  0  0  0  0
    0.0690    7.4090   -1.3330 O   0  0  0  0  0  0  0  0  0  0  0  0
   -1.1900    9.4690   -1.6960 C   0  0  0  0  0  0  0  0  0  0  0  0
   -2.3470   10.3130   -1.1070 C   0  0  0  0  0  0  0  0  0  0  0  0
   -1.7560    8.7850   -2.9690 C   0  0  0  0  0  0  0  0  0  0  0  0
    2.0260   11.8500   -1.0330 C   0  0  1  0  0  0  0  0  0  0  0  0
    3.2960   10.9760   -1.2670 C   0  0  0  0  0  0  0  0  0  0  0  0
    2.3220   12.7330    0.2360 C   0  0  0  0  0  0  0  0  0  0  0  0
    1.5710   14.0740    0.3400 C   0  0  0  0  0  0  0  0  0  0  0  0
    1.6840   14.8680   -0.9650 C   0  0  2  0  0  0  0  0  0  0  0  0
    3.1980   15.1990   -1.1940 C   0  0  0  0  0  0  0  0  0  0  0  0
    0.1822   18.6646    0.9041 H   0  0  0  0  0  0  0  0  0  0  0  0
    0.7128   19.4041   -0.6445 H   0  0  0  0  0  0  0  0  0  0  0  0
   -0.5567   18.1333   -0.6445 H   0  0  0  0  0  0  0  0  0  0  0  0
    1.7607   17.1019    0.7048 H   0  0  0  0  0  0  0  0  0  0  0  0
    2.9501   17.2211   -1.8493 H   0  0  0  0  0  0  0  0  0  0  0  0
    2.4529   18.9272   -1.4186 H   0  0  0  0  0  0  0  0  0  0  0  0
    4.4198   17.0980   -0.0374 H   0  0  0  0  0  0  0  0  0  0  0  0
    4.6010   18.8139   -0.5940 H   0  0  0  0  0  0  0  0  0  0  0  0
    2.7444   17.8246    1.3012 H   0  0  0  0  0  0  0  0  0  0  0  0
    6.5943   19.1419    2.8686 H   0  0  0  0  0  0  0  0  0  0  0  0
    6.2985   18.2346    1.3467 H   0  0  0  0  0  0  0  0  0  0  0  0
    6.2458   20.0301    1.3467 H   0  0  0  0  0  0  0  0  0  0  0  0
    5.0937   19.0849    4.3044 H   0  0  0  0  0  0  0  0  0  0  0  0
    3.5832   19.9750    3.9137 H   0  0  0  0  0  0  0  0  0  0  0  0
    3.5928   18.1787    3.9137 H   0  0  0  0  0  0  0  0  0  0  0  0
   -0.0749   16.0842   -0.5159 H   0  0  0  0  0  0  0  0  0  0  0  0
   -0.2552   16.7662   -2.8260 H   0  0  0  0  0  0  0  0  0  0  0  0
    1.4648   17.2034   -2.9118 H   0  0  0  0  0  0  0  0  0  0  0  0
    0.2930   14.8453   -4.0215 H   0  0  0  0  0  0  0  0  0  0  0  0
    2.0242   15.0710   -3.7869 H   0  0  0  0  0  0  0  0  0  0  0  0
   -0.7235   13.6956   -0.8256 H   0  0  0  0  0  0  0  0  0  0  0  0
   -1.1040   14.5364   -2.3666 H   0  0  0  0  0  0  0  0  0  0  0  0
   -0.7600   12.7734   -2.3666 H   0  0  0  0  0  0  0  0  0  0  0  0
    2.8222   13.1057   -2.6174 H   0  0  0  0  0  0  0  0  0  0  0  0
    0.9500   12.5286   -4.2922 H   0  0  0  0  0  0  0  0  0  0  0  0
    2.2563   11.3042   -3.8650 H   0  0  0  0  0  0  0  0  0  0  0  0
   -0.2012   10.3719   -4.0470 H   0  0  0  0  0  0  0  0  0  0  0  0
    0.0885   11.5995   -0.2124 H   0  0  0  0  0  0  0  0  0  0  0  0
    1.8474    9.0726   -0.3400 H   0  0  0  0  0  0  0  0  0  0  0  0
    1.5519   10.1260    1.1139 H   0  0  0  0  0  0  0  0  0  0  0  0
    0.2233    8.0400    1.1835 H   0  0  0  0  0  0  0  0  0  0  0  0
   -0.8006    9.5272    1.1078 H   0  0  0  0  0  0  0  0  0  0  0  0
   -1.7295    7.8752   -0.3650 H   0  0  0  0  0  0  0  0  0  0  0  0
    0.1360    6.6300   -0.7550 H   0  0  0  0  0  0  0  0  0  0  0  0
   -2.3023   10.2804   -0.0084 H   0  0  0  0  0  0  0  0  0  0  0  0
   -2.2510   11.3547   -1.4471 H   0  0  0  0  0  0  0  0  0  0  0  0
   -3.3096    9.9035   -1.4471 H   0  0  0  0  0  0  0  0  0  0  0  0
   -2.4320    7.9680   -2.6765 H   0  0  0  0  0  0  0  0  0  0  0  0
   -2.3105    9.5237   -3.5664 H   0  0  0  0  0  0  0  0  0  0  0  0
   -0.9266    8.3785   -3.5664 H   0  0  0  0  0  0  0  0  0  0  0  0
    3.7228   10.6823   -0.2967 H   0  0  0  0  0  0  0  0  0  0  0  0
    3.0214   10.0747   -1.8347 H   0  0  0  0  0  0  0  0  0  0  0  0
    4.0397   11.5545   -1.8347 H   0  0  0  0  0  0  0  0  0  0  0  0
    2.0633   12.1371    1.1237 H   0  0  0  0  0  0  0  0  0  0  0  0
    3.3851   13.0041    0.1563 H   0  0  0  0  0  0  0  0  0  0  0  0
    0.5095   13.8766    0.5504 H   0  0  0  0  0  0  0  0  0  0  0  0
    2.0206   14.6659    1.1509 H   0  0  0  0  0  0  0  0  0  0  0  0
    3.7005   15.3089   -0.2216 H   0  0  0  0  0  0  0  0  0  0  0  0
    3.6701   14.3829   -1.7606 H   0  0  0  0  0  0  0  0  0  0  0  0
    3.2865   16.1377   -1.7606 H   0  0  0  0  0  0  0  0  0  0  0  0
  1  2  1  0
  2  3  1  0
  3  4  1  0
  4  5  1  0
  5  6  1  0
  6  7  1  0
  7  8  1  0
  7  9  1  0
  2 10  1  0
 10 11  1  0
 11 12  1  0
 12 13  1  0
 13 14  1  1
 13 15  1  0
 15 16  1  0
 16 17  1  0
 17 18  2  0
 18 19  1  0
 19 20  1  0
 20 21  1  0
 21 22  1  0
 22 23  1  0
 22 24  1  0
 24 25  1  0
 24 26  1  0
 19 27  1  0
 27 28  1  6
 27 29  1  0
 29 30  1  0
 30 31  1  0
 31 32  1  6
  7  5  1  0
 31 10  1  0
 31 13  1  0
 27 15  1  0
 24 18  1  0
  1 33  1  0
  1 34  1  0
  1 35  1  0
  2 36  1  1
  3 37  1  0
  3 38  1  0
  4 39  1  0
  4 40  1  0
  5 41  1  1
  8 42  1  0
  8 43  1  0
  8 44  1  0
  9 45  1  0
  9 46  1  0
  9 47  1  0
 10 48  1  1
 11 49  1  0
 11 50  1  0
 12 51  1  0
 12 52  1  0
 14 53  1  0
 14 54  1  0
 14 55  1  0
 15 56  1  6
 16 57  1  0
 16 58  1  0
 17 59  1  0
 19 60  1  1
 20 61  1  0
 20 62  1  0
 21 63  1  0
 21 64  1  0
 22 65  1  1
 23 66  1  0
 25 67  1  0
 25 68  1  0
 25 69  1  0
 26 70  1  0
 26 71  1  0
 26 72  1  0
 28 73  1  0
 28 74  1  0
 28 75  1  0
 29 76  1  0
 29 77  1  0
 30 78  1  0
 30 79  1  0
 32 80  1  0
 32 81  1  0
 32 82  1  0
M  END
>  <meeko>  (4) 
{"is_sidechain": [false], "intermolecular_energy": 2.731, "internal_energy": -0.839}

$$$$
EPH_relaxed_0001_pdb2pqr_Repair_274_r2_0001_out
     RDKit          3D

 82 86  0  0  0  0  0  0  0  0999 V2000
   -3.4100    9.3190    0.5440 C   0  0  0  0  0  0  0  0  0  0  0  0
   -2.5810    9.6810   -0.6920 C   0  0  2  0  0  0  0  0  0  0  0  0
   -1.9090    8.4450   -1.3230 C   0  0  0  0  0  0  0  0  0  0  0  0
   -2.8200    7.6700   -2.2780 C   0  0  0  0  0  0  0  0  0  0  0  0
   -4.2600    7.7710   -1.8760 C   0  0  2  0  0  0  0  0  0  0  0  0
   -4.8110    6.5720   -1.3150 O   0  0  0  0  0  0  0  0  0  0  0  0
   -5.3760    7.0070   -2.5630 C   0  0  0  0  0  0  0  0  0  0  0  0
   -5.1000    6.0860   -3.7100 C   0  0  0  0  0  0  0  0  0  0  0  0
   -6.7760    7.5240   -2.4430 C   0  0  0  0  0  0  0  0  0  0  0  0
   -1.5250   10.7170   -0.3240 C   0  0  1  0  0  0  0  0  0  0  0  0
   -0.4310   10.1470    0.6170 C   0  0  0  0  0  0  0  0  0  0  0  0
    0.9000   10.8390    0.2260 C   0  0  0  0  0  0  0  0  0  0  0  0
    0.4760   12.0120   -0.6870 C   0  0  1  0  0  0  0  0  0  0  0  0
    0.0300   13.1430    0.2930 C   0  0  0  0  0  0  0  0  0  0  0  0
    1.5500   12.5200   -1.7040 C   0  0  2  0  0  0  0  0  0  0  0  0
    2.8280   13.0970   -1.0700 C   0  0  0  0  0  0  0  0  0  0  0  0
    2.7990   14.5640   -0.7970 C   0  0  0  0  0  0  0  0  0  0  0  0
    1.9090   15.4370   -1.3060 C   0  0  0  0  0  0  0  0  0  0  0  0
    0.8600   14.9840   -2.3300 C   0  0  1  0  0  0  0  0  0  0  0  0
    0.8140   15.9960   -3.5050 C   0  0  0  0  0  0  0  0  0  0  0  0
    0.5890   17.4300   -3.0340 C   0  0  0  0  0  0  0  0  0  0  0  0
    1.6840   17.8630   -2.0630 C   0  0  2  0  0  0  0  0  0  0  0  0
    2.9260   17.9330   -2.7700 O   0  0  0  0  0  0  0  0  0  0  0  0
    1.8310   16.9120   -0.8420 C   0  0  0  0  0  0  0  0  0  0  0  0
    0.6020   17.0650    0.0870 C   0  0  0  0  0  0  0  0  0  0  0  0
    3.0600   17.3810   -0.0170 C   0  0  0  0  0  0  0  0  0  0  0  0
    0.9790   13.4790   -2.8260 C   0  0  1  0  0  0  0  0  0  0  0  0
    1.9640   13.3910   -4.0310 C   0  0  0  0  0  0  0  0  0  0  0  0
   -0.4230   13.0030   -3.3630 C   0  0  0  0  0  0  0  0  0  0  0  0
   -1.3950   12.4000   -2.3300 C   0  0  0  0  0  0  0  0  0  0  0  0
   -0.6990   11.3330   -1.4810 C   0  0  2  0  0  0  0  0  0  0  0  0
   -0.2590   10.1720   -2.4370 C   0  0  0  0  0  0  0  0  0  0  0  0
   -2.8415    9.5673    1.4524 H   0  0  0  0  0  0  0  0  0  0  0  0
   -4.3514    9.8880    0.5336 H   0  0  0  0  0  0  0  0  0  0  0  0
   -3.6325    8.2418    0.5336 H   0  0  0  0  0  0  0  0  0  0  0  0
   -3.2690   10.1008   -1.4407 H   0  0  0  0  0  0  0  0  0  0  0  0
   -1.0230    8.7792   -1.8827 H   0  0  0  0  0  0  0  0  0  0  0  0
   -1.6521    7.7629   -0.4991 H   0  0  0  0  0  0  0  0  0  0  0  0
   -2.7037    8.0795   -3.2923 H   0  0  0  0  0  0  0  0  0  0  0  0
   -2.5286    6.6098   -2.2445 H   0  0  0  0  0  0  0  0  0  0  0  0
   -4.1397    8.8355   -1.6264 H   0  0  0  0  0  0  0  0  0  0  0  0
   -4.8042    5.0990   -3.3248 H   0  0  0  0  0  0  0  0  0  0  0  0
   -6.0068    5.9832   -4.3241 H   0  0  0  0  0  0  0  0  0  0  0  0
   -4.2861    6.4989   -4.3241 H   0  0  0  0  0  0  0  0  0  0  0  0
   -7.0409    7.6218   -1.3799 H   0  0  0  0  0  0  0  0  0  0  0  0
   -6.8467    8.5075   -2.9305 H   0  0  0  0  0  0  0  0  0  0  0  0
   -7.4690    6.8225   -2.9305 H   0  0  0  0  0  0  0  0  0  0  0  0
   -2.1702   11.4851    0.1274 H   0  0  0  0  0  0  0  0  0  0  0  0
   -0.6797   10.3690    1.6653 H   0  0  0  0  0  0  0  0  0  0  0  0
   -0.3528    9.0545    0.5156 H   0  0  0  0  0  0  0  0  0  0  0  0
    1.4212   11.2116    1.1201 H   0  0  0  0  0  0  0  0  0  0  0  0
    1.5964   10.1508   -0.2753 H   0  0  0  0  0  0  0  0  0  0  0  0
    0.1640   12.8031    1.3305 H   0  0  0  0  0  0  0  0  0  0  0  0
    0.6414   14.0408    0.1194 H   0  0  0  0  0  0  0  0  0  0  0  0
   -1.0296   13.3818    0.1194 H   0  0  0  0  0  0  0  0  0  0  0  0
    1.8576   11.5902   -2.2047 H   0  0  0  0  0  0  0  0  0  0  0  0
    2.9983   12.5772   -0.1157 H   0  0  0  0  0  0  0  0  0  0  0  0
    3.6299   12.9408   -1.8066 H   0  0  0  0  0  0  0  0  0  0  0  0
    3.5698   14.9661   -0.1230 H   0  0  0  0  0  0  0  0  0  0  0  0
   -0.1032   14.9834   -1.7987 H   0  0  0  0  0  0  0  0  0  0  0  0
    1.7693   15.9491   -4.0483 H   0  0  0  0  0  0  0  0  0  0  0  0
   -0.0329   15.7199   -4.1504 H   0  0  0  0  0  0  0  0  0  0  0  0
    0.5952   18.1005   -3.9060 H   0  0  0  0  0  0  0  0  0  0  0  0
   -0.3801   17.4816   -2.5162 H   0  0  0  0  0  0  0  0  0  0  0  0
    1.3991   18.8469   -1.6621 H   0  0  0  0  0  0  0  0  0  0  0  0
    3.0890   18.8670   -2.9860 H   0  0  0  0  0  0  0  0  0  0  0  0
    0.9285   17.0244    1.1366 H   0  0  0  0  0  0  0  0  0  0  0  0
    0.1131   18.0309   -0.1078 H   0  0  0  0  0  0  0  0  0  0  0  0
   -0.1088   16.2484   -0.1078 H   0  0  0  0  0  0  0  0  0  0  0  0
    2.8354   17.2953    1.0564 H   0  0  0  0  0  0  0  0  0  0  0  0
    3.9278   16.7509   -0.2615 H   0  0  0  0  0  0  0  0  0  0  0  0
    3.2874   18.4291   -0.2615 H   0  0  0  0  0  0  0  0  0  0  0  0
    2.9942   13.2990   -3.6565 H   0  0  0  0  0  0  0  0  0  0  0  0
    1.7165   12.5114   -4.6434 H   0  0  0  0  0  0  0  0  0  0  0  0
    1.8764   14.3006   -4.6434 H   0  0  0  0  0  0  0  0  0  0  0  0
   -0.9184   13.8738   -3.8173 H   0  0  0  0  0  0  0  0  0  0  0  0
   -0.2002   12.1828   -4.0613 H   0  0  0  0  0  0  0  0  0  0  0  0
   -1.7625   13.2007   -1.6714 H   0  0  0  0  0  0  0  0  0  0  0  0
   -2.2314   11.9299   -2.8679 H   0  0  0  0  0  0  0  0  0  0  0  0
    0.0682    9.3087   -1.8390 H   0  0  0  0  0  0  0  0  0  0  0  0
   -1.1080    9.8779   -3.0716 H   0  0  0  0  0  0  0  0  0  0  0  0
    0.5717   10.5144   -3.0716 H   0  0  0  0  0  0  0  0  0  0  0  0
  1  2  1  0
  2  3  1  0
  3  4  1  0
  4  5  1  0
  5  6  1  0
  6  7  1  0
  7  8  1  0
  7  9  1  0
  2 10  1  0
 10 11  1  0
 11 12  1  0
 12 13  1  0
 13 14  1  1
 13 15  1  0
 15 16  1  0
 16 17  1  0
 17 18  2  0
 18 19  1  0
 19 20  1  0
 20 21  1  0
 21 22  1  0
 22 23  1  0
 22 24  1  0
 24 25  1  0
 24 26  1  0
 19 27  1  0
 27 28  1  6
 27 29  1  0
 29 30  1  0
 30 31  1  0
 31 32  1  6
  7  5  1  0
 31 10  1  0
 31 13  1  0
 27 15  1  0
 24 18  1  0
  1 33  1  0
  1 34  1  0
  1 35  1  0
  2 36  1  6
  3 37  1  0
  3 38  1  0
  4 39  1  0
  4 40  1  0
  5 41  1  1
  8 42  1  0
  8 43  1  0
  8 44  1  0
  9 45  1  0
  9 46  1  0
  9 47  1  0
 10 48  1  1
 11 49  1  0
 11 50  1  0
 12 51  1  0
 12 52  1  0
 14 53  1  0
 14 54  1  0
 14 55  1  0
 15 56  1  6
 16 57  1  0
 16 58  1  0
 17 59  1  0
 19 60  1  1
 20 61  1  0
 20 62  1  0
 21 63  1  0
 21 64  1  0
 22 65  1  1
 23 66  1  0
 25 67  1  0
 25 68  1  0
 25 69  1  0
 26 70  1  0
 26 71  1  0
 26 72  1  0
 28 73  1  0
 28 74  1  0
 28 75  1  0
 29 76  1  0
 29 77  1  0
 30 78  1  0
 30 79  1  0
 32 80  1  0
 32 81  1  0
 32 82  1  0
M  END
>  <meeko>  (5) 
{"is_sidechain": [false], "intermolecular_energy": 2.731, "internal_energy": -0.839}

$$$$
EPH_relaxed_0001_pdb2pqr_Repair_274_r2_0001_out
     RDKit          3D

 82 86  0  0  0  0  0  0  0  0999 V2000
   -0.6630    9.3240   -2.2610 C   0  0  0  0  0  0  0  0  0  0  0  0
   -0.9230    9.5300   -0.7660 C   0  0  2  0  0  0  0  0  0  0  0  0
   -2.4260    9.4940   -0.4270 C   0  0  0  0  0  0  0  0  0  0  0  0
   -3.1380    8.2320   -0.9220 C   0  0  0  0  0  0  0  0  0  0  0  0
   -4.6200    8.3120   -0.7080 C   0  0  2  0  0  0  0  0  0  0  0  0
   -5.2180    7.1090   -0.2070 O   0  0  0  0  0  0  0  0  0  0  0  0
   -5.6260    7.5200   -1.5220 C   0  0  0  0  0  0  0  0  0  0  0  0
   -5.1910    6.5920   -2.6130 C   0  0  0  0  0  0  0  0  0  0  0  0
   -7.0380    8.0130   -1.5890 C   0  0  0  0  0  0  0  0  0  0  0  0
   -0.3180   10.8540   -0.3110 C   0  0  1  0  0  0  0  0  0  0  0  0
    0.8460   10.6640    0.6980 C   0  0  0  0  0  0  0  0  0  0  0  0
    1.8750   11.7870    0.4100 C   0  0  0  0  0  0  0  0  0  0  0  0
    1.1270   12.7730   -0.5170 C   0  0  1  0  0  0  0  0  0  0  0  0
    0.2560   13.6440    0.4430 C   0  0  0  0  0  0  0  0  0  0  0  0
    2.0180   13.6580   -1.4480 C   0  0  2  0  0  0  0  0  0  0  0  0
    2.9740   14.6170   -0.7180 C   0  0  0  0  0  0  0  0  0  0  0  0
    2.4200   15.9730   -0.4310 C   0  0  0  0  0  0  0  0  0  0  0  0
    1.3160   16.5020   -0.9910 C   0  0  0  0  0  0  0  0  0  0  0  0
    0.5550   15.7520   -2.0920 C   0  0  1  0  0  0  0  0  0  0  0  0
    0.2340   16.7270   -3.2550 C   0  0  0  0  0  0  0  0  0  0  0  0
   -0.5040   17.9760   -2.7840 C   0  0  0  0  0  0  0  0  0  0  0  0
    0.3100   18.7260   -1.7320 C   0  0  2  0  0  0  0  0  0  0  0  0
    1.4910   19.2470   -2.3490 O   0  0  0  0  0  0  0  0  0  0  0  0
    0.7010   17.8410   -0.5150 C   0  0  0  0  0  0  0  0  0  0  0  0
   -0.5600   17.5260    0.3260 C   0  0  0  0  0  0  0  0  0  0  0  0
    1.6370   18.6760    0.4000 C   0  0  0  0  0  0  0  0  0  0  0  0
    1.2210   14.3990   -2.5960 C   0  0  1  0  0  0  0  0  0  0  0  0
    2.2480   14.7010   -3.7290 C   0  0  0  0  0  0  0  0  0  0  0  0
    0.1080   13.4870   -3.2370 C   0  0  0  0  0  0  0  0  0  0  0  0
   -0.6560   12.5490   -2.2830 C   0  0  0  0  0  0  0  0  0  0  0  0
    0.3130   11.7580   -1.3990 C   0  0  2  0  0  0  0  0  0  0  0  0
    1.1880   10.8560   -2.3360 C   0  0  0  0  0  0  0  0  0  0  0  0
    0.1928    8.6459   -2.3943 H   0  0  0  0  0  0  0  0  0  0  0  0
   -1.5553    8.8851   -2.7313 H   0  0  0  0  0  0  0  0  0  0  0  0
   -0.4398   10.2930   -2.7313 H   0  0  0  0  0  0  0  0  0  0  0  0
   -0.4440    8.6978   -0.2294 H   0  0  0  0  0  0  0  0  0  0  0  0
   -2.5370    9.5494    0.6660 H   0  0  0  0  0  0  0  0  0  0  0  0
   -2.8920   10.3484   -0.9397 H   0  0  0  0  0  0  0  0  0  0  0  0
   -2.9391    8.1087   -1.9968 H   0  0  0  0  0  0  0  0  0  0  0  0
   -2.7544    7.3746   -0.3495 H   0  0  0  0  0  0  0  0  0  0  0  0
   -4.5506    9.3811   -0.4587 H   0  0  0  0  0  0  0  0  0  0  0  0
   -4.7636    5.6803   -2.1702 H   0  0  0  0  0  0  0  0  0  0  0  0
   -6.0581    6.3257   -3.2353 H   0  0  0  0  0  0  0  0  0  0  0  0
   -4.4316    7.0881   -3.2353 H   0  0  0  0  0  0  0  0  0  0  0  0
   -7.4276    8.1490   -0.5694 H   0  0  0  0  0  0  0  0  0  0  0  0
   -7.0659    8.9740   -2.1234 H   0  0  0  0  0  0  0  0  0  0  0  0
   -7.6580    7.2781   -2.1234 H   0  0  0  0  0  0  0  0  0  0  0  0
   -1.2165   11.3347    0.1033 H   0  0  0  0  0  0  0  0  0  0  0  0
    0.4714   10.7486    1.7288 H   0  0  0  0  0  0  0  0  0  0  0  0
    1.3049    9.6703    0.5891 H   0  0  0  0  0  0  0  0  0  0  0  0
    2.1778   12.2849    1.3430 H   0  0  0  0  0  0  0  0  0  0  0  0
    2.7968   11.4004   -0.0491 H   0  0  0  0  0  0  0  0  0  0  0  0
    0.5023   13.3977    1.4864 H   0  0  0  0  0  0  0  0  0  0  0  0
    0.4612   14.7090    0.2594 H   0  0  0  0  0  0  0  0  0  0  0  0
   -0.8090   13.4388    0.2594 H   0  0  0  0  0  0  0  0  0  0  0  0
    2.6606   12.9112   -1.9372 H   0  0  0  0  0  0  0  0  0  0  0  0
    3.2537   14.1543    0.2400 H   0  0  0  0  0  0  0  0  0  0  0  0
    3.8254   14.7733   -1.3967 H   0  0  0  0  0  0  0  0  0  0  0  0
    2.9597   16.5927    0.3002 H   0  0  0  0  0  0  0  0  0  0  0  0
   -0.3798   15.4002   -1.6311 H   0  0  0  0  0  0  0  0  0  0  0  0
    1.1781   17.0331   -3.7294 H   0  0  0  0  0  0  0  0  0  0  0  0
   -0.4218   16.1985   -3.9626 H   0  0  0  0  0  0  0  0  0  0  0  0
   -0.6769   18.6383   -3.6451 H   0  0  0  0  0  0  0  0  0  0  0  0
   -1.4610   17.6706   -2.3358 H   0  0  0  0  0  0  0  0  0  0  0  0
   -0.3226   19.5358   -1.3395 H   0  0  0  0  0  0  0  0  0  0  0  0
    2.2560   18.8990   -1.8590 H   0  0  0  0  0  0  0  0  0  0  0  0
   -0.3121   17.5879    1.3959 H   0  0  0  0  0  0  0  0  0  0  0  0
   -1.3496   18.2545    0.0898 H   0  0  0  0  0  0  0  0  0  0  0  0
   -0.9143   16.5118    0.0898 H   0  0  0  0  0  0  0  0  0  0  0  0
    1.4020   18.4663    1.4539 H   0  0  0  0  0  0  0  0  0  0  0  0
    2.6840   18.4064    0.1972 H   0  0  0  0  0  0  0  0  0  0  0  0
    1.4882   19.7468    0.1972 H   0  0  0  0  0  0  0  0  0  0  0  0
    3.2128   14.9847   -3.2833 H   0  0  0  0  0  0  0  0  0  0  0  0
    2.3814   13.8040   -4.3516 H   0  0  0  0  0  0  0  0  0  0  0  0
    1.8746   15.5274   -4.3516 H   0  0  0  0  0  0  0  0  0  0  0  0
   -0.6297   14.1484   -3.7149 H   0  0  0  0  0  0  0  0  0  0  0  0
    0.6449   12.8201   -3.9276 H   0  0  0  0  0  0  0  0  0  0  0  0
   -1.3189   13.1493   -1.6426 H   0  0  0  0  0  0  0  0  0  0  0  0
   -1.2417   11.8383   -2.8846 H   0  0  0  0  0  0  0  0  0  0  0  0
    1.8243   10.2001   -1.7238 H   0  0  0  0  0  0  0  0  0  0  0  0
    0.5322   10.2421   -2.9709 H   0  0  0  0  0  0  0  0  0  0  0  0
    1.8215   11.4929   -2.9709 H   0  0  0  0  0  0  0  0  0  0  0  0
  1  2  1  0
  2  3  1  0
  3  4  1  0
  4  5  1  0
  5  6  1  0
  6  7  1  0
  7  8  1  0
  7  9  1  0
  2 10  1  0
 10 11  1  0
 11 12  1  0
 12 13  1  0
 13 14  1  1
 13 15  1  0
 15 16  1  0
 16 17  1  0
 17 18  2  0
 18 19  1  0
 19 20  1  0
 20 21  1  0
 21 22  1  0
 22 23  1  0
 22 24  1  0
 24 25  1  0
 24 26  1  0
 19 27  1  0
 27 28  1  6
 27 29  1  0
 29 30  1  0
 30 31  1  0
 31 32  1  6
  7  5  1  0
 31 10  1  0
 31 13  1  0
 27 15  1  0
 24 18  1  0
  1 33  1  0
  1 34  1  0
  1 35  1  0
  2 36  1  1
  3 37  1  0
  3 38  1  0
  4 39  1  0
  4 40  1  0
  5 41  1  1
  8 42  1  0
  8 43  1  0
  8 44  1  0
  9 45  1  0
  9 46  1  0
  9 47  1  0
 10 48  1  1
 11 49  1  0
 11 50  1  0
 12 51  1  0
 12 52  1  0
 14 53  1  0
 14 54  1  0
 14 55  1  0
 15 56  1  6
 16 57  1  0
 16 58  1  0
 17 59  1  0
 19 60  1  1
 20 61  1  0
 20 62  1  0
 21 63  1  0
 21 64  1  0
 22 65  1  1
 23 66  1  0
 25 67  1  0
 25 68  1  0
 25 69  1  0
 26 70  1  0
 26 71  1  0
 26 72  1  0
 28 73  1  0
 28 74  1  0
 28 75  1  0
 29 76  1  0
 29 77  1  0
 30 78  1  0
 30 79  1  0
 32 80  1  0
 32 81  1  0
 32 82  1  0
M  END
>  <meeko>  (6) 
{"is_sidechain": [false], "intermolecular_energy": 2.731, "internal_energy": -0.839}

$$$$
EPH_relaxed_0001_pdb2pqr_Repair_274_r2_0001_out
     RDKit          3D

 82 86  0  0  0  0  0  0  0  0999 V2000
   -5.2320    5.8200   -1.5840 C   0  0  0  0  0  0  0  0  0  0  0  0
   -5.4660    7.3190   -1.7920 C   0  0  2  0  0  0  0  0  0  0  0  0
   -5.1840    8.1340   -0.5140 C   0  0  0  0  0  0  0  0  0  0  0  0
   -4.1940    9.2830   -0.7230 C   0  0  0  0  0  0  0  0  0  0  0  0
   -2.7980    8.8870   -0.3450 C   0  0  2  0  0  0  0  0  0  0  0  0
   -2.2360    9.6390    0.7390 O   0  0  0  0  0  0  0  0  0  0  0  0
   -1.5920    9.7880   -0.5370 C   0  0  0  0  0  0  0  0  0  0  0  0
   -1.7260   11.1550   -1.1310 C   0  0  0  0  0  0  0  0  0  0  0  0
   -0.2350    9.1600   -0.6040 C   0  0  0  0  0  0  0  0  0  0  0  0
   -6.8960    7.5620   -2.2610 C   0  0  1  0  0  0  0  0  0  0  0  0
   -7.2040    6.8770   -3.6190 C   0  0  0  0  0  0  0  0  0  0  0  0
   -8.6840    6.4180   -3.5630 C   0  0  0  0  0  0  0  0  0  0  0  0
   -9.2690    7.1380   -2.3250 C   0  0  1  0  0  0  0  0  0  0  0  0
   -9.6040    8.5790   -2.8210 C   0  0  0  0  0  0  0  0  0  0  0  0
  -10.5040    6.4580   -1.6500 C   0  0  2  0  0  0  0  0  0  0  0  0
  -11.7560    6.3500   -2.5390 C   0  0  0  0  0  0  0  0  0  0  0  0
  -12.6990    7.5040   -2.4550 C   0  0  0  0  0  0  0  0  0  0  0  0
  -12.6970    8.4470   -1.4950 C   0  0  0  0  0  0  0  0  0  0  0  0
  -11.7390    8.3540   -0.3010 C   0  0  1  0  0  0  0  0  0  0  0  0
  -12.5180    8.6330    1.0110 C   0  0  0  0  0  0  0  0  0  0  0  0
  -13.2740    9.9570    0.9720 C   0  0  0  0  0  0  0  0  0  0  0  0
  -14.2590    9.9890   -0.1940 C   0  0  2  0  0  0  0  0  0  0  0  0
  -15.2870    9.0230    0.0450 O   0  0  0  0  0  0  0  0  0  0  0  0
  -13.5900    9.7110   -1.5690 C   0  0  0  0  0  0  0  0  0  0  0  0
  -12.6980   10.9130   -1.9660 C   0  0  0  0  0  0  0  0  0  0  0  0
  -14.7120    9.6310   -2.6390 C   0  0  0  0  0  0  0  0  0  0  0  0
  -10.8590    7.0330   -0.2190 C   0  0  1  0  0  0  0  0  0  0  0  0
  -11.6480    5.9140    0.5270 C   0  0  0  0  0  0  0  0  0  0  0  0
   -9.5750    7.3230    0.6440 C   0  0  0  0  0  0  0  0  0  0  0  0
   -8.3480    7.8820   -0.1010 C   0  0  0  0  0  0  0  0  0  0  0  0
   -8.0390    7.0500   -1.3490 C   0  0  2  0  0  0  0  0  0  0  0  0
   -7.6770    5.6000   -0.8800 C   0  0  0  0  0  0  0  0  0  0  0  0
   -5.1977    5.6003   -0.5067 H   0  0  0  0  0  0  0  0  0  0  0  0
   -6.0525    5.2530   -2.0479 H   0  0  0  0  0  0  0  0  0  0  0  0
   -4.2777    5.5300   -2.0479 H   0  0  0  0  0  0  0  0  0  0  0  0
   -4.7594    7.6602   -2.5629 H   0  0  0  0  0  0  0  0  0  0  0  0
   -6.1342    8.5554   -0.1541 H   0  0  0  0  0  0  0  0  0  0  0  0
   -4.7285    7.4452    0.2127 H   0  0  0  0  0  0  0  0  0  0  0  0
   -4.2068    9.5764   -1.7831 H   0  0  0  0  0  0  0  0  0  0  0  0
   -4.4995   10.1207   -0.0788 H   0  0  0  0  0  0  0  0  0  0  0  0
   -2.9912    7.8423   -0.6302 H   0  0  0  0  0  0  0  0  0  0  0  0
   -1.7990   11.8996   -0.3246 H   0  0  0  0  0  0  0  0  0  0  0  0
   -0.8449   11.3727   -1.7525 H   0  0  0  0  0  0  0  0  0  0  0  0
   -2.6326   11.1975   -1.7525 H   0  0  0  0  0  0  0  0  0  0  0  0
    0.1396    8.9867    0.4156 H   0  0  0  0  0  0  0  0  0  0  0  0
   -0.3008    8.2008   -1.1384 H   0  0  0  0  0  0  0  0  0  0  0  0
    0.4536    9.8310   -1.1384 H   0  0  0  0  0  0  0  0  0  0  0  0
   -6.8982    8.6617   -2.2861 H   0  0  0  0  0  0  0  0  0  0  0  0
   -7.0594    7.5898   -4.4442 H   0  0  0  0  0  0  0  0  0  0  0  0
   -6.5321    6.0235   -3.7922 H   0  0  0  0  0  0  0  0  0  0  0  0
   -9.2187    6.7189   -4.4760 H   0  0  0  0  0  0  0  0  0  0  0  0
   -8.7793    5.3244   -3.4934 H   0  0  0  0  0  0  0  0  0  0  0  0
   -9.7574    9.2387   -1.9543 H   0  0  0  0  0  0  0  0  0  0  0  0
   -8.7706    8.9604   -3.4292 H   0  0  0  0  0  0  0  0  0  0  0  0
  -10.5202    8.5537   -3.4292 H   0  0  0  0  0  0  0  0  0  0  0  0
  -10.1532    5.4261   -1.5010 H   0  0  0  0  0  0  0  0  0  0  0  0
  -11.4242    6.2576   -3.5837 H   0  0  0  0  0  0  0  0  0  0  0  0
  -12.3133    5.4744   -2.1747 H   0  0  0  0  0  0  0  0  0  0  0  0
  -13.4599    7.5909   -3.2446 H   0  0  0  0  0  0  0  0  0  0  0  0
  -10.9808    9.1353   -0.4583 H   0  0  0  0  0  0  0  0  0  0  0  0
  -13.2403    7.8191    1.1721 H   0  0  0  0  0  0  0  0  0  0  0  0
  -11.7846    8.6912    1.8288 H   0  0  0  0  0  0  0  0  0  0  0  0
  -13.8274   10.0834    1.9142 H   0  0  0  0  0  0  0  0  0  0  0  0
  -12.5474   10.7723    0.8402 H   0  0  0  0  0  0  0  0  0  0  0  0
  -14.6742   11.0062   -0.2476 H   0  0  0  0  0  0  0  0  0  0  0  0
  -15.2150    8.3400   -0.6440 H   0  0  0  0  0  0  0  0  0  0  0  0
  -12.3284   11.4111   -1.0576 H   0  0  0  0  0  0  0  0  0  0  0  0
  -11.8448   10.5556   -2.5612 H   0  0  0  0  0  0  0  0  0  0  0  0
  -13.2873   11.6261   -2.5612 H   0  0  0  0  0  0  0  0  0  0  0  0
  -15.6900    9.5613   -2.1403 H   0  0  0  0  0  0  0  0  0  0  0  0
  -14.6844   10.5334   -3.2674 H   0  0  0  0  0  0  0  0  0  0  0  0
  -14.5566    8.7417   -3.2674 H   0  0  0  0  0  0  0  0  0  0  0  0
  -11.5476    6.0564    1.6131 H   0  0  0  0  0  0  0  0  0  0  0  0
  -12.7105    5.9657    0.2471 H   0  0  0  0  0  0  0  0  0  0  0  0
  -11.2425    4.9305    0.2471 H   0  0  0  0  0  0  0  0  0  0  0  0
   -9.8533    8.0514    1.4199 H   0  0  0  0  0  0  0  0  0  0  0  0
   -9.2572    6.3413    1.0252 H   0  0  0  0  0  0  0  0  0  0  0  0
   -8.5519    8.9202   -0.4020 H   0  0  0  0  0  0  0  0  0  0  0  0
   -7.4794    7.8401    0.5726 H   0  0  0  0  0  0  0  0  0  0  0  0
   -7.6675    5.5619    0.2193 H   0  0  0  0  0  0  0  0  0  0  0  0
   -8.4261    4.8924   -1.2650 H   0  0  0  0  0  0  0  0  0  0  0  0
   -6.6833    5.3275   -1.2650 H   0  0  0  0  0  0  0  0  0  0  0  0
  1  2  1  0
  2  3  1  0
  3  4  1  0
  4  5  1  0
  5  6  1  0
  6  7  1  0
  7  8  1  0
  7  9  1  0
  2 10  1  0
 10 11  1  0
 11 12  1  0
 12 13  1  0
 13 14  1  6
 13 15  1  0
 15 16  1  0
 16 17  1  0
 17 18  2  0
 18 19  1  0
 19 20  1  0
 20 21  1  0
 21 22  1  0
 22 23  1  0
 22 24  1  0
 24 25  1  0
 24 26  1  0
 19 27  1  0
 27 28  1  1
 27 29  1  0
 29 30  1  0
 30 31  1  0
 31 32  1  1
  7  5  1  0
 31 10  1  0
 31 13  1  0
 27 15  1  0
 24 18  1  0
  1 33  1  0
  1 34  1  0
  1 35  1  0
  2 36  1  6
  3 37  1  0
  3 38  1  0
  4 39  1  0
  4 40  1  0
  5 41  1  1
  8 42  1  0
  8 43  1  0
  8 44  1  0
  9 45  1  0
  9 46  1  0
  9 47  1  0
 10 48  1  6
 11 49  1  0
 11 50  1  0
 12 51  1  0
 12 52  1  0
 14 53  1  0
 14 54  1  0
 14 55  1  0
 15 56  1  1
 16 57  1  0
 16 58  1  0
 17 59  1  0
 19 60  1  6
 20 61  1  0
 20 62  1  0
 21 63  1  0
 21 64  1  0
 22 65  1  6
 23 66  1  0
 25 67  1  0
 25 68  1  0
 25 69  1  0
 26 70  1  0
 26 71  1  0
 26 72  1  0
 28 73  1  0
 28 74  1  0
 28 75  1  0
 29 76  1  0
 29 77  1  0
 30 78  1  0
 30 79  1  0
 32 80  1  0
 32 81  1  0
 32 82  1  0
M  END
>  <meeko>  (7) 
{"is_sidechain": [false], "intermolecular_energy": 2.731, "internal_energy": -0.839}

$$$$
EPH_relaxed_0001_pdb2pqr_Repair_274_r2_0001_out
     RDKit          3D

 82 86  0  0  0  0  0  0  0  0999 V2000
    0.4070    8.7930   -2.3340 C   0  0  0  0  0  0  0  0  0  0  0  0
    1.1420    9.9300   -3.0500 C   0  0  2  0  0  0  0  0  0  0  0  0
    2.6470    9.9500   -2.7150 C   0  0  0  0  0  0  0  0  0  0  0  0
    3.5130   10.5800   -3.8100 C   0  0  0  0  0  0  0  0  0  0  0  0
    4.9120   10.8300   -3.3340 C   0  0  2  0  0  0  0  0  0  0  0  0
    5.5110   12.0300   -3.8420 O   0  0  0  0  0  0  0  0  0  0  0  0
    6.1240   10.7950   -4.2460 C   0  0  0  0  0  0  0  0  0  0  0  0
    5.9930   10.5010   -5.7080 C   0  0  0  0  0  0  0  0  0  0  0  0
    7.4720   10.5630   -3.6370 C   0  0  0  0  0  0  0  0  0  0  0  0
    0.5100   11.2680   -2.6850 C   0  0  1  0  0  0  0  0  0  0  0  0
   -0.8640   11.1080   -1.9830 C   0  0  0  0  0  0  0  0  0  0  0  0
   -0.9710   12.2520   -0.9420 C   0  0  0  0  0  0  0  0  0  0  0  0
    0.1810   13.2180   -1.3050 C   0  0  1  0  0  0  0  0  0  0  0  0
   -0.3700   14.0730   -2.4880 C   0  0  0  0  0  0  0  0  0  0  0  0
    0.7200   14.1170   -0.1450 C   0  0  2  0  0  0  0  0  0  0  0  0
   -0.3040   15.1010    0.4480 C   0  0  0  0  0  0  0  0  0  0  0  0
   -0.3460   16.4460   -0.1980 C   0  0  0  0  0  0  0  0  0  0  0  0
    0.5950   16.9480   -1.0200 C   0  0  0  0  0  0  0  0  0  0  0  0
    1.8920   16.1760   -1.2970 C   0  0  1  0  0  0  0  0  0  0  0  0
    3.1020   17.1390   -1.1760 C   0  0  0  0  0  0  0  0  0  0  0  0
    2.9580   18.3740   -2.0590 C   0  0  0  0  0  0  0  0  0  0  0  0
    1.6870   19.1460   -1.7150 C   0  0  2  0  0  0  0  0  0  0  0  0
    1.8200   19.6900   -0.3980 O   0  0  0  0  0  0  0  0  0  0  0  0
    0.4020   18.2750   -1.7930 C   0  0  0  0  0  0  0  0  0  0  0  0
    0.0920   17.9360   -3.2720 C   0  0  0  0  0  0  0  0  0  0  0  0
   -0.7880   19.1340   -1.2860 C   0  0  0  0  0  0  0  0  0  0  0  0
    2.0920   14.8360   -0.4660 C   0  0  1  0  0  0  0  0  0  0  0  0
    2.7600   15.1560    0.9070 C   0  0  0  0  0  0  0  0  0  0  0  0
    3.0930   13.8980   -1.2380 C   0  0  0  0  0  0  0  0  0  0  0  0
    2.4850   12.9470   -2.2880 C   0  0  0  0  0  0  0  0  0  0  0  0
    1.2920   12.1820   -1.7080 C   0  0  2  0  0  0  0  0  0  0  0  0
    1.8200   11.2950   -0.5290 C   0  0  0  0  0  0  0  0  0  0  0  0
    0.4942    8.9280   -1.2458 H   0  0  0  0  0  0  0  0  0  0  0  0
   -0.6548    8.8048   -2.6210 H   0  0  0  0  0  0  0  0  0  0  0  0
    0.8537    7.8296   -2.6210 H   0  0  0  0  0  0  0  0  0  0  0  0
    1.0466    9.7562   -4.1320 H   0  0  0  0  0  0  0  0  0  0  0  0
    2.7887   10.5236   -1.7871 H   0  0  0  0  0  0  0  0  0  0  0  0
    2.9679    8.9027   -2.6140 H   0  0  0  0  0  0  0  0  0  0  0  0
    3.5464    9.8998   -4.6738 H   0  0  0  0  0  0  0  0  0  0  0  0
    3.0668   11.5465   -4.0869 H   0  0  0  0  0  0  0  0  0  0  0  0
    4.6981   10.3412   -2.3721 H   0  0  0  0  0  0  0  0  0  0  0  0
    5.5487    9.5038   -5.8431 H   0  0  0  0  0  0  0  0  0  0  0  0
    5.3466   11.2571   -6.1776 H   0  0  0  0  0  0  0  0  0  0  0  0
    6.9874   10.5260   -6.1776 H   0  0  0  0  0  0  0  0  0  0  0  0
    7.3864   10.5777   -2.5404 H   0  0  0  0  0  0  0  0  0  0  0  0
    7.8576    9.5853   -3.9616 H   0  0  0  0  0  0  0  0  0  0  0  0
    8.1623   11.3555   -3.9616 H   0  0  0  0  0  0  0  0  0  0  0  0
    0.4703   11.7305   -3.6822 H   0  0  0  0  0  0  0  0  0  0  0  0
   -1.6772   11.1888   -2.7194 H   0  0  0  0  0  0  0  0  0  0  0  0
   -0.9474   10.1241   -1.4982 H   0  0  0  0  0  0  0  0  0  0  0  0
   -1.9435   12.7599   -1.0216 H   0  0  0  0  0  0  0  0  0  0  0  0
   -0.8968   11.8838    0.0919 H   0  0  0  0  0  0  0  0  0  0  0  0
   -0.9255   14.9349   -2.0899 H   0  0  0  0  0  0  0  0  0  0  0  0
    0.4685   14.4300   -3.1041 H   0  0  0  0  0  0  0  0  0  0  0  0
   -1.0415   13.4569   -3.1041 H   0  0  0  0  0  0  0  0  0  0  0  0
    0.9223   13.3818    0.6478 H   0  0  0  0  0  0  0  0  0  0  0  0
   -1.3024   14.6487    0.3558 H   0  0  0  0  0  0  0  0  0  0  0  0
    0.0080   15.2735    1.4886 H   0  0  0  0  0  0  0  0  0  0  0  0
   -1.2190   17.0803    0.0154 H   0  0  0  0  0  0  0  0  0  0  0  0
    1.8118   15.8050   -2.3294 H   0  0  0  0  0  0  0  0  0  0  0  0
    3.1912   17.4630   -0.1286 H   0  0  0  0  0  0  0  0  0  0  0  0
    3.9972   16.5934   -1.5090 H   0  0  0  0  0  0  0  0  0  0  0  0
    3.8289   19.0286   -1.9071 H   0  0  0  0  0  0  0  0  0  0  0  0
    2.8985   18.0499   -3.1085 H   0  0  0  0  0  0  0  0  0  0  0  0
    1.5721   19.9432   -2.4642 H   0  0  0  0  0  0  0  0  0  0  0  0
    1.7870   20.6580   -0.4750 H   0  0  0  0  0  0  0  0  0  0  0  0
   -0.6498   17.1248   -3.3145 H   0  0  0  0  0  0  0  0  0  0  0  0
   -0.3100   18.8273   -3.7760 H   0  0  0  0  0  0  0  0  0  0  0  0
    1.0156   17.6151   -3.7760 H   0  0  0  0  0  0  0  0  0  0  0  0
   -0.7944   19.1386   -0.1860 H   0  0  0  0  0  0  0  0  0  0  0  0
   -0.6806   20.1642   -1.6564 H   0  0  0  0  0  0  0  0  0  0  0  0
   -1.7320   18.7077   -1.6564 H   0  0  0  0  0  0  0  0  0  0  0  0
    2.0938   14.8369    1.7221 H   0  0  0  0  0  0  0  0  0  0  0  0
    3.7166   14.6184    0.9835 H   0  0  0  0  0  0  0  0  0  0  0  0
    2.9406   16.2384    0.9835 H   0  0  0  0  0  0  0  0  0  0  0  0
    3.8213   14.5412   -1.7536 H   0  0  0  0  0  0  0  0  0  0  0  0
    3.5228   13.2401   -0.4683 H   0  0  0  0  0  0  0  0  0  0  0  0
    2.1486   13.5352   -3.1545 H   0  0  0  0  0  0  0  0  0  0  0  0
    3.2538   12.2210   -2.5910 H   0  0  0  0  0  0  0  0  0  0  0  0
    1.5444   11.7579    0.4300 H   0  0  0  0  0  0  0  0  0  0  0  0
    1.3713   10.2928   -0.5947 H   0  0  0  0  0  0  0  0  0  0  0  0
    2.9149   11.2116   -0.5947 H   0  0  0  0  0  0  0  0  0  0  0  0
  1  2  1  0
  2  3  1  0
  3  4  1  0
  4  5  1  0
  5  6  1  0
  6  7  1  0
  7  8  1  0
  7  9  1  0
  2 10  1  0
 10 11  1  0
 11 12  1  0
 12 13  1  0
 13 14  1  6
 13 15  1  0
 15 16  1  0
 16 17  1  0
 17 18  2  0
 18 19  1  0
 19 20  1  0
 20 21  1  0
 21 22  1  0
 22 23  1  0
 22 24  1  0
 24 25  1  0
 24 26  1  0
 19 27  1  0
 27 28  1  1
 27 29  1  0
 29 30  1  0
 30 31  1  0
 31 32  1  1
  7  5  1  0
 31 10  1  0
 31 13  1  0
 27 15  1  0
 24 18  1  0
  1 33  1  0
  1 34  1  0
  1 35  1  0
  2 36  1  6
  3 37  1  0
  3 38  1  0
  4 39  1  0
  4 40  1  0
  5 41  1  1
  8 42  1  0
  8 43  1  0
  8 44  1  0
  9 45  1  0
  9 46  1  0
  9 47  1  0
 10 48  1  6
 11 49  1  0
 11 50  1  0
 12 51  1  0
 12 52  1  0
 14 53  1  0
 14 54  1  0
 14 55  1  0
 15 56  1  1
 16 57  1  0
 16 58  1  0
 17 59  1  0
 19 60  1  6
 20 61  1  0
 20 62  1  0
 21 63  1  0
 21 64  1  0
 22 65  1  6
 23 66  1  0
 25 67  1  0
 25 68  1  0
 25 69  1  0
 26 70  1  0
 26 71  1  0
 26 72  1  0
 28 73  1  0
 28 74  1  0
 28 75  1  0
 29 76  1  0
 29 77  1  0
 30 78  1  0
 30 79  1  0
 32 80  1  0
 32 81  1  0
 32 82  1  0
M  END
>  <meeko>  (8) 
{"is_sidechain": [false], "intermolecular_energy": 2.731, "internal_energy": -0.839}

$$$$
EPH_relaxed_0001_pdb2pqr_Repair_274_r2_0001_out
     RDKit          3D

 82 86  0  0  0  0  0  0  0  0999 V2000
    3.0400   18.1590   -3.8230 C   0  0  0  0  0  0  0  0  0  0  0  0
    2.1180   18.0230   -2.6080 C   0  0  2  0  0  0  0  0  0  0  0  0
    2.3310   19.1590   -1.5870 C   0  0  0  0  0  0  0  0  0  0  0  0
    1.2030   20.1940   -1.5730 C   0  0  0  0  0  0  0  0  0  0  0  0
    0.4400   20.1660   -0.2840 C   0  0  2  0  0  0  0  0  0  0  0  0
    0.0750   18.8550    0.1670 O   0  0  0  0  0  0  0  0  0  0  0  0
   -1.0100   19.7320   -0.1790 C   0  0  0  0  0  0  0  0  0  0  0  0
   -1.7830   19.2970   -1.3840 C   0  0  0  0  0  0  0  0  0  0  0  0
   -1.8110   20.1930    0.9990 C   0  0  0  0  0  0  0  0  0  0  0  0
    2.3370   16.6720   -1.9370 C   0  0  1  0  0  0  0  0  0  0  0  0
    2.8590   16.8050   -0.4820 C   0  0  0  0  0  0  0  0  0  0  0  0
    2.2320   15.6410    0.3270 C   0  0  0  0  0  0  0  0  0  0  0  0
    1.6440   14.6940   -0.7450 C   0  0  1  0  0  0  0  0  0  0  0  0
    2.8600   13.8550   -1.2500 C   0  0  0  0  0  0  0  0  0  0  0  0
    0.4630   13.7790   -0.2860 C   0  0  2  0  0  0  0  0  0  0  0  0
    0.8100   12.7740    0.8270 C   0  0  0  0  0  0  0  0  0  0  0  0
    1.2890   11.4410    0.3550 C   0  0  0  0  0  0  0  0  0  0  0  0
    1.1670   10.9640   -0.8970 C   0  0  0  0  0  0  0  0  0  0  0  0
    0.4060   11.7530   -1.9700 C   0  0  1  0  0  0  0  0  0  0  0  0
   -0.5550   10.8010   -2.7290 C   0  0  0  0  0  0  0  0  0  0  0  0
    0.1600    9.5810   -3.3000 C   0  0  0  0  0  0  0  0  0  0  0  0
    0.8570    8.7900   -2.1960 C   0  0  2  0  0  0  0  0  0  0  0  0
   -0.1380    8.2230   -1.3380 O   0  0  0  0  0  0  0  0  0  0  0  0
    1.8440    9.6490   -1.3570 C   0  0  0  0  0  0  0  0  0  0  0  0
    3.0790   10.0120   -2.2170 C   0  0  0  0  0  0  0  0  0  0  0  0
    2.3700    8.7690   -0.1910 C   0  0  0  0  0  0  0  0  0  0  0  0
   -0.3160   13.0800   -1.4730 C   0  0  1  0  0  0  0  0  0  0  0  0
   -1.7390   12.7410   -0.9340 C   0  0  0  0  0  0  0  0  0  0  0  0
   -0.5230   14.0430   -2.7010 C   0  0  0  0  0  0  0  0  0  0  0  0
    0.6330   15.0060   -3.0320 C   0  0  0  0  0  0  0  0  0  0  0  0
    1.1030   15.7490   -1.7770 C   0  0  2  0  0  0  0  0  0  0  0  0
   -0.0930   16.6190   -1.2600 C   0  0  0  0  0  0  0  0  0  0  0  0
    4.0749   18.3116   -3.4827 H   0  0  0  0  0  0  0  0  0  0  0  0
    2.9848   17.2430   -4.4295 H   0  0  0  0  0  0  0  0  0  0  0  0
    2.7227   19.0201   -4.4295 H   0  0  0  0  0  0  0  0  0  0  0  0
    1.0817   18.0944   -2.9700 H   0  0  0  0  0  0  0  0  0  0  0  0
    2.4067   18.7144   -0.5837 H   0  0  0  0  0  0  0  0  0  0  0  0
    3.2490   19.6883   -1.8822 H   0  0  0  0  0  0  0  0  0  0  0  0
    1.6368   21.1957   -1.7086 H   0  0  0  0  0  0  0  0  0  0  0  0
    0.5060   19.9520   -2.3889 H   0  0  0  0  0  0  0  0  0  0  0  0
    0.9702   21.0598    0.0765 H   0  0  0  0  0  0  0  0  0  0  0  0
   -2.7003   18.7808   -1.0645 H   0  0  0  0  0  0  0  0  0  0  0  0
   -2.0490   20.1779   -1.9867 H   0  0  0  0  0  0  0  0  0  0  0  0
   -1.1680   18.6125   -1.9867 H   0  0  0  0  0  0  0  0  0  0  0  0
   -1.3000   19.8989    1.9276 H   0  0  0  0  0  0  0  0  0  0  0  0
   -1.9127   21.2878    0.9674 H   0  0  0  0  0  0  0  0  0  0  0  0
   -2.8088   19.7310    0.9674 H   0  0  0  0  0  0  0  0  0  0  0  0
    3.0502   16.2275   -2.6468 H   0  0  0  0  0  0  0  0  0  0  0  0
    3.9563   16.7300   -0.4650 H   0  0  0  0  0  0  0  0  0  0  0  0
    2.5829   17.7787   -0.0511 H   0  0  0  0  0  0  0  0  0  0  0  0
    2.9991   15.1246    0.9228 H   0  0  0  0  0  0  0  0  0  0  0  0
    1.4695   15.9905    1.0386 H   0  0  0  0  0  0  0  0  0  0  0  0
    3.4217   13.4675   -0.3873 H   0  0  0  0  0  0  0  0  0  0  0  0
    2.4975   13.0140   -1.8593 H   0  0  0  0  0  0  0  0  0  0  0  0
    3.5176   14.4925   -1.8593 H   0  0  0  0  0  0  0  0  0  0  0  0
   -0.2306   14.5015    0.1690 H   0  0  0  0  0  0  0  0  0  0  0  0
    1.5995   13.2174    1.4515 H   0  0  0  0  0  0  0  0  0  0  0  0
   -0.1276   12.5858    1.3706 H   0  0  0  0  0  0  0  0  0  0  0  0
    1.7839   10.7937    1.0940 H   0  0  0  0  0  0  0  0  0  0  0  0
    1.1691   12.1411   -2.6607 H   0  0  0  0  0  0  0  0  0  0  0  0
   -1.3349   10.4588   -2.0328 H   0  0  0  0  0  0  0  0  0  0  0  0
   -0.9831   11.3621   -3.5727 H   0  0  0  0  0  0  0  0  0  0  0  0
   -0.5762    8.9325   -3.7974 H   0  0  0  0  0  0  0  0  0  0  0  0
    0.9190    9.9237   -4.0187 H   0  0  0  0  0  0  0  0  0  0  0  0
    1.4579    8.0058   -2.6798 H   0  0  0  0  0  0  0  0  0  0  0  0
   -0.9710    8.1870   -1.8370 H   0  0  0  0  0  0  0  0  0  0  0  0
    3.9243   10.2604   -1.5583 H   0  0  0  0  0  0  0  0  0  0  0  0
    3.3484    9.1551   -2.8519 H   0  0  0  0  0  0  0  0  0  0  0  0
    2.8419   10.8784   -2.8519 H   0  0  0  0  0  0  0  0  0  0  0  0
    2.0946    9.2297    0.7692 H   0  0  0  0  0  0  0  0  0  0  0  0
    1.9231    7.7661   -0.2580 H   0  0  0  0  0  0  0  0  0  0  0  0
    3.4649    8.6877   -0.2580 H   0  0  0  0  0  0  0  0  0  0  0  0
   -1.7249   12.7444    0.1659 H   0  0  0  0  0  0  0  0  0  0  0  0
   -2.4562   13.4934   -1.2938 H   0  0  0  0  0  0  0  0  0  0  0  0
   -2.0400   11.7460   -1.2938 H   0  0  0  0  0  0  0  0  0  0  0  0
   -0.6992   13.4173   -3.5884 H   0  0  0  0  0  0  0  0  0  0  0  0
   -1.3656   14.6915   -2.4190 H   0  0  0  0  0  0  0  0  0  0  0  0
    1.4740   14.4302   -3.4456 H   0  0  0  0  0  0  0  0  0  0  0  0
    0.2757   15.7449   -3.7644 H   0  0  0  0  0  0  0  0  0  0  0  0
   -0.0961   16.6213   -0.1600 H   0  0  0  0  0  0  0  0  0  0  0  0
    0.0171   17.6496   -1.6285 H   0  0  0  0  0  0  0  0  0  0  0  0
   -1.0396   16.1970   -1.6285 H   0  0  0  0  0  0  0  0  0  0  0  0
  1  2  1  0
  2  3  1  0
  3  4  1  0
  4  5  1  0
  5  6  1  0
  6  7  1  0
  7  8  1  0
  7  9  1  0
  2 10  1  0
 10 11  1  0
 11 12  1  0
 12 13  1  0
 13 14  1  6
 13 15  1  0
 15 16  1  0
 16 17  1  0
 17 18  2  0
 18 19  1  0
 19 20  1  0
 20 21  1  0
 21 22  1  0
 22 23  1  0
 22 24  1  0
 24 25  1  0
 24 26  1  0
 19 27  1  0
 27 28  1  1
 27 29  1  0
 29 30  1  0
 30 31  1  0
 31 32  1  1
  7  5  1  0
 31 10  1  0
 31 13  1  0
 27 15  1  0
 24 18  1  0
  1 33  1  0
  1 34  1  0
  1 35  1  0
  2 36  1  6
  3 37  1  0
  3 38  1  0
  4 39  1  0
  4 40  1  0
  5 41  1  1
  8 42  1  0
  8 43  1  0
  8 44  1  0
  9 45  1  0
  9 46  1  0
  9 47  1  0
 10 48  1  6
 11 49  1  0
 11 50  1  0
 12 51  1  0
 12 52  1  0
 14 53  1  0
 14 54  1  0
 14 55  1  0
 15 56  1  1
 16 57  1  0
 16 58  1  0
 17 59  1  0
 19 60  1  6
 20 61  1  0
 20 62  1  0
 21 63  1  0
 21 64  1  0
 22 65  1  6
 23 66  1  0
 25 67  1  0
 25 68  1  0
 25 69  1  0
 26 70  1  0
 26 71  1  0
 26 72  1  0
 28 73  1  0
 28 74  1  0
 28 75  1  0
 29 76  1  0
 29 77  1  0
 30 78  1  0
 30 79  1  0
 32 80  1  0
 32 81  1  0
 32 82  1  0
M  END
>  <meeko>  (9) 
{"is_sidechain": [false], "intermolecular_energy": 2.731, "internal_energy": -0.839}

$$$$
EPH_relaxed_0001_pdb2pqr_Repair_274_r2_0001_out
     RDKit          3D

 82 86  0  0  0  0  0  0  0  0999 V2000
   -3.7150    7.1900   -3.3680 C   0  0  0  0  0  0  0  0  0  0  0  0
   -3.7520    7.2740   -1.8390 C   0  0  2  0  0  0  0  0  0  0  0  0
   -5.1710    7.0540   -1.2800 C   0  0  0  0  0  0  0  0  0  0  0  0
   -6.2770    7.2180   -2.3260 C   0  0  0  0  0  0  0  0  0  0  0  0
   -7.6090    7.4740   -1.6890 C   0  0  2  0  0  0  0  0  0  0  0  0
   -8.2390    6.3140   -1.1290 O   0  0  0  0  0  0  0  0  0  0  0  0
   -8.9170    6.9310   -2.2350 C   0  0  0  0  0  0  0  0  0  0  0  0
   -8.9560    6.0890   -3.4720 C   0  0  0  0  0  0  0  0  0  0  0  0
  -10.1910    7.6170   -1.8540 C   0  0  0  0  0  0  0  0  0  0  0  0
   -3.2140    8.6250   -1.3800 C   0  0  1  0  0  0  0  0  0  0  0  0
   -3.8240    9.0820   -0.0280 C   0  0  0  0  0  0  0  0  0  0  0  0
   -2.7080    9.8440    0.7310 C   0  0  0  0  0  0  0  0  0  0  0  0
   -1.6110   10.0890   -0.3310 C   0  0  1  0  0  0  0  0  0  0  0  0
   -2.0960   11.3390   -1.1290 C   0  0  0  0  0  0  0  0  0  0  0  0
   -0.1560   10.2780    0.2090 C   0  0  2  0  0  0  0  0  0  0  0  0
    0.0480   11.5010    1.1200 C   0  0  0  0  0  0  0  0  0  0  0  0
    0.4450   12.7590    0.4210 C   0  0  0  0  0  0  0  0  0  0  0  0
    0.9070   12.8390   -0.8410 C   0  0  0  0  0  0  0  0  0  0  0  0
    1.1620   11.5730   -1.6690 C   0  0  1  0  0  0  0  0  0  0  0  0
    2.5460   11.6780   -2.3620 C   0  0  0  0  0  0  0  0  0  0  0  0
    2.6920   12.9530   -3.1870 C   0  0  0  0  0  0  0  0  0  0  0  0
    2.4880   14.1910   -2.3170 C   0  0  2  0  0  0  0  0  0  0  0  0
    3.5640   14.2750   -1.3770 O   0  0  0  0  0  0  0  0  0  0  0  0
    1.1310   14.1920   -1.5610 C   0  0  0  0  0  0  0  0  0  0  0  0
   -0.0260   14.4050   -2.5680 C   0  0  0  0  0  0  0  0  0  0  0  0
    1.1130   15.4220   -0.6130 C   0  0  0  0  0  0  0  0  0  0  0  0
    0.9660   10.1930   -0.9040 C   0  0  1  0  0  0  0  0  0  0  0  0
    2.2860    9.7950   -0.1770 C   0  0  0  0  0  0  0  0  0  0  0  0
    0.6790    9.0580   -1.9570 C   0  0  0  0  0  0  0  0  0  0  0  0
   -0.7920    8.8410   -2.3610 C   0  0  0  0  0  0  0  0  0  0  0  0
   -1.6900    8.7340   -1.1250 C   0  0  2  0  0  0  0  0  0  0  0  0
   -1.2390    7.4720   -0.3140 C   0  0  0  0  0  0  0  0  0  0  0  0
   -3.2888    6.2225   -3.6719 H   0  0  0  0  0  0  0  0  0  0  0  0
   -4.7367    7.2815   -3.7651 H   0  0  0  0  0  0  0  0  0  0  0  0
   -3.0929    8.0056   -3.7651 H   0  0  0  0  0  0  0  0  0  0  0  0
   -3.1148    6.4675   -1.4472 H   0  0  0  0  0  0  0  0  0  0  0  0
   -5.2287    6.0347   -0.8705 H   0  0  0  0  0  0  0  0  0  0  0  0
   -5.3373    7.8246   -0.5129 H   0  0  0  0  0  0  0  0  0  0  0  0
   -6.0259    8.0659   -2.9803 H   0  0  0  0  0  0  0  0  0  0  0  0
   -6.3461    6.2830   -2.9013 H   0  0  0  0  0  0  0  0  0  0  0  0
   -7.2972    8.4858   -1.3907 H   0  0  0  0  0  0  0  0  0  0  0  0
   -9.0052    5.0266   -3.1910 H   0  0  0  0  0  0  0  0  0  0  0  0
   -9.8429    6.3524   -4.0670 H   0  0  0  0  0  0  0  0  0  0  0  0
   -8.0485    6.2693   -4.0670 H   0  0  0  0  0  0  0  0  0  0  0  0
  -10.2707    7.6599   -0.7577 H   0  0  0  0  0  0  0  0  0  0  0  0
  -10.1936    8.6385   -2.2621 H   0  0  0  0  0  0  0  0  0  0  0  0
  -11.0453    7.0569   -2.2621 H   0  0  0  0  0  0  0  0  0  0  0  0
   -3.4950    9.2403   -2.2474 H   0  0  0  0  0  0  0  0  0  0  0  0
   -4.6830    9.7459   -0.2051 H   0  0  0  0  0  0  0  0  0  0  0  0
   -4.1813    8.2206    0.5554 H   0  0  0  0  0  0  0  0  0  0  0  0
   -3.0879   10.7985    1.1242 H   0  0  0  0  0  0  0  0  0  0  0  0
   -2.3318    9.2791    1.5966 H   0  0  0  0  0  0  0  0  0  0  0  0
   -2.4018   12.1272   -0.4253 H   0  0  0  0  0  0  0  0  0  0  0  0
   -1.2767   11.7104   -1.7621 H   0  0  0  0  0  0  0  0  0  0  0  0
   -2.9514   11.0606   -1.7621 H   0  0  0  0  0  0  0  0  0  0  0  0
   -0.0295    9.3980    0.8567 H   0  0  0  0  0  0  0  0  0  0  0  0
   -0.8968   11.6908    1.6505 H   0  0  0  0  0  0  0  0  0  0  0  0
    0.8850   11.2468    1.7869 H   0  0  0  0  0  0  0  0  0  0  0  0
    0.3523   13.6993    0.9843 H   0  0  0  0  0  0  0  0  0  0  0  0
    0.3660   11.5400   -2.4275 H   0  0  0  0  0  0  0  0  0  0  0  0
    3.3290   11.6663   -1.5895 H   0  0  0  0  0  0  0  0  0  0  0  0
    2.6415   10.8236   -3.0482 H   0  0  0  0  0  0  0  0  0  0  0  0
    3.6997   12.9840   -3.6269 H   0  0  0  0  0  0  0  0  0  0  0  0
    1.9276   12.9494   -3.9780 H   0  0  0  0  0  0  0  0  0  0  0  0
    2.4742   15.0653   -2.9844 H   0  0  0  0  0  0  0  0  0  0  0  0
    3.7400   15.2180   -1.2150 H   0  0  0  0  0  0  0  0  0  0  0  0
   -0.9632   14.5775   -2.0186 H   0  0  0  0  0  0  0  0  0  0  0  0
    0.1943   15.2777   -3.2004 H   0  0  0  0  0  0  0  0  0  0  0  0
   -0.1309   13.5111   -3.2004 H   0  0  0  0  0  0  0  0  0  0  0  0
    1.1180   15.0794    0.4323 H   0  0  0  0  0  0  0  0  0  0  0  0
    2.0022   16.0420   -0.7999 H   0  0  0  0  0  0  0  0  0  0  0  0
    0.2061   16.0158   -0.7999 H   0  0  0  0  0  0  0  0  0  0  0  0
    2.1334    9.8410    0.9114 H   0  0  0  0  0  0  0  0  0  0  0  0
    2.5688    8.7716   -0.4647 H   0  0  0  0  0  0  0  0  0  0  0  0
    3.0874   10.4915   -0.4647 H   0  0  0  0  0  0  0  0  0  0  0  0
    1.2425    9.3008   -2.8700 H   0  0  0  0  0  0  0  0  0  0  0  0
    0.9826    8.1234   -1.4628 H   0  0  0  0  0  0  0  0  0  0  0  0
   -1.1254    9.6902   -2.9756 H   0  0  0  0  0  0  0  0  0  0  0  0
   -0.8647    7.9022   -2.9296 H   0  0  0  0  0  0  0  0  0  0  0  0
   -1.3141    7.6822    0.7631 H   0  0  0  0  0  0  0  0  0  0  0  0
   -1.8888    6.6215   -0.5678 H   0  0  0  0  0  0  0  0  0  0  0  0
   -0.1973    7.2260   -0.5678 H   0  0  0  0  0  0  0  0  0  0  0  0
  1  2  1  0
  2  3  1  0
  3  4  1  0
  4  5  1  0
  5  6  1  0
  6  7  1  0
  7  8  1  0
  7  9  1  0
  2 10  1  0
 10 11  1  0
 11 12  1  0
 12 13  1  0
 13 14  1  6
 13 15  1  0
 15 16  1  0
 16 17  1  0
 17 18  2  0
 18 19  1  0
 19 20  1  0
 20 21  1  0
 21 22  1  0
 22 23  1  0
 22 24  1  0
 24 25  1  0
 24 26  1  0
 19 27  1  0
 27 28  1  1
 27 29  1  0
 29 30  1  0
 30 31  1  0
 31 32  1  1
  7  5  1  0
 31 10  1  0
 31 13  1  0
 27 15  1  0
 24 18  1  0
  1 33  1  0
  1 34  1  0
  1 35  1  0
  2 36  1  1
  3 37  1  0
  3 38  1  0
  4 39  1  0
  4 40  1  0
  5 41  1  1
  8 42  1  0
  8 43  1  0
  8 44  1  0
  9 45  1  0
  9 46  1  0
  9 47  1  0
 10 48  1  6
 11 49  1  0
 11 50  1  0
 12 51  1  0
 12 52  1  0
 14 53  1  0
 14 54  1  0
 14 55  1  0
 15 56  1  1
 16 57  1  0
 16 58  1  0
 17 59  1  0
 19 60  1  6
 20 61  1  0
 20 62  1  0
 21 63  1  0
 21 64  1  0
 22 65  1  6
 23 66  1  0
 25 67  1  0
 25 68  1  0
 25 69  1  0
 26 70  1  0
 26 71  1  0
 26 72  1  0
 28 73  1  0
 28 74  1  0
 28 75  1  0
 29 76  1  0
 29 77  1  0
 30 78  1  0
 30 79  1  0
 32 80  1  0
 32 81  1  0
 32 82  1  0
M  END
>  <meeko>  (10) 
{"is_sidechain": [false], "intermolecular_energy": 2.731, "internal_energy": -0.839}

$$$$
EPH_relaxed_0001_pdb2pqr_Repair_274_r2_0001_out
     RDKit          3D

 82 86  0  0  0  0  0  0  0  0999 V2000
   -0.8710   16.3690   -5.8330 C   0  0  0  0  0  0  0  0  0  0  0  0
    0.2190   15.6710   -6.6510 C   0  0  2  0  0  0  0  0  0  0  0  0
   -0.1880   15.4910   -8.1270 C   0  0  0  0  0  0  0  0  0  0  0  0
    0.4510   16.5120   -9.0710 C   0  0  0  0  0  0  0  0  0  0  0  0
    1.8550   16.1310   -9.4320 C   0  0  2  0  0  0  0  0  0  0  0  0
    2.3290   16.6890  -10.6640 O   0  0  0  0  0  0  0  0  0  0  0  0
    2.2050   15.2590  -10.6230 C   0  0  0  0  0  0  0  0  0  0  0  0
    1.1460   14.7140  -11.5290 C   0  0  0  0  0  0  0  0  0  0  0  0
    3.5180   14.5390  -10.6220 C   0  0  0  0  0  0  0  0  0  0  0  0
    0.5470   14.3180   -6.0310 C   0  0  1  0  0  0  0  0  0  0  0  0
    1.8060   13.6630   -6.6590 C   0  0  0  0  0  0  0  0  0  0  0  0
    2.5270   12.8970   -5.5200 C   0  0  0  0  0  0  0  0  0  0  0  0
    1.4990   12.8580   -4.3650 C   0  0  1  0  0  0  0  0  0  0  0  0
    0.5410   11.6780   -4.7220 C   0  0  0  0  0  0  0  0  0  0  0  0
    2.0850   12.7090   -2.9230 C   0  0  2  0  0  0  0  0  0  0  0  0
    2.8590   11.4050   -2.6640 C   0  0  0  0  0  0  0  0  0  0  0  0
    2.0410   10.2700   -2.1450 C   0  0  0  0  0  0  0  0  0  0  0  0
    0.8020   10.3710   -1.6280 C   0  0  0  0  0  0  0  0  0  0  0  0
    0.1370   11.7400   -1.4360 C   0  0  1  0  0  0  0  0  0  0  0  0
   -0.4950   11.8150   -0.0220 C   0  0  0  0  0  0  0  0  0  0  0  0
   -1.4520   10.6590    0.2540 C   0  0  0  0  0  0  0  0  0  0  0  0
   -0.7400    9.3160    0.1100 C   0  0  2  0  0  0  0  0  0  0  0  0
    0.2360    9.1990    1.1500 O   0  0  0  0  0  0  0  0  0  0  0  0
   -0.0550    9.1310   -1.2730 C   0  0  0  0  0  0  0  0  0  0  0  0
   -1.1350    8.9570   -2.3690 C   0  0  0  0  0  0  0  0  0  0  0  0
    0.7430    7.8000   -1.2360 C   0  0  0  0  0  0  0  0  0  0  0  0
    1.0440   13.0030   -1.7670 C   0  0  1  0  0  0  0  0  0  0  0  0
    1.8750   13.4050   -0.5110 C   0  0  0  0  0  0  0  0  0  0  0  0
    0.1150   14.2310   -2.0970 C   0  0  0  0  0  0  0  0  0  0  0  0
   -0.3330   14.3900   -3.5620 C   0  0  0  0  0  0  0  0  0  0  0  0
    0.8620   14.2870   -4.5150 C   0  0  2  0  0  0  0  0  0  0  0  0
    1.8330   15.4740   -4.1940 C   0  0  0  0  0  0  0  0  0  0  0  0
   -0.6654   16.2374   -4.7604 H   0  0  0  0  0  0  0  0  0  0  0  0
   -0.8810   17.4419   -6.0755 H   0  0  0  0  0  0  0  0  0  0  0  0
   -1.8497   15.9292   -6.0755 H   0  0  0  0  0  0  0  0  0  0  0  0
    1.1110   16.3144   -6.6318 H   0  0  0  0  0  0  0  0  0  0  0  0
    0.1134   14.4836   -8.4498 H   0  0  0  0  0  0  0  0  0  0  0  0
   -1.2764   15.6412   -8.1806 H   0  0  0  0  0  0  0  0  0  0  0  0
   -0.1497   16.5719   -9.9906 H   0  0  0  0  0  0  0  0  0  0  0  0
    0.4812   17.4833   -8.5556 H   0  0  0  0  0  0  0  0  0  0  0  0
    2.1387   16.0790   -8.3705 H   0  0  0  0  0  0  0  0  0  0  0  0
    0.3282   14.2931  -10.9256 H   0  0  0  0  0  0  0  0  0  0  0  0
    0.7547   15.5227  -12.1637 H   0  0  0  0  0  0  0  0  0  0  0  0
    1.5767   13.9255  -12.1637 H   0  0  0  0  0  0  0  0  0  0  0  0
    3.8389   14.3630   -9.5847 H   0  0  0  0  0  0  0  0  0  0  0  0
    3.4080   13.5750  -11.1403 H   0  0  0  0  0  0  0  0  0  0  0  0
    4.2716   15.1500  -11.1403 H   0  0  0  0  0  0  0  0  0  0  0  0
   -0.3981   13.7911   -6.2289 H   0  0  0  0  0  0  0  0  0  0  0  0
    1.5120   12.9658   -7.4574 H   0  0  0  0  0  0  0  0  0  0  0  0
    2.4660   14.4223   -7.1038 H   0  0  0  0  0  0  0  0  0  0  0  0
    2.7883   11.8781   -5.8419 H   0  0  0  0  0  0  0  0  0  0  0  0
    3.4696   13.3803   -5.2236 H   0  0  0  0  0  0  0  0  0  0  0  0
    0.1665   11.2168   -3.7962 H   0  0  0  0  0  0  0  0  0  0  0  0
   -0.3065   12.0590   -5.3106 H   0  0  0  0  0  0  0  0  0  0  0  0
    1.0880   10.9268   -5.3106 H   0  0  0  0  0  0  0  0  0  0  0  0
    2.8354   13.5126   -2.8894 H   0  0  0  0  0  0  0  0  0  0  0  0
    3.3173   11.0878   -3.6123 H   0  0  0  0  0  0  0  0  0  0  0  0
    3.5911   11.6372   -1.8765 H   0  0  0  0  0  0  0  0  0  0  0  0
    2.4881    9.2659   -2.1885 H   0  0  0  0  0  0  0  0  0  0  0  0
   -0.6512   11.8055   -2.2005 H   0  0  0  0  0  0  0  0  0  0  0  0
    0.3111   11.7915    0.7261 H   0  0  0  0  0  0  0  0  0  0  0  0
   -1.0741   12.7485    0.0355 H   0  0  0  0  0  0  0  0  0  0  0  0
   -1.8427   10.7515    1.2781 H   0  0  0  0  0  0  0  0  0  0  0  0
   -2.2738   10.7011   -0.4760 H   0  0  0  0  0  0  0  0  0  0  0  0
   -1.5026    8.5273    0.1898 H   0  0  0  0  0  0  0  0  0  0  0  0
   -0.2260    9.2950    1.9990 H   0  0  0  0  0  0  0  0  0  0  0  0
   -2.1154    8.7990   -1.8959 H   0  0  0  0  0  0  0  0  0  0  0  0
   -1.1712    9.8609   -2.9948 H   0  0  0  0  0  0  0  0  0  0  0  0
   -0.8855    8.0875   -2.9948 H   0  0  0  0  0  0  0  0  0  0  0  0
    0.9188    7.5068   -0.1905 H   0  0  0  0  0  0  0  0  0  0  0  0
    0.1675    7.0132   -1.7457 H   0  0  0  0  0  0  0  0  0  0  0  0
    1.7082    7.9368   -1.7457 H   0  0  0  0  0  0  0  0  0  0  0  0
    1.3182   13.1357    0.3986 H   0  0  0  0  0  0  0  0  0  0  0  0
    2.8377   12.8730   -0.5226 H   0  0  0  0  0  0  0  0  0  0  0  0
    2.0555   14.4900   -0.5226 H   0  0  0  0  0  0  0  0  0  0  0  0
   -0.7911   14.1378   -1.4803 H   0  0  0  0  0  0  0  0  0  0  0  0
    0.7276   15.1199   -1.8856 H   0  0  0  0  0  0  0  0  0  0  0  0
   -1.0564   13.5978   -3.8051 H   0  0  0  0  0  0  0  0  0  0  0  0
   -0.7932   15.3818   -3.6824 H   0  0  0  0  0  0  0  0  0  0  0  0
    1.9257   15.5873   -3.1038 H   0  0  0  0  0  0  0  0  0  0  0  0
    2.8227   15.2653   -4.6264 H   0  0  0  0  0  0  0  0  0  0  0  0
    1.4323   16.4027   -4.6264 H   0  0  0  0  0  0  0  0  0  0  0  0
  1  2  1  0
  2  3  1  0
  3  4  1  0
  4  5  1  0
  5  6  1  0
  6  7  1  0
  7  8  1  0
  7  9  1  0
  2 10  1  0
 10 11  1  0
 11 12  1  0
 12 13  1  0
 13 14  1  6
 13 15  1  0
 15 16  1  0
 16 17  1  0
 17 18  2  0
 18 19  1  0
 19 20  1  0
 20 21  1  0
 21 22  1  0
 22 23  1  0
 22 24  1  0
 24 25  1  0
 24 26  1  0
 19 27  1  0
 27 28  1  1
 27 29  1  0
 29 30  1  0
 30 31  1  0
 31 32  1  1
  7  5  1  0
 31 10  1  0
 31 13  1  0
 27 15  1  0
 24 18  1  0
  1 33  1  0
  1 34  1  0
  1 35  1  0
  2 36  1  6
  3 37  1  0
  3 38  1  0
  4 39  1  0
  4 40  1  0
  5 41  1  1
  8 42  1  0
  8 43  1  0
  8 44  1  0
  9 45  1  0
  9 46  1  0
  9 47  1  0
 10 48  1  1
 11 49  1  0
 11 50  1  0
 12 51  1  0
 12 52  1  0
 14 53  1  0
 14 54  1  0
 14 55  1  0
 15 56  1  6
 16 57  1  0
 16 58  1  0
 17 59  1  0
 19 60  1  6
 20 61  1  0
 20 62  1  0
 21 63  1  0
 21 64  1  0
 22 65  1  1
 23 66  1  0
 25 67  1  0
 25 68  1  0
 25 69  1  0
 26 70  1  0
 26 71  1  0
 26 72  1  0
 28 73  1  0
 28 74  1  0
 28 75  1  0
 29 76  1  0
 29 77  1  0
 30 78  1  0
 30 79  1  0
 32 80  1  0
 32 81  1  0
 32 82  1  0
M  END
>  <meeko>  (11) 
{"is_sidechain": [false], "intermolecular_energy": 2.731, "internal_energy": -0.839}

$$$$
EPH_relaxed_0001_pdb2pqr_Repair_274_r2_0001_out
     RDKit          3D

 82 86  0  0  0  0  0  0  0  0999 V2000
   -2.1120    7.9110   -1.9860 C   0  0  0  0  0  0  0  0  0  0  0  0
   -2.0930    8.5710   -0.6050 C   0  0  2  0  0  0  0  0  0  0  0  0
   -3.4870    8.5810    0.0540 C   0  0  0  0  0  0  0  0  0  0  0  0
   -4.6400    8.6830   -0.9480 C   0  0  0  0  0  0  0  0  0  0  0  0
   -5.3490    7.3730   -1.1120 C   0  0  2  0  0  0  0  0  0  0  0  0
   -5.4910    6.9350   -2.4700 O   0  0  0  0  0  0  0  0  0  0  0  0
   -6.7090    7.2350   -1.7710 C   0  0  0  0  0  0  0  0  0  0  0  0
   -7.4420    8.4260   -2.3060 C   0  0  0  0  0  0  0  0  0  0  0  0
   -7.5370    6.0280   -1.4570 C   0  0  0  0  0  0  0  0  0  0  0  0
   -1.5590    9.9950   -0.7170 C   0  0  1  0  0  0  0  0  0  0  0  0
   -1.0640   10.5560    0.6420 C   0  0  0  0  0  0  0  0  0  0  0  0
    0.1530   11.4650    0.3340 C   0  0  0  0  0  0  0  0  0  0  0  0
    0.1140   11.6620   -1.1990 C   0  0  1  0  0  0  0  0  0  0  0  0
   -0.9440   12.7860   -1.4330 C   0  0  0  0  0  0  0  0  0  0  0  0
    1.4770   12.0010   -1.8870 C   0  0  2  0  0  0  0  0  0  0  0  0
    2.1210   13.3260   -1.4430 C   0  0  0  0  0  0  0  0  0  0  0  0
    1.7380   14.5230   -2.2490 C   0  0  0  0  0  0  0  0  0  0  0  0
    1.1390   14.4950   -3.4540 C   0  0  0  0  0  0  0  0  0  0  0  0
    0.8750   13.1660   -4.1730 C   0  0  1  0  0  0  0  0  0  0  0  0
    1.3150   13.2830   -5.6560 C   0  0  0  0  0  0  0  0  0  0  0  0
    0.6680   14.4680   -6.3660 C   0  0  0  0  0  0  0  0  0  0  0  0
    1.0010   15.7770   -5.6560 C   0  0  2  0  0  0  0  0  0  0  0  0
    2.4030   16.0310   -5.7900 O   0  0  0  0  0  0  0  0  0  0  0  0
    0.6120   15.7740   -4.1510 C   0  0  0  0  0  0  0  0  0  0  0  0
   -0.9300   15.8030   -4.0110 C   0  0  0  0  0  0  0  0  0  0  0  0
    1.1290   17.0960   -3.5210 C   0  0  0  0  0  0  0  0  0  0  0  0
    1.4580   11.8680   -3.4640 C   0  0  1  0  0  0  0  0  0  0  0  0
    2.9340   11.6350   -3.9100 C   0  0  0  0  0  0  0  0  0  0  0  0
    0.6440   10.6090   -3.9490 C   0  0  0  0  0  0  0  0  0  0  0  0
   -0.6280   10.2560   -3.1540 C   0  0  0  0  0  0  0  0  0  0  0  0
   -0.3440   10.2270   -1.6490 C   0  0  2  0  0  0  0  0  0  0  0  0
    0.7010    9.0910   -1.3810 C   0  0  0  0  0  0  0  0  0  0  0  0
   -2.1435    6.8176   -1.8695 H   0  0  0  0  0  0  0  0  0  0  0  0
   -3.0009    8.2464   -2.5405 H   0  0  0  0  0  0  0  0  0  0  0  0
   -1.2053    8.1947   -2.5405 H   0  0  0  0  0  0  0  0  0  0  0  0
   -1.4291    7.9742    0.0377 H   0  0  0  0  0  0  0  0  0  0  0  0
   -3.6067    7.6502    0.6278 H   0  0  0  0  0  0  0  0  0  0  0  0
   -3.5349    9.4759    0.6918 H   0  0  0  0  0  0  0  0  0  0  0  0
   -5.3585    9.4348   -0.5894 H   0  0  0  0  0  0  0  0  0  0  0  0
   -4.2220    8.9713   -1.9238 H   0  0  0  0  0  0  0  0  0  0  0  0
   -4.9544    7.0119   -0.1508 H   0  0  0  0  0  0  0  0  0  0  0  0
   -7.8157    9.0332   -1.4684 H   0  0  0  0  0  0  0  0  0  0  0  0
   -6.7595    9.0306   -2.9213 H   0  0  0  0  0  0  0  0  0  0  0  0
   -8.2893    8.0891   -2.9213 H   0  0  0  0  0  0  0  0  0  0  0  0
   -7.6167    5.9117   -0.3661 H   0  0  0  0  0  0  0  0  0  0  0  0
   -8.5420    6.1507   -1.8871 H   0  0  0  0  0  0  0  0  0  0  0  0
   -7.0607    5.1346   -1.8871 H   0  0  0  0  0  0  0  0  0  0  0  0
   -2.4491   10.4940   -1.1278 H   0  0  0  0  0  0  0  0  0  0  0  0
   -1.8615   11.1410    1.1234 H   0  0  0  0  0  0  0  0  0  0  0  0
   -0.7855    9.7420    1.3274 H   0  0  0  0  0  0  0  0  0  0  0  0
    0.0576   12.4306    0.8522 H   0  0  0  0  0  0  0  0  0  0  0  0
    1.1010   11.0225    0.6739 H   0  0  0  0  0  0  0  0  0  0  0  0
   -1.2990   13.1632   -0.4626 H   0  0  0  0  0  0  0  0  0  0  0  0
   -0.4852   13.6090   -2.0006 H   0  0  0  0  0  0  0  0  0  0  0  0
   -1.7932   12.3778   -2.0006 H   0  0  0  0  0  0  0  0  0  0  0  0
    2.1362   11.2065   -1.5071 H   0  0  0  0  0  0  0  0  0  0  0  0
    1.8300   13.5122   -0.3987 H   0  0  0  0  0  0  0  0  0  0  0  0
    3.2047   13.1993   -1.5825 H   0  0  0  0  0  0  0  0  0  0  0  0
    1.9645   15.5111   -1.8220 H   0  0  0  0  0  0  0  0  0  0  0  0
   -0.2111   13.0005   -4.1185 H   0  0  0  0  0  0  0  0  0  0  0  0
    2.4077   13.4046   -5.6911 H   0  0  0  0  0  0  0  0  0  0  0  0
    0.9929   12.3672   -6.1733 H   0  0  0  0  0  0  0  0  0  0  0  0
    1.0397   14.5147   -7.4002 H   0  0  0  0  0  0  0  0  0  0  0  0
   -0.4233   14.3305   -6.3554 H   0  0  0  0  0  0  0  0  0  0  0  0
    0.4064   16.5706   -6.1320 H   0  0  0  0  0  0  0  0  0  0  0  0
    2.6170   16.0010   -6.7380 H   0  0  0  0  0  0  0  0  0  0  0  0
   -1.2014   15.8081   -2.9450 H   0  0  0  0  0  0  0  0  0  0  0  0
   -1.3251   16.7087   -4.4943 H   0  0  0  0  0  0  0  0  0  0  0  0
   -1.3589   14.9128   -4.4943 H   0  0  0  0  0  0  0  0  0  0  0  0
    1.0978   17.0163   -2.4243 H   0  0  0  0  0  0  0  0  0  0  0  0
    2.1641   17.2769   -3.8462 H   0  0  0  0  0  0  0  0  0  0  0  0
    0.4912   17.9311   -3.8462 H   0  0  0  0  0  0  0  0  0  0  0  0
    3.5740   11.5340   -3.0211 H   0  0  0  0  0  0  0  0  0  0  0  0
    2.9945   10.7162   -4.5118 H   0  0  0  0  0  0  0  0  0  0  0  0
    3.2746   12.4905   -4.5118 H   0  0  0  0  0  0  0  0  0  0  0  0
    0.3455   10.7874   -4.9926 H   0  0  0  0  0  0  0  0  0  0  0  0
    1.3212    9.7545   -3.8031 H   0  0  0  0  0  0  0  0  0  0  0  0
   -1.4017   11.0104   -3.3596 H   0  0  0  0  0  0  0  0  0  0  0  0
   -0.9704    9.2581   -3.4654 H   0  0  0  0  0  0  0  0  0  0  0  0
    0.8255    8.9557   -0.2965 H   0  0  0  0  0  0  0  0  0  0  0  0
    0.3446    8.1518   -1.8292 H   0  0  0  0  0  0  0  0  0  0  0  0
    1.6666    9.3679   -1.8292 H   0  0  0  0  0  0  0  0  0  0  0  0
  1  2  1  0
  2  3  1  0
  3  4  1  0
  4  5  1  0
  5  6  1  0
  6  7  1  0
  7  8  1  0
  7  9  1  0
  2 10  1  0
 10 11  1  0
 11 12  1  0
 12 13  1  0
 13 14  1  1
 13 15  1  0
 15 16  1  0
 16 17  1  0
 17 18  2  0
 18 19  1  0
 19 20  1  0
 20 21  1  0
 21 22  1  0
 22 23  1  0
 22 24  1  0
 24 25  1  0
 24 26  1  0
 19 27  1  0
 27 28  1  6
 27 29  1  0
 29 30  1  0
 30 31  1  0
 31 32  1  6
  7  5  1  0
 31 10  1  0
 31 13  1  0
 27 15  1  0
 24 18  1  0
  1 33  1  0
  1 34  1  0
  1 35  1  0
  2 36  1  1
  3 37  1  0
  3 38  1  0
  4 39  1  0
  4 40  1  0
  5 41  1  1
  8 42  1  0
  8 43  1  0
  8 44  1  0
  9 45  1  0
  9 46  1  0
  9 47  1  0
 10 48  1  6
 11 49  1  0
 11 50  1  0
 12 51  1  0
 12 52  1  0
 14 53  1  0
 14 54  1  0
 14 55  1  0
 15 56  1  1
 16 57  1  0
 16 58  1  0
 17 59  1  0
 19 60  1  6
 20 61  1  0
 20 62  1  0
 21 63  1  0
 21 64  1  0
 22 65  1  6
 23 66  1  0
 25 67  1  0
 25 68  1  0
 25 69  1  0
 26 70  1  0
 26 71  1  0
 26 72  1  0
 28 73  1  0
 28 74  1  0
 28 75  1  0
 29 76  1  0
 29 77  1  0
 30 78  1  0
 30 79  1  0
 32 80  1  0
 32 81  1  0
 32 82  1  0
M  END
>  <meeko>  (12) 
{"is_sidechain": [false], "intermolecular_energy": 2.731, "internal_energy": -0.839}

$$$$
EPH_relaxed_0001_pdb2pqr_Repair_274_r2_0001_out
     RDKit          3D

 82 86  0  0  0  0  0  0  0  0999 V2000
   -0.2340    9.3480   -2.2230 C   0  0  0  0  0  0  0  0  0  0  0  0
    0.8840   10.2770   -2.7020 C   0  0  2  0  0  0  0  0  0  0  0  0
    2.2450    9.5570   -2.7790 C   0  0  0  0  0  0  0  0  0  0  0  0
    3.1790   10.1190   -3.8540 C   0  0  0  0  0  0  0  0  0  0  0  0
    4.6080   10.1200   -3.4010 C   0  0  2  0  0  0  0  0  0  0  0  0
    5.0430   11.3450   -2.7970 O   0  0  0  0  0  0  0  0  0  0  0  0
    5.6840   10.9850   -4.0310 C   0  0  0  0  0  0  0  0  0  0  0  0
    5.3770   11.9080   -5.1680 C   0  0  0  0  0  0  0  0  0  0  0  0
    7.1150   10.5760   -3.8700 C   0  0  0  0  0  0  0  0  0  0  0  0
    0.9860   11.4860   -1.7790 C   0  0  1  0  0  0  0  0  0  0  0  0
    2.1080   11.3350   -0.7180 C   0  0  0  0  0  0  0  0  0  0  0  0
    2.7030   12.7480   -0.4910 C   0  0  0  0  0  0  0  0  0  0  0  0
    1.6980   13.7080   -1.1690 C   0  0  1  0  0  0  0  0  0  0  0  0
    0.5500   13.8880   -0.1280 C   0  0  0  0  0  0  0  0  0  0  0  0
    2.2690   15.0850   -1.6420 C   0  0  2  0  0  0  0  0  0  0  0  0
    2.8140   15.9850   -0.5200 C   0  0  0  0  0  0  0  0  0  0  0  0
    1.8220   16.9220    0.0850 C   0  0  0  0  0  0  0  0  0  0  0  0
    0.6250   17.2410   -0.4420 C   0  0  0  0  0  0  0  0  0  0  0  0
    0.2050   16.7130   -1.8200 C   0  0  1  0  0  0  0  0  0  0  0  0
   -0.3870   17.8740   -2.6610 C   0  0  0  0  0  0  0  0  0  0  0  0
   -1.5220   18.5970   -1.9420 C   0  0  0  0  0  0  0  0  0  0  0  0
   -1.0500   19.1580   -0.6030 C   0  0  2  0  0  0  0  0  0  0  0  0
   -0.0950   20.1940   -0.8490 O   0  0  0  0  0  0  0  0  0  0  0  0
   -0.4250   18.0800    0.3260 C   0  0  0  0  0  0  0  0  0  0  0  0
   -1.5330   17.1260    0.8350 C   0  0  0  0  0  0  0  0  0  0  0  0
    0.1370   18.8010    1.5820 C   0  0  0  0  0  0  0  0  0  0  0  0
    1.3080   15.8860   -2.6110 C   0  0  1  0  0  0  0  0  0  0  0  0
    2.2120   16.8560   -3.4320 C   0  0  0  0  0  0  0  0  0  0  0  0
    0.5960   14.9500   -3.6580 C   0  0  0  0  0  0  0  0  0  0  0  0
    0.1630   13.5570   -3.1620 C   0  0  0  0  0  0  0  0  0  0  0  0
    1.3110   12.8540   -2.4310 C   0  0  2  0  0  0  0  0  0  0  0  0
    2.4730   12.6390   -3.4600 C   0  0  0  0  0  0  0  0  0  0  0  0
   -0.2522    9.3329   -1.1233 H   0  0  0  0  0  0  0  0  0  0  0  0
   -1.2007    9.7125   -2.6007 H   0  0  0  0  0  0  0  0  0  0  0  0
   -0.0527    8.3309   -2.6007 H   0  0  0  0  0  0  0  0  0  0  0  0
    0.6271   10.6062   -3.7196 H   0  0  0  0  0  0  0  0  0  0  0  0
    2.7431    9.6507   -1.8027 H   0  0  0  0  0  0  0  0  0  0  0  0
    2.0399    8.5100   -3.0469 H   0  0  0  0  0  0  0  0  0  0  0  0
    3.0926    9.5011   -4.7599 H   0  0  0  0  0  0  0  0  0  0  0  0
    2.8826   11.1588   -4.0565 H   0  0  0  0  0  0  0  0  0  0  0  0
    4.5632    9.0439   -3.1773 H   0  0  0  0  0  0  0  0  0  0  0  0
    5.0531   12.8820   -4.7724 H   0  0  0  0  0  0  0  0  0  0  0  0
    6.2784   12.0438   -5.7837 H   0  0  0  0  0  0  0  0  0  0  0  0
    4.5739   11.4768   -5.7837 H   0  0  0  0  0  0  0  0  0  0  0  0
    7.3583   10.5065   -2.7995 H   0  0  0  0  0  0  0  0  0  0  0  0
    7.2723    9.5969   -4.3461 H   0  0  0  0  0  0  0  0  0  0  0  0
    7.7659   11.3241   -4.3461 H   0  0  0  0  0  0  0  0  0  0  0  0
   -0.0369   11.4951   -1.3746 H   0  0  0  0  0  0  0  0  0  0  0  0
    1.6904   10.9445    0.2218 H   0  0  0  0  0  0  0  0  0  0  0  0
    2.8815   10.6312   -1.0591 H   0  0  0  0  0  0  0  0  0  0  0  0
    2.7845   12.9669    0.5839 H   0  0  0  0  0  0  0  0  0  0  0  0
    3.7173   12.8451   -0.9056 H   0  0  0  0  0  0  0  0  0  0  0  0
    0.9638   13.8231    0.8891 H   0  0  0  0  0  0  0  0  0  0  0  0
    0.0775   14.8712   -0.2696 H   0  0  0  0  0  0  0  0  0  0  0  0
   -0.2008   13.0966   -0.2696 H   0  0  0  0  0  0  0  0  0  0  0  0
    3.1449   14.7862   -2.2366 H   0  0  0  0  0  0  0  0  0  0  0  0
    3.1994   15.3354    0.2797 H   0  0  0  0  0  0  0  0  0  0  0  0
    3.5851   16.6170   -0.9847 H   0  0  0  0  0  0  0  0  0  0  0  0
    2.0919   17.3916    1.0424 H   0  0  0  0  0  0  0  0  0  0  0  0
   -0.5704   15.9557   -1.6324 H   0  0  0  0  0  0  0  0  0  0  0  0
    0.4129   18.5981   -2.8749 H   0  0  0  0  0  0  0  0  0  0  0  0
   -0.7987   17.4413   -3.5847 H   0  0  0  0  0  0  0  0  0  0  0  0
   -1.8788   19.4242   -2.5732 H   0  0  0  0  0  0  0  0  0  0  0  0
   -2.3334   17.8781   -1.7550 H   0  0  0  0  0  0  0  0  0  0  0  0
   -1.9340   19.5494   -0.0783 H   0  0  0  0  0  0  0  0  0  0  0  0
    0.3980   20.3420   -0.0240 H   0  0  0  0  0  0  0  0  0  0  0  0
   -1.5370   17.1225    1.9350 H   0  0  0  0  0  0  0  0  0  0  0  0
   -2.5106   17.4694    0.4658 H   0  0  0  0  0  0  0  0  0  0  0  0
   -1.3386   16.1082    0.4658 H   0  0  0  0  0  0  0  0  0  0  0  0
   -0.2458   18.3098    2.4887 H   0  0  0  0  0  0  0  0  0  0  0  0
    1.2358   18.7497    1.5733 H   0  0  0  0  0  0  0  0  0  0  0  0
   -0.1810   19.8540    1.5733 H   0  0  0  0  0  0  0  0  0  0  0  0
    2.7968   17.4835   -2.7433 H   0  0  0  0  0  0  0  0  0  0  0  0
    2.8955   16.2720   -4.0659 H   0  0  0  0  0  0  0  0  0  0  0  0
    1.5814   17.4967   -4.0659 H   0  0  0  0  0  0  0  0  0  0  0  0
   -0.3050   15.4720   -4.0126 H   0  0  0  0  0  0  0  0  0  0  0  0
    1.3521   14.7576   -4.4334 H   0  0  0  0  0  0  0  0  0  0  0  0
   -0.6874   13.6686   -2.4732 H   0  0  0  0  0  0  0  0  0  0  0  0
   -0.1236   12.9483   -4.0322 H   0  0  0  0  0  0  0  0  0  0  0  0
    3.4146   12.4648   -2.9187 H   0  0  0  0  0  0  0  0  0  0  0  0
    2.2467   11.7675   -4.0919 H   0  0  0  0  0  0  0  0  0  0  0  0
    2.5735   13.5338   -4.0919 H   0  0  0  0  0  0  0  0  0  0  0  0
  1  2  1  0
  2  3  1  0
  3  4  1  0
  4  5  1  0
  5  6  1  0
  6  7  1  0
  7  8  1  0
  7  9  1  0
  2 10  1  0
 10 11  1  0
 11 12  1  0
 12 13  1  0
 13 14  1  1
 13 15  1  0
 15 16  1  0
 16 17  1  0
 17 18  2  0
 18 19  1  0
 19 20  1  0
 20 21  1  0
 21 22  1  0
 22 23  1  0
 22 24  1  0
 24 25  1  0
 24 26  1  0
 19 27  1  0
 27 28  1  6
 27 29  1  0
 29 30  1  0
 30 31  1  0
 31 32  1  6
  7  5  1  0
 31 10  1  0
 31 13  1  0
 27 15  1  0
 24 18  1  0
  1 33  1  0
  1 34  1  0
  1 35  1  0
  2 36  1  6
  3 37  1  0
  3 38  1  0
  4 39  1  0
  4 40  1  0
  5 41  1  1
  8 42  1  0
  8 43  1  0
  8 44  1  0
  9 45  1  0
  9 46  1  0
  9 47  1  0
 10 48  1  1
 11 49  1  0
 11 50  1  0
 12 51  1  0
 12 52  1  0
 14 53  1  0
 14 54  1  0
 14 55  1  0
 15 56  1  6
 16 57  1  0
 16 58  1  0
 17 59  1  0
 19 60  1  1
 20 61  1  0
 20 62  1  0
 21 63  1  0
 21 64  1  0
 22 65  1  1
 23 66  1  0
 25 67  1  0
 25 68  1  0
 25 69  1  0
 26 70  1  0
 26 71  1  0
 26 72  1  0
 28 73  1  0
 28 74  1  0
 28 75  1  0
 29 76  1  0
 29 77  1  0
 30 78  1  0
 30 79  1  0
 32 80  1  0
 32 81  1  0
 32 82  1  0
M  END
>  <meeko>  (13) 
{"is_sidechain": [false], "intermolecular_energy": 2.731, "internal_energy": -0.839}

$$$$
EPH_relaxed_0001_pdb2pqr_Repair_274_r2_0001_out
     RDKit          3D

 82 86  0  0  0  0  0  0  0  0999 V2000
    4.1190   18.3550   -1.5630 C   0  0  0  0  0  0  0  0  0  0  0  0
    2.5900   18.4340   -1.5290 C   0  0  2  0  0  0  0  0  0  0  0  0
    2.0890   19.6490   -0.7220 C   0  0  0  0  0  0  0  0  0  0  0  0
    2.2790   19.5050    0.7900 C   0  0  0  0  0  0  0  0  0  0  0  0
    3.7290   19.4900    1.1680 C   0  0  2  0  0  0  0  0  0  0  0  0
    4.1100   18.4160    2.0380 O   0  0  0  0  0  0  0  0  0  0  0  0
    4.2290   19.7420    2.5780 C   0  0  0  0  0  0  0  0  0  0  0  0
    3.2830   20.0290    3.7010 C   0  0  0  0  0  0  0  0  0  0  0  0
    5.6450   20.1920    2.7650 C   0  0  0  0  0  0  0  0  0  0  0  0
    2.0170   17.1480   -0.9440 C   0  0  1  0  0  0  0  0  0  0  0  0
    0.8380   17.4090    0.0310 C   0  0  0  0  0  0  0  0  0  0  0  0
   -0.1580   16.2340   -0.1450 C   0  0  0  0  0  0  0  0  0  0  0  0
    0.6260   15.1780   -0.9590 C   0  0  1  0  0  0  0  0  0  0  0  0
    1.5100   14.4370    0.0920 C   0  0  0  0  0  0  0  0  0  0  0  0
   -0.2310   14.1770   -1.8010 C   0  0  2  0  0  0  0  0  0  0  0  0
   -1.1680   13.2720   -0.9820 C   0  0  0  0  0  0  0  0  0  0  0  0
   -0.5800   11.9690   -0.5510 C   0  0  0  0  0  0  0  0  0  0  0  0
    0.5430   11.4170   -1.0450 C   0  0  0  0  0  0  0  0  0  0  0  0
    1.2940   12.0700   -2.2130 C   0  0  1  0  0  0  0  0  0  0  0  0
    1.6550   10.9890   -3.2660 C   0  0  0  0  0  0  0  0  0  0  0  0
    2.4210    9.8160   -2.6620 C   0  0  0  0  0  0  0  0  0  0  0  0
    1.6170    9.1570   -1.5440 C   0  0  2  0  0  0  0  0  0  0  0  0
    0.4560    8.5420   -2.1120 O   0  0  0  0  0  0  0  0  0  0  0  0
    1.1890   10.1510   -0.4290 C   0  0  0  0  0  0  0  0  0  0  0  0
    2.4320   10.5870    0.3850 C   0  0  0  0  0  0  0  0  0  0  0  0
    0.2670    9.3900    0.5620 C   0  0  0  0  0  0  0  0  0  0  0  0
    0.5980   13.3440   -2.8590 C   0  0  1  0  0  0  0  0  0  0  0  0
   -0.4090   12.8970   -3.9620 C   0  0  0  0  0  0  0  0  0  0  0  0
    1.6920   14.2150   -3.5830 C   0  0  0  0  0  0  0  0  0  0  0  0
    2.4200   15.2680   -2.7260 C   0  0  0  0  0  0  0  0  0  0  0  0
    1.4210   16.1190   -1.9360 C   0  0  2  0  0  0  0  0  0  0  0  0
    0.5320   16.8940   -2.9680 C   0  0  0  0  0  0  0  0  0  0  0  0
    4.5081   18.3349   -0.5343 H   0  0  0  0  0  0  0  0  0  0  0  0
    4.4272   17.4397   -2.0896 H   0  0  0  0  0  0  0  0  0  0  0  0
    4.5199   19.2336   -2.0896 H   0  0  0  0  0  0  0  0  0  0  0  0
    2.2415   18.5596   -2.5647 H   0  0  0  0  0  0  0  0  0  0  0  0
    2.6400   20.5399   -1.0578 H   0  0  0  0  0  0  0  0  0  0  0  0
    1.0072   19.7310   -0.9034 H   0  0  0  0  0  0  0  0  0  0  0  0
    1.7883   20.3513    1.2930 H   0  0  0  0  0  0  0  0  0  0  0  0
    1.8337   18.5487    1.1018 H   0  0  0  0  0  0  0  0  0  0  0  0
    4.0106   19.9233    0.1969 H   0  0  0  0  0  0  0  0  0  0  0  0
    3.7961   19.8733    4.6615 H   0  0  0  0  0  0  0  0  0  0  0  0
    2.9394   21.0718    3.6336 H   0  0  0  0  0  0  0  0  0  0  0  0
    2.4180   19.3529    3.6336 H   0  0  0  0  0  0  0  0  0  0  0  0
    5.8683   20.2630    3.8398 H   0  0  0  0  0  0  0  0  0  0  0  0
    6.3254   19.4658    2.2963 H   0  0  0  0  0  0  0  0  0  0  0  0
    5.7814   21.1778    2.2963 H   0  0  0  0  0  0  0  0  0  0  0  0
    2.9244   16.7381   -0.4764 H   0  0  0  0  0  0  0  0  0  0  0  0
    1.2044   17.4427    1.0676 H   0  0  0  0  0  0  0  0  0  0  0  0
    0.3534   18.3726   -0.1850 H   0  0  0  0  0  0  0  0  0  0  0  0
   -0.4564   15.8278    0.8328 H   0  0  0  0  0  0  0  0  0  0  0  0
   -1.0856   16.5447   -0.6480 H   0  0  0  0  0  0  0  0  0  0  0  0
    1.1824   14.7116    1.1055 H   0  0  0  0  0  0  0  0  0  0  0  0
    1.4084   13.3502   -0.0443 H   0  0  0  0  0  0  0  0  0  0  0  0
    2.5623   14.7268   -0.0443 H   0  0  0  0  0  0  0  0  0  0  0  0
   -0.8882   14.8505   -2.3707 H   0  0  0  0  0  0  0  0  0  0  0  0
   -1.4702   13.8236   -0.0796 H   0  0  0  0  0  0  0  0  0  0  0  0
   -2.0076   13.0218   -1.6472 H   0  0  0  0  0  0  0  0  0  0  0  0
   -1.1097   11.4135    0.2369 H   0  0  0  0  0  0  0  0  0  0  0  0
    2.2138   12.4942   -1.7841 H   0  0  0  0  0  0  0  0  0  0  0  0
    0.7251   10.6093   -3.7145 H   0  0  0  0  0  0  0  0  0  0  0  0
    2.3048   11.4599   -4.0183 H   0  0  0  0  0  0  0  0  0  0  0  0
    2.6202    9.0730   -3.4483 H   0  0  0  0  0  0  0  0  0  0  0  0
    3.3648   10.1926   -2.2407 H   0  0  0  0  0  0  0  0  0  0  0  0
    2.2681    8.4107   -1.0654 H   0  0  0  0  0  0  0  0  0  0  0  0
    0.2460    9.0140   -2.9350 H   0  0  0  0  0  0  0  0  0  0  0  0
    2.2119   10.5098    1.4600 H   0  0  0  0  0  0  0  0  0  0  0  0
    3.2808    9.9329    0.1366 H   0  0  0  0  0  0  0  0  0  0  0  0
    2.6863   11.6280    0.1366 H   0  0  0  0  0  0  0  0  0  0  0  0
    0.5597    9.6316    1.5944 H   0  0  0  0  0  0  0  0  0  0  0  0
   -0.7777    9.6923    0.3968 H   0  0  0  0  0  0  0  0  0  0  0  0
    0.3658    8.3070    0.3968 H   0  0  0  0  0  0  0  0  0  0  0  0
   -1.3165   12.4942   -3.4885 H   0  0  0  0  0  0  0  0  0  0  0  0
   -0.6749   13.7616   -4.5879 H   0  0  0  0  0  0  0  0  0  0  0  0
    0.0539   12.1198   -4.5879 H   0  0  0  0  0  0  0  0  0  0  0  0
    2.4524   13.5286   -3.9838 H   0  0  0  0  0  0  0  0  0  0  0  0
    1.1446   14.7911   -4.3436 H   0  0  0  0  0  0  0  0  0  0  0  0
    3.0924   14.7562   -2.0218 H   0  0  0  0  0  0  0  0  0  0  0  0
    2.9920   15.9288   -3.3940 H   0  0  0  0  0  0  0  0  0  0  0  0
   -0.1908   17.5241   -2.4290 H   0  0  0  0  0  0  0  0  0  0  0  0
    1.1716   17.5279   -3.5997 H   0  0  0  0  0  0  0  0  0  0  0  0
   -0.0088   16.1739   -3.5997 H   0  0  0  0  0  0  0  0  0  0  0  0
  1  2  1  0
  2  3  1  0
  3  4  1  0
  4  5  1  0
  5  6  1  0
  6  7  1  0
  7  8  1  0
  7  9  1  0
  2 10  1  0
 10 11  1  0
 11 12  1  0
 12 13  1  0
 13 14  1  1
 13 15  1  0
 15 16  1  0
 16 17  1  0
 17 18  2  0
 18 19  1  0
 19 20  1  0
 20 21  1  0
 21 22  1  0
 22 23  1  0
 22 24  1  0
 24 25  1  0
 24 26  1  0
 19 27  1  0
 27 28  1  6
 27 29  1  0
 29 30  1  0
 30 31  1  0
 31 32  1  6
  7  5  1  0
 31 10  1  0
 31 13  1  0
 27 15  1  0
 24 18  1  0
  1 33  1  0
  1 34  1  0
  1 35  1  0
  2 36  1  6
  3 37  1  0
  3 38  1  0
  4 39  1  0
  4 40  1  0
  5 41  1  6
  8 42  1  0
  8 43  1  0
  8 44  1  0
  9 45  1  0
  9 46  1  0
  9 47  1  0
 10 48  1  1
 11 49  1  0
 11 50  1  0
 12 51  1  0
 12 52  1  0
 14 53  1  0
 14 54  1  0
 14 55  1  0
 15 56  1  6
 16 57  1  0
 16 58  1  0
 17 59  1  0
 19 60  1  1
 20 61  1  0
 20 62  1  0
 21 63  1  0
 21 64  1  0
 22 65  1  1
 23 66  1  0
 25 67  1  0
 25 68  1  0
 25 69  1  0
 26 70  1  0
 26 71  1  0
 26 72  1  0
 28 73  1  0
 28 74  1  0
 28 75  1  0
 29 76  1  0
 29 77  1  0
 30 78  1  0
 30 79  1  0
 32 80  1  0
 32 81  1  0
 32 82  1  0
M  END
>  <meeko>  (14) 
{"is_sidechain": [false], "intermolecular_energy": 2.731, "internal_energy": -0.839}

$$$$
EPH_relaxed_0001_pdb2pqr_Repair_274_r2_0001_out
     RDKit          3D

 82 86  0  0  0  0  0  0  0  0999 V2000
    1.6790   10.7500   -4.8700 C   0  0  0  0  0  0  0  0  0  0  0  0
    0.9230   10.5940   -3.5470 C   0  0  2  0  0  0  0  0  0  0  0  0
   -0.2500    9.6000   -3.6620 C   0  0  0  0  0  0  0  0  0  0  0  0
   -0.2250    8.4930   -2.6050 C   0  0  0  0  0  0  0  0  0  0  0  0
   -0.0220    9.0470   -1.2270 C   0  0  2  0  0  0  0  0  0  0  0  0
   -0.3430    8.1400   -0.1640 O   0  0  0  0  0  0  0  0  0  0  0  0
   -1.1590    9.3200   -0.2590 C   0  0  0  0  0  0  0  0  0  0  0  0
   -2.5830    9.0460   -0.6310 C   0  0  0  0  0  0  0  0  0  0  0  0
   -0.9350   10.2990    0.8500 C   0  0  0  0  0  0  0  0  0  0  0  0
    0.4120   11.9510   -3.0770 C   0  0  1  0  0  0  0  0  0  0  0  0
   -1.0310   11.8820   -2.5100 C   0  0  0  0  0  0  0  0  0  0  0  0
   -1.1060   12.9100   -1.3520 C   0  0  0  0  0  0  0  0  0  0  0  0
    0.1750   13.7640   -1.5050 C   0  0  1  0  0  0  0  0  0  0  0  0
   -0.1670   14.8030   -2.6190 C   0  0  0  0  0  0  0  0  0  0  0  0
    0.7000   14.4600   -0.2080 C   0  0  2  0  0  0  0  0  0  0  0  0
   -0.2590   15.4890    0.4150 C   0  0  0  0  0  0  0  0  0  0  0  0
   -0.0910   16.8920   -0.0680 C   0  0  0  0  0  0  0  0  0  0  0  0
    0.9710   17.3630   -0.7470 C   0  0  0  0  0  0  0  0  0  0  0  0
    2.1950   16.4760   -1.0100 C   0  0  1  0  0  0  0  0  0  0  0  0
    3.4880   17.2660   -0.6800 C   0  0  0  0  0  0  0  0  0  0  0  0
    3.5640   18.5990   -1.4200 C   0  0  0  0  0  0  0  0  0  0  0  0
    2.3590   19.4760   -1.0870 C   0  0  2  0  0  0  0  0  0  0  0  0
    2.4300   19.8530    0.2910 O   0  0  0  0  0  0  0  0  0  0  0  0
    0.9980   18.7810   -1.3700 C   0  0  0  0  0  0  0  0  0  0  0  0
    0.7910   18.6440   -2.8990 C   0  0  0  0  0  0  0  0  0  0  0  0
   -0.1310   19.7160   -0.8600 C   0  0  0  0  0  0  0  0  0  0  0  0
    2.1680   15.0390   -0.3320 C   0  0  1  0  0  0  0  0  0  0  0  0
    2.7370   15.1240    1.1180 C   0  0  0  0  0  0  0  0  0  0  0  0
    3.1250   14.0760   -1.1280 C   0  0  0  0  0  0  0  0  0  0  0  0
    2.5150   13.3260   -2.3280 C   0  0  0  0  0  0  0  0  0  0  0  0
    1.1970   12.6510   -1.9390 C   0  0  2  0  0  0  0  0  0  0  0  0
    1.5120   11.5840   -0.8360 C   0  0  0  0  0  0  0  0  0  0  0  0
    2.7373   10.9684   -4.6640 H   0  0  0  0  0  0  0  0  0  0  0  0
    1.6028    9.8172   -5.4480 H   0  0  0  0  0  0  0  0  0  0  0  0
    1.2398   11.5764   -5.4480 H   0  0  0  0  0  0  0  0  0  0  0  0
    1.6292   10.1868   -2.8085 H   0  0  0  0  0  0  0  0  0  0  0  0
   -1.1910   10.1597   -3.5563 H   0  0  0  0  0  0  0  0  0  0  0  0
   -0.1608    9.1098   -4.6427 H   0  0  0  0  0  0  0  0  0  0  0  0
   -1.1816    7.9508   -2.6339 H   0  0  0  0  0  0  0  0  0  0  0  0
    0.6159    7.8211   -2.8319 H   0  0  0  0  0  0  0  0  0  0  0  0
    0.8161    9.6688   -1.5747 H   0  0  0  0  0  0  0  0  0  0  0  0
   -3.1848    8.9302    0.2825 H   0  0  0  0  0  0  0  0  0  0  0  0
   -2.9749    9.8852   -1.2244 H   0  0  0  0  0  0  0  0  0  0  0  0
   -2.6355    8.1213   -1.2244 H   0  0  0  0  0  0  0  0  0  0  0  0
   -1.0516    9.7896    1.8179 H   0  0  0  0  0  0  0  0  0  0  0  0
    0.0811   10.7133    0.7737 H   0  0  0  0  0  0  0  0  0  0  0  0
   -1.6699   11.1139    0.7737 H   0  0  0  0  0  0  0  0  0  0  0  0
    0.5159   12.5215   -4.0118 H   0  0  0  0  0  0  0  0  0  0  0  0
   -1.7586   12.1402   -3.2935 H   0  0  0  0  0  0  0  0  0  0  0  0
   -1.2676   10.8683   -2.1543 H   0  0  0  0  0  0  0  0  0  0  0  0
   -2.0046   13.5373   -1.4471 H   0  0  0  0  0  0  0  0  0  0  0  0
   -1.1688   12.4248   -0.3668 H   0  0  0  0  0  0  0  0  0  0  0  0
   -0.4787   15.7499   -2.1540 H   0  0  0  0  0  0  0  0  0  0  0  0
    0.7215   14.9764   -3.2439 H   0  0  0  0  0  0  0  0  0  0  0  0
   -0.9848   14.4148   -3.2439 H   0  0  0  0  0  0  0  0  0  0  0  0
    0.7453   13.6243    0.5058 H   0  0  0  0  0  0  0  0  0  0  0  0
   -1.2886   15.1733    0.1907 H   0  0  0  0  0  0  0  0  0  0  0  0
   -0.0282   15.5078    1.4904 H   0  0  0  0  0  0  0  0  0  0  0  0
   -0.9040   17.6003    0.1496 H   0  0  0  0  0  0  0  0  0  0  0  0
    2.1698   16.2335   -2.0827 H   0  0  0  0  0  0  0  0  0  0  0  0
    3.5155   17.4613    0.4022 H   0  0  0  0  0  0  0  0  0  0  0  0
    4.3441   16.6554   -1.0029 H   0  0  0  0  0  0  0  0  0  0  0  0
    4.4843   19.1236   -1.1236 H   0  0  0  0  0  0  0  0  0  0  0  0
    3.5665   18.4009   -2.5020 H   0  0  0  0  0  0  0  0  0  0  0  0
    2.4021   20.3582   -1.7426 H   0  0  0  0  0  0  0  0  0  0  0  0
    3.0900   19.2820    0.7190 H   0  0  0  0  0  0  0  0  0  0  0  0
   -0.1117   18.0466   -3.0947 H   0  0  0  0  0  0  0  0  0  0  0  0
    0.6731   19.6430   -3.3440 H   0  0  0  0  0  0  0  0  0  0  0  0
    1.6645   18.1451   -3.3440 H   0  0  0  0  0  0  0  0  0  0  0  0
   -0.1353   19.7195    0.2400 H   0  0  0  0  0  0  0  0  0  0  0  0
    0.0439   20.7373   -1.2293 H   0  0  0  0  0  0  0  0  0  0  0  0
   -1.1018   19.3538   -1.2293 H   0  0  0  0  0  0  0  0  0  0  0  0
    1.9173   15.0016    1.8413 H   0  0  0  0  0  0  0  0  0  0  0  0
    3.4801   14.3269    1.2676 H   0  0  0  0  0  0  0  0  0  0  0  0
    3.2147   16.1035    1.2676 H   0  0  0  0  0  0  0  0  0  0  0  0
    3.9652   14.6781   -1.5041 H   0  0  0  0  0  0  0  0  0  0  0  0
    3.4052   13.2909   -0.4103 H   0  0  0  0  0  0  0  0  0  0  0  0
    2.3264   14.0417   -3.1417 H   0  0  0  0  0  0  0  0  0  0  0  0
    3.2236   12.5505   -2.6543 H   0  0  0  0  0  0  0  0  0  0  0  0
    1.3790   12.0346    0.1586 H   0  0  0  0  0  0  0  0  0  0  0  0
    0.8277   10.7298   -0.9461 H   0  0  0  0  0  0  0  0  0  0  0  0
    2.5505   11.2384   -0.9461 H   0  0  0  0  0  0  0  0  0  0  0  0
  1  2  1  0
  2  3  1  0
  3  4  1  0
  4  5  1  0
  5  6  1  0
  6  7  1  0
  7  8  1  0
  7  9  1  0
  2 10  1  0
 10 11  1  0
 11 12  1  0
 12 13  1  0
 13 14  1  6
 13 15  1  0
 15 16  1  0
 16 17  1  0
 17 18  2  0
 18 19  1  0
 19 20  1  0
 20 21  1  0
 21 22  1  0
 22 23  1  0
 22 24  1  0
 24 25  1  0
 24 26  1  0
 19 27  1  0
 27 28  1  1
 27 29  1  0
 29 30  1  0
 30 31  1  0
 31 32  1  1
  7  5  1  0
 31 10  1  0
 31 13  1  0
 27 15  1  0
 24 18  1  0
  1 33  1  0
  1 34  1  0
  1 35  1  0
  2 36  1  1
  3 37  1  0
  3 38  1  0
  4 39  1  0
  4 40  1  0
  5 41  1  6
  8 42  1  0
  8 43  1  0
  8 44  1  0
  9 45  1  0
  9 46  1  0
  9 47  1  0
 10 48  1  6
 11 49  1  0
 11 50  1  0
 12 51  1  0
 12 52  1  0
 14 53  1  0
 14 54  1  0
 14 55  1  0
 15 56  1  1
 16 57  1  0
 16 58  1  0
 17 59  1  0
 19 60  1  6
 20 61  1  0
 20 62  1  0
 21 63  1  0
 21 64  1  0
 22 65  1  6
 23 66  1  0
 25 67  1  0
 25 68  1  0
 25 69  1  0
 26 70  1  0
 26 71  1  0
 26 72  1  0
 28 73  1  0
 28 74  1  0
 28 75  1  0
 29 76  1  0
 29 77  1  0
 30 78  1  0
 30 79  1  0
 32 80  1  0
 32 81  1  0
 32 82  1  0
M  END
>  <meeko>  (15) 
{"is_sidechain": [false], "intermolecular_energy": 2.731, "internal_energy": -0.839}

$$$$
EPH_relaxed_0001_pdb2pqr_Repair_274_r2_0001_out
     RDKit          3D

 82 86  0  0  0  0  0  0  0  0999 V2000
    0.9210   14.9170   -2.6420 C   0  0  0  0  0  0  0  0  0  0  0  0
    1.1710   14.2470   -3.9960 C   0  0  2  0  0  0  0  0  0  0  0  0
    0.4520   14.9780   -5.1480 C   0  0  0  0  0  0  0  0  0  0  0  0
    0.9800   14.6070   -6.5360 C   0  0  0  0  0  0  0  0  0  0  0  0
    0.7640   15.7130   -7.5250 C   0  0  2  0  0  0  0  0  0  0  0  0
    0.4130   15.2760   -8.8450 O   0  0  0  0  0  0  0  0  0  0  0  0
    1.6710   15.9590   -8.7160 C   0  0  0  0  0  0  0  0  0  0  0  0
    2.8630   15.0940   -8.9810 C   0  0  0  0  0  0  0  0  0  0  0  0
    1.6840   17.3210   -9.3360 C   0  0  0  0  0  0  0  0  0  0  0  0
    0.7250   12.7900   -3.9450 C   0  0  1  0  0  0  0  0  0  0  0  0
    1.8570   11.8040   -4.3380 C   0  0  0  0  0  0  0  0  0  0  0  0
    1.6670   10.5350   -3.4690 C   0  0  0  0  0  0  0  0  0  0  0  0
    0.2570   10.6920   -2.8520 C   0  0  1  0  0  0  0  0  0  0  0  0
   -0.7250   10.2250   -3.9730 C   0  0  0  0  0  0  0  0  0  0  0  0
    0.0020    9.9350   -1.5090 C   0  0  2  0  0  0  0  0  0  0  0  0
    0.1100    8.4020   -1.5930 C   0  0  0  0  0  0  0  0  0  0  0  0
   -1.1620    7.6890   -1.9110 C   0  0  0  0  0  0  0  0  0  0  0  0
   -2.3960    8.2220   -1.8410 C   0  0  0  0  0  0  0  0  0  0  0  0
   -2.6100    9.6470   -1.3130 C   0  0  1  0  0  0  0  0  0  0  0  0
   -3.7830    9.6530   -0.2980 C   0  0  0  0  0  0  0  0  0  0  0  0
   -5.0590    9.0470   -0.8760 C   0  0  0  0  0  0  0  0  0  0  0  0
   -4.8210    7.6110   -1.3360 C   0  0  2  0  0  0  0  0  0  0  0  0
   -4.5530    6.7980   -0.1900 O   0  0  0  0  0  0  0  0  0  0  0  0
   -3.6540    7.4790   -2.3540 C   0  0  0  0  0  0  0  0  0  0  0  0
   -4.0710    8.1070   -3.7080 C   0  0  0  0  0  0  0  0  0  0  0  0
   -3.4280    5.9680   -2.6280 C   0  0  0  0  0  0  0  0  0  0  0  0
   -1.3150   10.3800   -0.7530 C   0  0  1  0  0  0  0  0  0  0  0  0
   -1.1090   10.0220    0.7500 C   0  0  0  0  0  0  0  0  0  0  0  0
   -1.5410   11.9370   -0.8120 C   0  0  0  0  0  0  0  0  0  0  0  0
   -1.1580   12.6460   -2.1250 C   0  0  0  0  0  0  0  0  0  0  0  0
    0.2480   12.2400   -2.5780 C   0  0  2  0  0  0  0  0  0  0  0  0
    1.2600   12.7170   -1.4810 C   0  0  0  0  0  0  0  0  0  0  0  0
    1.1817   14.2183   -1.8334 H   0  0  0  0  0  0  0  0  0  0  0  0
    1.5423   15.8210   -2.5599 H   0  0  0  0  0  0  0  0  0  0  0  0
   -0.1406   15.1930   -2.5599 H   0  0  0  0  0  0  0  0  0  0  0  0
    2.2514   14.2987   -4.1961 H   0  0  0  0  0  0  0  0  0  0  0  0
   -0.6180   14.7266   -5.1048 H   0  0  0  0  0  0  0  0  0  0  0  0
    0.6360   16.0538   -5.0108 H   0  0  0  0  0  0  0  0  0  0  0  0
    2.0577   14.3989   -6.4636 H   0  0  0  0  0  0  0  0  0  0  0  0
    0.4303   13.7211   -6.8866 H   0  0  0  0  0  0  0  0  0  0  0  0
    0.3880   16.3787   -6.7341 H   0  0  0  0  0  0  0  0  0  0  0  0
    3.3037   14.7742   -8.0252 H   0  0  0  0  0  0  0  0  0  0  0  0
    2.5533   14.2091   -9.5563 H   0  0  0  0  0  0  0  0  0  0  0  0
    3.6083   15.6629   -9.5563 H   0  0  0  0  0  0  0  0  0  0  0  0
    1.6913   18.0843   -8.5440 H   0  0  0  0  0  0  0  0  0  0  0  0
    2.5832   17.4313   -9.9599 H   0  0  0  0  0  0  0  0  0  0  0  0
    0.7870   17.4485   -9.9599 H   0  0  0  0  0  0  0  0  0  0  0  0
   -0.1189   12.8312   -4.6493 H   0  0  0  0  0  0  0  0  0  0  0  0
    1.7819   11.5471   -5.4049 H   0  0  0  0  0  0  0  0  0  0  0  0
    2.8472   12.2527   -4.1702 H   0  0  0  0  0  0  0  0  0  0  0  0
    1.7207    9.6281   -4.0891 H   0  0  0  0  0  0  0  0  0  0  0  0
    2.4490   10.4337   -2.7021 H   0  0  0  0  0  0  0  0  0  0  0  0
   -1.6278    9.7957   -3.5141 H   0  0  0  0  0  0  0  0  0  0  0  0
   -1.0051   11.0863   -4.5972 H   0  0  0  0  0  0  0  0  0  0  0  0
   -0.2337    9.4641   -4.5972 H   0  0  0  0  0  0  0  0  0  0  0  0
    0.8510   10.2616   -0.8905 H   0  0  0  0  0  0  0  0  0  0  0  0
    0.8425    8.1554   -2.3757 H   0  0  0  0  0  0  0  0  0  0  0  0
    0.4059    8.0627   -0.5894 H   0  0  0  0  0  0  0  0  0  0  0  0
   -1.0845    6.6390   -2.2296 H   0  0  0  0  0  0  0  0  0  0  0  0
   -2.8713   10.2597   -2.1884 H   0  0  0  0  0  0  0  0  0  0  0  0
   -3.4862    9.0719    0.5876 H   0  0  0  0  0  0  0  0  0  0  0  0
   -3.9973   10.7009   -0.0409 H   0  0  0  0  0  0  0  0  0  0  0  0
   -5.8421    9.0525   -0.1036 H   0  0  0  0  0  0  0  0  0  0  0  0
   -5.3707    9.6467   -1.7439 H   0  0  0  0  0  0  0  0  0  0  0  0
   -5.7307    7.2768   -1.8564 H   0  0  0  0  0  0  0  0  0  0  0  0
   -4.8780    5.9020   -0.3820 H   0  0  0  0  0  0  0  0  0  0  0  0
   -4.6709    9.0104   -3.5239 H   0  0  0  0  0  0  0  0  0  0  0  0
   -3.1708    8.3750   -4.2806 H   0  0  0  0  0  0  0  0  0  0  0  0
   -4.6673    7.3813   -4.2806 H   0  0  0  0  0  0  0  0  0  0  0  0
   -3.3475    5.4300   -1.6719 H   0  0  0  0  0  0  0  0  0  0  0  0
   -4.2764    5.5687   -3.2031 H   0  0  0  0  0  0  0  0  0  0  0  0
   -2.4999    5.8344   -3.2031 H   0  0  0  0  0  0  0  0  0  0  0  0
   -1.5593   10.8046    1.3784 H   0  0  0  0  0  0  0  0  0  0  0  0
   -1.5896    9.0565    0.9662 H   0  0  0  0  0  0  0  0  0  0  0  0
   -0.0327    9.9523    0.9662 H   0  0  0  0  0  0  0  0  0  0  0  0
   -2.6097   12.1250   -0.6319 H   0  0  0  0  0  0  0  0  0  0  0  0
   -0.8645   12.3547   -0.0518 H   0  0  0  0  0  0  0  0  0  0  0  0
   -1.8813   12.3708   -2.9067 H   0  0  0  0  0  0  0  0  0  0  0  0
   -1.1709   13.7325   -1.9534 H   0  0  0  0  0  0  0  0  0  0  0  0
    0.8400   12.5190   -0.4838 H   0  0  0  0  0  0  0  0  0  0  0  0
    2.2081   12.1710   -1.5945 H   0  0  0  0  0  0  0  0  0  0  0  0
    1.4423   13.7958   -1.5945 H   0  0  0  0  0  0  0  0  0  0  0  0
  1  2  1  0
  2  3  1  0
  3  4  1  0
  4  5  1  0
  5  6  1  0
  6  7  1  0
  7  8  1  0
  7  9  1  0
  2 10  1  0
 10 11  1  0
 11 12  1  0
 12 13  1  0
 13 14  1  6
 13 15  1  0
 15 16  1  0
 16 17  1  0
 17 18  2  0
 18 19  1  0
 19 20  1  0
 20 21  1  0
 21 22  1  0
 22 23  1  0
 22 24  1  0
 24 25  1  0
 24 26  1  0
 19 27  1  0
 27 28  1  1
 27 29  1  0
 29 30  1  0
 30 31  1  0
 31 32  1  1
  7  5  1  0
 31 10  1  0
 31 13  1  0
 27 15  1  0
 24 18  1  0
  1 33  1  0
  1 34  1  0
  1 35  1  0
  2 36  1  6
  3 37  1  0
  3 38  1  0
  4 39  1  0
  4 40  1  0
  5 41  1  1
  8 42  1  0
  8 43  1  0
  8 44  1  0
  9 45  1  0
  9 46  1  0
  9 47  1  0
 10 48  1  6
 11 49  1  0
 11 50  1  0
 12 51  1  0
 12 52  1  0
 14 53  1  0
 14 54  1  0
 14 55  1  0
 15 56  1  1
 16 57  1  0
 16 58  1  0
 17 59  1  0
 19 60  1  6
 20 61  1  0
 20 62  1  0
 21 63  1  0
 21 64  1  0
 22 65  1  6
 23 66  1  0
 25 67  1  0
 25 68  1  0
 25 69  1  0
 26 70  1  0
 26 71  1  0
 26 72  1  0
 28 73  1  0
 28 74  1  0
 28 75  1  0
 29 76  1  0
 29 77  1  0
 30 78  1  0
 30 79  1  0
 32 80  1  0
 32 81  1  0
 32 82  1  0
M  END
>  <meeko>  (16) 
{"is_sidechain": [false], "intermolecular_energy": 2.731, "internal_energy": -0.839}

$$$$
EPH_relaxed_0001_pdb2pqr_Repair_274_r2_0001_out
     RDKit          3D

 82 86  0  0  0  0  0  0  0  0999 V2000
    3.1260   18.6740   -3.3890 C   0  0  0  0  0  0  0  0  0  0  0  0
    2.0690   18.2640   -2.3600 C   0  0  2  0  0  0  0  0  0  0  0  0
    1.9580   19.2810   -1.2060 C   0  0  0  0  0  0  0  0  0  0  0  0
    2.0460   18.6450    0.1840 C   0  0  0  0  0  0  0  0  0  0  0  0
    2.5280   19.6240    1.2120 C   0  0  2  0  0  0  0  0  0  0  0  0
    3.8150   20.1940    0.9380 O   0  0  0  0  0  0  0  0  0  0  0  0
    3.7230   19.3710    2.1120 C   0  0  0  0  0  0  0  0  0  0  0  0
    4.5090   18.1000    2.0270 C   0  0  0  0  0  0  0  0  0  0  0  0
    3.8270   20.1360    3.3940 C   0  0  0  0  0  0  0  0  0  0  0  0
    2.3910   16.8810   -1.8070 C   0  0  1  0  0  0  0  0  0  0  0  0
    3.1300   16.9400   -0.4440 C   0  0  0  0  0  0  0  0  0  0  0  0
    2.6370   15.7270    0.3850 C   0  0  0  0  0  0  0  0  0  0  0  0
    1.8930   14.8330   -0.6350 C   0  0  1  0  0  0  0  0  0  0  0  0
    3.0180   14.0360   -1.3660 C   0  0  0  0  0  0  0  0  0  0  0  0
    0.7970   13.8830   -0.0520 C   0  0  2  0  0  0  0  0  0  0  0  0
    1.3130   12.8220    0.9370 C   0  0  0  0  0  0  0  0  0  0  0  0
    1.7160   11.5220    0.3250 C   0  0  0  0  0  0  0  0  0  0  0  0
    1.4040   11.1130   -0.9190 C   0  0  0  0  0  0  0  0  0  0  0  0
    0.4860   11.9520   -1.8170 C   0  0  1  0  0  0  0  0  0  0  0  0
   -0.5790   11.0330   -2.4710 C   0  0  0  0  0  0  0  0  0  0  0  0
    0.0430    9.8530   -3.2130 C   0  0  0  0  0  0  0  0  0  0  0  0
    0.9020    9.0100   -2.2740 C   0  0  2  0  0  0  0  0  0  0  0  0
    0.0520    8.3870   -1.3060 O   0  0  0  0  0  0  0  0  0  0  0  0
    2.0040    9.8320   -1.5490 C   0  0  0  0  0  0  0  0  0  0  0  0
    3.0920   10.2540   -2.5670 C   0  0  0  0  0  0  0  0  0  0  0  0
    2.7050    8.8950   -0.5290 C   0  0  0  0  0  0  0  0  0  0  0  0
   -0.1530   13.2420   -1.1430 C   0  0  1  0  0  0  0  0  0  0  0  0
   -1.4760   12.8600   -0.4120 C   0  0  0  0  0  0  0  0  0  0  0  0
   -0.5480   14.2680   -2.2690 C   0  0  0  0  0  0  0  0  0  0  0  0
    0.5420   15.2600   -2.7190 C   0  0  0  0  0  0  0  0  0  0  0  0
    1.1980   15.9380   -1.5120 C   0  0  2  0  0  0  0  0  0  0  0  0
    0.0940   16.7660   -0.7700 C   0  0  0  0  0  0  0  0  0  0  0  0
    4.0290   19.0242   -2.8675 H   0  0  0  0  0  0  0  0  0  0  0  0
    3.3790   17.8088   -4.0194 H   0  0  0  0  0  0  0  0  0  0  0  0
    2.7294   19.4835   -4.0194 H   0  0  0  0  0  0  0  0  0  0  0  0
    1.0970   18.2409   -2.8744 H   0  0  0  0  0  0  0  0  0  0  0  0
    2.7747   20.0110   -1.3064 H   0  0  0  0  0  0  0  0  0  0  0  0
    0.9656   19.7490   -1.2837 H   0  0  0  0  0  0  0  0  0  0  0  0
    1.0483   18.2847    0.4750 H   0  0  0  0  0  0  0  0  0  0  0  0
    2.7663   17.8150    0.1365 H   0  0  0  0  0  0  0  0  0  0  0  0
    1.4974   19.9432    1.4263 H   0  0  0  0  0  0  0  0  0  0  0  0
    4.7325   17.7386    3.0416 H   0  0  0  0  0  0  0  0  0  0  0  0
    3.9222   17.3413    1.4885 H   0  0  0  0  0  0  0  0  0  0  0  0
    5.4499   18.2861    1.4885 H   0  0  0  0  0  0  0  0  0  0  0  0
    3.7328   19.4431    4.2431 H   0  0  0  0  0  0  0  0  0  0  0  0
    4.8023   20.6426    3.4406 H   0  0  0  0  0  0  0  0  0  0  0  0
    3.0224   20.8846    3.4406 H   0  0  0  0  0  0  0  0  0  0  0  0
    2.9878   16.4831   -2.6410 H   0  0  0  0  0  0  0  0  0  0  0  0
    4.2171   16.8758   -0.5995 H   0  0  0  0  0  0  0  0  0  0  0  0
    2.9215   17.8857    0.0776 H   0  0  0  0  0  0  0  0  0  0  0  0
    3.4876   15.1871    0.8266 H   0  0  0  0  0  0  0  0  0  0  0  0
    1.9918   16.0293    1.2230 H   0  0  0  0  0  0  0  0  0  0  0  0
    3.6787   13.5679   -0.6215 H   0  0  0  0  0  0  0  0  0  0  0  0
    2.5649   13.2563   -1.9959 H   0  0  0  0  0  0  0  0  0  0  0  0
    3.6033   14.7220   -1.9959 H   0  0  0  0  0  0  0  0  0  0  0  0
    0.1796   14.5721    0.5429 H   0  0  0  0  0  0  0  0  0  0  0  0
    2.1884   13.2389    1.4565 H   0  0  0  0  0  0  0  0  0  0  0  0
    0.4702   12.5947    1.6063 H   0  0  0  0  0  0  0  0  0  0  0  0
    2.3191   10.8402    0.9427 H   0  0  0  0  0  0  0  0  0  0  0  0
    1.1335   12.3851   -2.5937 H   0  0  0  0  0  0  0  0  0  0  0  0
   -1.2414   10.6447   -1.6833 H   0  0  0  0  0  0  0  0  0  0  0  0
   -1.1337   11.6349   -3.2059 H   0  0  0  0  0  0  0  0  0  0  0  0
   -0.7593    9.2252   -3.6279 H   0  0  0  0  0  0  0  0  0  0  0  0
    0.6822   10.2425   -4.0190 H   0  0  0  0  0  0  0  0  0  0  0  0
    1.4223    8.2596   -2.8874 H   0  0  0  0  0  0  0  0  0  0  0  0
   -0.4120    7.6560   -1.7490 H   0  0  0  0  0  0  0  0  0  0  0  0
    3.9852   10.6005   -2.0265 H   0  0  0  0  0  0  0  0  0  0  0  0
    3.3566    9.3933   -3.1988 H   0  0  0  0  0  0  0  0  0  0  0  0
    2.7070   11.0680   -3.1988 H   0  0  0  0  0  0  0  0  0  0  0  0
    2.4624    9.2193    0.4937 H   0  0  0  0  0  0  0  0  0  0  0  0
    2.3555    7.8628   -0.6790 H   0  0  0  0  0  0  0  0  0  0  0  0
    3.7938    8.9389   -0.6790 H   0  0  0  0  0  0  0  0  0  0  0  0
   -1.3200   12.9051    0.6759 H   0  0  0  0  0  0  0  0  0  0  0  0
   -2.2699   13.5656   -0.6981 H   0  0  0  0  0  0  0  0  0  0  0  0
   -1.7716   11.8398   -0.6981 H   0  0  0  0  0  0  0  0  0  0  0  0
   -0.8569   13.6899   -3.1524 H   0  0  0  0  0  0  0  0  0  0  0  0
   -1.3388   14.8911   -1.8259 H   0  0  0  0  0  0  0  0  0  0  0  0
    1.3105   14.7165   -3.2882 H   0  0  0  0  0  0  0  0  0  0  0  0
    0.0748   16.0342   -3.3454 H   0  0  0  0  0  0  0  0  0  0  0  0
    0.2286   16.6651    0.3171 H   0  0  0  0  0  0  0  0  0  0  0  0
    0.1781   17.8256   -1.0531 H   0  0  0  0  0  0  0  0  0  0  0  0
   -0.8997   16.3886   -1.0531 H   0  0  0  0  0  0  0  0  0  0  0  0
  1  2  1  0
  2  3  1  0
  3  4  1  0
  4  5  1  0
  5  6  1  0
  6  7  1  0
  7  8  1  0
  7  9  1  0
  2 10  1  0
 10 11  1  0
 11 12  1  0
 12 13  1  0
 13 14  1  6
 13 15  1  0
 15 16  1  0
 16 17  1  0
 17 18  2  0
 18 19  1  0
 19 20  1  0
 20 21  1  0
 21 22  1  0
 22 23  1  0
 22 24  1  0
 24 25  1  0
 24 26  1  0
 19 27  1  0
 27 28  1  1
 27 29  1  0
 29 30  1  0
 30 31  1  0
 31 32  1  1
  7  5  1  0
 31 10  1  0
 31 13  1  0
 27 15  1  0
 24 18  1  0
  1 33  1  0
  1 34  1  0
  1 35  1  0
  2 36  1  6
  3 37  1  0
  3 38  1  0
  4 39  1  0
  4 40  1  0
  5 41  1  1
  8 42  1  0
  8 43  1  0
  8 44  1  0
  9 45  1  0
  9 46  1  0
  9 47  1  0
 10 48  1  6
 11 49  1  0
 11 50  1  0
 12 51  1  0
 12 52  1  0
 14 53  1  0
 14 54  1  0
 14 55  1  0
 15 56  1  1
 16 57  1  0
 16 58  1  0
 17 59  1  0
 19 60  1  6
 20 61  1  0
 20 62  1  0
 21 63  1  0
 21 64  1  0
 22 65  1  6
 23 66  1  0
 25 67  1  0
 25 68  1  0
 25 69  1  0
 26 70  1  0
 26 71  1  0
 26 72  1  0
 28 73  1  0
 28 74  1  0
 28 75  1  0
 29 76  1  0
 29 77  1  0
 30 78  1  0
 30 79  1  0
 32 80  1  0
 32 81  1  0
 32 82  1  0
M  END
>  <meeko>  (17) 
{"is_sidechain": [false], "intermolecular_energy": 2.731, "internal_energy": -0.839}

$$$$
EPH_relaxed_0001_pdb2pqr_Repair_274_r2_0001_out
     RDKit          3D

 82 86  0  0  0  0  0  0  0  0999 V2000
   -1.7000   14.8590    0.4430 C   0  0  0  0  0  0  0  0  0  0  0  0
   -0.3470   15.5570    0.2810 C   0  0  2  0  0  0  0  0  0  0  0  0
   -0.3650   16.6040   -0.8500 C   0  0  0  0  0  0  0  0  0  0  0  0
   -0.0010   18.0170   -0.3860 C   0  0  0  0  0  0  0  0  0  0  0  0
    1.4410   18.1170    0.0100 C   0  0  2  0  0  0  0  0  0  0  0  0
    2.1020   19.3110   -0.4300 O   0  0  0  0  0  0  0  0  0  0  0  0
    2.5860   18.0770   -0.9850 C   0  0  0  0  0  0  0  0  0  0  0  0
    2.3400   17.9330   -2.4540 C   0  0  0  0  0  0  0  0  0  0  0  0
    3.9460   17.6890   -0.4940 C   0  0  0  0  0  0  0  0  0  0  0  0
    0.7420   14.5240    0.0170 C   0  0  1  0  0  0  0  0  0  0  0  0
    0.8800   13.4930    1.1690 C   0  0  0  0  0  0  0  0  0  0  0  0
    1.2520   12.1380    0.5150 C   0  0  0  0  0  0  0  0  0  0  0  0
    1.6390   12.4990   -0.9380 C   0  0  1  0  0  0  0  0  0  0  0  0
    3.1140   13.0030   -0.8470 C   0  0  0  0  0  0  0  0  0  0  0  0
    1.4830   11.3610   -1.9990 C   0  0  2  0  0  0  0  0  0  0  0  0
    2.3680   10.1240   -1.7640 C   0  0  0  0  0  0  0  0  0  0  0  0
    3.7090   10.1660   -2.4200 C   0  0  0  0  0  0  0  0  0  0  0  0
    4.0770   11.0190   -3.3940 C   0  0  0  0  0  0  0  0  0  0  0  0
    3.0690   12.0020   -4.0030 C   0  0  1  0  0  0  0  0  0  0  0  0
    3.1840   11.9700   -5.5490 C   0  0  0  0  0  0  0  0  0  0  0  0
    4.6080   12.2200   -6.0350 C   0  0  0  0  0  0  0  0  0  0  0  0
    5.5710   11.1880   -5.4540 C   0  0  2  0  0  0  0  0  0  0  0  0
    5.2520    9.9030   -5.9980 O   0  0  0  0  0  0  0  0  0  0  0  0
    5.5360   11.1220   -3.9020 C   0  0  0  0  0  0  0  0  0  0  0  0
    6.1670   12.4080   -3.3120 C   0  0  0  0  0  0  0  0  0  0  0  0
    6.4460    9.9470   -3.4530 C   0  0  0  0  0  0  0  0  0  0  0  0
    1.5680   11.8570   -3.4990 C   0  0  1  0  0  0  0  0  0  0  0  0
    0.8180   10.7960   -4.3620 C   0  0  0  0  0  0  0  0  0  0  0  0
    0.8170   13.2220   -3.7220 C   0  0  0  0  0  0  0  0  0  0  0  0
    0.9100   14.2600   -2.5870 C   0  0  0  0  0  0  0  0  0  0  0  0
    0.5800   13.6230   -1.2330 C   0  0  2  0  0  0  0  0  0  0  0  0
   -0.9050   13.1270   -1.2880 C   0  0  0  0  0  0  0  0  0  0  0  0
   -1.9265   14.7421    1.5131 H   0  0  0  0  0  0  0  0  0  0  0  0
   -2.4846   15.4649   -0.0338 H   0  0  0  0  0  0  0  0  0  0  0  0
   -1.6610   13.8685   -0.0338 H   0  0  0  0  0  0  0  0  0  0  0  0
   -0.1351   16.0895    1.2199 H   0  0  0  0  0  0  0  0  0  0  0  0
    0.3562   16.2950   -1.6209 H   0  0  0  0  0  0  0  0  0  0  0  0
   -1.3955   16.6465   -1.2325 H   0  0  0  0  0  0  0  0  0  0  0  0
   -0.1948   18.7227   -1.2072 H   0  0  0  0  0  0  0  0  0  0  0  0
   -0.6154   18.2575    0.4942 H   0  0  0  0  0  0  0  0  0  0  0  0
    1.2494   17.5577    0.9376 H   0  0  0  0  0  0  0  0  0  0  0  0
    1.4011   17.3834   -2.6164 H   0  0  0  0  0  0  0  0  0  0  0  0
    2.2653   18.9300   -2.9127 H   0  0  0  0  0  0  0  0  0  0  0  0
    3.1728   17.3798   -2.9127 H   0  0  0  0  0  0  0  0  0  0  0  0
    3.9520   17.6873    0.6060 H   0  0  0  0  0  0  0  0  0  0  0  0
    4.1962   16.6836   -0.8636 H   0  0  0  0  0  0  0  0  0  0  0  0
    4.6890   18.4110   -0.8636 H   0  0  0  0  0  0  0  0  0  0  0  0
    1.6043   15.1948   -0.1113 H   0  0  0  0  0  0  0  0  0  0  0  0
    1.6712   13.8072    1.8656 H   0  0  0  0  0  0  0  0  0  0  0  0
   -0.0565   13.4117    1.7402 H   0  0  0  0  0  0  0  0  0  0  0  0
    2.1006   11.6740    1.0390 H   0  0  0  0  0  0  0  0  0  0  0  0
    0.4258   11.4131    0.5587 H   0  0  0  0  0  0  0  0  0  0  0  0
    3.4032   13.1018    0.2097 H   0  0  0  0  0  0  0  0  0  0  0  0
    3.7794   12.2812   -1.3433 H   0  0  0  0  0  0  0  0  0  0  0  0
    3.1986   13.9810   -1.3433 H   0  0  0  0  0  0  0  0  0  0  0  0
    0.4491   11.0239   -1.8332 H   0  0  0  0  0  0  0  0  0  0  0  0
    2.5228   10.0176   -0.6802 H   0  0  0  0  0  0  0  0  0  0  0  0
    1.8334    9.2764   -2.2175 H   0  0  0  0  0  0  0  0  0  0  0  0
    4.4596    9.4381   -2.0782 H   0  0  0  0  0  0  0  0  0  0  0  0
    3.3504   12.9973   -3.6287 H   0  0  0  0  0  0  0  0  0  0  0  0
    2.8578   10.9822   -5.9065 H   0  0  0  0  0  0  0  0  0  0  0  0
    2.5490   12.7749   -5.9477 H   0  0  0  0  0  0  0  0  0  0  0  0
    4.6304   12.1555   -7.1329 H   0  0  0  0  0  0  0  0  0  0  0  0
    4.9223   13.2203   -5.7024 H   0  0  0  0  0  0  0  0  0  0  0  0
    6.5903   11.4952   -5.7310 H   0  0  0  0  0  0  0  0  0  0  0  0
    4.3580    9.6700   -5.6960 H   0  0  0  0  0  0  0  0  0  0  0  0
    6.1424   12.3578   -2.2134 H   0  0  0  0  0  0  0  0  0  0  0  0
    7.2096   12.4940   -3.6518 H   0  0  0  0  0  0  0  0  0  0  0  0
    5.5970   13.2853   -3.6518 H   0  0  0  0  0  0  0  0  0  0  0  0
    6.4773    9.9066   -2.3542 H   0  0  0  0  0  0  0  0  0  0  0  0
    6.0427    9.0010   -3.8433 H   0  0  0  0  0  0  0  0  0  0  0  0
    7.4628   10.1009   -3.8433 H   0  0  0  0  0  0  0  0  0  0  0  0
    0.3105   10.0780   -3.7010 H   0  0  0  0  0  0  0  0  0  0  0  0
    0.0739   11.2993   -4.9968 H   0  0  0  0  0  0  0  0  0  0  0  0
    1.5407   10.2624   -4.9968 H   0  0  0  0  0  0  0  0  0  0  0  0
    1.2301   13.6845   -4.6305 H   0  0  0  0  0  0  0  0  0  0  0  0
   -0.2489   12.9573   -3.7831 H   0  0  0  0  0  0  0  0  0  0  0  0
    1.9316   14.6666   -2.5540 H   0  0  0  0  0  0  0  0  0  0  0  0
    0.1828   15.0615   -2.7842 H   0  0  0  0  0  0  0  0  0  0  0  0
   -1.2871   12.9994   -0.2644 H   0  0  0  0  0  0  0  0  0  0  0  0
   -1.5198   13.8686   -1.8191 H   0  0  0  0  0  0  0  0  0  0  0  0
   -0.9508   12.1648   -1.8191 H   0  0  0  0  0  0  0  0  0  0  0  0
  1  2  1  0
  2  3  1  0
  3  4  1  0
  4  5  1  0
  5  6  1  0
  6  7  1  0
  7  8  1  0
  7  9  1  0
  2 10  1  0
 10 11  1  0
 11 12  1  0
 12 13  1  0
 13 14  1  1
 13 15  1  0
 15 16  1  0
 16 17  1  0
 17 18  2  0
 18 19  1  0
 19 20  1  0
 20 21  1  0
 21 22  1  0
 22 23  1  0
 22 24  1  0
 24 25  1  0
 24 26  1  0
 19 27  1  0
 27 28  1  6
 27 29  1  0
 29 30  1  0
 30 31  1  0
 31 32  1  6
  7  5  1  0
 31 10  1  0
 31 13  1  0
 27 15  1  0
 24 18  1  0
  1 33  1  0
  1 34  1  0
  1 35  1  0
  2 36  1  1
  3 37  1  0
  3 38  1  0
  4 39  1  0
  4 40  1  0
  5 41  1  1
  8 42  1  0
  8 43  1  0
  8 44  1  0
  9 45  1  0
  9 46  1  0
  9 47  1  0
 10 48  1  6
 11 49  1  0
 11 50  1  0
 12 51  1  0
 12 52  1  0
 14 53  1  0
 14 54  1  0
 14 55  1  0
 15 56  1  6
 16 57  1  0
 16 58  1  0
 17 59  1  0
 19 60  1  1
 20 61  1  0
 20 62  1  0
 21 63  1  0
 21 64  1  0
 22 65  1  1
 23 66  1  0
 25 67  1  0
 25 68  1  0
 25 69  1  0
 26 70  1  0
 26 71  1  0
 26 72  1  0
 28 73  1  0
 28 74  1  0
 28 75  1  0
 29 76  1  0
 29 77  1  0
 30 78  1  0
 30 79  1  0
 32 80  1  0
 32 81  1  0
 32 82  1  0
M  END
>  <meeko>  (18) 
{"is_sidechain": [false], "intermolecular_energy": 2.731, "internal_energy": -0.839}

$$$$
EPH_relaxed_0001_pdb2pqr_Repair_274_r2_0001_out
     RDKit          3D

 82 86  0  0  0  0  0  0  0  0999 V2000
   -0.0720    9.3260   -4.2240 C   0  0  0  0  0  0  0  0  0  0  0  0
    0.1360    9.5400   -2.7220 C   0  0  2  0  0  0  0  0  0  0  0  0
   -0.6200    8.4970   -1.8760 C   0  0  0  0  0  0  0  0  0  0  0  0
   -2.1430    8.5800   -2.0140 C   0  0  0  0  0  0  0  0  0  0  0  0
   -2.7090    7.3510   -2.6580 C   0  0  2  0  0  0  0  0  0  0  0  0
   -3.7340    7.6020   -3.6290 O   0  0  0  0  0  0  0  0  0  0  0  0
   -4.1370    6.8810   -2.4530 C   0  0  0  0  0  0  0  0  0  0  0  0
   -5.0870    7.6320   -1.5740 C   0  0  0  0  0  0  0  0  0  0  0  0
   -4.4610    5.4420   -2.7090 C   0  0  0  0  0  0  0  0  0  0  0  0
   -0.3050   10.9460   -2.3320 C   0  0  1  0  0  0  0  0  0  0  0  0
   -1.5170   10.9440   -1.3610 C   0  0  0  0  0  0  0  0  0  0  0  0
   -1.3220   12.1460   -0.4010 C   0  0  0  0  0  0  0  0  0  0  0  0
   -0.1980   12.9860   -1.0500 C   0  0  1  0  0  0  0  0  0  0  0  0
   -0.9120   13.8240   -2.1570 C   0  0  0  0  0  0  0  0  0  0  0  0
    0.6320   13.8930   -0.0850 C   0  0  2  0  0  0  0  0  0  0  0  0
   -0.1720   14.9920    0.6310 C   0  0  0  0  0  0  0  0  0  0  0  0
   -0.2420   16.3000   -0.0850 C   0  0  0  0  0  0  0  0  0  0  0  0
    0.5470   16.6740   -1.1090 C   0  0  0  0  0  0  0  0  0  0  0  0
    1.6990   15.7780   -1.5840 C   0  0  1  0  0  0  0  0  0  0  0  0
    2.9780   16.6350   -1.7720 C   0  0  0  0  0  0  0  0  0  0  0  0
    2.7510   17.8310   -2.6920 C   0  0  0  0  0  0  0  0  0  0  0  0
    1.6390   18.7290   -2.1560 C   0  0  2  0  0  0  0  0  0  0  0  0
    2.0780   19.3260   -0.9320 O   0  0  0  0  0  0  0  0  0  0  0  0
    0.3020   17.9720   -1.9180 C   0  0  0  0  0  0  0  0  0  0  0  0
   -0.3270   17.5860   -3.2790 C   0  0  0  0  0  0  0  0  0  0  0  0
   -0.6910   18.9580   -1.2450 C   0  0  0  0  0  0  0  0  0  0  0  0
    1.9610   14.4710   -0.7200 C   0  0  1  0  0  0  0  0  0  0  0  0
    2.9160   14.8010    0.4680 C   0  0  0  0  0  0  0  0  0  0  0  0
    2.7100   13.4090   -1.6100 C   0  0  0  0  0  0  0  0  0  0  0  0
    1.8310   12.4630   -2.4500 C   0  0  0  0  0  0  0  0  0  0  0  0
    0.7260   11.8360   -1.5940 C   0  0  2  0  0  0  0  0  0  0  0  0
    1.4140   10.9690   -0.4850 C   0  0  0  0  0  0  0  0  0  0  0  0
   -0.8308    8.5453   -4.3815 H   0  0  0  0  0  0  0  0  0  0  0  0
   -0.4114   10.2655   -4.6847 H   0  0  0  0  0  0  0  0  0  0  0  0
    0.8767    9.0135   -4.6847 H   0  0  0  0  0  0  0  0  0  0  0  0
    1.2093    9.4159   -2.5157 H   0  0  0  0  0  0  0  0  0  0  0  0
   -0.2968    7.4939   -2.1911 H   0  0  0  0  0  0  0  0  0  0  0  0
   -0.3808    8.7030   -0.8223 H   0  0  0  0  0  0  0  0  0  0  0  0
   -2.5859    8.6944   -1.0136 H   0  0  0  0  0  0  0  0  0  0  0  0
   -2.3829    9.4431   -2.6524 H   0  0  0  0  0  0  0  0  0  0  0  0
   -1.7425    6.8327   -2.5731 H   0  0  0  0  0  0  0  0  0  0  0  0
   -4.8419    7.4382   -0.5193 H   0  0  0  0  0  0  0  0  0  0  0  0
   -5.0018    8.7095   -1.7783 H   0  0  0  0  0  0  0  0  0  0  0  0
   -6.1157    7.3003   -1.7783 H   0  0  0  0  0  0  0  0  0  0  0  0
   -4.5793    4.9165   -1.7499 H   0  0  0  0  0  0  0  0  0  0  0  0
   -5.3971    5.3733   -3.2826 H   0  0  0  0  0  0  0  0  0  0  0  0
   -3.6447    4.9788   -3.2826 H   0  0  0  0  0  0  0  0  0  0  0  0
   -0.5110   11.3583   -3.3308 H   0  0  0  0  0  0  0  0  0  0  0  0
   -2.4546   11.0577   -1.9250 H   0  0  0  0  0  0  0  0  0  0  0  0
   -1.5749    9.9978   -0.8030 H   0  0  0  0  0  0  0  0  0  0  0  0
   -2.2487   12.7333   -0.3210 H   0  0  0  0  0  0  0  0  0  0  0  0
   -1.0671   11.8267    0.6203 H   0  0  0  0  0  0  0  0  0  0  0  0
   -1.5566   14.5805   -1.6857 H   0  0  0  0  0  0  0  0  0  0  0  0
   -0.1576   14.3234   -2.7826 H   0  0  0  0  0  0  0  0  0  0  0  0
   -1.5249   13.1585   -2.7826 H   0  0  0  0  0  0  0  0  0  0  0  0
    0.9352   13.1846    0.7000 H   0  0  0  0  0  0  0  0  0  0  0  0
   -1.1997   14.6253    0.7702 H   0  0  0  0  0  0  0  0  0  0  0  0
    0.3569   15.1898    1.5750 H   0  0  0  0  0  0  0  0  0  0  0  0
   -1.0029   17.0189    0.2530 H   0  0  0  0  0  0  0  0  0  0  0  0
    1.3829   15.3632   -2.5525 H   0  0  0  0  0  0  0  0  0  0  0  0
    3.3031   17.0038   -0.7880 H   0  0  0  0  0  0  0  0  0  0  0  0
    3.7426   15.9959   -2.2377 H   0  0  0  0  0  0  0  0  0  0  0  0
    3.6817   18.4132   -2.7616 H   0  0  0  0  0  0  0  0  0  0  0  0
    2.4544   17.4593   -3.6839 H   0  0  0  0  0  0  0  0  0  0  0  0
    1.4352   19.4937   -2.9200 H   0  0  0  0  0  0  0  0  0  0  0  0
    2.5170   18.6350   -0.4080 H   0  0  0  0  0  0  0  0  0  0  0  0
   -1.2530   17.0177   -3.1070 H   0  0  0  0  0  0  0  0  0  0  0  0
   -0.5572   18.4985   -3.8485 H   0  0  0  0  0  0  0  0  0  0  0  0
    0.3823   16.9675   -3.8485 H   0  0  0  0  0  0  0  0  0  0  0  0
   -0.6065   18.8741   -0.1515 H   0  0  0  0  0  0  0  0  0  0  0  0
   -0.4521   19.9865   -1.5534 H   0  0  0  0  0  0  0  0  0  0  0  0
   -1.7178   18.7119   -1.5534 H   0  0  0  0  0  0  0  0  0  0  0  0
    2.3938   14.6206    1.4192 H   0  0  0  0  0  0  0  0  0  0  0  0
    3.8072   14.1587    0.4114 H   0  0  0  0  0  0  0  0  0  0  0  0
    3.2205   15.8565    0.4114 H   0  0  0  0  0  0  0  0  0  0  0  0
    3.3647   13.9578   -2.3029 H   0  0  0  0  0  0  0  0  0  0  0  0
    3.2363   12.7564   -0.8979 H   0  0  0  0  0  0  0  0  0  0  0  0
    1.3707   13.0333   -3.2703 H   0  0  0  0  0  0  0  0  0  0  0  0
    2.4649   11.6575   -2.8491 H   0  0  0  0  0  0  0  0  0  0  0  0
    1.1187   11.3411    0.5071 H   0  0  0  0  0  0  0  0  0  0  0  0
    1.0996    9.9203   -0.5918 H   0  0  0  0  0  0  0  0  0  0  0  0
    2.5067   11.0369   -0.5918 H   0  0  0  0  0  0  0  0  0  0  0  0
  1  2  1  0
  2  3  1  0
  3  4  1  0
  4  5  1  0
  5  6  1  0
  6  7  1  0
  7  8  1  0
  7  9  1  0
  2 10  1  0
 10 11  1  0
 11 12  1  0
 12 13  1  0
 13 14  1  6
 13 15  1  0
 15 16  1  0
 16 17  1  0
 17 18  2  0
 18 19  1  0
 19 20  1  0
 20 21  1  0
 21 22  1  0
 22 23  1  0
 22 24  1  0
 24 25  1  0
 24 26  1  0
 19 27  1  0
 27 28  1  1
 27 29  1  0
 29 30  1  0
 30 31  1  0
 31 32  1  1
  7  5  1  0
 31 10  1  0
 31 13  1  0
 27 15  1  0
 24 18  1  0
  1 33  1  0
  1 34  1  0
  1 35  1  0
  2 36  1  6
  3 37  1  0
  3 38  1  0
  4 39  1  0
  4 40  1  0
  5 41  1  6
  8 42  1  0
  8 43  1  0
  8 44  1  0
  9 45  1  0
  9 46  1  0
  9 47  1  0
 10 48  1  6
 11 49  1  0
 11 50  1  0
 12 51  1  0
 12 52  1  0
 14 53  1  0
 14 54  1  0
 14 55  1  0
 15 56  1  1
 16 57  1  0
 16 58  1  0
 17 59  1  0
 19 60  1  6
 20 61  1  0
 20 62  1  0
 21 63  1  0
 21 64  1  0
 22 65  1  6
 23 66  1  0
 25 67  1  0
 25 68  1  0
 25 69  1  0
 26 70  1  0
 26 71  1  0
 26 72  1  0
 28 73  1  0
 28 74  1  0
 28 75  1  0
 29 76  1  0
 29 77  1  0
 30 78  1  0
 30 79  1  0
 32 80  1  0
 32 81  1  0
 32 82  1  0
M  END
>  <meeko>  (19) 
{"is_sidechain": [false], "intermolecular_energy": 2.731, "internal_energy": -0.839}

$$$$
