EPH_relaxed_0001_pdb2pqr_Repair_241_r2_0001_out
     RDKit          3D

 82 86  0  0  0  0  0  0  0  0999 V2000
   -1.6820    8.5840   -1.8880 C   0  0  0  0  0  0  0  0  0  0  0  0
   -2.0600    9.1030   -0.4980 C   0  0  2  0  0  0  0  0  0  0  0  0
   -3.5550    9.4650   -0.4000 C   0  0  0  0  0  0  0  0  0  0  0  0
   -4.4770    8.2480   -0.2800 C   0  0  0  0  0  0  0  0  0  0  0  0
   -5.1670    7.9450   -1.5760 C   0  0  2  0  0  0  0  0  0  0  0  0
   -6.3570    8.7080   -1.8120 O   0  0  0  0  0  0  0  0  0  0  0  0
   -6.5320    7.2900   -1.6630 C   0  0  0  0  0  0  0  0  0  0  0  0
   -7.2890    6.8960   -0.4330 C   0  0  0  0  0  0  0  0  0  0  0  0
   -6.9110    6.5920   -2.9310 C   0  0  0  0  0  0  0  0  0  0  0  0
   -1.2060   10.3160   -0.1460 C   0  0  1  0  0  0  0  0  0  0  0  0
   -0.1700   10.0140    0.9690 C   0  0  0  0  0  0  0  0  0  0  0  0
    1.0940   10.8490    0.6440 C   0  0  0  0  0  0  0  0  0  0  0  0
    0.6340   11.8460   -0.4460 C   0  0  1  0  0  0  0  0  0  0  0  0
   -0.0770   12.9950    0.3360 C   0  0  0  0  0  0  0  0  0  0  0  0
    1.7480   12.3970   -1.3940 C   0  0  2  0  0  0  0  0  0  0  0  0
    2.8490   13.2180   -0.7000 C   0  0  0  0  0  0  0  0  0  0  0  0
    2.5900   14.6860   -0.6120 C   0  0  0  0  0  0  0  0  0  0  0  0
    1.6620   15.3600   -1.3160 C   0  0  0  0  0  0  0  0  0  0  0  0
    0.8180   14.6540   -2.3850 C   0  0  1  0  0  0  0  0  0  0  0  0
    0.7830   15.5190   -3.6720 C   0  0  0  0  0  0  0  0  0  0  0  0
    0.3120   16.9460   -3.4050 C   0  0  0  0  0  0  0  0  0  0  0  0
    1.2100   17.6340   -2.3800 C   0  0  2  0  0  0  0  0  0  0  0  0
    2.5100   17.8120   -2.9520 O   0  0  0  0  0  0  0  0  0  0  0  0
    1.3300   16.8480   -1.0450 C   0  0  0  0  0  0  0  0  0  0  0  0
   -0.0140   16.9150   -0.2790 C   0  0  0  0  0  0  0  0  0  0  0  0
    2.3730   17.5760   -0.1550 C   0  0  0  0  0  0  0  0  0  0  0  0
    1.1970   13.1390   -2.6790 C   0  0  1  0  0  0  0  0  0  0  0  0
    2.3280   13.0710   -3.7510 C   0  0  0  0  0  0  0  0  0  0  0  0
   -0.0500   12.4080   -3.3030 C   0  0  0  0  0  0  0  0  0  0  0  0
   -1.0530   11.7810   -2.3160 C   0  0  0  0  0  0  0  0  0  0  0  0
   -0.3320   10.9220   -1.2730 C   0  0  2  0  0  0  0  0  0  0  0  0
    0.3740    9.7450   -2.0280 C   0  0  0  0  0  0  0  0  0  0  0  0
   -1.0372    7.6987   -1.7860 H   0  0  0  0  0  0  0  0  0  0  0  0
   -2.5946    8.3115   -2.4383 H   0  0  0  0  0  0  0  0  0  0  0  0
   -1.1426    9.3690   -2.4383 H   0  0  0  0  0  0  0  0  0  0  0  0
   -1.8690    8.2926    0.2209 H   0  0  0  0  0  0  0  0  0  0  0  0
   -3.7011   10.1000    0.4863 H   0  0  0  0  0  0  0  0  0  0  0  0
   -3.8228    9.9800   -1.3344 H   0  0  0  0  0  0  0  0  0  0  0  0
   -3.8778    7.3748    0.0175 H   0  0  0  0  0  0  0  0  0  0  0  0
   -5.2461    8.4735    0.4734 H   0  0  0  0  0  0  0  0  0  0  0  0
   -4.2069    7.7163   -2.0616 H   0  0  0  0  0  0  0  0  0  0  0  0
   -6.7186    7.1929    0.4594 H   0  0  0  0  0  0  0  0  0  0  0  0
   -8.2670    7.3995   -0.4273 H   0  0  0  0  0  0  0  0  0  0  0  0
   -7.4377    5.8061   -0.4273 H   0  0  0  0  0  0  0  0  0  0  0  0
   -7.4233    5.6486   -2.6912 H   0  0  0  0  0  0  0  0  0  0  0  0
   -7.5835    7.2357   -3.5170 H   0  0  0  0  0  0  0  0  0  0  0  0
   -6.0049    6.3786   -3.5170 H   0  0  0  0  0  0  0  0  0  0  0  0
   -1.9992   11.0237    0.1370 H   0  0  0  0  0  0  0  0  0  0  0  0
   -0.5739   10.3047    1.9500 H   0  0  0  0  0  0  0  0  0  0  0  0
    0.0657    8.9403    1.0083 H   0  0  0  0  0  0  0  0  0  0  0  0
    1.4452   11.3856    1.5377 H   0  0  0  0  0  0  0  0  0  0  0  0
    1.9331   10.2219    0.3082 H   0  0  0  0  0  0  0  0  0  0  0  0
    0.0294   12.8231    1.4173 H   0  0  0  0  0  0  0  0  0  0  0  0
    0.3831   13.9583    0.0709 H   0  0  0  0  0  0  0  0  0  0  0  0
   -1.1444   13.0131    0.0709 H   0  0  0  0  0  0  0  0  0  0  0  0
    2.2376   11.4756   -1.7423 H   0  0  0  0  0  0  0  0  0  0  0  0
    2.9672   12.8317    0.3231 H   0  0  0  0  0  0  0  0  0  0  0  0
    3.7502   13.1045   -1.3205 H   0  0  0  0  0  0  0  0  0  0  0  0
    3.2103   15.2656    0.0875 H   0  0  0  0  0  0  0  0  0  0  0  0
   -0.1949   14.5687   -1.9646 H   0  0  0  0  0  0  0  0  0  0  0  0
    1.7958   15.5561   -4.0997 H   0  0  0  0  0  0  0  0  0  0  0  0
    0.0671   15.0554   -4.3667 H   0  0  0  0  0  0  0  0  0  0  0  0
    0.3375   17.5155   -4.3458 H   0  0  0  0  0  0  0  0  0  0  0  0
   -0.7123   16.9088   -3.0056 H   0  0  0  0  0  0  0  0  0  0  0  0
    0.7482   18.6015   -2.1336 H   0  0  0  0  0  0  0  0  0  0  0  0
    3.0010   18.4270   -2.3820 H   0  0  0  0  0  0  0  0  0  0  0  0
    0.1802   16.9053    0.8037 H   0  0  0  0  0  0  0  0  0  0  0  0
   -0.5438   17.8407   -0.5483 H   0  0  0  0  0  0  0  0  0  0  0  0
   -0.6332   16.0466   -0.5483 H   0  0  0  0  0  0  0  0  0  0  0  0
    2.1318   17.4076    0.9049 H   0  0  0  0  0  0  0  0  0  0  0  0
    3.3772   17.1816   -0.3697 H   0  0  0  0  0  0  0  0  0  0  0  0
    2.3491   18.6546   -0.3697 H   0  0  0  0  0  0  0  0  0  0  0  0
    3.3053   13.0122   -3.2496 H   0  0  0  0  0  0  0  0  0  0  0  0
    2.1842   12.1799   -4.3797 H   0  0  0  0  0  0  0  0  0  0  0  0
    2.2920   13.9729   -4.3797 H   0  0  0  0  0  0  0  0  0  0  0  0
   -0.5970   13.1435   -3.9112 H   0  0  0  0  0  0  0  0  0  0  0  0
    0.3659   11.5608   -3.8681 H   0  0  0  0  0  0  0  0  0  0  0  0
   -1.6028   12.5839   -1.8030 H   0  0  0  0  0  0  0  0  0  0  0  0
   -1.7458   11.1395   -2.8803 H   0  0  0  0  0  0  0  0  0  0  0  0
    0.7964    9.0408   -1.2960 H   0  0  0  0  0  0  0  0  0  0  0  0
   -0.3595    9.2218   -2.6591 H   0  0  0  0  0  0  0  0  0  0  0  0
    1.1809   10.1458   -2.6591 H   0  0  0  0  0  0  0  0  0  0  0  0
  1  2  1  0
  2  3  1  0
  3  4  1  0
  4  5  1  0
  5  6  1  0
  6  7  1  0
  7  8  1  0
  7  9  1  0
  2 10  1  0
 10 11  1  0
 11 12  1  0
 12 13  1  0
 13 14  1  1
 13 15  1  0
 15 16  1  0
 16 17  1  0
 17 18  2  0
 18 19  1  0
 19 20  1  0
 20 21  1  0
 21 22  1  0
 22 23  1  0
 22 24  1  0
 24 25  1  0
 24 26  1  0
 19 27  1  0
 27 28  1  6
 27 29  1  0
 29 30  1  0
 30 31  1  0
 31 32  1  6
  7  5  1  0
 31 10  1  0
 31 13  1  0
 27 15  1  0
 24 18  1  0
  1 33  1  0
  1 34  1  0
  1 35  1  0
  2 36  1  1
  3 37  1  0
  3 38  1  0
  4 39  1  0
  4 40  1  0
  5 41  1  6
  8 42  1  0
  8 43  1  0
  8 44  1  0
  9 45  1  0
  9 46  1  0
  9 47  1  0
 10 48  1  1
 11 49  1  0
 11 50  1  0
 12 51  1  0
 12 52  1  0
 14 53  1  0
 14 54  1  0
 14 55  1  0
 15 56  1  6
 16 57  1  0
 16 58  1  0
 17 59  1  0
 19 60  1  1
 20 61  1  0
 20 62  1  0
 21 63  1  0
 21 64  1  0
 22 65  1  1
 23 66  1  0
 25 67  1  0
 25 68  1  0
 25 69  1  0
 26 70  1  0
 26 71  1  0
 26 72  1  0
 28 73  1  0
 28 74  1  0
 28 75  1  0
 29 76  1  0
 29 77  1  0
 30 78  1  0
 30 79  1  0
 32 80  1  0
 32 81  1  0
 32 82  1  0
M  END
>  <meeko>  (1) 
{"is_sidechain": [false], "intermolecular_energy": 2.731, "internal_energy": -0.839}

$$$$
EPH_relaxed_0001_pdb2pqr_Repair_241_r2_0001_out
     RDKit          3D

 82 86  0  0  0  0  0  0  0  0999 V2000
    4.2020   17.5860   -0.6190 C   0  0  0  0  0  0  0  0  0  0  0  0
    2.8450   18.1470   -0.1840 C   0  0  2  0  0  0  0  0  0  0  0  0
    2.9140   18.8260    1.1990 C   0  0  0  0  0  0  0  0  0  0  0  0
    4.2780   18.6950    1.8810 C   0  0  0  0  0  0  0  0  0  0  0  0
    4.2700   19.2950    3.2550 C   0  0  2  0  0  0  0  0  0  0  0  0
    5.3540   20.1940    3.5220 O   0  0  0  0  0  0  0  0  0  0  0  0
    5.3210   18.9910    4.3060 C   0  0  0  0  0  0  0  0  0  0  0  0
    6.4540   18.0530    4.0290 C   0  0  0  0  0  0  0  0  0  0  0  0
    4.9800   19.2200    5.7460 C   0  0  0  0  0  0  0  0  0  0  0  0
    1.8040   17.0340   -0.1670 C   0  0  1  0  0  0  0  0  0  0  0  0
    0.3720   17.5510   -0.4690 C   0  0  0  0  0  0  0  0  0  0  0  0
   -0.3470   16.4340   -1.2690 C   0  0  0  0  0  0  0  0  0  0  0  0
    0.5650   15.1950   -1.1140 C   0  0  1  0  0  0  0  0  0  0  0  0
    0.2030   14.6020    0.2830 C   0  0  0  0  0  0  0  0  0  0  0  0
    0.4640   14.1170   -2.2430 C   0  0  2  0  0  0  0  0  0  0  0  0
   -0.9140   13.4460   -2.3820 C   0  0  0  0  0  0  0  0  0  0  0  0
   -1.1040   12.2080   -1.5700 C   0  0  0  0  0  0  0  0  0  0  0  0
   -0.1220   11.4970   -0.9840 C   0  0  0  0  0  0  0  0  0  0  0  0
    1.3520   11.8700   -1.1930 C   0  0  1  0  0  0  0  0  0  0  0  0
    2.1690   10.5910   -1.5150 C   0  0  0  0  0  0  0  0  0  0  0  0
    1.9860    9.5000   -0.4640 C   0  0  0  0  0  0  0  0  0  0  0  0
    0.5150    9.1160   -0.3270 C   0  0  2  0  0  0  0  0  0  0  0  0
    0.0880    8.4880   -1.5390 O   0  0  0  0  0  0  0  0  0  0  0  0
   -0.4080   10.3270   -0.0120 C   0  0  0  0  0  0  0  0  0  0  0  0
   -0.1450   10.8190    1.4330 C   0  0  0  0  0  0  0  0  0  0  0  0
   -1.8770    9.8270   -0.0390 C   0  0  0  0  0  0  0  0  0  0  0  0
    1.6290   13.0470   -2.2240 C   0  0  1  0  0  0  0  0  0  0  0  0
    1.7310   12.4750   -3.6710 C   0  0  0  0  0  0  0  0  0  0  0  0
    3.0290   13.6930   -1.9020 C   0  0  0  0  0  0  0  0  0  0  0  0
    3.0470   14.8340   -0.8670 C   0  0  0  0  0  0  0  0  0  0  0  0
    1.9770   15.8820   -1.1880 C   0  0  2  0  0  0  0  0  0  0  0  0
    2.3280   16.5120   -2.5790 C   0  0  0  0  0  0  0  0  0  0  0  0
    4.7991   17.3391    0.2712 H   0  0  0  0  0  0  0  0  0  0  0  0
    4.0476   16.6779   -1.2203 H   0  0  0  0  0  0  0  0  0  0  0  0
    4.7339   18.3380   -1.2203 H   0  0  0  0  0  0  0  0  0  0  0  0
    2.5547   18.9160   -0.9150 H   0  0  0  0  0  0  0  0  0  0  0  0
    2.6903   19.8955    1.0724 H   0  0  0  0  0  0  0  0  0  0  0  0
    2.1819   18.3177    1.8437 H   0  0  0  0  0  0  0  0  0  0  0  0
    4.5368   17.6287    1.9590 H   0  0  0  0  0  0  0  0  0  0  0  0
    5.0186   19.2366    1.2742 H   0  0  0  0  0  0  0  0  0  0  0  0
    3.1705   19.2749    3.2833 H   0  0  0  0  0  0  0  0  0  0  0  0
    6.8794   17.7008    4.9803 H   0  0  0  0  0  0  0  0  0  0  0  0
    6.0849   17.1926    3.4516 H   0  0  0  0  0  0  0  0  0  0  0  0
    7.2304   18.5762    3.4516 H   0  0  0  0  0  0  0  0  0  0  0  0
    5.7244   18.7201    6.3831 H   0  0  0  0  0  0  0  0  0  0  0  0
    4.9833   20.2997    5.9564 H   0  0  0  0  0  0  0  0  0  0  0  0
    3.9818   18.8085    5.9564 H   0  0  0  0  0  0  0  0  0  0  0  0
    1.9551   16.6562    0.8550 H   0  0  0  0  0  0  0  0  0  0  0  0
   -0.1649   17.7499    0.4702 H   0  0  0  0  0  0  0  0  0  0  0  0
    0.4034   18.4896   -1.0418 H   0  0  0  0  0  0  0  0  0  0  0  0
   -1.3447   16.2368   -0.8498 H   0  0  0  0  0  0  0  0  0  0  0  0
   -0.5018   16.7090   -2.3228 H   0  0  0  0  0  0  0  0  0  0  0  0
    0.6018   15.2552    1.0731 H   0  0  0  0  0  0  0  0  0  0  0  0
   -0.8906   14.5343    0.3804 H   0  0  0  0  0  0  0  0  0  0  0  0
    0.6426   13.5984    0.3804 H   0  0  0  0  0  0  0  0  0  0  0  0
    0.5978   14.7170   -3.1552 H   0  0  0  0  0  0  0  0  0  0  0  0
   -1.6794   14.1743   -2.0758 H   0  0  0  0  0  0  0  0  0  0  0  0
   -0.9974   13.1362   -3.4342 H   0  0  0  0  0  0  0  0  0  0  0  0
   -2.1343   11.8455   -1.4391 H   0  0  0  0  0  0  0  0  0  0  0  0
    1.6949   12.3018   -0.2412 H   0  0  0  0  0  0  0  0  0  0  0  0
    1.8423   10.1999   -2.4898 H   0  0  0  0  0  0  0  0  0  0  0  0
    3.2333   10.8686   -1.5264 H   0  0  0  0  0  0  0  0  0  0  0  0
    2.5635    8.6125   -0.7620 H   0  0  0  0  0  0  0  0  0  0  0  0
    2.3408    9.8823    0.5045 H   0  0  0  0  0  0  0  0  0  0  0  0
    0.4318    8.4282    0.5274 H   0  0  0  0  0  0  0  0  0  0  0  0
   -0.0210    9.1840   -2.2090 H   0  0  0  0  0  0  0  0  0  0  0  0
   -0.5388   10.0822    2.1486 H   0  0  0  0  0  0  0  0  0  0  0  0
    0.9374   10.9387    1.5883 H   0  0  0  0  0  0  0  0  0  0  0  0
   -0.6468   11.7855    1.5883 H   0  0  0  0  0  0  0  0  0  0  0  0
   -2.2411    9.7031    0.9916 H   0  0  0  0  0  0  0  0  0  0  0  0
   -2.5049   10.5620   -0.5638 H   0  0  0  0  0  0  0  0  0  0  0  0
   -1.9261    8.8615   -0.5638 H   0  0  0  0  0  0  0  0  0  0  0  0
    1.9239   11.3930   -3.6248 H   0  0  0  0  0  0  0  0  0  0  0  0
    0.7863   12.6566   -4.2045 H   0  0  0  0  0  0  0  0  0  0  0  0
    2.5547   12.9719   -4.2045 H   0  0  0  0  0  0  0  0  0  0  0  0
    3.6858   12.8940   -1.5276 H   0  0  0  0  0  0  0  0  0  0  0  0
    3.3560   14.1552   -2.8451 H   0  0  0  0  0  0  0  0  0  0  0  0
    2.8536   14.4166    0.1322 H   0  0  0  0  0  0  0  0  0  0  0  0
    4.0337   15.3194   -0.8970 H   0  0  0  0  0  0  0  0  0  0  0  0
    2.8582   17.4637   -2.4272 H   0  0  0  0  0  0  0  0  0  0  0  0
    2.9707   15.8202   -3.1432 H   0  0  0  0  0  0  0  0  0  0  0  0
    1.4015   16.6944   -3.1432 H   0  0  0  0  0  0  0  0  0  0  0  0
  1  2  1  0
  2  3  1  0
  3  4  1  0
  4  5  1  0
  5  6  1  0
  6  7  1  0
  7  8  1  0
  7  9  1  0
  2 10  1  0
 10 11  1  0
 11 12  1  0
 12 13  1  0
 13 14  1  1
 13 15  1  0
 15 16  1  0
 16 17  1  0
 17 18  2  0
 18 19  1  0
 19 20  1  0
 20 21  1  0
 21 22  1  0
 22 23  1  0
 22 24  1  0
 24 25  1  0
 24 26  1  0
 19 27  1  0
 27 28  1  6
 27 29  1  0
 29 30  1  0
 30 31  1  0
 31 32  1  6
  7  5  1  0
 31 10  1  0
 31 13  1  0
 27 15  1  0
 24 18  1  0
  1 33  1  0
  1 34  1  0
  1 35  1  0
  2 36  1  6
  3 37  1  0
  3 38  1  0
  4 39  1  0
  4 40  1  0
  5 41  1  1
  8 42  1  0
  8 43  1  0
  8 44  1  0
  9 45  1  0
  9 46  1  0
  9 47  1  0
 10 48  1  1
 11 49  1  0
 11 50  1  0
 12 51  1  0
 12 52  1  0
 14 53  1  0
 14 54  1  0
 14 55  1  0
 15 56  1  6
 16 57  1  0
 16 58  1  0
 17 59  1  0
 19 60  1  1
 20 61  1  0
 20 62  1  0
 21 63  1  0
 21 64  1  0
 22 65  1  1
 23 66  1  0
 25 67  1  0
 25 68  1  0
 25 69  1  0
 26 70  1  0
 26 71  1  0
 26 72  1  0
 28 73  1  0
 28 74  1  0
 28 75  1  0
 29 76  1  0
 29 77  1  0
 30 78  1  0
 30 79  1  0
 32 80  1  0
 32 81  1  0
 32 82  1  0
M  END
>  <meeko>  (2) 
{"is_sidechain": [false], "intermolecular_energy": 2.731, "internal_energy": -0.839}

$$$$
EPH_relaxed_0001_pdb2pqr_Repair_241_r2_0001_out
     RDKit          3D

 82 86  0  0  0  0  0  0  0  0999 V2000
    2.3350   17.9790   -2.7460 C   0  0  0  0  0  0  0  0  0  0  0  0
    1.0350   17.6110   -2.0260 C   0  0  2  0  0  0  0  0  0  0  0  0
    1.1770   17.6910   -0.4930 C   0  0  0  0  0  0  0  0  0  0  0  0
    0.8660   19.0760    0.0830 C   0  0  0  0  0  0  0  0  0  0  0  0
   -0.5610   19.1820    0.5290 C   0  0  2  0  0  0  0  0  0  0  0  0
   -1.4570   18.2590   -0.1040 O   0  0  0  0  0  0  0  0  0  0  0  0
   -1.6870   19.6520   -0.3730 C   0  0  0  0  0  0  0  0  0  0  0  0
   -1.4350   20.0470   -1.7940 C   0  0  0  0  0  0  0  0  0  0  0  0
   -2.9330   20.1900    0.2590 C   0  0  0  0  0  0  0  0  0  0  0  0
    0.5920   16.2110   -2.4350 C   0  0  1  0  0  0  0  0  0  0  0  0
    0.6720   15.9840   -3.9690 C   0  0  0  0  0  0  0  0  0  0  0  0
    1.0800   14.5040   -4.1810 C   0  0  0  0  0  0  0  0  0  0  0  0
    0.8990   13.8460   -2.7920 C   0  0  1  0  0  0  0  0  0  0  0  0
   -0.6280   13.5410   -2.6890 C   0  0  0  0  0  0  0  0  0  0  0  0
    1.7620   12.5730   -2.5130 C   0  0  2  0  0  0  0  0  0  0  0  0
    1.4780   11.3760   -3.4370 C   0  0  0  0  0  0  0  0  0  0  0  0
    0.4310   10.4300   -2.9510 C   0  0  0  0  0  0  0  0  0  0  0  0
   -0.0520   10.3740   -1.6960 C   0  0  0  0  0  0  0  0  0  0  0  0
    0.5310   11.2610   -0.5880 C   0  0  1  0  0  0  0  0  0  0  0  0
    0.7790   10.4050    0.6820 C   0  0  0  0  0  0  0  0  0  0  0  0
   -0.4680    9.6530    1.1330 C   0  0  0  0  0  0  0  0  0  0  0  0
   -0.9840    8.7390    0.0250 C   0  0  2  0  0  0  0  0  0  0  0  0
   -0.0280    7.6980   -0.1970 O   0  0  0  0  0  0  0  0  0  0  0  0
   -1.2610    9.4880   -1.3080 C   0  0  0  0  0  0  0  0  0  0  0  0
   -2.5010   10.4020   -1.1440 C   0  0  0  0  0  0  0  0  0  0  0  0
   -1.6400    8.4310   -2.3800 C   0  0  0  0  0  0  0  0  0  0  0  0
    1.7960   12.1340   -0.9930 C   0  0  1  0  0  0  0  0  0  0  0  0
    3.1010   11.3020   -0.7990 C   0  0  0  0  0  0  0  0  0  0  0  0
    1.9050   13.3650   -0.0170 C   0  0  0  0  0  0  0  0  0  0  0  0
    1.1240   14.6340   -0.4100 C   0  0  0  0  0  0  0  0  0  0  0  0
    1.3970   15.0160   -1.8670 C   0  0  2  0  0  0  0  0  0  0  0  0
    2.9230   15.3500   -1.9970 C   0  0  0  0  0  0  0  0  0  0  0  0
    3.1156   18.2000   -2.0032 H   0  0  0  0  0  0  0  0  0  0  0  0
    2.6563   17.1365   -3.3761 H   0  0  0  0  0  0  0  0  0  0  0  0
    2.1671   18.8649   -3.3761 H   0  0  0  0  0  0  0  0  0  0  0  0
    0.2724   18.3449   -2.3258 H   0  0  0  0  0  0  0  0  0  0  0  0
    0.4856   16.9641   -0.0418 H   0  0  0  0  0  0  0  0  0  0  0  0
    2.2288   17.4731   -0.2559 H   0  0  0  0  0  0  0  0  0  0  0  0
    1.5238   19.2596    0.9453 H   0  0  0  0  0  0  0  0  0  0  0  0
    1.0352   19.8224   -0.7071 H   0  0  0  0  0  0  0  0  0  0  0  0
   -0.2471   19.4882    1.5378 H   0  0  0  0  0  0  0  0  0  0  0  0
   -0.8435   20.9741   -1.8175 H   0  0  0  0  0  0  0  0  0  0  0  0
   -0.8809   19.2456   -2.3046 H   0  0  0  0  0  0  0  0  0  0  0  0
   -2.3953   20.2117   -2.3046 H   0  0  0  0  0  0  0  0  0  0  0  0
   -2.8362   20.1482    1.3539 H   0  0  0  0  0  0  0  0  0  0  0  0
   -3.0831   21.2331   -0.0563 H   0  0  0  0  0  0  0  0  0  0  0  0
   -3.7952   19.5840   -0.0563 H   0  0  0  0  0  0  0  0  0  0  0  0
   -0.4260   16.2102   -2.0182 H   0  0  0  0  0  0  0  0  0  0  0  0
   -0.3069   16.1772   -4.4321 H   0  0  0  0  0  0  0  0  0  0  0  0
    1.4015   16.6651   -4.4316 H   0  0  0  0  0  0  0  0  0  0  0  0
    0.4279   14.0243   -4.9258 H   0  0  0  0  0  0  0  0  0  0  0  0
    2.1084   14.4049   -4.5586 H   0  0  0  0  0  0  0  0  0  0  0  0
   -0.9197   13.4827   -1.6300 H   0  0  0  0  0  0  0  0  0  0  0  0
   -1.1963   14.3434   -3.1822 H   0  0  0  0  0  0  0  0  0  0  0  0
   -0.8444   12.5819   -3.1822 H   0  0  0  0  0  0  0  0  0  0  0  0
    2.7755   12.9145   -2.7701 H   0  0  0  0  0  0  0  0  0  0  0  0
    1.1549   11.7687   -4.4124 H   0  0  0  0  0  0  0  0  0  0  0  0
    2.4129   10.7981   -3.4825 H   0  0  0  0  0  0  0  0  0  0  0  0
    0.0188    9.7177   -3.6809 H   0  0  0  0  0  0  0  0  0  0  0  0
   -0.2294   12.0278   -0.3788 H   0  0  0  0  0  0  0  0  0  0  0  0
    1.5723    9.6744    0.4654 H   0  0  0  0  0  0  0  0  0  0  0  0
    1.0686   11.0884    1.4939 H   0  0  0  0  0  0  0  0  0  0  0  0
   -0.2221    9.0449    2.0160 H   0  0  0  0  0  0  0  0  0  0  0  0
   -1.2511   10.3859    1.3769 H   0  0  0  0  0  0  0  0  0  0  0  0
   -1.9480    8.3277    0.3591 H   0  0  0  0  0  0  0  0  0  0  0  0
    0.5080    7.9510   -0.9680 H   0  0  0  0  0  0  0  0  0  0  0  0
   -2.7061   10.5532   -0.0739 H   0  0  0  0  0  0  0  0  0  0  0  0
   -2.3058   11.3739   -1.6208 H   0  0  0  0  0  0  0  0  0  0  0  0
   -3.3716    9.9279   -1.6208 H   0  0  0  0  0  0  0  0  0  0  0  0
   -1.9712    7.5072   -1.8831 H   0  0  0  0  0  0  0  0  0  0  0  0
   -2.4541    8.8215   -3.0083 H   0  0  0  0  0  0  0  0  0  0  0  0
   -0.7632    8.2153   -3.0083 H   0  0  0  0  0  0  0  0  0  0  0  0
    3.2990   11.1758    0.2756 H   0  0  0  0  0  0  0  0  0  0  0  0
    2.9793   10.3144   -1.2679 H   0  0  0  0  0  0  0  0  0  0  0  0
    3.9450   11.8291   -1.2679 H   0  0  0  0  0  0  0  0  0  0  0  0
    1.5400   13.0414    0.9689 H   0  0  0  0  0  0  0  0  0  0  0  0
    2.9645   13.6595   -0.0421 H   0  0  0  0  0  0  0  0  0  0  0  0
    0.0474   14.4479   -0.2824 H   0  0  0  0  0  0  0  0  0  0  0  0
    1.4510   15.4615    0.2368 H   0  0  0  0  0  0  0  0  0  0  0  0
    3.3640   15.4465   -0.9939 H   0  0  0  0  0  0  0  0  0  0  0  0
    3.4300   14.5416   -2.5442 H   0  0  0  0  0  0  0  0  0  0  0  0
    3.0459   16.2963   -2.5442 H   0  0  0  0  0  0  0  0  0  0  0  0
  1  2  1  0
  2  3  1  0
  3  4  1  0
  4  5  1  0
  5  6  1  0
  6  7  1  0
  7  8  1  0
  7  9  1  0
  2 10  1  0
 10 11  1  0
 11 12  1  0
 12 13  1  0
 13 14  1  1
 13 15  1  0
 15 16  1  0
 16 17  1  0
 17 18  2  0
 18 19  1  0
 19 20  1  0
 20 21  1  0
 21 22  1  0
 22 23  1  0
 22 24  1  0
 24 25  1  0
 24 26  1  0
 19 27  1  0
 27 28  1  6
 27 29  1  0
 29 30  1  0
 30 31  1  0
 31 32  1  1
  7  5  1  0
 31 10  1  0
 31 13  1  0
 27 15  1  0
 24 18  1  0
  1 33  1  0
  1 34  1  0
  1 35  1  0
  2 36  1  6
  3 37  1  0
  3 38  1  0
  4 39  1  0
  4 40  1  0
  5 41  1  1
  8 42  1  0
  8 43  1  0
  8 44  1  0
  9 45  1  0
  9 46  1  0
  9 47  1  0
 10 48  1  1
 11 49  1  0
 11 50  1  0
 12 51  1  0
 12 52  1  0
 14 53  1  0
 14 54  1  0
 14 55  1  0
 15 56  1  6
 16 57  1  0
 16 58  1  0
 17 59  1  0
 19 60  1  1
 20 61  1  0
 20 62  1  0
 21 63  1  0
 21 64  1  0
 22 65  1  1
 23 66  1  0
 25 67  1  0
 25 68  1  0
 25 69  1  0
 26 70  1  0
 26 71  1  0
 26 72  1  0
 28 73  1  0
 28 74  1  0
 28 75  1  0
 29 76  1  0
 29 77  1  0
 30 78  1  0
 30 79  1  0
 32 80  1  0
 32 81  1  0
 32 82  1  0
M  END
>  <meeko>  (3) 
{"is_sidechain": [false], "intermolecular_energy": 2.731, "internal_energy": -0.839}

$$$$
EPH_relaxed_0001_pdb2pqr_Repair_241_r2_0001_out
     RDKit          3D

 82 86  0  0  0  0  0  0  0  0999 V2000
    0.3950   18.4180   -0.0530 C   0  0  0  0  0  0  0  0  0  0  0  0
    1.4840   17.3610   -0.2600 C   0  0  2  0  0  0  0  0  0  0  0  0
    2.7000   17.9230   -1.0220 C   0  0  0  0  0  0  0  0  0  0  0  0
    3.9350   18.1350   -0.1410 C   0  0  0  0  0  0  0  0  0  0  0  0
    3.5620   18.6100    1.2300 C   0  0  2  0  0  0  0  0  0  0  0  0
    3.8000   20.0040    1.4660 O   0  0  0  0  0  0  0  0  0  0  0  0
    4.5740   19.0860    2.2550 C   0  0  0  0  0  0  0  0  0  0  0  0
    6.0400   19.1100    1.9510 C   0  0  0  0  0  0  0  0  0  0  0  0
    4.1930   19.0640    3.7020 C   0  0  0  0  0  0  0  0  0  0  0  0
    0.9090   16.1630   -1.0060 C   0  0  1  0  0  0  0  0  0  0  0  0
    0.7780   16.4160   -2.5320 C   0  0  0  0  0  0  0  0  0  0  0  0
    1.0680   15.0650   -3.2350 C   0  0  0  0  0  0  0  0  0  0  0  0
    1.0270   14.0160   -2.0990 C   0  0  1  0  0  0  0  0  0  0  0  0
   -0.4900   13.7210   -1.8800 C   0  0  0  0  0  0  0  0  0  0  0  0
    1.8410   12.7040   -2.3400 C   0  0  2  0  0  0  0  0  0  0  0  0
    1.3710   11.8540   -3.5330 C   0  0  0  0  0  0  0  0  0  0  0  0
    0.3400   10.8220   -3.2140 C   0  0  0  0  0  0  0  0  0  0  0  0
    0.0190   10.3930   -1.9790 C   0  0  0  0  0  0  0  0  0  0  0  0
    0.7920   10.8860   -0.7490 C   0  0  1  0  0  0  0  0  0  0  0  0
    1.1490    9.6780    0.1570 C   0  0  0  0  0  0  0  0  0  0  0  0
   -0.0730    8.8450    0.5300 C   0  0  0  0  0  0  0  0  0  0  0  0
   -0.7810    8.3240   -0.7190 C   0  0  2  0  0  0  0  0  0  0  0  0
    0.0760    7.3860   -1.3760 O   0  0  0  0  0  0  0  0  0  0  0  0
   -1.1810    9.4510   -1.7110 C   0  0  0  0  0  0  0  0  0  0  0  0
   -2.3320   10.2920   -1.1070 C   0  0  0  0  0  0  0  0  0  0  0  0
   -1.7560    8.7810   -2.9880 C   0  0  0  0  0  0  0  0  0  0  0  0
    2.0440   11.8190   -1.0440 C   0  0  1  0  0  0  0  0  0  0  0  0
    3.3110   10.9450   -1.2950 C   0  0  0  0  0  0  0  0  0  0  0  0
    2.3490   12.6890    0.2320 C   0  0  0  0  0  0  0  0  0  0  0  0
    1.6020   14.0300    0.3540 C   0  0  0  0  0  0  0  0  0  0  0  0
    1.7080   14.8370   -0.9440 C   0  0  2  0  0  0  0  0  0  0  0  0
    3.2210   15.1680   -1.1790 C   0  0  0  0  0  0  0  0  0  0  0  0
    0.2349   18.5734    1.0241 H   0  0  0  0  0  0  0  0  0  0  0  0
    0.7096   19.3643   -0.5172 H   0  0  0  0  0  0  0  0  0  0  0  0
   -0.5415   18.0754   -0.5172 H   0  0  0  0  0  0  0  0  0  0  0  0
    1.8345   17.0464    0.7341 H   0  0  0  0  0  0  0  0  0  0  0  0
    2.9629   17.2182   -1.8246 H   0  0  0  0  0  0  0  0  0  0  0  0
    2.4082   18.9104   -1.4092 H   0  0  0  0  0  0  0  0  0  0  0  0
    4.4779   17.1824   -0.0529 H   0  0  0  0  0  0  0  0  0  0  0  0
    4.5641   18.9049   -0.6116 H   0  0  0  0  0  0  0  0  0  0  0  0
    2.7436   17.8772    1.2866 H   0  0  0  0  0  0  0  0  0  0  0  0
    6.6095   19.1193    2.8921 H   0  0  0  0  0  0  0  0  0  0  0  0
    6.3084   18.2161    1.3688 H   0  0  0  0  0  0  0  0  0  0  0  0
    6.2790   20.0122    1.3688 H   0  0  0  0  0  0  0  0  0  0  0  0
    5.1008   19.1164    4.3210 H   0  0  0  0  0  0  0  0  0  0  0  0
    3.5473   19.9264    3.9243 H   0  0  0  0  0  0  0  0  0  0  0  0
    3.6509   18.1331    3.9243 H   0  0  0  0  0  0  0  0  0  0  0  0
   -0.0456   16.0529   -0.4707 H   0  0  0  0  0  0  0  0  0  0  0  0
   -0.2392   16.7582   -2.7734 H   0  0  0  0  0  0  0  0  0  0  0  0
    1.4806   17.1940   -2.8655 H   0  0  0  0  0  0  0  0  0  0  0  0
    0.2993   14.8482   -3.9914 H   0  0  0  0  0  0  0  0  0  0  0  0
    2.0325   15.0690   -3.7638 H   0  0  0  0  0  0  0  0  0  0  0  0
   -0.7035   13.6795   -0.8017 H   0  0  0  0  0  0  0  0  0  0  0  0
   -1.0892   14.5194   -2.3420 H   0  0  0  0  0  0  0  0  0  0  0  0
   -0.7463   12.7562   -2.3420 H   0  0  0  0  0  0  0  0  0  0  0  0
    2.8319   13.0904   -2.6207 H   0  0  0  0  0  0  0  0  0  0  0  0
    0.9498   12.5329   -4.2891 H   0  0  0  0  0  0  0  0  0  0  0  0
    2.2566   11.3020   -3.8810 H   0  0  0  0  0  0  0  0  0  0  0  0
   -0.2030   10.3745   -4.0595 H   0  0  0  0  0  0  0  0  0  0  0  0
    0.1112   11.5650   -0.2147 H   0  0  0  0  0  0  0  0  0  0  0  0
    1.8639    9.0354   -0.3777 H   0  0  0  0  0  0  0  0  0  0  0  0
    1.5793   10.0749    1.0883 H   0  0  0  0  0  0  0  0  0  0  0  0
    0.2476    7.9909    1.1446 H   0  0  0  0  0  0  0  0  0  0  0  0
   -0.7735    9.4813    1.0907 H   0  0  0  0  0  0  0  0  0  0  0  0
   -1.7170    7.8466   -0.3935 H   0  0  0  0  0  0  0  0  0  0  0  0
   -0.1390    7.4050   -2.3240 H   0  0  0  0  0  0  0  0  0  0  0  0
   -2.2779   10.2525   -0.0090 H   0  0  0  0  0  0  0  0  0  0  0  0
   -2.2381   11.3357   -1.4414 H   0  0  0  0  0  0  0  0  0  0  0  0
   -3.2978    9.8853   -1.4414 H   0  0  0  0  0  0  0  0  0  0  0  0
   -2.4474    7.9754   -2.6998 H   0  0  0  0  0  0  0  0  0  0  0  0
   -2.2956    9.5314   -3.5845 H   0  0  0  0  0  0  0  0  0  0  0  0
   -0.9325    8.3615   -3.5845 H   0  0  0  0  0  0  0  0  0  0  0  0
    3.7463   10.6447   -0.3304 H   0  0  0  0  0  0  0  0  0  0  0  0
    3.0302   10.0476   -1.8658 H   0  0  0  0  0  0  0  0  0  0  0  0
    4.0502   11.5262   -1.8658 H   0  0  0  0  0  0  0  0  0  0  0  0
    2.0942   12.0848    1.1152 H   0  0  0  0  0  0  0  0  0  0  0  0
    3.4121   12.9588    0.1485 H   0  0  0  0  0  0  0  0  0  0  0  0
    0.5415   13.8328    0.5695 H   0  0  0  0  0  0  0  0  0  0  0  0
    2.0584   14.6129    1.1676 H   0  0  0  0  0  0  0  0  0  0  0  0
    3.7271   15.2787   -0.2086 H   0  0  0  0  0  0  0  0  0  0  0  0
    3.6911   14.3515   -1.7467 H   0  0  0  0  0  0  0  0  0  0  0  0
    3.3072   16.1062   -1.7467 H   0  0  0  0  0  0  0  0  0  0  0  0
  1  2  1  0
  2  3  1  0
  3  4  1  0
  4  5  1  0
  5  6  1  0
  6  7  1  0
  7  8  1  0
  7  9  1  0
  2 10  1  0
 10 11  1  0
 11 12  1  0
 12 13  1  0
 13 14  1  1
 13 15  1  0
 15 16  1  0
 16 17  1  0
 17 18  2  0
 18 19  1  0
 19 20  1  0
 20 21  1  0
 21 22  1  0
 22 23  1  0
 22 24  1  0
 24 25  1  0
 24 26  1  0
 19 27  1  0
 27 28  1  6
 27 29  1  0
 29 30  1  0
 30 31  1  0
 31 32  1  6
  7  5  1  0
 31 10  1  0
 31 13  1  0
 27 15  1  0
 24 18  1  0
  1 33  1  0
  1 34  1  0
  1 35  1  0
  2 36  1  1
  3 37  1  0
  3 38  1  0
  4 39  1  0
  4 40  1  0
  5 41  1  1
  8 42  1  0
  8 43  1  0
  8 44  1  0
  9 45  1  0
  9 46  1  0
  9 47  1  0
 10 48  1  1
 11 49  1  0
 11 50  1  0
 12 51  1  0
 12 52  1  0
 14 53  1  0
 14 54  1  0
 14 55  1  0
 15 56  1  6
 16 57  1  0
 16 58  1  0
 17 59  1  0
 19 60  1  1
 20 61  1  0
 20 62  1  0
 21 63  1  0
 21 64  1  0
 22 65  1  1
 23 66  1  0
 25 67  1  0
 25 68  1  0
 25 69  1  0
 26 70  1  0
 26 71  1  0
 26 72  1  0
 28 73  1  0
 28 74  1  0
 28 75  1  0
 29 76  1  0
 29 77  1  0
 30 78  1  0
 30 79  1  0
 32 80  1  0
 32 81  1  0
 32 82  1  0
M  END
>  <meeko>  (4) 
{"is_sidechain": [false], "intermolecular_energy": 2.731, "internal_energy": -0.839}

$$$$
EPH_relaxed_0001_pdb2pqr_Repair_241_r2_0001_out
     RDKit          3D

 82 86  0  0  0  0  0  0  0  0999 V2000
   -3.4010    9.3130    0.5390 C   0  0  0  0  0  0  0  0  0  0  0  0
   -2.5760    9.6780   -0.6980 C   0  0  2  0  0  0  0  0  0  0  0  0
   -1.9100    8.4430   -1.3380 C   0  0  0  0  0  0  0  0  0  0  0  0
   -2.8280    7.6740   -2.2920 C   0  0  0  0  0  0  0  0  0  0  0  0
   -4.2650    7.7740   -1.8800 C   0  0  2  0  0  0  0  0  0  0  0  0
   -4.8110    6.5760   -1.3130 O   0  0  0  0  0  0  0  0  0  0  0  0
   -5.3850    7.0070   -2.5570 C   0  0  0  0  0  0  0  0  0  0  0  0
   -5.1160    6.0830   -3.7040 C   0  0  0  0  0  0  0  0  0  0  0  0
   -6.7850    7.5220   -2.4290 C   0  0  0  0  0  0  0  0  0  0  0  0
   -1.5170   10.7100   -0.3310 C   0  0  1  0  0  0  0  0  0  0  0  0
   -0.4150   10.1310    0.5960 C   0  0  0  0  0  0  0  0  0  0  0  0
    0.9140   10.8250    0.1990 C   0  0  0  0  0  0  0  0  0  0  0  0
    0.4830   12.0060   -0.7020 C   0  0  1  0  0  0  0  0  0  0  0  0
    0.0470   13.1290    0.2900 C   0  0  0  0  0  0  0  0  0  0  0  0
    1.5490   12.5200   -1.7230 C   0  0  2  0  0  0  0  0  0  0  0  0
    2.8330   13.0900   -1.0950 C   0  0  0  0  0  0  0  0  0  0  0  0
    2.8080   14.5550   -0.8120 C   0  0  0  0  0  0  0  0  0  0  0  0
    1.9150   15.4330   -1.3070 C   0  0  0  0  0  0  0  0  0  0  0  0
    0.8570   14.9890   -2.3260 C   0  0  1  0  0  0  0  0  0  0  0  0
    0.8030   16.0100   -3.4930 C   0  0  0  0  0  0  0  0  0  0  0  0
    0.5840   17.4400   -3.0090 C   0  0  0  0  0  0  0  0  0  0  0  0
    1.6870   17.8640   -2.0430 C   0  0  2  0  0  0  0  0  0  0  0  0
    2.9240   17.9390   -2.7600 O   0  0  0  0  0  0  0  0  0  0  0  0
    1.8430   16.9040   -0.8310 C   0  0  0  0  0  0  0  0  0  0  0  0
    0.6220   17.0520    0.1100 C   0  0  0  0  0  0  0  0  0  0  0  0
    3.0790   17.3660   -0.0130 C   0  0  0  0  0  0  0  0  0  0  0  0
    0.9700   13.4880   -2.8330 C   0  0  1  0  0  0  0  0  0  0  0  0
    1.9460   13.4080   -4.0470 C   0  0  0  0  0  0  0  0  0  0  0  0
   -0.4360   13.0170   -3.3630 C   0  0  0  0  0  0  0  0  0  0  0  0
   -1.4000   12.4080   -2.3270 C   0  0  0  0  0  0  0  0  0  0  0  0
   -0.6990   11.3330   -1.4900 C   0  0  2  0  0  0  0  0  0  0  0  0
   -0.2680   10.1790   -2.4590 C   0  0  0  0  0  0  0  0  0  0  0  0
   -2.8323    9.5646    1.4463 H   0  0  0  0  0  0  0  0  0  0  0  0
   -4.3451    9.8774    0.5297 H   0  0  0  0  0  0  0  0  0  0  0  0
   -3.6183    8.2347    0.5297 H   0  0  0  0  0  0  0  0  0  0  0  0
   -3.2662   10.1026   -1.4419 H   0  0  0  0  0  0  0  0  0  0  0  0
   -1.0261    8.7776   -1.9008 H   0  0  0  0  0  0  0  0  0  0  0  0
   -1.6505    7.7567   -0.5185 H   0  0  0  0  0  0  0  0  0  0  0  0
   -2.7179    8.0892   -3.3046 H   0  0  0  0  0  0  0  0  0  0  0  0
   -2.5373    6.6134   -2.2668 H   0  0  0  0  0  0  0  0  0  0  0  0
   -4.1439    8.8392   -1.6336 H   0  0  0  0  0  0  0  0  0  0  0  0
   -4.8280    5.0939   -3.3183 H   0  0  0  0  0  0  0  0  0  0  0  0
   -6.0235    5.9871   -4.3182 H   0  0  0  0  0  0  0  0  0  0  0  0
   -4.2988    6.4892   -4.3182 H   0  0  0  0  0  0  0  0  0  0  0  0
   -7.0446    7.6175   -1.3644 H   0  0  0  0  0  0  0  0  0  0  0  0
   -6.8594    8.5064   -2.9143 H   0  0  0  0  0  0  0  0  0  0  0  0
   -7.4795    6.8205   -2.9143 H   0  0  0  0  0  0  0  0  0  0  0  0
   -2.1578   11.4753    0.1313 H   0  0  0  0  0  0  0  0  0  0  0  0
   -0.6543   10.3447    1.6482 H   0  0  0  0  0  0  0  0  0  0  0  0
   -0.3389    9.0393    0.4849 H   0  0  0  0  0  0  0  0  0  0  0  0
    1.4431   11.1903    1.0915 H   0  0  0  0  0  0  0  0  0  0  0  0
    1.6056   10.1400   -0.3133 H   0  0  0  0  0  0  0  0  0  0  0  0
    0.1832   12.7783    1.3237 H   0  0  0  0  0  0  0  0  0  0  0  0
    0.6625   14.0252    0.1228 H   0  0  0  0  0  0  0  0  0  0  0  0
   -1.0120   13.3751    0.1228 H   0  0  0  0  0  0  0  0  0  0  0  0
    1.8517   11.5938   -2.2333 H   0  0  0  0  0  0  0  0  0  0  0  0
    3.0098   12.5634   -0.1456 H   0  0  0  0  0  0  0  0  0  0  0  0
    3.6292   12.9372   -1.8384 H   0  0  0  0  0  0  0  0  0  0  0  0
    3.5852   14.9514   -0.1420 H   0  0  0  0  0  0  0  0  0  0  0  0
   -0.1023   14.9859   -1.7876 H   0  0  0  0  0  0  0  0  0  0  0  0
    1.7538   15.9660   -4.0444 H   0  0  0  0  0  0  0  0  0  0  0  0
   -0.0493   15.7400   -4.1339 H   0  0  0  0  0  0  0  0  0  0  0  0
    0.5845   18.1174   -3.8757 H   0  0  0  0  0  0  0  0  0  0  0  0
   -0.3810   17.4887   -2.4832 H   0  0  0  0  0  0  0  0  0  0  0  0
    1.4059   18.8447   -1.6315 H   0  0  0  0  0  0  0  0  0  0  0  0
    2.8780   17.3000   -3.4920 H   0  0  0  0  0  0  0  0  0  0  0  0
    0.9585   17.0112    1.1565 H   0  0  0  0  0  0  0  0  0  0  0  0
    0.1282   18.0166   -0.0790 H   0  0  0  0  0  0  0  0  0  0  0  0
   -0.0880   16.2333   -0.0790 H   0  0  0  0  0  0  0  0  0  0  0  0
    2.8591   17.2838    1.0616 H   0  0  0  0  0  0  0  0  0  0  0  0
    3.9413   16.7295   -0.2605 H   0  0  0  0  0  0  0  0  0  0  0  0
    3.3124   18.4121   -0.2605 H   0  0  0  0  0  0  0  0  0  0  0  0
    2.9799   13.3233   -3.6813 H   0  0  0  0  0  0  0  0  0  0  0  0
    1.6998   12.5270   -4.6580 H   0  0  0  0  0  0  0  0  0  0  0  0
    1.8466   14.3173   -4.6580 H   0  0  0  0  0  0  0  0  0  0  0  0
   -0.9341   13.8912   -3.8075 H   0  0  0  0  0  0  0  0  0  0  0  0
   -0.2193   12.2017   -4.0690 H   0  0  0  0  0  0  0  0  0  0  0  0
   -1.7612   13.2046   -1.6599 H   0  0  0  0  0  0  0  0  0  0  0  0
   -2.2409   11.9425   -2.8620 H   0  0  0  0  0  0  0  0  0  0  0  0
    0.0572    9.3084   -1.8706 H   0  0  0  0  0  0  0  0  0  0  0  0
   -1.1207    9.8951   -3.0933 H   0  0  0  0  0  0  0  0  0  0  0  0
    0.5620   10.5236   -3.0933 H   0  0  0  0  0  0  0  0  0  0  0  0
  1  2  1  0
  2  3  1  0
  3  4  1  0
  4  5  1  0
  5  6  1  0
  6  7  1  0
  7  8  1  0
  7  9  1  0
  2 10  1  0
 10 11  1  0
 11 12  1  0
 12 13  1  0
 13 14  1  1
 13 15  1  0
 15 16  1  0
 16 17  1  0
 17 18  2  0
 18 19  1  0
 19 20  1  0
 20 21  1  0
 21 22  1  0
 22 23  1  0
 22 24  1  0
 24 25  1  0
 24 26  1  0
 19 27  1  0
 27 28  1  6
 27 29  1  0
 29 30  1  0
 30 31  1  0
 31 32  1  6
  7  5  1  0
 31 10  1  0
 31 13  1  0
 27 15  1  0
 24 18  1  0
  1 33  1  0
  1 34  1  0
  1 35  1  0
  2 36  1  6
  3 37  1  0
  3 38  1  0
  4 39  1  0
  4 40  1  0
  5 41  1  1
  8 42  1  0
  8 43  1  0
  8 44  1  0
  9 45  1  0
  9 46  1  0
  9 47  1  0
 10 48  1  1
 11 49  1  0
 11 50  1  0
 12 51  1  0
 12 52  1  0
 14 53  1  0
 14 54  1  0
 14 55  1  0
 15 56  1  6
 16 57  1  0
 16 58  1  0
 17 59  1  0
 19 60  1  1
 20 61  1  0
 20 62  1  0
 21 63  1  0
 21 64  1  0
 22 65  1  1
 23 66  1  0
 25 67  1  0
 25 68  1  0
 25 69  1  0
 26 70  1  0
 26 71  1  0
 26 72  1  0
 28 73  1  0
 28 74  1  0
 28 75  1  0
 29 76  1  0
 29 77  1  0
 30 78  1  0
 30 79  1  0
 32 80  1  0
 32 81  1  0
 32 82  1  0
M  END
>  <meeko>  (5) 
{"is_sidechain": [false], "intermolecular_energy": 2.731, "internal_energy": -0.839}

$$$$
EPH_relaxed_0001_pdb2pqr_Repair_241_r2_0001_out
     RDKit          3D

 82 86  0  0  0  0  0  0  0  0999 V2000
    3.8090   17.9340    0.6900 C   0  0  0  0  0  0  0  0  0  0  0  0
    2.7250   18.4030   -0.2860 C   0  0  2  0  0  0  0  0  0  0  0  0
    2.0040   19.6710    0.2130 C   0  0  0  0  0  0  0  0  0  0  0  0
    0.7570   19.3790    1.0530 C   0  0  0  0  0  0  0  0  0  0  0  0
   -0.4620   20.0390    0.4820 C   0  0  2  0  0  0  0  0  0  0  0  0
   -1.5510   20.1820    1.4030 O   0  0  0  0  0  0  0  0  0  0  0  0
   -1.7830   19.3200    0.2770 C   0  0  0  0  0  0  0  0  0  0  0  0
   -1.9510   17.8780    0.6400 C   0  0  0  0  0  0  0  0  0  0  0  0
   -2.7520   19.8770   -0.7180 C   0  0  0  0  0  0  0  0  0  0  0  0
    1.7150   17.2850   -0.5160 C   0  0  1  0  0  0  0  0  0  0  0  0
    0.5060   17.7410   -1.3760 C   0  0  0  0  0  0  0  0  0  0  0  0
    0.0910   16.5250   -2.2440 C   0  0  0  0  0  0  0  0  0  0  0  0
    0.8480   15.3270   -1.6240 C   0  0  1  0  0  0  0  0  0  0  0  0
   -0.0140   14.9020   -0.3940 C   0  0  0  0  0  0  0  0  0  0  0  0
    1.1280   14.1190   -2.5770 C   0  0  2  0  0  0  0  0  0  0  0  0
   -0.1250   13.4150   -3.1250 C   0  0  0  0  0  0  0  0  0  0  0  0
   -0.6340   12.2820   -2.2970 C   0  0  0  0  0  0  0  0  0  0  0  0
    0.0470   11.6630   -1.3160 C   0  0  0  0  0  0  0  0  0  0  0  0
    1.5070   12.0290   -1.0190 C   0  0  1  0  0  0  0  0  0  0  0  0
    2.3460   10.7320   -0.8690 C   0  0  0  0  0  0  0  0  0  0  0  0
    1.7620    9.7740    0.1660 C   0  0  0  0  0  0  0  0  0  0  0  0
    0.3300    9.3880   -0.1960 C   0  0  2  0  0  0  0  0  0  0  0  0
    0.3520    8.6110   -1.3970 O   0  0  0  0  0  0  0  0  0  0  0  0
   -0.6060   10.6140   -0.3820 C   0  0  0  0  0  0  0  0  0  0  0  0
   -0.8690   11.2820    0.9900 C   0  0  0  0  0  0  0  0  0  0  0  0
   -1.9810   10.0930   -0.8820 C   0  0  0  0  0  0  0  0  0  0  0  0
    2.1750   13.0760   -2.0100 C   0  0  1  0  0  0  0  0  0  0  0  0
    2.7760   12.3340   -3.2430 C   0  0  0  0  0  0  0  0  0  0  0  0
    3.3820   13.7760   -1.2810 C   0  0  0  0  0  0  0  0  0  0  0  0
    3.0590   15.0340   -0.4520 C   0  0  0  0  0  0  0  0  0  0  0  0
    2.2110   16.0200   -1.2610 C   0  0  2  0  0  0  0  0  0  0  0  0
    3.0600   16.4820   -2.4940 C   0  0  0  0  0  0  0  0  0  0  0  0
    3.4621   18.0841    1.7230 H   0  0  0  0  0  0  0  0  0  0  0  0
    4.0149   16.8663    0.5238 H   0  0  0  0  0  0  0  0  0  0  0  0
    4.7282   18.5149    0.5238 H   0  0  0  0  0  0  0  0  0  0  0  0
    3.2204   18.6574   -1.2346 H   0  0  0  0  0  0  0  0  0  0  0  0
    2.7080   20.2522    0.8267 H   0  0  0  0  0  0  0  0  0  0  0  0
    1.6699   20.2229   -0.6779 H   0  0  0  0  0  0  0  0  0  0  0  0
    0.5932   18.2917    1.0822 H   0  0  0  0  0  0  0  0  0  0  0  0
    0.9225   19.7795    2.0640 H   0  0  0  0  0  0  0  0  0  0  0  0
    0.1553   20.6542   -0.1892 H   0  0  0  0  0  0  0  0  0  0  0  0
   -1.9631   17.7746    1.7351 H   0  0  0  0  0  0  0  0  0  0  0  0
   -2.8988   17.5037    0.2259 H   0  0  0  0  0  0  0  0  0  0  0  0
   -1.1146   17.2958    0.2259 H   0  0  0  0  0  0  0  0  0  0  0  0
   -3.5873   20.3571   -0.1872 H   0  0  0  0  0  0  0  0  0  0  0  0
   -2.2429   20.6203   -1.3491 H   0  0  0  0  0  0  0  0  0  0  0  0
   -3.1381   19.0630   -1.3491 H   0  0  0  0  0  0  0  0  0  0  0  0
    1.4742   17.0358    0.5280 H   0  0  0  0  0  0  0  0  0  0  0  0
   -0.3279   18.0449   -0.7263 H   0  0  0  0  0  0  0  0  0  0  0  0
    0.7715   18.6033   -2.0052 H   0  0  0  0  0  0  0  0  0  0  0  0
   -0.9962   16.3653   -2.1942 H   0  0  0  0  0  0  0  0  0  0  0  0
    0.3354   16.6682   -3.3069 H   0  0  0  0  0  0  0  0  0  0  0  0
    0.5165   15.1635    0.5335 H   0  0  0  0  0  0  0  0  0  0  0  0
   -0.9801   15.4270   -0.4243 H   0  0  0  0  0  0  0  0  0  0  0  0
   -0.1858   13.8159   -0.4243 H   0  0  0  0  0  0  0  0  0  0  0  0
    1.5988   14.6068   -3.4433 H   0  0  0  0  0  0  0  0  0  0  0  0
   -0.9270   14.1634   -3.2064 H   0  0  0  0  0  0  0  0  0  0  0  0
    0.1697   12.9777   -4.0904 H   0  0  0  0  0  0  0  0  0  0  0  0
   -1.6523   11.9229   -2.5069 H   0  0  0  0  0  0  0  0  0  0  0  0
    1.4946   12.5782   -0.0660 H   0  0  0  0  0  0  0  0  0  0  0  0
    2.3819   10.2206   -1.8422 H   0  0  0  0  0  0  0  0  0  0  0  0
    3.3505   11.0216   -0.5268 H   0  0  0  0  0  0  0  0  0  0  0  0
    2.3809    8.8655    0.2055 H   0  0  0  0  0  0  0  0  0  0  0  0
    1.7540   10.2762    1.1447 H   0  0  0  0  0  0  0  0  0  0  0  0
   -0.0784    8.8075    0.6444 H   0  0  0  0  0  0  0  0  0  0  0  0
    0.1170    7.6980   -1.1610 H   0  0  0  0  0  0  0  0  0  0  0  0
   -0.5946   10.5852    1.7957 H   0  0  0  0  0  0  0  0  0  0  0  0
   -0.2639   12.1967    1.0745 H   0  0  0  0  0  0  0  0  0  0  0  0
   -1.9353   11.5387    1.0745 H   0  0  0  0  0  0  0  0  0  0  0  0
   -2.6178    9.8517   -0.0182 H   0  0  0  0  0  0  0  0  0  0  0  0
   -2.4678   10.8690   -1.4910 H   0  0  0  0  0  0  0  0  0  0  0  0
   -1.8313    9.1893   -1.4910 H   0  0  0  0  0  0  0  0  0  0  0  0
    3.4334   11.5224   -2.8979 H   0  0  0  0  0  0  0  0  0  0  0  0
    1.9613   11.9128   -3.8504 H   0  0  0  0  0  0  0  0  0  0  0  0
    3.3572   13.0434   -3.8504 H   0  0  0  0  0  0  0  0  0  0  0  0
    3.8342   13.0376   -0.6025 H   0  0  0  0  0  0  0  0  0  0  0  0
    4.0419   14.1256   -2.0886 H   0  0  0  0  0  0  0  0  0  0  0  0
    2.5039   14.7378    0.4503 H   0  0  0  0  0  0  0  0  0  0  0  0
    4.0039   15.5261   -0.1781 H   0  0  0  0  0  0  0  0  0  0  0  0
    3.9756   16.9803   -2.1427 H   0  0  0  0  0  0  0  0  0  0  0  0
    3.3295   15.6062   -3.1025 H   0  0  0  0  0  0  0  0  0  0  0  0
    2.4709   17.1840   -3.1025 H   0  0  0  0  0  0  0  0  0  0  0  0
  1  2  1  0
  2  3  1  0
  3  4  1  0
  4  5  1  0
  5  6  1  0
  6  7  1  0
  7  8  1  0
  7  9  1  0
  2 10  1  0
 10 11  1  0
 11 12  1  0
 12 13  1  0
 13 14  1  1
 13 15  1  0
 15 16  1  0
 16 17  1  0
 17 18  2  0
 18 19  1  0
 19 20  1  0
 20 21  1  0
 21 22  1  0
 22 23  1  0
 22 24  1  0
 24 25  1  0
 24 26  1  0
 19 27  1  0
 27 28  1  6
 27 29  1  0
 29 30  1  0
 30 31  1  0
 31 32  1  6
  7  5  1  0
 31 10  1  0
 31 13  1  0
 27 15  1  0
 24 18  1  0
  1 33  1  0
  1 34  1  0
  1 35  1  0
  2 36  1  6
  3 37  1  0
  3 38  1  0
  4 39  1  0
  4 40  1  0
  5 41  1  6
  8 42  1  0
  8 43  1  0
  8 44  1  0
  9 45  1  0
  9 46  1  0
  9 47  1  0
 10 48  1  1
 11 49  1  0
 11 50  1  0
 12 51  1  0
 12 52  1  0
 14 53  1  0
 14 54  1  0
 14 55  1  0
 15 56  1  6
 16 57  1  0
 16 58  1  0
 17 59  1  0
 19 60  1  1
 20 61  1  0
 20 62  1  0
 21 63  1  0
 21 64  1  0
 22 65  1  1
 23 66  1  0
 25 67  1  0
 25 68  1  0
 25 69  1  0
 26 70  1  0
 26 71  1  0
 26 72  1  0
 28 73  1  0
 28 74  1  0
 28 75  1  0
 29 76  1  0
 29 77  1  0
 30 78  1  0
 30 79  1  0
 32 80  1  0
 32 81  1  0
 32 82  1  0
M  END
>  <meeko>  (6) 
{"is_sidechain": [false], "intermolecular_energy": 2.731, "internal_energy": -0.839}

$$$$
EPH_relaxed_0001_pdb2pqr_Repair_241_r2_0001_out
     RDKit          3D

 82 86  0  0  0  0  0  0  0  0999 V2000
   -5.2190    5.8040   -1.5870 C   0  0  0  0  0  0  0  0  0  0  0  0
   -5.4670    7.3050   -1.7630 C   0  0  2  0  0  0  0  0  0  0  0  0
   -5.2030    8.0930   -0.4650 C   0  0  0  0  0  0  0  0  0  0  0  0
   -4.2180    9.2530   -0.6390 C   0  0  0  0  0  0  0  0  0  0  0  0
   -2.8180    8.8480   -0.2890 C   0  0  2  0  0  0  0  0  0  0  0  0
   -2.2030    9.6440    0.7330 O   0  0  0  0  0  0  0  0  0  0  0  0
   -1.6020    9.7110   -0.5700 C   0  0  0  0  0  0  0  0  0  0  0  0
   -1.7310   11.0480   -1.2310 C   0  0  0  0  0  0  0  0  0  0  0  0
   -0.2600    9.0530   -0.6510 C   0  0  0  0  0  0  0  0  0  0  0  0
   -6.8970    7.5420   -2.2350 C   0  0  1  0  0  0  0  0  0  0  0  0
   -7.2060    6.8390   -3.5840 C   0  0  0  0  0  0  0  0  0  0  0  0
   -8.6860    6.3820   -3.5210 C   0  0  0  0  0  0  0  0  0  0  0  0
   -9.2710    7.1200   -2.2940 C   0  0  1  0  0  0  0  0  0  0  0  0
   -9.6040    8.5550   -2.8100 C   0  0  0  0  0  0  0  0  0  0  0  0
  -10.5070    6.4510   -1.6100 C   0  0  2  0  0  0  0  0  0  0  0  0
  -11.7580    6.3310   -2.4970 C   0  0  0  0  0  0  0  0  0  0  0  0
  -12.7000    7.4880   -2.4290 C   0  0  0  0  0  0  0  0  0  0  0  0
  -12.6980    8.4440   -1.4830 C   0  0  0  0  0  0  0  0  0  0  0  0
  -11.7400    8.3670   -0.2870 C   0  0  1  0  0  0  0  0  0  0  0  0
  -12.5190    8.6650    1.0210 C   0  0  0  0  0  0  0  0  0  0  0  0
  -13.2740    9.9890    0.9630 C   0  0  0  0  0  0  0  0  0  0  0  0
  -14.2580   10.0050   -0.2030 C   0  0  2  0  0  0  0  0  0  0  0  0
  -15.2870    9.0440    0.0490 O   0  0  0  0  0  0  0  0  0  0  0  0
  -13.5890    9.7080   -1.5740 C   0  0  0  0  0  0  0  0  0  0  0  0
  -12.6960   10.9030   -1.9880 C   0  0  0  0  0  0  0  0  0  0  0  0
  -14.7110    9.6140   -2.6430 C   0  0  0  0  0  0  0  0  0  0  0  0
  -10.8620    7.0460   -0.1870 C   0  0  1  0  0  0  0  0  0  0  0  0
  -11.6510    5.9380    0.5750 C   0  0  0  0  0  0  0  0  0  0  0  0
   -9.5770    7.3470    0.6730 C   0  0  0  0  0  0  0  0  0  0  0  0
   -8.3490    7.8940   -0.0800 C   0  0  0  0  0  0  0  0  0  0  0  0
   -8.0410    7.0440   -1.3170 C   0  0  2  0  0  0  0  0  0  0  0  0
   -7.6800    5.6000   -0.8270 C   0  0  0  0  0  0  0  0  0  0  0  0
   -5.1791    5.5622   -0.5146 H   0  0  0  0  0  0  0  0  0  0  0  0
   -6.0360    5.2394   -2.0600 H   0  0  0  0  0  0  0  0  0  0  0  0
   -4.2638    5.5322   -2.0600 H   0  0  0  0  0  0  0  0  0  0  0  0
   -4.7591    7.6718   -2.5208 H   0  0  0  0  0  0  0  0  0  0  0  0
   -6.1594    8.5004   -0.1053 H   0  0  0  0  0  0  0  0  0  0  0  0
   -4.7503    7.3912    0.2509 H   0  0  0  0  0  0  0  0  0  0  0  0
   -4.2413    9.5864   -1.6870 H   0  0  0  0  0  0  0  0  0  0  0  0
   -4.5202   10.0645    0.0394 H   0  0  0  0  0  0  0  0  0  0  0  0
   -3.0419    7.7942   -0.5112 H   0  0  0  0  0  0  0  0  0  0  0  0
   -1.8066   11.8313   -0.4624 H   0  0  0  0  0  0  0  0  0  0  0  0
   -0.8466   11.2338   -1.8582 H   0  0  0  0  0  0  0  0  0  0  0  0
   -2.6346   11.0613   -1.8582 H   0  0  0  0  0  0  0  0  0  0  0  0
    0.1191    8.8671    0.3647 H   0  0  0  0  0  0  0  0  0  0  0  0
   -0.3519    8.0977   -1.1886 H   0  0  0  0  0  0  0  0  0  0  0  0
    0.4389    9.7106   -1.1886 H   0  0  0  0  0  0  0  0  0  0  0  0
   -6.8976    8.6413   -2.2742 H   0  0  0  0  0  0  0  0  0  0  0  0
   -7.0613    7.5406   -4.4187 H   0  0  0  0  0  0  0  0  0  0  0  0
   -6.5347    5.9829   -3.7463 H   0  0  0  0  0  0  0  0  0  0  0  0
   -9.2205    6.6698   -4.4383 H   0  0  0  0  0  0  0  0  0  0  0  0
   -8.7817    5.2895   -3.4351 H   0  0  0  0  0  0  0  0  0  0  0  0
   -9.7597    9.2261   -1.9524 H   0  0  0  0  0  0  0  0  0  0  0  0
   -8.7686    8.9281   -3.4206 H   0  0  0  0  0  0  0  0  0  0  0  0
  -10.5184    8.5221   -3.4206 H   0  0  0  0  0  0  0  0  0  0  0  0
  -10.1569    5.4211   -1.4466 H   0  0  0  0  0  0  0  0  0  0  0  0
  -11.4262    6.2233   -3.5402 H   0  0  0  0  0  0  0  0  0  0  0  0
  -12.3161    5.4609   -2.1209 H   0  0  0  0  0  0  0  0  0  0  0  0
  -13.4603    7.5648   -3.2202 H   0  0  0  0  0  0  0  0  0  0  0  0
  -10.9811    9.1455   -0.4543 H   0  0  0  0  0  0  0  0  0  0  0  0
  -13.2419    7.8540    1.1935 H   0  0  0  0  0  0  0  0  0  0  0  0
  -11.7858    8.7341    1.8381 H   0  0  0  0  0  0  0  0  0  0  0  0
  -13.8276   10.1292    1.9032 H   0  0  0  0  0  0  0  0  0  0  0  0
  -12.5468   10.8019    0.8199 H   0  0  0  0  0  0  0  0  0  0  0  0
  -14.6723   11.0217   -0.2708 H   0  0  0  0  0  0  0  0  0  0  0  0
  -16.0130    9.5020    0.5060 H   0  0  0  0  0  0  0  0  0  0  0  0
  -12.3185   11.4082   -1.0867 H   0  0  0  0  0  0  0  0  0  0  0  0
  -11.8481   10.5373   -2.5857 H   0  0  0  0  0  0  0  0  0  0  0  0
  -13.2870   11.6126   -2.5857 H   0  0  0  0  0  0  0  0  0  0  0  0
  -15.6876    9.5322   -2.1434 H   0  0  0  0  0  0  0  0  0  0  0  0
  -14.6952   10.5166   -3.2715 H   0  0  0  0  0  0  0  0  0  0  0  0
  -14.5452    8.7266   -3.2715 H   0  0  0  0  0  0  0  0  0  0  0  0
  -11.5425    6.0903    1.6590 H   0  0  0  0  0  0  0  0  0  0  0  0
  -12.7152    5.9920    0.3018 H   0  0  0  0  0  0  0  0  0  0  0  0
  -11.2520    4.9500    0.3018 H   0  0  0  0  0  0  0  0  0  0  0  0
   -9.8546    8.0867    1.4383 H   0  0  0  0  0  0  0  0  0  0  0  0
   -9.2604    6.3706    1.0686 H   0  0  0  0  0  0  0  0  0  0  0  0
   -8.5515    8.9282   -0.3953 H   0  0  0  0  0  0  0  0  0  0  0  0
   -7.4804    7.8601    0.5941 H   0  0  0  0  0  0  0  0  0  0  0  0
   -7.6742    5.5767    0.2727 H   0  0  0  0  0  0  0  0  0  0  0  0
   -8.4275    4.8870   -1.2049 H   0  0  0  0  0  0  0  0  0  0  0  0
   -6.6849    5.3226   -1.2049 H   0  0  0  0  0  0  0  0  0  0  0  0
  1  2  1  0
  2  3  1  0
  3  4  1  0
  4  5  1  0
  5  6  1  0
  6  7  1  0
  7  8  1  0
  7  9  1  0
  2 10  1  0
 10 11  1  0
 11 12  1  0
 12 13  1  0
 13 14  1  6
 13 15  1  0
 15 16  1  0
 16 17  1  0
 17 18  2  0
 18 19  1  0
 19 20  1  0
 20 21  1  0
 21 22  1  0
 22 23  1  0
 22 24  1  0
 24 25  1  0
 24 26  1  0
 19 27  1  0
 27 28  1  1
 27 29  1  0
 29 30  1  0
 30 31  1  0
 31 32  1  1
  7  5  1  0
 31 10  1  0
 31 13  1  0
 27 15  1  0
 24 18  1  0
  1 33  1  0
  1 34  1  0
  1 35  1  0
  2 36  1  6
  3 37  1  0
  3 38  1  0
  4 39  1  0
  4 40  1  0
  5 41  1  1
  8 42  1  0
  8 43  1  0
  8 44  1  0
  9 45  1  0
  9 46  1  0
  9 47  1  0
 10 48  1  6
 11 49  1  0
 11 50  1  0
 12 51  1  0
 12 52  1  0
 14 53  1  0
 14 54  1  0
 14 55  1  0
 15 56  1  1
 16 57  1  0
 16 58  1  0
 17 59  1  0
 19 60  1  6
 20 61  1  0
 20 62  1  0
 21 63  1  0
 21 64  1  0
 22 65  1  6
 23 66  1  0
 25 67  1  0
 25 68  1  0
 25 69  1  0
 26 70  1  0
 26 71  1  0
 26 72  1  0
 28 73  1  0
 28 74  1  0
 28 75  1  0
 29 76  1  0
 29 77  1  0
 30 78  1  0
 30 79  1  0
 32 80  1  0
 32 81  1  0
 32 82  1  0
M  END
>  <meeko>  (7) 
{"is_sidechain": [false], "intermolecular_energy": 2.731, "internal_energy": -0.839}

$$$$
EPH_relaxed_0001_pdb2pqr_Repair_241_r2_0001_out
     RDKit          3D

 82 86  0  0  0  0  0  0  0  0999 V2000
    4.4280   16.3290   -0.0200 C   0  0  0  0  0  0  0  0  0  0  0  0
    3.1000   16.9690   -0.4350 C   0  0  2  0  0  0  0  0  0  0  0  0
    2.7930   18.2460    0.3720 C   0  0  0  0  0  0  0  0  0  0  0  0
    2.4670   19.4620   -0.4990 C   0  0  0  0  0  0  0  0  0  0  0  0
    1.6290   19.0870   -1.6830 C   0  0  2  0  0  0  0  0  0  0  0  0
    1.1820   20.1940   -2.4760 O   0  0  0  0  0  0  0  0  0  0  0  0
    0.1580   19.4360   -1.8120 C   0  0  0  0  0  0  0  0  0  0  0  0
   -0.5610   20.1930   -0.7390 C   0  0  0  0  0  0  0  0  0  0  0  0
   -0.6910   18.6270   -2.7410 C   0  0  0  0  0  0  0  0  0  0  0  0
    1.9660   15.9650   -0.2730 C   0  0  1  0  0  0  0  0  0  0  0  0
    0.5820   16.6480   -0.1090 C   0  0  0  0  0  0  0  0  0  0  0  0
   -0.4540   15.7350   -0.8140 C   0  0  0  0  0  0  0  0  0  0  0  0
    0.3020   14.4100   -1.0670 C   0  0  1  0  0  0  0  0  0  0  0  0
    0.2380   13.6460    0.2920 C   0  0  0  0  0  0  0  0  0  0  0  0
   -0.2220   13.5310   -2.2490 C   0  0  2  0  0  0  0  0  0  0  0  0
   -1.6620   13.0140   -2.0900 C   0  0  0  0  0  0  0  0  0  0  0  0
   -1.7940   11.6890   -1.4160 C   0  0  0  0  0  0  0  0  0  0  0  0
   -0.7930   10.8130   -1.2110 C   0  0  0  0  0  0  0  0  0  0  0  0
    0.6130   11.0790   -1.7650 C   0  0  1  0  0  0  0  0  0  0  0  0
    1.1510    9.7960   -2.4520 C   0  0  0  0  0  0  0  0  0  0  0  0
    1.1070    8.5790   -1.5330 C   0  0  0  0  0  0  0  0  0  0  0  0
   -0.3160    8.3110   -1.0500 C   0  0  2  0  0  0  0  0  0  0  0  0
   -1.1170    7.9160   -2.1680 O   0  0  0  0  0  0  0  0  0  0  0  0
   -0.9660    9.5380   -0.3490 C   0  0  0  0  0  0  0  0  0  0  0  0
   -0.2810    9.7790    1.0190 C   0  0  0  0  0  0  0  0  0  0  0  0
   -2.4450    9.1810   -0.0380 C   0  0  0  0  0  0  0  0  0  0  0  0
    0.7640   12.3700   -2.6800 C   0  0  1  0  0  0  0  0  0  0  0  0
    0.4180   12.0180   -4.1590 C   0  0  0  0  0  0  0  0  0  0  0  0
    2.2700   12.8310   -2.6730 C   0  0  0  0  0  0  0  0  0  0  0  0
    2.6970   13.7940   -1.5500 C   0  0  0  0  0  0  0  0  0  0  0  0
    1.7230   14.9710   -1.4370 C   0  0  2  0  0  0  0  0  0  0  0  0
    1.7830   15.7720   -2.7820 C   0  0  0  0  0  0  0  0  0  0  0  0
    4.4928   16.2978    1.0776 H   0  0  0  0  0  0  0  0  0  0  0  0
    4.4826   15.3057   -0.4198 H   0  0  0  0  0  0  0  0  0  0  0  0
    5.2625   16.9239   -0.4198 H   0  0  0  0  0  0  0  0  0  0  0  0
    3.1897   17.2607   -1.4918 H   0  0  0  0  0  0  0  0  0  0  0  0
    1.9306   18.0452    1.0246 H   0  0  0  0  0  0  0  0  0  0  0  0
    3.7018   18.4927    0.9406 H   0  0  0  0  0  0  0  0  0  0  0  0
    1.9185   20.1979    0.1072 H   0  0  0  0  0  0  0  0  0  0  0  0
    3.4138   19.8828   -0.8685 H   0  0  0  0  0  0  0  0  0  0  0  0
    2.1753   18.1392   -1.7980 H   0  0  0  0  0  0  0  0  0  0  0  0
   -0.2252   19.8395    0.2470 H   0  0  0  0  0  0  0  0  0  0  0  0
   -0.3418   21.2664   -0.8378 H   0  0  0  0  0  0  0  0  0  0  0  0
   -1.6443   20.0293   -0.8378 H   0  0  0  0  0  0  0  0  0  0  0  0
   -1.3653   17.9845   -2.1558 H   0  0  0  0  0  0  0  0  0  0  0  0
   -1.2856   19.3011   -3.3751 H   0  0  0  0  0  0  0  0  0  0  0  0
   -0.0464   18.0006   -3.3751 H   0  0  0  0  0  0  0  0  0  0  0  0
    2.3252   15.4242    0.6150 H   0  0  0  0  0  0  0  0  0  0  0  0
    0.3336   16.7493    0.9578 H   0  0  0  0  0  0  0  0  0  0  0  0
    0.5844   17.6559   -0.5495 H   0  0  0  0  0  0  0  0  0  0  0  0
   -1.3271   15.5664   -0.1665 H   0  0  0  0  0  0  0  0  0  0  0  0
   -0.8380   16.1802   -1.7437 H   0  0  0  0  0  0  0  0  0  0  0  0
    0.2984   14.3666    1.1209 H   0  0  0  0  0  0  0  0  0  0  0  0
   -0.7098   13.0914    0.3566 H   0  0  0  0  0  0  0  0  0  0  0  0
    1.0803   12.9414    0.3566 H   0  0  0  0  0  0  0  0  0  0  0  0
   -0.2530   14.2499   -3.0810 H   0  0  0  0  0  0  0  0  0  0  0  0
   -2.2249   13.7526   -1.5004 H   0  0  0  0  0  0  0  0  0  0  0  0
   -2.0496   12.8759   -3.1101 H   0  0  0  0  0  0  0  0  0  0  0  0
   -2.7938   11.4043   -1.0564 H   0  0  0  0  0  0  0  0  0  0  0  0
    1.2402   11.3276   -0.8962 H   0  0  0  0  0  0  0  0  0  0  0  0
    0.5381    9.5887   -3.3416 H   0  0  0  0  0  0  0  0  0  0  0  0
    2.2030    9.9756   -2.7187 H   0  0  0  0  0  0  0  0  0  0  0  0
    1.4721    7.6992   -2.0831 H   0  0  0  0  0  0  0  0  0  0  0  0
    1.7433    8.7769   -0.6578 H   0  0  0  0  0  0  0  0  0  0  0  0
   -0.2632    7.5104   -0.2975 H   0  0  0  0  0  0  0  0  0  0  0  0
   -0.8320    8.4430   -2.9340 H   0  0  0  0  0  0  0  0  0  0  0  0
   -0.9829    9.5320    1.8291 H   0  0  0  0  0  0  0  0  0  0  0  0
    0.6113    9.1408    1.0997 H   0  0  0  0  0  0  0  0  0  0  0  0
    0.0151   10.8353    1.0997 H   0  0  0  0  0  0  0  0  0  0  0  0
   -2.5923    9.1454    1.0515 H   0  0  0  0  0  0  0  0  0  0  0  0
   -3.1059    9.9454   -0.4726 H   0  0  0  0  0  0  0  0  0  0  0  0
   -2.6844    8.1993   -0.4726 H   0  0  0  0  0  0  0  0  0  0  0  0
   -0.3530   11.2336   -4.1785 H   0  0  0  0  0  0  0  0  0  0  0  0
    0.0409   12.9156   -4.6710 H   0  0  0  0  0  0  0  0  0  0  0  0
    1.3220   11.6564   -4.6710 H   0  0  0  0  0  0  0  0  0  0  0  0
    2.8937   11.9285   -2.5923 H   0  0  0  0  0  0  0  0  0  0  0  0
    2.4006   13.4004   -3.6050 H   0  0  0  0  0  0  0  0  0  0  0  0
    2.7141   13.2482   -0.5951 H   0  0  0  0  0  0  0  0  0  0  0  0
    3.6966   14.1875   -1.7867 H   0  0  0  0  0  0  0  0  0  0  0  0
    1.8636   16.8474   -2.5650 H   0  0  0  0  0  0  0  0  0  0  0  0
    2.6594   15.4484   -3.3627 H   0  0  0  0  0  0  0  0  0  0  0  0
    0.8682   15.5826   -3.3627 H   0  0  0  0  0  0  0  0  0  0  0  0
  1  2  1  0
  2  3  1  0
  3  4  1  0
  4  5  1  0
  5  6  1  0
  6  7  1  0
  7  8  1  0
  7  9  1  0
  2 10  1  0
 10 11  1  0
 11 12  1  0
 12 13  1  0
 13 14  1  1
 13 15  1  0
 15 16  1  0
 16 17  1  0
 17 18  2  0
 18 19  1  0
 19 20  1  0
 20 21  1  0
 21 22  1  0
 22 23  1  0
 22 24  1  0
 24 25  1  0
 24 26  1  0
 19 27  1  0
 27 28  1  6
 27 29  1  0
 29 30  1  0
 30 31  1  0
 31 32  1  6
  7  5  1  0
 31 10  1  0
 31 13  1  0
 27 15  1  0
 24 18  1  0
  1 33  1  0
  1 34  1  0
  1 35  1  0
  2 36  1  6
  3 37  1  0
  3 38  1  0
  4 39  1  0
  4 40  1  0
  5 41  1  6
  8 42  1  0
  8 43  1  0
  8 44  1  0
  9 45  1  0
  9 46  1  0
  9 47  1  0
 10 48  1  1
 11 49  1  0
 11 50  1  0
 12 51  1  0
 12 52  1  0
 14 53  1  0
 14 54  1  0
 14 55  1  0
 15 56  1  6
 16 57  1  0
 16 58  1  0
 17 59  1  0
 19 60  1  1
 20 61  1  0
 20 62  1  0
 21 63  1  0
 21 64  1  0
 22 65  1  1
 23 66  1  0
 25 67  1  0
 25 68  1  0
 25 69  1  0
 26 70  1  0
 26 71  1  0
 26 72  1  0
 28 73  1  0
 28 74  1  0
 28 75  1  0
 29 76  1  0
 29 77  1  0
 30 78  1  0
 30 79  1  0
 32 80  1  0
 32 81  1  0
 32 82  1  0
M  END
>  <meeko>  (8) 
{"is_sidechain": [false], "intermolecular_energy": 2.731, "internal_energy": -0.839}

$$$$
EPH_relaxed_0001_pdb2pqr_Repair_241_r2_0001_out
     RDKit          3D

 82 86  0  0  0  0  0  0  0  0999 V2000
    0.4040    8.8760   -2.5410 C   0  0  0  0  0  0  0  0  0  0  0  0
    1.1710   10.0370   -3.1790 C   0  0  2  0  0  0  0  0  0  0  0  0
    2.6620   10.0330   -2.7870 C   0  0  0  0  0  0  0  0  0  0  0  0
    3.5840   10.6130   -3.8630 C   0  0  0  0  0  0  0  0  0  0  0  0
    4.9740   10.8280   -3.3450 C   0  0  2  0  0  0  0  0  0  0  0  0
    5.5880   12.0520   -3.7690 O   0  0  0  0  0  0  0  0  0  0  0  0
    6.2050   10.8400   -4.2330 C   0  0  0  0  0  0  0  0  0  0  0  0
    6.1030   10.6320   -5.7110 C   0  0  0  0  0  0  0  0  0  0  0  0
    7.5380   10.5660   -3.6100 C   0  0  0  0  0  0  0  0  0  0  0  0
    0.5320   11.3630   -2.7840 C   0  0  1  0  0  0  0  0  0  0  0  0
   -0.8390   11.1790   -2.0810 C   0  0  0  0  0  0  0  0  0  0  0  0
   -0.9490   12.2990   -1.0150 C   0  0  0  0  0  0  0  0  0  0  0  0
    0.1950   13.2800   -1.3600 C   0  0  1  0  0  0  0  0  0  0  0  0
   -0.3650   14.1570   -2.5230 C   0  0  0  0  0  0  0  0  0  0  0  0
    0.7330   14.1570   -0.1830 C   0  0  2  0  0  0  0  0  0  0  0  0
   -0.2960   15.1210    0.4350 C   0  0  0  0  0  0  0  0  0  0  0  0
   -0.3480   16.4790   -0.1820 C   0  0  0  0  0  0  0  0  0  0  0  0
    0.5870   17.0050   -0.9960 C   0  0  0  0  0  0  0  0  0  0  0  0
    1.8880   16.2480   -1.2940 C   0  0  1  0  0  0  0  0  0  0  0  0
    3.0930   17.2160   -1.1560 C   0  0  0  0  0  0  0  0  0  0  0  0
    2.9380   18.4690   -2.0120 C   0  0  0  0  0  0  0  0  0  0  0  0
    1.6630   19.2250   -1.6470 C   0  0  2  0  0  0  0  0  0  0  0  0
    1.7970   19.7410   -0.3190 O   0  0  0  0  0  0  0  0  0  0  0  0
    0.3830   18.3480   -1.7390 C   0  0  0  0  0  0  0  0  0  0  0  0
    0.0700   18.0390   -3.2240 C   0  0  0  0  0  0  0  0  0  0  0  0
   -0.8110   19.1880   -1.2100 C   0  0  0  0  0  0  0  0  0  0  0  0
    2.1000   14.8920   -0.4930 C   0  0  1  0  0  0  0  0  0  0  0  0
    2.7690   15.1860    0.8840 C   0  0  0  0  0  0  0  0  0  0  0  0
    3.1030   13.9760   -1.2890 C   0  0  0  0  0  0  0  0  0  0  0  0
    2.4980   13.0450   -2.3560 C   0  0  0  0  0  0  0  0  0  0  0  0
    1.3120   12.2600   -1.7890 C   0  0  2  0  0  0  0  0  0  0  0  0
    1.8490   11.3510   -0.6320 C   0  0  0  0  0  0  0  0  0  0  0  0
    0.4585    8.9586   -1.4455 H   0  0  0  0  0  0  0  0  0  0  0  0
   -0.6482    8.9126   -2.8595 H   0  0  0  0  0  0  0  0  0  0  0  0
    0.8505    7.9225   -2.8595 H   0  0  0  0  0  0  0  0  0  0  0  0
    1.1161    9.9091   -4.2702 H   0  0  0  0  0  0  0  0  0  0  0  0
    2.7813   10.6285   -1.8699 H   0  0  0  0  0  0  0  0  0  0  0  0
    2.9541    8.9818   -2.6466 H   0  0  0  0  0  0  0  0  0  0  0  0
    3.6240    9.9150   -4.7122 H   0  0  0  0  0  0  0  0  0  0  0  0
    3.1789   11.5877   -4.1726 H   0  0  0  0  0  0  0  0  0  0  0  0
    4.7382   10.2850   -2.4179 H   0  0  0  0  0  0  0  0  0  0  0  0
    5.6269    9.6611   -5.9126 H   0  0  0  0  0  0  0  0  0  0  0  0
    5.4972   11.4364   -6.1535 H   0  0  0  0  0  0  0  0  0  0  0  0
    7.1100   10.6455   -6.1535 H   0  0  0  0  0  0  0  0  0  0  0  0
    7.4417   10.5858   -2.5144 H   0  0  0  0  0  0  0  0  0  0  0  0
    7.8952    9.5757   -3.9289 H   0  0  0  0  0  0  0  0  0  0  0  0
    8.2568   11.3352   -3.9289 H   0  0  0  0  0  0  0  0  0  0  0  0
    0.4861   11.8471   -3.7707 H   0  0  0  0  0  0  0  0  0  0  0  0
   -1.6552   11.2710   -2.8127 H   0  0  0  0  0  0  0  0  0  0  0  0
   -0.9149   10.1842   -1.6178 H   0  0  0  0  0  0  0  0  0  0  0  0
   -1.9249   12.8023   -1.0800 H   0  0  0  0  0  0  0  0  0  0  0  0
   -0.8684   11.9084    0.0101 H   0  0  0  0  0  0  0  0  0  0  0  0
   -0.9125   15.0145   -2.1047 H   0  0  0  0  0  0  0  0  0  0  0  0
    0.4684   14.5207   -3.1420 H   0  0  0  0  0  0  0  0  0  0  0  0
   -1.0456   13.5540   -3.1420 H   0  0  0  0  0  0  0  0  0  0  0  0
    0.9440   13.4063    0.5929 H   0  0  0  0  0  0  0  0  0  0  0  0
   -1.2918   14.6643    0.3360 H   0  0  0  0  0  0  0  0  0  0  0  0
    0.0174   15.2726    1.4785 H   0  0  0  0  0  0  0  0  0  0  0  0
   -1.2243   17.1031    0.0476 H   0  0  0  0  0  0  0  0  0  0  0  0
    1.8060   15.8994   -2.3341 H   0  0  0  0  0  0  0  0  0  0  0  0
    3.1838   17.5180   -0.1022 H   0  0  0  0  0  0  0  0  0  0  0  0
    3.9905   16.6833   -1.5034 H   0  0  0  0  0  0  0  0  0  0  0  0
    3.8051   19.1259   -1.8490 H   0  0  0  0  0  0  0  0  0  0  0  0
    2.8771   18.1673   -3.0681 H   0  0  0  0  0  0  0  0  0  0  0  0
    1.5406   20.0371   -2.3788 H   0  0  0  0  0  0  0  0  0  0  0  0
    1.2080   19.2260    0.2580 H   0  0  0  0  0  0  0  0  0  0  0  0
   -0.7117   17.2672   -3.2810 H   0  0  0  0  0  0  0  0  0  0  0  0
   -0.2813   18.9543   -3.7228 H   0  0  0  0  0  0  0  0  0  0  0  0
    0.9807   17.6760   -3.7228 H   0  0  0  0  0  0  0  0  0  0  0  0
   -0.8040   19.1831   -0.1100 H   0  0  0  0  0  0  0  0  0  0  0  0
   -0.7207   20.2226   -1.5726 H   0  0  0  0  0  0  0  0  0  0  0  0
   -1.7542   18.7534   -1.5726 H   0  0  0  0  0  0  0  0  0  0  0  0
    2.0877   14.8866    1.6940 H   0  0  0  0  0  0  0  0  0  0  0  0
    3.7070   14.6172    0.9648 H   0  0  0  0  0  0  0  0  0  0  0  0
    2.9843   16.2617    0.9648 H   0  0  0  0  0  0  0  0  0  0  0  0
    3.8258   14.6342   -1.7933 H   0  0  0  0  0  0  0  0  0  0  0  0
    3.5384   13.3038   -0.5349 H   0  0  0  0  0  0  0  0  0  0  0  0
    2.1549   13.6497   -3.2084 H   0  0  0  0  0  0  0  0  0  0  0  0
    3.2704   12.3306   -2.6770 H   0  0  0  0  0  0  0  0  0  0  0  0
    1.5851   11.7978    0.3379 H   0  0  0  0  0  0  0  0  0  0  0  0
    1.3963   10.3516   -0.7107 H   0  0  0  0  0  0  0  0  0  0  0  0
    2.9428   11.2652   -0.7107 H   0  0  0  0  0  0  0  0  0  0  0  0
  1  2  1  0
  2  3  1  0
  3  4  1  0
  4  5  1  0
  5  6  1  0
  6  7  1  0
  7  8  1  0
  7  9  1  0
  2 10  1  0
 10 11  1  0
 11 12  1  0
 12 13  1  0
 13 14  1  6
 13 15  1  0
 15 16  1  0
 16 17  1  0
 17 18  2  0
 18 19  1  0
 19 20  1  0
 20 21  1  0
 21 22  1  0
 22 23  1  0
 22 24  1  0
 24 25  1  0
 24 26  1  0
 19 27  1  0
 27 28  1  1
 27 29  1  0
 29 30  1  0
 30 31  1  0
 31 32  1  1
  7  5  1  0
 31 10  1  0
 31 13  1  0
 27 15  1  0
 24 18  1  0
  1 33  1  0
  1 34  1  0
  1 35  1  0
  2 36  1  6
  3 37  1  0
  3 38  1  0
  4 39  1  0
  4 40  1  0
  5 41  1  1
  8 42  1  0
  8 43  1  0
  8 44  1  0
  9 45  1  0
  9 46  1  0
  9 47  1  0
 10 48  1  6
 11 49  1  0
 11 50  1  0
 12 51  1  0
 12 52  1  0
 14 53  1  0
 14 54  1  0
 14 55  1  0
 15 56  1  1
 16 57  1  0
 16 58  1  0
 17 59  1  0
 19 60  1  6
 20 61  1  0
 20 62  1  0
 21 63  1  0
 21 64  1  0
 22 65  1  6
 23 66  1  0
 25 67  1  0
 25 68  1  0
 25 69  1  0
 26 70  1  0
 26 71  1  0
 26 72  1  0
 28 73  1  0
 28 74  1  0
 28 75  1  0
 29 76  1  0
 29 77  1  0
 30 78  1  0
 30 79  1  0
 32 80  1  0
 32 81  1  0
 32 82  1  0
M  END
>  <meeko>  (9) 
{"is_sidechain": [false], "intermolecular_energy": 2.731, "internal_energy": -0.839}

$$$$
EPH_relaxed_0001_pdb2pqr_Repair_241_r2_0001_out
     RDKit          3D

 82 86  0  0  0  0  0  0  0  0999 V2000
   -0.3010   10.4930   -3.9550 C   0  0  0  0  0  0  0  0  0  0  0  0
    0.9140   10.3280   -3.0390 C   0  0  2  0  0  0  0  0  0  0  0  0
    0.8770    8.9980   -2.2580 C   0  0  0  0  0  0  0  0  0  0  0  0
   -0.5270    8.5940   -1.7990 C   0  0  0  0  0  0  0  0  0  0  0  0
   -0.7690    8.9620   -0.3670 C   0  0  2  0  0  0  0  0  0  0  0  0
   -2.1490    8.9850    0.0210 O   0  0  0  0  0  0  0  0  0  0  0  0
   -1.4580   10.2440    0.0620 C   0  0  0  0  0  0  0  0  0  0  0  0
   -1.9470   11.2410   -0.9410 C   0  0  0  0  0  0  0  0  0  0  0  0
   -1.2190   10.7550    1.4490 C   0  0  0  0  0  0  0  0  0  0  0  0
    0.9960   11.5000   -2.0680 C   0  0  1  0  0  0  0  0  0  0  0  0
    2.0570   11.2820   -0.9560 C   0  0  0  0  0  0  0  0  0  0  0  0
    2.6730   12.6710   -0.6470 C   0  0  0  0  0  0  0  0  0  0  0  0
    1.7270   13.6790   -1.3400 C   0  0  1  0  0  0  0  0  0  0  0  0
    0.5300   13.8510   -0.3530 C   0  0  0  0  0  0  0  0  0  0  0  0
    2.3540   15.0570   -1.7320 C   0  0  2  0  0  0  0  0  0  0  0  0
    2.8610   15.9030   -0.5510 C   0  0  0  0  0  0  0  0  0  0  0  0
    1.8610   16.8420    0.0370 C   0  0  0  0  0  0  0  0  0  0  0  0
    0.7010   17.2100   -0.5380 C   0  0  0  0  0  0  0  0  0  0  0  0
    0.3410   16.7420   -1.9540 C   0  0  1  0  0  0  0  0  0  0  0  0
   -0.1790   17.9470   -2.7810 C   0  0  0  0  0  0  0  0  0  0  0  0
   -1.3330   18.6730   -2.0950 C   0  0  0  0  0  0  0  0  0  0  0  0
   -0.9180   19.1730   -0.7140 C   0  0  2  0  0  0  0  0  0  0  0  0
    0.0730   20.1940   -0.8720 O   0  0  0  0  0  0  0  0  0  0  0  0
   -0.3680   18.0480    0.2060 C   0  0  0  0  0  0  0  0  0  0  0  0
   -1.5230   17.1040    0.6210 C   0  0  0  0  0  0  0  0  0  0  0  0
    0.1450   18.7080    1.5140 C   0  0  0  0  0  0  0  0  0  0  0  0
    1.4640   15.9170   -2.7180 C   0  0  1  0  0  0  0  0  0  0  0  0
    2.4320   16.8930   -3.4550 C   0  0  0  0  0  0  0  0  0  0  0  0
    0.7860   15.0370   -3.8340 C   0  0  0  0  0  0  0  0  0  0  0  0
    0.2950   13.6390   -3.4130 C   0  0  0  0  0  0  0  0  0  0  0  0
    1.3860   12.8810   -2.6510 C   0  0  2  0  0  0  0  0  0  0  0  0
    2.5950   12.6740   -3.6260 C   0  0  0  0  0  0  0  0  0  0  0  0
   -1.2071   10.6161   -3.3436 H   0  0  0  0  0  0  0  0  0  0  0  0
   -0.1637   11.3807   -4.5899 H   0  0  0  0  0  0  0  0  0  0  0  0
   -0.4054    9.6008   -4.5899 H   0  0  0  0  0  0  0  0  0  0  0  0
    1.8095   10.3108   -3.6776 H   0  0  0  0  0  0  0  0  0  0  0  0
    1.2727    8.2028   -2.9069 H   0  0  0  0  0  0  0  0  0  0  0  0
    1.4838    9.1399   -1.3515 H   0  0  0  0  0  0  0  0  0  0  0  0
   -1.2692    9.1061   -2.4290 H   0  0  0  0  0  0  0  0  0  0  0  0
   -0.6173    7.5017   -1.8924 H   0  0  0  0  0  0  0  0  0  0  0  0
    0.1801    8.4967   -0.0627 H   0  0  0  0  0  0  0  0  0  0  0  0
   -2.3729   12.1094   -0.4171 H   0  0  0  0  0  0  0  0  0  0  0  0
   -1.1074   11.5687   -1.5716 H   0  0  0  0  0  0  0  0  0  0  0  0
   -2.7201   10.7777   -1.5716 H   0  0  0  0  0  0  0  0  0  0  0  0
   -1.5675   10.0099    2.1794 H   0  0  0  0  0  0  0  0  0  0  0  0
   -0.1434   10.9347    1.5933 H   0  0  0  0  0  0  0  0  0  0  0  0
   -1.7705   11.6957    1.5933 H   0  0  0  0  0  0  0  0  0  0  0  0
   -0.0462   11.5210   -1.7167 H   0  0  0  0  0  0  0  0  0  0  0  0
    1.5812   10.8695   -0.0541 H   0  0  0  0  0  0  0  0  0  0  0  0
    2.8302   10.5707   -1.2818 H   0  0  0  0  0  0  0  0  0  0  0  0
    2.7037   12.8497    0.4380 H   0  0  0  0  0  0  0  0  0  0  0  0
    3.7095   12.7571   -1.0050 H   0  0  0  0  0  0  0  0  0  0  0  0
    0.8979   13.7981    0.6823 H   0  0  0  0  0  0  0  0  0  0  0  0
    0.0520   14.8271   -0.5229 H   0  0  0  0  0  0  0  0  0  0  0  0
   -0.2035   13.0490   -0.5229 H   0  0  0  0  0  0  0  0  0  0  0  0
    3.2520   14.7564   -2.2917 H   0  0  0  0  0  0  0  0  0  0  0  0
    3.1897   15.2160    0.2427 H   0  0  0  0  0  0  0  0  0  0  0  0
    3.6693   16.5319   -0.9524 H   0  0  0  0  0  0  0  0  0  0  0  0
    2.0915   17.2696    1.0239 H   0  0  0  0  0  0  0  0  0  0  0  0
   -0.4603   15.9981   -1.8338 H   0  0  0  0  0  0  0  0  0  0  0  0
    0.6478   18.6577   -2.9268 H   0  0  0  0  0  0  0  0  0  0  0  0
   -0.5521   17.5579   -3.7398 H   0  0  0  0  0  0  0  0  0  0  0  0
   -1.6364   19.5312   -2.7125 H   0  0  0  0  0  0  0  0  0  0  0  0
   -2.1702   17.9694   -1.9770 H   0  0  0  0  0  0  0  0  0  0  0  0
   -1.8192   19.5669   -0.2215 H   0  0  0  0  0  0  0  0  0  0  0  0
    0.7380   20.0680   -0.1740 H   0  0  0  0  0  0  0  0  0  0  0  0
   -1.5813   17.0564    1.7184 H   0  0  0  0  0  0  0  0  0  0  0  0
   -2.4725   17.4879    0.2197 H   0  0  0  0  0  0  0  0  0  0  0  0
   -1.3358   16.0971    0.2197 H   0  0  0  0  0  0  0  0  0  0  0  0
   -0.2701   18.1739    2.3814 H   0  0  0  0  0  0  0  0  0  0  0  0
    1.2434   18.6577    1.5437 H   0  0  0  0  0  0  0  0  0  0  0  0
   -0.1748   19.7601    1.5437 H   0  0  0  0  0  0  0  0  0  0  0  0
    3.0046   17.4704   -2.7142 H   0  0  0  0  0  0  0  0  0  0  0  0
    3.1247   16.3160   -4.0853 H   0  0  0  0  0  0  0  0  0  0  0  0
    1.8493   17.5809   -4.0853 H   0  0  0  0  0  0  0  0  0  0  0  0
   -0.0826   15.5940   -4.2151 H   0  0  0  0  0  0  0  0  0  0  0  0
    1.5771   14.8530   -4.5758 H   0  0  0  0  0  0  0  0  0  0  0  0
   -0.5872   13.7476   -2.7650 H   0  0  0  0  0  0  0  0  0  0  0  0
    0.0398   13.0695   -4.3188 H   0  0  0  0  0  0  0  0  0  0  0  0
    3.5140   12.5167   -3.0423 H   0  0  0  0  0  0  0  0  0  0  0  0
    2.4083   11.7947   -4.2601 H   0  0  0  0  0  0  0  0  0  0  0  0
    2.7115   13.5653   -4.2601 H   0  0  0  0  0  0  0  0  0  0  0  0
  1  2  1  0
  2  3  1  0
  3  4  1  0
  4  5  1  0
  5  6  1  0
  6  7  1  0
  7  8  1  0
  7  9  1  0
  2 10  1  0
 10 11  1  0
 11 12  1  0
 12 13  1  0
 13 14  1  1
 13 15  1  0
 15 16  1  0
 16 17  1  0
 17 18  2  0
 18 19  1  0
 19 20  1  0
 20 21  1  0
 21 22  1  0
 22 23  1  0
 22 24  1  0
 24 25  1  0
 24 26  1  0
 19 27  1  0
 27 28  1  6
 27 29  1  0
 29 30  1  0
 30 31  1  0
 31 32  1  6
  7  5  1  0
 31 10  1  0
 31 13  1  0
 27 15  1  0
 24 18  1  0
  1 33  1  0
  1 34  1  0
  1 35  1  0
  2 36  1  6
  3 37  1  0
  3 38  1  0
  4 39  1  0
  4 40  1  0
  5 41  1  1
  8 42  1  0
  8 43  1  0
  8 44  1  0
  9 45  1  0
  9 46  1  0
  9 47  1  0
 10 48  1  1
 11 49  1  0
 11 50  1  0
 12 51  1  0
 12 52  1  0
 14 53  1  0
 14 54  1  0
 14 55  1  0
 15 56  1  6
 16 57  1  0
 16 58  1  0
 17 59  1  0
 19 60  1  1
 20 61  1  0
 20 62  1  0
 21 63  1  0
 21 64  1  0
 22 65  1  1
 23 66  1  0
 25 67  1  0
 25 68  1  0
 25 69  1  0
 26 70  1  0
 26 71  1  0
 26 72  1  0
 28 73  1  0
 28 74  1  0
 28 75  1  0
 29 76  1  0
 29 77  1  0
 30 78  1  0
 30 79  1  0
 32 80  1  0
 32 81  1  0
 32 82  1  0
M  END
>  <meeko>  (10) 
{"is_sidechain": [false], "intermolecular_energy": 2.731, "internal_energy": -0.839}

$$$$
EPH_relaxed_0001_pdb2pqr_Repair_241_r2_0001_out
     RDKit          3D

 82 86  0  0  0  0  0  0  0  0999 V2000
    1.7200   19.7250   -1.3520 C   0  0  0  0  0  0  0  0  0  0  0  0
    1.7760   19.2390    0.0990 C   0  0  2  0  0  0  0  0  0  0  0  0
    3.2250   19.0990    0.6090 C   0  0  0  0  0  0  0  0  0  0  0  0
    3.3970   19.4690    2.0840 C   0  0  0  0  0  0  0  0  0  0  0  0
    4.8260   19.7720    2.4170 C   0  0  2  0  0  0  0  0  0  0  0  0
    5.6590   18.6180    2.5880 O   0  0  0  0  0  0  0  0  0  0  0  0
    5.4640   19.4380    3.7520 C   0  0  0  0  0  0  0  0  0  0  0  0
    4.6860   18.7710    4.8430 C   0  0  0  0  0  0  0  0  0  0  0  0
    6.6880   20.1920    4.1700 C   0  0  0  0  0  0  0  0  0  0  0  0
    1.0460   17.9070    0.2310 C   0  0  1  0  0  0  0  0  0  0  0  0
   -0.4950   18.0580    0.1260 C   0  0  0  0  0  0  0  0  0  0  0  0
   -1.0210   16.7900   -0.5940 C   0  0  0  0  0  0  0  0  0  0  0  0
    0.1770   15.8100   -0.5830 C   0  0  1  0  0  0  0  0  0  0  0  0
    0.1540   15.1660    0.8390 C   0  0  0  0  0  0  0  0  0  0  0  0
    0.1920   14.7260   -1.7080 C   0  0  2  0  0  0  0  0  0  0  0  0
   -0.9880   13.7380   -1.6800 C   0  0  0  0  0  0  0  0  0  0  0  0
   -0.7650   12.5020   -0.8730 C   0  0  0  0  0  0  0  0  0  0  0  0
    0.4270   12.0590   -0.4340 C   0  0  0  0  0  0  0  0  0  0  0  0
    1.7270   12.7740   -0.8250 C   0  0  1  0  0  0  0  0  0  0  0  0
    2.7790   11.7270   -1.2750 C   0  0  0  0  0  0  0  0  0  0  0  0
    3.0050   10.6390   -0.2300 C   0  0  0  0  0  0  0  0  0  0  0  0
    1.7020    9.9120    0.0900 C   0  0  2  0  0  0  0  0  0  0  0  0
    1.2840    9.1830   -1.0680 O   0  0  0  0  0  0  0  0  0  0  0  0
    0.5630   10.8670    0.5450 C   0  0  0  0  0  0  0  0  0  0  0  0
    0.8850   11.4270    1.9520 C   0  0  0  0  0  0  0  0  0  0  0  0
   -0.7330   10.0250    0.6990 C   0  0  0  0  0  0  0  0  0  0  0  0
    1.5740   13.9700   -1.8610 C   0  0  1  0  0  0  0  0  0  0  0  0
    1.6220   13.4200   -3.3200 C   0  0  0  0  0  0  0  0  0  0  0  0
    2.8060   14.9400   -1.7120 C   0  0  0  0  0  0  0  0  0  0  0  0
    2.6820   16.0640   -0.6660 C   0  0  0  0  0  0  0  0  0  0  0  0
    1.3580   16.8180   -0.8260 C   0  0  2  0  0  0  0  0  0  0  0  0
    1.3620   17.4960   -2.2390 C   0  0  0  0  0  0  0  0  0  0  0  0
    1.5941   20.8177   -1.3681 H   0  0  0  0  0  0  0  0  0  0  0  0
    2.6551   19.4560   -1.8651 H   0  0  0  0  0  0  0  0  0  0  0  0
    0.8706   19.2504   -1.8651 H   0  0  0  0  0  0  0  0  0  0  0  0
    1.2787   19.9978    0.7210 H   0  0  0  0  0  0  0  0  0  0  0  0
    3.5411   18.0541    0.4740 H   0  0  0  0  0  0  0  0  0  0  0  0
    3.8395   19.8021    0.0276 H   0  0  0  0  0  0  0  0  0  0  0  0
    2.7843   20.3560    2.3027 H   0  0  0  0  0  0  0  0  0  0  0  0
    3.0783   18.6096    2.6922 H   0  0  0  0  0  0  0  0  0  0  0  0
    4.7897   20.7009    1.8289 H   0  0  0  0  0  0  0  0  0  0  0  0
    5.0693   19.0996    5.8203 H   0  0  0  0  0  0  0  0  0  0  0  0
    3.6239   19.0435    4.7552 H   0  0  0  0  0  0  0  0  0  0  0  0
    4.7931   17.6797    4.7552 H   0  0  0  0  0  0  0  0  0  0  0  0
    6.7412   20.2248    5.2682 H   0  0  0  0  0  0  0  0  0  0  0  0
    7.5821   19.6879    3.7744 H   0  0  0  0  0  0  0  0  0  0  0  0
    6.6400   21.2173    3.7744 H   0  0  0  0  0  0  0  0  0  0  0  0
    1.4150   17.5907    1.2178 H   0  0  0  0  0  0  0  0  0  0  0  0
   -0.9374   18.1343    1.1302 H   0  0  0  0  0  0  0  0  0  0  0  0
   -0.7656   18.9682   -0.4293 H   0  0  0  0  0  0  0  0  0  0  0  0
   -1.8774   16.3626   -0.0519 H   0  0  0  0  0  0  0  0  0  0  0  0
   -1.3747   17.0052   -1.6131 H   0  0  0  0  0  0  0  0  0  0  0  0
    0.1823   15.9588    1.6010 H   0  0  0  0  0  0  0  0  0  0  0  0
   -0.7658   14.5748    0.9589 H   0  0  0  0  0  0  0  0  0  0  0  0
    1.0293   14.5107    0.9589 H   0  0  0  0  0  0  0  0  0  0  0  0
    0.0545   15.3294   -2.6174 H   0  0  0  0  0  0  0  0  0  0  0  0
   -1.8609   14.2626   -1.2643 H   0  0  0  0  0  0  0  0  0  0  0  0
   -1.1292   13.4026   -2.7181 H   0  0  0  0  0  0  0  0  0  0  0  0
   -1.6506   11.9025   -0.6154 H   0  0  0  0  0  0  0  0  0  0  0  0
    2.0774   13.2875    0.0825 H   0  0  0  0  0  0  0  0  0  0  0  0
    2.4312   11.2552   -2.2058 H   0  0  0  0  0  0  0  0  0  0  0  0
    3.7336   12.2539   -1.4205 H   0  0  0  0  0  0  0  0  0  0  0  0
    3.7361    9.9141   -0.6172 H   0  0  0  0  0  0  0  0  0  0  0  0
    3.3805   11.1089    0.6910 H   0  0  0  0  0  0  0  0  0  0  0  0
    1.9009    9.2360    0.9347 H   0  0  0  0  0  0  0  0  0  0  0  0
    1.7220    9.5800   -1.8400 H   0  0  0  0  0  0  0  0  0  0  0  0
    0.4914   10.7426    2.7179 H   0  0  0  0  0  0  0  0  0  0  0  0
    1.9748   11.5205    2.0689 H   0  0  0  0  0  0  0  0  0  0  0  0
    0.4176   12.4159    2.0689 H   0  0  0  0  0  0  0  0  0  0  0  0
   -0.9527    9.8822    1.7673 H   0  0  0  0  0  0  0  0  0  0  0  0
   -1.5714   10.5514    0.2194 H   0  0  0  0  0  0  0  0  0  0  0  0
   -0.5928    9.0451    0.2194 H   0  0  0  0  0  0  0  0  0  0  0  0
    1.7176   12.3244   -3.2959 H   0  0  0  0  0  0  0  0  0  0  0  0
    0.6964   13.6958   -3.8465 H   0  0  0  0  0  0  0  0  0  0  0  0
    2.4859   13.8520   -3.8465 H   0  0  0  0  0  0  0  0  0  0  0  0
    3.6800   14.3290   -1.4420 H   0  0  0  0  0  0  0  0  0  0  0  0
    2.8856   15.4554   -2.6805 H   0  0  0  0  0  0  0  0  0  0  0  0
    2.7264   15.6246    0.3414 H   0  0  0  0  0  0  0  0  0  0  0  0
    3.5097   16.7733   -0.8134 H   0  0  0  0  0  0  0  0  0  0  0  0
    1.3685   18.5896   -2.1209 H   0  0  0  0  0  0  0  0  0  0  0  0
    2.2583   17.1818   -2.7939 H   0  0  0  0  0  0  0  0  0  0  0  0
    0.4620   17.1924   -2.7939 H   0  0  0  0  0  0  0  0  0  0  0  0
  1  2  1  0
  2  3  1  0
  3  4  1  0
  4  5  1  0
  5  6  1  0
  6  7  1  0
  7  8  1  0
  7  9  1  0
  2 10  1  0
 10 11  1  0
 11 12  1  0
 12 13  1  0
 13 14  1  1
 13 15  1  0
 15 16  1  0
 16 17  1  0
 17 18  2  0
 18 19  1  0
 19 20  1  0
 20 21  1  0
 21 22  1  0
 22 23  1  0
 22 24  1  0
 24 25  1  0
 24 26  1  0
 19 27  1  0
 27 28  1  6
 27 29  1  0
 29 30  1  0
 30 31  1  0
 31 32  1  6
  7  5  1  0
 31 10  1  0
 31 13  1  0
 27 15  1  0
 24 18  1  0
  1 33  1  0
  1 34  1  0
  1 35  1  0
  2 36  1  1
  3 37  1  0
  3 38  1  0
  4 39  1  0
  4 40  1  0
  5 41  1  6
  8 42  1  0
  8 43  1  0
  8 44  1  0
  9 45  1  0
  9 46  1  0
  9 47  1  0
 10 48  1  1
 11 49  1  0
 11 50  1  0
 12 51  1  0
 12 52  1  0
 14 53  1  0
 14 54  1  0
 14 55  1  0
 15 56  1  6
 16 57  1  0
 16 58  1  0
 17 59  1  0
 19 60  1  1
 20 61  1  0
 20 62  1  0
 21 63  1  0
 21 64  1  0
 22 65  1  1
 23 66  1  0
 25 67  1  0
 25 68  1  0
 25 69  1  0
 26 70  1  0
 26 71  1  0
 26 72  1  0
 28 73  1  0
 28 74  1  0
 28 75  1  0
 29 76  1  0
 29 77  1  0
 30 78  1  0
 30 79  1  0
 32 80  1  0
 32 81  1  0
 32 82  1  0
M  END
>  <meeko>  (11) 
{"is_sidechain": [false], "intermolecular_energy": 2.731, "internal_energy": -0.839}

$$$$
EPH_relaxed_0001_pdb2pqr_Repair_241_r2_0001_out
     RDKit          3D

 82 86  0  0  0  0  0  0  0  0999 V2000
   -3.7490    7.2860   -3.4560 C   0  0  0  0  0  0  0  0  0  0  0  0
   -3.7320    7.3210   -1.9250 C   0  0  2  0  0  0  0  0  0  0  0  0
   -5.1300    7.0760   -1.3220 C   0  0  0  0  0  0  0  0  0  0  0  0
   -6.2720    7.2440   -2.3280 C   0  0  0  0  0  0  0  0  0  0  0  0
   -7.5900    7.4400   -1.6430 C   0  0  2  0  0  0  0  0  0  0  0  0
   -8.1710    6.2430   -1.1090 O   0  0  0  0  0  0  0  0  0  0  0  0
   -8.8980    6.8820   -2.1700 C   0  0  0  0  0  0  0  0  0  0  0  0
   -8.9530    6.0850   -3.4360 C   0  0  0  0  0  0  0  0  0  0  0  0
  -10.1790    7.5180   -1.7260 C   0  0  0  0  0  0  0  0  0  0  0  0
   -3.1840    8.6590   -1.4420 C   0  0  1  0  0  0  0  0  0  0  0  0
   -3.7940    9.0990   -0.0840 C   0  0  0  0  0  0  0  0  0  0  0  0
   -2.6740    9.8390    0.6910 C   0  0  0  0  0  0  0  0  0  0  0  0
   -1.5710   10.0910   -0.3640 C   0  0  1  0  0  0  0  0  0  0  0  0
   -2.0420   11.3590   -1.1430 C   0  0  0  0  0  0  0  0  0  0  0  0
   -0.1160   10.2580    0.1840 C   0  0  2  0  0  0  0  0  0  0  0  0
    0.0960   11.4640    1.1160 C   0  0  0  0  0  0  0  0  0  0  0  0
    0.5060   12.7290    0.4380 C   0  0  0  0  0  0  0  0  0  0  0  0
    0.9730   12.8260   -0.8200 C   0  0  0  0  0  0  0  0  0  0  0  0
    1.2200   11.5720   -1.6680 C   0  0  1  0  0  0  0  0  0  0  0  0
    2.6070   11.6760   -2.3550 C   0  0  0  0  0  0  0  0  0  0  0  0
    2.7670   12.9630   -3.1580 C   0  0  0  0  0  0  0  0  0  0  0  0
    2.5720   14.1880   -2.2690 C   0  0  2  0  0  0  0  0  0  0  0  0
    3.6440   14.2470   -1.3240 O   0  0  0  0  0  0  0  0  0  0  0  0
    1.2110   14.1890   -1.5170 C   0  0  0  0  0  0  0  0  0  0  0  0
    0.0600   14.4290   -2.5240 C   0  0  0  0  0  0  0  0  0  0  0  0
    1.2020   15.4030   -0.5490 C   0  0  0  0  0  0  0  0  0  0  0  0
    1.0080   10.1820   -0.9270 C   0  0  1  0  0  0  0  0  0  0  0  0
    2.3230    9.7600   -0.2020 C   0  0  0  0  0  0  0  0  0  0  0  0
    0.7150    9.0670   -1.9990 C   0  0  0  0  0  0  0  0  0  0  0  0
   -0.7560    8.8690   -2.4110 C   0  0  0  0  0  0  0  0  0  0  0  0
   -1.6590    8.7500   -1.1800 C   0  0  2  0  0  0  0  0  0  0  0  0
   -1.2230    7.4710   -0.3880 C   0  0  0  0  0  0  0  0  0  0  0  0
   -4.2060    6.3450   -3.7962 H   0  0  0  0  0  0  0  0  0  0  0  0
   -4.3345    8.1363   -3.8357 H   0  0  0  0  0  0  0  0  0  0  0  0
   -2.7187    7.3515   -3.8357 H   0  0  0  0  0  0  0  0  0  0  0  0
   -3.0779    6.5054   -1.5830 H   0  0  0  0  0  0  0  0  0  0  0  0
   -5.1630    6.0498   -0.9273 H   0  0  0  0  0  0  0  0  0  0  0  0
   -5.2788    7.8324   -0.5373 H   0  0  0  0  0  0  0  0  0  0  0  0
   -6.0647    8.1205   -2.9595 H   0  0  0  0  0  0  0  0  0  0  0  0
   -6.3332    6.3275   -2.9332 H   0  0  0  0  0  0  0  0  0  0  0  0
   -7.2966    8.4485   -1.3161 H   0  0  0  0  0  0  0  0  0  0  0  0
   -9.0269    5.0148   -3.1926 H   0  0  0  0  0  0  0  0  0  0  0  0
   -9.8323    6.3891   -4.0228 H   0  0  0  0  0  0  0  0  0  0  0  0
   -8.0403    6.2654   -4.0228 H   0  0  0  0  0  0  0  0  0  0  0  0
  -10.2172    7.5370   -0.6268 H   0  0  0  0  0  0  0  0  0  0  0  0
  -10.2310    8.5465   -2.1125 H   0  0  0  0  0  0  0  0  0  0  0  0
  -11.0298    6.9376   -2.1125 H   0  0  0  0  0  0  0  0  0  0  0  0
   -3.4571    9.2910   -2.2999 H   0  0  0  0  0  0  0  0  0  0  0  0
   -4.6468    9.7730   -0.2525 H   0  0  0  0  0  0  0  0  0  0  0  0
   -4.1600    8.2311    0.4841 H   0  0  0  0  0  0  0  0  0  0  0  0
   -3.0468   10.7905    1.0980 H   0  0  0  0  0  0  0  0  0  0  0  0
   -2.3058    9.2573    1.5489 H   0  0  0  0  0  0  0  0  0  0  0  0
   -2.3329   12.1420   -0.4273 H   0  0  0  0  0  0  0  0  0  0  0  0
   -1.2206   11.7270   -1.7753 H   0  0  0  0  0  0  0  0  0  0  0  0
   -2.9045   11.1015   -1.7753 H   0  0  0  0  0  0  0  0  0  0  0  0
    0.0007    9.3664    0.8177 H   0  0  0  0  0  0  0  0  0  0  0  0
   -0.8486   11.6536    1.6469 H   0  0  0  0  0  0  0  0  0  0  0  0
    0.9283   11.1917    1.7817 H   0  0  0  0  0  0  0  0  0  0  0  0
    0.4189   13.6609    1.0159 H   0  0  0  0  0  0  0  0  0  0  0  0
    0.4269   11.5587   -2.4301 H   0  0  0  0  0  0  0  0  0  0  0  0
    3.3874   11.6443   -1.5804 H   0  0  0  0  0  0  0  0  0  0  0  0
    2.6969   10.8323   -3.0551 H   0  0  0  0  0  0  0  0  0  0  0  0
    3.7763   12.9919   -3.5945 H   0  0  0  0  0  0  0  0  0  0  0  0
    2.0046   12.9794   -3.9508 H   0  0  0  0  0  0  0  0  0  0  0  0
    2.5697   15.0729   -2.9224 H   0  0  0  0  0  0  0  0  0  0  0  0
    3.2730   14.0590   -0.4450 H   0  0  0  0  0  0  0  0  0  0  0  0
   -0.8730   14.6236   -1.9748 H   0  0  0  0  0  0  0  0  0  0  0  0
    0.3009   15.2962   -3.1564 H   0  0  0  0  0  0  0  0  0  0  0  0
   -0.0657   13.5378   -3.1564 H   0  0  0  0  0  0  0  0  0  0  0  0
    1.2047   15.0431    0.4905 H   0  0  0  0  0  0  0  0  0  0  0  0
    2.0956   16.0196   -0.7259 H   0  0  0  0  0  0  0  0  0  0  0  0
    0.2994   16.0063   -0.7259 H   0  0  0  0  0  0  0  0  0  0  0  0
    2.1731    9.8081    0.8867 H   0  0  0  0  0  0  0  0  0  0  0  0
    2.5872    8.7320   -0.4907 H   0  0  0  0  0  0  0  0  0  0  0  0
    3.1361   10.4423   -0.4907 H   0  0  0  0  0  0  0  0  0  0  0  0
    1.2835    9.3199   -2.9061 H   0  0  0  0  0  0  0  0  0  0  0  0
    1.0092    8.1219   -1.5191 H   0  0  0  0  0  0  0  0  0  0  0  0
   -1.0801    9.7307   -3.0130 H   0  0  0  0  0  0  0  0  0  0  0  0
   -0.8346    7.9399   -2.9947 H   0  0  0  0  0  0  0  0  0  0  0  0
   -1.2901    7.6680    0.6921 H   0  0  0  0  0  0  0  0  0  0  0  0
   -1.8864    6.6336   -0.6500 H   0  0  0  0  0  0  0  0  0  0  0  0
   -0.1862    7.2132   -0.6500 H   0  0  0  0  0  0  0  0  0  0  0  0
  1  2  1  0
  2  3  1  0
  3  4  1  0
  4  5  1  0
  5  6  1  0
  6  7  1  0
  7  8  1  0
  7  9  1  0
  2 10  1  0
 10 11  1  0
 11 12  1  0
 12 13  1  0
 13 14  1  6
 13 15  1  0
 15 16  1  0
 16 17  1  0
 17 18  2  0
 18 19  1  0
 19 20  1  0
 20 21  1  0
 21 22  1  0
 22 23  1  0
 22 24  1  0
 24 25  1  0
 24 26  1  0
 19 27  1  0
 27 28  1  1
 27 29  1  0
 29 30  1  0
 30 31  1  0
 31 32  1  1
  7  5  1  0
 31 10  1  0
 31 13  1  0
 27 15  1  0
 24 18  1  0
  1 33  1  0
  1 34  1  0
  1 35  1  0
  2 36  1  1
  3 37  1  0
  3 38  1  0
  4 39  1  0
  4 40  1  0
  5 41  1  1
  8 42  1  0
  8 43  1  0
  8 44  1  0
  9 45  1  0
  9 46  1  0
  9 47  1  0
 10 48  1  6
 11 49  1  0
 11 50  1  0
 12 51  1  0
 12 52  1  0
 14 53  1  0
 14 54  1  0
 14 55  1  0
 15 56  1  1
 16 57  1  0
 16 58  1  0
 17 59  1  0
 19 60  1  6
 20 61  1  0
 20 62  1  0
 21 63  1  0
 21 64  1  0
 22 65  1  6
 23 66  1  0
 25 67  1  0
 25 68  1  0
 25 69  1  0
 26 70  1  0
 26 71  1  0
 26 72  1  0
 28 73  1  0
 28 74  1  0
 28 75  1  0
 29 76  1  0
 29 77  1  0
 30 78  1  0
 30 79  1  0
 32 80  1  0
 32 81  1  0
 32 82  1  0
M  END
>  <meeko>  (12) 
{"is_sidechain": [false], "intermolecular_energy": 2.731, "internal_energy": -0.839}

$$$$
EPH_relaxed_0001_pdb2pqr_Repair_241_r2_0001_out
     RDKit          3D

 82 86  0  0  0  0  0  0  0  0999 V2000
   -0.8740   16.3550   -5.8360 C   0  0  0  0  0  0  0  0  0  0  0  0
    0.2100   15.6530   -6.6580 C   0  0  2  0  0  0  0  0  0  0  0  0
   -0.2030   15.4730   -8.1330 C   0  0  0  0  0  0  0  0  0  0  0  0
    0.4370   16.4910   -9.0800 C   0  0  0  0  0  0  0  0  0  0  0  0
    1.8450   16.1150   -9.4280 C   0  0  2  0  0  0  0  0  0  0  0  0
    2.3280   16.6760  -10.6560 O   0  0  0  0  0  0  0  0  0  0  0  0
    2.2090   15.2440  -10.6160 C   0  0  0  0  0  0  0  0  0  0  0  0
    1.1600   14.6950  -11.5320 C   0  0  0  0  0  0  0  0  0  0  0  0
    3.5240   14.5300  -10.6040 C   0  0  0  0  0  0  0  0  0  0  0  0
    0.5360   14.2980   -6.0400 C   0  0  1  0  0  0  0  0  0  0  0  0
    1.7980   13.6440   -6.6630 C   0  0  0  0  0  0  0  0  0  0  0  0
    2.5140   12.8770   -5.5220 C   0  0  0  0  0  0  0  0  0  0  0  0
    1.4810   12.8350   -4.3720 C   0  0  1  0  0  0  0  0  0  0  0  0
    0.5240   11.6560   -4.7350 C   0  0  0  0  0  0  0  0  0  0  0  0
    2.0600   12.6850   -2.9270 C   0  0  2  0  0  0  0  0  0  0  0  0
    2.8330   11.3800   -2.6670 C   0  0  0  0  0  0  0  0  0  0  0  0
    2.0130   10.2440   -2.1540 C   0  0  0  0  0  0  0  0  0  0  0  0
    0.7720   10.3440   -1.6420 C   0  0  0  0  0  0  0  0  0  0  0  0
    0.1060   11.7130   -1.4510 C   0  0  1  0  0  0  0  0  0  0  0  0
   -0.5320   11.7850   -0.0390 C   0  0  0  0  0  0  0  0  0  0  0  0
   -1.4900   10.6290    0.2300 C   0  0  0  0  0  0  0  0  0  0  0  0
   -0.7770    9.2860    0.0870 C   0  0  2  0  0  0  0  0  0  0  0  0
    0.1940    9.1670    1.1310 O   0  0  0  0  0  0  0  0  0  0  0  0
   -0.0870    9.1030   -1.2930 C   0  0  0  0  0  0  0  0  0  0  0  0
   -1.1620    8.9300   -2.3940 C   0  0  0  0  0  0  0  0  0  0  0  0
    0.7120    7.7720   -1.2540 C   0  0  0  0  0  0  0  0  0  0  0  0
    1.0140   12.9760   -1.7760 C   0  0  1  0  0  0  0  0  0  0  0  0
    1.8400   13.3760   -0.5150 C   0  0  0  0  0  0  0  0  0  0  0  0
    0.0860   14.2040   -2.1070 C   0  0  0  0  0  0  0  0  0  0  0  0
   -0.3550   14.3660   -3.5740 C   0  0  0  0  0  0  0  0  0  0  0  0
    0.8440   14.2650   -4.5220 C   0  0  2  0  0  0  0  0  0  0  0  0
    1.8130   15.4520   -4.1950 C   0  0  0  0  0  0  0  0  0  0  0  0
   -0.6662   16.2204   -4.7642 H   0  0  0  0  0  0  0  0  0  0  0  0
   -0.8791   17.4284   -6.0766 H   0  0  0  0  0  0  0  0  0  0  0  0
   -1.8556   15.9206   -6.0766 H   0  0  0  0  0  0  0  0  0  0  0  0
    1.1036   16.2943   -6.6415 H   0  0  0  0  0  0  0  0  0  0  0  0
    0.0934   14.4641   -8.4560 H   0  0  0  0  0  0  0  0  0  0  0  0
   -1.2910   15.6271   -8.1832 H   0  0  0  0  0  0  0  0  0  0  0  0
   -0.1574   16.5410  -10.0042 H   0  0  0  0  0  0  0  0  0  0  0  0
    0.4581   17.4663   -8.5717 H   0  0  0  0  0  0  0  0  0  0  0  0
    2.1195   16.0634   -8.3640 H   0  0  0  0  0  0  0  0  0  0  0  0
    0.3408   14.2663  -10.9361 H   0  0  0  0  0  0  0  0  0  0  0  0
    0.7677   15.5034  -12.1665 H   0  0  0  0  0  0  0  0  0  0  0  0
    1.6006   13.9119  -12.1665 H   0  0  0  0  0  0  0  0  0  0  0  0
    3.8389   14.3590   -9.5640 H   0  0  0  0  0  0  0  0  0  0  0  0
    3.4213   13.5638  -11.1196 H   0  0  0  0  0  0  0  0  0  0  0  0
    4.2784   15.1424  -11.1196 H   0  0  0  0  0  0  0  0  0  0  0  0
   -0.4075   13.7707   -6.2445 H   0  0  0  0  0  0  0  0  0  0  0  0
    1.5077   12.9476   -7.4635 H   0  0  0  0  0  0  0  0  0  0  0  0
    2.4598   14.4040   -7.1039 H   0  0  0  0  0  0  0  0  0  0  0  0
    2.7778   11.8589   -5.8444 H   0  0  0  0  0  0  0  0  0  0  0  0
    3.4546   13.3609   -5.2203 H   0  0  0  0  0  0  0  0  0  0  0  0
    0.1473   11.1919   -3.8116 H   0  0  0  0  0  0  0  0  0  0  0  0
   -0.3221   12.0387   -5.3246 H   0  0  0  0  0  0  0  0  0  0  0  0
    1.0726   10.9067   -5.3246 H   0  0  0  0  0  0  0  0  0  0  0  0
    2.8091   13.4896   -2.8879 H   0  0  0  0  0  0  0  0  0  0  0  0
    3.2955   11.0647   -3.6139 H   0  0  0  0  0  0  0  0  0  0  0  0
    3.5614   11.6107   -1.8757 H   0  0  0  0  0  0  0  0  0  0  0  0
    2.4603    9.2400   -2.1979 H   0  0  0  0  0  0  0  0  0  0  0  0
   -0.6788   11.7804   -2.2188 H   0  0  0  0  0  0  0  0  0  0  0  0
    0.2710   11.7596    0.7124 H   0  0  0  0  0  0  0  0  0  0  0  0
   -1.1110   12.7185    0.0184 H   0  0  0  0  0  0  0  0  0  0  0  0
   -1.8857   10.7196    1.2523 H   0  0  0  0  0  0  0  0  0  0  0  0
   -2.3082   10.6725   -0.5039 H   0  0  0  0  0  0  0  0  0  0  0  0
   -1.5398    8.4971    0.1624 H   0  0  0  0  0  0  0  0  0  0  0  0
    0.1390    9.9690    1.6770 H   0  0  0  0  0  0  0  0  0  0  0  0
   -2.1446    8.7719   -1.9255 H   0  0  0  0  0  0  0  0  0  0  0  0
   -1.1952    9.8344   -3.0193 H   0  0  0  0  0  0  0  0  0  0  0  0
   -0.9098    8.0609   -3.0193 H   0  0  0  0  0  0  0  0  0  0  0  0
    0.8873    7.4801   -0.2080 H   0  0  0  0  0  0  0  0  0  0  0  0
    0.1373    6.9843   -1.7632 H   0  0  0  0  0  0  0  0  0  0  0  0
    1.6774    7.9088   -1.7632 H   0  0  0  0  0  0  0  0  0  0  0  0
    1.2795   13.1046    0.3917 H   0  0  0  0  0  0  0  0  0  0  0  0
    2.8030   12.8444   -0.5237 H   0  0  0  0  0  0  0  0  0  0  0  0
    2.0201   14.4611   -0.5237 H   0  0  0  0  0  0  0  0  0  0  0  0
   -0.8230   14.1087   -1.4949 H   0  0  0  0  0  0  0  0  0  0  0  0
    0.6967   15.0929   -1.8903 H   0  0  0  0  0  0  0  0  0  0  0  0
   -1.0773   13.5743   -3.8220 H   0  0  0  0  0  0  0  0  0  0  0  0
   -0.8143   15.3582   -3.6943 H   0  0  0  0  0  0  0  0  0  0  0  0
    1.9029   15.5621   -3.1042 H   0  0  0  0  0  0  0  0  0  0  0  0
    2.8040   15.2456   -4.6256 H   0  0  0  0  0  0  0  0  0  0  0  0
    1.4125   16.3816   -4.6256 H   0  0  0  0  0  0  0  0  0  0  0  0
  1  2  1  0
  2  3  1  0
  3  4  1  0
  4  5  1  0
  5  6  1  0
  6  7  1  0
  7  8  1  0
  7  9  1  0
  2 10  1  0
 10 11  1  0
 11 12  1  0
 12 13  1  0
 13 14  1  6
 13 15  1  0
 15 16  1  0
 16 17  1  0
 17 18  2  0
 18 19  1  0
 19 20  1  0
 20 21  1  0
 21 22  1  0
 22 23  1  0
 22 24  1  0
 24 25  1  0
 24 26  1  0
 19 27  1  0
 27 28  1  1
 27 29  1  0
 29 30  1  0
 30 31  1  0
 31 32  1  1
  7  5  1  0
 31 10  1  0
 31 13  1  0
 27 15  1  0
 24 18  1  0
  1 33  1  0
  1 34  1  0
  1 35  1  0
  2 36  1  6
  3 37  1  0
  3 38  1  0
  4 39  1  0
  4 40  1  0
  5 41  1  1
  8 42  1  0
  8 43  1  0
  8 44  1  0
  9 45  1  0
  9 46  1  0
  9 47  1  0
 10 48  1  1
 11 49  1  0
 11 50  1  0
 12 51  1  0
 12 52  1  0
 14 53  1  0
 14 54  1  0
 14 55  1  0
 15 56  1  6
 16 57  1  0
 16 58  1  0
 17 59  1  0
 19 60  1  6
 20 61  1  0
 20 62  1  0
 21 63  1  0
 21 64  1  0
 22 65  1  1
 23 66  1  0
 25 67  1  0
 25 68  1  0
 25 69  1  0
 26 70  1  0
 26 71  1  0
 26 72  1  0
 28 73  1  0
 28 74  1  0
 28 75  1  0
 29 76  1  0
 29 77  1  0
 30 78  1  0
 30 79  1  0
 32 80  1  0
 32 81  1  0
 32 82  1  0
M  END
>  <meeko>  (13) 
{"is_sidechain": [false], "intermolecular_energy": 2.731, "internal_energy": -0.839}

$$$$
EPH_relaxed_0001_pdb2pqr_Repair_241_r2_0001_out
     RDKit          3D

 82 86  0  0  0  0  0  0  0  0999 V2000
   -2.1240    7.8070   -2.0410 C   0  0  0  0  0  0  0  0  0  0  0  0
   -2.3390    8.5210   -0.7040 C   0  0  2  0  0  0  0  0  0  0  0  0
   -3.8260    8.5630   -0.3000 C   0  0  0  0  0  0  0  0  0  0  0  0
   -4.6900    7.5280   -1.0270 C   0  0  0  0  0  0  0  0  0  0  0  0
   -6.1140    7.9810   -1.1460 C   0  0  2  0  0  0  0  0  0  0  0  0
   -7.0860    7.0220   -0.7100 O   0  0  0  0  0  0  0  0  0  0  0  0
   -7.1110    7.3590   -2.1060 C   0  0  0  0  0  0  0  0  0  0  0  0
   -6.7250    6.2320   -3.0120 C   0  0  0  0  0  0  0  0  0  0  0  0
   -8.3100    8.1600   -2.5110 C   0  0  0  0  0  0  0  0  0  0  0  0
   -1.7780    9.9370   -0.7740 C   0  0  1  0  0  0  0  0  0  0  0  0
   -1.3160   10.4660    0.6100 C   0  0  0  0  0  0  0  0  0  0  0  0
   -0.0750   11.3590    0.3560 C   0  0  0  0  0  0  0  0  0  0  0  0
   -0.0620   11.5830   -1.1750 C   0  0  1  0  0  0  0  0  0  0  0  0
   -1.0930   12.7290   -1.4210 C   0  0  0  0  0  0  0  0  0  0  0  0
    1.3270   11.9090   -1.8140 C   0  0  2  0  0  0  0  0  0  0  0  0
    1.9790   13.2150   -1.3260 C   0  0  0  0  0  0  0  0  0  0  0  0
    1.6420   14.4320   -2.1220 C   0  0  0  0  0  0  0  0  0  0  0  0
    1.0820   14.4360   -3.3460 C   0  0  0  0  0  0  0  0  0  0  0  0
    0.8180   13.1240   -4.0950 C   0  0  1  0  0  0  0  0  0  0  0  0
    1.3050   13.2580   -5.5620 C   0  0  0  0  0  0  0  0  0  0  0  0
    0.7010   14.4670   -6.2710 C   0  0  0  0  0  0  0  0  0  0  0  0
    1.0340   15.7580   -5.5270 C   0  0  2  0  0  0  0  0  0  0  0  0
    2.4430   15.9890   -5.6130 O   0  0  0  0  0  0  0  0  0  0  0  0
    0.5980   15.7350   -4.0350 C   0  0  0  0  0  0  0  0  0  0  0  0
   -0.9470   15.7890   -3.9440 C   0  0  0  0  0  0  0  0  0  0  0  0
    1.1180   17.0370   -3.3670 C   0  0  0  0  0  0  0  0  0  0  0  0
    1.3550   11.8030   -3.3920 C   0  0  1  0  0  0  0  0  0  0  0  0
    2.8410   11.5530   -3.7960 C   0  0  0  0  0  0  0  0  0  0  0  0
    0.5360   10.5680   -3.9240 C   0  0  0  0  0  0  0  0  0  0  0  0
   -0.7660   10.2240   -3.1760 C   0  0  0  0  0  0  0  0  0  0  0  0
   -0.5300   10.1640   -1.6640 C   0  0  2  0  0  0  0  0  0  0  0  0
    0.4860    9.0050   -1.3840 C   0  0  0  0  0  0  0  0  0  0  0  0
   -1.8113    6.7687   -1.8561 H   0  0  0  0  0  0  0  0  0  0  0  0
   -3.0631    7.8107   -2.6138 H   0  0  0  0  0  0  0  0  0  0  0  0
   -1.3431    8.3286   -2.6138 H   0  0  0  0  0  0  0  0  0  0  0  0
   -1.8039    7.9469    0.0667 H   0  0  0  0  0  0  0  0  0  0  0  0
   -3.8975    8.3771    0.7818 H   0  0  0  0  0  0  0  0  0  0  0  0
   -4.2080    9.5556   -0.5809 H   0  0  0  0  0  0  0  0  0  0  0  0
   -4.2813    7.3675   -2.0356 H   0  0  0  0  0  0  0  0  0  0  0  0
   -4.6739    6.5961   -0.4427 H   0  0  0  0  0  0  0  0  0  0  0  0
   -5.8228    9.0249   -0.9577 H   0  0  0  0  0  0  0  0  0  0  0  0
   -6.4270    5.3620   -2.4085 H   0  0  0  0  0  0  0  0  0  0  0  0
   -7.5818    5.9618   -3.6467 H   0  0  0  0  0  0  0  0  0  0  0  0
   -5.8825    6.5439   -3.6467 H   0  0  0  0  0  0  0  0  0  0  0  0
   -8.8367    8.5119   -1.6117 H   0  0  0  0  0  0  0  0  0  0  0  0
   -7.9880    9.0250   -3.1094 H   0  0  0  0  0  0  0  0  0  0  0  0
   -8.9859    7.5314   -3.1094 H   0  0  0  0  0  0  0  0  0  0  0  0
   -2.6463   10.4584   -1.2031 H   0  0  0  0  0  0  0  0  0  0  0  0
   -2.1182   11.0563    1.0769 H   0  0  0  0  0  0  0  0  0  0  0  0
   -1.0726    9.6355    1.2890 H   0  0  0  0  0  0  0  0  0  0  0  0
   -0.1706   12.3171    0.8878 H   0  0  0  0  0  0  0  0  0  0  0  0
    0.8542   10.8944    0.7175 H   0  0  0  0  0  0  0  0  0  0  0  0
   -1.4445   13.1197   -0.4546 H   0  0  0  0  0  0  0  0  0  0  0  0
   -0.6128   13.5381   -1.9908 H   0  0  0  0  0  0  0  0  0  0  0  0
   -1.9482   12.3367   -1.9908 H   0  0  0  0  0  0  0  0  0  0  0  0
    1.9609   11.0968   -1.4287 H   0  0  0  0  0  0  0  0  0  0  0  0
    1.6581   13.3880   -0.2882 H   0  0  0  0  0  0  0  0  0  0  0  0
    3.0644   13.0720   -1.4334 H   0  0  0  0  0  0  0  0  0  0  0  0
    1.8707   15.4084   -1.6699 H   0  0  0  0  0  0  0  0  0  0  0  0
   -0.2720   12.9772   -4.0752 H   0  0  0  0  0  0  0  0  0  0  0  0
    2.4003   13.3600   -5.5620 H   0  0  0  0  0  0  0  0  0  0  0  0
    0.9823   12.3571   -6.1045 H   0  0  0  0  0  0  0  0  0  0  0  0
    1.1061   14.5251   -7.2920 H   0  0  0  0  0  0  0  0  0  0  0  0
   -0.3923   14.3488   -6.2973 H   0  0  0  0  0  0  0  0  0  0  0  0
    0.4684   16.5706   -6.0064 H   0  0  0  0  0  0  0  0  0  0  0  0
    2.6340   16.8220   -5.1500 H   0  0  0  0  0  0  0  0  0  0  0  0
   -1.2519   15.7997   -2.8872 H   0  0  0  0  0  0  0  0  0  0  0  0
   -1.3119   16.7004   -4.4401 H   0  0  0  0  0  0  0  0  0  0  0  0
   -1.3746   14.9053   -4.4401 H   0  0  0  0  0  0  0  0  0  0  0  0
    1.0753   16.9301   -2.2730 H   0  0  0  0  0  0  0  0  0  0  0  0
    2.1576   17.2184   -3.6774 H   0  0  0  0  0  0  0  0  0  0  0  0
    0.4894   17.8847   -3.6774 H   0  0  0  0  0  0  0  0  0  0  0  0
    3.4551   11.4497   -2.8892 H   0  0  0  0  0  0  0  0  0  0  0  0
    2.9088   10.6308   -4.3918 H   0  0  0  0  0  0  0  0  0  0  0  0
    3.2068   12.4022   -4.3918 H   0  0  0  0  0  0  0  0  0  0  0  0
    0.2738   10.7695   -4.9731 H   0  0  0  0  0  0  0  0  0  0  0  0
    1.1935    9.6994   -3.7719 H   0  0  0  0  0  0  0  0  0  0  0  0
   -1.5198   10.9954   -3.3922 H   0  0  0  0  0  0  0  0  0  0  0  0
   -1.1157    9.2380   -3.5158 H   0  0  0  0  0  0  0  0  0  0  0  0
    0.6016    8.8731   -0.2981 H   0  0  0  0  0  0  0  0  0  0  0  0
    0.1095    8.0720   -1.8287 H   0  0  0  0  0  0  0  0  0  0  0  0
    1.4603    9.2561   -1.8287 H   0  0  0  0  0  0  0  0  0  0  0  0
  1  2  1  0
  2  3  1  0
  3  4  1  0
  4  5  1  0
  5  6  1  0
  6  7  1  0
  7  8  1  0
  7  9  1  0
  2 10  1  0
 10 11  1  0
 11 12  1  0
 12 13  1  0
 13 14  1  1
 13 15  1  0
 15 16  1  0
 16 17  1  0
 17 18  2  0
 18 19  1  0
 19 20  1  0
 20 21  1  0
 21 22  1  0
 22 23  1  0
 22 24  1  0
 24 25  1  0
 24 26  1  0
 19 27  1  0
 27 28  1  6
 27 29  1  0
 29 30  1  0
 30 31  1  0
 31 32  1  6
  7  5  1  0
 31 10  1  0
 31 13  1  0
 27 15  1  0
 24 18  1  0
  1 33  1  0
  1 34  1  0
  1 35  1  0
  2 36  1  1
  3 37  1  0
  3 38  1  0
  4 39  1  0
  4 40  1  0
  5 41  1  1
  8 42  1  0
  8 43  1  0
  8 44  1  0
  9 45  1  0
  9 46  1  0
  9 47  1  0
 10 48  1  6
 11 49  1  0
 11 50  1  0
 12 51  1  0
 12 52  1  0
 14 53  1  0
 14 54  1  0
 14 55  1  0
 15 56  1  1
 16 57  1  0
 16 58  1  0
 17 59  1  0
 19 60  1  6
 20 61  1  0
 20 62  1  0
 21 63  1  0
 21 64  1  0
 22 65  1  6
 23 66  1  0
 25 67  1  0
 25 68  1  0
 25 69  1  0
 26 70  1  0
 26 71  1  0
 26 72  1  0
 28 73  1  0
 28 74  1  0
 28 75  1  0
 29 76  1  0
 29 77  1  0
 30 78  1  0
 30 79  1  0
 32 80  1  0
 32 81  1  0
 32 82  1  0
M  END
>  <meeko>  (14) 
{"is_sidechain": [false], "intermolecular_energy": 2.731, "internal_energy": -0.839}

$$$$
EPH_relaxed_0001_pdb2pqr_Repair_241_r2_0001_out
     RDKit          3D

 82 86  0  0  0  0  0  0  0  0999 V2000
   -0.2710    9.5200   -2.7620 C   0  0  0  0  0  0  0  0  0  0  0  0
    0.9710   10.3820   -3.0100 C   0  0  2  0  0  0  0  0  0  0  0  0
    2.2740    9.5650   -2.9080 C   0  0  0  0  0  0  0  0  0  0  0  0
    3.5410   10.4250   -2.9140 C   0  0  0  0  0  0  0  0  0  0  0  0
    4.1630   10.4870   -4.2770 C   0  0  2  0  0  0  0  0  0  0  0  0
    5.0620    9.4100   -4.5740 O   0  0  0  0  0  0  0  0  0  0  0  0
    5.6430   10.7230   -4.5110 C   0  0  0  0  0  0  0  0  0  0  0  0
    6.5930   10.9130   -3.3700 C   0  0  0  0  0  0  0  0  0  0  0  0
    6.0820   11.2520   -5.8410 C   0  0  0  0  0  0  0  0  0  0  0  0
    1.0040   11.5420   -2.0210 C   0  0  1  0  0  0  0  0  0  0  0  0
    2.0450   11.3320   -0.8900 C   0  0  0  0  0  0  0  0  0  0  0  0
    2.6210   12.7310   -0.5480 C   0  0  0  0  0  0  0  0  0  0  0  0
    1.6680   13.7270   -1.2480 C   0  0  1  0  0  0  0  0  0  0  0  0
    0.4460   13.8570   -0.2860 C   0  0  0  0  0  0  0  0  0  0  0  0
    2.2710   15.1240   -1.6070 C   0  0  2  0  0  0  0  0  0  0  0  0
    2.7330   15.9640   -0.4030 C   0  0  0  0  0  0  0  0  0  0  0  0
    1.6980   16.8720    0.1750 C   0  0  0  0  0  0  0  0  0  0  0  0
    0.5430   17.2210   -0.4210 C   0  0  0  0  0  0  0  0  0  0  0  0
    0.2250   16.7660   -1.8510 C   0  0  1  0  0  0  0  0  0  0  0  0
   -0.3040   17.9700   -2.6730 C   0  0  0  0  0  0  0  0  0  0  0  0
   -1.4890   18.6590   -2.0040 C   0  0  0  0  0  0  0  0  0  0  0  0
   -1.1170   19.1500   -0.6070 C   0  0  2  0  0  0  0  0  0  0  0  0
   -0.1470   20.1940   -0.7280 O   0  0  0  0  0  0  0  0  0  0  0  0
   -0.5610   18.0240    0.3100 C   0  0  0  0  0  0  0  0  0  0  0  0
   -1.7030   17.0480    0.6870 C   0  0  0  0  0  0  0  0  0  0  0  0
   -0.0930   18.6780    1.6380 C   0  0  0  0  0  0  0  0  0  0  0  0
    1.3840   15.9780   -2.6010 C   0  0  1  0  0  0  0  0  0  0  0  0
    2.3450   16.9850   -3.3030 C   0  0  0  0  0  0  0  0  0  0  0  0
    0.7510   15.0980   -3.7440 C   0  0  0  0  0  0  0  0  0  0  0  0
    0.2830   13.6830   -3.3530 C   0  0  0  0  0  0  0  0  0  0  0  0
    1.3750   12.9400   -2.5770 C   0  0  2  0  0  0  0  0  0  0  0  0
    2.6090   12.7740   -3.5270 C   0  0  0  0  0  0  0  0  0  0  0  0
   -0.4303    9.4094   -1.6792 H   0  0  0  0  0  0  0  0  0  0  0  0
   -1.1493   10.0037   -3.2144 H   0  0  0  0  0  0  0  0  0  0  0  0
   -0.1251    8.5280   -3.2144 H   0  0  0  0  0  0  0  0  0  0  0  0
    0.9050   10.7708   -4.0369 H   0  0  0  0  0  0  0  0  0  0  0  0
    2.2500    8.9882   -1.9716 H   0  0  0  0  0  0  0  0  0  0  0  0
    2.3193    8.9191   -3.7973 H   0  0  0  0  0  0  0  0  0  0  0  0
    3.2811   11.4448   -2.5941 H   0  0  0  0  0  0  0  0  0  0  0  0
    4.2680    9.9691   -2.2258 H   0  0  0  0  0  0  0  0  0  0  0  0
    3.2648   10.9685   -4.6911 H   0  0  0  0  0  0  0  0  0  0  0  0
    6.0505   10.8045   -2.4192 H   0  0  0  0  0  0  0  0  0  0  0  0
    7.3895   10.1564   -3.4261 H   0  0  0  0  0  0  0  0  0  0  0  0
    7.0372   11.9178   -3.4261 H   0  0  0  0  0  0  0  0  0  0  0  0
    6.7779   12.0905   -5.6905 H   0  0  0  0  0  0  0  0  0  0  0  0
    6.5865   10.4535   -6.4048 H   0  0  0  0  0  0  0  0  0  0  0  0
    5.2042   11.6006   -6.4048 H   0  0  0  0  0  0  0  0  0  0  0  0
   -0.0457   11.5349   -1.6921 H   0  0  0  0  0  0  0  0  0  0  0  0
    1.5598   10.8952   -0.0047 H   0  0  0  0  0  0  0  0  0  0  0  0
    2.8416   10.6436   -1.2087 H   0  0  0  0  0  0  0  0  0  0  0  0
    2.6231   12.8947    0.5397 H   0  0  0  0  0  0  0  0  0  0  0  0
    3.6629   12.8460   -0.8815 H   0  0  0  0  0  0  0  0  0  0  0  0
    0.7946   13.8199    0.7566 H   0  0  0  0  0  0  0  0  0  0  0  0
   -0.0639   14.8145   -0.4683 H   0  0  0  0  0  0  0  0  0  0  0  0
   -0.2540   13.0283   -0.4683 H   0  0  0  0  0  0  0  0  0  0  0  0
    3.1873   14.8519   -2.1513 H   0  0  0  0  0  0  0  0  0  0  0  0
    3.0595   15.2732    0.3883 H   0  0  0  0  0  0  0  0  0  0  0  0
    3.5360   16.6163   -0.7768 H   0  0  0  0  0  0  0  0  0  0  0  0
    1.8965   17.2911    1.1725 H   0  0  0  0  0  0  0  0  0  0  0  0
   -0.5620   16.0030   -1.7590 H   0  0  0  0  0  0  0  0  0  0  0  0
    0.5091   18.7015   -2.7902 H   0  0  0  0  0  0  0  0  0  0  0  0
   -0.6462   17.5861   -3.6454 H   0  0  0  0  0  0  0  0  0  0  0  0
   -1.7989   19.5182   -2.6169 H   0  0  0  0  0  0  0  0  0  0  0  0
   -2.3116   17.9342   -1.9140 H   0  0  0  0  0  0  0  0  0  0  0  0
   -2.0380   19.5171   -0.1305 H   0  0  0  0  0  0  0  0  0  0  0  0
   -0.4440   20.7910   -1.4360 H   0  0  0  0  0  0  0  0  0  0  0  0
   -1.7814   16.9810    1.7821 H   0  0  0  0  0  0  0  0  0  0  0  0
   -2.6528   17.4177    0.2733 H   0  0  0  0  0  0  0  0  0  0  0  0
   -1.4858   16.0522    0.2733 H   0  0  0  0  0  0  0  0  0  0  0  0
   -0.4987   18.1110    2.4888 H   0  0  0  0  0  0  0  0  0  0  0  0
    1.0061   18.6705    1.6830 H   0  0  0  0  0  0  0  0  0  0  0  0
   -0.4547   19.7158    1.6830 H   0  0  0  0  0  0  0  0  0  0  0  0
    2.8934   17.5597   -2.5421 H   0  0  0  0  0  0  0  0  0  0  0  0
    3.0596   16.4329   -3.9311 H   0  0  0  0  0  0  0  0  0  0  0  0
    1.7601   17.6730   -3.9311 H   0  0  0  0  0  0  0  0  0  0  0  0
   -0.1216   15.6404   -4.1369 H   0  0  0  0  0  0  0  0  0  0  0  0
    1.5624   14.9423   -4.4702 H   0  0  0  0  0  0  0  0  0  0  0  0
   -0.6155   13.7622   -2.7234 H   0  0  0  0  0  0  0  0  0  0  0  0
    0.0606   13.1204   -4.2717 H   0  0  0  0  0  0  0  0  0  0  0  0
    3.5214   12.6513   -2.9249 H   0  0  0  0  0  0  0  0  0  0  0  0
    2.4664   11.8869   -4.1617 H   0  0  0  0  0  0  0  0  0  0  0  0
    2.7059   13.6672   -4.1617 H   0  0  0  0  0  0  0  0  0  0  0  0
  1  2  1  0
  2  3  1  0
  3  4  1  0
  4  5  1  0
  5  6  1  0
  6  7  1  0
  7  8  1  0
  7  9  1  0
  2 10  1  0
 10 11  1  0
 11 12  1  0
 12 13  1  0
 13 14  1  1
 13 15  1  0
 15 16  1  0
 16 17  1  0
 17 18  2  0
 18 19  1  0
 19 20  1  0
 20 21  1  0
 21 22  1  0
 22 23  1  0
 22 24  1  0
 24 25  1  0
 24 26  1  0
 19 27  1  0
 27 28  1  6
 27 29  1  0
 29 30  1  0
 30 31  1  0
 31 32  1  6
  7  5  1  0
 31 10  1  0
 31 13  1  0
 27 15  1  0
 24 18  1  0
  1 33  1  0
  1 34  1  0
  1 35  1  0
  2 36  1  6
  3 37  1  0
  3 38  1  0
  4 39  1  0
  4 40  1  0
  5 41  1  6
  8 42  1  0
  8 43  1  0
  8 44  1  0
  9 45  1  0
  9 46  1  0
  9 47  1  0
 10 48  1  1
 11 49  1  0
 11 50  1  0
 12 51  1  0
 12 52  1  0
 14 53  1  0
 14 54  1  0
 14 55  1  0
 15 56  1  6
 16 57  1  0
 16 58  1  0
 17 59  1  0
 19 60  1  1
 20 61  1  0
 20 62  1  0
 21 63  1  0
 21 64  1  0
 22 65  1  1
 23 66  1  0
 25 67  1  0
 25 68  1  0
 25 69  1  0
 26 70  1  0
 26 71  1  0
 26 72  1  0
 28 73  1  0
 28 74  1  0
 28 75  1  0
 29 76  1  0
 29 77  1  0
 30 78  1  0
 30 79  1  0
 32 80  1  0
 32 81  1  0
 32 82  1  0
M  END
>  <meeko>  (15) 
{"is_sidechain": [false], "intermolecular_energy": 2.731, "internal_energy": -0.839}

$$$$
EPH_relaxed_0001_pdb2pqr_Repair_241_r2_0001_out
     RDKit          3D

 82 86  0  0  0  0  0  0  0  0999 V2000
    0.2090    9.8350   -4.5630 C   0  0  0  0  0  0  0  0  0  0  0  0
    1.2820   10.5680   -3.7530 C   0  0  2  0  0  0  0  0  0  0  0  0
    1.7370    9.7570   -2.5240 C   0  0  0  0  0  0  0  0  0  0  0  0
    0.7430    8.6720   -2.0990 C   0  0  0  0  0  0  0  0  0  0  0  0
   -0.1260    9.1290   -0.9670 C   0  0  2  0  0  0  0  0  0  0  0  0
   -0.7130    8.0710   -0.1980 O   0  0  0  0  0  0  0  0  0  0  0  0
   -1.6260    8.9110   -0.9230 C   0  0  0  0  0  0  0  0  0  0  0  0
   -2.3460    8.2110   -2.0330 C   0  0  0  0  0  0  0  0  0  0  0  0
   -2.4540    9.7990   -0.0470 C   0  0  0  0  0  0  0  0  0  0  0  0
    0.7600   11.9310   -3.3130 C   0  0  1  0  0  0  0  0  0  0  0  0
   -0.7480   11.9030   -2.9450 C   0  0  0  0  0  0  0  0  0  0  0  0
   -0.9420   12.9030   -1.7760 C   0  0  0  0  0  0  0  0  0  0  0  0
    0.3770   13.7100   -1.7310 C   0  0  1  0  0  0  0  0  0  0  0  0
    0.2240   14.7910   -2.8470 C   0  0  0  0  0  0  0  0  0  0  0  0
    0.7480   14.3520   -0.3540 C   0  0  2  0  0  0  0  0  0  0  0  0
   -0.2500   15.4000    0.1670 C   0  0  0  0  0  0  0  0  0  0  0  0
    0.0290   16.8070   -0.2460 C   0  0  0  0  0  0  0  0  0  0  0  0
    1.1890   17.2550   -0.7630 C   0  0  0  0  0  0  0  0  0  0  0  0
    2.4050   16.3290   -0.8890 C   0  0  1  0  0  0  0  0  0  0  0  0
    3.6690   17.0600   -0.3650 C   0  0  0  0  0  0  0  0  0  0  0  0
    3.8890   18.4080   -1.0460 C   0  0  0  0  0  0  0  0  0  0  0  0
    2.6820   19.3210   -0.8500 C   0  0  2  0  0  0  0  0  0  0  0  0
    2.5810   19.6590    0.5370 O   0  0  0  0  0  0  0  0  0  0  0  0
    1.3480   18.6860   -1.3320 C   0  0  0  0  0  0  0  0  0  0  0  0
    1.3420   18.5980   -2.8780 C   0  0  0  0  0  0  0  0  0  0  0  0
    0.1940   19.6510   -0.9480 C   0  0  0  0  0  0  0  0  0  0  0  0
    2.2380   14.8770   -0.2640 C   0  0  1  0  0  0  0  0  0  0  0  0
    2.6100   14.9020    1.2500 C   0  0  0  0  0  0  0  0  0  0  0  0
    3.2600   13.8990   -0.9560 C   0  0  0  0  0  0  0  0  0  0  0  0
    2.7900   13.2040   -2.2490 C   0  0  0  0  0  0  0  0  0  0  0  0
    1.4080   12.5710   -2.0600 C   0  0  2  0  0  0  0  0  0  0  0  0
    1.5360   11.4640   -0.9580 C   0  0  0  0  0  0  0  0  0  0  0  0
   -0.5009    9.3500   -3.8768 H   0  0  0  0  0  0  0  0  0  0  0  0
   -0.3281   10.5558   -5.1970 H   0  0  0  0  0  0  0  0  0  0  0  0
    0.6852    9.0726   -5.1970 H   0  0  0  0  0  0  0  0  0  0  0  0
    2.1580   10.6978   -4.4055 H   0  0  0  0  0  0  0  0  0  0  0  0
    2.6965    9.2747   -2.7622 H   0  0  0  0  0  0  0  0  0  0  0  0
    1.8189   10.4639   -1.6852 H   0  0  0  0  0  0  0  0  0  0  0  0
    0.1048    8.4171   -2.9579 H   0  0  0  0  0  0  0  0  0  0  0  0
    1.3157    7.7963   -1.7597 H   0  0  0  0  0  0  0  0  0  0  0  0
    0.4933   10.0267   -0.8233 H   0  0  0  0  0  0  0  0  0  0  0  0
   -3.0738    7.5034   -1.6091 H   0  0  0  0  0  0  0  0  0  0  0  0
   -2.8727    8.9515   -2.6528 H   0  0  0  0  0  0  0  0  0  0  0  0
   -1.6206    7.6636   -2.6528 H   0  0  0  0  0  0  0  0  0  0  0  0
   -2.2430    9.5727    1.0086 H   0  0  0  0  0  0  0  0  0  0  0  0
   -2.2068   10.8509   -0.2530 H   0  0  0  0  0  0  0  0  0  0  0  0
   -3.5206    9.6259   -0.2530 H   0  0  0  0  0  0  0  0  0  0  0  0
    1.0088   12.5205   -4.2077 H   0  0  0  0  0  0  0  0  0  0  0  0
   -1.3547   12.2092   -3.8100 H   0  0  0  0  0  0  0  0  0  0  0  0
   -1.0650   10.8903   -2.6551 H   0  0  0  0  0  0  0  0  0  0  0  0
   -1.7972   13.5669   -1.9706 H   0  0  0  0  0  0  0  0  0  0  0  0
   -1.1537   12.3955   -0.8233 H   0  0  0  0  0  0  0  0  0  0  0  0
    0.0842   15.7789   -2.3839 H   0  0  0  0  0  0  0  0  0  0  0  0
    1.1293   14.8037   -3.4717 H   0  0  0  0  0  0  0  0  0  0  0  0
   -0.6493   14.5520   -3.4717 H   0  0  0  0  0  0  0  0  0  0  0  0
    0.6692   13.4972    0.3338 H   0  0  0  0  0  0  0  0  0  0  0  0
   -1.2504   15.1295   -0.2019 H   0  0  0  0  0  0  0  0  0  0  0  0
   -0.1650   15.3823    1.2636 H   0  0  0  0  0  0  0  0  0  0  0  0
   -0.7812   17.5397   -0.1172 H   0  0  0  0  0  0  0  0  0  0  0  0
    2.5148   16.1157   -1.9625 H   0  0  0  0  0  0  0  0  0  0  0  0
    3.5579   17.2253    0.7168 H   0  0  0  0  0  0  0  0  0  0  0  0
    4.5392   16.4259   -0.5900 H   0  0  0  0  0  0  0  0  0  0  0  0
    4.7785   18.8892   -0.6132 H   0  0  0  0  0  0  0  0  0  0  0  0
    4.0298   18.2383   -2.1237 H   0  0  0  0  0  0  0  0  0  0  0  0
    2.8425   20.2174   -1.4671 H   0  0  0  0  0  0  0  0  0  0  0  0
    3.1990   19.0890    1.0250 H   0  0  0  0  0  0  0  0  0  0  0  0
    1.2701   17.5442   -3.1850 H   0  0  0  0  0  0  0  0  0  0  0  0
    0.4797   19.1548   -3.2736 H   0  0  0  0  0  0  0  0  0  0  0  0
    2.2719   19.0326   -3.2736 H   0  0  0  0  0  0  0  0  0  0  0  0
    0.1182   19.7144    0.1476 H   0  0  0  0  0  0  0  0  0  0  0  0
    0.3992   20.6502   -1.3597 H   0  0  0  0  0  0  0  0  0  0  0  0
   -0.7531   19.2722   -1.3597 H   0  0  0  0  0  0  0  0  0  0  0  0
    1.6927   14.8404    1.8540 H   0  0  0  0  0  0  0  0  0  0  0  0
    3.2601   14.0455    1.4820 H   0  0  0  0  0  0  0  0  0  0  0  0
    3.1396   15.8378    1.4820 H   0  0  0  0  0  0  0  0  0  0  0  0
    4.1629   14.4785   -1.1989 H   0  0  0  0  0  0  0  0  0  0  0  0
    3.4154   13.0855   -0.2320 H   0  0  0  0  0  0  0  0  0  0  0  0
    2.7378   13.9471   -3.0584 H   0  0  0  0  0  0  0  0  0  0  0  0
    3.5080   12.4098   -2.5012 H   0  0  0  0  0  0  0  0  0  0  0  0
    1.4822   11.9294    0.0372 H   0  0  0  0  0  0  0  0  0  0  0  0
    0.7156   10.7396   -1.0689 H   0  0  0  0  0  0  0  0  0  0  0  0
    2.5000   10.9460   -1.0689 H   0  0  0  0  0  0  0  0  0  0  0  0
  1  2  1  0
  2  3  1  0
  3  4  1  0
  4  5  1  0
  5  6  1  0
  6  7  1  0
  7  8  1  0
  7  9  1  0
  2 10  1  0
 10 11  1  0
 11 12  1  0
 12 13  1  0
 13 14  1  6
 13 15  1  0
 15 16  1  0
 16 17  1  0
 17 18  2  0
 18 19  1  0
 19 20  1  0
 20 21  1  0
 21 22  1  0
 22 23  1  0
 22 24  1  0
 24 25  1  0
 24 26  1  0
 19 27  1  0
 27 28  1  1
 27 29  1  0
 29 30  1  0
 30 31  1  0
 31 32  1  1
  7  5  1  0
 31 10  1  0
 31 13  1  0
 27 15  1  0
 24 18  1  0
  1 33  1  0
  1 34  1  0
  1 35  1  0
  2 36  1  6
  3 37  1  0
  3 38  1  0
  4 39  1  0
  4 40  1  0
  5 41  1  1
  8 42  1  0
  8 43  1  0
  8 44  1  0
  9 45  1  0
  9 46  1  0
  9 47  1  0
 10 48  1  6
 11 49  1  0
 11 50  1  0
 12 51  1  0
 12 52  1  0
 14 53  1  0
 14 54  1  0
 14 55  1  0
 15 56  1  1
 16 57  1  0
 16 58  1  0
 17 59  1  0
 19 60  1  6
 20 61  1  0
 20 62  1  0
 21 63  1  0
 21 64  1  0
 22 65  1  6
 23 66  1  0
 25 67  1  0
 25 68  1  0
 25 69  1  0
 26 70  1  0
 26 71  1  0
 26 72  1  0
 28 73  1  0
 28 74  1  0
 28 75  1  0
 29 76  1  0
 29 77  1  0
 30 78  1  0
 30 79  1  0
 32 80  1  0
 32 81  1  0
 32 82  1  0
M  END
>  <meeko>  (16) 
{"is_sidechain": [false], "intermolecular_energy": 2.731, "internal_energy": -0.839}

$$$$
EPH_relaxed_0001_pdb2pqr_Repair_241_r2_0001_out
     RDKit          3D

 82 86  0  0  0  0  0  0  0  0999 V2000
    0.8920   14.8330   -2.6250 C   0  0  0  0  0  0  0  0  0  0  0  0
    1.1710   14.1470   -3.9650 C   0  0  2  0  0  0  0  0  0  0  0  0
    0.4860   14.8710   -5.1420 C   0  0  0  0  0  0  0  0  0  0  0  0
    1.1510   14.6090   -6.4960 C   0  0  0  0  0  0  0  0  0  0  0  0
    0.8880   15.7200   -7.4670 C   0  0  2  0  0  0  0  0  0  0  0  0
    0.3740   15.2970   -8.7370 O   0  0  0  0  0  0  0  0  0  0  0  0
    1.6720   15.9120   -8.7510 C   0  0  0  0  0  0  0  0  0  0  0  0
    2.7820   14.9840   -9.1340 C   0  0  0  0  0  0  0  0  0  0  0  0
    1.6890   17.2690   -9.3830 C   0  0  0  0  0  0  0  0  0  0  0  0
    0.7130   12.6940   -3.9110 C   0  0  1  0  0  0  0  0  0  0  0  0
    1.8440   11.6970   -4.2750 C   0  0  0  0  0  0  0  0  0  0  0  0
    1.6290   10.4360   -3.3990 C   0  0  0  0  0  0  0  0  0  0  0  0
    0.2090   10.6090   -2.8090 C   0  0  1  0  0  0  0  0  0  0  0  0
   -0.7550   10.1400   -3.9430 C   0  0  0  0  0  0  0  0  0  0  0  0
   -0.0760    9.8640   -1.4640 C   0  0  2  0  0  0  0  0  0  0  0  0
    0.0230    8.3300   -1.5340 C   0  0  0  0  0  0  0  0  0  0  0  0
   -1.2490    7.6240   -1.8690 C   0  0  0  0  0  0  0  0  0  0  0  0
   -2.4800    8.1670   -1.8260 C   0  0  0  0  0  0  0  0  0  0  0  0
   -2.6920    9.5980   -1.3130 C   0  0  1  0  0  0  0  0  0  0  0  0
   -3.8840    9.6210   -0.3200 C   0  0  0  0  0  0  0  0  0  0  0  0
   -5.1530    9.0200   -0.9160 C   0  0  0  0  0  0  0  0  0  0  0  0
   -4.9180    7.5790   -1.3600 C   0  0  2  0  0  0  0  0  0  0  0  0
   -4.6780    6.7730   -0.2020 O   0  0  0  0  0  0  0  0  0  0  0  0
   -3.7340    7.4300   -2.3560 C   0  0  0  0  0  0  0  0  0  0  0  0
   -4.1220    8.0490   -3.7210 C   0  0  0  0  0  0  0  0  0  0  0  0
   -3.5150    5.9140   -2.6130 C   0  0  0  0  0  0  0  0  0  0  0  0
   -1.4030   10.3260   -0.7370 C   0  0  1  0  0  0  0  0  0  0  0  0
   -1.2260    9.9790    0.7730 C   0  0  0  0  0  0  0  0  0  0  0  0
   -1.6150   11.8840   -0.8120 C   0  0  0  0  0  0  0  0  0  0  0  0
   -1.2030   12.5790   -2.1240 C   0  0  0  0  0  0  0  0  0  0  0  0
    0.2070   12.1590   -2.5470 C   0  0  2  0  0  0  0  0  0  0  0  0
    1.2030   12.6370   -1.4360 C   0  0  0  0  0  0  0  0  0  0  0  0
    1.1671   14.1565   -1.8024 H   0  0  0  0  0  0  0  0  0  0  0  0
    1.4862   15.7561   -2.5549 H   0  0  0  0  0  0  0  0  0  0  0  0
   -0.1778   15.0793   -2.5549 H   0  0  0  0  0  0  0  0  0  0  0  0
    2.2565   14.1888   -4.1378 H   0  0  0  0  0  0  0  0  0  0  0  0
   -0.5592   14.5326   -5.1971 H   0  0  0  0  0  0  0  0  0  0  0  0
    0.5676   15.9505   -4.9470 H   0  0  0  0  0  0  0  0  0  0  0  0
    2.2369   14.5149   -6.3476 H   0  0  0  0  0  0  0  0  0  0  0  0
    0.7282   13.6827   -6.9121 H   0  0  0  0  0  0  0  0  0  0  0  0
    0.6354   16.4080   -6.6468 H   0  0  0  0  0  0  0  0  0  0  0  0
    3.2575   14.5864   -8.2253 H   0  0  0  0  0  0  0  0  0  0  0  0
    2.3761   14.1527   -9.7291 H   0  0  0  0  0  0  0  0  0  0  0  0
    3.5282   15.5308   -9.7291 H   0  0  0  0  0  0  0  0  0  0  0  0
    1.6986   18.0391   -8.5976 H   0  0  0  0  0  0  0  0  0  0  0  0
    2.5885   17.3712  -10.0079 H   0  0  0  0  0  0  0  0  0  0  0  0
    0.7923   17.3937  -10.0079 H   0  0  0  0  0  0  0  0  0  0  0  0
   -0.1174   12.7351   -4.6312 H   0  0  0  0  0  0  0  0  0  0  0  0
    1.7864   11.4318   -5.3410 H   0  0  0  0  0  0  0  0  0  0  0  0
    2.8342   12.1399   -4.0927 H   0  0  0  0  0  0  0  0  0  0  0  0
    1.6870    9.5236   -4.0107 H   0  0  0  0  0  0  0  0  0  0  0  0
    2.3963   10.3349   -2.6174 H   0  0  0  0  0  0  0  0  0  0  0  0
   -1.6592    9.7001   -3.4970 H   0  0  0  0  0  0  0  0  0  0  0  0
   -1.0356   11.0023   -4.5657 H   0  0  0  0  0  0  0  0  0  0  0  0
   -0.2497    9.3870   -4.5657 H   0  0  0  0  0  0  0  0  0  0  0  0
    0.7637   10.1879   -0.8315 H   0  0  0  0  0  0  0  0  0  0  0  0
    0.7674    8.0720   -2.3017 H   0  0  0  0  0  0  0  0  0  0  0  0
    0.2994    7.9962   -0.5230 H   0  0  0  0  0  0  0  0  0  0  0  0
   -1.1740    6.5707   -2.1771 H   0  0  0  0  0  0  0  0  0  0  0  0
   -2.9321   10.2059   -2.1978 H   0  0  0  0  0  0  0  0  0  0  0  0
   -3.6080    9.0452    0.5757 H   0  0  0  0  0  0  0  0  0  0  0  0
   -4.0952   10.6726   -0.0759 H   0  0  0  0  0  0  0  0  0  0  0  0
   -5.9500    9.0377   -0.1580 H   0  0  0  0  0  0  0  0  0  0  0  0
   -5.4440    9.6148   -1.7943 H   0  0  0  0  0  0  0  0  0  0  0  0
   -5.8203    7.2471   -1.8945 H   0  0  0  0  0  0  0  0  0  0  0  0
   -3.7190    6.7660   -0.0430 H   0  0  0  0  0  0  0  0  0  0  0  0
   -4.6995    8.9703   -3.5549 H   0  0  0  0  0  0  0  0  0  0  0  0
   -3.2101    8.2852   -4.2890 H   0  0  0  0  0  0  0  0  0  0  0  0
   -4.7321    7.3312   -4.2890 H   0  0  0  0  0  0  0  0  0  0  0  0
   -3.4388    5.3863   -1.6509 H   0  0  0  0  0  0  0  0  0  0  0  0
   -4.3645    5.5126   -3.1851 H   0  0  0  0  0  0  0  0  0  0  0  0
   -2.5866    5.7694   -3.1851 H   0  0  0  0  0  0  0  0  0  0  0  0
   -1.6407   10.7920    1.3871 H   0  0  0  0  0  0  0  0  0  0  0  0
   -1.7563    9.0420    0.9985 H   0  0  0  0  0  0  0  0  0  0  0  0
   -0.1562    9.8582    0.9985 H   0  0  0  0  0  0  0  0  0  0  0  0
   -2.6851   12.0823   -0.6522 H   0  0  0  0  0  0  0  0  0  0  0  0
   -0.9487   12.3024   -0.0432 H   0  0  0  0  0  0  0  0  0  0  0  0
   -1.9139   12.3022   -2.9165 H   0  0  0  0  0  0  0  0  0  0  0  0
   -1.2113   13.6670   -1.9622 H   0  0  0  0  0  0  0  0  0  0  0  0
    0.7731   12.4307   -0.4447 H   0  0  0  0  0  0  0  0  0  0  0  0
    2.1562   12.0982   -1.5416 H   0  0  0  0  0  0  0  0  0  0  0  0
    1.3790   13.7177   -1.5416 H   0  0  0  0  0  0  0  0  0  0  0  0
  1  2  1  0
  2  3  1  0
  3  4  1  0
  4  5  1  0
  5  6  1  0
  6  7  1  0
  7  8  1  0
  7  9  1  0
  2 10  1  0
 10 11  1  0
 11 12  1  0
 12 13  1  0
 13 14  1  6
 13 15  1  0
 15 16  1  0
 16 17  1  0
 17 18  2  0
 18 19  1  0
 19 20  1  0
 20 21  1  0
 21 22  1  0
 22 23  1  0
 22 24  1  0
 24 25  1  0
 24 26  1  0
 19 27  1  0
 27 28  1  1
 27 29  1  0
 29 30  1  0
 30 31  1  0
 31 32  1  1
  7  5  1  0
 31 10  1  0
 31 13  1  0
 27 15  1  0
 24 18  1  0
  1 33  1  0
  1 34  1  0
  1 35  1  0
  2 36  1  6
  3 37  1  0
  3 38  1  0
  4 39  1  0
  4 40  1  0
  5 41  1  1
  8 42  1  0
  8 43  1  0
  8 44  1  0
  9 45  1  0
  9 46  1  0
  9 47  1  0
 10 48  1  6
 11 49  1  0
 11 50  1  0
 12 51  1  0
 12 52  1  0
 14 53  1  0
 14 54  1  0
 14 55  1  0
 15 56  1  1
 16 57  1  0
 16 58  1  0
 17 59  1  0
 19 60  1  6
 20 61  1  0
 20 62  1  0
 21 63  1  0
 21 64  1  0
 22 65  1  6
 23 66  1  0
 25 67  1  0
 25 68  1  0
 25 69  1  0
 26 70  1  0
 26 71  1  0
 26 72  1  0
 28 73  1  0
 28 74  1  0
 28 75  1  0
 29 76  1  0
 29 77  1  0
 30 78  1  0
 30 79  1  0
 32 80  1  0
 32 81  1  0
 32 82  1  0
M  END
>  <meeko>  (17) 
{"is_sidechain": [false], "intermolecular_energy": 2.731, "internal_energy": -0.839}

$$$$
EPH_relaxed_0001_pdb2pqr_Repair_241_r2_0001_out
     RDKit          3D

 82 86  0  0  0  0  0  0  0  0999 V2000
   -1.8500   14.5820    0.2230 C   0  0  0  0  0  0  0  0  0  0  0  0
   -0.4900   15.2690    0.3720 C   0  0  2  0  0  0  0  0  0  0  0  0
   -0.3560   16.4980   -0.5510 C   0  0  0  0  0  0  0  0  0  0  0  0
    1.0920   16.9360   -0.7860 C   0  0  0  0  0  0  0  0  0  0  0  0
    1.3000   18.3770   -0.4300 C   0  0  2  0  0  0  0  0  0  0  0  0
    2.3590   19.0240   -1.1470 O   0  0  0  0  0  0  0  0  0  0  0  0
    2.5410   18.8950    0.2720 C   0  0  0  0  0  0  0  0  0  0  0  0
    3.6570   17.9770    0.6620 C   0  0  0  0  0  0  0  0  0  0  0  0
    2.4550   20.1930    1.0120 C   0  0  0  0  0  0  0  0  0  0  0  0
    0.6290   14.2760    0.0820 C   0  0  1  0  0  0  0  0  0  0  0  0
    0.7970   13.2200    1.2070 C   0  0  0  0  0  0  0  0  0  0  0  0
    1.2090   11.8940    0.5180 C   0  0  0  0  0  0  0  0  0  0  0  0
    1.5860   12.3050   -0.9250 C   0  0  1  0  0  0  0  0  0  0  0  0
    3.0450   12.8500   -0.8180 C   0  0  0  0  0  0  0  0  0  0  0  0
    1.4640   11.1910   -2.0150 C   0  0  2  0  0  0  0  0  0  0  0  0
    2.3850    9.9750   -1.8110 C   0  0  0  0  0  0  0  0  0  0  0  0
    3.7250   10.0740   -2.4630 C   0  0  0  0  0  0  0  0  0  0  0  0
    4.0680   10.9620   -3.4140 C   0  0  0  0  0  0  0  0  0  0  0  0
    3.0320   11.9310   -3.9990 C   0  0  1  0  0  0  0  0  0  0  0  0
    3.1490   11.9430   -5.5460 C   0  0  0  0  0  0  0  0  0  0  0  0
    4.5650   12.2470   -6.0230 C   0  0  0  0  0  0  0  0  0  0  0  0
    5.5580   11.2290   -5.4680 C   0  0  2  0  0  0  0  0  0  0  0  0
    5.2780    9.9500   -6.0450 O   0  0  0  0  0  0  0  0  0  0  0  0
    5.5240   11.1210   -3.9180 C   0  0  0  0  0  0  0  0  0  0  0  0
    6.1160   12.4090   -3.2940 C   0  0  0  0  0  0  0  0  0  0  0  0
    6.4680    9.9620   -3.4980 C   0  0  0  0  0  0  0  0  0  0  0  0
    1.5360   11.7280   -3.5010 C   0  0  1  0  0  0  0  0  0  0  0  0
    0.8180   10.6690   -4.3920 C   0  0  0  0  0  0  0  0  0  0  0  0
    0.7440   13.0760   -3.6890 C   0  0  0  0  0  0  0  0  0  0  0  0
    0.8060   14.0860   -2.5270 C   0  0  0  0  0  0  0  0  0  0  0  0
    0.4950   13.4040   -1.1910 C   0  0  2  0  0  0  0  0  0  0  0  0
   -0.9750   12.8660   -1.2600 C   0  0  0  0  0  0  0  0  0  0  0  0
   -2.2658   14.3720    1.2195 H   0  0  0  0  0  0  0  0  0  0  0  0
   -2.5356   15.2419   -0.3288 H   0  0  0  0  0  0  0  0  0  0  0  0
   -1.7257   13.6385   -0.3288 H   0  0  0  0  0  0  0  0  0  0  0  0
   -0.4113   15.6249    1.4099 H   0  0  0  0  0  0  0  0  0  0  0  0
   -0.8068   16.2525   -1.5239 H   0  0  0  0  0  0  0  0  0  0  0  0
   -0.8674   17.3334   -0.0504 H   0  0  0  0  0  0  0  0  0  0  0  0
    1.7569   16.3162   -0.1665 H   0  0  0  0  0  0  0  0  0  0  0  0
    1.3190   16.8107   -1.8550 H   0  0  0  0  0  0  0  0  0  0  0  0
    0.2274   18.5045   -0.2220 H   0  0  0  0  0  0  0  0  0  0  0  0
    3.7217   17.9238    1.7588 H   0  0  0  0  0  0  0  0  0  0  0  0
    3.4642   16.9726    0.2569 H   0  0  0  0  0  0  0  0  0  0  0  0
    4.6053   18.3599    0.2569 H   0  0  0  0  0  0  0  0  0  0  0  0
    2.4678   19.9993    2.0947 H   0  0  0  0  0  0  0  0  0  0  0  0
    3.3132   20.8262    0.7426 H   0  0  0  0  0  0  0  0  0  0  0  0
    1.5208   20.7075    0.7426 H   0  0  0  0  0  0  0  0  0  0  0  0
    1.4710   14.9752   -0.0281 H   0  0  0  0  0  0  0  0  0  0  0  0
    1.5784   13.5391    1.9124 H   0  0  0  0  0  0  0  0  0  0  0  0
   -0.1368   13.0963    1.7751 H   0  0  0  0  0  0  0  0  0  0  0  0
    2.0706   11.4414    1.0306 H   0  0  0  0  0  0  0  0  0  0  0  0
    0.4046   11.1441    0.5416 H   0  0  0  0  0  0  0  0  0  0  0  0
    3.3211   12.9531    0.2418 H   0  0  0  0  0  0  0  0  0  0  0  0
    3.7353   12.1491   -1.3102 H   0  0  0  0  0  0  0  0  0  0  0  0
    3.1067   13.8318   -1.3102 H   0  0  0  0  0  0  0  0  0  0  0  0
    0.4404   10.8196   -1.8594 H   0  0  0  0  0  0  0  0  0  0  0  0
    2.5416    9.8446   -0.7300 H   0  0  0  0  0  0  0  0  0  0  0  0
    1.8763    9.1242   -2.2879 H   0  0  0  0  0  0  0  0  0  0  0  0
    4.4968    9.3607   -2.1383 H   0  0  0  0  0  0  0  0  0  0  0  0
    3.2838   12.9243   -3.5990 H   0  0  0  0  0  0  0  0  0  0  0  0
    2.8520   10.9558   -5.9297 H   0  0  0  0  0  0  0  0  0  0  0  0
    2.4911   12.7392   -5.9244 H   0  0  0  0  0  0  0  0  0  0  0  0
    4.5899   12.2119   -7.1222 H   0  0  0  0  0  0  0  0  0  0  0  0
    4.8495   13.2469   -5.6636 H   0  0  0  0  0  0  0  0  0  0  0  0
    6.5675   11.5739   -5.7361 H   0  0  0  0  0  0  0  0  0  0  0  0
    5.8900    9.3070   -5.6480 H   0  0  0  0  0  0  0  0  0  0  0  0
    6.0817   12.3343   -2.1971 H   0  0  0  0  0  0  0  0  0  0  0  0
    7.1595   12.5287   -3.6209 H   0  0  0  0  0  0  0  0  0  0  0  0
    5.5273   13.2788   -3.6209 H   0  0  0  0  0  0  0  0  0  0  0  0
    6.5138    9.9058   -2.4004 H   0  0  0  0  0  0  0  0  0  0  0  0
    6.0831    9.0123   -3.8980 H   0  0  0  0  0  0  0  0  0  0  0  0
    7.4759   10.1467   -3.8980 H   0  0  0  0  0  0  0  0  0  0  0  0
    0.3166    9.9294   -3.7505 H   0  0  0  0  0  0  0  0  0  0  0  0
    0.0720   11.1692   -5.0271 H   0  0  0  0  0  0  0  0  0  0  0  0
    1.5588   10.1612   -5.0271 H   0  0  0  0  0  0  0  0  0  0  0  0
    1.1431   13.5743   -4.5847 H   0  0  0  0  0  0  0  0  0  0  0  0
   -0.3135   12.7813   -3.7581 H   0  0  0  0  0  0  0  0  0  0  0  0
    1.8150   14.5218   -2.4824 H   0  0  0  0  0  0  0  0  0  0  0  0
    0.0554   14.8705   -2.7036 H   0  0  0  0  0  0  0  0  0  0  0  0
   -1.3619   12.7244   -0.2401 H   0  0  0  0  0  0  0  0  0  0  0  0
   -1.6062   13.5914   -1.7942 H   0  0  0  0  0  0  0  0  0  0  0  0
   -0.9889   11.9045   -1.7942 H   0  0  0  0  0  0  0  0  0  0  0  0
  1  2  1  0
  2  3  1  0
  3  4  1  0
  4  5  1  0
  5  6  1  0
  6  7  1  0
  7  8  1  0
  7  9  1  0
  2 10  1  0
 10 11  1  0
 11 12  1  0
 12 13  1  0
 13 14  1  1
 13 15  1  0
 15 16  1  0
 16 17  1  0
 17 18  2  0
 18 19  1  0
 19 20  1  0
 20 21  1  0
 21 22  1  0
 22 23  1  0
 22 24  1  0
 24 25  1  0
 24 26  1  0
 19 27  1  0
 27 28  1  6
 27 29  1  0
 29 30  1  0
 30 31  1  0
 31 32  1  6
  7  5  1  0
 31 10  1  0
 31 13  1  0
 27 15  1  0
 24 18  1  0
  1 33  1  0
  1 34  1  0
  1 35  1  0
  2 36  1  1
  3 37  1  0
  3 38  1  0
  4 39  1  0
  4 40  1  0
  5 41  1  1
  8 42  1  0
  8 43  1  0
  8 44  1  0
  9 45  1  0
  9 46  1  0
  9 47  1  0
 10 48  1  6
 11 49  1  0
 11 50  1  0
 12 51  1  0
 12 52  1  0
 14 53  1  0
 14 54  1  0
 14 55  1  0
 15 56  1  6
 16 57  1  0
 16 58  1  0
 17 59  1  0
 19 60  1  1
 20 61  1  0
 20 62  1  0
 21 63  1  0
 21 64  1  0
 22 65  1  1
 23 66  1  0
 25 67  1  0
 25 68  1  0
 25 69  1  0
 26 70  1  0
 26 71  1  0
 26 72  1  0
 28 73  1  0
 28 74  1  0
 28 75  1  0
 29 76  1  0
 29 77  1  0
 30 78  1  0
 30 79  1  0
 32 80  1  0
 32 81  1  0
 32 82  1  0
M  END
>  <meeko>  (18) 
{"is_sidechain": [false], "intermolecular_energy": 2.731, "internal_energy": -0.839}

$$$$
EPH_relaxed_0001_pdb2pqr_Repair_241_r2_0001_out
     RDKit          3D

 82 86  0  0  0  0  0  0  0  0999 V2000
   -2.4550    7.7500   -0.0710 C   0  0  0  0  0  0  0  0  0  0  0  0
   -3.0720    9.1520   -0.0540 C   0  0  2  0  0  0  0  0  0  0  0  0
   -4.5670    9.1330   -0.4310 C   0  0  0  0  0  0  0  0  0  0  0  0
   -5.1720    7.7270   -0.4770 C   0  0  0  0  0  0  0  0  0  0  0  0
   -5.8740    7.4680   -1.7760 C   0  0  2  0  0  0  0  0  0  0  0  0
   -6.8230    8.4740   -2.1540 O   0  0  0  0  0  0  0  0  0  0  0  0
   -7.3580    7.1690   -1.8790 C   0  0  0  0  0  0  0  0  0  0  0  0
   -8.2300    7.1130   -0.6640 C   0  0  0  0  0  0  0  0  0  0  0  0
   -7.8610    6.4550   -3.0950 C   0  0  0  0  0  0  0  0  0  0  0  0
   -2.3070   10.0680   -1.0020 C   0  0  1  0  0  0  0  0  0  0  0  0
   -2.9570   11.4710   -1.1310 C   0  0  0  0  0  0  0  0  0  0  0  0
   -1.7980   12.4870   -1.3010 C   0  0  0  0  0  0  0  0  0  0  0  0
   -0.5550   11.6150   -1.5950 C   0  0  1  0  0  0  0  0  0  0  0  0
   -0.6520   11.2800   -3.1170 C   0  0  0  0  0  0  0  0  0  0  0  0
    0.8300   12.2400   -1.2290 C   0  0  2  0  0  0  0  0  0  0  0  0
    1.1900   13.5240   -1.9970 C   0  0  0  0  0  0  0  0  0  0  0  0
    1.9370   13.3160   -3.2730 C   0  0  0  0  0  0  0  0  0  0  0  0
    2.5530   12.1770   -3.6420 C   0  0  0  0  0  0  0  0  0  0  0  0
    2.6170   10.9730   -2.6930 C   0  0  1  0  0  0  0  0  0  0  0  0
    4.0620   10.4100   -2.6690 C   0  0  0  0  0  0  0  0  0  0  0  0
    4.5850   10.0810   -4.0640 C   0  0  0  0  0  0  0  0  0  0  0  0
    4.5600   11.3160   -4.9610 C   0  0  2  0  0  0  0  0  0  0  0  0
    5.5070   12.2670   -4.4630 O   0  0  0  0  0  0  0  0  0  0  0  0
    3.1560   11.9770   -5.0540 C   0  0  0  0  0  0  0  0  0  0  0  0
    2.2040   11.0630   -5.8650 C   0  0  0  0  0  0  0  0  0  0  0  0
    3.2990   13.2890   -5.8720 C   0  0  0  0  0  0  0  0  0  0  0  0
    2.0300   11.2080   -1.2350 C   0  0  1  0  0  0  0  0  0  0  0  0
    3.1320   11.8010   -0.3060 C   0  0  0  0  0  0  0  0  0  0  0  0
    1.6260    9.8180   -0.6140 C   0  0  0  0  0  0  0  0  0  0  0  0
    0.2020    9.3100   -0.9140 C   0  0  0  0  0  0  0  0  0  0  0  0
   -0.8380   10.4000   -0.6380 C   0  0  2  0  0  0  0  0  0  0  0  0
   -0.7790   10.7420    0.8900 C   0  0  0  0  0  0  0  0  0  0  0  0
   -2.3027    7.4039    0.9620 H   0  0  0  0  0  0  0  0  0  0  0  0
   -3.1317    7.0579   -0.5936 H   0  0  0  0  0  0  0  0  0  0  0  0
   -1.4876    7.7815   -0.5936 H   0  0  0  0  0  0  0  0  0  0  0  0
   -2.9960    9.5347    0.9745 H   0  0  0  0  0  0  0  0  0  0  0  0
   -5.1203    9.7251    0.3128 H   0  0  0  0  0  0  0  0  0  0  0  0
   -4.6483    9.5515   -1.4450 H   0  0  0  0  0  0  0  0  0  0  0  0
   -4.3666    6.9881   -0.3535 H   0  0  0  0  0  0  0  0  0  0  0  0
   -5.9103    7.6445    0.3343 H   0  0  0  0  0  0  0  0  0  0  0  0
   -4.9884    6.9560   -2.1804 H   0  0  0  0  0  0  0  0  0  0  0  0
   -7.6034    7.1532    0.2392 H   0  0  0  0  0  0  0  0  0  0  0  0
   -8.9213    7.9686   -0.6691 H   0  0  0  0  0  0  0  0  0  0  0  0
   -8.8062    6.1760   -0.6691 H   0  0  0  0  0  0  0  0  0  0  0  0
   -8.4693    5.5915   -2.7878 H   0  0  0  0  0  0  0  0  0  0  0  0
   -8.4759    7.1417   -3.6953 H   0  0  0  0  0  0  0  0  0  0  0  0
   -7.0074    6.1072   -3.6953 H   0  0  0  0  0  0  0  0  0  0  0  0
   -2.3392    9.4568   -1.9160 H   0  0  0  0  0  0  0  0  0  0  0  0
   -3.6198   11.5022   -2.0083 H   0  0  0  0  0  0  0  0  0  0  0  0
   -3.5635   11.7084   -0.2445 H   0  0  0  0  0  0  0  0  0  0  0  0
   -2.0002   13.1701   -2.1391 H   0  0  0  0  0  0  0  0  0  0  0  0
   -1.6632   13.1190   -0.4108 H   0  0  0  0  0  0  0  0  0  0  0  0
   -0.9559   10.2303   -3.2428 H   0  0  0  0  0  0  0  0  0  0  0  0
   -1.3969   11.9366   -3.5902 H   0  0  0  0  0  0  0  0  0  0  0  0
    0.3285   11.4370   -3.5902 H   0  0  0  0  0  0  0  0  0  0  0  0
    0.6797   12.5485   -0.1839 H   0  0  0  0  0  0  0  0  0  0  0  0
    0.2545   14.0524   -2.2331 H   0  0  0  0  0  0  0  0  0  0  0  0
    1.8636   14.0930   -1.3394 H   0  0  0  0  0  0  0  0  0  0  0  0
    1.9884   14.1650   -3.9705 H   0  0  0  0  0  0  0  0  0  0  0  0
    1.9297   10.2211   -3.1081 H   0  0  0  0  0  0  0  0  0  0  0  0
    4.7248   11.1593   -2.2116 H   0  0  0  0  0  0  0  0  0  0  0  0
    4.0466    9.4753   -2.0892 H   0  0  0  0  0  0  0  0  0  0  0  0
    5.6193    9.7152   -3.9837 H   0  0  0  0  0  0  0  0  0  0  0  0
    3.9381    9.3106   -4.5090 H   0  0  0  0  0  0  0  0  0  0  0  0
    4.8217   10.9900   -5.9785 H   0  0  0  0  0  0  0  0  0  0  0  0
    6.0870   12.5180   -5.2020 H   0  0  0  0  0  0  0  0  0  0  0  0
    1.5870   10.4706   -5.1734 H   0  0  0  0  0  0  0  0  0  0  0  0
    1.5525   11.6826   -6.4988 H   0  0  0  0  0  0  0  0  0  0  0  0
    2.7965   10.3868   -6.4988 H   0  0  0  0  0  0  0  0  0  0  0  0
    3.3920   14.1420   -5.1837 H   0  0  0  0  0  0  0  0  0  0  0  0
    4.1960   13.2299   -6.5059 H   0  0  0  0  0  0  0  0  0  0  0  0
    2.4103   13.4246   -6.5059 H   0  0  0  0  0  0  0  0  0  0  0  0
    2.8469   11.6476    0.7453 H   0  0  0  0  0  0  0  0  0  0  0  0
    4.0890   11.2961   -0.5038 H   0  0  0  0  0  0  0  0  0  0  0  0
    3.2378   12.8779   -0.5038 H   0  0  0  0  0  0  0  0  0  0  0  0
    2.3341    9.0661   -0.9924 H   0  0  0  0  0  0  0  0  0  0  0  0
    1.6536    9.9705    0.4750 H   0  0  0  0  0  0  0  0  0  0  0  0
    0.1409    9.0138   -1.9716 H   0  0  0  0  0  0  0  0  0  0  0  0
   -0.0088    8.4504   -0.2608 H   0  0  0  0  0  0  0  0  0  0  0  0
   -0.9371    9.8254    1.4773 H   0  0  0  0  0  0  0  0  0  0  0  0
    0.2058   11.1676    1.1327 H   0  0  0  0  0  0  0  0  0  0  0  0
   -1.5643   11.4730    1.1327 H   0  0  0  0  0  0  0  0  0  0  0  0
  1  2  1  0
  2  3  1  0
  3  4  1  0
  4  5  1  0
  5  6  1  0
  6  7  1  0
  7  8  1  0
  7  9  1  0
  2 10  1  0
 10 11  1  0
 11 12  1  0
 12 13  1  0
 13 14  1  6
 13 15  1  0
 15 16  1  0
 16 17  1  0
 17 18  2  0
 18 19  1  0
 19 20  1  0
 20 21  1  0
 21 22  1  0
 22 23  1  0
 22 24  1  0
 24 25  1  0
 24 26  1  0
 19 27  1  0
 27 28  1  1
 27 29  1  0
 29 30  1  0
 30 31  1  0
 31 32  1  1
  7  5  1  0
 31 10  1  0
 31 13  1  0
 27 15  1  0
 24 18  1  0
  1 33  1  0
  1 34  1  0
  1 35  1  0
  2 36  1  1
  3 37  1  0
  3 38  1  0
  4 39  1  0
  4 40  1  0
  5 41  1  6
  8 42  1  0
  8 43  1  0
  8 44  1  0
  9 45  1  0
  9 46  1  0
  9 47  1  0
 10 48  1  6
 11 49  1  0
 11 50  1  0
 12 51  1  0
 12 52  1  0
 14 53  1  0
 14 54  1  0
 14 55  1  0
 15 56  1  1
 16 57  1  0
 16 58  1  0
 17 59  1  0
 19 60  1  6
 20 61  1  0
 20 62  1  0
 21 63  1  0
 21 64  1  0
 22 65  1  6
 23 66  1  0
 25 67  1  0
 25 68  1  0
 25 69  1  0
 26 70  1  0
 26 71  1  0
 26 72  1  0
 28 73  1  0
 28 74  1  0
 28 75  1  0
 29 76  1  0
 29 77  1  0
 30 78  1  0
 30 79  1  0
 32 80  1  0
 32 81  1  0
 32 82  1  0
M  END
>  <meeko>  (19) 
{"is_sidechain": [false], "intermolecular_energy": 2.731, "internal_energy": -0.839}

$$$$
