EPH_relaxed_0001_pdb2pqr_Repair_365_r2_0001_out
     RDKit          3D

 82 86  0  0  0  0  0  0  0  0999 V2000
   -1.5050    8.6060   -1.9020 C   0  0  0  0  0  0  0  0  0  0  0  0
   -1.8700    9.1170   -0.5060 C   0  0  2  0  0  0  0  0  0  0  0  0
   -3.3680    9.4630   -0.3870 C   0  0  0  0  0  0  0  0  0  0  0  0
   -4.2240    8.3150    0.1540 C   0  0  0  0  0  0  0  0  0  0  0  0
   -5.5660    8.2620   -0.5110 C   0  0  2  0  0  0  0  0  0  0  0  0
   -6.2410    7.0030   -0.3980 O   0  0  0  0  0  0  0  0  0  0  0  0
   -5.8640    7.4030   -1.7250 C   0  0  0  0  0  0  0  0  0  0  0  0
   -4.8130    6.5370   -2.3460 C   0  0  0  0  0  0  0  0  0  0  0  0
   -7.0250    7.7720   -2.5960 C   0  0  0  0  0  0  0  0  0  0  0  0
   -1.0250   10.3380   -0.1620 C   0  0  1  0  0  0  0  0  0  0  0  0
    0.0520   10.0350    0.9140 C   0  0  0  0  0  0  0  0  0  0  0  0
    1.2920   10.8960    0.5620 C   0  0  0  0  0  0  0  0  0  0  0  0
    0.7790   11.9030   -0.4950 C   0  0  1  0  0  0  0  0  0  0  0  0
    0.0760   13.0270    0.3290 C   0  0  0  0  0  0  0  0  0  0  0  0
    1.8530   12.4870   -1.4700 C   0  0  2  0  0  0  0  0  0  0  0  0
    2.9630   13.3150   -0.7980 C   0  0  0  0  0  0  0  0  0  0  0  0
    2.6840   14.7760   -0.6770 C   0  0  0  0  0  0  0  0  0  0  0  0
    1.7220   15.4470   -1.3390 C   0  0  0  0  0  0  0  0  0  0  0  0
    0.8550   14.7440   -2.3920 C   0  0  1  0  0  0  0  0  0  0  0  0
    0.7640   15.6300   -3.6630 C   0  0  0  0  0  0  0  0  0  0  0  0
    0.2800   17.0440   -3.3570 C   0  0  0  0  0  0  0  0  0  0  0  0
    1.2000   17.7300   -2.3500 C   0  0  2  0  0  0  0  0  0  0  0  0
    2.4770   17.9380   -2.9610 O   0  0  0  0  0  0  0  0  0  0  0  0
    1.3760   16.9250   -1.0330 C   0  0  0  0  0  0  0  0  0  0  0  0
    0.0570   16.9570   -0.2230 C   0  0  0  0  0  0  0  0  0  0  0  0
    2.4360   17.6550   -0.1650 C   0  0  0  0  0  0  0  0  0  0  0  0
    1.2490   13.2410   -2.7240 C   0  0  1  0  0  0  0  0  0  0  0  0
    2.3440   13.2090   -3.8330 C   0  0  0  0  0  0  0  0  0  0  0  0
   -0.0070   12.5000   -3.3190 C   0  0  0  0  0  0  0  0  0  0  0  0
   -0.9670   11.8400   -2.3100 C   0  0  0  0  0  0  0  0  0  0  0  0
   -0.1980   10.9760   -1.3060 C   0  0  2  0  0  0  0  0  0  0  0  0
    0.5020    9.8230   -2.1030 C   0  0  0  0  0  0  0  0  0  0  0  0
   -0.8678    7.7140   -1.8109 H   0  0  0  0  0  0  0  0  0  0  0  0
   -2.4233    8.3464   -2.4491 H   0  0  0  0  0  0  0  0  0  0  0  0
   -0.9616    9.3904   -2.4491 H   0  0  0  0  0  0  0  0  0  0  0  0
   -1.6607    8.3066    0.2077 H   0  0  0  0  0  0  0  0  0  0  0  0
   -3.4729   10.3234    0.2903 H   0  0  0  0  0  0  0  0  0  0  0  0
   -3.7289    9.6818   -1.4028 H   0  0  0  0  0  0  0  0  0  0  0  0
   -3.6998    7.3646   -0.0251 H   0  0  0  0  0  0  0  0  0  0  0  0
   -4.3812    8.4824    1.2298 H   0  0  0  0  0  0  0  0  0  0  0  0
   -5.7384    9.3279   -0.3009 H   0  0  0  0  0  0  0  0  0  0  0  0
   -4.2234    6.0512   -1.5545 H   0  0  0  0  0  0  0  0  0  0  0  0
   -5.2927    5.7685   -2.9699 H   0  0  0  0  0  0  0  0  0  0  0  0
   -4.1504    7.1548   -2.9699 H   0  0  0  0  0  0  0  0  0  0  0  0
   -7.8841    8.0450   -1.9656 H   0  0  0  0  0  0  0  0  0  0  0  0
   -6.7498    8.6269   -3.2311 H   0  0  0  0  0  0  0  0  0  0  0  0
   -7.2939    6.9150   -3.2311 H   0  0  0  0  0  0  0  0  0  0  0  0
   -1.8198   11.0279    0.1579 H   0  0  0  0  0  0  0  0  0  0  0  0
   -0.3242   10.3033    1.9123 H   0  0  0  0  0  0  0  0  0  0  0  0
    0.3058    8.9648    0.9277 H   0  0  0  0  0  0  0  0  0  0  0  0
    1.6643   11.4234    1.4526 H   0  0  0  0  0  0  0  0  0  0  0  0
    2.1297   10.2888    0.1884 H   0  0  0  0  0  0  0  0  0  0  0  0
    0.2012   12.8269    1.4034 H   0  0  0  0  0  0  0  0  0  0  0  0
    0.5272   13.9994    0.0821 H   0  0  0  0  0  0  0  0  0  0  0  0
   -0.9958   13.0468    0.0821 H   0  0  0  0  0  0  0  0  0  0  0  0
    2.3449   11.5793   -1.8495 H   0  0  0  0  0  0  0  0  0  0  0  0
    3.1206   12.9141    0.2142 H   0  0  0  0  0  0  0  0  0  0  0  0
    3.8451   13.2266   -1.4492 H   0  0  0  0  0  0  0  0  0  0  0  0
    3.3180   15.3541    0.0114 H   0  0  0  0  0  0  0  0  0  0  0  0
   -0.1420   14.6342   -1.9404 H   0  0  0  0  0  0  0  0  0  0  0  0
    1.7615   15.6905   -4.1228 H   0  0  0  0  0  0  0  0  0  0  0  0
    0.0328   15.1664   -4.3416 H   0  0  0  0  0  0  0  0  0  0  0  0
    0.2659   17.6291   -4.2884 H   0  0  0  0  0  0  0  0  0  0  0  0
   -0.7299   16.9835   -2.9253 H   0  0  0  0  0  0  0  0  0  0  0  0
    0.7313   18.6856   -2.0724 H   0  0  0  0  0  0  0  0  0  0  0  0
    2.7730   18.8340   -2.7260 H   0  0  0  0  0  0  0  0  0  0  0  0
    0.2871   16.9514    0.8527 H   0  0  0  0  0  0  0  0  0  0  0  0
   -0.5048   17.8690   -0.4731 H   0  0  0  0  0  0  0  0  0  0  0  0
   -0.5484   16.0733   -0.4731 H   0  0  0  0  0  0  0  0  0  0  0  0
    2.2088   17.4985    0.8998 H   0  0  0  0  0  0  0  0  0  0  0  0
    3.4346   17.2522   -0.3899 H   0  0  0  0  0  0  0  0  0  0  0  0
    2.4157   18.7316   -0.3899 H   0  0  0  0  0  0  0  0  0  0  0  0
    3.3391   13.1799   -3.3650 H   0  0  0  0  0  0  0  0  0  0  0  0
    2.2066   12.3145   -4.4583 H   0  0  0  0  0  0  0  0  0  0  0  0
    2.2591   14.1100   -4.4583 H   0  0  0  0  0  0  0  0  0  0  0  0
   -0.5855   13.2365   -3.8959 H   0  0  0  0  0  0  0  0  0  0  0  0
    0.4031   11.6692   -3.9119 H   0  0  0  0  0  0  0  0  0  0  0  0
   -1.5123   12.6251   -1.7657 H   0  0  0  0  0  0  0  0  0  0  0  0
   -1.6678   11.1965   -2.8620 H   0  0  0  0  0  0  0  0  0  0  0  0
    0.9396    9.1022   -1.3966 H   0  0  0  0  0  0  0  0  0  0  0  0
   -0.2388    9.3125   -2.7360 H   0  0  0  0  0  0  0  0  0  0  0  0
    1.2967   10.2447   -2.7360 H   0  0  0  0  0  0  0  0  0  0  0  0
  1  2  1  0
  2  3  1  0
  3  4  1  0
  4  5  1  0
  5  6  1  0
  6  7  1  0
  7  8  1  0
  7  9  1  0
  2 10  1  0
 10 11  1  0
 11 12  1  0
 12 13  1  0
 13 14  1  1
 13 15  1  0
 15 16  1  0
 16 17  1  0
 17 18  2  0
 18 19  1  0
 19 20  1  0
 20 21  1  0
 21 22  1  0
 22 23  1  0
 22 24  1  0
 24 25  1  0
 24 26  1  0
 19 27  1  0
 27 28  1  6
 27 29  1  0
 29 30  1  0
 30 31  1  0
 31 32  1  6
  7  5  1  0
 31 10  1  0
 31 13  1  0
 27 15  1  0
 24 18  1  0
  1 33  1  0
  1 34  1  0
  1 35  1  0
  2 36  1  1
  3 37  1  0
  3 38  1  0
  4 39  1  0
  4 40  1  0
  5 41  1  6
  8 42  1  0
  8 43  1  0
  8 44  1  0
  9 45  1  0
  9 46  1  0
  9 47  1  0
 10 48  1  1
 11 49  1  0
 11 50  1  0
 12 51  1  0
 12 52  1  0
 14 53  1  0
 14 54  1  0
 14 55  1  0
 15 56  1  6
 16 57  1  0
 16 58  1  0
 17 59  1  0
 19 60  1  1
 20 61  1  0
 20 62  1  0
 21 63  1  0
 21 64  1  0
 22 65  1  1
 23 66  1  0
 25 67  1  0
 25 68  1  0
 25 69  1  0
 26 70  1  0
 26 71  1  0
 26 72  1  0
 28 73  1  0
 28 74  1  0
 28 75  1  0
 29 76  1  0
 29 77  1  0
 30 78  1  0
 30 79  1  0
 32 80  1  0
 32 81  1  0
 32 82  1  0
M  END
>  <meeko>  (1) 
{"is_sidechain": [false], "intermolecular_energy": 2.731, "internal_energy": -0.839}

$$$$
EPH_relaxed_0001_pdb2pqr_Repair_365_r2_0001_out
     RDKit          3D

 82 86  0  0  0  0  0  0  0  0999 V2000
    1.9710   19.6220   -0.6280 C   0  0  0  0  0  0  0  0  0  0  0  0
    2.3780   18.4040    0.2060 C   0  0  2  0  0  0  0  0  0  0  0  0
    3.8250   17.9580   -0.0850 C   0  0  0  0  0  0  0  0  0  0  0  0
    4.7580   18.0700    1.1230 C   0  0  0  0  0  0  0  0  0  0  0  0
    4.1500   18.8910    2.2200 C   0  0  2  0  0  0  0  0  0  0  0  0
    4.8860   20.0730    2.5620 O   0  0  0  0  0  0  0  0  0  0  0  0
    4.7880   19.0690    3.5850 C   0  0  0  0  0  0  0  0  0  0  0  0
    6.0920   18.4190    3.9270 C   0  0  0  0  0  0  0  0  0  0  0  0
    3.9160   19.4640    4.7360 C   0  0  0  0  0  0  0  0  0  0  0  0
    1.4150   17.2510   -0.0540 C   0  0  1  0  0  0  0  0  0  0  0  0
    0.1240   17.7040   -0.7850 C   0  0  0  0  0  0  0  0  0  0  0  0
   -0.2870   16.5440   -1.7280 C   0  0  0  0  0  0  0  0  0  0  0  0
    0.5760   15.3460   -1.2710 C   0  0  1  0  0  0  0  0  0  0  0  0
   -0.1680   14.7660   -0.0270 C   0  0  0  0  0  0  0  0  0  0  0  0
    0.8510   14.2430   -2.3450 C   0  0  2  0  0  0  0  0  0  0  0  0
   -0.3990   13.5140   -2.8670 C   0  0  0  0  0  0  0  0  0  0  0  0
   -0.7840   12.2860   -2.1110 C   0  0  0  0  0  0  0  0  0  0  0  0
    0.0010   11.6270   -1.2380 C   0  0  0  0  0  0  0  0  0  0  0  0
    1.4570   12.0540   -1.0100 C   0  0  1  0  0  0  0  0  0  0  0  0
    2.3730   10.8020   -1.0350 C   0  0  0  0  0  0  0  0  0  0  0  0
    1.9200    9.7260   -0.0530 C   0  0  0  0  0  0  0  0  0  0  0  0
    0.4880    9.2860   -0.3490 C   0  0  2  0  0  0  0  0  0  0  0  0
    0.4630    8.6180   -1.6140 O   0  0  0  0  0  0  0  0  0  0  0  0
   -0.5250   10.4650   -0.3600 C   0  0  0  0  0  0  0  0  0  0  0  0
   -0.7220   10.9960    1.0810 C   0  0  0  0  0  0  0  0  0  0  0  0
   -1.9020    9.9060   -0.8090 C   0  0  0  0  0  0  0  0  0  0  0  0
    1.9920   13.2210   -1.9470 C   0  0  1  0  0  0  0  0  0  0  0  0
    2.5400   12.6240   -3.2790 C   0  0  0  0  0  0  0  0  0  0  0  0
    3.2100   13.9280   -1.2420 C   0  0  0  0  0  0  0  0  0  0  0  0
    2.8800   15.0880   -0.2840 C   0  0  0  0  0  0  0  0  0  0  0  0
    1.9230   16.0870   -0.9410 C   0  0  2  0  0  0  0  0  0  0  0  0
    2.6530   16.7030   -2.1830 C   0  0  0  0  0  0  0  0  0  0  0  0
    1.6945   20.4494    0.0421 H   0  0  0  0  0  0  0  0  0  0  0  0
    2.8149   19.9304   -1.2626 H   0  0  0  0  0  0  0  0  0  0  0  0
    1.1112   19.3611   -1.2626 H   0  0  0  0  0  0  0  0  0  0  0  0
    2.3299   18.6970    1.2652 H   0  0  0  0  0  0  0  0  0  0  0  0
    3.8056   16.9081   -0.4126 H   0  0  0  0  0  0  0  0  0  0  0  0
    4.2196   18.6321   -0.8595 H   0  0  0  0  0  0  0  0  0  0  0  0
    4.9664   17.0605    1.5071 H   0  0  0  0  0  0  0  0  0  0  0  0
    5.6834   18.5667    0.7961 H   0  0  0  0  0  0  0  0  0  0  0  0
    3.1368   18.5929    1.9126 H   0  0  0  0  0  0  0  0  0  0  0  0
    6.1994   18.3655    5.0204 H   0  0  0  0  0  0  0  0  0  0  0  0
    6.1169   17.4031    3.5060 H   0  0  0  0  0  0  0  0  0  0  0  0
    6.9182   19.0107    3.5060 H   0  0  0  0  0  0  0  0  0  0  0  0
    4.4287   19.2317    5.6811 H   0  0  0  0  0  0  0  0  0  0  0  0
    3.7099   20.5434    4.6863 H   0  0  0  0  0  0  0  0  0  0  0  0
    2.9687   18.9071    4.6863 H   0  0  0  0  0  0  0  0  0  0  0  0
    1.2646   16.9003    0.9777 H   0  0  0  0  0  0  0  0  0  0  0  0
   -0.6754   17.9002   -0.0553 H   0  0  0  0  0  0  0  0  0  0  0  0
    0.2957   18.6312   -1.3513 H   0  0  0  0  0  0  0  0  0  0  0  0
   -1.3575   16.3155   -1.6189 H   0  0  0  0  0  0  0  0  0  0  0  0
   -0.1288   16.7919   -2.7880 H   0  0  0  0  0  0  0  0  0  0  0  0
    0.3090   15.1378    0.8918 H   0  0  0  0  0  0  0  0  0  0  0  0
   -1.2208   15.0841   -0.0482 H   0  0  0  0  0  0  0  0  0  0  0  0
   -0.1164   13.6674   -0.0482 H   0  0  0  0  0  0  0  0  0  0  0  0
    1.2302   14.8305   -3.1941 H   0  0  0  0  0  0  0  0  0  0  0  0
   -1.2441   14.2170   -2.8263 H   0  0  0  0  0  0  0  0  0  0  0  0
   -0.1526   13.1792   -3.8854 H   0  0  0  0  0  0  0  0  0  0  0  0
   -1.7943   11.8857   -2.2815 H   0  0  0  0  0  0  0  0  0  0  0  0
    1.4860   12.5179   -0.0130 H   0  0  0  0  0  0  0  0  0  0  0  0
    2.3643   10.3789   -2.0504 H   0  0  0  0  0  0  0  0  0  0  0  0
    3.3829   11.1212   -0.7380 H   0  0  0  0  0  0  0  0  0  0  0  0
    2.5886    8.8567   -0.1377 H   0  0  0  0  0  0  0  0  0  0  0  0
    1.9567   10.1413    0.9649 H   0  0  0  0  0  0  0  0  0  0  0  0
    0.1756    8.6118    0.4621 H   0  0  0  0  0  0  0  0  0  0  0  0
    0.6250    7.6730   -1.4510 H   0  0  0  0  0  0  0  0  0  0  0  0
   -0.4329   10.2168    1.8016 H   0  0  0  0  0  0  0  0  0  0  0  0
   -0.0945   11.8866    1.2326 H   0  0  0  0  0  0  0  0  0  0  0  0
   -1.7786   11.2618    1.2326 H   0  0  0  0  0  0  0  0  0  0  0  0
   -2.5051    9.6612    0.0777 H   0  0  0  0  0  0  0  0  0  0  0  0
   -2.4261   10.6626   -1.4114 H   0  0  0  0  0  0  0  0  0  0  0  0
   -1.7504    8.9982   -1.4114 H   0  0  0  0  0  0  0  0  0  0  0  0
    3.2680   11.8309   -3.0532 H   0  0  0  0  0  0  0  0  0  0  0  0
    1.7076   12.2026   -3.8618 H   0  0  0  0  0  0  0  0  0  0  0  0
    3.0310   13.4173   -3.8618 H   0  0  0  0  0  0  0  0  0  0  0  0
    3.7502   13.1631   -0.6648 H   0  0  0  0  0  0  0  0  0  0  0  0
    3.7895   14.3845   -2.0579 H   0  0  0  0  0  0  0  0  0  0  0  0
    2.4091   14.6822    0.6235 H   0  0  0  0  0  0  0  0  0  0  0  0
    3.8143   15.6112   -0.0323 H   0  0  0  0  0  0  0  0  0  0  0  0
    3.4521   17.3773   -1.8414 H   0  0  0  0  0  0  0  0  0  0  0  0
    3.0889   15.8957   -2.7898 H   0  0  0  0  0  0  0  0  0  0  0  0
    1.9305   17.2685   -2.7898 H   0  0  0  0  0  0  0  0  0  0  0  0
  1  2  1  0
  2  3  1  0
  3  4  1  0
  4  5  1  0
  5  6  1  0
  6  7  1  0
  7  8  1  0
  7  9  1  0
  2 10  1  0
 10 11  1  0
 11 12  1  0
 12 13  1  0
 13 14  1  1
 13 15  1  0
 15 16  1  0
 16 17  1  0
 17 18  2  0
 18 19  1  0
 19 20  1  0
 20 21  1  0
 21 22  1  0
 22 23  1  0
 22 24  1  0
 24 25  1  0
 24 26  1  0
 19 27  1  0
 27 28  1  6
 27 29  1  0
 29 30  1  0
 30 31  1  0
 31 32  1  6
  7  5  1  0
 31 10  1  0
 31 13  1  0
 27 15  1  0
 24 18  1  0
  1 33  1  0
  1 34  1  0
  1 35  1  0
  2 36  1  1
  3 37  1  0
  3 38  1  0
  4 39  1  0
  4 40  1  0
  5 41  1  1
  8 42  1  0
  8 43  1  0
  8 44  1  0
  9 45  1  0
  9 46  1  0
  9 47  1  0
 10 48  1  1
 11 49  1  0
 11 50  1  0
 12 51  1  0
 12 52  1  0
 14 53  1  0
 14 54  1  0
 14 55  1  0
 15 56  1  6
 16 57  1  0
 16 58  1  0
 17 59  1  0
 19 60  1  1
 20 61  1  0
 20 62  1  0
 21 63  1  0
 21 64  1  0
 22 65  1  1
 23 66  1  0
 25 67  1  0
 25 68  1  0
 25 69  1  0
 26 70  1  0
 26 71  1  0
 26 72  1  0
 28 73  1  0
 28 74  1  0
 28 75  1  0
 29 76  1  0
 29 77  1  0
 30 78  1  0
 30 79  1  0
 32 80  1  0
 32 81  1  0
 32 82  1  0
M  END
>  <meeko>  (2) 
{"is_sidechain": [false], "intermolecular_energy": 2.731, "internal_energy": -0.839}

$$$$
EPH_relaxed_0001_pdb2pqr_Repair_365_r2_0001_out
     RDKit          3D

 82 86  0  0  0  0  0  0  0  0999 V2000
    0.4200   18.4220    0.0030 C   0  0  0  0  0  0  0  0  0  0  0  0
    1.5080   17.3680   -0.2230 C   0  0  2  0  0  0  0  0  0  0  0  0
    2.7200   17.9390   -0.9860 C   0  0  0  0  0  0  0  0  0  0  0  0
    3.9550   18.1540   -0.1080 C   0  0  0  0  0  0  0  0  0  0  0  0
    3.5830   18.6260    1.2650 C   0  0  2  0  0  0  0  0  0  0  0  0
    3.8410   20.0150    1.5110 O   0  0  0  0  0  0  0  0  0  0  0  0
    4.5990   19.0810    2.2970 C   0  0  0  0  0  0  0  0  0  0  0  0
    6.0650   19.0850    1.9990 C   0  0  0  0  0  0  0  0  0  0  0  0
    4.2110   19.0550    3.7420 C   0  0  0  0  0  0  0  0  0  0  0  0
    0.9290   16.1780   -0.9780 C   0  0  1  0  0  0  0  0  0  0  0  0
    0.7840   16.4490   -2.4990 C   0  0  0  0  0  0  0  0  0  0  0  0
    1.0690   15.1080   -3.2220 C   0  0  0  0  0  0  0  0  0  0  0  0
    1.0410   14.0450   -2.0990 C   0  0  1  0  0  0  0  0  0  0  0  0
   -0.4730   13.7440   -1.8690 C   0  0  0  0  0  0  0  0  0  0  0  0
    1.8560   12.7380   -2.3640 C   0  0  2  0  0  0  0  0  0  0  0  0
    1.3760   11.9010   -3.5630 C   0  0  0  0  0  0  0  0  0  0  0  0
    0.3510   10.8640   -3.2470 C   0  0  0  0  0  0  0  0  0  0  0  0
    0.0430   10.4180   -2.0150 C   0  0  0  0  0  0  0  0  0  0  0  0
    0.8250   10.8980   -0.7850 C   0  0  1  0  0  0  0  0  0  0  0  0
    1.1940    9.6790    0.1020 C   0  0  0  0  0  0  0  0  0  0  0  0
   -0.0230    8.8390    0.4760 C   0  0  0  0  0  0  0  0  0  0  0  0
   -0.7410    8.3320   -0.7720 C   0  0  2  0  0  0  0  0  0  0  0  0
    0.1120    7.4040   -1.4490 O   0  0  0  0  0  0  0  0  0  0  0  0
   -1.1530    9.4710   -1.7470 C   0  0  0  0  0  0  0  0  0  0  0  0
   -2.3010   10.3010   -1.1220 C   0  0  0  0  0  0  0  0  0  0  0  0
   -1.7380    8.8150   -3.0270 C   0  0  0  0  0  0  0  0  0  0  0  0
    2.0730   11.8370   -1.0810 C   0  0  1  0  0  0  0  0  0  0  0  0
    3.3390   10.9700   -1.3540 C   0  0  0  0  0  0  0  0  0  0  0  0
    2.3880   12.6920    0.2040 C   0  0  0  0  0  0  0  0  0  0  0  0
    1.6390   14.0300    0.3490 C   0  0  0  0  0  0  0  0  0  0  0  0
    1.7320   14.8530   -0.9400 C   0  0  2  0  0  0  0  0  0  0  0  0
    3.2420   15.1900   -1.1850 C   0  0  0  0  0  0  0  0  0  0  0  0
    0.2694   18.5679    1.0828 H   0  0  0  0  0  0  0  0  0  0  0  0
    0.7295   19.3727   -0.4558 H   0  0  0  0  0  0  0  0  0  0  0  0
   -0.5204   18.0825   -0.4558 H   0  0  0  0  0  0  0  0  0  0  0  0
    1.8648   17.0426    0.7653 H   0  0  0  0  0  0  0  0  0  0  0  0
    2.9845   17.2383   -1.7916 H   0  0  0  0  0  0  0  0  0  0  0  0
    2.4223   18.9263   -1.3689 H   0  0  0  0  0  0  0  0  0  0  0  0
    4.5015   17.2032   -0.0223 H   0  0  0  0  0  0  0  0  0  0  0  0
    4.5804   18.9268   -0.5788 H   0  0  0  0  0  0  0  0  0  0  0  0
    2.7534   17.9053    1.3139 H   0  0  0  0  0  0  0  0  0  0  0  0
    6.6309   19.0865    2.9423 H   0  0  0  0  0  0  0  0  0  0  0  0
    6.3235   18.1876    1.4178 H   0  0  0  0  0  0  0  0  0  0  0  0
    6.3186   19.9838    1.4178 H   0  0  0  0  0  0  0  0  0  0  0  0
    5.1151   19.1156    4.3656 H   0  0  0  0  0  0  0  0  0  0  0  0
    3.5563   19.9113    3.9613 H   0  0  0  0  0  0  0  0  0  0  0  0
    3.6764   18.1190    3.9613 H   0  0  0  0  0  0  0  0  0  0  0  0
   -0.0203   16.0592   -0.4352 H   0  0  0  0  0  0  0  0  0  0  0  0
   -0.2357   16.7928   -2.7269 H   0  0  0  0  0  0  0  0  0  0  0  0
    1.4831   17.2316   -2.8289 H   0  0  0  0  0  0  0  0  0  0  0  0
    0.2931   14.8995   -3.9734 H   0  0  0  0  0  0  0  0  0  0  0  0
    2.0280   15.1203   -3.7606 H   0  0  0  0  0  0  0  0  0  0  0  0
   -0.6788   13.7031   -0.7892 H   0  0  0  0  0  0  0  0  0  0  0  0
   -1.0788   14.5393   -2.3278 H   0  0  0  0  0  0  0  0  0  0  0  0
   -0.7285   12.7775   -2.3278 H   0  0  0  0  0  0  0  0  0  0  0  0
    2.8432   13.1306   -2.6492 H   0  0  0  0  0  0  0  0  0  0  0  0
    0.9462   12.5881   -4.3068 H   0  0  0  0  0  0  0  0  0  0  0  0
    2.2593   11.3550   -3.9259 H   0  0  0  0  0  0  0  0  0  0  0  0
   -0.1999   10.4267   -4.0928 H   0  0  0  0  0  0  0  0  0  0  0  0
    0.1474   11.5680   -0.2355 H   0  0  0  0  0  0  0  0  0  0  0  0
    1.9048    9.0448   -0.4480 H   0  0  0  0  0  0  0  0  0  0  0  0
    1.6332   10.0645    1.0339 H   0  0  0  0  0  0  0  0  0  0  0  0
    0.3049    7.9782    1.0773 H   0  0  0  0  0  0  0  0  0  0  0  0
   -0.7196    9.4670    1.0508 H   0  0  0  0  0  0  0  0  0  0  0  0
   -1.6727    7.8484   -0.4435 H   0  0  0  0  0  0  0  0  0  0  0  0
   -0.4480    6.6890   -1.7960 H   0  0  0  0  0  0  0  0  0  0  0  0
   -2.2336   10.2523   -0.0251 H   0  0  0  0  0  0  0  0  0  0  0  0
   -2.2163   11.3480   -1.4484 H   0  0  0  0  0  0  0  0  0  0  0  0
   -3.2687    9.8923   -1.4484 H   0  0  0  0  0  0  0  0  0  0  0  0
   -2.4452    8.0220   -2.7422 H   0  0  0  0  0  0  0  0  0  0  0  0
   -2.2620    9.5769   -3.6228 H   0  0  0  0  0  0  0  0  0  0  0  0
   -0.9213    8.3814   -3.6228 H   0  0  0  0  0  0  0  0  0  0  0  0
    3.7867   10.6634   -0.3972 H   0  0  0  0  0  0  0  0  0  0  0  0
    3.0544   10.0763   -1.9288 H   0  0  0  0  0  0  0  0  0  0  0  0
    4.0694   11.5584   -1.9288 H   0  0  0  0  0  0  0  0  0  0  0  0
    2.1423   12.0763    1.0818 H   0  0  0  0  0  0  0  0  0  0  0  0
    3.4499   12.9649    0.1148 H   0  0  0  0  0  0  0  0  0  0  0  0
    0.5808   13.8278    0.5713 H   0  0  0  0  0  0  0  0  0  0  0  0
    2.1011   14.6039    1.1657 H   0  0  0  0  0  0  0  0  0  0  0  0
    3.7538   15.3042   -0.2180 H   0  0  0  0  0  0  0  0  0  0  0  0
    3.7119   14.3746   -1.7545 H   0  0  0  0  0  0  0  0  0  0  0  0
    3.3207   16.1278   -1.7545 H   0  0  0  0  0  0  0  0  0  0  0  0
  1  2  1  0
  2  3  1  0
  3  4  1  0
  4  5  1  0
  5  6  1  0
  6  7  1  0
  7  8  1  0
  7  9  1  0
  2 10  1  0
 10 11  1  0
 11 12  1  0
 12 13  1  0
 13 14  1  1
 13 15  1  0
 15 16  1  0
 16 17  1  0
 17 18  2  0
 18 19  1  0
 19 20  1  0
 20 21  1  0
 21 22  1  0
 22 23  1  0
 22 24  1  0
 24 25  1  0
 24 26  1  0
 19 27  1  0
 27 28  1  6
 27 29  1  0
 29 30  1  0
 30 31  1  0
 31 32  1  6
  7  5  1  0
 31 10  1  0
 31 13  1  0
 27 15  1  0
 24 18  1  0
  1 33  1  0
  1 34  1  0
  1 35  1  0
  2 36  1  1
  3 37  1  0
  3 38  1  0
  4 39  1  0
  4 40  1  0
  5 41  1  1
  8 42  1  0
  8 43  1  0
  8 44  1  0
  9 45  1  0
  9 46  1  0
  9 47  1  0
 10 48  1  1
 11 49  1  0
 11 50  1  0
 12 51  1  0
 12 52  1  0
 14 53  1  0
 14 54  1  0
 14 55  1  0
 15 56  1  6
 16 57  1  0
 16 58  1  0
 17 59  1  0
 19 60  1  1
 20 61  1  0
 20 62  1  0
 21 63  1  0
 21 64  1  0
 22 65  1  1
 23 66  1  0
 25 67  1  0
 25 68  1  0
 25 69  1  0
 26 70  1  0
 26 71  1  0
 26 72  1  0
 28 73  1  0
 28 74  1  0
 28 75  1  0
 29 76  1  0
 29 77  1  0
 30 78  1  0
 30 79  1  0
 32 80  1  0
 32 81  1  0
 32 82  1  0
M  END
>  <meeko>  (3) 
{"is_sidechain": [false], "intermolecular_energy": 2.731, "internal_energy": -0.839}

$$$$
EPH_relaxed_0001_pdb2pqr_Repair_365_r2_0001_out
     RDKit          3D

 82 86  0  0  0  0  0  0  0  0999 V2000
    2.1920   18.0060   -2.5810 C   0  0  0  0  0  0  0  0  0  0  0  0
    0.6700   17.8560   -2.6640 C   0  0  2  0  0  0  0  0  0  0  0  0
   -0.0320   18.3350   -1.3770 C   0  0  0  0  0  0  0  0  0  0  0  0
    0.6970   17.9310   -0.0930 C   0  0  0  0  0  0  0  0  0  0  0  0
    1.2600   19.1220    0.6220 C   0  0  2  0  0  0  0  0  0  0  0  0
    2.1740   19.9090   -0.1520 O   0  0  0  0  0  0  0  0  0  0  0  0
    2.7220   19.2550    1.0040 C   0  0  0  0  0  0  0  0  0  0  0  0
    3.7130   18.1800    0.6830 C   0  0  0  0  0  0  0  0  0  0  0  0
    3.0910   20.1940    2.1090 C   0  0  0  0  0  0  0  0  0  0  0  0
    0.3060   16.4030   -2.9470 C   0  0  1  0  0  0  0  0  0  0  0  0
    0.3680   16.0550   -4.4580 C   0  0  0  0  0  0  0  0  0  0  0  0
    0.8630   14.5890   -4.5590 C   0  0  0  0  0  0  0  0  0  0  0  0
    0.7510   14.0390   -3.1170 C   0  0  1  0  0  0  0  0  0  0  0  0
   -0.7530   13.6530   -2.9510 C   0  0  0  0  0  0  0  0  0  0  0  0
    1.6960   12.8470   -2.7570 C   0  0  2  0  0  0  0  0  0  0  0  0
    1.4670   11.5630   -3.5730 C   0  0  0  0  0  0  0  0  0  0  0  0
    0.4900   10.5990   -2.9850 C   0  0  0  0  0  0  0  0  0  0  0  0
    0.0370   10.6200   -1.7180 C   0  0  0  0  0  0  0  0  0  0  0  0
    0.5880   11.6280   -0.7010 C   0  0  1  0  0  0  0  0  0  0  0  0
    0.9140   10.8970    0.6280 C   0  0  0  0  0  0  0  0  0  0  0  0
   -0.2760   10.1120    1.1710 C   0  0  0  0  0  0  0  0  0  0  0  0
   -0.7570    9.0800    0.1540 C   0  0  2  0  0  0  0  0  0  0  0  0
    0.2570    8.0830   -0.0070 O   0  0  0  0  0  0  0  0  0  0  0  0
   -1.1070    9.6980   -1.2280 C   0  0  0  0  0  0  0  0  0  0  0  0
   -2.3970   10.5470   -1.1080 C   0  0  0  0  0  0  0  0  0  0  0  0
   -1.4420    8.5350   -2.2010 C   0  0  0  0  0  0  0  0  0  0  0  0
    1.7880   12.5390   -1.2070 C   0  0  1  0  0  0  0  0  0  0  0  0
    3.1450   11.8050   -0.9790 C   0  0  0  0  0  0  0  0  0  0  0  0
    1.8400   13.8500   -0.3380 C   0  0  0  0  0  0  0  0  0  0  0  0
    0.9750   15.0340   -0.8130 C   0  0  0  0  0  0  0  0  0  0  0  0
    1.1950   15.3090   -2.3040 C   0  0  2  0  0  0  0  0  0  0  0  0
    2.6930   15.7220   -2.4990 C   0  0  0  0  0  0  0  0  0  0  0  0
    2.5004   18.0364   -1.5256 H   0  0  0  0  0  0  0  0  0  0  0  0
    2.6724   17.1509   -3.0789 H   0  0  0  0  0  0  0  0  0  0  0  0
    2.4962   18.9385   -3.0789 H   0  0  0  0  0  0  0  0  0  0  0  0
    0.3186   18.4944   -3.4880 H   0  0  0  0  0  0  0  0  0  0  0  0
   -0.1011   19.4324   -1.4067 H   0  0  0  0  0  0  0  0  0  0  0  0
   -1.0206   17.8533   -1.3511 H   0  0  0  0  0  0  0  0  0  0  0  0
   -0.0119   17.4174    0.5731 H   0  0  0  0  0  0  0  0  0  0  0  0
    1.5315   17.2684   -0.3660 H   0  0  0  0  0  0  0  0  0  0  0  0
    0.3324   19.2414    1.2010 H   0  0  0  0  0  0  0  0  0  0  0  0
    4.1065   17.7532    1.6173 H   0  0  0  0  0  0  0  0  0  0  0  0
    3.2200   17.3897    0.0979 H   0  0  0  0  0  0  0  0  0  0  0  0
    4.5407   18.6072    0.0979 H   0  0  0  0  0  0  0  0  0  0  0  0
    2.9013   19.7113    3.0791 H   0  0  0  0  0  0  0  0  0  0  0  0
    4.1574   20.4520    2.0301 H   0  0  0  0  0  0  0  0  0  0  0  0
    2.4856   21.1090    2.0301 H   0  0  0  0  0  0  0  0  0  0  0  0
   -0.7014   16.3760   -2.5061 H   0  0  0  0  0  0  0  0  0  0  0  0
   -0.6304   16.1498   -4.9099 H   0  0  0  0  0  0  0  0  0  0  0  0
    1.0439   16.7380   -4.9934 H   0  0  0  0  0  0  0  0  0  0  0  0
    0.2271   14.0109   -5.2456 H   0  0  0  0  0  0  0  0  0  0  0  0
    1.8878   14.5209   -4.9530 H   0  0  0  0  0  0  0  0  0  0  0  0
   -0.9994   13.5898   -1.8808 H   0  0  0  0  0  0  0  0  0  0  0  0
   -1.3828   14.4186   -3.4276 H   0  0  0  0  0  0  0  0  0  0  0  0
   -0.9363   12.6787   -3.4276 H   0  0  0  0  0  0  0  0  0  0  0  0
    2.6815   13.2249   -3.0667 H   0  0  0  0  0  0  0  0  0  0  0  0
    1.1003   11.8538   -4.5685 H   0  0  0  0  0  0  0  0  0  0  0  0
    2.4345   11.0401   -3.5952 H   0  0  0  0  0  0  0  0  0  0  0  0
    0.1083    9.8045   -3.6431 H   0  0  0  0  0  0  0  0  0  0  0  0
   -0.2141   12.3625   -0.5361 H   0  0  0  0  0  0  0  0  0  0  0  0
    1.7459   10.1992    0.4518 H   0  0  0  0  0  0  0  0  0  0  0  0
    1.1779   11.6615    1.3736 H   0  0  0  0  0  0  0  0  0  0  0  0
    0.0245    9.5950    2.0943 H   0  0  0  0  0  0  0  0  0  0  0  0
   -1.0975   10.8147    1.3744 H   0  0  0  0  0  0  0  0  0  0  0  0
   -1.6867    8.6409    0.5450 H   0  0  0  0  0  0  0  0  0  0  0  0
    1.0400    8.3780    0.4880 H   0  0  0  0  0  0  0  0  0  0  0  0
   -2.6352   10.7038   -0.0456 H   0  0  0  0  0  0  0  0  0  0  0  0
   -2.2422   11.5203   -1.5966 H   0  0  0  0  0  0  0  0  0  0  0  0
   -3.2297   10.0198   -1.5966 H   0  0  0  0  0  0  0  0  0  0  0  0
   -1.7010    7.6360   -1.6225 H   0  0  0  0  0  0  0  0  0  0  0  0
   -2.2942    8.8212   -2.8349 H   0  0  0  0  0  0  0  0  0  0  0  0
   -0.5681    8.3240   -2.8349 H   0  0  0  0  0  0  0  0  0  0  0  0
    3.3307   11.7046    0.1006 H   0  0  0  0  0  0  0  0  0  0  0  0
    3.1034   10.8064   -1.4384 H   0  0  0  0  0  0  0  0  0  0  0  0
    3.9580   12.3863   -1.4384 H   0  0  0  0  0  0  0  0  0  0  0  0
    1.5150   13.5877    0.6796 H   0  0  0  0  0  0  0  0  0  0  0  0
    2.8787   14.2041   -0.4136 H   0  0  0  0  0  0  0  0  0  0  0  0
   -0.0855   14.7960   -0.6434 H   0  0  0  0  0  0  0  0  0  0  0  0
    1.2636   15.9302   -0.2442 H   0  0  0  0  0  0  0  0  0  0  0  0
    3.1682   15.8530   -1.5156 H   0  0  0  0  0  0  0  0  0  0  0  0
    3.2202   14.9357   -3.0592 H   0  0  0  0  0  0  0  0  0  0  0  0
    2.7428   16.6674   -3.0592 H   0  0  0  0  0  0  0  0  0  0  0  0
  1  2  1  0
  2  3  1  0
  3  4  1  0
  4  5  1  0
  5  6  1  0
  6  7  1  0
  7  8  1  0
  7  9  1  0
  2 10  1  0
 10 11  1  0
 11 12  1  0
 12 13  1  0
 13 14  1  1
 13 15  1  0
 15 16  1  0
 16 17  1  0
 17 18  2  0
 18 19  1  0
 19 20  1  0
 20 21  1  0
 21 22  1  0
 22 23  1  0
 22 24  1  0
 24 25  1  0
 24 26  1  0
 19 27  1  0
 27 28  1  6
 27 29  1  0
 29 30  1  0
 30 31  1  0
 31 32  1  1
  7  5  1  0
 31 10  1  0
 31 13  1  0
 27 15  1  0
 24 18  1  0
  1 33  1  0
  1 34  1  0
  1 35  1  0
  2 36  1  6
  3 37  1  0
  3 38  1  0
  4 39  1  0
  4 40  1  0
  5 41  1  1
  8 42  1  0
  8 43  1  0
  8 44  1  0
  9 45  1  0
  9 46  1  0
  9 47  1  0
 10 48  1  1
 11 49  1  0
 11 50  1  0
 12 51  1  0
 12 52  1  0
 14 53  1  0
 14 54  1  0
 14 55  1  0
 15 56  1  6
 16 57  1  0
 16 58  1  0
 17 59  1  0
 19 60  1  1
 20 61  1  0
 20 62  1  0
 21 63  1  0
 21 64  1  0
 22 65  1  1
 23 66  1  0
 25 67  1  0
 25 68  1  0
 25 69  1  0
 26 70  1  0
 26 71  1  0
 26 72  1  0
 28 73  1  0
 28 74  1  0
 28 75  1  0
 29 76  1  0
 29 77  1  0
 30 78  1  0
 30 79  1  0
 32 80  1  0
 32 81  1  0
 32 82  1  0
M  END
>  <meeko>  (4) 
{"is_sidechain": [false], "intermolecular_energy": 2.731, "internal_energy": -0.839}

$$$$
EPH_relaxed_0001_pdb2pqr_Repair_365_r2_0001_out
     RDKit          3D

 82 86  0  0  0  0  0  0  0  0999 V2000
    2.3560   17.9910   -2.6890 C   0  0  0  0  0  0  0  0  0  0  0  0
    1.0520   17.6220   -1.9760 C   0  0  2  0  0  0  0  0  0  0  0  0
    1.1950   17.6740   -0.4420 C   0  0  0  0  0  0  0  0  0  0  0  0
    0.8770   19.0460    0.1600 C   0  0  0  0  0  0  0  0  0  0  0  0
   -0.5650   19.1590    0.5510 C   0  0  2  0  0  0  0  0  0  0  0  0
   -1.4430   18.2520   -0.1300 O   0  0  0  0  0  0  0  0  0  0  0  0
   -1.6510   19.6500   -0.3890 C   0  0  0  0  0  0  0  0  0  0  0  0
   -1.3390   20.0610   -1.7940 C   0  0  0  0  0  0  0  0  0  0  0  0
   -2.9160   20.1900    0.1990 C   0  0  0  0  0  0  0  0  0  0  0  0
    0.5970   16.2340   -2.4100 C   0  0  1  0  0  0  0  0  0  0  0  0
    0.6360   16.0470   -3.9500 C   0  0  0  0  0  0  0  0  0  0  0  0
    1.0370   14.5730   -4.2120 C   0  0  0  0  0  0  0  0  0  0  0  0
    0.8910   13.8790   -2.8370 C   0  0  1  0  0  0  0  0  0  0  0  0
   -0.6340   13.5730   -2.7020 C   0  0  0  0  0  0  0  0  0  0  0  0
    1.7590   12.5980   -2.6140 C   0  0  2  0  0  0  0  0  0  0  0  0
    1.4490   11.4270   -3.5620 C   0  0  0  0  0  0  0  0  0  0  0  0
    0.4140   10.4680   -3.0740 C   0  0  0  0  0  0  0  0  0  0  0  0
   -0.0360   10.3800   -1.8080 C   0  0  0  0  0  0  0  0  0  0  0  0
    0.5780   11.2370   -0.6930 C   0  0  1  0  0  0  0  0  0  0  0  0
    0.8580   10.3480    0.5470 C   0  0  0  0  0  0  0  0  0  0  0  0
   -0.3790    9.5840    1.0110 C   0  0  0  0  0  0  0  0  0  0  0  0
   -0.9250    8.7000   -0.1070 C   0  0  2  0  0  0  0  0  0  0  0  0
    0.0240    7.6650   -0.3820 O   0  0  0  0  0  0  0  0  0  0  0  0
   -1.2360    9.4850   -1.4120 C   0  0  0  0  0  0  0  0  0  0  0  0
   -2.4690   10.3950   -1.1910 C   0  0  0  0  0  0  0  0  0  0  0  0
   -1.6440    8.4570   -2.5010 C   0  0  0  0  0  0  0  0  0  0  0  0
    1.8330   12.1190   -1.1080 C   0  0  1  0  0  0  0  0  0  0  0  0
    3.1410   11.2820   -0.9700 C   0  0  0  0  0  0  0  0  0  0  0  0
    1.9680   13.3240   -0.1030 C   0  0  0  0  0  0  0  0  0  0  0  0
    1.1800   14.6030   -0.4410 C   0  0  0  0  0  0  0  0  0  0  0  0
    1.4150   15.0240   -1.8950 C   0  0  2  0  0  0  0  0  0  0  0  0
    2.9370   15.3600   -2.0560 C   0  0  0  0  0  0  0  0  0  0  0  0
    3.1329   18.2108   -1.9419 H   0  0  0  0  0  0  0  0  0  0  0  0
    2.6805   17.1494   -3.3186 H   0  0  0  0  0  0  0  0  0  0  0  0
    2.1914   18.8778   -3.3186 H   0  0  0  0  0  0  0  0  0  0  0  0
    0.2955   18.3673   -2.2627 H   0  0  0  0  0  0  0  0  0  0  0  0
    0.5081   16.9349   -0.0040 H   0  0  0  0  0  0  0  0  0  0  0  0
    2.2482   17.4575   -0.2099 H   0  0  0  0  0  0  0  0  0  0  0  0
    1.5013   19.1968    1.0530 H   0  0  0  0  0  0  0  0  0  0  0  0
    1.0867   19.8115   -0.6016 H   0  0  0  0  0  0  0  0  0  0  0  0
   -0.2889   19.4495    1.5754 H   0  0  0  0  0  0  0  0  0  0  0  0
   -0.6739   20.9371   -1.7806 H   0  0  0  0  0  0  0  0  0  0  0  0
   -0.8415   19.2309   -2.3170 H   0  0  0  0  0  0  0  0  0  0  0  0
   -2.2723   20.3170   -2.3170 H   0  0  0  0  0  0  0  0  0  0  0  0
   -2.8511   20.1623    1.2967 H   0  0  0  0  0  0  0  0  0  0  0  0
   -3.0609   21.2284   -0.1337 H   0  0  0  0  0  0  0  0  0  0  0  0
   -3.7662   19.5764   -0.1337 H   0  0  0  0  0  0  0  0  0  0  0  0
   -0.4097   16.2233   -1.9668 H   0  0  0  0  0  0  0  0  0  0  0  0
   -0.3547   16.2524   -4.3816 H   0  0  0  0  0  0  0  0  0  0  0  0
    1.3537   16.7397   -4.4137 H   0  0  0  0  0  0  0  0  0  0  0  0
    0.3655   14.1135   -4.9522 H   0  0  0  0  0  0  0  0  0  0  0  0
    2.0551   14.4835   -4.6187 H   0  0  0  0  0  0  0  0  0  0  0  0
   -0.9042   13.5188   -1.6371 H   0  0  0  0  0  0  0  0  0  0  0  0
   -1.2128   14.3729   -3.1869 H   0  0  0  0  0  0  0  0  0  0  0  0
   -0.8594   12.6117   -3.1869 H   0  0  0  0  0  0  0  0  0  0  0  0
    2.7663   12.9451   -2.8878 H   0  0  0  0  0  0  0  0  0  0  0  0
    1.1003   11.8463   -4.5173 H   0  0  0  0  0  0  0  0  0  0  0  0
    2.3817   10.8502   -3.6481 H   0  0  0  0  0  0  0  0  0  0  0  0
   -0.0174    9.7747   -3.8110 H   0  0  0  0  0  0  0  0  0  0  0  0
   -0.1754   11.9989   -0.4440 H   0  0  0  0  0  0  0  0  0  0  0  0
    1.6446    9.6230    0.2907 H   0  0  0  0  0  0  0  0  0  0  0  0
    1.1693   11.0097    1.3687 H   0  0  0  0  0  0  0  0  0  0  0  0
   -0.1107    8.9525    1.8708 H   0  0  0  0  0  0  0  0  0  0  0  0
   -1.1546   10.3106    1.2948 H   0  0  0  0  0  0  0  0  0  0  0  0
   -1.8802    8.2800    0.2412 H   0  0  0  0  0  0  0  0  0  0  0  0
    0.3840    7.8250   -1.2700 H   0  0  0  0  0  0  0  0  0  0  0  0
   -2.6419   10.5226   -0.1122 H   0  0  0  0  0  0  0  0  0  0  0  0
   -2.2872   11.3771   -1.6519 H   0  0  0  0  0  0  0  0  0  0  0  0
   -3.3539    9.9318   -1.6519 H   0  0  0  0  0  0  0  0  0  0  0  0
   -2.0088    7.5378   -2.0193 H   0  0  0  0  0  0  0  0  0  0  0  0
   -2.4410    8.8836   -3.1278 H   0  0  0  0  0  0  0  0  0  0  0  0
   -0.7714    8.2210   -3.1278 H   0  0  0  0  0  0  0  0  0  0  0  0
    3.3713   11.1346    0.0955 H   0  0  0  0  0  0  0  0  0  0  0  0
    3.0032   10.3039   -1.4541 H   0  0  0  0  0  0  0  0  0  0  0  0
    3.9714   11.8169   -1.4541 H   0  0  0  0  0  0  0  0  0  0  0  0
    1.6277   12.9745    0.8829 H   0  0  0  0  0  0  0  0  0  0  0  0
    3.0269   13.6185   -0.1481 H   0  0  0  0  0  0  0  0  0  0  0  0
    0.1068   14.4149   -0.2899 H   0  0  0  0  0  0  0  0  0  0  0  0
    1.5258   15.4125    0.2187 H   0  0  0  0  0  0  0  0  0  0  0  0
    3.3972   15.4616   -1.0621 H   0  0  0  0  0  0  0  0  0  0  0  0
    3.4347   14.5501   -2.6095 H   0  0  0  0  0  0  0  0  0  0  0  0
    3.0475   16.3042   -2.6095 H   0  0  0  0  0  0  0  0  0  0  0  0
  1  2  1  0
  2  3  1  0
  3  4  1  0
  4  5  1  0
  5  6  1  0
  6  7  1  0
  7  8  1  0
  7  9  1  0
  2 10  1  0
 10 11  1  0
 11 12  1  0
 12 13  1  0
 13 14  1  1
 13 15  1  0
 15 16  1  0
 16 17  1  0
 17 18  2  0
 18 19  1  0
 19 20  1  0
 20 21  1  0
 21 22  1  0
 22 23  1  0
 22 24  1  0
 24 25  1  0
 24 26  1  0
 19 27  1  0
 27 28  1  6
 27 29  1  0
 29 30  1  0
 30 31  1  0
 31 32  1  1
  7  5  1  0
 31 10  1  0
 31 13  1  0
 27 15  1  0
 24 18  1  0
  1 33  1  0
  1 34  1  0
  1 35  1  0
  2 36  1  6
  3 37  1  0
  3 38  1  0
  4 39  1  0
  4 40  1  0
  5 41  1  1
  8 42  1  0
  8 43  1  0
  8 44  1  0
  9 45  1  0
  9 46  1  0
  9 47  1  0
 10 48  1  1
 11 49  1  0
 11 50  1  0
 12 51  1  0
 12 52  1  0
 14 53  1  0
 14 54  1  0
 14 55  1  0
 15 56  1  6
 16 57  1  0
 16 58  1  0
 17 59  1  0
 19 60  1  1
 20 61  1  0
 20 62  1  0
 21 63  1  0
 21 64  1  0
 22 65  1  1
 23 66  1  0
 25 67  1  0
 25 68  1  0
 25 69  1  0
 26 70  1  0
 26 71  1  0
 26 72  1  0
 28 73  1  0
 28 74  1  0
 28 75  1  0
 29 76  1  0
 29 77  1  0
 30 78  1  0
 30 79  1  0
 32 80  1  0
 32 81  1  0
 32 82  1  0
M  END
>  <meeko>  (5) 
{"is_sidechain": [false], "intermolecular_energy": 2.731, "internal_energy": -0.839}

$$$$
EPH_relaxed_0001_pdb2pqr_Repair_365_r2_0001_out
     RDKit          3D

 82 86  0  0  0  0  0  0  0  0999 V2000
    3.8000   17.4190    0.4970 C   0  0  0  0  0  0  0  0  0  0  0  0
    2.8480   17.7010   -0.6690 C   0  0  2  0  0  0  0  0  0  0  0  0
    2.2190   19.1060   -0.5790 C   0  0  0  0  0  0  0  0  0  0  0  0
    1.3850   19.3270    0.6860 C   0  0  0  0  0  0  0  0  0  0  0  0
    0.1050   20.0470    0.3880 C   0  0  2  0  0  0  0  0  0  0  0  0
   -0.7750   20.1940    1.5100 O   0  0  0  0  0  0  0  0  0  0  0  0
   -1.2580   19.3830    0.4270 C   0  0  0  0  0  0  0  0  0  0  0  0
   -1.4110   17.9350    0.7730 C   0  0  0  0  0  0  0  0  0  0  0  0
   -2.3810   20.0080   -0.3400 C   0  0  0  0  0  0  0  0  0  0  0  0
    1.7530   16.6420   -0.7130 C   0  0  1  0  0  0  0  0  0  0  0  0
    0.4350   17.1710   -1.3390 C   0  0  0  0  0  0  0  0  0  0  0  0
   -0.1970   15.9890   -2.1180 C   0  0  0  0  0  0  0  0  0  0  0  0
    0.5930   14.7450   -1.6470 C   0  0  1  0  0  0  0  0  0  0  0  0
   -0.0530   14.3540   -0.2810 C   0  0  0  0  0  0  0  0  0  0  0  0
    0.6290   13.5350   -2.6360 C   0  0  2  0  0  0  0  0  0  0  0  0
   -0.7400   12.9060   -2.9490 C   0  0  0  0  0  0  0  0  0  0  0  0
   -1.1510   11.7920   -2.0430 C   0  0  0  0  0  0  0  0  0  0  0  0
   -0.3380   11.1260   -1.2030 C   0  0  0  0  0  0  0  0  0  0  0  0
    1.1690   11.4100   -1.1750 C   0  0  1  0  0  0  0  0  0  0  0  0
    1.9490   10.0690   -1.1820 C   0  0  0  0  0  0  0  0  0  0  0  0
    1.5110    9.1320   -0.0600 C   0  0  0  0  0  0  0  0  0  0  0  0
    0.0180    8.8280   -0.1550 C   0  0  2  0  0  0  0  0  0  0  0  0
   -0.2210    8.0640   -1.3410 O   0  0  0  0  0  0  0  0  0  0  0  0
   -0.8680   10.1040   -0.1670 C   0  0  0  0  0  0  0  0  0  0  0  0
   -0.8410   10.7700    1.2310 C   0  0  0  0  0  0  0  0  0  0  0  0
   -2.3370    9.6630   -0.4090 C   0  0  0  0  0  0  0  0  0  0  0  0
    1.7030   12.4310   -2.2700 C   0  0  1  0  0  0  0  0  0  0  0  0
    2.0290   11.6710   -3.5920 C   0  0  0  0  0  0  0  0  0  0  0  0
    3.0590   13.0570   -1.7720 C   0  0  0  0  0  0  0  0  0  0  0  0
    2.9600   14.3220   -0.8970 C   0  0  0  0  0  0  0  0  0  0  0  0
    2.0350   15.3610   -1.5370 C   0  0  2  0  0  0  0  0  0  0  0  0
    2.6710   15.7900   -2.9040 C   0  0  0  0  0  0  0  0  0  0  0  0
    3.2708   17.5757    1.4485 H   0  0  0  0  0  0  0  0  0  0  0  0
    4.1514   16.3782    0.4400 H   0  0  0  0  0  0  0  0  0  0  0  0
    4.6616   18.1005    0.4400 H   0  0  0  0  0  0  0  0  0  0  0  0
    3.4395   17.6634   -1.5957 H   0  0  0  0  0  0  0  0  0  0  0  0
    3.0285   19.8506   -0.5958 H   0  0  0  0  0  0  0  0  0  0  0  0
    1.5368   19.2084   -1.4358 H   0  0  0  0  0  0  0  0  0  0  0  0
    1.1486   18.3498    1.1322 H   0  0  0  0  0  0  0  0  0  0  0  0
    1.9726   19.9459    1.3800 H   0  0  0  0  0  0  0  0  0  0  0  0
    0.6032   20.6642   -0.3741 H   0  0  0  0  0  0  0  0  0  0  0  0
   -1.4233   17.8187    1.8668 H   0  0  0  0  0  0  0  0  0  0  0  0
   -2.3543   17.5554    0.3533 H   0  0  0  0  0  0  0  0  0  0  0  0
   -0.5679   17.3666    0.3533 H   0  0  0  0  0  0  0  0  0  0  0  0
   -3.1205   20.4196    0.3627 H   0  0  0  0  0  0  0  0  0  0  0  0
   -1.9872   20.8167   -0.9732 H   0  0  0  0  0  0  0  0  0  0  0  0
   -2.8607   19.2471   -0.9732 H   0  0  0  0  0  0  0  0  0  0  0  0
    1.6923   16.3955    0.3573 H   0  0  0  0  0  0  0  0  0  0  0  0
   -0.2493   17.5125   -0.5484 H   0  0  0  0  0  0  0  0  0  0  0  0
    0.6293   18.0241   -2.0057 H   0  0  0  0  0  0  0  0  0  0  0  0
   -1.2642   15.8877   -1.8714 H   0  0  0  0  0  0  0  0  0  0  0  0
   -0.1422   16.1303   -3.2075 H   0  0  0  0  0  0  0  0  0  0  0  0
    0.5717   14.7321    0.5416 H   0  0  0  0  0  0  0  0  0  0  0  0
   -1.0581   14.7955   -0.2110 H   0  0  0  0  0  0  0  0  0  0  0  0
   -0.1279   13.2588   -0.2110 H   0  0  0  0  0  0  0  0  0  0  0  0
    0.9613   14.0060   -3.5728 H   0  0  0  0  0  0  0  0  0  0  0  0
   -1.5012   13.6973   -2.8821 H   0  0  0  0  0  0  0  0  0  0  0  0
   -0.6507   12.4653   -3.9529 H   0  0  0  0  0  0  0  0  0  0  0  0
   -2.2086   11.4903   -2.0643 H   0  0  0  0  0  0  0  0  0  0  0  0
    1.3590   11.9481   -0.2346 H   0  0  0  0  0  0  0  0  0  0  0  0
    1.7799    9.5677   -2.1464 H   0  0  0  0  0  0  0  0  0  0  0  0
    3.0132   10.3007   -1.0275 H   0  0  0  0  0  0  0  0  0  0  0  0
    2.0756    8.1910   -0.1358 H   0  0  0  0  0  0  0  0  0  0  0  0
    1.7089    9.6225    0.9045 H   0  0  0  0  0  0  0  0  0  0  0  0
   -0.2619    8.2620    0.7457 H   0  0  0  0  0  0  0  0  0  0  0  0
   -0.1110    7.1250   -1.1140 H   0  0  0  0  0  0  0  0  0  0  0  0
   -0.8725    9.9923    2.0083 H   0  0  0  0  0  0  0  0  0  0  0  0
    0.0818   11.3590    1.3388 H   0  0  0  0  0  0  0  0  0  0  0  0
   -1.7131   11.4317    1.3388 H   0  0  0  0  0  0  0  0  0  0  0  0
   -2.8387    9.5124    0.5583 H   0  0  0  0  0  0  0  0  0  0  0  0
   -2.8647   10.4423   -0.9784 H   0  0  0  0  0  0  0  0  0  0  0  0
   -2.3482    8.7219   -0.9784 H   0  0  0  0  0  0  0  0  0  0  0  0
    2.4523   10.6843   -3.3529 H   0  0  0  0  0  0  0  0  0  0  0  0
    1.1069   11.5423   -4.1779 H   0  0  0  0  0  0  0  0  0  0  0  0
    2.7578   12.2504   -4.1779 H   0  0  0  0  0  0  0  0  0  0  0  0
    3.5857   12.2883   -1.1874 H   0  0  0  0  0  0  0  0  0  0  0  0
    3.5804   13.3788   -2.6856 H   0  0  0  0  0  0  0  0  0  0  0  0
    2.5621   14.0460    0.0907 H   0  0  0  0  0  0  0  0  0  0  0  0
    3.9643   14.7599   -0.7992 H   0  0  0  0  0  0  0  0  0  0  0  0
    3.5695   16.3961   -2.7162 H   0  0  0  0  0  0  0  0  0  0  0  0
    2.9471   14.8929   -3.4775 H   0  0  0  0  0  0  0  0  0  0  0  0
    1.9426   16.3821   -3.4775 H   0  0  0  0  0  0  0  0  0  0  0  0
  1  2  1  0
  2  3  1  0
  3  4  1  0
  4  5  1  0
  5  6  1  0
  6  7  1  0
  7  8  1  0
  7  9  1  0
  2 10  1  0
 10 11  1  0
 11 12  1  0
 12 13  1  0
 13 14  1  1
 13 15  1  0
 15 16  1  0
 16 17  1  0
 17 18  2  0
 18 19  1  0
 19 20  1  0
 20 21  1  0
 21 22  1  0
 22 23  1  0
 22 24  1  0
 24 25  1  0
 24 26  1  0
 19 27  1  0
 27 28  1  6
 27 29  1  0
 29 30  1  0
 30 31  1  0
 31 32  1  6
  7  5  1  0
 31 10  1  0
 31 13  1  0
 27 15  1  0
 24 18  1  0
  1 33  1  0
  1 34  1  0
  1 35  1  0
  2 36  1  6
  3 37  1  0
  3 38  1  0
  4 39  1  0
  4 40  1  0
  5 41  1  6
  8 42  1  0
  8 43  1  0
  8 44  1  0
  9 45  1  0
  9 46  1  0
  9 47  1  0
 10 48  1  1
 11 49  1  0
 11 50  1  0
 12 51  1  0
 12 52  1  0
 14 53  1  0
 14 54  1  0
 14 55  1  0
 15 56  1  6
 16 57  1  0
 16 58  1  0
 17 59  1  0
 19 60  1  1
 20 61  1  0
 20 62  1  0
 21 63  1  0
 21 64  1  0
 22 65  1  1
 23 66  1  0
 25 67  1  0
 25 68  1  0
 25 69  1  0
 26 70  1  0
 26 71  1  0
 26 72  1  0
 28 73  1  0
 28 74  1  0
 28 75  1  0
 29 76  1  0
 29 77  1  0
 30 78  1  0
 30 79  1  0
 32 80  1  0
 32 81  1  0
 32 82  1  0
M  END
>  <meeko>  (6) 
{"is_sidechain": [false], "intermolecular_energy": 2.731, "internal_energy": -0.839}

$$$$
EPH_relaxed_0001_pdb2pqr_Repair_365_r2_0001_out
     RDKit          3D

 82 86  0  0  0  0  0  0  0  0999 V2000
    0.4280    8.8010   -2.3680 C   0  0  0  0  0  0  0  0  0  0  0  0
    1.1730    9.9440   -3.0630 C   0  0  2  0  0  0  0  0  0  0  0  0
    2.6730    9.9610   -2.7050 C   0  0  0  0  0  0  0  0  0  0  0  0
    3.5610   10.5520   -3.8040 C   0  0  0  0  0  0  0  0  0  0  0  0
    4.9560   10.8000   -3.3150 C   0  0  2  0  0  0  0  0  0  0  0  0
    5.5410   12.0270   -3.7720 O   0  0  0  0  0  0  0  0  0  0  0  0
    6.1700   10.8170   -4.2250 C   0  0  0  0  0  0  0  0  0  0  0  0
    6.0450   10.5810   -5.6980 C   0  0  0  0  0  0  0  0  0  0  0  0
    7.5190   10.5770   -3.6230 C   0  0  0  0  0  0  0  0  0  0  0  0
    0.5350   11.2790   -2.6960 C   0  0  1  0  0  0  0  0  0  0  0  0
   -0.8400   11.1110   -1.9970 C   0  0  0  0  0  0  0  0  0  0  0  0
   -0.9530   12.2530   -0.9540 C   0  0  0  0  0  0  0  0  0  0  0  0
    0.1950   13.2240   -1.3130 C   0  0  1  0  0  0  0  0  0  0  0  0
   -0.3580   14.0800   -2.4950 C   0  0  0  0  0  0  0  0  0  0  0  0
    0.7290   14.1230   -0.1500 C   0  0  2  0  0  0  0  0  0  0  0  0
   -0.3010   15.1010    0.4430 C   0  0  0  0  0  0  0  0  0  0  0  0
   -0.3460   16.4470   -0.2000 C   0  0  0  0  0  0  0  0  0  0  0  0
    0.5930   16.9550   -1.0200 C   0  0  0  0  0  0  0  0  0  0  0  0
    1.8940   16.1900   -1.2960 C   0  0  1  0  0  0  0  0  0  0  0  0
    3.1000   17.1570   -1.1710 C   0  0  0  0  0  0  0  0  0  0  0  0
    2.9520   18.3940   -2.0520 C   0  0  0  0  0  0  0  0  0  0  0  0
    1.6770   19.1590   -1.7080 C   0  0  2  0  0  0  0  0  0  0  0  0
    1.8060   19.7010   -0.3900 O   0  0  0  0  0  0  0  0  0  0  0  0
    0.3960   18.2830   -1.7900 C   0  0  0  0  0  0  0  0  0  0  0  0
    0.0900   17.9460   -3.2700 C   0  0  0  0  0  0  0  0  0  0  0  0
   -0.7990   19.1360   -1.2840 C   0  0  0  0  0  0  0  0  0  0  0  0
    2.0990   14.8490   -0.4680 C   0  0  1  0  0  0  0  0  0  0  0  0
    2.7630   15.1680    0.9070 C   0  0  0  0  0  0  0  0  0  0  0  0
    3.1050   13.9160   -1.2400 C   0  0  0  0  0  0  0  0  0  0  0  0
    2.5020   12.9650   -2.2920 C   0  0  0  0  0  0  0  0  0  0  0  0
    1.3120   12.1930   -1.7160 C   0  0  2  0  0  0  0  0  0  0  0  0
    1.8410   11.3060   -0.5380 C   0  0  0  0  0  0  0  0  0  0  0  0
    0.5066    8.9217   -1.2775 H   0  0  0  0  0  0  0  0  0  0  0  0
   -0.6314    8.8205   -2.6636 H   0  0  0  0  0  0  0  0  0  0  0  0
    0.8735    7.8397   -2.6636 H   0  0  0  0  0  0  0  0  0  0  0  0
    1.0939    9.7798   -4.1478 H   0  0  0  0  0  0  0  0  0  0  0  0
    2.8054   10.5598   -1.7918 H   0  0  0  0  0  0  0  0  0  0  0  0
    2.9831    8.9144   -2.5689 H   0  0  0  0  0  0  0  0  0  0  0  0
    3.5990    9.8484   -4.6487 H   0  0  0  0  0  0  0  0  0  0  0  0
    3.1293   11.5154   -4.1131 H   0  0  0  0  0  0  0  0  0  0  0  0
    4.7464   10.2699   -2.3742 H   0  0  0  0  0  0  0  0  0  0  0  0
    5.5367    9.6214   -5.8738 H   0  0  0  0  0  0  0  0  0  0  0  0
    5.4595   11.3945   -6.1513 H   0  0  0  0  0  0  0  0  0  0  0  0
    7.0469   10.5537   -6.1513 H   0  0  0  0  0  0  0  0  0  0  0  0
    7.4388   10.5913   -2.5260 H   0  0  0  0  0  0  0  0  0  0  0  0
    7.8975    9.5974   -3.9503 H   0  0  0  0  0  0  0  0  0  0  0  0
    8.2122   11.3659   -3.9503 H   0  0  0  0  0  0  0  0  0  0  0  0
    0.4949   11.7447   -3.6918 H   0  0  0  0  0  0  0  0  0  0  0  0
   -1.6522   11.1897   -2.7346 H   0  0  0  0  0  0  0  0  0  0  0  0
   -0.9206   10.1257   -1.5147 H   0  0  0  0  0  0  0  0  0  0  0  0
   -1.9274   12.7571   -1.0342 H   0  0  0  0  0  0  0  0  0  0  0  0
   -0.8787   11.8831    0.0793 H   0  0  0  0  0  0  0  0  0  0  0  0
   -0.9141   14.9409   -2.0955 H   0  0  0  0  0  0  0  0  0  0  0  0
    0.4796   14.4386   -3.1113 H   0  0  0  0  0  0  0  0  0  0  0  0
   -1.0292   13.4639   -3.1113 H   0  0  0  0  0  0  0  0  0  0  0  0
    0.9344   13.3877    0.6419 H   0  0  0  0  0  0  0  0  0  0  0  0
   -1.2973   14.6449    0.3468 H   0  0  0  0  0  0  0  0  0  0  0  0
    0.0066   15.2718    1.4852 H   0  0  0  0  0  0  0  0  0  0  0  0
   -1.2212   17.0779    0.0144 H   0  0  0  0  0  0  0  0  0  0  0  0
    1.8164   15.8218   -2.3296 H   0  0  0  0  0  0  0  0  0  0  0  0
    3.1866   17.4790   -0.1228 H   0  0  0  0  0  0  0  0  0  0  0  0
    3.9979   16.6156   -1.5038 H   0  0  0  0  0  0  0  0  0  0  0  0
    3.8196   19.0522   -1.8972 H   0  0  0  0  0  0  0  0  0  0  0  0
    2.8960   18.0724   -3.1024 H   0  0  0  0  0  0  0  0  0  0  0  0
    1.5592   19.9571   -2.4558 H   0  0  0  0  0  0  0  0  0  0  0  0
    1.7540   18.9610    0.2390 H   0  0  0  0  0  0  0  0  0  0  0  0
   -0.6488   17.1323   -3.3156 H   0  0  0  0  0  0  0  0  0  0  0  0
   -0.3142   18.8369   -3.7729 H   0  0  0  0  0  0  0  0  0  0  0  0
    1.0157   17.6294   -3.7729 H   0  0  0  0  0  0  0  0  0  0  0  0
   -0.8061   19.1411   -0.1840 H   0  0  0  0  0  0  0  0  0  0  0  0
   -0.6969   20.1666   -1.6548 H   0  0  0  0  0  0  0  0  0  0  0  0
   -1.7405   18.7045   -1.6548 H   0  0  0  0  0  0  0  0  0  0  0  0
    2.0951   14.8471    1.7200 H   0  0  0  0  0  0  0  0  0  0  0  0
    3.7200   14.6314    0.9853 H   0  0  0  0  0  0  0  0  0  0  0  0
    2.9421   16.2505    0.9853 H   0  0  0  0  0  0  0  0  0  0  0  0
    3.8317   14.5627   -1.7535 H   0  0  0  0  0  0  0  0  0  0  0  0
    3.5364   13.2585   -0.4708 H   0  0  0  0  0  0  0  0  0  0  0  0
    2.1638   13.5539   -3.1574 H   0  0  0  0  0  0  0  0  0  0  0  0
    3.2744   12.2429   -2.5952 H   0  0  0  0  0  0  0  0  0  0  0  0
    1.5654   11.7682    0.4214 H   0  0  0  0  0  0  0  0  0  0  0  0
    1.3932   10.3035   -0.6041 H   0  0  0  0  0  0  0  0  0  0  0  0
    2.9359   11.2236   -0.6041 H   0  0  0  0  0  0  0  0  0  0  0  0
  1  2  1  0
  2  3  1  0
  3  4  1  0
  4  5  1  0
  5  6  1  0
  6  7  1  0
  7  8  1  0
  7  9  1  0
  2 10  1  0
 10 11  1  0
 11 12  1  0
 12 13  1  0
 13 14  1  6
 13 15  1  0
 15 16  1  0
 16 17  1  0
 17 18  2  0
 18 19  1  0
 19 20  1  0
 20 21  1  0
 21 22  1  0
 22 23  1  0
 22 24  1  0
 24 25  1  0
 24 26  1  0
 19 27  1  0
 27 28  1  1
 27 29  1  0
 29 30  1  0
 30 31  1  0
 31 32  1  1
  7  5  1  0
 31 10  1  0
 31 13  1  0
 27 15  1  0
 24 18  1  0
  1 33  1  0
  1 34  1  0
  1 35  1  0
  2 36  1  6
  3 37  1  0
  3 38  1  0
  4 39  1  0
  4 40  1  0
  5 41  1  1
  8 42  1  0
  8 43  1  0
  8 44  1  0
  9 45  1  0
  9 46  1  0
  9 47  1  0
 10 48  1  6
 11 49  1  0
 11 50  1  0
 12 51  1  0
 12 52  1  0
 14 53  1  0
 14 54  1  0
 14 55  1  0
 15 56  1  1
 16 57  1  0
 16 58  1  0
 17 59  1  0
 19 60  1  6
 20 61  1  0
 20 62  1  0
 21 63  1  0
 21 64  1  0
 22 65  1  6
 23 66  1  0
 25 67  1  0
 25 68  1  0
 25 69  1  0
 26 70  1  0
 26 71  1  0
 26 72  1  0
 28 73  1  0
 28 74  1  0
 28 75  1  0
 29 76  1  0
 29 77  1  0
 30 78  1  0
 30 79  1  0
 32 80  1  0
 32 81  1  0
 32 82  1  0
M  END
>  <meeko>  (7) 
{"is_sidechain": [false], "intermolecular_energy": 2.731, "internal_energy": -0.839}

$$$$
EPH_relaxed_0001_pdb2pqr_Repair_365_r2_0001_out
     RDKit          3D

 82 86  0  0  0  0  0  0  0  0999 V2000
    2.8970   18.8610   -1.2460 C   0  0  0  0  0  0  0  0  0  0  0  0
    2.5200   17.7990   -2.2830 C   0  0  2  0  0  0  0  0  0  0  0  0
    1.0850   17.9890   -2.8130 C   0  0  0  0  0  0  0  0  0  0  0  0
    0.4210   19.2860   -2.3420 C   0  0  0  0  0  0  0  0  0  0  0  0
   -0.8820   19.0220   -1.6510 C   0  0  2  0  0  0  0  0  0  0  0  0
   -1.6570   20.1940   -1.3660 O   0  0  0  0  0  0  0  0  0  0  0  0
   -1.1780   19.4580   -0.2280 C   0  0  0  0  0  0  0  0  0  0  0  0
   -0.1630   20.1940    0.5890 C   0  0  0  0  0  0  0  0  0  0  0  0
   -2.2570   18.7480    0.5290 C   0  0  0  0  0  0  0  0  0  0  0  0
    2.6730   16.4070   -1.6800 C   0  0  1  0  0  0  0  0  0  0  0  0
    3.3760   16.4290   -0.2960 C   0  0  0  0  0  0  0  0  0  0  0  0
    2.7290   15.3040    0.5520 C   0  0  0  0  0  0  0  0  0  0  0  0
    1.9210   14.4650   -0.4650 C   0  0  1  0  0  0  0  0  0  0  0  0
    2.9720   13.5270   -1.1370 C   0  0  0  0  0  0  0  0  0  0  0  0
    0.7120   13.6580    0.1110 C   0  0  2  0  0  0  0  0  0  0  0  0
    1.0800   12.5800    1.1450 C   0  0  0  0  0  0  0  0  0  0  0  0
    1.3560   11.2240    0.5840 C   0  0  0  0  0  0  0  0  0  0  0  0
    1.0360   10.8120   -0.6570 C   0  0  0  0  0  0  0  0  0  0  0  0
    0.2410   11.7160   -1.6070 C   0  0  1  0  0  0  0  0  0  0  0  0
   -0.8990   10.8980   -2.2680 C   0  0  0  0  0  0  0  0  0  0  0  0
   -0.3900    9.6340   -2.9550 C   0  0  0  0  0  0  0  0  0  0  0  0
    0.3450    8.7340   -1.9650 C   0  0  2  0  0  0  0  0  0  0  0  0
   -0.5950    8.2380   -1.0070 O   0  0  0  0  0  0  0  0  0  0  0  0
    1.5100    9.4540   -1.2300 C   0  0  0  0  0  0  0  0  0  0  0  0
    2.6660    9.7230   -2.2250 C   0  0  0  0  0  0  0  0  0  0  0  0
    2.0750    8.4790   -0.1620 C   0  0  0  0  0  0  0  0  0  0  0  0
   -0.2720   13.0890   -0.9910 C   0  0  1  0  0  0  0  0  0  0  0  0
   -1.6490   12.8770   -0.2910 C   0  0  0  0  0  0  0  0  0  0  0  0
   -0.5200   14.1160   -2.1590 C   0  0  0  0  0  0  0  0  0  0  0  0
    0.6840   14.9680   -2.6020 C   0  0  0  0  0  0  0  0  0  0  0  0
    1.3760   15.6090   -1.3950 C   0  0  2  0  0  0  0  0  0  0  0  0
    0.3490   16.5760   -0.7120 C   0  0  0  0  0  0  0  0  0  0  0  0
    2.7523   18.4535   -0.2346 H   0  0  0  0  0  0  0  0  0  0  0  0
    3.9511   19.1457   -1.3793 H   0  0  0  0  0  0  0  0  0  0  0  0
    2.2583   19.7466   -1.3793 H   0  0  0  0  0  0  0  0  0  0  0  0
    3.2045   17.9117   -3.1367 H   0  0  0  0  0  0  0  0  0  0  0  0
    1.1190   17.9958   -3.9125 H   0  0  0  0  0  0  0  0  0  0  0  0
    0.4834   17.1578   -2.4166 H   0  0  0  0  0  0  0  0  0  0  0  0
    1.0976   19.7995   -1.6430 H   0  0  0  0  0  0  0  0  0  0  0  0
    0.2204   19.9093   -3.2259 H   0  0  0  0  0  0  0  0  0  0  0  0
   -0.9834   18.0531   -2.1618 H   0  0  0  0  0  0  0  0  0  0  0  0
   -0.3727   20.0420    1.6581 H   0  0  0  0  0  0  0  0  0  0  0  0
    0.8421   19.8134    0.3547 H   0  0  0  0  0  0  0  0  0  0  0  0
   -0.2124   21.2676    0.3547 H   0  0  0  0  0  0  0  0  0  0  0  0
   -2.0832   18.8624    1.6091 H   0  0  0  0  0  0  0  0  0  0  0  0
   -3.2340   19.1803    0.2670 H   0  0  0  0  0  0  0  0  0  0  0  0
   -2.2466   17.6797    0.2670 H   0  0  0  0  0  0  0  0  0  0  0  0
    3.2456   15.9202   -2.4832 H   0  0  0  0  0  0  0  0  0  0  0  0
    4.4533   16.2415   -0.4153 H   0  0  0  0  0  0  0  0  0  0  0  0
    3.2585   17.4082    0.1912 H   0  0  0  0  0  0  0  0  0  0  0  0
    3.5020   14.6889    1.0358 H   0  0  0  0  0  0  0  0  0  0  0  0
    2.0975   15.7014    1.3603 H   0  0  0  0  0  0  0  0  0  0  0  0
    3.5520   13.0093   -0.3588 H   0  0  0  0  0  0  0  0  0  0  0  0
    2.4543   12.7852   -1.7629 H   0  0  0  0  0  0  0  0  0  0  0  0
    3.6504   14.1254   -1.7629 H   0  0  0  0  0  0  0  0  0  0  0  0
    0.1581   14.4288    0.6669 H   0  0  0  0  0  0  0  0  0  0  0  0
    1.9805   12.9159    1.6800 H   0  0  0  0  0  0  0  0  0  0  0  0
    0.1982   12.4669    1.7928 H   0  0  0  0  0  0  0  0  0  0  0  0
    1.8633   10.5011    1.2398 H   0  0  0  0  0  0  0  0  0  0  0  0
    0.9540   12.0509   -2.3748 H   0  0  0  0  0  0  0  0  0  0  0  0
   -1.6226   10.6101   -1.4911 H   0  0  0  0  0  0  0  0  0  0  0  0
   -1.3624   11.5327   -3.0376 H   0  0  0  0  0  0  0  0  0  0  0  0
   -1.2445    9.0839   -3.3759 H   0  0  0  0  0  0  0  0  0  0  0  0
    0.3101    9.9249   -3.7521 H   0  0  0  0  0  0  0  0  0  0  0  0
    0.7975    7.9124   -2.5396 H   0  0  0  0  0  0  0  0  0  0  0  0
   -1.3920    7.9640   -1.4920 H   0  0  0  0  0  0  0  0  0  0  0  0
    3.5886    9.9377   -1.6658 H   0  0  0  0  0  0  0  0  0  0  0  0
    2.8188    8.8364   -2.8579 H   0  0  0  0  0  0  0  0  0  0  0  0
    2.4117   10.5860   -2.8579 H   0  0  0  0  0  0  0  0  0  0  0  0
    1.8507    8.8660    0.8430 H   0  0  0  0  0  0  0  0  0  0  0  0
    1.6102    7.4898   -0.2861 H   0  0  0  0  0  0  0  0  0  0  0  0
    3.1644    8.3904   -0.2861 H   0  0  0  0  0  0  0  0  0  0  0  0
   -1.5126   12.8980    0.8003 H   0  0  0  0  0  0  0  0  0  0  0  0
   -2.3396   13.6794   -0.5897 H   0  0  0  0  0  0  0  0  0  0  0  0
   -2.0662   11.9040   -0.5897 H   0  0  0  0  0  0  0  0  0  0  0  0
   -0.8651   13.5469   -3.0348 H   0  0  0  0  0  0  0  0  0  0  0  0
   -1.2501   14.8353   -1.7595 H   0  0  0  0  0  0  0  0  0  0  0  0
    1.4041   14.3260   -3.1306 H   0  0  0  0  0  0  0  0  0  0  0  0
    0.3225   15.7681   -3.2647 H   0  0  0  0  0  0  0  0  0  0  0  0
    0.4378   16.4924    0.3812 H   0  0  0  0  0  0  0  0  0  0  0  0
    0.5599   17.6110   -1.0189 H   0  0  0  0  0  0  0  0  0  0  0  0
   -0.6715   16.3032   -1.0189 H   0  0  0  0  0  0  0  0  0  0  0  0
  1  2  1  0
  2  3  1  0
  3  4  1  0
  4  5  1  0
  5  6  1  0
  6  7  1  0
  7  8  1  0
  7  9  1  0
  2 10  1  0
 10 11  1  0
 11 12  1  0
 12 13  1  0
 13 14  1  6
 13 15  1  0
 15 16  1  0
 16 17  1  0
 17 18  2  0
 18 19  1  0
 19 20  1  0
 20 21  1  0
 21 22  1  0
 22 23  1  0
 22 24  1  0
 24 25  1  0
 24 26  1  0
 19 27  1  0
 27 28  1  1
 27 29  1  0
 29 30  1  0
 30 31  1  0
 31 32  1  1
  7  5  1  0
 31 10  1  0
 31 13  1  0
 27 15  1  0
 24 18  1  0
  1 33  1  0
  1 34  1  0
  1 35  1  0
  2 36  1  6
  3 37  1  0
  3 38  1  0
  4 39  1  0
  4 40  1  0
  5 41  1  6
  8 42  1  0
  8 43  1  0
  8 44  1  0
  9 45  1  0
  9 46  1  0
  9 47  1  0
 10 48  1  6
 11 49  1  0
 11 50  1  0
 12 51  1  0
 12 52  1  0
 14 53  1  0
 14 54  1  0
 14 55  1  0
 15 56  1  1
 16 57  1  0
 16 58  1  0
 17 59  1  0
 19 60  1  6
 20 61  1  0
 20 62  1  0
 21 63  1  0
 21 64  1  0
 22 65  1  6
 23 66  1  0
 25 67  1  0
 25 68  1  0
 25 69  1  0
 26 70  1  0
 26 71  1  0
 26 72  1  0
 28 73  1  0
 28 74  1  0
 28 75  1  0
 29 76  1  0
 29 77  1  0
 30 78  1  0
 30 79  1  0
 32 80  1  0
 32 81  1  0
 32 82  1  0
M  END
>  <meeko>  (8) 
{"is_sidechain": [false], "intermolecular_energy": 2.731, "internal_energy": -0.839}

$$$$
EPH_relaxed_0001_pdb2pqr_Repair_365_r2_0001_out
     RDKit          3D

 82 86  0  0  0  0  0  0  0  0999 V2000
    0.9750   11.1600   -4.8680 C   0  0  0  0  0  0  0  0  0  0  0  0
    0.9100   10.5270   -3.4750 C   0  0  2  0  0  0  0  0  0  0  0  0
   -0.3380    9.6390   -3.2980 C   0  0  0  0  0  0  0  0  0  0  0  0
   -0.4120    8.9460   -1.9350 C   0  0  0  0  0  0  0  0  0  0  0  0
   -1.7940    9.0070   -1.3560 C   0  0  2  0  0  0  0  0  0  0  0  0
   -2.3870   10.3120   -1.3590 O   0  0  0  0  0  0  0  0  0  0  0  0
   -2.1290    9.7360   -0.0680 C   0  0  0  0  0  0  0  0  0  0  0  0
   -1.0780   10.4530    0.7200 C   0  0  0  0  0  0  0  0  0  0  0  0
   -3.3680    9.3430    0.6740 C   0  0  0  0  0  0  0  0  0  0  0  0
    0.9310   11.6150   -2.4080 C   0  0  1  0  0  0  0  0  0  0  0  0
    1.9100   11.2950   -1.2470 C   0  0  0  0  0  0  0  0  0  0  0  0
    2.5120   12.6470   -0.7840 C   0  0  0  0  0  0  0  0  0  0  0  0
    1.6240   13.7200   -1.4560 C   0  0  1  0  0  0  0  0  0  0  0  0
    0.3620   13.8250   -0.5440 C   0  0  0  0  0  0  0  0  0  0  0  0
    2.2860   15.1170   -1.6900 C   0  0  2  0  0  0  0  0  0  0  0  0
    2.7140   15.8580   -0.4110 C   0  0  0  0  0  0  0  0  0  0  0  0
    1.6810   16.7590    0.1810 C   0  0  0  0  0  0  0  0  0  0  0  0
    0.5670   17.1860   -0.4420 C   0  0  0  0  0  0  0  0  0  0  0  0
    0.3040   16.8390   -1.9130 C   0  0  1  0  0  0  0  0  0  0  0  0
   -0.1490   18.1130   -2.6730 C   0  0  0  0  0  0  0  0  0  0  0  0
   -1.3430   18.7950   -2.0120 C   0  0  0  0  0  0  0  0  0  0  0  0
   -1.0230   19.1770   -0.5690 C   0  0  2  0  0  0  0  0  0  0  0  0
   -0.0170   20.1940   -0.5740 O   0  0  0  0  0  0  0  0  0  0  0  0
   -0.5460   17.9740    0.2920 C   0  0  0  0  0  0  0  0  0  0  0  0
   -1.7340   17.0140    0.5480 C   0  0  0  0  0  0  0  0  0  0  0  0
   -0.1220   18.5200    1.6820 C   0  0  0  0  0  0  0  0  0  0  0  0
    1.4730   16.0650   -2.6620 C   0  0  1  0  0  0  0  0  0  0  0  0
    2.4970   17.0850   -3.2480 C   0  0  0  0  0  0  0  0  0  0  0  0
    0.8690   15.2860   -3.8900 C   0  0  0  0  0  0  0  0  0  0  0  0
    0.3410   13.8650   -3.6200 C   0  0  0  0  0  0  0  0  0  0  0  0
    1.3710   13.0340   -2.8480 C   0  0  2  0  0  0  0  0  0  0  0  0
    2.6440   12.8920   -3.7510 C   0  0  0  0  0  0  0  0  0  0  0  0
    1.0869   12.2499   -4.7706 H   0  0  0  0  0  0  0  0  0  0  0  0
    1.8358   10.7506   -5.4170 H   0  0  0  0  0  0  0  0  0  0  0  0
    0.0489   10.9341   -5.4170 H   0  0  0  0  0  0  0  0  0  0  0  0
    1.7931    9.8806   -3.3640 H   0  0  0  0  0  0  0  0  0  0  0  0
   -1.2320   10.2689   -3.4163 H   0  0  0  0  0  0  0  0  0  0  0  0
   -0.2792    8.8466   -4.0587 H   0  0  0  0  0  0  0  0  0  0  0  0
   -0.1220    7.8917   -2.0549 H   0  0  0  0  0  0  0  0  0  0  0  0
    0.2709    9.4671   -1.2479 H   0  0  0  0  0  0  0  0  0  0  0  0
   -2.0110    7.9864   -1.7042 H   0  0  0  0  0  0  0  0  0  0  0  0
   -1.2716   10.3209    1.7947 H   0  0  0  0  0  0  0  0  0  0  0  0
   -0.0888   10.0406    0.4722 H   0  0  0  0  0  0  0  0  0  0  0  0
   -1.1011   11.5245    0.4722 H   0  0  0  0  0  0  0  0  0  0  0  0
   -3.1814    9.4022    1.7564 H   0  0  0  0  0  0  0  0  0  0  0  0
   -4.1881   10.0251    0.4054 H   0  0  0  0  0  0  0  0  0  0  0  0
   -3.6450    8.3129    0.4054 H   0  0  0  0  0  0  0  0  0  0  0  0
   -0.1331   11.6200   -2.1292 H   0  0  0  0  0  0  0  0  0  0  0  0
    1.3696   10.8168   -0.4167 H   0  0  0  0  0  0  0  0  0  0  0  0
    2.6994   10.6029   -1.5754 H   0  0  0  0  0  0  0  0  0  0  0  0
    2.4679   12.7369    0.3114 H   0  0  0  0  0  0  0  0  0  0  0  0
    3.5715   12.7488   -1.0617 H   0  0  0  0  0  0  0  0  0  0  0  0
    0.6695   13.7994    0.5118 H   0  0  0  0  0  0  0  0  0  0  0  0
   -0.1620   14.7698   -0.7505 H   0  0  0  0  0  0  0  0  0  0  0  0
   -0.3110   12.9797   -0.7505 H   0  0  0  0  0  0  0  0  0  0  0  0
    3.2190   14.8522   -2.2090 H   0  0  0  0  0  0  0  0  0  0  0  0
    2.9812   15.1047    0.3448 H   0  0  0  0  0  0  0  0  0  0  0  0
    3.5528   16.5073   -0.7022 H   0  0  0  0  0  0  0  0  0  0  0  0
    1.8442   17.1027    1.2131 H   0  0  0  0  0  0  0  0  0  0  0  0
   -0.5088   16.0978   -1.9100 H   0  0  0  0  0  0  0  0  0  0  0  0
    0.6906   18.8230   -2.7029 H   0  0  0  0  0  0  0  0  0  0  0  0
   -0.4567   17.8071   -3.6838 H   0  0  0  0  0  0  0  0  0  0  0  0
   -1.5967   19.7039   -2.5772 H   0  0  0  0  0  0  0  0  0  0  0  0
   -2.1908   18.0942   -2.0099 H   0  0  0  0  0  0  0  0  0  0  0  0
   -1.9539   19.5413   -0.1099 H   0  0  0  0  0  0  0  0  0  0  0  0
   -0.4090   20.9970   -0.1910 H   0  0  0  0  0  0  0  0  0  0  0  0
   -1.8819   16.8945    1.6314 H   0  0  0  0  0  0  0  0  0  0  0  0
   -2.6464   17.4314    0.0972 H   0  0  0  0  0  0  0  0  0  0  0  0
   -1.5174   16.0343    0.0972 H   0  0  0  0  0  0  0  0  0  0  0  0
   -0.5914   17.9155    2.4721 H   0  0  0  0  0  0  0  0  0  0  0  0
    0.9723   18.4648    1.7794 H   0  0  0  0  0  0  0  0  0  0  0  0
   -0.4465   19.5665    1.7794 H   0  0  0  0  0  0  0  0  0  0  0  0
    3.0138   17.5998   -2.4247 H   0  0  0  0  0  0  0  0  0  0  0  0
    3.2335   16.5510   -3.8663 H   0  0  0  0  0  0  0  0  0  0  0  0
    1.9659   17.8236   -3.8663 H   0  0  0  0  0  0  0  0  0  0  0  0
    0.0327   15.8824   -4.2836 H   0  0  0  0  0  0  0  0  0  0  0  0
    1.7091   15.1529   -4.5875 H   0  0  0  0  0  0  0  0  0  0  0  0
   -0.5840   13.9313   -3.0284 H   0  0  0  0  0  0  0  0  0  0  0  0
    0.1469   13.3740   -4.5850 H   0  0  0  0  0  0  0  0  0  0  0  0
    3.5357   12.7925   -3.1146 H   0  0  0  0  0  0  0  0  0  0  0  0
    2.5453   11.9993   -4.3861 H   0  0  0  0  0  0  0  0  0  0  0  0
    2.7445   13.7845   -4.3861 H   0  0  0  0  0  0  0  0  0  0  0  0
  1  2  1  0
  2  3  1  0
  3  4  1  0
  4  5  1  0
  5  6  1  0
  6  7  1  0
  7  8  1  0
  7  9  1  0
  2 10  1  0
 10 11  1  0
 11 12  1  0
 12 13  1  0
 13 14  1  1
 13 15  1  0
 15 16  1  0
 16 17  1  0
 17 18  2  0
 18 19  1  0
 19 20  1  0
 20 21  1  0
 21 22  1  0
 22 23  1  0
 22 24  1  0
 24 25  1  0
 24 26  1  0
 19 27  1  0
 27 28  1  6
 27 29  1  0
 29 30  1  0
 30 31  1  0
 31 32  1  6
  7  5  1  0
 31 10  1  0
 31 13  1  0
 27 15  1  0
 24 18  1  0
  1 33  1  0
  1 34  1  0
  1 35  1  0
  2 36  1  1
  3 37  1  0
  3 38  1  0
  4 39  1  0
  4 40  1  0
  5 41  1  6
  8 42  1  0
  8 43  1  0
  8 44  1  0
  9 45  1  0
  9 46  1  0
  9 47  1  0
 10 48  1  1
 11 49  1  0
 11 50  1  0
 12 51  1  0
 12 52  1  0
 14 53  1  0
 14 54  1  0
 14 55  1  0
 15 56  1  6
 16 57  1  0
 16 58  1  0
 17 59  1  0
 19 60  1  1
 20 61  1  0
 20 62  1  0
 21 63  1  0
 21 64  1  0
 22 65  1  1
 23 66  1  0
 25 67  1  0
 25 68  1  0
 25 69  1  0
 26 70  1  0
 26 71  1  0
 26 72  1  0
 28 73  1  0
 28 74  1  0
 28 75  1  0
 29 76  1  0
 29 77  1  0
 30 78  1  0
 30 79  1  0
 32 80  1  0
 32 81  1  0
 32 82  1  0
M  END
>  <meeko>  (9) 
{"is_sidechain": [false], "intermolecular_energy": 2.731, "internal_energy": -0.839}

$$$$
EPH_relaxed_0001_pdb2pqr_Repair_365_r2_0001_out
     RDKit          3D

 82 86  0  0  0  0  0  0  0  0999 V2000
   -0.9020   16.3730   -5.8870 C   0  0  0  0  0  0  0  0  0  0  0  0
    0.2020   15.6720   -6.6820 C   0  0  2  0  0  0  0  0  0  0  0  0
   -0.1850   15.4710   -8.1610 C   0  0  0  0  0  0  0  0  0  0  0  0
    0.4630   16.4830   -9.1100 C   0  0  0  0  0  0  0  0  0  0  0  0
    1.8660   16.0930   -9.4630 C   0  0  2  0  0  0  0  0  0  0  0  0
    2.3620   16.6760  -10.6750 O   0  0  0  0  0  0  0  0  0  0  0  0
    2.2200   15.2460  -10.6710 C   0  0  0  0  0  0  0  0  0  0  0  0
    1.1660   14.7370  -11.6030 C   0  0  0  0  0  0  0  0  0  0  0  0
    3.5240   14.5110  -10.6720 C   0  0  0  0  0  0  0  0  0  0  0  0
    0.5300   14.3280   -6.0420 C   0  0  1  0  0  0  0  0  0  0  0  0
    1.7550   13.6370   -6.6980 C   0  0  0  0  0  0  0  0  0  0  0  0
    2.5040   12.8860   -5.5670 C   0  0  0  0  0  0  0  0  0  0  0  0
    1.5170   12.8910   -4.3760 C   0  0  1  0  0  0  0  0  0  0  0  0
    0.5280   11.7210   -4.6690 C   0  0  0  0  0  0  0  0  0  0  0  0
    2.1520   12.7670   -2.9530 C   0  0  2  0  0  0  0  0  0  0  0  0
    2.9140   11.4560   -2.6900 C   0  0  0  0  0  0  0  0  0  0  0  0
    2.0960   10.3480   -2.1140 C   0  0  0  0  0  0  0  0  0  0  0  0
    0.8790   10.4820   -1.5560 C   0  0  0  0  0  0  0  0  0  0  0  0
    0.2450   11.8670   -1.3740 C   0  0  1  0  0  0  0  0  0  0  0  0
   -0.3350   11.9870    0.0600 C   0  0  0  0  0  0  0  0  0  0  0  0
   -1.3000   10.8540    0.3970 C   0  0  0  0  0  0  0  0  0  0  0  0
   -0.6160    9.4960    0.2610 C   0  0  2  0  0  0  0  0  0  0  0  0
    0.3950    9.3860    1.2670 O   0  0  0  0  0  0  0  0  0  0  0  0
    0.0150    9.2660   -1.1410 C   0  0  0  0  0  0  0  0  0  0  0  0
   -1.1070    9.0850   -2.1930 C   0  0  0  0  0  0  0  0  0  0  0  0
    0.7920    7.9230   -1.1000 C   0  0  0  0  0  0  0  0  0  0  0  0
    1.1590   13.1060   -1.7680 C   0  0  1  0  0  0  0  0  0  0  0  0
    2.0420   13.5230   -0.5520 C   0  0  0  0  0  0  0  0  0  0  0  0
    0.2390   14.3420   -2.0930 C   0  0  0  0  0  0  0  0  0  0  0  0
   -0.2590   14.4740   -3.5450 C   0  0  0  0  0  0  0  0  0  0  0  0
    0.8990   14.3280   -4.5370 C   0  0  2  0  0  0  0  0  0  0  0  0
    1.9010   15.5050   -4.2810 C   0  0  0  0  0  0  0  0  0  0  0  0
   -0.7117   16.2522   -4.8103 H   0  0  0  0  0  0  0  0  0  0  0  0
   -0.9125   17.4435   -6.1396 H   0  0  0  0  0  0  0  0  0  0  0  0
   -1.8753   15.9271   -6.1396 H   0  0  0  0  0  0  0  0  0  0  0  0
    1.0895   16.3214   -6.6587 H   0  0  0  0  0  0  0  0  0  0  0  0
    0.1246   14.4607   -8.4667 H   0  0  0  0  0  0  0  0  0  0  0  0
   -1.2732   15.6158   -8.2310 H   0  0  0  0  0  0  0  0  0  0  0  0
   -0.1339   16.5396  -10.0322 H   0  0  0  0  0  0  0  0  0  0  0  0
    0.4960   17.4576   -8.6010 H   0  0  0  0  0  0  0  0  0  0  0  0
    2.1360   16.0108   -8.3998 H   0  0  0  0  0  0  0  0  0  0  0  0
    0.3260   14.3313  -11.0201 H   0  0  0  0  0  0  0  0  0  0  0  0
    0.8080   15.5615  -12.2371 H   0  0  0  0  0  0  0  0  0  0  0  0
    1.5891   13.9440  -12.2371 H   0  0  0  0  0  0  0  0  0  0  0  0
    3.8440   14.3306   -9.6352 H   0  0  0  0  0  0  0  0  0  0  0  0
    3.4021   13.5487  -11.1908 H   0  0  0  0  0  0  0  0  0  0  0  0
    4.2841   15.1135  -11.1908 H   0  0  0  0  0  0  0  0  0  0  0  0
   -0.4297   13.8124   -6.1940 H   0  0  0  0  0  0  0  0  0  0  0  0
    1.4214   12.9262   -7.4683 H   0  0  0  0  0  0  0  0  0  0  0  0
    2.4108   14.3743   -7.1841 H   0  0  0  0  0  0  0  0  0  0  0  0
    2.7378   11.8557   -5.8734 H   0  0  0  0  0  0  0  0  0  0  0  0
    3.4640   13.3604   -5.3155 H   0  0  0  0  0  0  0  0  0  0  0  0
    0.1697   11.2972   -3.7192 H   0  0  0  0  0  0  0  0  0  0  0  0
   -0.3275   12.1002   -5.2472 H   0  0  0  0  0  0  0  0  0  0  0  0
    1.0443   10.9405   -5.2472 H   0  0  0  0  0  0  0  0  0  0  0  0
    2.9155   13.5587   -2.9661 H   0  0  0  0  0  0  0  0  0  0  0  0
    3.3323   11.1082   -3.6461 H   0  0  0  0  0  0  0  0  0  0  0  0
    3.6783   11.6941   -1.9356 H   0  0  0  0  0  0  0  0  0  0  0  0
    2.5248    9.3356   -2.1487 H   0  0  0  0  0  0  0  0  0  0  0  0
   -0.5683   11.9277   -2.1121 H   0  0  0  0  0  0  0  0  0  0  0  0
    0.4967   11.9677    0.7796 H   0  0  0  0  0  0  0  0  0  0  0  0
   -0.8962   12.9315    0.1155 H   0  0  0  0  0  0  0  0  0  0  0  0
   -1.6528   10.9774    1.4316 H   0  0  0  0  0  0  0  0  0  0  0  0
   -2.1459   10.8929   -0.3051 H   0  0  0  0  0  0  0  0  0  0  0  0
   -1.3885    8.7234    0.3883 H   0  0  0  0  0  0  0  0  0  0  0  0
    0.6850   10.2860    1.4930 H   0  0  0  0  0  0  0  0  0  0  0  0
   -2.0681    8.9299   -1.6810 H   0  0  0  0  0  0  0  0  0  0  0  0
   -1.1679    9.9849   -2.8226 H   0  0  0  0  0  0  0  0  0  0  0  0
   -0.8819    8.2116   -2.8226 H   0  0  0  0  0  0  0  0  0  0  0  0
    0.9618    7.6294   -0.0536 H   0  0  0  0  0  0  0  0  0  0  0  0
    0.2050    7.1441   -1.6087 H   0  0  0  0  0  0  0  0  0  0  0  0
    1.7598    8.0437   -1.6087 H   0  0  0  0  0  0  0  0  0  0  0  0
    1.5184   13.2757    0.3833 H   0  0  0  0  0  0  0  0  0  0  0  0
    2.9987   12.9816   -0.5908 H   0  0  0  0  0  0  0  0  0  0  0  0
    2.2317   14.6058   -0.5908 H   0  0  0  0  0  0  0  0  0  0  0  0
   -0.6456   14.2788   -1.4422 H   0  0  0  0  0  0  0  0  0  0  0  0
    0.8729   15.2251   -1.9245 H   0  0  0  0  0  0  0  0  0  0  0  0
   -1.0035   13.6888   -3.7429 H   0  0  0  0  0  0  0  0  0  0  0  0
   -0.7071   15.4704   -3.6730 H   0  0  0  0  0  0  0  0  0  0  0  0
    2.0256   15.6514   -3.1979 H   0  0  0  0  0  0  0  0  0  0  0  0
    2.8743   15.2628   -4.7327 H   0  0  0  0  0  0  0  0  0  0  0  0
    1.5065   16.4272   -4.7327 H   0  0  0  0  0  0  0  0  0  0  0  0
  1  2  1  0
  2  3  1  0
  3  4  1  0
  4  5  1  0
  5  6  1  0
  6  7  1  0
  7  8  1  0
  7  9  1  0
  2 10  1  0
 10 11  1  0
 11 12  1  0
 12 13  1  0
 13 14  1  6
 13 15  1  0
 15 16  1  0
 16 17  1  0
 17 18  2  0
 18 19  1  0
 19 20  1  0
 20 21  1  0
 21 22  1  0
 22 23  1  0
 22 24  1  0
 24 25  1  0
 24 26  1  0
 19 27  1  0
 27 28  1  1
 27 29  1  0
 29 30  1  0
 30 31  1  0
 31 32  1  6
  7  5  1  0
 31 10  1  0
 31 13  1  0
 27 15  1  0
 24 18  1  0
  1 33  1  0
  1 34  1  0
  1 35  1  0
  2 36  1  6
  3 37  1  0
  3 38  1  0
  4 39  1  0
  4 40  1  0
  5 41  1  1
  8 42  1  0
  8 43  1  0
  8 44  1  0
  9 45  1  0
  9 46  1  0
  9 47  1  0
 10 48  1  1
 11 49  1  0
 11 50  1  0
 12 51  1  0
 12 52  1  0
 14 53  1  0
 14 54  1  0
 14 55  1  0
 15 56  1  6
 16 57  1  0
 16 58  1  0
 17 59  1  0
 19 60  1  6
 20 61  1  0
 20 62  1  0
 21 63  1  0
 21 64  1  0
 22 65  1  1
 23 66  1  0
 25 67  1  0
 25 68  1  0
 25 69  1  0
 26 70  1  0
 26 71  1  0
 26 72  1  0
 28 73  1  0
 28 74  1  0
 28 75  1  0
 29 76  1  0
 29 77  1  0
 30 78  1  0
 30 79  1  0
 32 80  1  0
 32 81  1  0
 32 82  1  0
M  END
>  <meeko>  (10) 
{"is_sidechain": [false], "intermolecular_energy": 2.731, "internal_energy": -0.839}

$$$$
EPH_relaxed_0001_pdb2pqr_Repair_365_r2_0001_out
     RDKit          3D

 82 86  0  0  0  0  0  0  0  0999 V2000
    0.1210    9.3760   -2.4510 C   0  0  0  0  0  0  0  0  0  0  0  0
    1.1870   10.3900   -2.8760 C   0  0  2  0  0  0  0  0  0  0  0  0
    2.5920    9.7580   -2.9520 C   0  0  0  0  0  0  0  0  0  0  0  0
    3.5400   10.4800   -3.9130 C   0  0  0  0  0  0  0  0  0  0  0  0
    4.9180   10.6130   -3.3380 C   0  0  2  0  0  0  0  0  0  0  0  0
    5.5490   11.8770   -3.5810 O   0  0  0  0  0  0  0  0  0  0  0  0
    6.1700   10.7310   -4.1860 C   0  0  0  0  0  0  0  0  0  0  0  0
    6.1050   10.7210   -5.6810 C   0  0  0  0  0  0  0  0  0  0  0  0
    7.4860   10.3650   -3.5730 C   0  0  0  0  0  0  0  0  0  0  0  0
    1.1990   11.5690   -1.9090 C   0  0  1  0  0  0  0  0  0  0  0  0
    2.2730   11.4210   -0.7990 C   0  0  0  0  0  0  0  0  0  0  0  0
    2.8030   12.8460   -0.4960 C   0  0  0  0  0  0  0  0  0  0  0  0
    1.7960   13.7920   -1.1910 C   0  0  1  0  0  0  0  0  0  0  0  0
    0.5920   13.8930   -0.2030 C   0  0  0  0  0  0  0  0  0  0  0  0
    2.3360   15.2040   -1.5890 C   0  0  2  0  0  0  0  0  0  0  0  0
    2.7920   16.0840   -0.4120 C   0  0  0  0  0  0  0  0  0  0  0  0
    1.7370   16.9620    0.1740 C   0  0  0  0  0  0  0  0  0  0  0  0
    0.5550   17.2560   -0.4010 C   0  0  0  0  0  0  0  0  0  0  0  0
    0.2230   16.7610   -1.8140 C   0  0  1  0  0  0  0  0  0  0  0  0
   -0.3720   17.9290   -2.6450 C   0  0  0  0  0  0  0  0  0  0  0  0
   -1.5670   18.5850   -1.9600 C   0  0  0  0  0  0  0  0  0  0  0  0
   -1.1820   19.1150   -0.5810 C   0  0  2  0  0  0  0  0  0  0  0  0
   -0.2560   20.1940   -0.7440 O   0  0  0  0  0  0  0  0  0  0  0  0
   -0.5620   18.0290    0.3420 C   0  0  0  0  0  0  0  0  0  0  0  0
   -1.6560   17.0170    0.7630 C   0  0  0  0  0  0  0  0  0  0  0  0
   -0.0890   18.7250    1.6470 C   0  0  0  0  0  0  0  0  0  0  0  0
    1.3930   16.0040   -2.5770 C   0  0  1  0  0  0  0  0  0  0  0  0
    2.2980   17.0340   -3.3200 C   0  0  0  0  0  0  0  0  0  0  0  0
    0.7690   15.0790   -3.6880 C   0  0  0  0  0  0  0  0  0  0  0  0
    0.3650   13.6550   -3.2610 C   0  0  0  0  0  0  0  0  0  0  0  0
    1.5020   12.9690   -2.4980 C   0  0  2  0  0  0  0  0  0  0  0  0
    2.7200   12.8330   -3.4750 C   0  0  0  0  0  0  0  0  0  0  0  0
    0.0743    9.3316   -1.3529 H   0  0  0  0  0  0  0  0  0  0  0  0
   -0.8575    9.6848   -2.8474 H   0  0  0  0  0  0  0  0  0  0  0  0
    0.3805    8.3833   -2.8474 H   0  0  0  0  0  0  0  0  0  0  0  0
    0.9263   10.7398   -3.8858 H   0  0  0  0  0  0  0  0  0  0  0  0
    3.0364    9.7772   -1.9459 H   0  0  0  0  0  0  0  0  0  0  0  0
    2.4641    8.7347   -3.3347 H   0  0  0  0  0  0  0  0  0  0  0  0
    3.5990    9.9091   -4.8514 H   0  0  0  0  0  0  0  0  0  0  0  0
    3.1437   11.4907   -4.0903 H   0  0  0  0  0  0  0  0  0  0  0  0
    4.6560    9.9544   -2.4968 H   0  0  0  0  0  0  0  0  0  0  0  0
    5.0650   10.5610   -6.0017 H   0  0  0  0  0  0  0  0  0  0  0  0
    6.4645   11.6850   -6.0701 H   0  0  0  0  0  0  0  0  0  0  0  0
    6.7377    9.9096   -6.0701 H   0  0  0  0  0  0  0  0  0  0  0  0
    7.3992   10.3891   -2.4767 H   0  0  0  0  0  0  0  0  0  0  0  0
    7.7722    9.3532   -3.8960 H   0  0  0  0  0  0  0  0  0  0  0  0
    8.2535   11.0838   -3.8960 H   0  0  0  0  0  0  0  0  0  0  0  0
    0.1583   11.5272   -1.5553 H   0  0  0  0  0  0  0  0  0  0  0  0
    1.8252   10.9833    0.1053 H   0  0  0  0  0  0  0  0  0  0  0  0
    3.0879   10.7575   -1.1241 H   0  0  0  0  0  0  0  0  0  0  0  0
    2.8242   13.0301    0.5883 H   0  0  0  0  0  0  0  0  0  0  0  0
    3.8318   12.9941   -0.8562 H   0  0  0  0  0  0  0  0  0  0  0  0
    0.9634   13.8618    0.8320 H   0  0  0  0  0  0  0  0  0  0  0  0
    0.0571   14.8392   -0.3723 H   0  0  0  0  0  0  0  0  0  0  0  0
   -0.0930   13.0492   -0.3723 H   0  0  0  0  0  0  0  0  0  0  0  0
    3.2499   14.9573   -2.1493 H   0  0  0  0  0  0  0  0  0  0  0  0
    3.1634   15.4215    0.3837 H   0  0  0  0  0  0  0  0  0  0  0  0
    3.5597   16.7597   -0.8170 H   0  0  0  0  0  0  0  0  0  0  0  0
    1.9421   17.4067    1.1590 H   0  0  0  0  0  0  0  0  0  0  0  0
   -0.5302   15.9691   -1.6893 H   0  0  0  0  0  0  0  0  0  0  0  0
    0.4092   18.6887   -2.7951 H   0  0  0  0  0  0  0  0  0  0  0  0
   -0.7220   17.5138   -3.6016 H   0  0  0  0  0  0  0  0  0  0  0  0
   -1.9234   19.4206   -2.5802 H   0  0  0  0  0  0  0  0  0  0  0  0
   -2.3590   17.8315   -1.8380 H   0  0  0  0  0  0  0  0  0  0  0  0
   -2.1052   19.4546   -0.0887 H   0  0  0  0  0  0  0  0  0  0  0  0
   -0.3070   20.4880   -1.6700 H   0  0  0  0  0  0  0  0  0  0  0  0
   -1.7081   16.9688    1.8607 H   0  0  0  0  0  0  0  0  0  0  0  0
   -2.6284   17.3410    0.3637 H   0  0  0  0  0  0  0  0  0  0  0  0
   -1.4086   16.0223    0.3637 H   0  0  0  0  0  0  0  0  0  0  0  0
   -0.4672   18.1685    2.5172 H   0  0  0  0  0  0  0  0  0  0  0  0
    1.0105   18.7450    1.6741 H   0  0  0  0  0  0  0  0  0  0  0  0
   -0.4752   19.7546    1.6741 H   0  0  0  0  0  0  0  0  0  0  0  0
    2.8369   17.6474   -2.5829 H   0  0  0  0  0  0  0  0  0  0  0  0
    3.0224   16.4978   -3.9506 H   0  0  0  0  0  0  0  0  0  0  0  0
    1.6730   17.6834   -3.9506 H   0  0  0  0  0  0  0  0  0  0  0  0
   -0.1326   15.5800   -4.0702 H   0  0  0  0  0  0  0  0  0  0  0  0
    1.5694   14.9405   -4.4297 H   0  0  0  0  0  0  0  0  0  0  0  0
   -0.5213   13.7116   -2.6119 H   0  0  0  0  0  0  0  0  0  0  0  0
    0.1435   13.0673   -4.1640 H   0  0  0  0  0  0  0  0  0  0  0  0
    3.6474   12.7294   -2.8926 H   0  0  0  0  0  0  0  0  0  0  0  0
    2.5840   11.9445   -4.1090 H   0  0  0  0  0  0  0  0  0  0  0  0
    2.7834   13.7297   -4.1090 H   0  0  0  0  0  0  0  0  0  0  0  0
  1  2  1  0
  2  3  1  0
  3  4  1  0
  4  5  1  0
  5  6  1  0
  6  7  1  0
  7  8  1  0
  7  9  1  0
  2 10  1  0
 10 11  1  0
 11 12  1  0
 12 13  1  0
 13 14  1  1
 13 15  1  0
 15 16  1  0
 16 17  1  0
 17 18  2  0
 18 19  1  0
 19 20  1  0
 20 21  1  0
 21 22  1  0
 22 23  1  0
 22 24  1  0
 24 25  1  0
 24 26  1  0
 19 27  1  0
 27 28  1  6
 27 29  1  0
 29 30  1  0
 30 31  1  0
 31 32  1  6
  7  5  1  0
 31 10  1  0
 31 13  1  0
 27 15  1  0
 24 18  1  0
  1 33  1  0
  1 34  1  0
  1 35  1  0
  2 36  1  6
  3 37  1  0
  3 38  1  0
  4 39  1  0
  4 40  1  0
  5 41  1  1
  8 42  1  0
  8 43  1  0
  8 44  1  0
  9 45  1  0
  9 46  1  0
  9 47  1  0
 10 48  1  1
 11 49  1  0
 11 50  1  0
 12 51  1  0
 12 52  1  0
 14 53  1  0
 14 54  1  0
 14 55  1  0
 15 56  1  6
 16 57  1  0
 16 58  1  0
 17 59  1  0
 19 60  1  1
 20 61  1  0
 20 62  1  0
 21 63  1  0
 21 64  1  0
 22 65  1  1
 23 66  1  0
 25 67  1  0
 25 68  1  0
 25 69  1  0
 26 70  1  0
 26 71  1  0
 26 72  1  0
 28 73  1  0
 28 74  1  0
 28 75  1  0
 29 76  1  0
 29 77  1  0
 30 78  1  0
 30 79  1  0
 32 80  1  0
 32 81  1  0
 32 82  1  0
M  END
>  <meeko>  (11) 
{"is_sidechain": [false], "intermolecular_energy": 2.731, "internal_energy": -0.839}

$$$$
EPH_relaxed_0001_pdb2pqr_Repair_365_r2_0001_out
     RDKit          3D

 82 86  0  0  0  0  0  0  0  0999 V2000
   -4.0810    7.3630   -3.5940 C   0  0  0  0  0  0  0  0  0  0  0  0
   -3.7150    7.2570   -2.1110 C   0  0  2  0  0  0  0  0  0  0  0  0
   -4.9060    6.7880   -1.2510 C   0  0  0  0  0  0  0  0  0  0  0  0
   -6.0600    6.1980   -2.0670 C   0  0  0  0  0  0  0  0  0  0  0  0
   -7.3740    6.8160   -1.6960 C   0  0  2  0  0  0  0  0  0  0  0  0
   -8.3890    5.8800   -1.3130 O   0  0  0  0  0  0  0  0  0  0  0  0
   -8.6420    6.6360   -2.5080 C   0  0  0  0  0  0  0  0  0  0  0  0
   -8.6580    5.8120   -3.7580 C   0  0  0  0  0  0  0  0  0  0  0  0
   -9.7360    7.6470   -2.3620 C   0  0  0  0  0  0  0  0  0  0  0  0
   -3.2040    8.6010   -1.6040 C   0  0  1  0  0  0  0  0  0  0  0  0
   -3.8690    9.0270   -0.2680 C   0  0  0  0  0  0  0  0  0  0  0  0
   -2.7880    9.7800    0.5490 C   0  0  0  0  0  0  0  0  0  0  0  0
   -1.6520   10.0520   -0.4650 C   0  0  1  0  0  0  0  0  0  0  0  0
   -2.1140   11.3160   -1.2560 C   0  0  0  0  0  0  0  0  0  0  0  0
   -0.2200   10.2390    0.1360 C   0  0  2  0  0  0  0  0  0  0  0  0
   -0.0600   11.4440    1.0780 C   0  0  0  0  0  0  0  0  0  0  0  0
    0.3560   12.7180    0.4190 C   0  0  0  0  0  0  0  0  0  0  0  0
    0.8660   12.8260   -0.8220 C   0  0  0  0  0  0  0  0  0  0  0  0
    1.1610   11.5780   -1.6640 C   0  0  1  0  0  0  0  0  0  0  0  0
    2.5700   11.7050   -2.3010 C   0  0  0  0  0  0  0  0  0  0  0  0
    2.7390   12.9970   -3.0930 C   0  0  0  0  0  0  0  0  0  0  0  0
    2.4950   14.2160   -2.2080 C   0  0  2  0  0  0  0  0  0  0  0  0
    3.5320   14.2880   -1.2250 O   0  0  0  0  0  0  0  0  0  0  0  0
    1.1090   14.1950   -1.5040 C   0  0  0  0  0  0  0  0  0  0  0  0
   -0.0100   14.4210   -2.5510 C   0  0  0  0  0  0  0  0  0  0  0  0
    1.0470   15.4050   -0.5340 C   0  0  0  0  0  0  0  0  0  0  0  0
    0.9440   10.1830   -0.9350 C   0  0  1  0  0  0  0  0  0  0  0  0
    2.2380    9.7780   -0.1650 C   0  0  0  0  0  0  0  0  0  0  0  0
    0.7050    9.0680   -2.0210 C   0  0  0  0  0  0  0  0  0  0  0  0
   -0.7470    8.8500   -2.4860 C   0  0  0  0  0  0  0  0  0  0  0  0
   -1.6920    8.7130   -1.2880 C   0  0  2  0  0  0  0  0  0  0  0  0
   -1.2650    7.4370   -0.4850 C   0  0  0  0  0  0  0  0  0  0  0  0
   -5.1335    7.6678   -3.6910 H   0  0  0  0  0  0  0  0  0  0  0  0
   -3.4364    8.1114   -4.0782 H   0  0  0  0  0  0  0  0  0  0  0  0
   -3.9361    6.3860   -4.0782 H   0  0  0  0  0  0  0  0  0  0  0  0
   -2.9228    6.4994   -2.0192 H   0  0  0  0  0  0  0  0  0  0  0  0
   -4.5473    6.0193   -0.5507 H   0  0  0  0  0  0  0  0  0  0  0  0
   -5.2988    7.6761   -0.7342 H   0  0  0  0  0  0  0  0  0  0  0  0
   -5.8701    6.3787   -3.1353 H   0  0  0  0  0  0  0  0  0  0  0  0
   -6.1153    5.1204   -1.8532 H   0  0  0  0  0  0  0  0  0  0  0  0
   -6.8688    7.7119   -1.3059 H   0  0  0  0  0  0  0  0  0  0  0  0
   -8.6787    4.7445   -3.4932 H   0  0  0  0  0  0  0  0  0  0  0  0
   -9.5515    6.0605   -4.3496 H   0  0  0  0  0  0  0  0  0  0  0  0
   -7.7555    6.0256   -4.3496 H   0  0  0  0  0  0  0  0  0  0  0  0
   -9.9297    7.8260   -1.2941 H   0  0  0  0  0  0  0  0  0  0  0  0
   -9.4316    8.5886   -2.8423 H   0  0  0  0  0  0  0  0  0  0  0  0
  -10.6507    7.2694   -2.8423 H   0  0  0  0  0  0  0  0  0  0  0  0
   -3.4551    9.2325   -2.4689 H   0  0  0  0  0  0  0  0  0  0  0  0
   -4.7248    9.6894   -0.4651 H   0  0  0  0  0  0  0  0  0  0  0  0
   -4.2431    8.1520    0.2838 H   0  0  0  0  0  0  0  0  0  0  0  0
   -3.1888   10.7244    0.9458 H   0  0  0  0  0  0  0  0  0  0  0  0
   -2.4421    9.2002    1.4175 H   0  0  0  0  0  0  0  0  0  0  0  0
   -2.4029   12.1065   -0.5477 H   0  0  0  0  0  0  0  0  0  0  0  0
   -1.2888   11.6744   -1.8888 H   0  0  0  0  0  0  0  0  0  0  0  0
   -2.9759   11.0578   -1.8888 H   0  0  0  0  0  0  0  0  0  0  0  0
   -0.1123    9.3477    0.7717 H   0  0  0  0  0  0  0  0  0  0  0  0
   -1.0260   11.6179    1.5746 H   0  0  0  0  0  0  0  0  0  0  0  0
    0.7515   11.1816    1.7727 H   0  0  0  0  0  0  0  0  0  0  0  0
    0.2355   13.6464    0.9965 H   0  0  0  0  0  0  0  0  0  0  0  0
    0.3952   11.5550   -2.4533 H   0  0  0  0  0  0  0  0  0  0  0  0
    3.3229   11.6817   -1.4993 H   0  0  0  0  0  0  0  0  0  0  0  0
    2.6973   10.8655   -3.0003 H   0  0  0  0  0  0  0  0  0  0  0  0
    3.7625   13.0422   -3.4936 H   0  0  0  0  0  0  0  0  0  0  0  0
    2.0044   13.0052   -3.9117 H   0  0  0  0  0  0  0  0  0  0  0  0
    2.5029   15.1024   -2.8594 H   0  0  0  0  0  0  0  0  0  0  0  0
    4.3560   13.9860   -1.6440 H   0  0  0  0  0  0  0  0  0  0  0  0
   -0.9620   14.6133   -2.0345 H   0  0  0  0  0  0  0  0  0  0  0  0
    0.2465   15.2855   -3.1810 H   0  0  0  0  0  0  0  0  0  0  0  0
   -0.1091   13.5247   -3.1810 H   0  0  0  0  0  0  0  0  0  0  0  0
    1.0655   15.0435    0.5048 H   0  0  0  0  0  0  0  0  0  0  0  0
    1.9127   16.0605   -0.7096 H   0  0  0  0  0  0  0  0  0  0  0  0
    0.1188   15.9686   -0.7096 H   0  0  0  0  0  0  0  0  0  0  0  0
    2.0535    9.8357    0.9179 H   0  0  0  0  0  0  0  0  0  0  0  0
    2.5184    8.7491   -0.4348 H   0  0  0  0  0  0  0  0  0  0  0  0
    3.0549   10.4634   -0.4348 H   0  0  0  0  0  0  0  0  0  0  0  0
    1.3016    9.3328   -2.9064 H   0  0  0  0  0  0  0  0  0  0  0  0
    0.9953    8.1254   -1.5339 H   0  0  0  0  0  0  0  0  0  0  0  0
   -1.0621    9.7091   -3.0964 H   0  0  0  0  0  0  0  0  0  0  0  0
   -0.7909    7.9221   -3.0751 H   0  0  0  0  0  0  0  0  0  0  0  0
   -1.3337    7.6424    0.5935 H   0  0  0  0  0  0  0  0  0  0  0  0
   -1.9325    6.6014   -0.7424 H   0  0  0  0  0  0  0  0  0  0  0  0
   -0.2290    7.1714   -0.7424 H   0  0  0  0  0  0  0  0  0  0  0  0
  1  2  1  0
  2  3  1  0
  3  4  1  0
  4  5  1  0
  5  6  1  0
  6  7  1  0
  7  8  1  0
  7  9  1  0
  2 10  1  0
 10 11  1  0
 11 12  1  0
 12 13  1  0
 13 14  1  6
 13 15  1  0
 15 16  1  0
 16 17  1  0
 17 18  2  0
 18 19  1  0
 19 20  1  0
 20 21  1  0
 21 22  1  0
 22 23  1  0
 22 24  1  0
 24 25  1  0
 24 26  1  0
 19 27  1  0
 27 28  1  1
 27 29  1  0
 29 30  1  0
 30 31  1  0
 31 32  1  1
  7  5  1  0
 31 10  1  0
 31 13  1  0
 27 15  1  0
 24 18  1  0
  1 33  1  0
  1 34  1  0
  1 35  1  0
  2 36  1  6
  3 37  1  0
  3 38  1  0
  4 39  1  0
  4 40  1  0
  5 41  1  1
  8 42  1  0
  8 43  1  0
  8 44  1  0
  9 45  1  0
  9 46  1  0
  9 47  1  0
 10 48  1  6
 11 49  1  0
 11 50  1  0
 12 51  1  0
 12 52  1  0
 14 53  1  0
 14 54  1  0
 14 55  1  0
 15 56  1  1
 16 57  1  0
 16 58  1  0
 17 59  1  0
 19 60  1  6
 20 61  1  0
 20 62  1  0
 21 63  1  0
 21 64  1  0
 22 65  1  6
 23 66  1  0
 25 67  1  0
 25 68  1  0
 25 69  1  0
 26 70  1  0
 26 71  1  0
 26 72  1  0
 28 73  1  0
 28 74  1  0
 28 75  1  0
 29 76  1  0
 29 77  1  0
 30 78  1  0
 30 79  1  0
 32 80  1  0
 32 81  1  0
 32 82  1  0
M  END
>  <meeko>  (12) 
{"is_sidechain": [false], "intermolecular_energy": 2.731, "internal_energy": -0.839}

$$$$
EPH_relaxed_0001_pdb2pqr_Repair_365_r2_0001_out
     RDKit          3D

 82 86  0  0  0  0  0  0  0  0999 V2000
   -2.3240    7.8200   -2.2510 C   0  0  0  0  0  0  0  0  0  0  0  0
   -2.2410    8.4000   -0.8360 C   0  0  2  0  0  0  0  0  0  0  0  0
   -3.6020    8.3610   -0.1120 C   0  0  0  0  0  0  0  0  0  0  0  0
   -4.8040    8.4310   -1.0570 C   0  0  0  0  0  0  0  0  0  0  0  0
   -5.5470    7.1300   -1.1080 C   0  0  2  0  0  0  0  0  0  0  0  0
   -5.5570    6.4970   -2.3940 O   0  0  0  0  0  0  0  0  0  0  0  0
   -6.8310    6.9300   -1.8910 C   0  0  0  0  0  0  0  0  0  0  0  0
   -7.4490    8.0450   -2.6750 C   0  0  0  0  0  0  0  0  0  0  0  0
   -7.7390    5.8060   -1.5000 C   0  0  0  0  0  0  0  0  0  0  0  0
   -1.7220    9.8320   -0.8910 C   0  0  1  0  0  0  0  0  0  0  0  0
   -1.3060   10.3710    0.5030 C   0  0  0  0  0  0  0  0  0  0  0  0
   -0.0860   11.3010    0.2780 C   0  0  0  0  0  0  0  0  0  0  0  0
   -0.0470   11.5300   -1.2510 C   0  0  1  0  0  0  0  0  0  0  0  0
   -1.1070   12.6450   -1.5170 C   0  0  0  0  0  0  0  0  0  0  0  0
    1.3450   11.8990   -1.8600 C   0  0  2  0  0  0  0  0  0  0  0  0
    1.9470   13.2220   -1.3560 C   0  0  0  0  0  0  0  0  0  0  0  0
    1.5900   14.4310   -2.1560 C   0  0  0  0  0  0  0  0  0  0  0  0
    1.0560   14.4220   -3.3910 C   0  0  0  0  0  0  0  0  0  0  0  0
    0.8480   13.1040   -4.1490 C   0  0  1  0  0  0  0  0  0  0  0  0
    1.3620   13.2570   -5.6050 C   0  0  0  0  0  0  0  0  0  0  0  0
    0.7380   14.4490   -6.3240 C   0  0  0  0  0  0  0  0  0  0  0  0
    1.0160   15.7470   -5.5700 C   0  0  2  0  0  0  0  0  0  0  0  0
    2.4190   16.0210   -5.6260 O   0  0  0  0  0  0  0  0  0  0  0  0
    0.5490   15.7080   -4.0880 C   0  0  0  0  0  0  0  0  0  0  0  0
   -0.9990   15.7150   -4.0300 C   0  0  0  0  0  0  0  0  0  0  0  0
    1.0150   17.0220   -3.4060 C   0  0  0  0  0  0  0  0  0  0  0  0
    1.4090   11.7990   -3.4380 C   0  0  1  0  0  0  0  0  0  0  0  0
    2.9100   11.5940   -3.8100 C   0  0  0  0  0  0  0  0  0  0  0  0
    0.6390   10.5410   -3.9900 C   0  0  0  0  0  0  0  0  0  0  0  0
   -0.6680   10.1560   -3.2710 C   0  0  0  0  0  0  0  0  0  0  0  0
   -0.4630   10.0990   -1.7540 C   0  0  2  0  0  0  0  0  0  0  0  0
    0.5820    8.9700   -1.4540 C   0  0  0  0  0  0  0  0  0  0  0  0
   -2.4796    6.7326   -2.1930 H   0  0  0  0  0  0  0  0  0  0  0  0
   -3.1651    8.2826   -2.7882 H   0  0  0  0  0  0  0  0  0  0  0  0
   -1.3869    8.0282   -2.7882 H   0  0  0  0  0  0  0  0  0  0  0  0
   -1.5430    7.7731   -0.2618 H   0  0  0  0  0  0  0  0  0  0  0  0
   -3.6642    7.4236    0.4601 H   0  0  0  0  0  0  0  0  0  0  0  0
   -3.6483    9.2506    0.5334 H   0  0  0  0  0  0  0  0  0  0  0  0
   -5.4876    9.2182   -0.7063 H   0  0  0  0  0  0  0  0  0  0  0  0
   -4.4322    8.6529   -2.0682 H   0  0  0  0  0  0  0  0  0  0  0  0
   -5.2766    6.9074   -0.0652 H   0  0  0  0  0  0  0  0  0  0  0  0
   -7.8638    8.7934   -1.9837 H   0  0  0  0  0  0  0  0  0  0  0  0
   -6.6832    8.5160   -3.3088 H   0  0  0  0  0  0  0  0  0  0  0  0
   -8.2543    7.6452   -3.3088 H   0  0  0  0  0  0  0  0  0  0  0  0
   -7.7912    5.7414   -0.4031 H   0  0  0  0  0  0  0  0  0  0  0  0
   -8.7452    5.9897   -1.9048 H   0  0  0  0  0  0  0  0  0  0  0  0
   -7.3479    4.8609   -1.9048 H   0  0  0  0  0  0  0  0  0  0  0  0
   -2.5965   10.3280   -1.3373 H   0  0  0  0  0  0  0  0  0  0  0  0
   -2.1352   10.9364    0.9532 H   0  0  0  0  0  0  0  0  0  0  0  0
   -1.0530    9.5463    1.1856 H   0  0  0  0  0  0  0  0  0  0  0  0
   -0.2209   12.2542    0.8101 H   0  0  0  0  0  0  0  0  0  0  0  0
    0.8485   10.8626    0.6582 H   0  0  0  0  0  0  0  0  0  0  0  0
   -1.4777   13.0349   -0.5575 H   0  0  0  0  0  0  0  0  0  0  0  0
   -0.6441   13.4617   -2.0904 H   0  0  0  0  0  0  0  0  0  0  0  0
   -1.9460   12.2240   -2.0904 H   0  0  0  0  0  0  0  0  0  0  0  0
    1.9944   11.1047   -1.4633 H   0  0  0  0  0  0  0  0  0  0  0  0
    1.5998   13.3823   -0.3246 H   0  0  0  0  0  0  0  0  0  0  0  0
    3.0381   13.1119   -1.4416 H   0  0  0  0  0  0  0  0  0  0  0  0
    1.7796   15.4124   -1.6968 H   0  0  0  0  0  0  0  0  0  0  0  0
   -0.2372   12.9241   -4.1532 H   0  0  0  0  0  0  0  0  0  0  0  0
    2.4535   13.3916   -5.5812 H   0  0  0  0  0  0  0  0  0  0  0  0
    1.0777   12.3486   -6.1564 H   0  0  0  0  0  0  0  0  0  0  0  0
    1.1633   14.5222   -7.3358 H   0  0  0  0  0  0  0  0  0  0  0  0
   -0.3505   14.2983   -6.3745 H   0  0  0  0  0  0  0  0  0  0  0  0
    0.4360   16.5432   -6.0595 H   0  0  0  0  0  0  0  0  0  0  0  0
    2.5420   16.8250   -6.1590 H   0  0  0  0  0  0  0  0  0  0  0  0
   -1.3266   15.7165   -2.9799 H   0  0  0  0  0  0  0  0  0  0  0  0
   -1.3808   16.6149   -4.5345 H   0  0  0  0  0  0  0  0  0  0  0  0
   -1.3889   14.8186   -4.5345 H   0  0  0  0  0  0  0  0  0  0  0  0
    0.9728   16.9029   -2.3133 H   0  0  0  0  0  0  0  0  0  0  0  0
    2.0477   17.2470   -3.7107 H   0  0  0  0  0  0  0  0  0  0  0  0
    0.3548   17.8474   -3.7107 H   0  0  0  0  0  0  0  0  0  0  0  0
    3.5079   11.5123   -2.8903 H   0  0  0  0  0  0  0  0  0  0  0  0
    3.0188   10.6727   -4.4010 H   0  0  0  0  0  0  0  0  0  0  0  0
    3.2618   12.4524   -4.4010 H   0  0  0  0  0  0  0  0  0  0  0  0
    0.3936   10.7372   -5.0442 H   0  0  0  0  0  0  0  0  0  0  0  0
    1.3190    9.6922   -3.8253 H   0  0  0  0  0  0  0  0  0  0  0  0
   -1.4398   10.9050   -3.5019 H   0  0  0  0  0  0  0  0  0  0  0  0
   -0.9804    9.1608   -3.6203 H   0  0  0  0  0  0  0  0  0  0  0  0
    0.6916    8.8516   -0.3659 H   0  0  0  0  0  0  0  0  0  0  0  0
    0.2348    8.0230   -1.8928 H   0  0  0  0  0  0  0  0  0  0  0  0
    1.5530    9.2431   -1.8928 H   0  0  0  0  0  0  0  0  0  0  0  0
  1  2  1  0
  2  3  1  0
  3  4  1  0
  4  5  1  0
  5  6  1  0
  6  7  1  0
  7  8  1  0
  7  9  1  0
  2 10  1  0
 10 11  1  0
 11 12  1  0
 12 13  1  0
 13 14  1  1
 13 15  1  0
 15 16  1  0
 16 17  1  0
 17 18  2  0
 18 19  1  0
 19 20  1  0
 20 21  1  0
 21 22  1  0
 22 23  1  0
 22 24  1  0
 24 25  1  0
 24 26  1  0
 19 27  1  0
 27 28  1  1
 27 29  1  0
 29 30  1  0
 30 31  1  0
 31 32  1  6
  7  5  1  0
 31 10  1  0
 31 13  1  0
 27 15  1  0
 24 18  1  0
  1 33  1  0
  1 34  1  0
  1 35  1  0
  2 36  1  1
  3 37  1  0
  3 38  1  0
  4 39  1  0
  4 40  1  0
  5 41  1  1
  8 42  1  0
  8 43  1  0
  8 44  1  0
  9 45  1  0
  9 46  1  0
  9 47  1  0
 10 48  1  6
 11 49  1  0
 11 50  1  0
 12 51  1  0
 12 52  1  0
 14 53  1  0
 14 54  1  0
 14 55  1  0
 15 56  1  1
 16 57  1  0
 16 58  1  0
 17 59  1  0
 19 60  1  6
 20 61  1  0
 20 62  1  0
 21 63  1  0
 21 64  1  0
 22 65  1  6
 23 66  1  0
 25 67  1  0
 25 68  1  0
 25 69  1  0
 26 70  1  0
 26 71  1  0
 26 72  1  0
 28 73  1  0
 28 74  1  0
 28 75  1  0
 29 76  1  0
 29 77  1  0
 30 78  1  0
 30 79  1  0
 32 80  1  0
 32 81  1  0
 32 82  1  0
M  END
>  <meeko>  (13) 
{"is_sidechain": [false], "intermolecular_energy": 2.731, "internal_energy": -0.839}

$$$$
EPH_relaxed_0001_pdb2pqr_Repair_365_r2_0001_out
     RDKit          3D

 82 86  0  0  0  0  0  0  0  0999 V2000
    1.9150   10.8070   -4.8670 C   0  0  0  0  0  0  0  0  0  0  0  0
    1.1100   10.6770   -3.5710 C   0  0  2  0  0  0  0  0  0  0  0  0
   -0.0760    9.7030   -3.7190 C   0  0  0  0  0  0  0  0  0  0  0  0
   -0.0890    8.5840   -2.6740 C   0  0  0  0  0  0  0  0  0  0  0  0
    0.0640    9.1230   -1.2840 C   0  0  2  0  0  0  0  0  0  0  0  0
   -0.3210    8.2140   -0.2440 O   0  0  0  0  0  0  0  0  0  0  0  0
   -1.1080    9.4100   -0.3640 C   0  0  0  0  0  0  0  0  0  0  0  0
   -2.5190    9.1690   -0.8000 C   0  0  0  0  0  0  0  0  0  0  0  0
   -0.9130   10.3760    0.7630 C   0  0  0  0  0  0  0  0  0  0  0  0
    0.6070   12.0470   -3.1310 C   0  0  1  0  0  0  0  0  0  0  0  0
   -0.8700   12.0170   -2.6580 C   0  0  0  0  0  0  0  0  0  0  0  0
   -0.9920   13.0470   -1.5050 C   0  0  0  0  0  0  0  0  0  0  0  0
    0.3190   13.8650   -1.5730 C   0  0  1  0  0  0  0  0  0  0  0  0
    0.0790   14.9140   -2.7040 C   0  0  0  0  0  0  0  0  0  0  0  0
    0.7790   14.5450   -0.2430 C   0  0  2  0  0  0  0  0  0  0  0  0
   -0.1900   15.6000    0.3200 C   0  0  0  0  0  0  0  0  0  0  0  0
    0.0480   16.9980   -0.1480 C   0  0  0  0  0  0  0  0  0  0  0  0
    1.1640   17.4400   -0.7570 C   0  0  0  0  0  0  0  0  0  0  0  0
    2.3770   16.5190   -0.9430 C   0  0  1  0  0  0  0  0  0  0  0  0
    3.6680   17.2740   -0.5280 C   0  0  0  0  0  0  0  0  0  0  0  0
    3.8280   18.6040   -1.2580 C   0  0  0  0  0  0  0  0  0  0  0  0
    2.6290   19.5140   -1.0010 C   0  0  2  0  0  0  0  0  0  0  0  0
    2.6210   19.8880    0.3800 O   0  0  0  0  0  0  0  0  0  0  0  0
    1.2710   18.8570   -1.3730 C   0  0  0  0  0  0  0  0  0  0  0  0
    1.1580   18.7270   -2.9120 C   0  0  0  0  0  0  0  0  0  0  0  0
    0.1370   19.8230   -0.9350 C   0  0  0  0  0  0  0  0  0  0  0  0
    2.2670   15.0830   -0.2710 C   0  0  1  0  0  0  0  0  0  0  0  0
    2.7440   15.1520    1.2130 C   0  0  0  0  0  0  0  0  0  0  0  0
    3.2470   14.0950   -1.0070 C   0  0  0  0  0  0  0  0  0  0  0  0
    2.6950   13.3630   -2.2450 C   0  0  0  0  0  0  0  0  0  0  0  0
    1.3360   12.7240   -1.9430 C   0  0  2  0  0  0  0  0  0  0  0  0
    1.5500   11.6480   -0.8250 C   0  0  0  0  0  0  0  0  0  0  0  0
    2.9743   10.9781   -4.6250 H   0  0  0  0  0  0  0  0  0  0  0  0
    1.8177    9.8815   -5.4535 H   0  0  0  0  0  0  0  0  0  0  0  0
    1.5313   11.6548   -5.4535 H   0  0  0  0  0  0  0  0  0  0  0  0
    1.7824   10.2643   -2.8045 H   0  0  0  0  0  0  0  0  0  0  0  0
   -1.0099   10.2765   -3.6250 H   0  0  0  0  0  0  0  0  0  0  0  0
    0.0246    9.2220   -4.7031 H   0  0  0  0  0  0  0  0  0  0  0  0
   -1.0439    8.0423   -2.7434 H   0  0  0  0  0  0  0  0  0  0  0  0
    0.7594    7.9142   -2.8778 H   0  0  0  0  0  0  0  0  0  0  0  0
    0.9281    9.7312   -1.5895 H   0  0  0  0  0  0  0  0  0  0  0  0
   -3.1626    9.0591    0.0853 H   0  0  0  0  0  0  0  0  0  0  0  0
   -2.8670   10.0207   -1.4029 H   0  0  0  0  0  0  0  0  0  0  0  0
   -2.5646    8.2501   -1.4029 H   0  0  0  0  0  0  0  0  0  0  0  0
   -1.0197    9.8473    1.7217 H   0  0  0  0  0  0  0  0  0  0  0  0
    0.0924   10.8175    0.6977 H   0  0  0  0  0  0  0  0  0  0  0  0
   -1.6684   11.1729    0.6977 H   0  0  0  0  0  0  0  0  0  0  0  0
    0.7862   12.6153   -4.0556 H   0  0  0  0  0  0  0  0  0  0  0  0
   -1.5386   12.2946   -3.4862 H   0  0  0  0  0  0  0  0  0  0  0  0
   -1.1559   11.0101   -2.3198 H   0  0  0  0  0  0  0  0  0  0  0  0
   -1.8649   13.6988   -1.6572 H   0  0  0  0  0  0  0  0  0  0  0  0
   -1.1322   12.5638   -0.5268 H   0  0  0  0  0  0  0  0  0  0  0  0
   -0.1449   15.8928   -2.2548 H   0  0  0  0  0  0  0  0  0  0  0  0
    0.9819   14.9945   -3.3271 H   0  0  0  0  0  0  0  0  0  0  0  0
   -0.7691   14.5939   -3.3271 H   0  0  0  0  0  0  0  0  0  0  0  0
    0.7558   13.7078    0.4701 H   0  0  0  0  0  0  0  0  0  0  0  0
   -1.2113   15.3133    0.0290 H   0  0  0  0  0  0  0  0  0  0  0  0
   -0.0291   15.6115    1.4081 H   0  0  0  0  0  0  0  0  0  0  0  0
   -0.7571   17.7286    0.0192 H   0  0  0  0  0  0  0  0  0  0  0  0
    2.4140   16.2770   -2.0154 H   0  0  0  0  0  0  0  0  0  0  0  0
    3.6307   17.4679    0.5541 H   0  0  0  0  0  0  0  0  0  0  0  0
    4.5263   16.6404   -0.7963 H   0  0  0  0  0  0  0  0  0  0  0  0
    4.7415   19.1027   -0.9020 H   0  0  0  0  0  0  0  0  0  0  0  0
    3.8943   18.4065   -2.3381 H   0  0  0  0  0  0  0  0  0  0  0  0
    2.7389   20.3955   -1.6498 H   0  0  0  0  0  0  0  0  0  0  0  0
    2.0180   20.6440    0.4760 H   0  0  0  0  0  0  0  0  0  0  0  0
    0.4551   17.9183   -3.1610 H   0  0  0  0  0  0  0  0  0  0  0  0
    0.7915   19.6744   -3.3341 H   0  0  0  0  0  0  0  0  0  0  0  0
    2.1472   18.4959   -3.3341 H   0  0  0  0  0  0  0  0  0  0  0  0
    0.0919   19.8614    0.1634 H   0  0  0  0  0  0  0  0  0  0  0  0
    0.3403   20.8297   -1.3291 H   0  0  0  0  0  0  0  0  0  0  0  0
   -0.8246   19.4623   -1.3291 H   0  0  0  0  0  0  0  0  0  0  0  0
    1.8799   15.0270    1.8821 H   0  0  0  0  0  0  0  0  0  0  0  0
    3.4728   14.3499    1.4016 H   0  0  0  0  0  0  0  0  0  0  0  0
    3.2156   16.1277    1.4016 H   0  0  0  0  0  0  0  0  0  0  0  0
    4.1254   14.6746   -1.3272 H   0  0  0  0  0  0  0  0  0  0  0  0
    3.4598   13.3021   -0.2749 H   0  0  0  0  0  0  0  0  0  0  0  0
    2.5788   14.0842   -3.0675 H   0  0  0  0  0  0  0  0  0  0  0  0
    3.4015   12.5684   -2.5268 H   0  0  0  0  0  0  0  0  0  0  0  0
    1.4557   12.1221    0.1631 H   0  0  0  0  0  0  0  0  0  0  0  0
    0.7914   10.8579   -0.9265 H   0  0  0  0  0  0  0  0  0  0  0  0
    2.5532   11.2083   -0.9265 H   0  0  0  0  0  0  0  0  0  0  0  0
  1  2  1  0
  2  3  1  0
  3  4  1  0
  4  5  1  0
  5  6  1  0
  6  7  1  0
  7  8  1  0
  7  9  1  0
  2 10  1  0
 10 11  1  0
 11 12  1  0
 12 13  1  0
 13 14  1  6
 13 15  1  0
 15 16  1  0
 16 17  1  0
 17 18  2  0
 18 19  1  0
 19 20  1  0
 20 21  1  0
 21 22  1  0
 22 23  1  0
 22 24  1  0
 24 25  1  0
 24 26  1  0
 19 27  1  0
 27 28  1  1
 27 29  1  0
 29 30  1  0
 30 31  1  0
 31 32  1  1
  7  5  1  0
 31 10  1  0
 31 13  1  0
 27 15  1  0
 24 18  1  0
  1 33  1  0
  1 34  1  0
  1 35  1  0
  2 36  1  1
  3 37  1  0
  3 38  1  0
  4 39  1  0
  4 40  1  0
  5 41  1  1
  8 42  1  0
  8 43  1  0
  8 44  1  0
  9 45  1  0
  9 46  1  0
  9 47  1  0
 10 48  1  6
 11 49  1  0
 11 50  1  0
 12 51  1  0
 12 52  1  0
 14 53  1  0
 14 54  1  0
 14 55  1  0
 15 56  1  1
 16 57  1  0
 16 58  1  0
 17 59  1  0
 19 60  1  6
 20 61  1  0
 20 62  1  0
 21 63  1  0
 21 64  1  0
 22 65  1  6
 23 66  1  0
 25 67  1  0
 25 68  1  0
 25 69  1  0
 26 70  1  0
 26 71  1  0
 26 72  1  0
 28 73  1  0
 28 74  1  0
 28 75  1  0
 29 76  1  0
 29 77  1  0
 30 78  1  0
 30 79  1  0
 32 80  1  0
 32 81  1  0
 32 82  1  0
M  END
>  <meeko>  (14) 
{"is_sidechain": [false], "intermolecular_energy": 2.731, "internal_energy": -0.839}

$$$$
EPH_relaxed_0001_pdb2pqr_Repair_365_r2_0001_out
     RDKit          3D

 82 86  0  0  0  0  0  0  0  0999 V2000
    0.9100   14.8990   -2.6780 C   0  0  0  0  0  0  0  0  0  0  0  0
    1.1630   14.2110   -4.0220 C   0  0  2  0  0  0  0  0  0  0  0  0
    0.4550   14.9320   -5.1860 C   0  0  0  0  0  0  0  0  0  0  0  0
    1.0280   14.5870   -6.5640 C   0  0  0  0  0  0  0  0  0  0  0  0
    0.8090   15.6960   -7.5490 C   0  0  2  0  0  0  0  0  0  0  0  0
    0.3990   15.2650   -8.8530 O   0  0  0  0  0  0  0  0  0  0  0  0
    1.6800   15.9120   -8.7720 C   0  0  0  0  0  0  0  0  0  0  0  0
    2.8360   15.0120   -9.0760 C   0  0  0  0  0  0  0  0  0  0  0  0
    1.7090   17.2710   -9.3990 C   0  0  0  0  0  0  0  0  0  0  0  0
    0.7070   12.7580   -3.9560 C   0  0  1  0  0  0  0  0  0  0  0  0
    1.8290   11.7610   -4.3520 C   0  0  0  0  0  0  0  0  0  0  0  0
    1.6390   10.5000   -3.4710 C   0  0  0  0  0  0  0  0  0  0  0  0
    0.2360   10.6710   -2.8420 C   0  0  1  0  0  0  0  0  0  0  0  0
   -0.7590   10.2020   -3.9500 C   0  0  0  0  0  0  0  0  0  0  0  0
   -0.0120    9.9260   -1.4910 C   0  0  2  0  0  0  0  0  0  0  0  0
    0.0860    8.3920   -1.5640 C   0  0  0  0  0  0  0  0  0  0  0  0
   -1.1950    7.6860   -1.8640 C   0  0  0  0  0  0  0  0  0  0  0  0
   -2.4240    8.2280   -1.7870 C   0  0  0  0  0  0  0  0  0  0  0  0
   -2.6230    9.6580   -1.2680 C   0  0  1  0  0  0  0  0  0  0  0  0
   -3.7870    9.6790   -0.2430 C   0  0  0  0  0  0  0  0  0  0  0  0
   -5.0720    9.0780   -0.8030 C   0  0  0  0  0  0  0  0  0  0  0  0
   -4.8480    7.6370   -1.2550 C   0  0  2  0  0  0  0  0  0  0  0  0
   -4.5750    6.8310   -0.1040 O   0  0  0  0  0  0  0  0  0  0  0  0
   -3.6920    7.4900   -2.2830 C   0  0  0  0  0  0  0  0  0  0  0  0
   -4.1170    8.1100   -3.6370 C   0  0  0  0  0  0  0  0  0  0  0  0
   -3.4780    5.9750   -2.5470 C   0  0  0  0  0  0  0  0  0  0  0  0
   -1.3190   10.3860   -0.7260 C   0  0  1  0  0  0  0  0  0  0  0  0
   -1.1010   10.0390    0.7780 C   0  0  0  0  0  0  0  0  0  0  0  0
   -1.5340   11.9450   -0.7950 C   0  0  0  0  0  0  0  0  0  0  0  0
   -1.1590   12.6400   -2.1170 C   0  0  0  0  0  0  0  0  0  0  0  0
    0.2400   12.2210   -2.5790 C   0  0  2  0  0  0  0  0  0  0  0  0
    1.2650   12.7000   -1.4960 C   0  0  0  0  0  0  0  0  0  0  0  0
    1.1636   14.2093   -1.8595 H   0  0  0  0  0  0  0  0  0  0  0  0
    1.5352   15.8010   -2.6044 H   0  0  0  0  0  0  0  0  0  0  0  0
   -0.1507   15.1811   -2.6044 H   0  0  0  0  0  0  0  0  0  0  0  0
    2.2448   14.2532   -4.2165 H   0  0  0  0  0  0  0  0  0  0  0  0
   -0.6087   14.6520   -5.1722 H   0  0  0  0  0  0  0  0  0  0  0  0
    0.6071   16.0110   -5.0357 H   0  0  0  0  0  0  0  0  0  0  0  0
    2.1085   14.4058   -6.4656 H   0  0  0  0  0  0  0  0  0  0  0  0
    0.5103   13.6906   -6.9361 H   0  0  0  0  0  0  0  0  0  0  0  0
    0.4807   16.3749   -6.7482 H   0  0  0  0  0  0  0  0  0  0  0  0
    3.2855   14.6620   -8.1350 H   0  0  0  0  0  0  0  0  0  0  0  0
    2.4844   14.1475   -9.6582 H   0  0  0  0  0  0  0  0  0  0  0  0
    3.5879   15.5649   -9.6582 H   0  0  0  0  0  0  0  0  0  0  0  0
    1.7254   18.0382   -8.6108 H   0  0  0  0  0  0  0  0  0  0  0  0
    2.6094   17.3676  -10.0234 H   0  0  0  0  0  0  0  0  0  0  0  0
    0.8135   17.4059  -10.0234 H   0  0  0  0  0  0  0  0  0  0  0  0
   -0.1435   12.7999   -4.6523 H   0  0  0  0  0  0  0  0  0  0  0  0
    1.7420   11.4961   -5.4161 H   0  0  0  0  0  0  0  0  0  0  0  0
    2.8237   12.2044   -4.1972 H   0  0  0  0  0  0  0  0  0  0  0  0
    1.6810    9.5879   -4.0844 H   0  0  0  0  0  0  0  0  0  0  0  0
    2.4276   10.3997   -2.7107 H   0  0  0  0  0  0  0  0  0  0  0  0
   -1.6584    9.7781   -3.4795 H   0  0  0  0  0  0  0  0  0  0  0  0
   -1.0427   11.0612   -4.5755 H   0  0  0  0  0  0  0  0  0  0  0  0
   -0.2769    9.4363   -4.5755 H   0  0  0  0  0  0  0  0  0  0  0  0
    0.8445   10.2517   -0.8825 H   0  0  0  0  0  0  0  0  0  0  0  0
    0.8090    8.1344   -2.3520 H   0  0  0  0  0  0  0  0  0  0  0  0
    0.3907    8.0579   -0.5613 H   0  0  0  0  0  0  0  0  0  0  0  0
   -1.1282    6.6328   -2.1745 H   0  0  0  0  0  0  0  0  0  0  0  0
   -2.8875   10.2665   -2.1454 H   0  0  0  0  0  0  0  0  0  0  0  0
   -3.4858    9.1026    0.6441 H   0  0  0  0  0  0  0  0  0  0  0  0
   -3.9921   10.7304    0.0070 H   0  0  0  0  0  0  0  0  0  0  0  0
   -5.8471    9.0943   -0.0226 H   0  0  0  0  0  0  0  0  0  0  0  0
   -5.3889    9.6735   -1.6719 H   0  0  0  0  0  0  0  0  0  0  0  0
   -5.7641    7.3043   -1.7650 H   0  0  0  0  0  0  0  0  0  0  0  0
   -5.3450    6.2550    0.0410 H   0  0  0  0  0  0  0  0  0  0  0  0
   -4.7303    9.0047   -3.4542 H   0  0  0  0  0  0  0  0  0  0  0  0
   -3.2205    8.3907   -4.2093 H   0  0  0  0  0  0  0  0  0  0  0  0
   -4.7021    7.3750   -4.2093 H   0  0  0  0  0  0  0  0  0  0  0  0
   -3.4028    5.4426   -1.5874 H   0  0  0  0  0  0  0  0  0  0  0  0
   -4.3291    5.5789   -3.1203 H   0  0  0  0  0  0  0  0  0  0  0  0
   -2.5505    5.8301   -3.1203 H   0  0  0  0  0  0  0  0  0  0  0  0
   -1.5820   10.8047    1.4044 H   0  0  0  0  0  0  0  0  0  0  0  0
   -1.5441    9.0559    0.9955 H   0  0  0  0  0  0  0  0  0  0  0  0
   -0.0231   10.0115    0.9955 H   0  0  0  0  0  0  0  0  0  0  0  0
   -2.5994   12.1426   -0.6057 H   0  0  0  0  0  0  0  0  0  0  0  0
   -0.8470   12.3637   -0.0449 H   0  0  0  0  0  0  0  0  0  0  0  0
   -1.8912   12.3627   -2.8896 H   0  0  0  0  0  0  0  0  0  0  0  0
   -1.1637   13.7280   -1.9549 H   0  0  0  0  0  0  0  0  0  0  0  0
    0.8553   12.5085   -0.4933 H   0  0  0  0  0  0  0  0  0  0  0  0
    2.2101   12.1503   -1.6170 H   0  0  0  0  0  0  0  0  0  0  0  0
    1.4496   13.7776   -1.6170 H   0  0  0  0  0  0  0  0  0  0  0  0
  1  2  1  0
  2  3  1  0
  3  4  1  0
  4  5  1  0
  5  6  1  0
  6  7  1  0
  7  8  1  0
  7  9  1  0
  2 10  1  0
 10 11  1  0
 11 12  1  0
 12 13  1  0
 13 14  1  6
 13 15  1  0
 15 16  1  0
 16 17  1  0
 17 18  2  0
 18 19  1  0
 19 20  1  0
 20 21  1  0
 21 22  1  0
 22 23  1  0
 22 24  1  0
 24 25  1  0
 24 26  1  0
 19 27  1  0
 27 28  1  1
 27 29  1  0
 29 30  1  0
 30 31  1  0
 31 32  1  1
  7  5  1  0
 31 10  1  0
 31 13  1  0
 27 15  1  0
 24 18  1  0
  1 33  1  0
  1 34  1  0
  1 35  1  0
  2 36  1  6
  3 37  1  0
  3 38  1  0
  4 39  1  0
  4 40  1  0
  5 41  1  1
  8 42  1  0
  8 43  1  0
  8 44  1  0
  9 45  1  0
  9 46  1  0
  9 47  1  0
 10 48  1  6
 11 49  1  0
 11 50  1  0
 12 51  1  0
 12 52  1  0
 14 53  1  0
 14 54  1  0
 14 55  1  0
 15 56  1  1
 16 57  1  0
 16 58  1  0
 17 59  1  0
 19 60  1  6
 20 61  1  0
 20 62  1  0
 21 63  1  0
 21 64  1  0
 22 65  1  6
 23 66  1  0
 25 67  1  0
 25 68  1  0
 25 69  1  0
 26 70  1  0
 26 71  1  0
 26 72  1  0
 28 73  1  0
 28 74  1  0
 28 75  1  0
 29 76  1  0
 29 77  1  0
 30 78  1  0
 30 79  1  0
 32 80  1  0
 32 81  1  0
 32 82  1  0
M  END
>  <meeko>  (15) 
{"is_sidechain": [false], "intermolecular_energy": 2.731, "internal_energy": -0.839}

$$$$
EPH_relaxed_0001_pdb2pqr_Repair_365_r2_0001_out
     RDKit          3D

 82 86  0  0  0  0  0  0  0  0999 V2000
   -1.7520   14.7990    0.4500 C   0  0  0  0  0  0  0  0  0  0  0  0
   -0.4060   15.5050    0.2600 C   0  0  2  0  0  0  0  0  0  0  0  0
   -0.4470   16.5330   -0.8880 C   0  0  0  0  0  0  0  0  0  0  0  0
   -0.0490   17.9480   -0.4610 C   0  0  0  0  0  0  0  0  0  0  0  0
    1.3830   18.0140   -0.0250 C   0  0  2  0  0  0  0  0  0  0  0  0
    2.0540   19.2370   -0.3580 O   0  0  0  0  0  0  0  0  0  0  0  0
    2.5510   18.0480   -0.9930 C   0  0  0  0  0  0  0  0  0  0  0  0
    2.3380   18.0150   -2.4740 C   0  0  0  0  0  0  0  0  0  0  0  0
    3.8990   17.6210   -0.5030 C   0  0  0  0  0  0  0  0  0  0  0  0
    0.6880   14.4760   -0.0010 C   0  0  1  0  0  0  0  0  0  0  0  0
    0.8190   13.4390    1.1470 C   0  0  0  0  0  0  0  0  0  0  0  0
    1.2000   12.0890    0.4880 C   0  0  0  0  0  0  0  0  0  0  0  0
    1.5990   12.4590   -0.9600 C   0  0  1  0  0  0  0  0  0  0  0  0
    3.0710   12.9670   -0.8530 C   0  0  0  0  0  0  0  0  0  0  0  0
    1.4540   11.3270   -2.0280 C   0  0  2  0  0  0  0  0  0  0  0  0
    2.3410   10.0910   -1.7930 C   0  0  0  0  0  0  0  0  0  0  0  0
    3.6870   10.1410   -2.4360 C   0  0  0  0  0  0  0  0  0  0  0  0
    4.0610   11.0000   -3.4020 C   0  0  0  0  0  0  0  0  0  0  0  0
    3.0550   11.9830   -4.0140 C   0  0  1  0  0  0  0  0  0  0  0  0
    3.1840   11.9610   -5.5600 C   0  0  0  0  0  0  0  0  0  0  0  0
    4.6120   12.2170   -6.0330 C   0  0  0  0  0  0  0  0  0  0  0  0
    5.5720   11.1840   -5.4490 C   0  0  2  0  0  0  0  0  0  0  0  0
    5.2620    9.9010   -6.0030 O   0  0  0  0  0  0  0  0  0  0  0  0
    5.5240   11.1090   -3.8980 C   0  0  0  0  0  0  0  0  0  0  0  0
    6.1460   12.3930   -3.2950 C   0  0  0  0  0  0  0  0  0  0  0  0
    6.4340    9.9340   -3.4480 C   0  0  0  0  0  0  0  0  0  0  0  0
    1.5510   11.8310   -3.5250 C   0  0  1  0  0  0  0  0  0  0  0  0
    0.8110   10.7740   -4.4000 C   0  0  0  0  0  0  0  0  0  0  0  0
    0.7980   13.1960   -3.7460 C   0  0  0  0  0  0  0  0  0  0  0  0
    0.8790   14.2270   -2.6040 C   0  0  0  0  0  0  0  0  0  0  0  0
    0.5390   13.5820   -1.2570 C   0  0  2  0  0  0  0  0  0  0  0  0
   -0.9440   13.0820   -1.3270 C   0  0  0  0  0  0  0  0  0  0  0  0
   -1.9603   14.6898    1.5246 H   0  0  0  0  0  0  0  0  0  0  0  0
   -2.5484   15.3955   -0.0191 H   0  0  0  0  0  0  0  0  0  0  0  0
   -1.7140   13.8047   -0.0191 H   0  0  0  0  0  0  0  0  0  0  0  0
   -0.1862   16.0543    1.1873 H   0  0  0  0  0  0  0  0  0  0  0  0
    0.2443   16.2008   -1.6766 H   0  0  0  0  0  0  0  0  0  0  0  0
   -1.4888   16.5836   -1.2373 H   0  0  0  0  0  0  0  0  0  0  0  0
   -0.1945   18.6309   -1.3110 H   0  0  0  0  0  0  0  0  0  0  0  0
   -0.6804   18.2389    0.3915 H   0  0  0  0  0  0  0  0  0  0  0  0
    1.1699   17.3859    0.8525 H   0  0  0  0  0  0  0  0  0  0  0  0
    1.2716   17.8498   -2.6875 H   0  0  0  0  0  0  0  0  0  0  0  0
    2.6554   18.9730   -2.9115 H   0  0  0  0  0  0  0  0  0  0  0  0
    2.9304   17.1979   -2.9115 H   0  0  0  0  0  0  0  0  0  0  0  0
    3.9056   17.6189    0.5970 H   0  0  0  0  0  0  0  0  0  0  0  0
    4.1199   16.6089   -0.8729 H   0  0  0  0  0  0  0  0  0  0  0  0
    4.6624   18.3213   -0.8729 H   0  0  0  0  0  0  0  0  0  0  0  0
    1.5497   15.1495   -0.1188 H   0  0  0  0  0  0  0  0  0  0  0  0
    1.6036   13.7513    1.8520 H   0  0  0  0  0  0  0  0  0  0  0  0
   -0.1218   13.3522    1.7103 H   0  0  0  0  0  0  0  0  0  0  0  0
    2.0451   11.6239    1.0166 H   0  0  0  0  0  0  0  0  0  0  0  0
    0.3749   11.3622    0.5200 H   0  0  0  0  0  0  0  0  0  0  0  0
    3.3496   13.0631    0.2068 H   0  0  0  0  0  0  0  0  0  0  0  0
    3.7434   12.2489   -1.3452 H   0  0  0  0  0  0  0  0  0  0  0  0
    3.1574   13.9469   -1.3452 H   0  0  0  0  0  0  0  0  0  0  0  0
    0.4194   10.9873   -1.8722 H   0  0  0  0  0  0  0  0  0  0  0  0
    2.4863    9.9781   -0.7085 H   0  0  0  0  0  0  0  0  0  0  0  0
    1.8132    9.2448   -2.2571 H   0  0  0  0  0  0  0  0  0  0  0  0
    4.4369    9.4140   -2.0910 H   0  0  0  0  0  0  0  0  0  0  0  0
    3.3299   12.9767   -3.6306 H   0  0  0  0  0  0  0  0  0  0  0  0
    2.8629   10.9748   -5.9264 H   0  0  0  0  0  0  0  0  0  0  0  0
    2.5511   12.7675   -5.9588 H   0  0  0  0  0  0  0  0  0  0  0  0
    4.6438   12.1582   -7.1310 H   0  0  0  0  0  0  0  0  0  0  0  0
    4.9213   13.2164   -5.6930 H   0  0  0  0  0  0  0  0  0  0  0  0
    6.5927   11.4959   -5.7154 H   0  0  0  0  0  0  0  0  0  0  0  0
    5.3250    9.2480   -5.2850 H   0  0  0  0  0  0  0  0  0  0  0  0
    6.1172   12.3336   -2.1970 H   0  0  0  0  0  0  0  0  0  0  0  0
    7.1896   12.4871   -3.6299 H   0  0  0  0  0  0  0  0  0  0  0  0
    5.5730   13.2702   -3.6299 H   0  0  0  0  0  0  0  0  0  0  0  0
    6.4648    9.8942   -2.3492 H   0  0  0  0  0  0  0  0  0  0  0  0
    6.0308    8.9878   -3.8380 H   0  0  0  0  0  0  0  0  0  0  0  0
    7.4510   10.0877   -3.8380 H   0  0  0  0  0  0  0  0  0  0  0  0
    0.3031   10.0486   -3.7475 H   0  0  0  0  0  0  0  0  0  0  0  0
    0.0681   11.2789   -5.0350 H   0  0  0  0  0  0  0  0  0  0  0  0
    1.5396   10.2487   -5.0350 H   0  0  0  0  0  0  0  0  0  0  0  0
    1.2174   13.6651   -4.6482 H   0  0  0  0  0  0  0  0  0  0  0  0
   -0.2667   12.9290   -3.8177 H   0  0  0  0  0  0  0  0  0  0  0  0
    1.8994   14.6355   -2.5599 H   0  0  0  0  0  0  0  0  0  0  0  0
    0.1515   15.0278   -2.8026 H   0  0  0  0  0  0  0  0  0  0  0  0
   -1.3350   12.9502   -0.3073 H   0  0  0  0  0  0  0  0  0  0  0  0
   -1.5561   13.8234   -1.8614 H   0  0  0  0  0  0  0  0  0  0  0  0
   -0.9822   12.1213   -1.8614 H   0  0  0  0  0  0  0  0  0  0  0  0
  1  2  1  0
  2  3  1  0
  3  4  1  0
  4  5  1  0
  5  6  1  0
  6  7  1  0
  7  8  1  0
  7  9  1  0
  2 10  1  0
 10 11  1  0
 11 12  1  0
 12 13  1  0
 13 14  1  1
 13 15  1  0
 15 16  1  0
 16 17  1  0
 17 18  2  0
 18 19  1  0
 19 20  1  0
 20 21  1  0
 21 22  1  0
 22 23  1  0
 22 24  1  0
 24 25  1  0
 24 26  1  0
 19 27  1  0
 27 28  1  6
 27 29  1  0
 29 30  1  0
 30 31  1  0
 31 32  1  6
  7  5  1  0
 31 10  1  0
 31 13  1  0
 27 15  1  0
 24 18  1  0
  1 33  1  0
  1 34  1  0
  1 35  1  0
  2 36  1  1
  3 37  1  0
  3 38  1  0
  4 39  1  0
  4 40  1  0
  5 41  1  1
  8 42  1  0
  8 43  1  0
  8 44  1  0
  9 45  1  0
  9 46  1  0
  9 47  1  0
 10 48  1  6
 11 49  1  0
 11 50  1  0
 12 51  1  0
 12 52  1  0
 14 53  1  0
 14 54  1  0
 14 55  1  0
 15 56  1  6
 16 57  1  0
 16 58  1  0
 17 59  1  0
 19 60  1  1
 20 61  1  0
 20 62  1  0
 21 63  1  0
 21 64  1  0
 22 65  1  1
 23 66  1  0
 25 67  1  0
 25 68  1  0
 25 69  1  0
 26 70  1  0
 26 71  1  0
 26 72  1  0
 28 73  1  0
 28 74  1  0
 28 75  1  0
 29 76  1  0
 29 77  1  0
 30 78  1  0
 30 79  1  0
 32 80  1  0
 32 81  1  0
 32 82  1  0
M  END
>  <meeko>  (16) 
{"is_sidechain": [false], "intermolecular_energy": 2.731, "internal_energy": -0.839}

$$$$
EPH_relaxed_0001_pdb2pqr_Repair_365_r2_0001_out
     RDKit          3D

 82 86  0  0  0  0  0  0  0  0999 V2000
   -2.8520    7.5940   -0.4440 C   0  0  0  0  0  0  0  0  0  0  0  0
   -3.0660    9.0490   -0.0190 C   0  0  2  0  0  0  0  0  0  0  0  0
   -4.5590    9.4300    0.0190 C   0  0  0  0  0  0  0  0  0  0  0  0
   -5.5030    8.2290   -0.0870 C   0  0  0  0  0  0  0  0  0  0  0  0
   -5.8480    7.9190   -1.5130 C   0  0  2  0  0  0  0  0  0  0  0  0
   -7.0980    7.2410   -1.6920 O   0  0  0  0  0  0  0  0  0  0  0  0
   -5.9200    6.5090   -2.0680 C   0  0  0  0  0  0  0  0  0  0  0  0
   -5.6440    5.3160   -1.2070 C   0  0  0  0  0  0  0  0  0  0  0  0
   -5.7780    6.3140   -3.5450 C   0  0  0  0  0  0  0  0  0  0  0  0
   -2.3140    9.9820   -0.9610 C   0  0  1  0  0  0  0  0  0  0  0  0
   -2.9760   11.3810   -1.0700 C   0  0  0  0  0  0  0  0  0  0  0  0
   -1.8260   12.4090   -1.2360 C   0  0  0  0  0  0  0  0  0  0  0  0
   -0.5780   11.5500   -1.5480 C   0  0  1  0  0  0  0  0  0  0  0  0
   -0.6820   11.2310   -3.0720 C   0  0  0  0  0  0  0  0  0  0  0  0
    0.8040   12.1830   -1.1830 C   0  0  2  0  0  0  0  0  0  0  0  0
    1.1490   13.4780   -1.9380 C   0  0  0  0  0  0  0  0  0  0  0  0
    1.8900   13.2900   -3.2210 C   0  0  0  0  0  0  0  0  0  0  0  0
    2.5120   12.1600   -3.6060 C   0  0  0  0  0  0  0  0  0  0  0  0
    2.5920   10.9470   -2.6710 C   0  0  1  0  0  0  0  0  0  0  0  0
    4.0420   10.3950   -2.6620 C   0  0  0  0  0  0  0  0  0  0  0  0
    4.5590   10.0860   -4.0640 C   0  0  0  0  0  0  0  0  0  0  0  0
    4.5180   11.3310   -4.9470 C   0  0  2  0  0  0  0  0  0  0  0  0
    5.4600   12.2840   -4.4440 O   0  0  0  0  0  0  0  0  0  0  0  0
    3.1080   11.9810   -5.0240 C   0  0  0  0  0  0  0  0  0  0  0  0
    2.1590   11.0690   -5.8390 C   0  0  0  0  0  0  0  0  0  0  0  0
    3.2360   13.3030   -5.8280 C   0  0  0  0  0  0  0  0  0  0  0  0
    2.0120   11.1600   -1.2070 C   0  0  1  0  0  0  0  0  0  0  0  0
    3.1150   11.7520   -0.2780 C   0  0  0  0  0  0  0  0  0  0  0  0
    1.6230    9.7600   -0.5990 C   0  0  0  0  0  0  0  0  0  0  0  0
    0.2020    9.2440   -0.8960 C   0  0  0  0  0  0  0  0  0  0  0  0
   -0.8460   10.3230   -0.6020 C   0  0  2  0  0  0  0  0  0  0  0  0
   -0.7800   10.6480    0.9290 C   0  0  0  0  0  0  0  0  0  0  0  0
   -2.7588    6.9606    0.4505 H   0  0  0  0  0  0  0  0  0  0  0  0
   -3.7103    7.2572   -1.0440 H   0  0  0  0  0  0  0  0  0  0  0  0
   -1.9331    7.5186   -1.0440 H   0  0  0  0  0  0  0  0  0  0  0  0
   -2.6725    9.1559    1.0026 H   0  0  0  0  0  0  0  0  0  0  0  0
   -4.7613    9.9481    0.9680 H   0  0  0  0  0  0  0  0  0  0  0  0
   -4.7506   10.0681   -0.8563 H   0  0  0  0  0  0  0  0  0  0  0  0
   -5.0144    7.3509    0.3606 H   0  0  0  0  0  0  0  0  0  0  0  0
   -6.4335    8.4762    0.4450 H   0  0  0  0  0  0  0  0  0  0  0  0
   -5.3267    8.8230   -1.8609 H   0  0  0  0  0  0  0  0  0  0  0  0
   -5.7108    5.6049   -0.1477 H   0  0  0  0  0  0  0  0  0  0  0  0
   -6.3842    4.5308   -1.4203 H   0  0  0  0  0  0  0  0  0  0  0  0
   -4.6341    4.9356   -1.4203 H   0  0  0  0  0  0  0  0  0  0  0  0
   -5.1407    5.4388   -3.7397 H   0  0  0  0  0  0  0  0  0  0  0  0
   -6.7705    6.1512   -3.9905 H   0  0  0  0  0  0  0  0  0  0  0  0
   -5.3184    7.2086   -3.9905 H   0  0  0  0  0  0  0  0  0  0  0  0
   -2.3465    9.3803   -1.8813 H   0  0  0  0  0  0  0  0  0  0  0  0
   -3.6447   11.4166   -1.9427 H   0  0  0  0  0  0  0  0  0  0  0  0
   -3.5785   11.6034   -0.1769 H   0  0  0  0  0  0  0  0  0  0  0  0
   -2.0392   13.0999   -2.0650 H   0  0  0  0  0  0  0  0  0  0  0  0
   -1.6905   13.0322   -0.3397 H   0  0  0  0  0  0  0  0  0  0  0  0
   -1.0204   10.1931   -3.2071 H   0  0  0  0  0  0  0  0  0  0  0  0
   -1.4034   11.9159   -3.5416 H   0  0  0  0  0  0  0  0  0  0  0  0
    0.3044   11.3591   -3.5416 H   0  0  0  0  0  0  0  0  0  0  0  0
    0.6575   12.4798   -0.1340 H   0  0  0  0  0  0  0  0  0  0  0  0
    0.2080   14.0016   -2.1625 H   0  0  0  0  0  0  0  0  0  0  0  0
    1.8220   14.0451   -1.2780 H   0  0  0  0  0  0  0  0  0  0  0  0
    1.9309   14.1471   -3.9093 H   0  0  0  0  0  0  0  0  0  0  0  0
    1.9081   10.1946   -3.0906 H   0  0  0  0  0  0  0  0  0  0  0  0
    4.7017   11.1443   -2.2001 H   0  0  0  0  0  0  0  0  0  0  0  0
    4.0375    9.4538   -2.0927 H   0  0  0  0  0  0  0  0  0  0  0  0
    5.5968    9.7280   -3.9943 H   0  0  0  0  0  0  0  0  0  0  0  0
    3.9158    9.3152   -4.5136 H   0  0  0  0  0  0  0  0  0  0  0  0
    4.7760   11.0189   -5.9698 H   0  0  0  0  0  0  0  0  0  0  0  0
    5.0270   13.1540   -4.4430 H   0  0  0  0  0  0  0  0  0  0  0  0
    1.5406   10.4747   -5.1503 H   0  0  0  0  0  0  0  0  0  0  0  0
    1.5087   11.6897   -6.4729 H   0  0  0  0  0  0  0  0  0  0  0  0
    2.7534   10.3946   -6.4729 H   0  0  0  0  0  0  0  0  0  0  0  0
    3.3180   14.1498   -5.1307 H   0  0  0  0  0  0  0  0  0  0  0  0
    4.1343   13.2614   -6.4615 H   0  0  0  0  0  0  0  0  0  0  0  0
    2.3464   13.4345   -6.4615 H   0  0  0  0  0  0  0  0  0  0  0  0
    2.8299   11.5990    0.7733 H   0  0  0  0  0  0  0  0  0  0  0  0
    4.0715   11.2460   -0.4759 H   0  0  0  0  0  0  0  0  0  0  0  0
    3.2220   12.8288   -0.4759 H   0  0  0  0  0  0  0  0  0  0  0  0
    2.3349    9.0181   -0.9899 H   0  0  0  0  0  0  0  0  0  0  0  0
    1.6559    9.9007    0.4915 H   0  0  0  0  0  0  0  0  0  0  0  0
    0.1371    8.9587   -1.9564 H   0  0  0  0  0  0  0  0  0  0  0  0
    0.0021    8.3758   -0.2508 H   0  0  0  0  0  0  0  0  0  0  0  0
   -0.9663    9.7308    1.5069 H   0  0  0  0  0  0  0  0  0  0  0  0
    0.2165   11.0420    1.1776 H   0  0  0  0  0  0  0  0  0  0  0  0
   -1.5439   11.3995    1.1776 H   0  0  0  0  0  0  0  0  0  0  0  0
  1  2  1  0
  2  3  1  0
  3  4  1  0
  4  5  1  0
  5  6  1  0
  6  7  1  0
  7  8  1  0
  7  9  1  0
  2 10  1  0
 10 11  1  0
 11 12  1  0
 12 13  1  0
 13 14  1  6
 13 15  1  0
 15 16  1  0
 16 17  1  0
 17 18  2  0
 18 19  1  0
 19 20  1  0
 20 21  1  0
 21 22  1  0
 22 23  1  0
 22 24  1  0
 24 25  1  0
 24 26  1  0
 19 27  1  0
 27 28  1  1
 27 29  1  0
 29 30  1  0
 30 31  1  0
 31 32  1  1
  7  5  1  0
 31 10  1  0
 31 13  1  0
 27 15  1  0
 24 18  1  0
  1 33  1  0
  1 34  1  0
  1 35  1  0
  2 36  1  1
  3 37  1  0
  3 38  1  0
  4 39  1  0
  4 40  1  0
  5 41  1  6
  8 42  1  0
  8 43  1  0
  8 44  1  0
  9 45  1  0
  9 46  1  0
  9 47  1  0
 10 48  1  6
 11 49  1  0
 11 50  1  0
 12 51  1  0
 12 52  1  0
 14 53  1  0
 14 54  1  0
 14 55  1  0
 15 56  1  1
 16 57  1  0
 16 58  1  0
 17 59  1  0
 19 60  1  6
 20 61  1  0
 20 62  1  0
 21 63  1  0
 21 64  1  0
 22 65  1  6
 23 66  1  0
 25 67  1  0
 25 68  1  0
 25 69  1  0
 26 70  1  0
 26 71  1  0
 26 72  1  0
 28 73  1  0
 28 74  1  0
 28 75  1  0
 29 76  1  0
 29 77  1  0
 30 78  1  0
 30 79  1  0
 32 80  1  0
 32 81  1  0
 32 82  1  0
M  END
>  <meeko>  (17) 
{"is_sidechain": [false], "intermolecular_energy": 2.731, "internal_energy": -0.839}

$$$$
EPH_relaxed_0001_pdb2pqr_Repair_365_r2_0001_out
     RDKit          3D

 82 86  0  0  0  0  0  0  0  0999 V2000
    3.1210   14.8440   -7.5490 C   0  0  0  0  0  0  0  0  0  0  0  0
    1.5970   14.8810   -7.4050 C   0  0  2  0  0  0  0  0  0  0  0  0
    0.9800   16.1260   -8.0740 C   0  0  0  0  0  0  0  0  0  0  0  0
    1.9040   16.7970   -9.0950 C   0  0  0  0  0  0  0  0  0  0  0  0
    1.5660   16.3930  -10.4980 C   0  0  2  0  0  0  0  0  0  0  0  0
    0.9770   15.0910  -10.6200 O   0  0  0  0  0  0  0  0  0  0  0  0
    2.2650   15.2650  -11.2340 C   0  0  0  0  0  0  0  0  0  0  0  0
    3.3580   14.4710  -10.5900 C   0  0  0  0  0  0  0  0  0  0  0  0
    2.2250   15.2550  -12.7310 C   0  0  0  0  0  0  0  0  0  0  0  0
    1.2130   14.8390   -5.9300 C   0  0  1  0  0  0  0  0  0  0  0  0
   -0.0460   15.6900   -5.6160 C   0  0  0  0  0  0  0  0  0  0  0  0
   -0.8200   14.9460   -4.4970 C   0  0  0  0  0  0  0  0  0  0  0  0
    0.1730   13.8810   -3.9770 C   0  0  1  0  0  0  0  0  0  0  0  0
    1.1070   14.6520   -2.9920 C   0  0  0  0  0  0  0  0  0  0  0  0
   -0.4580   12.6180   -3.3060 C   0  0  2  0  0  0  0  0  0  0  0  0
   -1.2760   12.8950   -2.0320 C   0  0  0  0  0  0  0  0  0  0  0  0
   -0.5050   12.8430   -0.7550 C   0  0  0  0  0  0  0  0  0  0  0  0
    0.7210   12.3080   -0.6020 C   0  0  0  0  0  0  0  0  0  0  0  0
    1.4180   11.5920   -1.7660 C   0  0  1  0  0  0  0  0  0  0  0  0
    2.0120   10.2490   -1.2660 C   0  0  0  0  0  0  0  0  0  0  0  0
    2.9270   10.4270   -0.0580 C   0  0  0  0  0  0  0  0  0  0  0  0
    2.1820   11.0900    1.0980 C   0  0  2  0  0  0  0  0  0  0  0  0
    1.1730   10.1920    1.5710 O   0  0  0  0  0  0  0  0  0  0  0  0
    1.5320   12.4480    0.7100 C   0  0  0  0  0  0  0  0  0  0  0  0
    2.6370   13.5090    0.4870 C   0  0  0  0  0  0  0  0  0  0  0  0
    0.6950   12.9400    1.9210 C   0  0  0  0  0  0  0  0  0  0  0  0
    0.5580   11.4230   -3.0910 C   0  0  1  0  0  0  0  0  0  0  0  0
   -0.2980   10.1220   -3.0080 C   0  0  0  0  0  0  0  0  0  0  0  0
    1.5300   11.2370   -4.3160 C   0  0  0  0  0  0  0  0  0  0  0  0
    2.0240   12.5200   -5.0110 C   0  0  0  0  0  0  0  0  0  0  0  0
    0.8540   13.4570   -5.3290 C   0  0  2  0  0  0  0  0  0  0  0  0
   -0.0910   12.7170   -6.3350 C   0  0  0  0  0  0  0  0  0  0  0  0
    3.5834   14.8328   -6.5510 H   0  0  0  0  0  0  0  0  0  0  0  0
    3.4154   13.9384   -8.0997 H   0  0  0  0  0  0  0  0  0  0  0  0
    3.4590   15.7342   -8.0997 H   0  0  0  0  0  0  0  0  0  0  0  0
    1.1949   13.9960   -7.9198 H   0  0  0  0  0  0  0  0  0  0  0  0
    0.0563   15.8222   -8.5883 H   0  0  0  0  0  0  0  0  0  0  0  0
    0.7938   16.8607   -7.2768 H   0  0  0  0  0  0  0  0  0  0  0  0
    1.8027   17.8886   -9.0041 H   0  0  0  0  0  0  0  0  0  0  0  0
    2.9357   16.4780   -8.8854 H   0  0  0  0  0  0  0  0  0  0  0  0
    1.3578   17.4371  -10.7747 H   0  0  0  0  0  0  0  0  0  0  0  0
    3.2647   14.5388   -9.4961 H   0  0  0  0  0  0  0  0  0  0  0  0
    3.2784   13.4187  -10.9003 H   0  0  0  0  0  0  0  0  0  0  0  0
    4.3342   14.8720  -10.9003 H   0  0  0  0  0  0  0  0  0  0  0  0
    1.2095   15.0011  -13.0690 H   0  0  0  0  0  0  0  0  0  0  0  0
    2.5002   16.2496  -13.1118 H   0  0  0  0  0  0  0  0  0  0  0  0
    2.9359   14.5069  -13.1118 H   0  0  0  0  0  0  0  0  0  0  0  0
    2.1471   15.2122   -5.4848 H   0  0  0  0  0  0  0  0  0  0  0  0
    0.2500   16.6915   -5.2705 H   0  0  0  0  0  0  0  0  0  0  0  0
   -0.6712   15.8166   -6.5122 H   0  0  0  0  0  0  0  0  0  0  0  0
   -1.1013   15.6406   -3.6917 H   0  0  0  0  0  0  0  0  0  0  0  0
   -1.7561   14.4995   -4.8635 H   0  0  0  0  0  0  0  0  0  0  0  0
    0.8217   14.4165   -1.9561 H   0  0  0  0  0  0  0  0  0  0  0  0
    2.1505   14.3487   -3.1629 H   0  0  0  0  0  0  0  0  0  0  0  0
    1.0069   15.7340   -3.1629 H   0  0  0  0  0  0  0  0  0  0  0  0
   -1.1854   12.2880   -4.0623 H   0  0  0  0  0  0  0  0  0  0  0  0
   -1.7163   13.8990   -2.1225 H   0  0  0  0  0  0  0  0  0  0  0  0
   -2.0231   12.0901   -1.9692 H   0  0  0  0  0  0  0  0  0  0  0  0
   -0.9787   13.2788    0.1370 H   0  0  0  0  0  0  0  0  0  0  0  0
    2.2283   12.2603   -2.0927 H   0  0  0  0  0  0  0  0  0  0  0  0
    1.1848    9.5801   -0.9861 H   0  0  0  0  0  0  0  0  0  0  0  0
    2.6159    9.8267   -2.0827 H   0  0  0  0  0  0  0  0  0  0  0  0
    3.2907    9.4409    0.2665 H   0  0  0  0  0  0  0  0  0  0  0  0
    3.7699   11.0715   -0.3480 H   0  0  0  0  0  0  0  0  0  0  0  0
    2.9200   11.3088    1.8838 H   0  0  0  0  0  0  0  0  0  0  0  0
    0.3610   10.3680    1.0660 H   0  0  0  0  0  0  0  0  0  0  0  0
    3.0065   13.8638    1.4605 H   0  0  0  0  0  0  0  0  0  0  0  0
    3.4669   13.0607   -0.0790 H   0  0  0  0  0  0  0  0  0  0  0  0
    2.2228   14.3564   -0.0790 H   0  0  0  0  0  0  0  0  0  0  0  0
    1.1948   12.6462    2.8558 H   0  0  0  0  0  0  0  0  0  0  0  0
    0.6036   14.0355    1.8827 H   0  0  0  0  0  0  0  0  0  0  0  0
   -0.3066   12.4870    1.8827 H   0  0  0  0  0  0  0  0  0  0  0  0
   -0.4689    9.8622   -1.9529 H   0  0  0  0  0  0  0  0  0  0  0  0
   -1.2647   10.2867   -3.5063 H   0  0  0  0  0  0  0  0  0  0  0  0
    0.2359    9.2994   -3.5063 H   0  0  0  0  0  0  0  0  0  0  0  0
    2.4150   10.6901   -3.9587 H   0  0  0  0  0  0  0  0  0  0  0  0
    0.9372   10.7075   -5.0764 H   0  0  0  0  0  0  0  0  0  0  0  0
    2.7308   13.0394   -4.3472 H   0  0  0  0  0  0  0  0  0  0  0  0
    2.5159   12.2406   -5.9544 H   0  0  0  0  0  0  0  0  0  0  0  0
   -0.8368   12.1330   -5.7757 H   0  0  0  0  0  0  0  0  0  0  0  0
   -0.6037   13.4562   -6.9679 H   0  0  0  0  0  0  0  0  0  0  0  0
    0.5037   12.0420   -6.9679 H   0  0  0  0  0  0  0  0  0  0  0  0
  1  2  1  0
  2  3  1  0
  3  4  1  0
  4  5  1  0
  5  6  1  0
  6  7  1  0
  7  8  1  0
  7  9  1  0
  2 10  1  0
 10 11  1  0
 11 12  1  0
 12 13  1  0
 13 14  1  1
 13 15  1  0
 15 16  1  0
 16 17  1  0
 17 18  2  0
 18 19  1  0
 19 20  1  0
 20 21  1  0
 21 22  1  0
 22 23  1  0
 22 24  1  0
 24 25  1  0
 24 26  1  0
 19 27  1  0
 27 28  1  1
 27 29  1  0
 29 30  1  0
 30 31  1  0
 31 32  1  6
  7  5  1  0
 31 10  1  0
 31 13  1  0
 27 15  1  0
 24 18  1  0
  1 33  1  0
  1 34  1  0
  1 35  1  0
  2 36  1  6
  3 37  1  0
  3 38  1  0
  4 39  1  0
  4 40  1  0
  5 41  1  6
  8 42  1  0
  8 43  1  0
  8 44  1  0
  9 45  1  0
  9 46  1  0
  9 47  1  0
 10 48  1  1
 11 49  1  0
 11 50  1  0
 12 51  1  0
 12 52  1  0
 14 53  1  0
 14 54  1  0
 14 55  1  0
 15 56  1  6
 16 57  1  0
 16 58  1  0
 17 59  1  0
 19 60  1  6
 20 61  1  0
 20 62  1  0
 21 63  1  0
 21 64  1  0
 22 65  1  1
 23 66  1  0
 25 67  1  0
 25 68  1  0
 25 69  1  0
 26 70  1  0
 26 71  1  0
 26 72  1  0
 28 73  1  0
 28 74  1  0
 28 75  1  0
 29 76  1  0
 29 77  1  0
 30 78  1  0
 30 79  1  0
 32 80  1  0
 32 81  1  0
 32 82  1  0
M  END
>  <meeko>  (18) 
{"is_sidechain": [false], "intermolecular_energy": 2.731, "internal_energy": -0.839}

$$$$
EPH_relaxed_0001_pdb2pqr_Repair_365_r2_0001_out
     RDKit          3D

 82 86  0  0  0  0  0  0  0  0999 V2000
    0.9840    8.2020   -2.5810 C   0  0  0  0  0  0  0  0  0  0  0  0
   -0.4190    8.4700   -2.0280 C   0  0  2  0  0  0  0  0  0  0  0  0
   -1.5180    7.8270   -2.8970 C   0  0  0  0  0  0  0  0  0  0  0  0
   -2.8860    7.7670   -2.2120 C   0  0  0  0  0  0  0  0  0  0  0  0
   -3.7890    6.7650   -2.8660 C   0  0  2  0  0  0  0  0  0  0  0  0
   -4.8550    7.3330   -3.6380 O   0  0  0  0  0  0  0  0  0  0  0  0
   -5.2450    6.5750   -2.4820 C   0  0  0  0  0  0  0  0  0  0  0  0
   -5.8810    7.3940   -1.4030 C   0  0  0  0  0  0  0  0  0  0  0  0
   -5.9080    5.2730   -2.8100 C   0  0  0  0  0  0  0  0  0  0  0  0
   -0.6550    9.9720   -1.9170 C   0  0  1  0  0  0  0  0  0  0  0  0
   -2.1300   10.3220   -1.5840 C   0  0  0  0  0  0  0  0  0  0  0  0
   -2.0970   11.5770   -0.6740 C   0  0  0  0  0  0  0  0  0  0  0  0
   -0.6460   12.1010   -0.7840 C   0  0  1  0  0  0  0  0  0  0  0  0
   -0.6120   12.9120   -2.1170 C   0  0  0  0  0  0  0  0  0  0  0  0
   -0.1250   12.9500    0.4210 C   0  0  2  0  0  0  0  0  0  0  0  0
   -0.8870   14.2620    0.6730 C   0  0  0  0  0  0  0  0  0  0  0  0
   -0.3480   15.4590   -0.0400 C   0  0  0  0  0  0  0  0  0  0  0  0
    0.8630   15.5440   -0.6200 C   0  0  0  0  0  0  0  0  0  0  0  0
    1.8730   14.3940   -0.5080 C   0  0  1  0  0  0  0  0  0  0  0  0
    3.2670   14.9630   -0.1360 C   0  0  0  0  0  0  0  0  0  0  0  0
    3.7290   16.0540   -1.0970 C   0  0  0  0  0  0  0  0  0  0  0  0
    2.7290   17.2060   -1.1370 C   0  0  2  0  0  0  0  0  0  0  0  0
    2.7270   17.8600    0.1360 O   0  0  0  0  0  0  0  0  0  0  0  0
    1.2850   16.7520   -1.4920 C   0  0  0  0  0  0  0  0  0  0  0  0
    1.2260   16.3220   -2.9790 C   0  0  0  0  0  0  0  0  0  0  0  0
    0.3510   17.9840   -1.3600 C   0  0  0  0  0  0  0  0  0  0  0  0
    1.4400   13.1800    0.4230 C   0  0  1  0  0  0  0  0  0  0  0  0
    1.8460   13.4720    1.9000 C   0  0  0  0  0  0  0  0  0  0  0  0
    2.2360   11.8920   -0.0100 C   0  0  0  0  0  0  0  0  0  0  0  0
    1.6100   11.0300   -1.1230 C   0  0  0  0  0  0  0  0  0  0  0  0
    0.1360   10.7380   -0.8260 C   0  0  2  0  0  0  0  0  0  0  0  0
    0.0710    9.9030    0.4980 C   0  0  0  0  0  0  0  0  0  0  0  0
    1.6876    8.0676   -1.7462 H   0  0  0  0  0  0  0  0  0  0  0  0
    0.9675    7.2908   -3.1970 H   0  0  0  0  0  0  0  0  0  0  0  0
    1.3045    9.0552   -3.1970 H   0  0  0  0  0  0  0  0  0  0  0  0
   -0.4755    8.0097   -1.0306 H   0  0  0  0  0  0  0  0  0  0  0  0
   -1.6178    8.4143   -3.8217 H   0  0  0  0  0  0  0  0  0  0  0  0
   -1.2092    6.7892   -3.0910 H   0  0  0  0  0  0  0  0  0  0  0  0
   -2.7451    7.4856   -1.1580 H   0  0  0  0  0  0  0  0  0  0  0  0
   -3.3555    8.7582   -2.2955 H   0  0  0  0  0  0  0  0  0  0  0  0
   -2.9569    6.0547   -2.9800 H   0  0  0  0  0  0  0  0  0  0  0  0
   -5.5782    7.0041   -0.4200 H   0  0  0  0  0  0  0  0  0  0  0  0
   -5.5568    8.4408   -1.4979 H   0  0  0  0  0  0  0  0  0  0  0  0
   -6.9755    7.3391   -1.4979 H   0  0  0  0  0  0  0  0  0  0  0  0
   -6.1734    4.7518   -1.8784 H   0  0  0  0  0  0  0  0  0  0  0  0
   -6.8192    5.4630   -3.3963 H   0  0  0  0  0  0  0  0  0  0  0  0
   -5.2185    4.6479   -3.3963 H   0  0  0  0  0  0  0  0  0  0  0  0
   -0.3180   10.2858   -2.9160 H   0  0  0  0  0  0  0  0  0  0  0  0
   -2.6859   10.5386   -2.5081 H   0  0  0  0  0  0  0  0  0  0  0  0
   -2.6315    9.4822   -1.0808 H   0  0  0  0  0  0  0  0  0  0  0  0
   -2.8112   12.3339   -1.0304 H   0  0  0  0  0  0  0  0  0  0  0  0
   -2.3798   11.3471    0.3639 H   0  0  0  0  0  0  0  0  0  0  0  0
   -0.5669   13.9875   -1.8908 H   0  0  0  0  0  0  0  0  0  0  0  0
    0.2748   12.6224   -2.6999 H   0  0  0  0  0  0  0  0  0  0  0  0
   -1.5199   12.6977   -2.6999 H   0  0  0  0  0  0  0  0  0  0  0  0
   -0.3532   12.3033    1.2811 H   0  0  0  0  0  0  0  0  0  0  0  0
   -1.9294   14.1166    0.3534 H   0  0  0  0  0  0  0  0  0  0  0  0
   -0.7816   14.4741    1.7472 H   0  0  0  0  0  0  0  0  0  0  0  0
   -0.9961   16.3460   -0.0955 H   0  0  0  0  0  0  0  0  0  0  0  0
    1.9149   13.9275   -1.5033 H   0  0  0  0  0  0  0  0  0  0  0  0
    3.2163   15.3851    0.8785 H   0  0  0  0  0  0  0  0  0  0  0  0
    3.9913   14.1373   -0.1952 H   0  0  0  0  0  0  0  0  0  0  0  0
    4.7054   16.4364   -0.7647 H   0  0  0  0  0  0  0  0  0  0  0  0
    3.8076   15.6226   -2.1058 H   0  0  0  0  0  0  0  0  0  0  0  0
    3.0484   17.8915   -1.9358 H   0  0  0  0  0  0  0  0  0  0  0  0
    2.3730   18.7560    0.0070 H   0  0  0  0  0  0  0  0  0  0  0  0
    1.0767   15.2339   -3.0404 H   0  0  0  0  0  0  0  0  0  0  0  0
    0.3899   16.8355   -3.4763 H   0  0  0  0  0  0  0  0  0  0  0  0
    2.1695   16.5913   -3.4763 H   0  0  0  0  0  0  0  0  0  0  0  0
    0.1836   18.2048   -0.2955 H   0  0  0  0  0  0  0  0  0  0  0  0
    0.8194   18.8529   -1.8455 H   0  0  0  0  0  0  0  0  0  0  0  0
   -0.6121   17.7677   -1.8455 H   0  0  0  0  0  0  0  0  0  0  0  0
    1.1440   12.9671    2.5799 H   0  0  0  0  0  0  0  0  0  0  0  0
    2.8646   13.0983    2.0810 H   0  0  0  0  0  0  0  0  0  0  0  0
    1.8158   14.5566    2.0810 H   0  0  0  0  0  0  0  0  0  0  0  0
    3.2283   12.2152   -0.3578 H   0  0  0  0  0  0  0  0  0  0  0  0
    2.2473   11.2474    0.8813 H   0  0  0  0  0  0  0  0  0  0  0  0
    1.6847   11.5677   -2.0797 H   0  0  0  0  0  0  0  0  0  0  0  0
    2.1534   10.0750   -1.1749 H   0  0  0  0  0  0  0  0  0  0  0  0
    0.1238   10.5814    1.3623 H   0  0  0  0  0  0  0  0  0  0  0  0
   -0.8737    9.3404    0.5307 H   0  0  0  0  0  0  0  0  0  0  0  0
    0.9172    9.2010    0.5307 H   0  0  0  0  0  0  0  0  0  0  0  0
  1  2  1  0
  2  3  1  0
  3  4  1  0
  4  5  1  0
  5  6  1  0
  6  7  1  0
  7  8  1  0
  7  9  1  0
  2 10  1  0
 10 11  1  0
 11 12  1  0
 12 13  1  0
 13 14  1  6
 13 15  1  0
 15 16  1  0
 16 17  1  0
 17 18  2  0
 18 19  1  0
 19 20  1  0
 20 21  1  0
 21 22  1  0
 22 23  1  0
 22 24  1  0
 24 25  1  0
 24 26  1  0
 19 27  1  0
 27 28  1  1
 27 29  1  0
 29 30  1  0
 30 31  1  0
 31 32  1  1
  7  5  1  0
 31 10  1  0
 31 13  1  0
 27 15  1  0
 24 18  1  0
  1 33  1  0
  1 34  1  0
  1 35  1  0
  2 36  1  1
  3 37  1  0
  3 38  1  0
  4 39  1  0
  4 40  1  0
  5 41  1  6
  8 42  1  0
  8 43  1  0
  8 44  1  0
  9 45  1  0
  9 46  1  0
  9 47  1  0
 10 48  1  6
 11 49  1  0
 11 50  1  0
 12 51  1  0
 12 52  1  0
 14 53  1  0
 14 54  1  0
 14 55  1  0
 15 56  1  1
 16 57  1  0
 16 58  1  0
 17 59  1  0
 19 60  1  6
 20 61  1  0
 20 62  1  0
 21 63  1  0
 21 64  1  0
 22 65  1  6
 23 66  1  0
 25 67  1  0
 25 68  1  0
 25 69  1  0
 26 70  1  0
 26 71  1  0
 26 72  1  0
 28 73  1  0
 28 74  1  0
 28 75  1  0
 29 76  1  0
 29 77  1  0
 30 78  1  0
 30 79  1  0
 32 80  1  0
 32 81  1  0
 32 82  1  0
M  END
>  <meeko>  (19) 
{"is_sidechain": [false], "intermolecular_energy": 2.731, "internal_energy": -0.839}

$$$$
