EPH_relaxed_0001_pdb2pqr_Repair_57_r2_0001_out
     RDKit          3D

 82 86  0  0  0  0  0  0  0  0999 V2000
   -1.5940    8.5990   -1.8820 C   0  0  0  0  0  0  0  0  0  0  0  0
   -1.8630    9.0250   -0.4360 C   0  0  2  0  0  0  0  0  0  0  0  0
   -3.3600    9.2940   -0.1790 C   0  0  0  0  0  0  0  0  0  0  0  0
   -4.2900    8.6100   -1.1850 C   0  0  0  0  0  0  0  0  0  0  0  0
   -5.4180    7.8980   -0.5010 C   0  0  2  0  0  0  0  0  0  0  0  0
   -5.5520    6.5140   -0.8500 O   0  0  0  0  0  0  0  0  0  0  0  0
   -6.6400    7.3720   -1.2300 C   0  0  0  0  0  0  0  0  0  0  0  0
   -6.7960    7.5370   -2.7100 C   0  0  0  0  0  0  0  0  0  0  0  0
   -7.8940    7.1380   -0.4480 C   0  0  0  0  0  0  0  0  0  0  0  0
   -1.0450   10.2660   -0.0990 C   0  0  1  0  0  0  0  0  0  0  0  0
   -0.0010   10.0070    1.0190 C   0  0  0  0  0  0  0  0  0  0  0  0
    1.2390   10.8750    0.6830 C   0  0  0  0  0  0  0  0  0  0  0  0
    0.7490   11.8450   -0.4180 C   0  0  1  0  0  0  0  0  0  0  0  0
    0.0050   12.9820    0.3520 C   0  0  0  0  0  0  0  0  0  0  0  0
    1.8460   12.4180   -1.3730 C   0  0  2  0  0  0  0  0  0  0  0  0
    2.9230   13.2780   -0.6900 C   0  0  0  0  0  0  0  0  0  0  0  0
    2.6210   14.7390   -0.6190 C   0  0  0  0  0  0  0  0  0  0  0  0
    1.6730   15.3770   -1.3300 C   0  0  0  0  0  0  0  0  0  0  0  0
    0.8500   14.6350   -2.3900 C   0  0  1  0  0  0  0  0  0  0  0  0
    0.7890   15.4840   -3.6870 C   0  0  0  0  0  0  0  0  0  0  0  0
    0.2770   16.8990   -3.4360 C   0  0  0  0  0  0  0  0  0  0  0  0
    1.1550   17.6250   -2.4200 C   0  0  2  0  0  0  0  0  0  0  0  0
    2.4490   17.8340   -2.9950 O   0  0  0  0  0  0  0  0  0  0  0  0
    1.2990   16.8580   -1.0750 C   0  0  0  0  0  0  0  0  0  0  0  0
   -0.0470   16.8950   -0.3090 C   0  0  0  0  0  0  0  0  0  0  0  0
    2.3210   17.6270   -0.1940 C   0  0  0  0  0  0  0  0  0  0  0  0
    1.2730   13.1280   -2.6660 C   0  0  1  0  0  0  0  0  0  0  0  0
    2.4050   13.0810   -3.7380 C   0  0  0  0  0  0  0  0  0  0  0  0
    0.0470   12.3540   -3.2810 C   0  0  0  0  0  0  0  0  0  0  0  0
   -0.9370   11.7090   -2.2860 C   0  0  0  0  0  0  0  0  0  0  0  0
   -0.1900   10.8840   -1.2340 C   0  0  2  0  0  0  0  0  0  0  0  0
    0.5500    9.7190   -1.9760 C   0  0  0  0  0  0  0  0  0  0  0  0
   -1.0067    7.6689   -1.8870 H   0  0  0  0  0  0  0  0  0  0  0  0
   -2.5504    8.4315   -2.3989 H   0  0  0  0  0  0  0  0  0  0  0  0
   -1.0316    9.3906   -2.3989 H   0  0  0  0  0  0  0  0  0  0  0  0
   -1.5606    8.1925    0.2162 H   0  0  0  0  0  0  0  0  0  0  0  0
   -3.6103    8.9300    0.8284 H   0  0  0  0  0  0  0  0  0  0  0  0
   -3.5144   10.3780   -0.2840 H   0  0  0  0  0  0  0  0  0  0  0  0
   -4.7065    9.3716   -1.8606 H   0  0  0  0  0  0  0  0  0  0  0  0
   -3.7033    7.8661   -1.7440 H   0  0  0  0  0  0  0  0  0  0  0  0
   -5.3072    8.5312    0.3917 H   0  0  0  0  0  0  0  0  0  0  0  0
   -7.5385    8.3223   -2.9151 H   0  0  0  0  0  0  0  0  0  0  0  0
   -5.8294    7.8220   -3.1511 H   0  0  0  0  0  0  0  0  0  0  0  0
   -7.1347    6.5879   -3.1511 H   0  0  0  0  0  0  0  0  0  0  0  0
   -7.6685    7.1801    0.6278 H   0  0  0  0  0  0  0  0  0  0  0  0
   -8.6325    7.9138   -0.6985 H   0  0  0  0  0  0  0  0  0  0  0  0
   -8.3030    6.1480   -0.6985 H   0  0  0  0  0  0  0  0  0  0  0  0
   -1.8579   10.9541    0.1762 H   0  0  0  0  0  0  0  0  0  0  0  0
   -0.4130   10.2975    1.9967 H   0  0  0  0  0  0  0  0  0  0  0  0
    0.2655    8.9411    1.0712 H   0  0  0  0  0  0  0  0  0  0  0  0
    1.5750   11.4321    1.5700 H   0  0  0  0  0  0  0  0  0  0  0  0
    2.0960   10.2689    0.3540 H   0  0  0  0  0  0  0  0  0  0  0  0
    0.1103   12.8211    1.4351 H   0  0  0  0  0  0  0  0  0  0  0  0
    0.4419   13.9546    0.0816 H   0  0  0  0  0  0  0  0  0  0  0  0
   -1.0612   12.9711    0.0816 H   0  0  0  0  0  0  0  0  0  0  0  0
    2.3624   11.5074   -1.7108 H   0  0  0  0  0  0  0  0  0  0  0  0
    3.0532   12.9073    0.3374 H   0  0  0  0  0  0  0  0  0  0  0  0
    3.8269   13.1834   -1.3097 H   0  0  0  0  0  0  0  0  0  0  0  0
    3.2245   15.3448    0.0730 H   0  0  0  0  0  0  0  0  0  0  0  0
   -0.1602   14.5252   -1.9687 H   0  0  0  0  0  0  0  0  0  0  0  0
    1.8000   15.5457   -4.1160 H   0  0  0  0  0  0  0  0  0  0  0  0
    0.0865   14.9918   -4.3757 H   0  0  0  0  0  0  0  0  0  0  0  0
    0.2852   17.4580   -4.3833 H   0  0  0  0  0  0  0  0  0  0  0  0
   -0.7454   16.8363   -3.0350 H   0  0  0  0  0  0  0  0  0  0  0  0
    0.6651   18.5814   -2.1848 H   0  0  0  0  0  0  0  0  0  0  0  0
    2.4060   17.5530   -3.9250 H   0  0  0  0  0  0  0  0  0  0  0  0
    0.1470   16.8897    0.7737 H   0  0  0  0  0  0  0  0  0  0  0  0
   -0.5972   17.8086   -0.5784 H   0  0  0  0  0  0  0  0  0  0  0  0
   -0.6466   16.0130   -0.5784 H   0  0  0  0  0  0  0  0  0  0  0  0
    2.0922   17.4548    0.8681 H   0  0  0  0  0  0  0  0  0  0  0  0
    3.3373   17.2677   -0.4130 H   0  0  0  0  0  0  0  0  0  0  0  0
    2.2573   18.7031   -0.4130 H   0  0  0  0  0  0  0  0  0  0  0  0
    3.3833   13.0404   -3.2367 H   0  0  0  0  0  0  0  0  0  0  0  0
    2.2778   12.1874   -4.3667 H   0  0  0  0  0  0  0  0  0  0  0  0
    2.3523   13.9821   -4.3667 H   0  0  0  0  0  0  0  0  0  0  0  0
   -0.5215   13.0665   -3.8968 H   0  0  0  0  0  0  0  0  0  0  0  0
    0.4869   11.5130   -3.8370 H   0  0  0  0  0  0  0  0  0  0  0  0
   -1.5101   12.5011   -1.7819 H   0  0  0  0  0  0  0  0  0  0  0  0
   -1.6111   11.0409   -2.8422 H   0  0  0  0  0  0  0  0  0  0  0  0
    0.9865    9.0319   -1.2362 H   0  0  0  0  0  0  0  0  0  0  0  0
   -0.1666    9.1721   -2.6064 H   0  0  0  0  0  0  0  0  0  0  0  0
    1.3496   10.1352   -2.6064 H   0  0  0  0  0  0  0  0  0  0  0  0
  1  2  1  0
  2  3  1  0
  3  4  1  0
  4  5  1  0
  5  6  1  0
  6  7  1  0
  7  8  1  0
  7  9  1  0
  2 10  1  0
 10 11  1  0
 11 12  1  0
 12 13  1  0
 13 14  1  1
 13 15  1  0
 15 16  1  0
 16 17  1  0
 17 18  2  0
 18 19  1  0
 19 20  1  0
 20 21  1  0
 21 22  1  0
 22 23  1  0
 22 24  1  0
 24 25  1  0
 24 26  1  0
 19 27  1  0
 27 28  1  6
 27 29  1  0
 29 30  1  0
 30 31  1  0
 31 32  1  6
  7  5  1  0
 31 10  1  0
 31 13  1  0
 27 15  1  0
 24 18  1  0
  1 33  1  0
  1 34  1  0
  1 35  1  0
  2 36  1  1
  3 37  1  0
  3 38  1  0
  4 39  1  0
  4 40  1  0
  5 41  1  1
  8 42  1  0
  8 43  1  0
  8 44  1  0
  9 45  1  0
  9 46  1  0
  9 47  1  0
 10 48  1  1
 11 49  1  0
 11 50  1  0
 12 51  1  0
 12 52  1  0
 14 53  1  0
 14 54  1  0
 14 55  1  0
 15 56  1  6
 16 57  1  0
 16 58  1  0
 17 59  1  0
 19 60  1  1
 20 61  1  0
 20 62  1  0
 21 63  1  0
 21 64  1  0
 22 65  1  1
 23 66  1  0
 25 67  1  0
 25 68  1  0
 25 69  1  0
 26 70  1  0
 26 71  1  0
 26 72  1  0
 28 73  1  0
 28 74  1  0
 28 75  1  0
 29 76  1  0
 29 77  1  0
 30 78  1  0
 30 79  1  0
 32 80  1  0
 32 81  1  0
 32 82  1  0
M  END
>  <meeko>  (1) 
{"is_sidechain": [false], "intermolecular_energy": 2.731, "internal_energy": -0.839}

$$$$
EPH_relaxed_0001_pdb2pqr_Repair_57_r2_0001_out
     RDKit          3D

 82 86  0  0  0  0  0  0  0  0999 V2000
    4.2260   17.5210   -0.6230 C   0  0  0  0  0  0  0  0  0  0  0  0
    2.8660   18.1000   -0.2230 C   0  0  2  0  0  0  0  0  0  0  0  0
    2.9160   18.8050    1.1470 C   0  0  0  0  0  0  0  0  0  0  0  0
    4.2620   18.6640    1.8630 C   0  0  0  0  0  0  0  0  0  0  0  0
    4.2040   19.2010    3.2610 C   0  0  2  0  0  0  0  0  0  0  0  0
    5.1930   20.1940    3.5620 O   0  0  0  0  0  0  0  0  0  0  0  0
    5.2900   18.9620    4.2940 C   0  0  0  0  0  0  0  0  0  0  0  0
    6.5100   18.1570    3.9730 C   0  0  0  0  0  0  0  0  0  0  0  0
    4.9390   19.0930    5.7440 C   0  0  0  0  0  0  0  0  0  0  0  0
    1.8160   16.9950   -0.2030 C   0  0  1  0  0  0  0  0  0  0  0  0
    0.3890   17.5220   -0.5090 C   0  0  0  0  0  0  0  0  0  0  0  0
   -0.3380   16.4080   -1.3050 C   0  0  0  0  0  0  0  0  0  0  0  0
    0.5640   15.1620   -1.1450 C   0  0  1  0  0  0  0  0  0  0  0  0
    0.1960   14.5770    0.2550 C   0  0  0  0  0  0  0  0  0  0  0  0
    0.4560   14.0810   -2.2690 C   0  0  2  0  0  0  0  0  0  0  0  0
   -0.9270   13.4190   -2.4060 C   0  0  0  0  0  0  0  0  0  0  0  0
   -1.1270   12.1860   -1.5900 C   0  0  0  0  0  0  0  0  0  0  0  0
   -0.1510   11.4710   -1.0000 C   0  0  0  0  0  0  0  0  0  0  0  0
    1.3250   11.8310   -1.2090 C   0  0  1  0  0  0  0  0  0  0  0  0
    2.1330   10.5450   -1.5260 C   0  0  0  0  0  0  0  0  0  0  0  0
    1.9410    9.4590   -0.4710 C   0  0  0  0  0  0  0  0  0  0  0  0
    0.4670    9.0870   -0.3330 C   0  0  2  0  0  0  0  0  0  0  0  0
    0.0360    8.4570   -1.5440 O   0  0  0  0  0  0  0  0  0  0  0  0
   -0.4470   10.3060   -0.0240 C   0  0  0  0  0  0  0  0  0  0  0  0
   -0.1820   10.8020    1.4190 C   0  0  0  0  0  0  0  0  0  0  0  0
   -1.9200    9.8170   -0.0510 C   0  0  0  0  0  0  0  0  0  0  0  0
    1.6130   13.0020   -2.2450 C   0  0  1  0  0  0  0  0  0  0  0  0
    1.7120   12.4230   -3.6890 C   0  0  0  0  0  0  0  0  0  0  0  0
    3.0170   13.6380   -1.9240 C   0  0  0  0  0  0  0  0  0  0  0  0
    3.0430   14.7820   -0.8930 C   0  0  0  0  0  0  0  0  0  0  0  0
    1.9820   15.8380   -1.2200 C   0  0  2  0  0  0  0  0  0  0  0  0
    2.3390   16.4600   -2.6130 C   0  0  0  0  0  0  0  0  0  0  0  0
    4.8009   17.2762    0.2823 H   0  0  0  0  0  0  0  0  0  0  0  0
    4.0752   16.6090   -1.2193 H   0  0  0  0  0  0  0  0  0  0  0  0
    4.7788   18.2618   -1.2193 H   0  0  0  0  0  0  0  0  0  0  0  0
    2.5943   18.8567   -0.9738 H   0  0  0  0  0  0  0  0  0  0  0  0
    2.7144   19.8755    0.9942 H   0  0  0  0  0  0  0  0  0  0  0  0
    2.1606   18.3224    1.7846 H   0  0  0  0  0  0  0  0  0  0  0  0
    4.5360   17.5993    1.9010 H   0  0  0  0  0  0  0  0  0  0  0  0
    5.0110   19.2436    1.3034 H   0  0  0  0  0  0  0  0  0  0  0  0
    3.1126   19.0673    3.2929 H   0  0  0  0  0  0  0  0  0  0  0  0
    6.9946   17.8372    4.9073 H   0  0  0  0  0  0  0  0  0  0  0  0
    6.2214   17.2714    3.3879 H   0  0  0  0  0  0  0  0  0  0  0  0
    7.2107   18.7707    3.3879 H   0  0  0  0  0  0  0  0  0  0  0  0
    5.7938   18.7740    6.3584 H   0  0  0  0  0  0  0  0  0  0  0  0
    4.6967   20.1421    5.9693 H   0  0  0  0  0  0  0  0  0  0  0  0
    4.0687   18.4592    5.9693 H   0  0  0  0  0  0  0  0  0  0  0  0
    1.9621   16.6198    0.8206 H   0  0  0  0  0  0  0  0  0  0  0  0
   -0.1475   17.7292    0.4287 H   0  0  0  0  0  0  0  0  0  0  0  0
    0.4288   18.4578   -1.0858 H   0  0  0  0  0  0  0  0  0  0  0  0
   -1.3375   16.2203   -0.8857 H   0  0  0  0  0  0  0  0  0  0  0  0
   -0.4898   16.6804   -2.3599 H   0  0  0  0  0  0  0  0  0  0  0  0
    0.6047   15.2268    1.0429 H   0  0  0  0  0  0  0  0  0  0  0  0
   -0.8982   14.5243    0.3542 H   0  0  0  0  0  0  0  0  0  0  0  0
    0.6222   13.5678    0.3542 H   0  0  0  0  0  0  0  0  0  0  0  0
    0.5950   14.6768   -3.1832 H   0  0  0  0  0  0  0  0  0  0  0  0
   -1.6872   14.1541   -2.1031 H   0  0  0  0  0  0  0  0  0  0  0  0
   -1.0115   13.1054   -3.4570 H   0  0  0  0  0  0  0  0  0  0  0  0
   -2.1599   11.8311   -1.4594 H   0  0  0  0  0  0  0  0  0  0  0  0
    1.6693   12.2632   -0.2579 H   0  0  0  0  0  0  0  0  0  0  0  0
    1.8042   10.1529   -2.4997 H   0  0  0  0  0  0  0  0  0  0  0  0
    3.1994   10.8147   -1.5377 H   0  0  0  0  0  0  0  0  0  0  0  0
    2.5116    8.5659   -0.7657 H   0  0  0  0  0  0  0  0  0  0  0  0
    2.2985    9.8420    0.4962 H   0  0  0  0  0  0  0  0  0  0  0  0
    0.3779    8.4038    0.5245 H   0  0  0  0  0  0  0  0  0  0  0  0
    0.7980    7.9820   -1.9160 H   0  0  0  0  0  0  0  0  0  0  0  0
   -0.5746   10.0671    2.1372 H   0  0  0  0  0  0  0  0  0  0  0  0
    0.9006   10.9223    1.5724 H   0  0  0  0  0  0  0  0  0  0  0  0
   -0.6838   11.7688    1.5724 H   0  0  0  0  0  0  0  0  0  0  0  0
   -2.2851    9.6958    0.9796 H   0  0  0  0  0  0  0  0  0  0  0  0
   -2.5424   10.5567   -0.5758 H   0  0  0  0  0  0  0  0  0  0  0  0
   -1.9764    8.8519   -0.5758 H   0  0  0  0  0  0  0  0  0  0  0  0
    1.8972   11.3399   -3.6379 H   0  0  0  0  0  0  0  0  0  0  0  0
    0.7690   12.6089   -4.2240 H   0  0  0  0  0  0  0  0  0  0  0  0
    2.5396   12.9116   -4.2240 H   0  0  0  0  0  0  0  0  0  0  0  0
    3.6673   12.8352   -1.5464 H   0  0  0  0  0  0  0  0  0  0  0  0
    3.3483   14.0946   -2.8683 H   0  0  0  0  0  0  0  0  0  0  0  0
    2.8443   14.3697    0.1073 H   0  0  0  0  0  0  0  0  0  0  0  0
    4.0338   15.2589   -0.9226 H   0  0  0  0  0  0  0  0  0  0  0  0
    2.8815   17.4053   -2.4643 H   0  0  0  0  0  0  0  0  0  0  0  0
    2.9720   15.7586   -3.1764 H   0  0  0  0  0  0  0  0  0  0  0  0
    1.4141   16.6528   -3.1764 H   0  0  0  0  0  0  0  0  0  0  0  0
  1  2  1  0
  2  3  1  0
  3  4  1  0
  4  5  1  0
  5  6  1  0
  6  7  1  0
  7  8  1  0
  7  9  1  0
  2 10  1  0
 10 11  1  0
 11 12  1  0
 12 13  1  0
 13 14  1  1
 13 15  1  0
 15 16  1  0
 16 17  1  0
 17 18  2  0
 18 19  1  0
 19 20  1  0
 20 21  1  0
 21 22  1  0
 22 23  1  0
 22 24  1  0
 24 25  1  0
 24 26  1  0
 19 27  1  0
 27 28  1  6
 27 29  1  0
 29 30  1  0
 30 31  1  0
 31 32  1  6
  7  5  1  0
 31 10  1  0
 31 13  1  0
 27 15  1  0
 24 18  1  0
  1 33  1  0
  1 34  1  0
  1 35  1  0
  2 36  1  6
  3 37  1  0
  3 38  1  0
  4 39  1  0
  4 40  1  0
  5 41  1  1
  8 42  1  0
  8 43  1  0
  8 44  1  0
  9 45  1  0
  9 46  1  0
  9 47  1  0
 10 48  1  1
 11 49  1  0
 11 50  1  0
 12 51  1  0
 12 52  1  0
 14 53  1  0
 14 54  1  0
 14 55  1  0
 15 56  1  6
 16 57  1  0
 16 58  1  0
 17 59  1  0
 19 60  1  1
 20 61  1  0
 20 62  1  0
 21 63  1  0
 21 64  1  0
 22 65  1  1
 23 66  1  0
 25 67  1  0
 25 68  1  0
 25 69  1  0
 26 70  1  0
 26 71  1  0
 26 72  1  0
 28 73  1  0
 28 74  1  0
 28 75  1  0
 29 76  1  0
 29 77  1  0
 30 78  1  0
 30 79  1  0
 32 80  1  0
 32 81  1  0
 32 82  1  0
M  END
>  <meeko>  (2) 
{"is_sidechain": [false], "intermolecular_energy": 2.731, "internal_energy": -0.839}

$$$$
EPH_relaxed_0001_pdb2pqr_Repair_57_r2_0001_out
     RDKit          3D

 82 86  0  0  0  0  0  0  0  0999 V2000
    2.2890   18.0610   -2.7080 C   0  0  0  0  0  0  0  0  0  0  0  0
    1.0120   17.6590   -1.9650 C   0  0  2  0  0  0  0  0  0  0  0  0
    1.1910   17.7090   -0.4340 C   0  0  0  0  0  0  0  0  0  0  0  0
    0.8700   19.0750    0.1790 C   0  0  0  0  0  0  0  0  0  0  0  0
   -0.5820   19.1960    0.5310 C   0  0  2  0  0  0  0  0  0  0  0  0
   -1.4380   18.2490   -0.1220 O   0  0  0  0  0  0  0  0  0  0  0  0
   -1.6490   19.6300   -0.4570 C   0  0  0  0  0  0  0  0  0  0  0  0
   -1.3080   19.9710   -1.8740 C   0  0  0  0  0  0  0  0  0  0  0  0
   -2.9310   20.1900    0.0740 C   0  0  0  0  0  0  0  0  0  0  0  0
    0.5800   16.2610   -2.3930 C   0  0  1  0  0  0  0  0  0  0  0  0
    0.6790   16.0490   -3.9270 C   0  0  0  0  0  0  0  0  0  0  0  0
    1.0960   14.5720   -4.1480 C   0  0  0  0  0  0  0  0  0  0  0  0
    0.9010   13.9010   -2.7690 C   0  0  1  0  0  0  0  0  0  0  0  0
   -0.6260   13.5890   -2.6870 C   0  0  0  0  0  0  0  0  0  0  0  0
    1.7660   12.6280   -2.4910 C   0  0  2  0  0  0  0  0  0  0  0  0
    1.4980   11.4400   -3.4300 C   0  0  0  0  0  0  0  0  0  0  0  0
    0.4490   10.4840   -2.9660 C   0  0  0  0  0  0  0  0  0  0  0  0
   -0.0480   10.4150   -1.7170 C   0  0  0  0  0  0  0  0  0  0  0  0
    0.5180   11.2930   -0.5940 C   0  0  1  0  0  0  0  0  0  0  0  0
    0.7550   10.4260    0.6710 C   0  0  0  0  0  0  0  0  0  0  0  0
   -0.4950    9.6640    1.1000 C   0  0  0  0  0  0  0  0  0  0  0  0
   -0.9940    8.7580   -0.0230 C   0  0  2  0  0  0  0  0  0  0  0  0
   -0.0310    7.7240   -0.2440 O   0  0  0  0  0  0  0  0  0  0  0  0
   -1.2580    9.5200   -1.3520 C   0  0  0  0  0  0  0  0  0  0  0  0
   -2.5040   10.4270   -1.1940 C   0  0  0  0  0  0  0  0  0  0  0  0
   -1.6200    8.4720   -2.4390 C   0  0  0  0  0  0  0  0  0  0  0  0
    1.7840   12.1750   -0.9750 C   0  0  1  0  0  0  0  0  0  0  0  0
    3.0900   11.3470   -0.7730 C   0  0  0  0  0  0  0  0  0  0  0  0
    1.8750   13.3970    0.0140 C   0  0  0  0  0  0  0  0  0  0  0  0
    1.0950   14.6660   -0.3760 C   0  0  0  0  0  0  0  0  0  0  0  0
    1.3830   15.0630   -1.8270 C   0  0  2  0  0  0  0  0  0  0  0  0
    2.9090   15.4050   -1.9340 C   0  0  0  0  0  0  0  0  0  0  0  0
    3.0748   18.3084   -1.9791 H   0  0  0  0  0  0  0  0  0  0  0  0
    2.6245   17.2250   -3.3393 H   0  0  0  0  0  0  0  0  0  0  0  0
    2.0851   18.9384   -3.3393 H   0  0  0  0  0  0  0  0  0  0  0  0
    0.2315   18.3872   -2.2304 H   0  0  0  0  0  0  0  0  0  0  0  0
    0.5242   16.9601    0.0182 H   0  0  0  0  0  0  0  0  0  0  0  0
    2.2521   17.5054   -0.2276 H   0  0  0  0  0  0  0  0  0  0  0  0
    1.4704   19.2065    1.0913 H   0  0  0  0  0  0  0  0  0  0  0  0
    1.1088   19.8497   -0.5645 H   0  0  0  0  0  0  0  0  0  0  0  0
   -0.3314   19.5402    1.5453 H   0  0  0  0  0  0  0  0  0  0  0  0
   -0.5302   20.7488   -1.8870 H   0  0  0  0  0  0  0  0  0  0  0  0
   -0.9365   19.0723   -2.3882 H   0  0  0  0  0  0  0  0  0  0  0  0
   -2.2067   20.3425   -2.3882 H   0  0  0  0  0  0  0  0  0  0  0  0
   -2.9079   20.1799    1.1737 H   0  0  0  0  0  0  0  0  0  0  0  0
   -3.0542   21.2239   -0.2807 H   0  0  0  0  0  0  0  0  0  0  0  0
   -3.7733   19.5778   -0.2807 H   0  0  0  0  0  0  0  0  0  0  0  0
   -0.4428   16.2526   -1.9882 H   0  0  0  0  0  0  0  0  0  0  0  0
   -0.2951   16.2425   -4.3999 H   0  0  0  0  0  0  0  0  0  0  0  0
    1.4109   16.7374   -4.3746 H   0  0  0  0  0  0  0  0  0  0  0  0
    0.4551   14.0967   -4.9052 H   0  0  0  0  0  0  0  0  0  0  0  0
    2.1293   14.4806   -4.5139 H   0  0  0  0  0  0  0  0  0  0  0  0
   -0.9314   13.5266   -1.6321 H   0  0  0  0  0  0  0  0  0  0  0  0
   -1.1912   14.3902   -3.1856 H   0  0  0  0  0  0  0  0  0  0  0  0
   -0.8316   12.6303   -3.1856 H   0  0  0  0  0  0  0  0  0  0  0  0
    2.7816   12.9753   -2.7317 H   0  0  0  0  0  0  0  0  0  0  0  0
    1.1846   11.8414   -4.4050 H   0  0  0  0  0  0  0  0  0  0  0  0
    2.4358   10.8665   -3.4703 H   0  0  0  0  0  0  0  0  0  0  0  0
    0.0487    9.7766   -3.7072 H   0  0  0  0  0  0  0  0  0  0  0  0
   -0.2486   12.0542   -0.3869 H   0  0  0  0  0  0  0  0  0  0  0  0
    1.5540    9.7009    0.4570 H   0  0  0  0  0  0  0  0  0  0  0  0
    1.0322   11.1027    1.4927 H   0  0  0  0  0  0  0  0  0  0  0  0
   -0.2571    9.0486    1.9802 H   0  0  0  0  0  0  0  0  0  0  0  0
   -1.2841   10.3914    1.3411 H   0  0  0  0  0  0  0  0  0  0  0  0
   -1.9597    8.3386    0.2955 H   0  0  0  0  0  0  0  0  0  0  0  0
   -0.4880    6.8710   -0.1540 H   0  0  0  0  0  0  0  0  0  0  0  0
   -2.7134   10.5794   -0.1249 H   0  0  0  0  0  0  0  0  0  0  0  0
   -2.3131   11.3989   -1.6724 H   0  0  0  0  0  0  0  0  0  0  0  0
   -3.3702    9.9467   -1.6724 H   0  0  0  0  0  0  0  0  0  0  0  0
   -1.9425    7.5383   -1.9551 H   0  0  0  0  0  0  0  0  0  0  0  0
   -2.4359    8.8609   -3.0660 H   0  0  0  0  0  0  0  0  0  0  0  0
   -0.7380    8.2744   -3.0660 H   0  0  0  0  0  0  0  0  0  0  0  0
    3.2836   11.2243    0.3028 H   0  0  0  0  0  0  0  0  0  0  0  0
    2.9729   10.3578   -1.2397 H   0  0  0  0  0  0  0  0  0  0  0  0
    3.9347   11.8749   -1.2397 H   0  0  0  0  0  0  0  0  0  0  0  0
    1.4984   13.0624    0.9918 H   0  0  0  0  0  0  0  0  0  0  0  0
    2.9336   13.6960    0.0051 H   0  0  0  0  0  0  0  0  0  0  0  0
    0.0177   14.4752   -0.2623 H   0  0  0  0  0  0  0  0  0  0  0  0
    1.4122   15.4885    0.2820 H   0  0  0  0  0  0  0  0  0  0  0  0
    3.3350   15.5005   -0.9244 H   0  0  0  0  0  0  0  0  0  0  0  0
    3.4278   14.6009   -2.4764 H   0  0  0  0  0  0  0  0  0  0  0  0
    3.0350   16.3537   -2.4764 H   0  0  0  0  0  0  0  0  0  0  0  0
  1  2  1  0
  2  3  1  0
  3  4  1  0
  4  5  1  0
  5  6  1  0
  6  7  1  0
  7  8  1  0
  7  9  1  0
  2 10  1  0
 10 11  1  0
 11 12  1  0
 12 13  1  0
 13 14  1  1
 13 15  1  0
 15 16  1  0
 16 17  1  0
 17 18  2  0
 18 19  1  0
 19 20  1  0
 20 21  1  0
 21 22  1  0
 22 23  1  0
 22 24  1  0
 24 25  1  0
 24 26  1  0
 19 27  1  0
 27 28  1  6
 27 29  1  0
 29 30  1  0
 30 31  1  0
 31 32  1  1
  7  5  1  0
 31 10  1  0
 31 13  1  0
 27 15  1  0
 24 18  1  0
  1 33  1  0
  1 34  1  0
  1 35  1  0
  2 36  1  1
  3 37  1  0
  3 38  1  0
  4 39  1  0
  4 40  1  0
  5 41  1  1
  8 42  1  0
  8 43  1  0
  8 44  1  0
  9 45  1  0
  9 46  1  0
  9 47  1  0
 10 48  1  1
 11 49  1  0
 11 50  1  0
 12 51  1  0
 12 52  1  0
 14 53  1  0
 14 54  1  0
 14 55  1  0
 15 56  1  6
 16 57  1  0
 16 58  1  0
 17 59  1  0
 19 60  1  1
 20 61  1  0
 20 62  1  0
 21 63  1  0
 21 64  1  0
 22 65  1  1
 23 66  1  0
 25 67  1  0
 25 68  1  0
 25 69  1  0
 26 70  1  0
 26 71  1  0
 26 72  1  0
 28 73  1  0
 28 74  1  0
 28 75  1  0
 29 76  1  0
 29 77  1  0
 30 78  1  0
 30 79  1  0
 32 80  1  0
 32 81  1  0
 32 82  1  0
M  END
>  <meeko>  (3) 
{"is_sidechain": [false], "intermolecular_energy": 2.731, "internal_energy": -0.839}

$$$$
EPH_relaxed_0001_pdb2pqr_Repair_57_r2_0001_out
     RDKit          3D

 82 86  0  0  0  0  0  0  0  0999 V2000
    0.4110   18.4200   -0.0370 C   0  0  0  0  0  0  0  0  0  0  0  0
    1.4950   17.3600   -0.2490 C   0  0  2  0  0  0  0  0  0  0  0  0
    2.7100   17.9180   -1.0180 C   0  0  0  0  0  0  0  0  0  0  0  0
    3.9440   18.1400   -0.1400 C   0  0  0  0  0  0  0  0  0  0  0  0
    3.5700   18.6100    1.2340 C   0  0  2  0  0  0  0  0  0  0  0  0
    3.8080   20.0030    1.4750 O   0  0  0  0  0  0  0  0  0  0  0  0
    4.5820   19.0820    2.2610 C   0  0  0  0  0  0  0  0  0  0  0  0
    6.0480   19.1070    1.9580 C   0  0  0  0  0  0  0  0  0  0  0  0
    4.2000   19.0540    3.7080 C   0  0  0  0  0  0  0  0  0  0  0  0
    0.9130   16.1630   -0.9930 C   0  0  1  0  0  0  0  0  0  0  0  0
    0.7710   16.4180   -2.5170 C   0  0  0  0  0  0  0  0  0  0  0  0
    1.0530   15.0680   -3.2240 C   0  0  0  0  0  0  0  0  0  0  0  0
    1.0190   14.0180   -2.0890 C   0  0  1  0  0  0  0  0  0  0  0  0
   -0.4960   13.7250   -1.8580 C   0  0  0  0  0  0  0  0  0  0  0  0
    1.8300   12.7040   -2.3380 C   0  0  2  0  0  0  0  0  0  0  0  0
    1.3490   11.8560   -3.5280 C   0  0  0  0  0  0  0  0  0  0  0  0
    0.3190   10.8260   -3.2020 C   0  0  0  0  0  0  0  0  0  0  0  0
    0.0070   10.3960   -1.9650 C   0  0  0  0  0  0  0  0  0  0  0  0
    0.7890   10.8860   -0.7400 C   0  0  1  0  0  0  0  0  0  0  0  0
    1.1510    9.6770    0.1610 C   0  0  0  0  0  0  0  0  0  0  0  0
   -0.0690    8.8450    0.5430 C   0  0  0  0  0  0  0  0  0  0  0  0
   -0.7870    8.3270   -0.7010 C   0  0  2  0  0  0  0  0  0  0  0  0
    0.0640    7.3880   -1.3660 O   0  0  0  0  0  0  0  0  0  0  0  0
   -1.1930    9.4560   -1.6890 C   0  0  0  0  0  0  0  0  0  0  0  0
   -2.3380   10.2980   -1.0750 C   0  0  0  0  0  0  0  0  0  0  0  0
   -1.7790    8.7880   -2.9620 C   0  0  0  0  0  0  0  0  0  0  0  0
    2.0410   11.8180   -1.0440 C   0  0  1  0  0  0  0  0  0  0  0  0
    3.3040   10.9420   -1.3050 C   0  0  0  0  0  0  0  0  0  0  0  0
    2.3570   12.6860    0.2310 C   0  0  0  0  0  0  0  0  0  0  0  0
    1.6130   14.0280    0.3600 C   0  0  0  0  0  0  0  0  0  0  0  0
    1.7110   14.8360   -0.9380 C   0  0  2  0  0  0  0  0  0  0  0  0
    3.2230   15.1650   -1.1840 C   0  0  0  0  0  0  0  0  0  0  0  0
    0.2541   18.5735    1.0409 H   0  0  0  0  0  0  0  0  0  0  0  0
    0.7280   19.3662   -0.4998 H   0  0  0  0  0  0  0  0  0  0  0  0
   -0.5279   18.0819   -0.4998 H   0  0  0  0  0  0  0  0  0  0  0  0
    1.8486   17.0449    0.7438 H   0  0  0  0  0  0  0  0  0  0  0  0
    2.9737   17.2065   -1.8144 H   0  0  0  0  0  0  0  0  0  0  0  0
    2.4161   18.9011   -1.4144 H   0  0  0  0  0  0  0  0  0  0  0  0
    4.4959   17.1923   -0.0546 H   0  0  0  0  0  0  0  0  0  0  0  0
    4.5646   18.9166   -0.6109 H   0  0  0  0  0  0  0  0  0  0  0  0
    2.7515   17.8771    1.2879 H   0  0  0  0  0  0  0  0  0  0  0  0
    6.6169   19.1167    2.8994 H   0  0  0  0  0  0  0  0  0  0  0  0
    6.3174   18.2133    1.3760 H   0  0  0  0  0  0  0  0  0  0  0  0
    6.2868   20.0093    1.3760 H   0  0  0  0  0  0  0  0  0  0  0  0
    5.1063   19.1204    4.3278 H   0  0  0  0  0  0  0  0  0  0  0  0
    3.5408   19.9062    3.9298 H   0  0  0  0  0  0  0  0  0  0  0  0
    3.6721   18.1148    3.9298 H   0  0  0  0  0  0  0  0  0  0  0  0
   -0.0380   16.0533   -0.4512 H   0  0  0  0  0  0  0  0  0  0  0  0
   -0.2473   16.7624   -2.7502 H   0  0  0  0  0  0  0  0  0  0  0  0
    1.4726   17.1950   -2.8547 H   0  0  0  0  0  0  0  0  0  0  0  0
    0.2780   14.8535   -3.9746 H   0  0  0  0  0  0  0  0  0  0  0  0
    2.0132   15.0710   -3.7606 H   0  0  0  0  0  0  0  0  0  0  0  0
   -0.7013   13.6853   -0.7781 H   0  0  0  0  0  0  0  0  0  0  0  0
   -1.0979   14.5234   -2.3165 H   0  0  0  0  0  0  0  0  0  0  0  0
   -0.7569   12.7598   -2.3165 H   0  0  0  0  0  0  0  0  0  0  0  0
    2.8195   13.0883   -2.6264 H   0  0  0  0  0  0  0  0  0  0  0  0
    0.9231   12.5364   -4.2801 H   0  0  0  0  0  0  0  0  0  0  0  0
    2.2308   11.3027   -3.8835 H   0  0  0  0  0  0  0  0  0  0  0  0
   -0.2317   10.3806   -4.0437 H   0  0  0  0  0  0  0  0  0  0  0  0
    0.1131   11.5647   -0.1991 H   0  0  0  0  0  0  0  0  0  0  0  0
    1.8606    9.0340   -0.3803 H   0  0  0  0  0  0  0  0  0  0  0  0
    1.5890   10.0723    1.0894 H   0  0  0  0  0  0  0  0  0  0  0  0
    0.2554    7.9897    1.1539 H   0  0  0  0  0  0  0  0  0  0  0  0
   -0.7642    9.4810    1.1106 H   0  0  0  0  0  0  0  0  0  0  0  0
   -1.7214    7.8509   -0.3689 H   0  0  0  0  0  0  0  0  0  0  0  0
    0.7620    7.1290   -0.7410 H   0  0  0  0  0  0  0  0  0  0  0  0
   -2.2778   10.2537    0.0225 H   0  0  0  0  0  0  0  0  0  0  0  0
   -2.2428   11.3428   -1.4056 H   0  0  0  0  0  0  0  0  0  0  0  0
   -3.3069    9.8957   -1.4056 H   0  0  0  0  0  0  0  0  0  0  0  0
   -2.4782    7.9910   -2.6690 H   0  0  0  0  0  0  0  0  0  0  0  0
   -2.3122    9.5422   -3.5595 H   0  0  0  0  0  0  0  0  0  0  0  0
   -0.9618    8.3576   -3.5595 H   0  0  0  0  0  0  0  0  0  0  0  0
    3.7437   10.6370   -0.3439 H   0  0  0  0  0  0  0  0  0  0  0  0
    3.0178   10.0474   -1.8776 H   0  0  0  0  0  0  0  0  0  0  0  0
    4.0416   11.5235   -1.8776 H   0  0  0  0  0  0  0  0  0  0  0  0
    2.1078   12.0811    1.1153 H   0  0  0  0  0  0  0  0  0  0  0  0
    3.4199   12.9541    0.1401 H   0  0  0  0  0  0  0  0  0  0  0  0
    0.5538   13.8323    0.5830 H   0  0  0  0  0  0  0  0  0  0  0  0
    2.0760   14.6093    1.1710 H   0  0  0  0  0  0  0  0  0  0  0  0
    3.7359   15.2766   -0.2173 H   0  0  0  0  0  0  0  0  0  0  0  0
    3.6882   14.3471   -1.7537 H   0  0  0  0  0  0  0  0  0  0  0  0
    3.3063   16.1023   -1.7537 H   0  0  0  0  0  0  0  0  0  0  0  0
  1  2  1  0
  2  3  1  0
  3  4  1  0
  4  5  1  0
  5  6  1  0
  6  7  1  0
  7  8  1  0
  7  9  1  0
  2 10  1  0
 10 11  1  0
 11 12  1  0
 12 13  1  0
 13 14  1  1
 13 15  1  0
 15 16  1  0
 16 17  1  0
 17 18  2  0
 18 19  1  0
 19 20  1  0
 20 21  1  0
 21 22  1  0
 22 23  1  0
 22 24  1  0
 24 25  1  0
 24 26  1  0
 19 27  1  0
 27 28  1  6
 27 29  1  0
 29 30  1  0
 30 31  1  0
 31 32  1  6
  7  5  1  0
 31 10  1  0
 31 13  1  0
 27 15  1  0
 24 18  1  0
  1 33  1  0
  1 34  1  0
  1 35  1  0
  2 36  1  1
  3 37  1  0
  3 38  1  0
  4 39  1  0
  4 40  1  0
  5 41  1  1
  8 42  1  0
  8 43  1  0
  8 44  1  0
  9 45  1  0
  9 46  1  0
  9 47  1  0
 10 48  1  1
 11 49  1  0
 11 50  1  0
 12 51  1  0
 12 52  1  0
 14 53  1  0
 14 54  1  0
 14 55  1  0
 15 56  1  6
 16 57  1  0
 16 58  1  0
 17 59  1  0
 19 60  1  1
 20 61  1  0
 20 62  1  0
 21 63  1  0
 21 64  1  0
 22 65  1  1
 23 66  1  0
 25 67  1  0
 25 68  1  0
 25 69  1  0
 26 70  1  0
 26 71  1  0
 26 72  1  0
 28 73  1  0
 28 74  1  0
 28 75  1  0
 29 76  1  0
 29 77  1  0
 30 78  1  0
 30 79  1  0
 32 80  1  0
 32 81  1  0
 32 82  1  0
M  END
>  <meeko>  (4) 
{"is_sidechain": [false], "intermolecular_energy": 2.731, "internal_energy": -0.839}

$$$$
EPH_relaxed_0001_pdb2pqr_Repair_57_r2_0001_out
     RDKit          3D

 82 86  0  0  0  0  0  0  0  0999 V2000
    2.7780   18.2820    0.7300 C   0  0  0  0  0  0  0  0  0  0  0  0
    2.8150   17.3260   -0.4660 C   0  0  2  0  0  0  0  0  0  0  0  0
    2.5860   18.0590   -1.8030 C   0  0  0  0  0  0  0  0  0  0  0  0
    1.7450   19.3320   -1.6710 C   0  0  0  0  0  0  0  0  0  0  0  0
    0.2780   19.0380   -1.7530 C   0  0  2  0  0  0  0  0  0  0  0  0
   -0.5560   20.1940   -1.9060 O   0  0  0  0  0  0  0  0  0  0  0  0
   -0.7190   19.4520   -0.6860 C   0  0  0  0  0  0  0  0  0  0  0  0
   -0.2870   20.1940    0.5390 C   0  0  0  0  0  0  0  0  0  0  0  0
   -2.0190   18.7150   -0.5980 C   0  0  0  0  0  0  0  0  0  0  0  0
    1.7720   16.2300   -0.2880 C   0  0  1  0  0  0  0  0  0  0  0  0
    0.3280   16.7900   -0.1820 C   0  0  0  0  0  0  0  0  0  0  0  0
   -0.6030   15.7600   -0.8720 C   0  0  0  0  0  0  0  0  0  0  0  0
    0.2760   14.5000   -1.0530 C   0  0  1  0  0  0  0  0  0  0  0  0
    0.2460   13.7870    0.3350 C   0  0  0  0  0  0  0  0  0  0  0  0
   -0.1360   13.5310   -2.2090 C   0  0  2  0  0  0  0  0  0  0  0  0
   -1.5280   12.8930   -2.0610 C   0  0  0  0  0  0  0  0  0  0  0  0
   -1.5570   11.5880   -1.3350 C   0  0  0  0  0  0  0  0  0  0  0  0
   -0.4870   10.8150   -1.0730 C   0  0  0  0  0  0  0  0  0  0  0  0
    0.9030   11.1870   -1.6060 C   0  0  1  0  0  0  0  0  0  0  0  0
    1.5710    9.9320   -2.2270 C   0  0  0  0  0  0  0  0  0  0  0  0
    1.6130    8.7520   -1.2610 C   0  0  0  0  0  0  0  0  0  0  0  0
    0.2080    8.3760   -0.7980 C   0  0  2  0  0  0  0  0  0  0  0  0
   -0.5240    7.8660   -1.9160 O   0  0  0  0  0  0  0  0  0  0  0  0
   -0.5670    9.5650   -0.1630 C   0  0  0  0  0  0  0  0  0  0  0  0
    0.0580    9.9200    1.2090 C   0  0  0  0  0  0  0  0  0  0  0  0
   -2.0150    9.0880    0.1300 C   0  0  0  0  0  0  0  0  0  0  0  0
    0.9610   12.4490   -2.5700 C   0  0  1  0  0  0  0  0  0  0  0  0
    0.6860   12.0090   -4.0400 C   0  0  0  0  0  0  0  0  0  0  0  0
    2.4180   13.0450   -2.5490 C   0  0  0  0  0  0  0  0  0  0  0  0
    2.7280   14.0860   -1.4570 C   0  0  0  0  0  0  0  0  0  0  0  0
    1.6500   15.1730   -1.4140 C   0  0  2  0  0  0  0  0  0  0  0  0
    1.6720   15.9230   -2.7900 C   0  0  0  0  0  0  0  0  0  0  0  0
    2.8005   17.7016    1.6642 H   0  0  0  0  0  0  0  0  0  0  0  0
    3.6510   18.9502    0.6924 H   0  0  0  0  0  0  0  0  0  0  0  0
    1.8560   18.8808    0.6924 H   0  0  0  0  0  0  0  0  0  0  0  0
    3.8200   16.8804   -0.5019 H   0  0  0  0  0  0  0  0  0  0  0  0
    3.5659   18.3320   -2.2216 H   0  0  0  0  0  0  0  0  0  0  0  0
    2.0278   17.3712   -2.4552 H   0  0  0  0  0  0  0  0  0  0  0  0
    1.9606   19.8026   -0.7004 H   0  0  0  0  0  0  0  0  0  0  0  0
    2.0071   20.0038   -2.5017 H   0  0  0  0  0  0  0  0  0  0  0  0
    0.4742   18.0740   -2.2451 H   0  0  0  0  0  0  0  0  0  0  0  0
   -0.6084   19.6419    1.4345 H   0  0  0  0  0  0  0  0  0  0  0  0
    0.8087   20.2909    0.5416 H   0  0  0  0  0  0  0  0  0  0  0  0
   -0.7436   21.1947    0.5416 H   0  0  0  0  0  0  0  0  0  0  0  0
   -2.2844   18.5645    0.4589 H   0  0  0  0  0  0  0  0  0  0  0  0
   -2.8069   19.3008   -1.0941 H   0  0  0  0  0  0  0  0  0  0  0  0
   -1.9210   17.7381   -1.0941 H   0  0  0  0  0  0  0  0  0  0  0  0
    2.1556   15.7593    0.6292 H   0  0  0  0  0  0  0  0  0  0  0  0
    0.0444   16.9090    0.8741 H   0  0  0  0  0  0  0  0  0  0  0  0
    0.2507   17.7764   -0.6627 H   0  0  0  0  0  0  0  0  0  0  0  0
   -1.4741   15.5381   -0.2380 H   0  0  0  0  0  0  0  0  0  0  0  0
   -1.0011   16.1319   -1.8276 H   0  0  0  0  0  0  0  0  0  0  0  0
    0.2777   14.5410    1.1353 H   0  0  0  0  0  0  0  0  0  0  0  0
   -0.6778   13.1965    0.4240 H   0  0  0  0  0  0  0  0  0  0  0  0
    1.1169   13.1210    0.4240 H   0  0  0  0  0  0  0  0  0  0  0  0
   -0.2095   14.2104   -3.0710 H   0  0  0  0  0  0  0  0  0  0  0  0
   -2.1699   13.6001   -1.5151 H   0  0  0  0  0  0  0  0  0  0  0  0
   -1.8761   12.6810   -3.0827 H   0  0  0  0  0  0  0  0  0  0  0  0
   -2.5358   11.2283   -0.9849 H   0  0  0  0  0  0  0  0  0  0  0  0
    1.4825   11.5267   -0.7349 H   0  0  0  0  0  0  0  0  0  0  0  0
    1.0022    9.6358   -3.1207 H   0  0  0  0  0  0  0  0  0  0  0  0
    2.6093   10.1959   -2.4764 H   0  0  0  0  0  0  0  0  0  0  0  0
    2.0684    7.8882   -1.7674 H   0  0  0  0  0  0  0  0  0  0  0  0
    2.2075    9.0394   -0.3812 H   0  0  0  0  0  0  0  0  0  0  0  0
    0.3124    7.6147   -0.0109 H   0  0  0  0  0  0  0  0  0  0  0  0
   -0.8730    8.6270   -2.4110 H   0  0  0  0  0  0  0  0  0  0  0  0
   -0.5928    9.5503    2.0151 H   0  0  0  0  0  0  0  0  0  0  0  0
    1.0489    9.4499    1.2932 H   0  0  0  0  0  0  0  0  0  0  0  0
    0.1618   11.0119    1.2932 H   0  0  0  0  0  0  0  0  0  0  0  0
   -2.1711    9.0366    1.2177 H   0  0  0  0  0  0  0  0  0  0  0  0
   -2.7310    9.7978   -0.3100 H   0  0  0  0  0  0  0  0  0  0  0  0
   -2.1689    8.0917   -0.3100 H   0  0  0  0  0  0  0  0  0  0  0  0
    0.1030   11.0762   -4.0406 H   0  0  0  0  0  0  0  0  0  0  0  0
    0.1188   12.7962   -4.5584 H   0  0  0  0  0  0  0  0  0  0  0  0
    1.6421   11.8441   -4.5584 H   0  0  0  0  0  0  0  0  0  0  0  0
    3.1183   12.2069   -2.4179 H   0  0  0  0  0  0  0  0  0  0  0  0
    2.5203   13.5875   -3.5004 H   0  0  0  0  0  0  0  0  0  0  0  0
    2.7695   13.5816   -0.4804 H   0  0  0  0  0  0  0  0  0  0  0  0
    3.6940   14.5590   -1.6875 H   0  0  0  0  0  0  0  0  0  0  0  0
    1.7038   17.0086   -2.6154 H   0  0  0  0  0  0  0  0  0  0  0  0
    2.5616   15.6171   -3.3602 H   0  0  0  0  0  0  0  0  0  0  0  0
    0.7660   15.6697   -3.3602 H   0  0  0  0  0  0  0  0  0  0  0  0
  1  2  1  0
  2  3  1  0
  3  4  1  0
  4  5  1  0
  5  6  1  0
  6  7  1  0
  7  8  1  0
  7  9  1  0
  2 10  1  0
 10 11  1  0
 11 12  1  0
 12 13  1  0
 13 14  1  1
 13 15  1  0
 15 16  1  0
 16 17  1  0
 17 18  2  0
 18 19  1  0
 19 20  1  0
 20 21  1  0
 21 22  1  0
 22 23  1  0
 22 24  1  0
 24 25  1  0
 24 26  1  0
 19 27  1  0
 27 28  1  6
 27 29  1  0
 29 30  1  0
 30 31  1  0
 31 32  1  6
  7  5  1  0
 31 10  1  0
 31 13  1  0
 27 15  1  0
 24 18  1  0
  1 33  1  0
  1 34  1  0
  1 35  1  0
  2 36  1  6
  3 37  1  0
  3 38  1  0
  4 39  1  0
  4 40  1  0
  5 41  1  6
  8 42  1  0
  8 43  1  0
  8 44  1  0
  9 45  1  0
  9 46  1  0
  9 47  1  0
 10 48  1  1
 11 49  1  0
 11 50  1  0
 12 51  1  0
 12 52  1  0
 14 53  1  0
 14 54  1  0
 14 55  1  0
 15 56  1  6
 16 57  1  0
 16 58  1  0
 17 59  1  0
 19 60  1  1
 20 61  1  0
 20 62  1  0
 21 63  1  0
 21 64  1  0
 22 65  1  1
 23 66  1  0
 25 67  1  0
 25 68  1  0
 25 69  1  0
 26 70  1  0
 26 71  1  0
 26 72  1  0
 28 73  1  0
 28 74  1  0
 28 75  1  0
 29 76  1  0
 29 77  1  0
 30 78  1  0
 30 79  1  0
 32 80  1  0
 32 81  1  0
 32 82  1  0
M  END
>  <meeko>  (5) 
{"is_sidechain": [false], "intermolecular_energy": 2.731, "internal_energy": -0.839}

$$$$
EPH_relaxed_0001_pdb2pqr_Repair_57_r2_0001_out
     RDKit          3D

 82 86  0  0  0  0  0  0  0  0999 V2000
    0.4430    8.8110   -2.3690 C   0  0  0  0  0  0  0  0  0  0  0  0
    1.1860    9.9540   -3.0670 C   0  0  2  0  0  0  0  0  0  0  0  0
    2.6860    9.9740   -2.7120 C   0  0  0  0  0  0  0  0  0  0  0  0
    3.5700   10.5740   -3.8080 C   0  0  0  0  0  0  0  0  0  0  0  0
    4.9660   10.8200   -3.3220 C   0  0  2  0  0  0  0  0  0  0  0  0
    5.5570   12.0400   -3.7900 O   0  0  0  0  0  0  0  0  0  0  0  0
    6.1810   10.8230   -4.2320 C   0  0  0  0  0  0  0  0  0  0  0  0
    6.0550   10.5730   -5.7020 C   0  0  0  0  0  0  0  0  0  0  0  0
    7.5280   10.5820   -3.6260 C   0  0  0  0  0  0  0  0  0  0  0  0
    0.5460   11.2880   -2.7020 C   0  0  1  0  0  0  0  0  0  0  0  0
   -0.8280   11.1200   -2.0000 C   0  0  0  0  0  0  0  0  0  0  0  0
   -0.9410   12.2630   -0.9590 C   0  0  0  0  0  0  0  0  0  0  0  0
    0.2060   13.2360   -1.3210 C   0  0  1  0  0  0  0  0  0  0  0  0
   -0.3500   14.0880   -2.5040 C   0  0  0  0  0  0  0  0  0  0  0  0
    0.7390   14.1370   -0.1600 C   0  0  2  0  0  0  0  0  0  0  0  0
   -0.2900   15.1140    0.4330 C   0  0  0  0  0  0  0  0  0  0  0  0
   -0.3390   16.4590   -0.2130 C   0  0  0  0  0  0  0  0  0  0  0  0
    0.5990   16.9670   -1.0340 C   0  0  0  0  0  0  0  0  0  0  0  0
    1.9010   16.2030   -1.3100 C   0  0  1  0  0  0  0  0  0  0  0  0
    3.1060   17.1720   -1.1880 C   0  0  0  0  0  0  0  0  0  0  0  0
    2.9550   18.4070   -2.0720 C   0  0  0  0  0  0  0  0  0  0  0  0
    1.6800   19.1720   -1.7270 C   0  0  2  0  0  0  0  0  0  0  0  0
    1.8100   19.7150   -0.4100 O   0  0  0  0  0  0  0  0  0  0  0  0
    0.3990   18.2940   -1.8060 C   0  0  0  0  0  0  0  0  0  0  0  0
    0.0920   17.9540   -3.2850 C   0  0  0  0  0  0  0  0  0  0  0  0
   -0.7960   19.1460   -1.2990 C   0  0  0  0  0  0  0  0  0  0  0  0
    2.1080   14.8640   -0.4800 C   0  0  1  0  0  0  0  0  0  0  0  0
    2.7730   15.1860    0.8930 C   0  0  0  0  0  0  0  0  0  0  0  0
    3.1140   13.9310   -1.2530 C   0  0  0  0  0  0  0  0  0  0  0  0
    2.5120   12.9780   -2.3030 C   0  0  0  0  0  0  0  0  0  0  0  0
    1.3230   12.2050   -1.7240 C   0  0  2  0  0  0  0  0  0  0  0  0
    1.8550   11.3210   -0.5450 C   0  0  0  0  0  0  0  0  0  0  0  0
    0.5227    8.9336   -1.2788 H   0  0  0  0  0  0  0  0  0  0  0  0
   -0.6167    8.8287   -2.6635 H   0  0  0  0  0  0  0  0  0  0  0  0
    0.8894    7.8497   -2.6635 H   0  0  0  0  0  0  0  0  0  0  0  0
    1.1064    9.7876   -4.1514 H   0  0  0  0  0  0  0  0  0  0  0  0
    2.8180   10.5678   -1.7955 H   0  0  0  0  0  0  0  0  0  0  0  0
    2.9997    8.9276   -2.5831 H   0  0  0  0  0  0  0  0  0  0  0  0
    3.6062    9.8769   -4.6581 H   0  0  0  0  0  0  0  0  0  0  0  0
    3.1364   11.5394   -4.1078 H   0  0  0  0  0  0  0  0  0  0  0  0
    4.7536   10.2993   -2.3766 H   0  0  0  0  0  0  0  0  0  0  0  0
    5.5656    9.6020   -5.8682 H   0  0  0  0  0  0  0  0  0  0  0  0
    5.4513   11.3709   -6.1592 H   0  0  0  0  0  0  0  0  0  0  0  0
    7.0554   10.5624   -6.1592 H   0  0  0  0  0  0  0  0  0  0  0  0
    7.4446   10.5969   -2.5293 H   0  0  0  0  0  0  0  0  0  0  0  0
    7.9065    9.6019   -3.9517 H   0  0  0  0  0  0  0  0  0  0  0  0
    8.2229   11.3701   -3.9517 H   0  0  0  0  0  0  0  0  0  0  0  0
    0.5033   11.7509   -3.6990 H   0  0  0  0  0  0  0  0  0  0  0  0
   -1.6415   11.1966   -2.7364 H   0  0  0  0  0  0  0  0  0  0  0  0
   -0.9063   10.1355   -1.5157 H   0  0  0  0  0  0  0  0  0  0  0  0
   -1.9162   12.7657   -1.0386 H   0  0  0  0  0  0  0  0  0  0  0  0
   -0.8647   11.8946    0.0747 H   0  0  0  0  0  0  0  0  0  0  0  0
   -0.9104   14.9467   -2.1058 H   0  0  0  0  0  0  0  0  0  0  0  0
    0.4864   14.4498   -3.1201 H   0  0  0  0  0  0  0  0  0  0  0  0
   -1.0180   13.4681   -3.1201 H   0  0  0  0  0  0  0  0  0  0  0  0
    0.9447   13.4025    0.6326 H   0  0  0  0  0  0  0  0  0  0  0  0
   -1.2859   14.6561    0.3405 H   0  0  0  0  0  0  0  0  0  0  0  0
    0.0204   15.2877    1.4739 H   0  0  0  0  0  0  0  0  0  0  0  0
   -1.2158   17.0881   -0.0001 H   0  0  0  0  0  0  0  0  0  0  0  0
    1.8233   15.8328   -2.3429 H   0  0  0  0  0  0  0  0  0  0  0  0
    3.1930   17.4965   -0.1406 H   0  0  0  0  0  0  0  0  0  0  0  0
    4.0045   16.6313   -1.5200 H   0  0  0  0  0  0  0  0  0  0  0  0
    3.8225   19.0662   -1.9208 H   0  0  0  0  0  0  0  0  0  0  0  0
    2.8968   18.0827   -3.1215 H   0  0  0  0  0  0  0  0  0  0  0  0
    1.5610   19.9695   -2.4752 H   0  0  0  0  0  0  0  0  0  0  0  0
    1.1830   20.4540   -0.3330 H   0  0  0  0  0  0  0  0  0  0  0  0
   -0.6446   17.1382   -3.3284 H   0  0  0  0  0  0  0  0  0  0  0  0
   -0.3154   18.8430   -3.7887 H   0  0  0  0  0  0  0  0  0  0  0  0
    1.0179   17.6392   -3.7887 H   0  0  0  0  0  0  0  0  0  0  0  0
   -0.8025   19.1506   -0.1990 H   0  0  0  0  0  0  0  0  0  0  0  0
   -0.6947   20.1768   -1.6694 H   0  0  0  0  0  0  0  0  0  0  0  0
   -1.7375   18.7142   -1.6694 H   0  0  0  0  0  0  0  0  0  0  0  0
    2.1074   14.8637    1.7073 H   0  0  0  0  0  0  0  0  0  0  0  0
    3.7318   14.6524    0.9702 H   0  0  0  0  0  0  0  0  0  0  0  0
    2.9490   16.2691    0.9702 H   0  0  0  0  0  0  0  0  0  0  0  0
    3.8391   14.5782   -1.7682 H   0  0  0  0  0  0  0  0  0  0  0  0
    3.5465   13.2746   -0.4835 H   0  0  0  0  0  0  0  0  0  0  0  0
    2.1722   13.5651   -3.1690 H   0  0  0  0  0  0  0  0  0  0  0  0
    3.2852   12.2567   -2.6063 H   0  0  0  0  0  0  0  0  0  0  0  0
    1.5771   11.7828    0.4139 H   0  0  0  0  0  0  0  0  0  0  0  0
    1.4112   10.3166   -0.6106 H   0  0  0  0  0  0  0  0  0  0  0  0
    2.9503   11.2429   -0.6106 H   0  0  0  0  0  0  0  0  0  0  0  0
  1  2  1  0
  2  3  1  0
  3  4  1  0
  4  5  1  0
  5  6  1  0
  6  7  1  0
  7  8  1  0
  7  9  1  0
  2 10  1  0
 10 11  1  0
 11 12  1  0
 12 13  1  0
 13 14  1  6
 13 15  1  0
 15 16  1  0
 16 17  1  0
 17 18  2  0
 18 19  1  0
 19 20  1  0
 20 21  1  0
 21 22  1  0
 22 23  1  0
 22 24  1  0
 24 25  1  0
 24 26  1  0
 19 27  1  0
 27 28  1  1
 27 29  1  0
 29 30  1  0
 30 31  1  0
 31 32  1  1
  7  5  1  0
 31 10  1  0
 31 13  1  0
 27 15  1  0
 24 18  1  0
  1 33  1  0
  1 34  1  0
  1 35  1  0
  2 36  1  6
  3 37  1  0
  3 38  1  0
  4 39  1  0
  4 40  1  0
  5 41  1  1
  8 42  1  0
  8 43  1  0
  8 44  1  0
  9 45  1  0
  9 46  1  0
  9 47  1  0
 10 48  1  6
 11 49  1  0
 11 50  1  0
 12 51  1  0
 12 52  1  0
 14 53  1  0
 14 54  1  0
 14 55  1  0
 15 56  1  1
 16 57  1  0
 16 58  1  0
 17 59  1  0
 19 60  1  6
 20 61  1  0
 20 62  1  0
 21 63  1  0
 21 64  1  0
 22 65  1  6
 23 66  1  0
 25 67  1  0
 25 68  1  0
 25 69  1  0
 26 70  1  0
 26 71  1  0
 26 72  1  0
 28 73  1  0
 28 74  1  0
 28 75  1  0
 29 76  1  0
 29 77  1  0
 30 78  1  0
 30 79  1  0
 32 80  1  0
 32 81  1  0
 32 82  1  0
M  END
>  <meeko>  (6) 
{"is_sidechain": [false], "intermolecular_energy": 2.731, "internal_energy": -0.839}

$$$$
EPH_relaxed_0001_pdb2pqr_Repair_57_r2_0001_out
     RDKit          3D

 82 86  0  0  0  0  0  0  0  0999 V2000
   -0.2700   10.5620   -4.0970 C   0  0  0  0  0  0  0  0  0  0  0  0
    0.9170   10.3620   -3.1520 C   0  0  2  0  0  0  0  0  0  0  0  0
    0.8340    9.0250   -2.3900 C   0  0  0  0  0  0  0  0  0  0  0  0
   -0.5770    8.6770   -1.9080 C   0  0  0  0  0  0  0  0  0  0  0  0
   -0.7690    9.0200   -0.4620 C   0  0  2  0  0  0  0  0  0  0  0  0
   -2.1360    9.0370   -0.0280 O   0  0  0  0  0  0  0  0  0  0  0  0
   -1.4420   10.2950    0.0130 C   0  0  0  0  0  0  0  0  0  0  0  0
   -1.9640   11.3090   -0.9560 C   0  0  0  0  0  0  0  0  0  0  0  0
   -1.1550   10.7810    1.3990 C   0  0  0  0  0  0  0  0  0  0  0  0
    0.9960   11.5200   -2.1640 C   0  0  1  0  0  0  0  0  0  0  0  0
    2.0600   11.2910   -1.0580 C   0  0  0  0  0  0  0  0  0  0  0  0
    2.6700   12.6780   -0.7290 C   0  0  0  0  0  0  0  0  0  0  0  0
    1.7180   13.6930   -1.4060 C   0  0  1  0  0  0  0  0  0  0  0  0
    0.5220   13.8440   -0.4150 C   0  0  0  0  0  0  0  0  0  0  0  0
    2.3380   15.0790   -1.7790 C   0  0  2  0  0  0  0  0  0  0  0  0
    2.8440   15.9090   -0.5860 C   0  0  0  0  0  0  0  0  0  0  0  0
    1.8400   16.8360    0.0170 C   0  0  0  0  0  0  0  0  0  0  0  0
    0.6780   17.2060   -0.5510 C   0  0  0  0  0  0  0  0  0  0  0  0
    0.3180   16.7580   -1.9740 C   0  0  1  0  0  0  0  0  0  0  0  0
   -0.2090   17.9730   -2.7820 C   0  0  0  0  0  0  0  0  0  0  0  0
   -1.3650   18.6830   -2.0840 C   0  0  0  0  0  0  0  0  0  0  0  0
   -0.9500   19.1650   -0.6960 C   0  0  2  0  0  0  0  0  0  0  0  0
    0.0360   20.1920   -0.8410 O   0  0  0  0  0  0  0  0  0  0  0  0
   -0.3940   18.0290    0.2060 C   0  0  0  0  0  0  0  0  0  0  0  0
   -1.5440   17.0740    0.6100 C   0  0  0  0  0  0  0  0  0  0  0  0
    0.1180   18.6730    1.5230 C   0  0  0  0  0  0  0  0  0  0  0  0
    1.4430   15.9490   -2.7510 C   0  0  1  0  0  0  0  0  0  0  0  0
    2.4050   16.9390   -3.4760 C   0  0  0  0  0  0  0  0  0  0  0  0
    0.7670   15.0820   -3.8780 C   0  0  0  0  0  0  0  0  0  0  0  0
    0.2830   13.6760   -3.4770 C   0  0  0  0  0  0  0  0  0  0  0  0
    1.3790   12.9120   -2.7280 C   0  0  2  0  0  0  0  0  0  0  0  0
    2.5870   12.7250   -3.7080 C   0  0  0  0  0  0  0  0  0  0  0  0
   -1.1859   10.7163   -3.5077 H   0  0  0  0  0  0  0  0  0  0  0  0
   -0.0894   11.4424   -4.7313 H   0  0  0  0  0  0  0  0  0  0  0  0
   -0.3879    9.6711   -4.7313 H   0  0  0  0  0  0  0  0  0  0  0  0
    1.8284   10.3352   -3.7674 H   0  0  0  0  0  0  0  0  0  0  0  0
    1.1804    8.2226   -3.0580 H   0  0  0  0  0  0  0  0  0  0  0  0
    1.4636    9.1265   -1.4937 H   0  0  0  0  0  0  0  0  0  0  0  0
   -1.3075    9.2396   -2.5079 H   0  0  0  0  0  0  0  0  0  0  0  0
   -0.7219    7.5929   -2.0255 H   0  0  0  0  0  0  0  0  0  0  0  0
    0.1895    8.5493   -0.1979 H   0  0  0  0  0  0  0  0  0  0  0  0
   -2.3992   12.1545   -0.4031 H   0  0  0  0  0  0  0  0  0  0  0  0
   -1.1397   11.6700   -1.5886 H   0  0  0  0  0  0  0  0  0  0  0  0
   -2.7368   10.8478   -1.5886 H   0  0  0  0  0  0  0  0  0  0  0  0
   -1.5731   10.0730    2.1297 H   0  0  0  0  0  0  0  0  0  0  0  0
   -0.0671   10.8569    1.5430 H   0  0  0  0  0  0  0  0  0  0  0  0
   -1.6138   11.7703    1.5430 H   0  0  0  0  0  0  0  0  0  0  0  0
   -0.0455   11.5309   -1.8102 H   0  0  0  0  0  0  0  0  0  0  0  0
    1.5881   10.8626   -0.1615 H   0  0  0  0  0  0  0  0  0  0  0  0
    2.8361   10.5887   -1.3964 H   0  0  0  0  0  0  0  0  0  0  0  0
    2.7013   12.8405    0.3585 H   0  0  0  0  0  0  0  0  0  0  0  0
    3.7056   12.7741   -1.0872 H   0  0  0  0  0  0  0  0  0  0  0  0
    0.8944   13.7970    0.6190 H   0  0  0  0  0  0  0  0  0  0  0  0
    0.0268   14.8118   -0.5827 H   0  0  0  0  0  0  0  0  0  0  0  0
   -0.1982   13.0297   -0.5827 H   0  0  0  0  0  0  0  0  0  0  0  0
    3.2361   14.7915   -2.3453 H   0  0  0  0  0  0  0  0  0  0  0  0
    3.1761   15.2115    0.1970 H   0  0  0  0  0  0  0  0  0  0  0  0
    3.6500   16.5464   -0.9784 H   0  0  0  0  0  0  0  0  0  0  0  0
    2.0702   17.2512    1.0093 H   0  0  0  0  0  0  0  0  0  0  0  0
   -0.4802   16.0090   -1.8646 H   0  0  0  0  0  0  0  0  0  0  0  0
    0.6143   18.6897   -2.9182 H   0  0  0  0  0  0  0  0  0  0  0  0
   -0.5818   17.5965   -3.7460 H   0  0  0  0  0  0  0  0  0  0  0  0
   -1.6736   19.5487   -2.6885 H   0  0  0  0  0  0  0  0  0  0  0  0
   -2.1986   17.9737   -1.9750 H   0  0  0  0  0  0  0  0  0  0  0  0
   -1.8518   19.5481   -0.1960 H   0  0  0  0  0  0  0  0  0  0  0  0
   -0.1970   20.9110   -0.2290 H   0  0  0  0  0  0  0  0  0  0  0  0
   -1.6081   17.0207    1.7068 H   0  0  0  0  0  0  0  0  0  0  0  0
   -2.4942   17.4524    0.2051 H   0  0  0  0  0  0  0  0  0  0  0  0
   -1.3466   16.0705    0.2051 H   0  0  0  0  0  0  0  0  0  0  0  0
   -0.3085   18.1366    2.3834 H   0  0  0  0  0  0  0  0  0  0  0  0
    1.2156   18.6104    1.5592 H   0  0  0  0  0  0  0  0  0  0  0  0
   -0.1905   19.7282    1.5592 H   0  0  0  0  0  0  0  0  0  0  0  0
    2.9673   17.5176   -2.7283 H   0  0  0  0  0  0  0  0  0  0  0  0
    3.1073   16.3730   -4.1056 H   0  0  0  0  0  0  0  0  0  0  0  0
    1.8191   17.6248   -4.1056 H   0  0  0  0  0  0  0  0  0  0  0  0
   -0.1048   15.6405   -4.2495 H   0  0  0  0  0  0  0  0  0  0  0  0
    1.5579   14.9121   -4.6234 H   0  0  0  0  0  0  0  0  0  0  0  0
   -0.5986   13.7710   -2.8260 H   0  0  0  0  0  0  0  0  0  0  0  0
    0.0287   13.1187   -4.3906 H   0  0  0  0  0  0  0  0  0  0  0  0
    3.5108   12.5820   -3.1282 H   0  0  0  0  0  0  0  0  0  0  0  0
    2.4118   11.8433   -4.3419 H   0  0  0  0  0  0  0  0  0  0  0  0
    2.6866   13.6184   -4.3419 H   0  0  0  0  0  0  0  0  0  0  0  0
  1  2  1  0
  2  3  1  0
  3  4  1  0
  4  5  1  0
  5  6  1  0
  6  7  1  0
  7  8  1  0
  7  9  1  0
  2 10  1  0
 10 11  1  0
 11 12  1  0
 12 13  1  0
 13 14  1  1
 13 15  1  0
 15 16  1  0
 16 17  1  0
 17 18  2  0
 18 19  1  0
 19 20  1  0
 20 21  1  0
 21 22  1  0
 22 23  1  0
 22 24  1  0
 24 25  1  0
 24 26  1  0
 19 27  1  0
 27 28  1  6
 27 29  1  0
 29 30  1  0
 30 31  1  0
 31 32  1  6
  7  5  1  0
 31 10  1  0
 31 13  1  0
 27 15  1  0
 24 18  1  0
  1 33  1  0
  1 34  1  0
  1 35  1  0
  2 36  1  6
  3 37  1  0
  3 38  1  0
  4 39  1  0
  4 40  1  0
  5 41  1  1
  8 42  1  0
  8 43  1  0
  8 44  1  0
  9 45  1  0
  9 46  1  0
  9 47  1  0
 10 48  1  1
 11 49  1  0
 11 50  1  0
 12 51  1  0
 12 52  1  0
 14 53  1  0
 14 54  1  0
 14 55  1  0
 15 56  1  6
 16 57  1  0
 16 58  1  0
 17 59  1  0
 19 60  1  1
 20 61  1  0
 20 62  1  0
 21 63  1  0
 21 64  1  0
 22 65  1  1
 23 66  1  0
 25 67  1  0
 25 68  1  0
 25 69  1  0
 26 70  1  0
 26 71  1  0
 26 72  1  0
 28 73  1  0
 28 74  1  0
 28 75  1  0
 29 76  1  0
 29 77  1  0
 30 78  1  0
 30 79  1  0
 32 80  1  0
 32 81  1  0
 32 82  1  0
M  END
>  <meeko>  (7) 
{"is_sidechain": [false], "intermolecular_energy": 2.731, "internal_energy": -0.839}

$$$$
EPH_relaxed_0001_pdb2pqr_Repair_57_r2_0001_out
     RDKit          3D

 82 86  0  0  0  0  0  0  0  0999 V2000
    2.7220   19.0520   -1.0950 C   0  0  0  0  0  0  0  0  0  0  0  0
    2.4540   18.0190   -2.1930 C   0  0  2  0  0  0  0  0  0  0  0  0
    1.0220   18.1260   -2.7540 C   0  0  0  0  0  0  0  0  0  0  0  0
    0.2780   19.3860   -2.3050 C   0  0  0  0  0  0  0  0  0  0  0  0
   -1.0490   19.0570   -1.6920 C   0  0  2  0  0  0  0  0  0  0  0  0
   -1.8810   20.1930   -1.4190 O   0  0  0  0  0  0  0  0  0  0  0  0
   -1.4350   19.4440   -0.2760 C   0  0  0  0  0  0  0  0  0  0  0  0
   -0.4930   20.1940    0.6120 C   0  0  0  0  0  0  0  0  0  0  0  0
   -2.5260   18.6760    0.4030 C   0  0  0  0  0  0  0  0  0  0  0  0
    2.6990   16.6140   -1.6550 C   0  0  1  0  0  0  0  0  0  0  0  0
    3.5090   16.6140   -0.3310 C   0  0  0  0  0  0  0  0  0  0  0  0
    2.9680   15.4390    0.5240 C   0  0  0  0  0  0  0  0  0  0  0  0
    2.1090   14.6060   -0.4570 C   0  0  1  0  0  0  0  0  0  0  0  0
    3.1330   13.7290   -1.2420 C   0  0  0  0  0  0  0  0  0  0  0  0
    0.9760   13.7380    0.1830 C   0  0  2  0  0  0  0  0  0  0  0  0
    1.4600   12.6400    1.1450 C   0  0  0  0  0  0  0  0  0  0  0  0
    1.7340   11.3150    0.5150 C   0  0  0  0  0  0  0  0  0  0  0  0
    1.3300   10.9330   -0.7110 C   0  0  0  0  0  0  0  0  0  0  0  0
    0.4320   11.8410   -1.5620 C   0  0  1  0  0  0  0  0  0  0  0  0
   -0.7300   11.0060   -2.1610 C   0  0  0  0  0  0  0  0  0  0  0  0
   -0.2360    9.7850   -2.9320 C   0  0  0  0  0  0  0  0  0  0  0  0
    0.6040    8.8780   -2.0360 C   0  0  2  0  0  0  0  0  0  0  0  0
   -0.2410    8.3180   -1.0260 O   0  0  0  0  0  0  0  0  0  0  0  0
    1.8000    9.6130   -1.3690 C   0  0  0  0  0  0  0  0  0  0  0  0
    2.8640    9.9550   -2.4410 C   0  0  0  0  0  0  0  0  0  0  0  0
    2.4790    8.6230   -0.3840 C   0  0  0  0  0  0  0  0  0  0  0  0
   -0.0730   13.1730   -0.8590 C   0  0  1  0  0  0  0  0  0  0  0  0
   -1.3830   12.8900   -0.0610 C   0  0  0  0  0  0  0  0  0  0  0  0
   -0.4470   14.2290   -1.9650 C   0  0  0  0  0  0  0  0  0  0  0  0
    0.6900   15.1380   -2.4700 C   0  0  0  0  0  0  0  0  0  0  0  0
    1.4550   15.7620   -1.2990 C   0  0  2  0  0  0  0  0  0  0  0  0
    0.4550   16.6680   -0.5030 C   0  0  0  0  0  0  0  0  0  0  0  0
    2.5994   18.5795   -0.1092 H   0  0  0  0  0  0  0  0  0  0  0  0
    3.7489   19.4338   -1.1935 H   0  0  0  0  0  0  0  0  0  0  0  0
    2.0102   19.8848   -1.1935 H   0  0  0  0  0  0  0  0  0  0  0  0
    3.1487   18.2271   -3.0201 H   0  0  0  0  0  0  0  0  0  0  0  0
    1.0787   18.1290   -3.8525 H   0  0  0  0  0  0  0  0  0  0  0  0
    0.4592   17.2646   -2.3652 H   0  0  0  0  0  0  0  0  0  0  0  0
    0.8919   19.9170   -1.5625 H   0  0  0  0  0  0  0  0  0  0  0  0
    0.1005   20.0135   -3.1909 H   0  0  0  0  0  0  0  0  0  0  0  0
   -1.0878   18.0994   -2.2319 H   0  0  0  0  0  0  0  0  0  0  0  0
   -0.7437   19.9944    1.6643 H   0  0  0  0  0  0  0  0  0  0  0  0
    0.5381   19.8669    0.4123 H   0  0  0  0  0  0  0  0  0  0  0  0
   -0.5808   21.2722    0.4123 H   0  0  0  0  0  0  0  0  0  0  0  0
   -2.4086   18.7587    1.4936 H   0  0  0  0  0  0  0  0  0  0  0  0
   -3.5025   19.0869    0.1072 H   0  0  0  0  0  0  0  0  0  0  0  0
   -2.4685   17.6181    0.1072 H   0  0  0  0  0  0  0  0  0  0  0  0
    3.2212   16.1746   -2.5177 H   0  0  0  0  0  0  0  0  0  0  0  0
    4.5788   16.4683   -0.5414 H   0  0  0  0  0  0  0  0  0  0  0  0
    3.3995   17.5716    0.1992 H   0  0  0  0  0  0  0  0  0  0  0  0
    3.7965   14.8357    0.9234 H   0  0  0  0  0  0  0  0  0  0  0  0
    2.3901   15.7867    1.3929 H   0  0  0  0  0  0  0  0  0  0  0  0
    3.7700   13.1834   -0.5303 H   0  0  0  0  0  0  0  0  0  0  0  0
    2.5913   13.0104   -1.8746 H   0  0  0  0  0  0  0  0  0  0  0  0
    3.7597   14.3748   -1.8746 H   0  0  0  0  0  0  0  0  0  0  0  0
    0.4430   14.4688    0.8090 H   0  0  0  0  0  0  0  0  0  0  0  0
    2.3889   12.9892    1.6194 H   0  0  0  0  0  0  0  0  0  0  0  0
    0.6371   12.4743    1.8559 H   0  0  0  0  0  0  0  0  0  0  0  0
    2.3154   10.5890    1.1023 H   0  0  0  0  0  0  0  0  0  0  0  0
    1.0699   12.2269   -2.3708 H   0  0  0  0  0  0  0  0  0  0  0  0
   -1.3794   10.6662   -1.3408 H   0  0  0  0  0  0  0  0  0  0  0  0
   -1.2741   11.6497   -2.8678 H   0  0  0  0  0  0  0  0  0  0  0  0
   -1.1028    9.2198   -3.3052 H   0  0  0  0  0  0  0  0  0  0  0  0
    0.3890   10.1276   -3.7699 H   0  0  0  0  0  0  0  0  0  0  0  0
    1.0356    8.0923   -2.6734 H   0  0  0  0  0  0  0  0  0  0  0  0
   -0.3020    7.3610   -1.1910 H   0  0  0  0  0  0  0  0  0  0  0  0
    3.7994   10.2557   -1.9464 H   0  0  0  0  0  0  0  0  0  0  0  0
    3.0490    9.0711   -3.0690 H   0  0  0  0  0  0  0  0  0  0  0  0
    2.4994   10.7812   -3.0690 H   0  0  0  0  0  0  0  0  0  0  0  0
    2.2672    8.9317    0.6503 H   0  0  0  0  0  0  0  0  0  0  0  0
    2.0847    7.6100   -0.5523 H   0  0  0  0  0  0  0  0  0  0  0  0
    3.5660    8.6260   -0.5523 H   0  0  0  0  0  0  0  0  0  0  0  0
   -1.1723   12.9355    1.0177 H   0  0  0  0  0  0  0  0  0  0  0  0
   -2.1399   13.6453   -0.3190 H   0  0  0  0  0  0  0  0  0  0  0  0
   -1.7606   11.8896   -0.3190 H   0  0  0  0  0  0  0  0  0  0  0  0
   -0.8423   13.6780   -2.8311 H   0  0  0  0  0  0  0  0  0  0  0  0
   -1.1661   14.9079   -1.4835 H   0  0  0  0  0  0  0  0  0  0  0  0
    1.3861   14.5401   -3.0766 H   0  0  0  0  0  0  0  0  0  0  0  0
    0.2508   15.9468   -3.0724 H   0  0  0  0  0  0  0  0  0  0  0  0
    0.6115   16.5262    0.5765 H   0  0  0  0  0  0  0  0  0  0  0  0
    0.6287   17.7225   -0.7633 H   0  0  0  0  0  0  0  0  0  0  0  0
   -0.5773   16.3913   -0.7633 H   0  0  0  0  0  0  0  0  0  0  0  0
  1  2  1  0
  2  3  1  0
  3  4  1  0
  4  5  1  0
  5  6  1  0
  6  7  1  0
  7  8  1  0
  7  9  1  0
  2 10  1  0
 10 11  1  0
 11 12  1  0
 12 13  1  0
 13 14  1  6
 13 15  1  0
 15 16  1  0
 16 17  1  0
 17 18  2  0
 18 19  1  0
 19 20  1  0
 20 21  1  0
 21 22  1  0
 22 23  1  0
 22 24  1  0
 24 25  1  0
 24 26  1  0
 19 27  1  0
 27 28  1  1
 27 29  1  0
 29 30  1  0
 30 31  1  0
 31 32  1  1
  7  5  1  0
 31 10  1  0
 31 13  1  0
 27 15  1  0
 24 18  1  0
  1 33  1  0
  1 34  1  0
  1 35  1  0
  2 36  1  6
  3 37  1  0
  3 38  1  0
  4 39  1  0
  4 40  1  0
  5 41  1  6
  8 42  1  0
  8 43  1  0
  8 44  1  0
  9 45  1  0
  9 46  1  0
  9 47  1  0
 10 48  1  6
 11 49  1  0
 11 50  1  0
 12 51  1  0
 12 52  1  0
 14 53  1  0
 14 54  1  0
 14 55  1  0
 15 56  1  1
 16 57  1  0
 16 58  1  0
 17 59  1  0
 19 60  1  6
 20 61  1  0
 20 62  1  0
 21 63  1  0
 21 64  1  0
 22 65  1  6
 23 66  1  0
 25 67  1  0
 25 68  1  0
 25 69  1  0
 26 70  1  0
 26 71  1  0
 26 72  1  0
 28 73  1  0
 28 74  1  0
 28 75  1  0
 29 76  1  0
 29 77  1  0
 30 78  1  0
 30 79  1  0
 32 80  1  0
 32 81  1  0
 32 82  1  0
M  END
>  <meeko>  (8) 
{"is_sidechain": [false], "intermolecular_energy": 2.731, "internal_energy": -0.839}

$$$$
EPH_relaxed_0001_pdb2pqr_Repair_57_r2_0001_out
     RDKit          3D

 82 86  0  0  0  0  0  0  0  0999 V2000
   -0.8580   16.3460   -5.8450 C   0  0  0  0  0  0  0  0  0  0  0  0
    0.2260   15.6380   -6.6620 C   0  0  2  0  0  0  0  0  0  0  0  0
   -0.1870   15.4540   -8.1370 C   0  0  0  0  0  0  0  0  0  0  0  0
    0.4400   16.4800   -9.0840 C   0  0  0  0  0  0  0  0  0  0  0  0
    1.8470   16.1120   -9.4480 C   0  0  2  0  0  0  0  0  0  0  0  0
    2.3120   16.6750  -10.6820 O   0  0  0  0  0  0  0  0  0  0  0  0
    2.2020   15.2430  -10.6400 C   0  0  0  0  0  0  0  0  0  0  0  0
    1.1460   14.6870  -11.5430 C   0  0  0  0  0  0  0  0  0  0  0  0
    3.5220   14.5370  -10.6420 C   0  0  0  0  0  0  0  0  0  0  0  0
    0.5470   14.2850   -6.0380 C   0  0  1  0  0  0  0  0  0  0  0  0
    1.8070   13.6250   -6.6580 C   0  0  0  0  0  0  0  0  0  0  0  0
    2.5200   12.8600   -5.5130 C   0  0  0  0  0  0  0  0  0  0  0  0
    1.4860   12.8260   -4.3640 C   0  0  1  0  0  0  0  0  0  0  0  0
    0.5270   11.6490   -4.7220 C   0  0  0  0  0  0  0  0  0  0  0  0
    2.0650   12.6800   -2.9180 C   0  0  2  0  0  0  0  0  0  0  0  0
    2.8340   11.3740   -2.6530 C   0  0  0  0  0  0  0  0  0  0  0  0
    2.0100   10.2420   -2.1350 C   0  0  0  0  0  0  0  0  0  0  0  0
    0.7690   10.3480   -1.6240 C   0  0  0  0  0  0  0  0  0  0  0  0
    0.1080   11.7200   -1.4390 C   0  0  1  0  0  0  0  0  0  0  0  0
   -0.5320   11.8000   -0.0280 C   0  0  0  0  0  0  0  0  0  0  0  0
   -1.4930   10.6480    0.2460 C   0  0  0  0  0  0  0  0  0  0  0  0
   -0.7840    9.3030    0.1090 C   0  0  2  0  0  0  0  0  0  0  0  0
    0.1860    9.1840    1.1530 O   0  0  0  0  0  0  0  0  0  0  0  0
   -0.0940    9.1120   -1.2700 C   0  0  0  0  0  0  0  0  0  0  0  0
   -1.1690    8.9380   -2.3710 C   0  0  0  0  0  0  0  0  0  0  0  0
    0.7010    7.7790   -1.2260 C   0  0  0  0  0  0  0  0  0  0  0  0
    1.0190   12.9790   -1.7690 C   0  0  1  0  0  0  0  0  0  0  0  0
    1.8460   13.3820   -0.5090 C   0  0  0  0  0  0  0  0  0  0  0  0
    0.0950   14.2090   -2.1050 C   0  0  0  0  0  0  0  0  0  0  0  0
   -0.3450   14.3660   -3.5730 C   0  0  0  0  0  0  0  0  0  0  0  0
    0.8540   14.2570   -4.5200 C   0  0  2  0  0  0  0  0  0  0  0  0
    1.8270   15.4420   -4.1980 C   0  0  0  0  0  0  0  0  0  0  0  0
   -0.6542   16.2129   -4.7723 H   0  0  0  0  0  0  0  0  0  0  0  0
   -0.8582   17.4189   -6.0879 H   0  0  0  0  0  0  0  0  0  0  0  0
   -1.8404   15.9149   -6.0879 H   0  0  0  0  0  0  0  0  0  0  0  0
    1.1221   16.2757   -6.6467 H   0  0  0  0  0  0  0  0  0  0  0  0
    0.1207   14.4488   -8.4610 H   0  0  0  0  0  0  0  0  0  0  0  0
   -1.2768   15.5954   -8.1858 H   0  0  0  0  0  0  0  0  0  0  0  0
   -0.1634   16.5330  -10.0022 H   0  0  0  0  0  0  0  0  0  0  0  0
    0.4621   17.4522   -8.5699 H   0  0  0  0  0  0  0  0  0  0  0  0
    2.1344   16.0626   -8.3873 H   0  0  0  0  0  0  0  0  0  0  0  0
    0.3336   14.2592  -10.9372 H   0  0  0  0  0  0  0  0  0  0  0  0
    0.7457   15.4913  -12.1778 H   0  0  0  0  0  0  0  0  0  0  0  0
    1.5826   13.9018  -12.1778 H   0  0  0  0  0  0  0  0  0  0  0  0
    3.8465   14.3634   -9.6054 H   0  0  0  0  0  0  0  0  0  0  0  0
    3.4211   13.5724  -11.1610 H   0  0  0  0  0  0  0  0  0  0  0  0
    4.2683   15.1564  -11.1610 H   0  0  0  0  0  0  0  0  0  0  0  0
   -0.3982   13.7599   -6.2401 H   0  0  0  0  0  0  0  0  0  0  0  0
    1.5150   12.9265   -7.4560 H   0  0  0  0  0  0  0  0  0  0  0  0
    2.4714   14.3811   -7.1017 H   0  0  0  0  0  0  0  0  0  0  0  0
    2.7808   11.8398   -5.8311 H   0  0  0  0  0  0  0  0  0  0  0  0
    3.4620   13.3420   -5.2125 H   0  0  0  0  0  0  0  0  0  0  0  0
    0.1512   11.1878   -3.7967 H   0  0  0  0  0  0  0  0  0  0  0  0
   -0.3195   12.0319   -5.3109 H   0  0  0  0  0  0  0  0  0  0  0  0
    1.0730   10.8973   -5.3109 H   0  0  0  0  0  0  0  0  0  0  0  0
    2.8171   13.4819   -2.8813 H   0  0  0  0  0  0  0  0  0  0  0  0
    3.2954   11.0535   -3.5987 H   0  0  0  0  0  0  0  0  0  0  0  0
    3.5634   11.6056   -1.8628 H   0  0  0  0  0  0  0  0  0  0  0  0
    2.4543    9.2365   -2.1742 H   0  0  0  0  0  0  0  0  0  0  0  0
   -0.6754   11.7866   -2.2083 H   0  0  0  0  0  0  0  0  0  0  0  0
    0.2700   11.7764    0.7245 H   0  0  0  0  0  0  0  0  0  0  0  0
   -1.1092   12.7350    0.0236 H   0  0  0  0  0  0  0  0  0  0  0  0
   -1.8885   10.7442    1.2679 H   0  0  0  0  0  0  0  0  0  0  0  0
   -2.3111   10.6905   -0.4881 H   0  0  0  0  0  0  0  0  0  0  0  0
   -1.5499    8.5174    0.1878 H   0  0  0  0  0  0  0  0  0  0  0  0
    0.1350    9.9900    1.6950 H   0  0  0  0  0  0  0  0  0  0  0  0
   -2.1514    8.7790   -1.9024 H   0  0  0  0  0  0  0  0  0  0  0  0
   -1.2031    9.8423   -2.9963 H   0  0  0  0  0  0  0  0  0  0  0  0
   -0.9161    8.0691   -2.9963 H   0  0  0  0  0  0  0  0  0  0  0  0
    0.8737    7.4895   -0.1789 H   0  0  0  0  0  0  0  0  0  0  0  0
    0.1249    6.9915   -1.7339 H   0  0  0  0  0  0  0  0  0  0  0  0
    1.6676    7.9116   -1.7339 H   0  0  0  0  0  0  0  0  0  0  0  0
    1.2874   13.1098    0.3987 H   0  0  0  0  0  0  0  0  0  0  0  0
    2.8103   12.8528   -0.5186 H   0  0  0  0  0  0  0  0  0  0  0  0
    2.0234   14.4676   -0.5186 H   0  0  0  0  0  0  0  0  0  0  0  0
   -0.8144   14.1193   -1.4927 H   0  0  0  0  0  0  0  0  0  0  0  0
    0.7083   15.0968   -1.8916 H   0  0  0  0  0  0  0  0  0  0  0  0
   -1.0698   13.5756   -3.8178 H   0  0  0  0  0  0  0  0  0  0  0  0
   -0.8011   15.3592   -3.6979 H   0  0  0  0  0  0  0  0  0  0  0  0
    1.9195   15.5546   -3.1077 H   0  0  0  0  0  0  0  0  0  0  0  0
    2.8165   15.2317   -4.6301 H   0  0  0  0  0  0  0  0  0  0  0  0
    1.4282   16.3716   -4.6301 H   0  0  0  0  0  0  0  0  0  0  0  0
  1  2  1  0
  2  3  1  0
  3  4  1  0
  4  5  1  0
  5  6  1  0
  6  7  1  0
  7  8  1  0
  7  9  1  0
  2 10  1  0
 10 11  1  0
 11 12  1  0
 12 13  1  0
 13 14  1  6
 13 15  1  0
 15 16  1  0
 16 17  1  0
 17 18  2  0
 18 19  1  0
 19 20  1  0
 20 21  1  0
 21 22  1  0
 22 23  1  0
 22 24  1  0
 24 25  1  0
 24 26  1  0
 19 27  1  0
 27 28  1  1
 27 29  1  0
 29 30  1  0
 30 31  1  0
 31 32  1  1
  7  5  1  0
 31 10  1  0
 31 13  1  0
 27 15  1  0
 24 18  1  0
  1 33  1  0
  1 34  1  0
  1 35  1  0
  2 36  1  6
  3 37  1  0
  3 38  1  0
  4 39  1  0
  4 40  1  0
  5 41  1  1
  8 42  1  0
  8 43  1  0
  8 44  1  0
  9 45  1  0
  9 46  1  0
  9 47  1  0
 10 48  1  1
 11 49  1  0
 11 50  1  0
 12 51  1  0
 12 52  1  0
 14 53  1  0
 14 54  1  0
 14 55  1  0
 15 56  1  6
 16 57  1  0
 16 58  1  0
 17 59  1  0
 19 60  1  6
 20 61  1  0
 20 62  1  0
 21 63  1  0
 21 64  1  0
 22 65  1  1
 23 66  1  0
 25 67  1  0
 25 68  1  0
 25 69  1  0
 26 70  1  0
 26 71  1  0
 26 72  1  0
 28 73  1  0
 28 74  1  0
 28 75  1  0
 29 76  1  0
 29 77  1  0
 30 78  1  0
 30 79  1  0
 32 80  1  0
 32 81  1  0
 32 82  1  0
M  END
>  <meeko>  (9) 
{"is_sidechain": [false], "intermolecular_energy": 2.731, "internal_energy": -0.839}

$$$$
EPH_relaxed_0001_pdb2pqr_Repair_57_r2_0001_out
     RDKit          3D

 82 86  0  0  0  0  0  0  0  0999 V2000
   -1.9050    7.8230   -2.1030 C   0  0  0  0  0  0  0  0  0  0  0  0
   -2.1380    8.5340   -0.7680 C   0  0  2  0  0  0  0  0  0  0  0  0
   -3.6290    8.5650   -0.3780 C   0  0  0  0  0  0  0  0  0  0  0  0
   -4.5320    7.7840   -1.3370 C   0  0  0  0  0  0  0  0  0  0  0  0
   -5.7030    7.1770   -0.6260 C   0  0  2  0  0  0  0  0  0  0  0  0
   -6.3010    6.0620   -1.3000 O   0  0  0  0  0  0  0  0  0  0  0  0
   -7.1240    7.2310   -1.1570 C   0  0  0  0  0  0  0  0  0  0  0  0
   -7.4480    7.9090   -2.4520 C   0  0  0  0  0  0  0  0  0  0  0  0
   -8.2550    7.0580   -0.1930 C   0  0  0  0  0  0  0  0  0  0  0  0
   -1.5880    9.9540   -0.8330 C   0  0  1  0  0  0  0  0  0  0  0  0
   -1.0810   10.4630    0.5440 C   0  0  0  0  0  0  0  0  0  0  0  0
    0.1460   11.3670    0.2630 C   0  0  0  0  0  0  0  0  0  0  0  0
    0.1050   11.6170   -1.2630 C   0  0  1  0  0  0  0  0  0  0  0  0
   -0.9400   12.7610   -1.4540 C   0  0  0  0  0  0  0  0  0  0  0  0
    1.4690   11.9630   -1.9440 C   0  0  2  0  0  0  0  0  0  0  0  0
    2.1310   13.2640   -1.4560 C   0  0  0  0  0  0  0  0  0  0  0  0
    1.7600   14.4930   -2.2190 C   0  0  0  0  0  0  0  0  0  0  0  0
    1.1580   14.5140   -3.4230 C   0  0  0  0  0  0  0  0  0  0  0  0
    0.8750   13.2130   -4.1850 C   0  0  1  0  0  0  0  0  0  0  0  0
    1.3120   13.3760   -5.6650 C   0  0  0  0  0  0  0  0  0  0  0  0
    0.6770   14.5920   -6.3320 C   0  0  0  0  0  0  0  0  0  0  0  0
    1.0280   15.8720   -5.5780 C   0  0  2  0  0  0  0  0  0  0  0  0
    2.4320   16.1140   -5.7080 O   0  0  0  0  0  0  0  0  0  0  0  0
    0.6440   15.8220   -4.0730 C   0  0  0  0  0  0  0  0  0  0  0  0
   -0.8980   15.8650   -3.9270 C   0  0  0  0  0  0  0  0  0  0  0  0
    1.1790   17.1150   -3.4000 C   0  0  0  0  0  0  0  0  0  0  0  0
    1.4440   11.8840   -3.5240 C   0  0  1  0  0  0  0  0  0  0  0  0
    2.9160   11.6500   -3.9820 C   0  0  0  0  0  0  0  0  0  0  0  0
    0.6140   10.6530   -4.0490 C   0  0  0  0  0  0  0  0  0  0  0  0
   -0.6600   10.2890   -3.2630 C   0  0  0  0  0  0  0  0  0  0  0  0
   -0.3720   10.2040   -1.7610 C   0  0  2  0  0  0  0  0  0  0  0  0
    0.6600    9.0470   -1.5350 C   0  0  0  0  0  0  0  0  0  0  0  0
   -1.5674    6.7929   -1.9158 H   0  0  0  0  0  0  0  0  0  0  0  0
   -2.8435    7.8028   -2.6764 H   0  0  0  0  0  0  0  0  0  0  0  0
   -1.1366    8.3622   -2.6764 H   0  0  0  0  0  0  0  0  0  0  0  0
   -1.6060    7.9633    0.0074 H   0  0  0  0  0  0  0  0  0  0  0  0
   -3.7340    8.1324    0.6279 H   0  0  0  0  0  0  0  0  0  0  0  0
   -3.9502    9.6163   -0.4181 H   0  0  0  0  0  0  0  0  0  0  0  0
   -4.9027    8.4684   -2.1143 H   0  0  0  0  0  0  0  0  0  0  0  0
   -3.9394    6.9693   -1.7786 H   0  0  0  0  0  0  0  0  0  0  0  0
   -5.2706    7.4319    0.3528 H   0  0  0  0  0  0  0  0  0  0  0  0
   -7.9141    8.8844   -2.2486 H   0  0  0  0  0  0  0  0  0  0  0  0
   -6.5236    8.0576   -3.0294 H   0  0  0  0  0  0  0  0  0  0  0  0
   -8.1443    7.2831   -3.0294 H   0  0  0  0  0  0  0  0  0  0  0  0
   -7.8716    7.1166    0.8364 H   0  0  0  0  0  0  0  0  0  0  0  0
   -8.9983    7.8529   -0.3533 H   0  0  0  0  0  0  0  0  0  0  0  0
   -8.7267    6.0773   -0.3533 H   0  0  0  0  0  0  0  0  0  0  0  0
   -2.4737   10.4767   -1.2233 H   0  0  0  0  0  0  0  0  0  0  0  0
   -1.8697   11.0409    1.0479 H   0  0  0  0  0  0  0  0  0  0  0  0
   -0.8102    9.6227    1.2001 H   0  0  0  0  0  0  0  0  0  0  0  0
    0.0640   12.3154    0.8142 H   0  0  0  0  0  0  0  0  0  0  0  0
    1.0895   10.9015    0.5843 H   0  0  0  0  0  0  0  0  0  0  0  0
   -1.2710   13.1234   -0.4696 H   0  0  0  0  0  0  0  0  0  0  0  0
   -0.4795   13.5886   -2.0135 H   0  0  0  0  0  0  0  0  0  0  0  0
   -1.8058   12.3771   -2.0135 H   0  0  0  0  0  0  0  0  0  0  0  0
    2.1197   11.1478   -1.5947 H   0  0  0  0  0  0  0  0  0  0  0  0
    1.8454   13.4173   -0.4048 H   0  0  0  0  0  0  0  0  0  0  0  0
    3.2127   13.1291   -1.6032 H   0  0  0  0  0  0  0  0  0  0  0  0
    1.9988   15.4630   -1.7584 H   0  0  0  0  0  0  0  0  0  0  0  0
   -0.2127   13.0585   -4.1306 H   0  0  0  0  0  0  0  0  0  0  0  0
    2.4059   13.4860   -5.6996 H   0  0  0  0  0  0  0  0  0  0  0  0
    0.9774   12.4824   -6.2122 H   0  0  0  0  0  0  0  0  0  0  0  0
    1.0462   14.6699   -7.3652 H   0  0  0  0  0  0  0  0  0  0  0  0
   -0.4159   14.4672   -6.3230 H   0  0  0  0  0  0  0  0  0  0  0  0
    0.4412   16.6883   -6.0244 H   0  0  0  0  0  0  0  0  0  0  0  0
    2.8450   15.2900   -6.0210 H   0  0  0  0  0  0  0  0  0  0  0  0
   -1.1652   15.8725   -2.8600 H   0  0  0  0  0  0  0  0  0  0  0  0
   -1.2867   16.7743   -4.4087 H   0  0  0  0  0  0  0  0  0  0  0  0
   -1.3368   14.9787   -4.4087 H   0  0  0  0  0  0  0  0  0  0  0  0
    1.1335   17.0050   -2.3065 H   0  0  0  0  0  0  0  0  0  0  0  0
    2.2212   17.2846   -3.7084 H   0  0  0  0  0  0  0  0  0  0  0  0
    0.5614   17.9714   -3.7084 H   0  0  0  0  0  0  0  0  0  0  0  0
    3.5630   11.5471   -3.0984 H   0  0  0  0  0  0  0  0  0  0  0  0
    2.9707   10.7319   -4.5854 H   0  0  0  0  0  0  0  0  0  0  0  0
    3.2527   12.5059   -4.5854 H   0  0  0  0  0  0  0  0  0  0  0  0
    0.3152   10.8705   -5.0851 H   0  0  0  0  0  0  0  0  0  0  0  0
    1.2809    9.7858   -3.9343 H   0  0  0  0  0  0  0  0  0  0  0  0
   -1.4245   11.0599   -3.4398 H   0  0  0  0  0  0  0  0  0  0  0  0
   -1.0164    9.3072   -3.6079 H   0  0  0  0  0  0  0  0  0  0  0  0
    0.8019    8.8879   -0.4559 H   0  0  0  0  0  0  0  0  0  0  0  0
    0.2810    8.1226   -1.9952 H   0  0  0  0  0  0  0  0  0  0  0  0
    1.6216    9.3183   -1.9952 H   0  0  0  0  0  0  0  0  0  0  0  0
  1  2  1  0
  2  3  1  0
  3  4  1  0
  4  5  1  0
  5  6  1  0
  6  7  1  0
  7  8  1  0
  7  9  1  0
  2 10  1  0
 10 11  1  0
 11 12  1  0
 12 13  1  0
 13 14  1  1
 13 15  1  0
 15 16  1  0
 16 17  1  0
 17 18  2  0
 18 19  1  0
 19 20  1  0
 20 21  1  0
 21 22  1  0
 22 23  1  0
 22 24  1  0
 24 25  1  0
 24 26  1  0
 19 27  1  0
 27 28  1  6
 27 29  1  0
 29 30  1  0
 30 31  1  0
 31 32  1  6
  7  5  1  0
 31 10  1  0
 31 13  1  0
 27 15  1  0
 24 18  1  0
  1 33  1  0
  1 34  1  0
  1 35  1  0
  2 36  1  1
  3 37  1  0
  3 38  1  0
  4 39  1  0
  4 40  1  0
  5 41  1  1
  8 42  1  0
  8 43  1  0
  8 44  1  0
  9 45  1  0
  9 46  1  0
  9 47  1  0
 10 48  1  6
 11 49  1  0
 11 50  1  0
 12 51  1  0
 12 52  1  0
 14 53  1  0
 14 54  1  0
 14 55  1  0
 15 56  1  1
 16 57  1  0
 16 58  1  0
 17 59  1  0
 19 60  1  6
 20 61  1  0
 20 62  1  0
 21 63  1  0
 21 64  1  0
 22 65  1  6
 23 66  1  0
 25 67  1  0
 25 68  1  0
 25 69  1  0
 26 70  1  0
 26 71  1  0
 26 72  1  0
 28 73  1  0
 28 74  1  0
 28 75  1  0
 29 76  1  0
 29 77  1  0
 30 78  1  0
 30 79  1  0
 32 80  1  0
 32 81  1  0
 32 82  1  0
M  END
>  <meeko>  (10) 
{"is_sidechain": [false], "intermolecular_energy": 2.731, "internal_energy": -0.839}

$$$$
EPH_relaxed_0001_pdb2pqr_Repair_57_r2_0001_out
     RDKit          3D

 82 86  0  0  0  0  0  0  0  0999 V2000
   -3.6570    7.3530   -3.4800 C   0  0  0  0  0  0  0  0  0  0  0  0
   -3.4550    7.3270   -1.9620 C   0  0  2  0  0  0  0  0  0  0  0  0
   -4.7410    6.9250   -1.2120 C   0  0  0  0  0  0  0  0  0  0  0  0
   -5.7870    6.2470   -2.1020 C   0  0  0  0  0  0  0  0  0  0  0  0
   -6.7830    7.2320   -2.6350 C   0  0  2  0  0  0  0  0  0  0  0  0
   -6.8030    8.4930   -1.9530 O   0  0  0  0  0  0  0  0  0  0  0  0
   -7.9970    7.7000   -1.8550 C   0  0  0  0  0  0  0  0  0  0  0  0
   -8.2790    7.1940   -0.4750 C   0  0  0  0  0  0  0  0  0  0  0  0
   -9.1600    8.2640   -2.6100 C   0  0  0  0  0  0  0  0  0  0  0  0
   -2.9740    8.6890   -1.4780 C   0  0  1  0  0  0  0  0  0  0  0  0
   -3.6400    9.1190   -0.1430 C   0  0  0  0  0  0  0  0  0  0  0  0
   -2.5720    9.9100    0.6550 C   0  0  0  0  0  0  0  0  0  0  0  0
   -1.4500   10.1950   -0.3710 C   0  0  1  0  0  0  0  0  0  0  0  0
   -1.9490   11.4350   -1.1760 C   0  0  0  0  0  0  0  0  0  0  0  0
   -0.0190   10.4250    0.2160 C   0  0  2  0  0  0  0  0  0  0  0  0
    0.1180   11.6470    1.1410 C   0  0  0  0  0  0  0  0  0  0  0  0
    0.4980   12.9210    0.4610 C   0  0  0  0  0  0  0  0  0  0  0  0
    0.9960   13.0240   -0.7850 C   0  0  0  0  0  0  0  0  0  0  0  0
    1.3160   11.7720   -1.6120 C   0  0  1  0  0  0  0  0  0  0  0  0
    2.7170   11.9240   -2.2610 C   0  0  0  0  0  0  0  0  0  0  0  0
    2.8490   13.2090   -3.0730 C   0  0  0  0  0  0  0  0  0  0  0  0
    2.5810   14.4340   -2.2030 C   0  0  2  0  0  0  0  0  0  0  0  0
    3.6230   14.5450   -1.2280 O   0  0  0  0  0  0  0  0  0  0  0  0
    1.2010   14.3880   -1.4890 C   0  0  0  0  0  0  0  0  0  0  0  0
    0.0700   14.5720   -2.5310 C   0  0  0  0  0  0  0  0  0  0  0  0
    1.1160   15.6110   -0.5350 C   0  0  0  0  0  0  0  0  0  0  0  0
    1.1380   10.3820   -0.8620 C   0  0  1  0  0  0  0  0  0  0  0  0
    2.4470   10.0200   -0.0960 C   0  0  0  0  0  0  0  0  0  0  0  0
    0.9200    9.2460   -1.9300 C   0  0  0  0  0  0  0  0  0  0  0  0
   -0.5300    8.9860   -2.3810 C   0  0  0  0  0  0  0  0  0  0  0  0
   -1.4630    8.8440   -1.1740 C   0  0  2  0  0  0  0  0  0  0  0  0
   -0.9990    7.5900   -0.3570 C   0  0  0  0  0  0  0  0  0  0  0  0
   -4.7248    7.4904   -3.7055 H   0  0  0  0  0  0  0  0  0  0  0  0
   -3.0810    8.1844   -3.9124 H   0  0  0  0  0  0  0  0  0  0  0  0
   -3.3103    6.4028   -3.9124 H   0  0  0  0  0  0  0  0  0  0  0  0
   -2.6929    6.5646   -1.7428 H   0  0  0  0  0  0  0  0  0  0  0  0
   -4.4689    6.2294   -0.4044 H   0  0  0  0  0  0  0  0  0  0  0  0
   -5.1947    7.8524   -0.8324 H   0  0  0  0  0  0  0  0  0  0  0  0
   -5.2761    5.7634   -2.9477 H   0  0  0  0  0  0  0  0  0  0  0  0
   -6.3279    5.5074   -1.4934 H   0  0  0  0  0  0  0  0  0  0  0  0
   -6.6698    6.8305   -3.6528 H   0  0  0  0  0  0  0  0  0  0  0  0
   -7.8826    7.9053    0.2645 H   0  0  0  0  0  0  0  0  0  0  0  0
   -9.3654    7.0896   -0.3376 H   0  0  0  0  0  0  0  0  0  0  0  0
   -7.7963    6.2152   -0.3376 H   0  0  0  0  0  0  0  0  0  0  0  0
   -9.9155    8.6304   -1.8994 H   0  0  0  0  0  0  0  0  0  0  0  0
   -8.8176    9.0962   -3.2427 H   0  0  0  0  0  0  0  0  0  0  0  0
   -9.6015    7.4799   -3.2427 H   0  0  0  0  0  0  0  0  0  0  0  0
   -3.2468    9.3003   -2.3509 H   0  0  0  0  0  0  0  0  0  0  0  0
   -4.5129    9.7576   -0.3436 H   0  0  0  0  0  0  0  0  0  0  0  0
   -3.9889    8.2436    0.4243 H   0  0  0  0  0  0  0  0  0  0  0  0
   -2.9931   10.8500    1.0411 H   0  0  0  0  0  0  0  0  0  0  0  0
   -2.2059    9.3514    1.5291 H   0  0  0  0  0  0  0  0  0  0  0  0
   -2.2660   12.2228   -0.4768 H   0  0  0  0  0  0  0  0  0  0  0  0
   -1.1332   11.8135   -1.8094 H   0  0  0  0  0  0  0  0  0  0  0  0
   -2.7996   11.1429   -1.8094 H   0  0  0  0  0  0  0  0  0  0  0  0
    0.1154    9.5453    0.8626 H   0  0  0  0  0  0  0  0  0  0  0  0
   -0.8485   11.8042    1.6422 H   0  0  0  0  0  0  0  0  0  0  0  0
    0.9402   11.4143    1.8337 H   0  0  0  0  0  0  0  0  0  0  0  0
    0.3591   13.8543    1.0264 H   0  0  0  0  0  0  0  0  0  0  0  0
    0.5458   11.7198   -2.3956 H   0  0  0  0  0  0  0  0  0  0  0  0
    3.4758   11.9305   -1.4646 H   0  0  0  0  0  0  0  0  0  0  0  0
    2.8599   11.0778   -2.9492 H   0  0  0  0  0  0  0  0  0  0  0  0
    3.8683   13.2736   -3.4815 H   0  0  0  0  0  0  0  0  0  0  0  0
    2.1091   13.1877   -3.8867 H   0  0  0  0  0  0  0  0  0  0  0  0
    2.5626   15.3114   -2.8662 H   0  0  0  0  0  0  0  0  0  0  0  0
    3.2830   15.0830   -0.4940 H   0  0  0  0  0  0  0  0  0  0  0  0
   -0.8864   14.7276   -2.0104 H   0  0  0  0  0  0  0  0  0  0  0  0
    0.2908   15.4460   -3.1613 H   0  0  0  0  0  0  0  0  0  0  0  0
    0.0024   13.6731   -3.1613 H   0  0  0  0  0  0  0  0  0  0  0  0
    1.1401   15.2643    0.5087 H   0  0  0  0  0  0  0  0  0  0  0  0
    1.9698   16.2796   -0.7191 H   0  0  0  0  0  0  0  0  0  0  0  0
    0.1779   16.1551   -0.7191 H   0  0  0  0  0  0  0  0  0  0  0  0
    2.2638   10.0707    0.9874 H   0  0  0  0  0  0  0  0  0  0  0  0
    2.7610    9.0013   -0.3675 H   0  0  0  0  0  0  0  0  0  0  0  0
    3.2397   10.7326   -0.3675 H   0  0  0  0  0  0  0  0  0  0  0  0
    1.5037    9.5126   -2.8234 H   0  0  0  0  0  0  0  0  0  0  0  0
    1.2375    8.3179   -1.4322 H   0  0  0  0  0  0  0  0  0  0  0  0
   -0.8702    9.8281   -3.0016 H   0  0  0  0  0  0  0  0  0  0  0  0
   -0.5556    8.0486   -2.9561 H   0  0  0  0  0  0  0  0  0  0  0  0
   -1.0781    7.8037    0.7191 H   0  0  0  0  0  0  0  0  0  0  0  0
   -1.6389    6.7313   -0.6083 H   0  0  0  0  0  0  0  0  0  0  0  0
    0.0457    7.3547   -0.6083 H   0  0  0  0  0  0  0  0  0  0  0  0
  1  2  1  0
  2  3  1  0
  3  4  1  0
  4  5  1  0
  5  6  1  0
  6  7  1  0
  7  8  1  0
  7  9  1  0
  2 10  1  0
 10 11  1  0
 11 12  1  0
 12 13  1  0
 13 14  1  6
 13 15  1  0
 15 16  1  0
 16 17  1  0
 17 18  2  0
 18 19  1  0
 19 20  1  0
 20 21  1  0
 21 22  1  0
 22 23  1  0
 22 24  1  0
 24 25  1  0
 24 26  1  0
 19 27  1  0
 27 28  1  1
 27 29  1  0
 29 30  1  0
 30 31  1  0
 31 32  1  1
  7  5  1  0
 31 10  1  0
 31 13  1  0
 27 15  1  0
 24 18  1  0
  1 33  1  0
  1 34  1  0
  1 35  1  0
  2 36  1  6
  3 37  1  0
  3 38  1  0
  4 39  1  0
  4 40  1  0
  5 41  1  6
  8 42  1  0
  8 43  1  0
  8 44  1  0
  9 45  1  0
  9 46  1  0
  9 47  1  0
 10 48  1  6
 11 49  1  0
 11 50  1  0
 12 51  1  0
 12 52  1  0
 14 53  1  0
 14 54  1  0
 14 55  1  0
 15 56  1  1
 16 57  1  0
 16 58  1  0
 17 59  1  0
 19 60  1  6
 20 61  1  0
 20 62  1  0
 21 63  1  0
 21 64  1  0
 22 65  1  6
 23 66  1  0
 25 67  1  0
 25 68  1  0
 25 69  1  0
 26 70  1  0
 26 71  1  0
 26 72  1  0
 28 73  1  0
 28 74  1  0
 28 75  1  0
 29 76  1  0
 29 77  1  0
 30 78  1  0
 30 79  1  0
 32 80  1  0
 32 81  1  0
 32 82  1  0
M  END
>  <meeko>  (11) 
{"is_sidechain": [false], "intermolecular_energy": 2.731, "internal_energy": -0.839}

$$$$
EPH_relaxed_0001_pdb2pqr_Repair_57_r2_0001_out
     RDKit          3D

 82 86  0  0  0  0  0  0  0  0999 V2000
    0.2620    9.3700   -2.5830 C   0  0  0  0  0  0  0  0  0  0  0  0
    1.2710   10.4370   -3.0160 C   0  0  2  0  0  0  0  0  0  0  0  0
    2.7000    9.8710   -3.1350 C   0  0  0  0  0  0  0  0  0  0  0  0
    3.6330   10.7290   -3.9940 C   0  0  0  0  0  0  0  0  0  0  0  0
    5.0100   10.8090   -3.4070 C   0  0  2  0  0  0  0  0  0  0  0  0
    5.7510   11.9790   -3.7770 O   0  0  0  0  0  0  0  0  0  0  0  0
    6.2780   10.7240   -4.2360 C   0  0  0  0  0  0  0  0  0  0  0  0
    6.2300   10.5500   -5.7210 C   0  0  0  0  0  0  0  0  0  0  0  0
    7.5500   10.3200   -3.5570 C   0  0  0  0  0  0  0  0  0  0  0  0
    1.2520   11.6010   -2.0310 C   0  0  1  0  0  0  0  0  0  0  0  0
    2.3050   11.4450   -0.9020 C   0  0  0  0  0  0  0  0  0  0  0  0
    2.8160   12.8700   -0.5660 C   0  0  0  0  0  0  0  0  0  0  0  0
    1.8140   13.8180   -1.2670 C   0  0  1  0  0  0  0  0  0  0  0  0
    0.5900   13.8930   -0.3020 C   0  0  0  0  0  0  0  0  0  0  0  0
    2.3500   15.2410   -1.6320 C   0  0  2  0  0  0  0  0  0  0  0  0
    2.7740   16.1060   -0.4330 C   0  0  0  0  0  0  0  0  0  0  0  0
    1.6990   16.9660    0.1450 C   0  0  0  0  0  0  0  0  0  0  0  0
    0.5270   17.2580   -0.4490 C   0  0  0  0  0  0  0  0  0  0  0  0
    0.2270   16.7830   -1.8760 C   0  0  1  0  0  0  0  0  0  0  0  0
   -0.3610   17.9580   -2.7000 C   0  0  0  0  0  0  0  0  0  0  0  0
   -1.5750   18.5920   -2.0300 C   0  0  0  0  0  0  0  0  0  0  0  0
   -1.2230   19.1050   -0.6360 C   0  0  2  0  0  0  0  0  0  0  0  0
   -0.3040   20.1940   -0.7630 O   0  0  0  0  0  0  0  0  0  0  0  0
   -0.6120   18.0100    0.2830 C   0  0  0  0  0  0  0  0  0  0  0  0
   -1.7050   16.9820    0.6660 C   0  0  0  0  0  0  0  0  0  0  0  0
   -0.1720   18.6890    1.6080 C   0  0  0  0  0  0  0  0  0  0  0  0
    1.4200   16.0470   -2.6270 C   0  0  1  0  0  0  0  0  0  0  0  0
    2.3300   17.0970   -3.3350 C   0  0  0  0  0  0  0  0  0  0  0  0
    0.8270   15.1350   -3.7650 C   0  0  0  0  0  0  0  0  0  0  0  0
    0.4280   13.7010   -3.3680 C   0  0  0  0  0  0  0  0  0  0  0  0
    1.5550   13.0130   -2.5920 C   0  0  2  0  0  0  0  0  0  0  0  0
    2.7940   12.9030   -3.5460 C   0  0  0  0  0  0  0  0  0  0  0  0
    0.2219    9.3276   -1.4846 H   0  0  0  0  0  0  0  0  0  0  0  0
   -0.7330    9.6250   -2.9767 H   0  0  0  0  0  0  0  0  0  0  0  0
    0.5722    8.3908   -2.9767 H   0  0  0  0  0  0  0  0  0  0  0  0
    0.9716   10.7895   -4.0140 H   0  0  0  0  0  0  0  0  0  0  0  0
    3.1290    9.7962   -2.1249 H   0  0  0  0  0  0  0  0  0  0  0  0
    2.6175    8.8921   -3.6298 H   0  0  0  0  0  0  0  0  0  0  0  0
    3.6991   10.2870   -4.9991 H   0  0  0  0  0  0  0  0  0  0  0  0
    3.2192   11.7473   -4.0375 H   0  0  0  0  0  0  0  0  0  0  0  0
    4.6820   10.2748   -2.5031 H   0  0  0  0  0  0  0  0  0  0  0  0
    5.9445    9.5149   -5.9598 H   0  0  0  0  0  0  0  0  0  0  0  0
    5.4893   11.2424   -6.1476 H   0  0  0  0  0  0  0  0  0  0  0  0
    7.2209   10.7647   -6.1476 H   0  0  0  0  0  0  0  0  0  0  0  0
    7.4133   10.3634   -2.4664 H   0  0  0  0  0  0  0  0  0  0  0  0
    7.8137    9.2939   -3.8529 H   0  0  0  0  0  0  0  0  0  0  0  0
    8.3575   11.0059   -3.8529 H   0  0  0  0  0  0  0  0  0  0  0  0
    0.2046   11.5448   -1.6997 H   0  0  0  0  0  0  0  0  0  0  0  0
    1.8432   10.9891   -0.0138 H   0  0  0  0  0  0  0  0  0  0  0  0
    3.1323   10.7940   -1.2211 H   0  0  0  0  0  0  0  0  0  0  0  0
    2.8136   13.0373    0.5212 H   0  0  0  0  0  0  0  0  0  0  0  0
    3.8505   13.0329   -0.9026 H   0  0  0  0  0  0  0  0  0  0  0  0
    0.9425   13.8714    0.7398 H   0  0  0  0  0  0  0  0  0  0  0  0
    0.0372   14.8267   -0.4828 H   0  0  0  0  0  0  0  0  0  0  0  0
   -0.0726   13.0338   -0.4828 H   0  0  0  0  0  0  0  0  0  0  0  0
    3.2779   15.0118   -2.1765 H   0  0  0  0  0  0  0  0  0  0  0  0
    3.1350   15.4344    0.3598 H   0  0  0  0  0  0  0  0  0  0  0  0
    3.5438   16.7945   -0.8117 H   0  0  0  0  0  0  0  0  0  0  0  0
    1.8802   17.3975    1.1405 H   0  0  0  0  0  0  0  0  0  0  0  0
   -0.5224   15.9836   -1.7794 H   0  0  0  0  0  0  0  0  0  0  0  0
    0.4162   18.7269   -2.8219 H   0  0  0  0  0  0  0  0  0  0  0  0
   -0.6875   17.5551   -3.6701 H   0  0  0  0  0  0  0  0  0  0  0  0
   -1.9271   19.4334   -2.6449 H   0  0  0  0  0  0  0  0  0  0  0  0
   -2.3619   17.8292   -1.9350 H   0  0  0  0  0  0  0  0  0  0  0  0
   -2.1591   19.4297   -0.1582 H   0  0  0  0  0  0  0  0  0  0  0  0
   -0.7280   20.9830   -0.3860 H   0  0  0  0  0  0  0  0  0  0  0  0
   -1.7770   16.9143    1.7616 H   0  0  0  0  0  0  0  0  0  0  0  0
   -2.6725   17.3050    0.2542 H   0  0  0  0  0  0  0  0  0  0  0  0
   -1.4419   15.9965    0.2542 H   0  0  0  0  0  0  0  0  0  0  0  0
   -0.5494   18.1066    2.4614 H   0  0  0  0  0  0  0  0  0  0  0  0
    0.9263   18.7323    1.6507 H   0  0  0  0  0  0  0  0  0  0  0  0
   -0.5811   19.7092    1.6507 H   0  0  0  0  0  0  0  0  0  0  0  0
    2.8523   17.6997   -2.5774 H   0  0  0  0  0  0  0  0  0  0  0  0
    3.0685   16.5778   -3.9635 H   0  0  0  0  0  0  0  0  0  0  0  0
    1.7111   17.7542   -3.9635 H   0  0  0  0  0  0  0  0  0  0  0  0
   -0.0714   15.6340   -4.1573 H   0  0  0  0  0  0  0  0  0  0  0  0
    1.6428   15.0159   -4.4932 H   0  0  0  0  0  0  0  0  0  0  0  0
   -0.4720   13.7397   -2.7367 H   0  0  0  0  0  0  0  0  0  0  0  0
    0.2312   13.1254   -4.2845 H   0  0  0  0  0  0  0  0  0  0  0  0
    3.7125   12.8215   -2.9462 H   0  0  0  0  0  0  0  0  0  0  0  0
    2.6900   12.0106   -4.1806 H   0  0  0  0  0  0  0  0  0  0  0  0
    2.8489   13.7998   -4.1806 H   0  0  0  0  0  0  0  0  0  0  0  0
  1  2  1  0
  2  3  1  0
  3  4  1  0
  4  5  1  0
  5  6  1  0
  6  7  1  0
  7  8  1  0
  7  9  1  0
  2 10  1  0
 10 11  1  0
 11 12  1  0
 12 13  1  0
 13 14  1  1
 13 15  1  0
 15 16  1  0
 16 17  1  0
 17 18  2  0
 18 19  1  0
 19 20  1  0
 20 21  1  0
 21 22  1  0
 22 23  1  0
 22 24  1  0
 24 25  1  0
 24 26  1  0
 19 27  1  0
 27 28  1  6
 27 29  1  0
 29 30  1  0
 30 31  1  0
 31 32  1  6
  7  5  1  0
 31 10  1  0
 31 13  1  0
 27 15  1  0
 24 18  1  0
  1 33  1  0
  1 34  1  0
  1 35  1  0
  2 36  1  6
  3 37  1  0
  3 38  1  0
  4 39  1  0
  4 40  1  0
  5 41  1  1
  8 42  1  0
  8 43  1  0
  8 44  1  0
  9 45  1  0
  9 46  1  0
  9 47  1  0
 10 48  1  1
 11 49  1  0
 11 50  1  0
 12 51  1  0
 12 52  1  0
 14 53  1  0
 14 54  1  0
 14 55  1  0
 15 56  1  6
 16 57  1  0
 16 58  1  0
 17 59  1  0
 19 60  1  1
 20 61  1  0
 20 62  1  0
 21 63  1  0
 21 64  1  0
 22 65  1  1
 23 66  1  0
 25 67  1  0
 25 68  1  0
 25 69  1  0
 26 70  1  0
 26 71  1  0
 26 72  1  0
 28 73  1  0
 28 74  1  0
 28 75  1  0
 29 76  1  0
 29 77  1  0
 30 78  1  0
 30 79  1  0
 32 80  1  0
 32 81  1  0
 32 82  1  0
M  END
>  <meeko>  (12) 
{"is_sidechain": [false], "intermolecular_energy": 2.731, "internal_energy": -0.839}

$$$$
EPH_relaxed_0001_pdb2pqr_Repair_57_r2_0001_out
     RDKit          3D

 82 86  0  0  0  0  0  0  0  0999 V2000
    2.9060   11.4110   -5.3880 C   0  0  0  0  0  0  0  0  0  0  0  0
    1.9090   11.0980   -4.2690 C   0  0  2  0  0  0  0  0  0  0  0  0
    0.7970   10.1360   -4.7350 C   0  0  0  0  0  0  0  0  0  0  0  0
   -0.2880    9.8940   -3.6820 C   0  0  0  0  0  0  0  0  0  0  0  0
    0.2230    9.0730   -2.5370 C   0  0  2  0  0  0  0  0  0  0  0  0
   -0.6380    7.9980   -2.1400 O   0  0  0  0  0  0  0  0  0  0  0  0
   -0.4370    9.0400   -1.1710 C   0  0  0  0  0  0  0  0  0  0  0  0
   -1.6650    9.8430   -0.8780 C   0  0  0  0  0  0  0  0  0  0  0  0
    0.3810    8.6170    0.0090 C   0  0  0  0  0  0  0  0  0  0  0  0
    1.2930   12.3900   -3.7450 C   0  0  1  0  0  0  0  0  0  0  0  0
   -0.2480   12.2970   -3.5880 C   0  0  0  0  0  0  0  0  0  0  0  0
   -0.6230   13.1460   -2.3460 C   0  0  0  0  0  0  0  0  0  0  0  0
    0.6540   13.9590   -2.0290 C   0  0  1  0  0  0  0  0  0  0  0  0
    0.6170   15.1650   -3.0200 C   0  0  0  0  0  0  0  0  0  0  0  0
    0.8210   14.4330   -0.5490 C   0  0  2  0  0  0  0  0  0  0  0  0
   -0.2670   15.3980   -0.0460 C   0  0  0  0  0  0  0  0  0  0  0  0
    0.0230   16.8480   -0.2480 C   0  0  0  0  0  0  0  0  0  0  0  0
    1.2270   17.3710   -0.5480 C   0  0  0  0  0  0  0  0  0  0  0  0
    2.4760   16.4830   -0.6180 C   0  0  1  0  0  0  0  0  0  0  0  0
    3.6380   17.1620    0.1530 C   0  0  0  0  0  0  0  0  0  0  0  0
    3.9060   18.5850   -0.3280 C   0  0  0  0  0  0  0  0  0  0  0  0
    2.6570   19.4520   -0.1880 C   0  0  2  0  0  0  0  0  0  0  0  0
    2.3640   19.6180    1.2030 O   0  0  0  0  0  0  0  0  0  0  0  0
    1.4170   18.8620   -0.9170 C   0  0  0  0  0  0  0  0  0  0  0  0
    1.6180   18.9630   -2.4490 C   0  0  0  0  0  0  0  0  0  0  0  0
    0.1950   19.7580   -0.5800 C   0  0  0  0  0  0  0  0  0  0  0  0
    2.2700   14.9630   -0.1980 C   0  0  1  0  0  0  0  0  0  0  0  0
    2.4390   14.8100    1.3440 C   0  0  0  0  0  0  0  0  0  0  0  0
    3.4030   14.0900   -0.8580 C   0  0  0  0  0  0  0  0  0  0  0  0
    3.1280   13.5520   -2.2750 C   0  0  0  0  0  0  0  0  0  0  0  0
    1.7530   12.8820   -2.3500 C   0  0  2  0  0  0  0  0  0  0  0  0
    1.7670   11.6510   -1.3800 C   0  0  0  0  0  0  0  0  0  0  0  0
    3.8679   11.7130   -4.9481 H   0  0  0  0  0  0  0  0  0  0  0  0
    3.0522   10.5155   -6.0099 H   0  0  0  0  0  0  0  0  0  0  0  0
    2.5142   12.2294   -6.0099 H   0  0  0  0  0  0  0  0  0  0  0  0
    2.4637   10.5965   -3.4622 H   0  0  0  0  0  0  0  0  0  0  0  0
    0.3224   10.5619   -5.6313 H   0  0  0  0  0  0  0  0  0  0  0  0
    1.2742    9.1651   -4.9342 H   0  0  0  0  0  0  0  0  0  0  0  0
   -0.6345   10.8647   -3.2978 H   0  0  0  0  0  0  0  0  0  0  0  0
   -1.1112    9.3418   -4.1589 H   0  0  0  0  0  0  0  0  0  0  0  0
    1.2640    9.2423   -2.8495 H   0  0  0  0  0  0  0  0  0  0  0  0
   -1.7960    9.9286    0.2108 H   0  0  0  0  0  0  0  0  0  0  0  0
   -1.5594   10.8471   -1.3147 H   0  0  0  0  0  0  0  0  0  0  0  0
   -2.5425    9.3437   -1.3147 H   0  0  0  0  0  0  0  0  0  0  0  0
   -0.1448    8.8889    0.9361 H   0  0  0  0  0  0  0  0  0  0  0  0
    0.5319    7.5278   -0.0210 H   0  0  0  0  0  0  0  0  0  0  0  0
    1.3570    9.1234   -0.0210 H   0  0  0  0  0  0  0  0  0  0  0  0
    1.6381   13.0873   -4.5226 H   0  0  0  0  0  0  0  0  0  0  0  0
   -0.7449   12.6968   -4.4842 H   0  0  0  0  0  0  0  0  0  0  0  0
   -0.5701   11.2525   -3.4644 H   0  0  0  0  0  0  0  0  0  0  0  0
   -1.4641   13.8173   -2.5741 H   0  0  0  0  0  0  0  0  0  0  0  0
   -0.9431   12.5242   -1.4969 H   0  0  0  0  0  0  0  0  0  0  0  0
    0.5881   16.1061   -2.4513 H   0  0  0  0  0  0  0  0  0  0  0  0
    1.5161   15.1468   -3.6534 H   0  0  0  0  0  0  0  0  0  0  0  0
   -0.2793   15.0917   -3.6534 H   0  0  0  0  0  0  0  0  0  0  0  0
    0.6767   13.4997    0.0151 H   0  0  0  0  0  0  0  0  0  0  0  0
   -1.2019   15.1616   -0.5752 H   0  0  0  0  0  0  0  0  0  0  0  0
   -0.3263   15.2486    1.0422 H   0  0  0  0  0  0  0  0  0  0  0  0
   -0.8182   17.5489   -0.1429 H   0  0  0  0  0  0  0  0  0  0  0  0
    2.7331   16.4026   -1.6845 H   0  0  0  0  0  0  0  0  0  0  0  0
    3.3810   17.1936    1.2221 H   0  0  0  0  0  0  0  0  0  0  0  0
    4.5484   16.5715   -0.0270 H   0  0  0  0  0  0  0  0  0  0  0  0
    4.7168   19.0217    0.2735 H   0  0  0  0  0  0  0  0  0  0  0  0
    4.1916   18.5491   -1.3897 H   0  0  0  0  0  0  0  0  0  0  0  0
    2.8714   20.4190   -0.6665 H   0  0  0  0  0  0  0  0  0  0  0  0
    2.0210   20.5190    1.3250 H   0  0  0  0  0  0  0  0  0  0  0  0
    2.5824   19.4476   -2.6611 H   0  0  0  0  0  0  0  0  0  0  0  0
    1.6104   17.9540   -2.8871 H   0  0  0  0  0  0  0  0  0  0  0  0
    0.8039   19.5591   -2.8871 H   0  0  0  0  0  0  0  0  0  0  0  0
    0.0879   19.8365    0.5120 H   0  0  0  0  0  0  0  0  0  0  0  0
    0.3466   20.7605   -1.0066 H   0  0  0  0  0  0  0  0  0  0  0  0
   -0.7155   19.3119   -1.0066 H   0  0  0  0  0  0  0  0  0  0  0  0
    1.7182   15.4626    1.8584 H   0  0  0  0  0  0  0  0  0  0  0  0
    2.2562   13.7639    1.6309 H   0  0  0  0  0  0  0  0  0  0  0  0
    3.4618   15.0956    1.6309 H   0  0  0  0  0  0  0  0  0  0  0  0
    4.3126   14.7067   -0.9068 H   0  0  0  0  0  0  0  0  0  0  0  0
    3.4857   13.1965   -0.2217 H   0  0  0  0  0  0  0  0  0  0  0  0
    3.1605   14.3876   -2.9897 H   0  0  0  0  0  0  0  0  0  0  0  0
    3.8963   12.8043   -2.5213 H   0  0  0  0  0  0  0  0  0  0  0  0
    1.7630   12.0048   -0.3385 H   0  0  0  0  0  0  0  0  0  0  0  0
    0.8758   11.0319   -1.5604 H   0  0  0  0  0  0  0  0  0  0  0  0
    2.6720   11.0523   -1.5604 H   0  0  0  0  0  0  0  0  0  0  0  0
  1  2  1  0
  2  3  1  0
  3  4  1  0
  4  5  1  0
  5  6  1  0
  6  7  1  0
  7  8  1  0
  7  9  1  0
  2 10  1  0
 10 11  1  0
 11 12  1  0
 12 13  1  0
 13 14  1  6
 13 15  1  0
 15 16  1  0
 16 17  1  0
 17 18  2  0
 18 19  1  0
 19 20  1  0
 20 21  1  0
 21 22  1  0
 22 23  1  0
 22 24  1  0
 24 25  1  0
 24 26  1  0
 19 27  1  0
 27 28  1  1
 27 29  1  0
 29 30  1  0
 30 31  1  0
 31 32  1  1
  7  5  1  0
 31 10  1  0
 31 13  1  0
 27 15  1  0
 24 18  1  0
  1 33  1  0
  1 34  1  0
  1 35  1  0
  2 36  1  1
  3 37  1  0
  3 38  1  0
  4 39  1  0
  4 40  1  0
  5 41  1  1
  8 42  1  0
  8 43  1  0
  8 44  1  0
  9 45  1  0
  9 46  1  0
  9 47  1  0
 10 48  1  6
 11 49  1  0
 11 50  1  0
 12 51  1  0
 12 52  1  0
 14 53  1  0
 14 54  1  0
 14 55  1  0
 15 56  1  1
 16 57  1  0
 16 58  1  0
 17 59  1  0
 19 60  1  6
 20 61  1  0
 20 62  1  0
 21 63  1  0
 21 64  1  0
 22 65  1  6
 23 66  1  0
 25 67  1  0
 25 68  1  0
 25 69  1  0
 26 70  1  0
 26 71  1  0
 26 72  1  0
 28 73  1  0
 28 74  1  0
 28 75  1  0
 29 76  1  0
 29 77  1  0
 30 78  1  0
 30 79  1  0
 32 80  1  0
 32 81  1  0
 32 82  1  0
M  END
>  <meeko>  (13) 
{"is_sidechain": [false], "intermolecular_energy": 2.731, "internal_energy": -0.839}

$$$$
EPH_relaxed_0001_pdb2pqr_Repair_57_r2_0001_out
     RDKit          3D

 82 86  0  0  0  0  0  0  0  0999 V2000
    3.1080   18.3720   -3.7060 C   0  0  0  0  0  0  0  0  0  0  0  0
    2.1190   18.1510   -2.5570 C   0  0  2  0  0  0  0  0  0  0  0  0
    2.2210   19.2530   -1.4840 C   0  0  0  0  0  0  0  0  0  0  0  0
    1.9440   18.7550   -0.0630 C   0  0  0  0  0  0  0  0  0  0  0  0
    2.4740   19.7030    0.9700 C   0  0  2  0  0  0  0  0  0  0  0  0
    3.8000   20.1850    0.7150 O   0  0  0  0  0  0  0  0  0  0  0  0
    3.6350   19.3730    1.8900 C   0  0  0  0  0  0  0  0  0  0  0  0
    4.3360   18.0530    1.8200 C   0  0  0  0  0  0  0  0  0  0  0  0
    3.7710   20.1340    3.1720 C   0  0  0  0  0  0  0  0  0  0  0  0
    2.3530   16.7840   -1.9250 C   0  0  1  0  0  0  0  0  0  0  0  0
    2.9260   16.8820   -0.4860 C   0  0  0  0  0  0  0  0  0  0  0  0
    2.3200   15.7030    0.3180 C   0  0  0  0  0  0  0  0  0  0  0  0
    1.6910   14.7830   -0.7550 C   0  0  1  0  0  0  0  0  0  0  0  0
    2.8840   13.9500   -1.3190 C   0  0  0  0  0  0  0  0  0  0  0  0
    0.5210   13.8630   -0.2760 C   0  0  2  0  0  0  0  0  0  0  0  0
    0.9000   12.8320    0.8010 C   0  0  0  0  0  0  0  0  0  0  0  0
    1.3560   11.5070    0.2840 C   0  0  0  0  0  0  0  0  0  0  0  0
    1.1890   11.0600   -0.9740 C   0  0  0  0  0  0  0  0  0  0  0  0
    0.3950   11.8760   -2.0020 C   0  0  1  0  0  0  0  0  0  0  0  0
   -0.5960   10.9460   -2.7490 C   0  0  0  0  0  0  0  0  0  0  0  0
    0.0930    9.7360   -3.3720 C   0  0  0  0  0  0  0  0  0  0  0  0
    0.8230    8.9170   -2.3100 C   0  0  2  0  0  0  0  0  0  0  0  0
   -0.1460    8.3360   -1.4310 O   0  0  0  0  0  0  0  0  0  0  0  0
    1.8420    9.7520   -1.4860 C   0  0  0  0  0  0  0  0  0  0  0  0
    3.0490   10.1290   -2.3790 C   0  0  0  0  0  0  0  0  0  0  0  0
    2.4030    8.8430   -0.3590 C   0  0  0  0  0  0  0  0  0  0  0  0
   -0.3010   13.1950   -1.4520 C   0  0  1  0  0  0  0  0  0  0  0  0
   -1.7080   12.8510   -0.8730 C   0  0  0  0  0  0  0  0  0  0  0  0
   -0.5450   14.1860   -2.6500 C   0  0  0  0  0  0  0  0  0  0  0  0
    0.6040   15.1510   -2.9980 C   0  0  0  0  0  0  0  0  0  0  0  0
    1.1210   15.8630   -1.7440 C   0  0  2  0  0  0  0  0  0  0  0  0
   -0.0520   16.7270   -1.1670 C   0  0  0  0  0  0  0  0  0  0  0  0
    4.1038   18.5945   -3.2950 H   0  0  0  0  0  0  0  0  0  0  0  0
    3.1610   17.4636   -4.3240 H   0  0  0  0  0  0  0  0  0  0  0  0
    2.7693   19.2166   -4.3240 H   0  0  0  0  0  0  0  0  0  0  0  0
    1.1045   18.1953   -2.9800 H   0  0  0  0  0  0  0  0  0  0  0  0
    3.2372   19.6731   -1.5130 H   0  0  0  0  0  0  0  0  0  0  0  0
    1.4506   20.0024   -1.7182 H   0  0  0  0  0  0  0  0  0  0  0  0
    0.8574   18.6510    0.0728 H   0  0  0  0  0  0  0  0  0  0  0  0
    2.4519   17.7879    0.0665 H   0  0  0  0  0  0  0  0  0  0  0  0
    1.4639   20.0913    1.1672 H   0  0  0  0  0  0  0  0  0  0  0  0
    4.5305   17.6867    2.8388 H   0  0  0  0  0  0  0  0  0  0  0  0
    3.7032   17.3297    1.2849 H   0  0  0  0  0  0  0  0  0  0  0  0
    5.2896   18.1722    1.2849 H   0  0  0  0  0  0  0  0  0  0  0  0
    3.6481   19.4461    4.0215 H   0  0  0  0  0  0  0  0  0  0  0  0
    4.7666   20.5995    3.2182 H   0  0  0  0  0  0  0  0  0  0  0  0
    2.9983   20.9155    3.2182 H   0  0  0  0  0  0  0  0  0  0  0  0
    3.0384   16.3520   -2.6691 H   0  0  0  0  0  0  0  0  0  0  0  0
    4.0228   16.8009   -0.5087 H   0  0  0  0  0  0  0  0  0  0  0  0
    2.6711   17.8473   -0.0243 H   0  0  0  0  0  0  0  0  0  0  0  0
    3.1038   15.1697    0.8760 H   0  0  0  0  0  0  0  0  0  0  0  0
    1.5839   16.0400    1.0627 H   0  0  0  0  0  0  0  0  0  0  0  0
    3.4716   13.5397   -0.4845 H   0  0  0  0  0  0  0  0  0  0  0  0
    2.4965   13.1252   -1.9350 H   0  0  0  0  0  0  0  0  0  0  0  0
    3.5248   14.5980   -1.9350 H   0  0  0  0  0  0  0  0  0  0  0  0
   -0.1529   14.5775    0.2193 H   0  0  0  0  0  0  0  0  0  0  0  0
    1.7125   13.2578    1.4081 H   0  0  0  0  0  0  0  0  0  0  0  0
   -0.0200   12.6357    1.3712 H   0  0  0  0  0  0  0  0  0  0  0  0
    1.8717   10.8406    0.9911 H   0  0  0  0  0  0  0  0  0  0  0  0
    1.1358   12.2758   -2.7100 H   0  0  0  0  0  0  0  0  0  0  0  0
   -1.3534   10.5913   -2.0345 H   0  0  0  0  0  0  0  0  0  0  0  0
   -1.0498   11.5282   -3.5646 H   0  0  0  0  0  0  0  0  0  0  0  0
   -0.6630    9.1023   -3.8587 H   0  0  0  0  0  0  0  0  0  0  0  0
    0.8287   10.0915   -4.1084 H   0  0  0  0  0  0  0  0  0  0  0  0
    1.4029    8.1412   -2.8314 H   0  0  0  0  0  0  0  0  0  0  0  0
   -0.6300    9.0630   -1.0040 H   0  0  0  0  0  0  0  0  0  0  0  0
    3.9059   10.3967   -1.7434 H   0  0  0  0  0  0  0  0  0  0  0  0
    3.3171    9.2718   -3.0141 H   0  0  0  0  0  0  0  0  0  0  0  0
    2.7816   10.9864   -3.0141 H   0  0  0  0  0  0  0  0  0  0  0  0
    2.1401    9.2689    0.6205 H   0  0  0  0  0  0  0  0  0  0  0  0
    1.9688    7.8364   -0.4496 H   0  0  0  0  0  0  0  0  0  0  0  0
    3.4974    8.7798   -0.4496 H   0  0  0  0  0  0  0  0  0  0  0  0
   -1.6648   12.8616    0.2261 H   0  0  0  0  0  0  0  0  0  0  0  0
   -2.4390   13.5969   -1.2184 H   0  0  0  0  0  0  0  0  0  0  0  0
   -2.0124   11.8520   -1.2184 H   0  0  0  0  0  0  0  0  0  0  0  0
   -0.7543   13.5813   -3.5447 H   0  0  0  0  0  0  0  0  0  0  0  0
   -1.3746   14.8313   -2.3254 H   0  0  0  0  0  0  0  0  0  0  0  0
    1.4272   14.5809   -3.4533 H   0  0  0  0  0  0  0  0  0  0  0  0
    0.2254   15.9083   -3.7003 H   0  0  0  0  0  0  0  0  0  0  0  0
   -0.0190   16.7027   -0.0678 H   0  0  0  0  0  0  0  0  0  0  0  0
    0.0524   17.7656   -1.5141 H   0  0  0  0  0  0  0  0  0  0  0  0
   -1.0129   16.3193   -1.5141 H   0  0  0  0  0  0  0  0  0  0  0  0
  1  2  1  0
  2  3  1  0
  3  4  1  0
  4  5  1  0
  5  6  1  0
  6  7  1  0
  7  8  1  0
  7  9  1  0
  2 10  1  0
 10 11  1  0
 11 12  1  0
 12 13  1  0
 13 14  1  6
 13 15  1  0
 15 16  1  0
 16 17  1  0
 17 18  2  0
 18 19  1  0
 19 20  1  0
 20 21  1  0
 21 22  1  0
 22 23  1  0
 22 24  1  0
 24 25  1  0
 24 26  1  0
 19 27  1  0
 27 28  1  1
 27 29  1  0
 29 30  1  0
 30 31  1  0
 31 32  1  1
  7  5  1  0
 31 10  1  0
 31 13  1  0
 27 15  1  0
 24 18  1  0
  1 33  1  0
  1 34  1  0
  1 35  1  0
  2 36  1  6
  3 37  1  0
  3 38  1  0
  4 39  1  0
  4 40  1  0
  5 41  1  1
  8 42  1  0
  8 43  1  0
  8 44  1  0
  9 45  1  0
  9 46  1  0
  9 47  1  0
 10 48  1  6
 11 49  1  0
 11 50  1  0
 12 51  1  0
 12 52  1  0
 14 53  1  0
 14 54  1  0
 14 55  1  0
 15 56  1  1
 16 57  1  0
 16 58  1  0
 17 59  1  0
 19 60  1  6
 20 61  1  0
 20 62  1  0
 21 63  1  0
 21 64  1  0
 22 65  1  6
 23 66  1  0
 25 67  1  0
 25 68  1  0
 25 69  1  0
 26 70  1  0
 26 71  1  0
 26 72  1  0
 28 73  1  0
 28 74  1  0
 28 75  1  0
 29 76  1  0
 29 77  1  0
 30 78  1  0
 30 79  1  0
 32 80  1  0
 32 81  1  0
 32 82  1  0
M  END
>  <meeko>  (14) 
{"is_sidechain": [false], "intermolecular_energy": 2.731, "internal_energy": -0.839}

$$$$
EPH_relaxed_0001_pdb2pqr_Repair_57_r2_0001_out
     RDKit          3D

 82 86  0  0  0  0  0  0  0  0999 V2000
    0.9210   14.9180   -2.6510 C   0  0  0  0  0  0  0  0  0  0  0  0
    1.1700   14.2420   -4.0020 C   0  0  2  0  0  0  0  0  0  0  0  0
    0.4560   14.9710   -5.1570 C   0  0  0  0  0  0  0  0  0  0  0  0
    0.9780   14.5860   -6.5440 C   0  0  0  0  0  0  0  0  0  0  0  0
    0.7600   15.6820   -7.5430 C   0  0  2  0  0  0  0  0  0  0  0  0
    0.3990   15.2330   -8.8560 O   0  0  0  0  0  0  0  0  0  0  0  0
    1.6600   15.9120   -8.7420 C   0  0  0  0  0  0  0  0  0  0  0  0
    2.8480   15.0400   -9.0050 C   0  0  0  0  0  0  0  0  0  0  0  0
    1.6740   17.2680   -9.3760 C   0  0  0  0  0  0  0  0  0  0  0  0
    0.7190   12.7870   -3.9460 C   0  0  1  0  0  0  0  0  0  0  0  0
    1.8450   11.7960   -4.3420 C   0  0  0  0  0  0  0  0  0  0  0  0
    1.6540   10.5290   -3.4690 C   0  0  0  0  0  0  0  0  0  0  0  0
    0.2480   10.6930   -2.8460 C   0  0  1  0  0  0  0  0  0  0  0  0
   -0.7410   10.2270   -3.9610 C   0  0  0  0  0  0  0  0  0  0  0  0
   -0.0030    9.9390   -1.5000 C   0  0  2  0  0  0  0  0  0  0  0  0
    0.0990    8.4060   -1.5810 C   0  0  0  0  0  0  0  0  0  0  0  0
   -1.1780    7.6970   -1.8920 C   0  0  0  0  0  0  0  0  0  0  0  0
   -2.4090    8.2350   -1.8170 C   0  0  0  0  0  0  0  0  0  0  0  0
   -2.6150    9.6620   -1.2910 C   0  0  1  0  0  0  0  0  0  0  0  0
   -3.7830    9.6740   -0.2710 C   0  0  0  0  0  0  0  0  0  0  0  0
   -5.0640    9.0720   -0.8410 C   0  0  0  0  0  0  0  0  0  0  0  0
   -4.8340    7.6350   -1.2990 C   0  0  2  0  0  0  0  0  0  0  0  0
   -4.5640    6.8230   -0.1520 O   0  0  0  0  0  0  0  0  0  0  0  0
   -3.6730    7.4960   -2.3230 C   0  0  0  0  0  0  0  0  0  0  0  0
   -4.0930    8.1230   -3.6750 C   0  0  0  0  0  0  0  0  0  0  0  0
   -3.4530    5.9830   -2.5950 C   0  0  0  0  0  0  0  0  0  0  0  0
   -1.3150   10.3910   -0.7390 C   0  0  1  0  0  0  0  0  0  0  0  0
   -1.1030   10.0350    0.7640 C   0  0  0  0  0  0  0  0  0  0  0  0
   -1.5350   11.9490   -0.8000 C   0  0  0  0  0  0  0  0  0  0  0  0
   -1.1560   12.6530   -2.1160 C   0  0  0  0  0  0  0  0  0  0  0  0
    0.2460   12.2410   -2.5750 C   0  0  2  0  0  0  0  0  0  0  0  0
    1.2650   12.7160   -1.4840 C   0  0  0  0  0  0  0  0  0  0  0  0
    1.1777   14.2212   -1.8395 H   0  0  0  0  0  0  0  0  0  0  0  0
    1.5460   15.8197   -2.5714 H   0  0  0  0  0  0  0  0  0  0  0  0
   -0.1396   15.1988   -2.5714 H   0  0  0  0  0  0  0  0  0  0  0  0
    2.2508   14.2889   -4.2010 H   0  0  0  0  0  0  0  0  0  0  0  0
   -0.6161   14.7295   -5.1101 H   0  0  0  0  0  0  0  0  0  0  0  0
    0.6501   16.0460   -5.0275 H   0  0  0  0  0  0  0  0  0  0  0  0
    2.0557   14.3770   -6.4738 H   0  0  0  0  0  0  0  0  0  0  0  0
    0.4251   13.6978   -6.8837 H   0  0  0  0  0  0  0  0  0  0  0  0
    0.3916   16.3572   -6.7566 H   0  0  0  0  0  0  0  0  0  0  0  0
    3.2859   14.7186   -8.0485 H   0  0  0  0  0  0  0  0  0  0  0  0
    2.5341   14.1563   -9.5799 H   0  0  0  0  0  0  0  0  0  0  0  0
    3.5970   15.6044   -9.5799 H   0  0  0  0  0  0  0  0  0  0  0  0
    1.6820   18.0393   -8.5918 H   0  0  0  0  0  0  0  0  0  0  0  0
    2.5733   17.3713  -10.0010 H   0  0  0  0  0  0  0  0  0  0  0  0
    0.7771   17.3898  -10.0010 H   0  0  0  0  0  0  0  0  0  0  0  0
   -0.1279   12.8303   -4.6466 H   0  0  0  0  0  0  0  0  0  0  0  0
    1.7640   11.5371   -5.4080 H   0  0  0  0  0  0  0  0  0  0  0  0
    2.8377   12.2412   -4.1797 H   0  0  0  0  0  0  0  0  0  0  0  0
    1.7012    9.6205   -4.0874 H   0  0  0  0  0  0  0  0  0  0  0  0
    2.4392   10.4261   -2.7055 H   0  0  0  0  0  0  0  0  0  0  0  0
   -1.6431    9.8019   -3.4967 H   0  0  0  0  0  0  0  0  0  0  0  0
   -1.0211   11.0879   -4.5859 H   0  0  0  0  0  0  0  0  0  0  0  0
   -0.2555    9.4629   -4.5859 H   0  0  0  0  0  0  0  0  0  0  0  0
    0.8505   10.2628   -0.8863 H   0  0  0  0  0  0  0  0  0  0  0  0
    0.8271    8.1549   -2.3664 H   0  0  0  0  0  0  0  0  0  0  0  0
    0.3983    8.0676   -0.5780 H   0  0  0  0  0  0  0  0  0  0  0  0
   -1.1062    6.6462   -2.2092 H   0  0  0  0  0  0  0  0  0  0  0  0
   -2.8779   10.2743   -2.1662 H   0  0  0  0  0  0  0  0  0  0  0  0
   -3.4841    9.0934    0.6142 H   0  0  0  0  0  0  0  0  0  0  0  0
   -3.9922   10.7232   -0.0154 H   0  0  0  0  0  0  0  0  0  0  0  0
   -5.8431    9.0821   -0.0645 H   0  0  0  0  0  0  0  0  0  0  0  0
   -5.3779    9.6711   -1.7085 H   0  0  0  0  0  0  0  0  0  0  0  0
   -5.7474    7.3033   -1.8144 H   0  0  0  0  0  0  0  0  0  0  0  0
   -3.9470    7.3130    0.4170 H   0  0  0  0  0  0  0  0  0  0  0  0
   -4.6964    9.0238   -3.4897 H   0  0  0  0  0  0  0  0  0  0  0  0
   -3.1943    8.3951   -4.2479 H   0  0  0  0  0  0  0  0  0  0  0  0
   -4.6867    7.3954   -4.2479 H   0  0  0  0  0  0  0  0  0  0  0  0
   -3.3749    5.4460   -1.6382 H   0  0  0  0  0  0  0  0  0  0  0  0
   -4.3029    5.5864   -3.1698 H   0  0  0  0  0  0  0  0  0  0  0  0
   -2.5253    5.8449   -3.1698 H   0  0  0  0  0  0  0  0  0  0  0  0
   -1.5647   10.8103    1.3931 H   0  0  0  0  0  0  0  0  0  0  0  0
   -1.5690    9.0622    0.9797 H   0  0  0  0  0  0  0  0  0  0  0  0
   -0.0257    9.9813    0.9797 H   0  0  0  0  0  0  0  0  0  0  0  0
   -2.6020   12.1419   -0.6148 H   0  0  0  0  0  0  0  0  0  0  0  0
   -0.8531   12.3657   -0.0441 H   0  0  0  0  0  0  0  0  0  0  0  0
   -1.8842   12.3785   -2.8934 H   0  0  0  0  0  0  0  0  0  0  0  0
   -1.1641   13.7399   -1.9469 H   0  0  0  0  0  0  0  0  0  0  0  0
    0.8489   12.5220   -0.4844 H   0  0  0  0  0  0  0  0  0  0  0  0
    2.2103   12.1657   -1.6008 H   0  0  0  0  0  0  0  0  0  0  0  0
    1.4513   13.7938   -1.6008 H   0  0  0  0  0  0  0  0  0  0  0  0
  1  2  1  0
  2  3  1  0
  3  4  1  0
  4  5  1  0
  5  6  1  0
  6  7  1  0
  7  8  1  0
  7  9  1  0
  2 10  1  0
 10 11  1  0
 11 12  1  0
 12 13  1  0
 13 14  1  6
 13 15  1  0
 15 16  1  0
 16 17  1  0
 17 18  2  0
 18 19  1  0
 19 20  1  0
 20 21  1  0
 21 22  1  0
 22 23  1  0
 22 24  1  0
 24 25  1  0
 24 26  1  0
 19 27  1  0
 27 28  1  1
 27 29  1  0
 29 30  1  0
 30 31  1  0
 31 32  1  1
  7  5  1  0
 31 10  1  0
 31 13  1  0
 27 15  1  0
 24 18  1  0
  1 33  1  0
  1 34  1  0
  1 35  1  0
  2 36  1  6
  3 37  1  0
  3 38  1  0
  4 39  1  0
  4 40  1  0
  5 41  1  1
  8 42  1  0
  8 43  1  0
  8 44  1  0
  9 45  1  0
  9 46  1  0
  9 47  1  0
 10 48  1  6
 11 49  1  0
 11 50  1  0
 12 51  1  0
 12 52  1  0
 14 53  1  0
 14 54  1  0
 14 55  1  0
 15 56  1  1
 16 57  1  0
 16 58  1  0
 17 59  1  0
 19 60  1  6
 20 61  1  0
 20 62  1  0
 21 63  1  0
 21 64  1  0
 22 65  1  6
 23 66  1  0
 25 67  1  0
 25 68  1  0
 25 69  1  0
 26 70  1  0
 26 71  1  0
 26 72  1  0
 28 73  1  0
 28 74  1  0
 28 75  1  0
 29 76  1  0
 29 77  1  0
 30 78  1  0
 30 79  1  0
 32 80  1  0
 32 81  1  0
 32 82  1  0
M  END
>  <meeko>  (15) 
{"is_sidechain": [false], "intermolecular_energy": 2.731, "internal_energy": -0.839}

$$$$
EPH_relaxed_0001_pdb2pqr_Repair_57_r2_0001_out
     RDKit          3D

 82 86  0  0  0  0  0  0  0  0999 V2000
   -1.7070   14.8330    0.5500 C   0  0  0  0  0  0  0  0  0  0  0  0
   -0.3730   15.5330    0.2790 C   0  0  2  0  0  0  0  0  0  0  0  0
   -0.4620   16.5150   -0.9060 C   0  0  0  0  0  0  0  0  0  0  0  0
   -0.0470   17.9460   -0.5530 C   0  0  0  0  0  0  0  0  0  0  0  0
    1.3740   18.0100   -0.0810 C   0  0  2  0  0  0  0  0  0  0  0  0
    2.0470   19.2420   -0.3730 O   0  0  0  0  0  0  0  0  0  0  0  0
    2.5650   18.0680   -1.0190 C   0  0  0  0  0  0  0  0  0  0  0  0
    2.3890   18.0620   -2.5050 C   0  0  0  0  0  0  0  0  0  0  0  0
    3.9030   17.6370   -0.5030 C   0  0  0  0  0  0  0  0  0  0  0  0
    0.7130   14.4970    0.0160 C   0  0  1  0  0  0  0  0  0  0  0  0
    0.8380   13.4580    1.1620 C   0  0  0  0  0  0  0  0  0  0  0  0
    1.2080   12.1050    0.5010 C   0  0  0  0  0  0  0  0  0  0  0  0
    1.6080   12.4740   -0.9470 C   0  0  1  0  0  0  0  0  0  0  0  0
    3.0840   12.9710   -0.8420 C   0  0  0  0  0  0  0  0  0  0  0  0
    1.4530   11.3440   -2.0160 C   0  0  2  0  0  0  0  0  0  0  0  0
    2.3310   10.1020   -1.7830 C   0  0  0  0  0  0  0  0  0  0  0  0
    3.6770   10.1420   -2.4290 C   0  0  0  0  0  0  0  0  0  0  0  0
    4.0560   10.9990   -3.3940 C   0  0  0  0  0  0  0  0  0  0  0  0
    3.0570   11.9910   -4.0040 C   0  0  1  0  0  0  0  0  0  0  0  0
    3.1830   11.9690   -5.5500 C   0  0  0  0  0  0  0  0  0  0  0  0
    4.6120   12.2150   -6.0240 C   0  0  0  0  0  0  0  0  0  0  0  0
    5.5660   11.1740   -5.4430 C   0  0  2  0  0  0  0  0  0  0  0  0
    5.2450    9.8950   -5.9970 O   0  0  0  0  0  0  0  0  0  0  0  0
    5.5190   11.0980   -3.8910 C   0  0  0  0  0  0  0  0  0  0  0  0
    6.1520   12.3770   -3.2890 C   0  0  0  0  0  0  0  0  0  0  0  0
    6.4200    9.9160   -3.4440 C   0  0  0  0  0  0  0  0  0  0  0  0
    1.5520   11.8490   -3.5120 C   0  0  1  0  0  0  0  0  0  0  0  0
    0.8030   10.7980   -4.3870 C   0  0  0  0  0  0  0  0  0  0  0  0
    0.8080   13.2200   -3.7310 C   0  0  0  0  0  0  0  0  0  0  0  0
    0.8990   14.2500   -2.5880 C   0  0  0  0  0  0  0  0  0  0  0  0
    0.5560   13.6050   -1.2420 C   0  0  2  0  0  0  0  0  0  0  0  0
   -0.9310   13.1160   -1.3100 C   0  0  0  0  0  0  0  0  0  0  0  0
   -1.8640   14.7506    1.6356 H   0  0  0  0  0  0  0  0  0  0  0  0
   -2.5252   15.4180    0.1046 H   0  0  0  0  0  0  0  0  0  0  0  0
   -1.6905   13.8274    0.1046 H   0  0  0  0  0  0  0  0  0  0  0  0
   -0.1193   16.1191    1.1746 H   0  0  0  0  0  0  0  0  0  0  0  0
    0.1959   16.1508   -1.7088 H   0  0  0  0  0  0  0  0  0  0  0  0
   -1.5176   16.5532   -1.2128 H   0  0  0  0  0  0  0  0  0  0  0  0
   -0.1550   18.5792   -1.4460 H   0  0  0  0  0  0  0  0  0  0  0  0
   -0.6955   18.3003    0.2618 H   0  0  0  0  0  0  0  0  0  0  0  0
    1.1425   17.3638    0.7785 H   0  0  0  0  0  0  0  0  0  0  0  0
    1.3166   18.0254   -2.7471 H   0  0  0  0  0  0  0  0  0  0  0  0
    2.8299   18.9757   -2.9301 H   0  0  0  0  0  0  0  0  0  0  0  0
    2.8911   17.1805   -2.9301 H   0  0  0  0  0  0  0  0  0  0  0  0
    3.8905   17.6410    0.5969 H   0  0  0  0  0  0  0  0  0  0  0  0
    4.1253   16.6218   -0.8634 H   0  0  0  0  0  0  0  0  0  0  0  0
    4.6761   18.3316   -0.8634 H   0  0  0  0  0  0  0  0  0  0  0  0
    1.5794   15.1645   -0.1015 H   0  0  0  0  0  0  0  0  0  0  0  0
    1.6260   13.7636    1.8661 H   0  0  0  0  0  0  0  0  0  0  0  0
   -0.1027   13.3776    1.7264 H   0  0  0  0  0  0  0  0  0  0  0  0
    2.0502   11.6329    1.0281 H   0  0  0  0  0  0  0  0  0  0  0  0
    0.3776   11.3843    0.5334 H   0  0  0  0  0  0  0  0  0  0  0  0
    3.3646   13.0655    0.2174 H   0  0  0  0  0  0  0  0  0  0  0  0
    3.7504   12.2477   -1.3347 H   0  0  0  0  0  0  0  0  0  0  0  0
    3.1772   13.9501   -1.3347 H   0  0  0  0  0  0  0  0  0  0  0  0
    0.4162   11.0114   -1.8598 H   0  0  0  0  0  0  0  0  0  0  0  0
    2.4776    9.9879   -0.6988 H   0  0  0  0  0  0  0  0  0  0  0  0
    1.7960    9.2599   -2.2462 H   0  0  0  0  0  0  0  0  0  0  0  0
    4.4216    9.4083   -2.0866 H   0  0  0  0  0  0  0  0  0  0  0  0
    3.3404   12.9825   -3.6212 H   0  0  0  0  0  0  0  0  0  0  0  0
    2.8543   10.9854   -5.9166 H   0  0  0  0  0  0  0  0  0  0  0  0
    2.5550   12.7798   -5.9478 H   0  0  0  0  0  0  0  0  0  0  0  0
    4.6420   12.1578   -7.1221 H   0  0  0  0  0  0  0  0  0  0  0  0
    4.9289   13.2114   -5.6822 H   0  0  0  0  0  0  0  0  0  0  0  0
    6.5887   11.4779   -5.7110 H   0  0  0  0  0  0  0  0  0  0  0  0
    5.5740    9.8790   -6.9120 H   0  0  0  0  0  0  0  0  0  0  0  0
    6.1231   12.3185   -2.1909 H   0  0  0  0  0  0  0  0  0  0  0  0
    7.1962   12.4620   -3.6243 H   0  0  0  0  0  0  0  0  0  0  0  0
    5.5863   13.2588   -3.6243 H   0  0  0  0  0  0  0  0  0  0  0  0
    6.4518    9.8743   -2.3453 H   0  0  0  0  0  0  0  0  0  0  0  0
    6.0091    8.9735   -3.8350 H   0  0  0  0  0  0  0  0  0  0  0  0
    7.4377   10.0625   -3.8350 H   0  0  0  0  0  0  0  0  0  0  0  0
    0.2891   10.0769   -3.7344 H   0  0  0  0  0  0  0  0  0  0  0  0
    0.0643   11.3091   -5.0220 H   0  0  0  0  0  0  0  0  0  0  0  0
    1.5272   10.2666   -5.0220 H   0  0  0  0  0  0  0  0  0  0  0  0
    1.2289   13.6866   -4.6338 H   0  0  0  0  0  0  0  0  0  0  0  0
   -0.2587   12.9608   -3.8009 H   0  0  0  0  0  0  0  0  0  0  0  0
    1.9226   14.6506   -2.5449 H   0  0  0  0  0  0  0  0  0  0  0  0
    0.1782   15.0574   -2.7845 H   0  0  0  0  0  0  0  0  0  0  0  0
   -1.3217   12.9875   -0.2898 H   0  0  0  0  0  0  0  0  0  0  0  0
   -1.5382   13.8618   -1.8440 H   0  0  0  0  0  0  0  0  0  0  0  0
   -0.9770   12.1554   -1.8440 H   0  0  0  0  0  0  0  0  0  0  0  0
  1  2  1  0
  2  3  1  0
  3  4  1  0
  4  5  1  0
  5  6  1  0
  6  7  1  0
  7  8  1  0
  7  9  1  0
  2 10  1  0
 10 11  1  0
 11 12  1  0
 12 13  1  0
 13 14  1  1
 13 15  1  0
 15 16  1  0
 16 17  1  0
 17 18  2  0
 18 19  1  0
 19 20  1  0
 20 21  1  0
 21 22  1  0
 22 23  1  0
 22 24  1  0
 24 25  1  0
 24 26  1  0
 19 27  1  0
 27 28  1  6
 27 29  1  0
 29 30  1  0
 30 31  1  0
 31 32  1  6
  7  5  1  0
 31 10  1  0
 31 13  1  0
 27 15  1  0
 24 18  1  0
  1 33  1  0
  1 34  1  0
  1 35  1  0
  2 36  1  1
  3 37  1  0
  3 38  1  0
  4 39  1  0
  4 40  1  0
  5 41  1  1
  8 42  1  0
  8 43  1  0
  8 44  1  0
  9 45  1  0
  9 46  1  0
  9 47  1  0
 10 48  1  6
 11 49  1  0
 11 50  1  0
 12 51  1  0
 12 52  1  0
 14 53  1  0
 14 54  1  0
 14 55  1  0
 15 56  1  6
 16 57  1  0
 16 58  1  0
 17 59  1  0
 19 60  1  1
 20 61  1  0
 20 62  1  0
 21 63  1  0
 21 64  1  0
 22 65  1  1
 23 66  1  0
 25 67  1  0
 25 68  1  0
 25 69  1  0
 26 70  1  0
 26 71  1  0
 26 72  1  0
 28 73  1  0
 28 74  1  0
 28 75  1  0
 29 76  1  0
 29 77  1  0
 30 78  1  0
 30 79  1  0
 32 80  1  0
 32 81  1  0
 32 82  1  0
M  END
>  <meeko>  (16) 
{"is_sidechain": [false], "intermolecular_energy": 2.731, "internal_energy": -0.839}

$$$$
EPH_relaxed_0001_pdb2pqr_Repair_57_r2_0001_out
     RDKit          3D

 82 86  0  0  0  0  0  0  0  0999 V2000
    3.1320   14.8610   -7.5420 C   0  0  0  0  0  0  0  0  0  0  0  0
    1.6070   14.8730   -7.4030 C   0  0  2  0  0  0  0  0  0  0  0  0
    0.9720   16.1030   -8.0830 C   0  0  0  0  0  0  0  0  0  0  0  0
    1.8990   16.8000   -9.0830 C   0  0  0  0  0  0  0  0  0  0  0  0
    1.5910   16.4010  -10.4950 C   0  0  2  0  0  0  0  0  0  0  0  0
    1.0110   15.0980  -10.6360 O   0  0  0  0  0  0  0  0  0  0  0  0
    2.3100   15.2810  -11.2230 C   0  0  0  0  0  0  0  0  0  0  0  0
    3.3940   14.4890  -10.5610 C   0  0  0  0  0  0  0  0  0  0  0  0
    2.3000   15.2790  -12.7200 C   0  0  0  0  0  0  0  0  0  0  0  0
    1.2200   14.8350   -5.9300 C   0  0  1  0  0  0  0  0  0  0  0  0
   -0.0360   15.6930   -5.6200 C   0  0  0  0  0  0  0  0  0  0  0  0
   -0.8170   14.9540   -4.5020 C   0  0  0  0  0  0  0  0  0  0  0  0
    0.1700   13.8850   -3.9770 C   0  0  1  0  0  0  0  0  0  0  0  0
    1.1050   14.6520   -2.9910 C   0  0  0  0  0  0  0  0  0  0  0  0
   -0.4690   12.6260   -3.3060 C   0  0  2  0  0  0  0  0  0  0  0  0
   -1.2890   12.9090   -2.0350 C   0  0  0  0  0  0  0  0  0  0  0  0
   -0.5220   12.8550   -0.7560 C   0  0  0  0  0  0  0  0  0  0  0  0
    0.7010   12.3140   -0.6000 C   0  0  0  0  0  0  0  0  0  0  0  0
    1.3980   11.5930   -1.7600 C   0  0  1  0  0  0  0  0  0  0  0  0
    1.9830   10.2470   -1.2570 C   0  0  0  0  0  0  0  0  0  0  0  0
    2.8960   10.4230   -0.0470 C   0  0  0  0  0  0  0  0  0  0  0  0
    2.1510   11.0910    1.1060 C   0  0  2  0  0  0  0  0  0  0  0  0
    1.1380   10.1990    1.5780 O   0  0  0  0  0  0  0  0  0  0  0  0
    1.5100   12.4510    0.7140 C   0  0  0  0  0  0  0  0  0  0  0  0
    2.6210   13.5070    0.4930 C   0  0  0  0  0  0  0  0  0  0  0  0
    0.6720   12.9490    1.9230 C   0  0  0  0  0  0  0  0  0  0  0  0
    0.5400   11.4260   -3.0880 C   0  0  1  0  0  0  0  0  0  0  0  0
   -0.3220   10.1290   -3.0050 C   0  0  0  0  0  0  0  0  0  0  0  0
    1.5150   11.2340   -4.3090 C   0  0  0  0  0  0  0  0  0  0  0  0
    2.0170   12.5140   -5.0050 C   0  0  0  0  0  0  0  0  0  0  0  0
    0.8520   13.4560   -5.3270 C   0  0  2  0  0  0  0  0  0  0  0  0
   -0.0940   12.7190   -6.3350 C   0  0  0  0  0  0  0  0  0  0  0  0
    3.5913   14.8574   -6.5425 H   0  0  0  0  0  0  0  0  0  0  0  0
    3.4430   13.9604   -8.0917 H   0  0  0  0  0  0  0  0  0  0  0  0
    3.4571   15.7566   -8.0917 H   0  0  0  0  0  0  0  0  0  0  0  0
    1.2207   13.9779   -7.9124 H   0  0  0  0  0  0  0  0  0  0  0  0
    0.0676   15.7763   -8.6171 H   0  0  0  0  0  0  0  0  0  0  0  0
    0.7501   16.8309   -7.2887 H   0  0  0  0  0  0  0  0  0  0  0  0
    1.7753   17.8886   -8.9850 H   0  0  0  0  0  0  0  0  0  0  0  0
    2.9332   16.4994   -8.8593 H   0  0  0  0  0  0  0  0  0  0  0  0
    1.3833   17.4456  -10.7699 H   0  0  0  0  0  0  0  0  0  0  0  0
    3.2892   14.5656   -9.4687 H   0  0  0  0  0  0  0  0  0  0  0  0
    3.3149   13.4345  -10.8639 H   0  0  0  0  0  0  0  0  0  0  0  0
    4.3746   14.8849  -10.8639 H   0  0  0  0  0  0  0  0  0  0  0  0
    1.2806   15.0751  -13.0796 H   0  0  0  0  0  0  0  0  0  0  0  0
    2.6299   16.2609  -13.0902 H   0  0  0  0  0  0  0  0  0  0  0  0
    2.9821   14.4995  -13.0902 H   0  0  0  0  0  0  0  0  0  0  0  0
    2.1554   15.2037   -5.4839 H   0  0  0  0  0  0  0  0  0  0  0  0
    0.2642   16.6933   -5.2748 H   0  0  0  0  0  0  0  0  0  0  0  0
   -0.6582   15.8218   -6.5179 H   0  0  0  0  0  0  0  0  0  0  0  0
   -1.0977   15.6511   -3.6987 H   0  0  0  0  0  0  0  0  0  0  0  0
   -1.7539   14.5111   -4.8708 H   0  0  0  0  0  0  0  0  0  0  0  0
    0.8180   14.4166   -1.9555 H   0  0  0  0  0  0  0  0  0  0  0  0
    2.1477   14.3457   -3.1612 H   0  0  0  0  0  0  0  0  0  0  0  0
    1.0084   15.7345   -3.1612 H   0  0  0  0  0  0  0  0  0  0  0  0
   -1.1964   12.2984   -4.0633 H   0  0  0  0  0  0  0  0  0  0  0  0
   -1.7240   13.9150   -2.1282 H   0  0  0  0  0  0  0  0  0  0  0  0
   -2.0404   12.1080   -1.9731 H   0  0  0  0  0  0  0  0  0  0  0  0
   -0.9958   13.2942    0.1343 H   0  0  0  0  0  0  0  0  0  0  0  0
    2.2132   12.2566   -2.0842 H   0  0  0  0  0  0  0  0  0  0  0  0
    1.1515    9.5831   -0.9780 H   0  0  0  0  0  0  0  0  0  0  0  0
    2.5859    9.8192   -2.0715 H   0  0  0  0  0  0  0  0  0  0  0  0
    3.2546    9.4359    0.2800 H   0  0  0  0  0  0  0  0  0  0  0  0
    3.7424   11.0634   -0.3360 H   0  0  0  0  0  0  0  0  0  0  0  0
    2.8873   11.3075    1.8940 H   0  0  0  0  0  0  0  0  0  0  0  0
    0.4490   10.7350    2.0060 H   0  0  0  0  0  0  0  0  0  0  0  0
    2.9913   13.8590    1.4672 H   0  0  0  0  0  0  0  0  0  0  0  0
    3.4492   13.0551   -0.0726 H   0  0  0  0  0  0  0  0  0  0  0  0
    2.2116   14.3570   -0.0726 H   0  0  0  0  0  0  0  0  0  0  0  0
    1.1682   12.6541    2.8594 H   0  0  0  0  0  0  0  0  0  0  0  0
    0.5860   14.0449    1.8830 H   0  0  0  0  0  0  0  0  0  0  0  0
   -0.3317   12.5007    1.8830 H   0  0  0  0  0  0  0  0  0  0  0  0
   -0.4941    9.8700   -1.9499 H   0  0  0  0  0  0  0  0  0  0  0  0
   -1.2880   10.2982   -3.5033 H   0  0  0  0  0  0  0  0  0  0  0  0
    0.2081    9.3039   -3.5033 H   0  0  0  0  0  0  0  0  0  0  0  0
    2.3965   10.6840   -3.9477 H   0  0  0  0  0  0  0  0  0  0  0  0
    0.9224   10.7058   -5.0704 H   0  0  0  0  0  0  0  0  0  0  0  0
    2.7248   13.0311   -4.3404 H   0  0  0  0  0  0  0  0  0  0  0  0
    2.5099   12.2309   -5.9468 H   0  0  0  0  0  0  0  0  0  0  0  0
   -0.8418   12.1364   -5.7770 H   0  0  0  0  0  0  0  0  0  0  0  0
   -0.6042   13.4601   -6.9679 H   0  0  0  0  0  0  0  0  0  0  0  0
    0.4998   12.0430   -6.9679 H   0  0  0  0  0  0  0  0  0  0  0  0
  1  2  1  0
  2  3  1  0
  3  4  1  0
  4  5  1  0
  5  6  1  0
  6  7  1  0
  7  8  1  0
  7  9  1  0
  2 10  1  0
 10 11  1  0
 11 12  1  0
 12 13  1  0
 13 14  1  1
 13 15  1  0
 15 16  1  0
 16 17  1  0
 17 18  2  0
 18 19  1  0
 19 20  1  0
 20 21  1  0
 21 22  1  0
 22 23  1  0
 22 24  1  0
 24 25  1  0
 24 26  1  0
 19 27  1  0
 27 28  1  1
 27 29  1  0
 29 30  1  0
 30 31  1  0
 31 32  1  6
  7  5  1  0
 31 10  1  0
 31 13  1  0
 27 15  1  0
 24 18  1  0
  1 33  1  0
  1 34  1  0
  1 35  1  0
  2 36  1  6
  3 37  1  0
  3 38  1  0
  4 39  1  0
  4 40  1  0
  5 41  1  6
  8 42  1  0
  8 43  1  0
  8 44  1  0
  9 45  1  0
  9 46  1  0
  9 47  1  0
 10 48  1  1
 11 49  1  0
 11 50  1  0
 12 51  1  0
 12 52  1  0
 14 53  1  0
 14 54  1  0
 14 55  1  0
 15 56  1  6
 16 57  1  0
 16 58  1  0
 17 59  1  0
 19 60  1  6
 20 61  1  0
 20 62  1  0
 21 63  1  0
 21 64  1  0
 22 65  1  1
 23 66  1  0
 25 67  1  0
 25 68  1  0
 25 69  1  0
 26 70  1  0
 26 71  1  0
 26 72  1  0
 28 73  1  0
 28 74  1  0
 28 75  1  0
 29 76  1  0
 29 77  1  0
 30 78  1  0
 30 79  1  0
 32 80  1  0
 32 81  1  0
 32 82  1  0
M  END
>  <meeko>  (17) 
{"is_sidechain": [false], "intermolecular_energy": 2.731, "internal_energy": -0.839}

$$$$
EPH_relaxed_0001_pdb2pqr_Repair_57_r2_0001_out
     RDKit          3D

 82 86  0  0  0  0  0  0  0  0999 V2000
    0.9450    8.2630   -2.5400 C   0  0  0  0  0  0  0  0  0  0  0  0
   -0.4710    8.5570   -2.0360 C   0  0  2  0  0  0  0  0  0  0  0  0
   -1.5510    7.9320   -2.9420 C   0  0  0  0  0  0  0  0  0  0  0  0
   -2.7590    7.3870   -2.1740 C   0  0  0  0  0  0  0  0  0  0  0  0
   -3.9810    7.3210   -3.0380 C   0  0  2  0  0  0  0  0  0  0  0  0
   -5.2180    7.2210   -2.3190 O   0  0  0  0  0  0  0  0  0  0  0  0
   -4.8690    6.0940   -3.1390 C   0  0  0  0  0  0  0  0  0  0  0  0
   -4.5690    4.8480   -2.3660 C   0  0  0  0  0  0  0  0  0  0  0  0
   -5.7370    5.9370   -4.3480 C   0  0  0  0  0  0  0  0  0  0  0  0
   -0.6840   10.0630   -1.9340 C   0  0  1  0  0  0  0  0  0  0  0  0
   -2.1590   10.4380   -1.6270 C   0  0  0  0  0  0  0  0  0  0  0  0
   -2.1210   11.6950   -0.7210 C   0  0  0  0  0  0  0  0  0  0  0  0
   -0.6600   12.1950   -0.8080 C   0  0  1  0  0  0  0  0  0  0  0  0
   -0.5900   13.0000   -2.1430 C   0  0  0  0  0  0  0  0  0  0  0  0
   -0.1450   13.0390    0.4030 C   0  0  2  0  0  0  0  0  0  0  0  0
   -0.8890   14.3650    0.6380 C   0  0  0  0  0  0  0  0  0  0  0  0
   -0.3190   15.5500   -0.0700 C   0  0  0  0  0  0  0  0  0  0  0  0
    0.9030   15.6130   -0.6290 C   0  0  0  0  0  0  0  0  0  0  0  0
    1.8920   14.4470   -0.4970 C   0  0  1  0  0  0  0  0  0  0  0  0
    3.2890   14.9950   -0.1030 C   0  0  0  0  0  0  0  0  0  0  0  0
    3.7850   16.0750   -1.0600 C   0  0  0  0  0  0  0  0  0  0  0  0
    2.8040   17.2430   -1.1200 C   0  0  2  0  0  0  0  0  0  0  0  0
    2.7920   17.9010    0.1500 O   0  0  0  0  0  0  0  0  0  0  0  0
    1.3600   16.8110   -1.4990 C   0  0  0  0  0  0  0  0  0  0  0  0
    1.3180   16.3770   -2.9850 C   0  0  0  0  0  0  0  0  0  0  0  0
    0.4430   18.0590   -1.3860 C   0  0  0  0  0  0  0  0  0  0  0  0
    1.4240   13.2440    0.4300 C   0  0  1  0  0  0  0  0  0  0  0  0
    1.8100   13.5340    1.9130 C   0  0  0  0  0  0  0  0  0  0  0  0
    2.2050   11.9420    0.0150 C   0  0  0  0  0  0  0  0  0  0  0  0
    1.5830   11.0870   -1.1060 C   0  0  0  0  0  0  0  0  0  0  0  0
    0.1000   10.8190   -0.8320 C   0  0  2  0  0  0  0  0  0  0  0  0
   -0.0000    9.9900    0.4940 C   0  0  0  0  0  0  0  0  0  0  0  0
    1.6182    8.1232   -1.6813 H   0  0  0  0  0  0  0  0  0  0  0  0
    0.9343    7.3479   -3.1503 H   0  0  0  0  0  0  0  0  0  0  0  0
    1.2995    9.1067   -3.1503 H   0  0  0  0  0  0  0  0  0  0  0  0
   -0.5700    8.0994   -1.0406 H   0  0  0  0  0  0  0  0  0  0  0  0
   -1.9041    8.7022   -3.6435 H   0  0  0  0  0  0  0  0  0  0  0  0
   -1.0849    7.0783   -3.4558 H   0  0  0  0  0  0  0  0  0  0  0  0
   -2.5240    6.3755   -1.8111 H   0  0  0  0  0  0  0  0  0  0  0  0
   -2.9681    8.0679   -1.3357 H   0  0  0  0  0  0  0  0  0  0  0  0
   -3.5035    7.9514   -3.8026 H   0  0  0  0  0  0  0  0  0  0  0  0
   -4.6209    5.0635   -1.2886 H   0  0  0  0  0  0  0  0  0  0  0  0
   -5.3060    4.0721   -2.6207 H   0  0  0  0  0  0  0  0  0  0  0  0
   -3.5596    4.4926   -2.6207 H   0  0  0  0  0  0  0  0  0  0  0  0
   -6.7741    5.7494   -4.0329 H   0  0  0  0  0  0  0  0  0  0  0  0
   -5.6973    6.8569   -4.9498 H   0  0  0  0  0  0  0  0  0  0  0  0
   -5.3776    5.0893   -4.9498 H   0  0  0  0  0  0  0  0  0  0  0  0
   -0.3248   10.3681   -2.9279 H   0  0  0  0  0  0  0  0  0  0  0  0
   -2.6957   10.6603   -2.5611 H   0  0  0  0  0  0  0  0  0  0  0  0
   -2.6824    9.6081   -1.1297 H   0  0  0  0  0  0  0  0  0  0  0  0
   -2.8167   12.4621   -1.0919 H   0  0  0  0  0  0  0  0  0  0  0  0
   -2.4251   11.4734    0.3126 H   0  0  0  0  0  0  0  0  0  0  0  0
   -0.4967   14.0730   -1.9197 H   0  0  0  0  0  0  0  0  0  0  0  0
    0.2828   12.6694   -2.7252 H   0  0  0  0  0  0  0  0  0  0  0  0
   -1.5068   12.8250   -2.7252 H   0  0  0  0  0  0  0  0  0  0  0  0
   -0.3981   12.3986    1.2608 H   0  0  0  0  0  0  0  0  0  0  0  0
   -1.9284   14.2358    0.3020 H   0  0  0  0  0  0  0  0  0  0  0  0
   -0.7971   14.5793    1.7130 H   0  0  0  0  0  0  0  0  0  0  0  0
   -0.9518   16.4470   -0.1403 H   0  0  0  0  0  0  0  0  0  0  0  0
    1.9429   13.9764   -1.4900 H   0  0  0  0  0  0  0  0  0  0  0  0
    3.2278   15.4217    0.9090 H   0  0  0  0  0  0  0  0  0  0  0  0
    4.0008   14.1575   -0.1469 H   0  0  0  0  0  0  0  0  0  0  0  0
    4.7618   16.4428   -0.7127 H   0  0  0  0  0  0  0  0  0  0  0  0
    3.8737   15.6389   -2.0660 H   0  0  0  0  0  0  0  0  0  0  0  0
    3.1471   17.9214   -1.9150 H   0  0  0  0  0  0  0  0  0  0  0  0
    3.5660   18.4880    0.1840 H   0  0  0  0  0  0  0  0  0  0  0  0
    1.2122   15.2837   -3.0448 H   0  0  0  0  0  0  0  0  0  0  0  0
    0.4620   16.8560   -3.4828 H   0  0  0  0  0  0  0  0  0  0  0  0
    2.2500   16.6830   -3.4828 H   0  0  0  0  0  0  0  0  0  0  0  0
    0.2712   18.2929   -0.3250 H   0  0  0  0  0  0  0  0  0  0  0  0
    0.9279   18.9159   -1.8765 H   0  0  0  0  0  0  0  0  0  0  0  0
   -0.5197   17.8523   -1.8765 H   0  0  0  0  0  0  0  0  0  0  0  0
    1.1123   13.0098    2.5827 H   0  0  0  0  0  0  0  0  0  0  0  0
    2.8344   13.1803    2.1011 H   0  0  0  0  0  0  0  0  0  0  0  0
    1.7555   14.6164    2.1011 H   0  0  0  0  0  0  0  0  0  0  0  0
    3.2083   12.2472   -0.3169 H   0  0  0  0  0  0  0  0  0  0  0  0
    2.1907   11.3004    0.9084 H   0  0  0  0  0  0  0  0  0  0  0  0
    1.6815   11.6210   -2.0626 H   0  0  0  0  0  0  0  0  0  0  0  0
    2.1120   10.1234   -1.1468 H   0  0  0  0  0  0  0  0  0  0  0  0
    0.0817   10.6673    1.3569 H   0  0  0  0  0  0  0  0  0  0  0  0
   -0.9676    9.4679    0.5280 H   0  0  0  0  0  0  0  0  0  0  0  0
    0.8157    9.2528    0.5280 H   0  0  0  0  0  0  0  0  0  0  0  0
  1  2  1  0
  2  3  1  0
  3  4  1  0
  4  5  1  0
  5  6  1  0
  6  7  1  0
  7  8  1  0
  7  9  1  0
  2 10  1  0
 10 11  1  0
 11 12  1  0
 12 13  1  0
 13 14  1  6
 13 15  1  0
 15 16  1  0
 16 17  1  0
 17 18  2  0
 18 19  1  0
 19 20  1  0
 20 21  1  0
 21 22  1  0
 22 23  1  0
 22 24  1  0
 24 25  1  0
 24 26  1  0
 19 27  1  0
 27 28  1  1
 27 29  1  0
 29 30  1  0
 30 31  1  0
 31 32  1  1
  7  5  1  0
 31 10  1  0
 31 13  1  0
 27 15  1  0
 24 18  1  0
  1 33  1  0
  1 34  1  0
  1 35  1  0
  2 36  1  1
  3 37  1  0
  3 38  1  0
  4 39  1  0
  4 40  1  0
  5 41  1  6
  8 42  1  0
  8 43  1  0
  8 44  1  0
  9 45  1  0
  9 46  1  0
  9 47  1  0
 10 48  1  6
 11 49  1  0
 11 50  1  0
 12 51  1  0
 12 52  1  0
 14 53  1  0
 14 54  1  0
 14 55  1  0
 15 56  1  1
 16 57  1  0
 16 58  1  0
 17 59  1  0
 19 60  1  6
 20 61  1  0
 20 62  1  0
 21 63  1  0
 21 64  1  0
 22 65  1  6
 23 66  1  0
 25 67  1  0
 25 68  1  0
 25 69  1  0
 26 70  1  0
 26 71  1  0
 26 72  1  0
 28 73  1  0
 28 74  1  0
 28 75  1  0
 29 76  1  0
 29 77  1  0
 30 78  1  0
 30 79  1  0
 32 80  1  0
 32 81  1  0
 32 82  1  0
M  END
>  <meeko>  (18) 
{"is_sidechain": [false], "intermolecular_energy": 2.731, "internal_energy": -0.839}

$$$$
EPH_relaxed_0001_pdb2pqr_Repair_57_r2_0001_out
     RDKit          3D

 82 86  0  0  0  0  0  0  0  0999 V2000
   -2.5940    7.7820   -0.2570 C   0  0  0  0  0  0  0  0  0  0  0  0
   -3.0450    9.2340   -0.0790 C   0  0  2  0  0  0  0  0  0  0  0  0
   -4.5590    9.4050   -0.3130 C   0  0  0  0  0  0  0  0  0  0  0  0
   -5.1660    8.3330   -1.2220 C   0  0  0  0  0  0  0  0  0  0  0  0
   -6.2300    7.5470   -0.5170 C   0  0  2  0  0  0  0  0  0  0  0  0
   -6.6130    6.3330   -1.1770 O   0  0  0  0  0  0  0  0  0  0  0  0
   -7.6280    7.3460   -1.0730 C   0  0  0  0  0  0  0  0  0  0  0  0
   -8.0380    7.9340   -2.3860 C   0  0  0  0  0  0  0  0  0  0  0  0
   -8.7320    6.9970   -0.1230 C   0  0  0  0  0  0  0  0  0  0  0  0
   -2.2660   10.1400   -1.0250 C   0  0  1  0  0  0  0  0  0  0  0  0
   -2.8940   11.5540   -1.1520 C   0  0  0  0  0  0  0  0  0  0  0  0
   -1.7200   12.5520   -1.3200 C   0  0  0  0  0  0  0  0  0  0  0  0
   -0.4910   11.6610   -1.6170 C   0  0  1  0  0  0  0  0  0  0  0  0
   -0.5930   11.3300   -3.1390 C   0  0  0  0  0  0  0  0  0  0  0  0
    0.9050   12.2640   -1.2500 C   0  0  2  0  0  0  0  0  0  0  0  0
    1.2840   13.5440   -2.0160 C   0  0  0  0  0  0  0  0  0  0  0  0
    2.0270   13.3260   -3.2920 C   0  0  0  0  0  0  0  0  0  0  0  0
    2.6250   12.1780   -3.6630 C   0  0  0  0  0  0  0  0  0  0  0  0
    2.6710   10.9720   -2.7160 C   0  0  1  0  0  0  0  0  0  0  0  0
    4.1070   10.3860   -2.6940 C   0  0  0  0  0  0  0  0  0  0  0  0
    4.6240   10.0520   -4.0900 C   0  0  0  0  0  0  0  0  0  0  0  0
    4.6180   11.2890   -4.9850 C   0  0  2  0  0  0  0  0  0  0  0  0
    5.5790   12.2240   -4.4860 O   0  0  0  0  0  0  0  0  0  0  0  0
    3.2240   11.9720   -5.0760 C   0  0  0  0  0  0  0  0  0  0  0  0
    2.2580   11.0740   -5.8880 C   0  0  0  0  0  0  0  0  0  0  0  0
    3.3870   13.2830   -5.8920 C   0  0  0  0  0  0  0  0  0  0  0  0
    2.0870   11.2130   -1.2580 C   0  0  1  0  0  0  0  0  0  0  0  0
    3.2000   11.7870   -0.3280 C   0  0  0  0  0  0  0  0  0  0  0  0
    1.6620    9.8290   -0.6390 C   0  0  0  0  0  0  0  0  0  0  0  0
    0.2310    9.3440   -0.9390 C   0  0  0  0  0  0  0  0  0  0  0  0
   -0.7920   10.4490   -0.6610 C   0  0  2  0  0  0  0  0  0  0  0  0
   -0.7270   10.7880    0.8670 C   0  0  0  0  0  0  0  0  0  0  0  0
   -2.4502    7.3191    0.7304 H   0  0  0  0  0  0  0  0  0  0  0  0
   -3.3616    7.2254   -0.8147 H   0  0  0  0  0  0  0  0  0  0  0  0
   -1.6461    7.7582   -0.8147 H   0  0  0  0  0  0  0  0  0  0  0  0
   -2.8382    9.5190    0.9631 H   0  0  0  0  0  0  0  0  0  0  0  0
   -5.0679    9.3631    0.6613 H   0  0  0  0  0  0  0  0  0  0  0  0
   -4.6991   10.3720   -0.8183 H   0  0  0  0  0  0  0  0  0  0  0  0
   -5.6080    8.8211   -2.1031 H   0  0  0  0  0  0  0  0  0  0  0  0
   -4.3650    7.6390   -1.5166 H   0  0  0  0  0  0  0  0  0  0  0  0
   -5.8684    7.8907    0.4634 H   0  0  0  0  0  0  0  0  0  0  0  0
   -8.6591    8.8248   -2.2109 H   0  0  0  0  0  0  0  0  0  0  0  0
   -7.1414    8.2185   -2.9563 H   0  0  0  0  0  0  0  0  0  0  0  0
   -8.6149    7.1911   -2.9563 H   0  0  0  0  0  0  0  0  0  0  0  0
   -8.3750    7.1098    0.9113 H   0  0  0  0  0  0  0  0  0  0  0  0
   -9.5866    7.6688   -0.2913 H   0  0  0  0  0  0  0  0  0  0  0  0
   -9.0452    5.9560   -0.2913 H   0  0  0  0  0  0  0  0  0  0  0  0
   -2.3081    9.5304   -1.9396 H   0  0  0  0  0  0  0  0  0  0  0  0
   -3.5560   11.5969   -2.0294 H   0  0  0  0  0  0  0  0  0  0  0  0
   -3.4967   11.7993   -0.2651 H   0  0  0  0  0  0  0  0  0  0  0  0
   -1.9120   13.2404   -2.1563 H   0  0  0  0  0  0  0  0  0  0  0  0
   -1.5749   13.1797   -0.4284 H   0  0  0  0  0  0  0  0  0  0  0  0
   -0.9148   10.2859   -3.2664 H   0  0  0  0  0  0  0  0  0  0  0  0
   -1.3264   11.9999   -3.6116 H   0  0  0  0  0  0  0  0  0  0  0  0
    0.3903   11.4709   -3.6116 H   0  0  0  0  0  0  0  0  0  0  0  0
    0.7616   12.5736   -0.2043 H   0  0  0  0  0  0  0  0  0  0  0  0
    0.3566   14.0869   -2.2510 H   0  0  0  0  0  0  0  0  0  0  0  0
    1.9660   14.1023   -1.3578 H   0  0  0  0  0  0  0  0  0  0  0  0
    2.0915   14.1751   -3.9883 H   0  0  0  0  0  0  0  0  0  0  0  0
    1.9722   10.2312   -3.1319 H   0  0  0  0  0  0  0  0  0  0  0  0
    4.7819   11.1236   -2.2352 H   0  0  0  0  0  0  0  0  0  0  0  0
    4.0770    9.4504   -2.1163 H   0  0  0  0  0  0  0  0  0  0  0  0
    5.6525    9.6699   -4.0110 H   0  0  0  0  0  0  0  0  0  0  0  0
    3.9646    9.2929   -4.5361 H   0  0  0  0  0  0  0  0  0  0  0  0
    4.8745   10.9607   -6.0031 H   0  0  0  0  0  0  0  0  0  0  0  0
    5.2460   12.5650   -3.6380 H   0  0  0  0  0  0  0  0  0  0  0  0
    1.6311   10.4912   -5.1971 H   0  0  0  0  0  0  0  0  0  0  0  0
    1.6169   11.7043   -6.5218 H   0  0  0  0  0  0  0  0  0  0  0  0
    2.8399   10.3887   -6.5218 H   0  0  0  0  0  0  0  0  0  0  0  0
    3.4927   14.1334   -5.2023 H   0  0  0  0  0  0  0  0  0  0  0  0
    4.2832   13.2113   -6.5259 H   0  0  0  0  0  0  0  0  0  0  0  0
    2.5006   13.4330   -6.5259 H   0  0  0  0  0  0  0  0  0  0  0  0
    2.9121   11.6385    0.7232 H   0  0  0  0  0  0  0  0  0  0  0  0
    4.1481   11.2654   -0.5257 H   0  0  0  0  0  0  0  0  0  0  0  0
    3.3247   12.8619   -0.5257 H   0  0  0  0  0  0  0  0  0  0  0  0
    2.3582    9.0667   -1.0188 H   0  0  0  0  0  0  0  0  0  0  0  0
    1.6925    9.9794    0.4502 H   0  0  0  0  0  0  0  0  0  0  0  0
    0.1650    9.0505   -1.9971 H   0  0  0  0  0  0  0  0  0  0  0  0
    0.0073    8.4869   -0.2868 H   0  0  0  0  0  0  0  0  0  0  0  0
   -0.9023    9.8738    1.4532 H   0  0  0  0  0  0  0  0  0  0  0  0
    0.2655   11.1950    1.1104 H   0  0  0  0  0  0  0  0  0  0  0  0
   -1.4986   11.5332    1.1104 H   0  0  0  0  0  0  0  0  0  0  0  0
  1  2  1  0
  2  3  1  0
  3  4  1  0
  4  5  1  0
  5  6  1  0
  6  7  1  0
  7  8  1  0
  7  9  1  0
  2 10  1  0
 10 11  1  0
 11 12  1  0
 12 13  1  0
 13 14  1  6
 13 15  1  0
 15 16  1  0
 16 17  1  0
 17 18  2  0
 18 19  1  0
 19 20  1  0
 20 21  1  0
 21 22  1  0
 22 23  1  0
 22 24  1  0
 24 25  1  0
 24 26  1  0
 19 27  1  0
 27 28  1  1
 27 29  1  0
 29 30  1  0
 30 31  1  0
 31 32  1  1
  7  5  1  0
 31 10  1  0
 31 13  1  0
 27 15  1  0
 24 18  1  0
  1 33  1  0
  1 34  1  0
  1 35  1  0
  2 36  1  1
  3 37  1  0
  3 38  1  0
  4 39  1  0
  4 40  1  0
  5 41  1  1
  8 42  1  0
  8 43  1  0
  8 44  1  0
  9 45  1  0
  9 46  1  0
  9 47  1  0
 10 48  1  6
 11 49  1  0
 11 50  1  0
 12 51  1  0
 12 52  1  0
 14 53  1  0
 14 54  1  0
 14 55  1  0
 15 56  1  1
 16 57  1  0
 16 58  1  0
 17 59  1  0
 19 60  1  6
 20 61  1  0
 20 62  1  0
 21 63  1  0
 21 64  1  0
 22 65  1  6
 23 66  1  0
 25 67  1  0
 25 68  1  0
 25 69  1  0
 26 70  1  0
 26 71  1  0
 26 72  1  0
 28 73  1  0
 28 74  1  0
 28 75  1  0
 29 76  1  0
 29 77  1  0
 30 78  1  0
 30 79  1  0
 32 80  1  0
 32 81  1  0
 32 82  1  0
M  END
>  <meeko>  (19) 
{"is_sidechain": [false], "intermolecular_energy": 2.731, "internal_energy": -0.839}

$$$$
