EPH_relaxed_0001_pdb2pqr_Repair_173_r2_0001_out
     RDKit          3D

 82 86  0  0  0  0  0  0  0  0999 V2000
   -1.6470    8.6080   -1.9200 C   0  0  0  0  0  0  0  0  0  0  0  0
   -2.0380    9.1260   -0.5330 C   0  0  2  0  0  0  0  0  0  0  0  0
   -3.5340    9.4920   -0.4510 C   0  0  0  0  0  0  0  0  0  0  0  0
   -4.4570    8.2790   -0.3040 C   0  0  0  0  0  0  0  0  0  0  0  0
   -5.1420    7.9430   -1.5940 C   0  0  2  0  0  0  0  0  0  0  0  0
   -6.3470    8.6800   -1.8400 O   0  0  0  0  0  0  0  0  0  0  0  0
   -6.4950    7.2610   -1.6690 C   0  0  0  0  0  0  0  0  0  0  0  0
   -7.2430    6.8720   -0.4330 C   0  0  0  0  0  0  0  0  0  0  0  0
   -6.8620    6.5370   -2.9270 C   0  0  0  0  0  0  0  0  0  0  0  0
   -1.1860   10.3370   -0.1720 C   0  0  1  0  0  0  0  0  0  0  0  0
   -0.1490   10.0270    0.9410 C   0  0  0  0  0  0  0  0  0  0  0  0
    1.1140   10.8660    0.6220 C   0  0  0  0  0  0  0  0  0  0  0  0
    0.6520   11.8710   -0.4590 C   0  0  1  0  0  0  0  0  0  0  0  0
   -0.0590   13.0130    0.3330 C   0  0  0  0  0  0  0  0  0  0  0  0
    1.7660   12.4310   -1.4030 C   0  0  2  0  0  0  0  0  0  0  0  0
    2.8660   13.2470   -0.7020 C   0  0  0  0  0  0  0  0  0  0  0  0
    2.6060   14.7140   -0.6020 C   0  0  0  0  0  0  0  0  0  0  0  0
    1.6770   15.3930   -1.3000 C   0  0  0  0  0  0  0  0  0  0  0  0
    0.8330   14.6950   -2.3750 C   0  0  1  0  0  0  0  0  0  0  0  0
    0.7970   15.5710   -3.6550 C   0  0  0  0  0  0  0  0  0  0  0  0
    0.3250   16.9950   -3.3760 C   0  0  0  0  0  0  0  0  0  0  0  0
    1.2230   17.6760   -2.3460 C   0  0  2  0  0  0  0  0  0  0  0  0
    2.5220   17.8590   -2.9170 O   0  0  0  0  0  0  0  0  0  0  0  0
    1.3440   16.8790   -1.0170 C   0  0  0  0  0  0  0  0  0  0  0  0
   -0.0000   16.9380   -0.2500 C   0  0  0  0  0  0  0  0  0  0  0  0
    2.3870   17.6000   -0.1210 C   0  0  0  0  0  0  0  0  0  0  0  0
    1.2140   13.1830   -2.6810 C   0  0  1  0  0  0  0  0  0  0  0  0
    2.3440   13.1260   -3.7540 C   0  0  0  0  0  0  0  0  0  0  0  0
   -0.0330   12.4560   -3.3110 C   0  0  0  0  0  0  0  0  0  0  0  0
   -1.0350   11.8200   -2.3290 C   0  0  0  0  0  0  0  0  0  0  0  0
   -0.3130   10.9530   -1.2940 C   0  0  2  0  0  0  0  0  0  0  0  0
    0.3950    9.7830   -2.0590 C   0  0  0  0  0  0  0  0  0  0  0  0
   -0.9875    7.7342   -1.8126 H   0  0  0  0  0  0  0  0  0  0  0  0
   -2.5532    8.3177   -2.4719 H   0  0  0  0  0  0  0  0  0  0  0  0
   -1.1195    9.3999   -2.4719 H   0  0  0  0  0  0  0  0  0  0  0  0
   -1.8560    8.3147    0.1872 H   0  0  0  0  0  0  0  0  0  0  0  0
   -3.6836   10.1496    0.4180 H   0  0  0  0  0  0  0  0  0  0  0  0
   -3.7973    9.9834   -1.3992 H   0  0  0  0  0  0  0  0  0  0  0  0
   -3.8594    7.4135    0.0181 H   0  0  0  0  0  0  0  0  0  0  0  0
   -5.2291    8.5243    0.4401 H   0  0  0  0  0  0  0  0  0  0  0  0
   -4.1783    7.7249   -2.0774 H   0  0  0  0  0  0  0  0  0  0  0  0
   -6.6662    7.1720    0.4543 H   0  0  0  0  0  0  0  0  0  0  0  0
   -8.2208    7.3759   -0.4223 H   0  0  0  0  0  0  0  0  0  0  0  0
   -7.3920    5.7822   -0.4223 H   0  0  0  0  0  0  0  0  0  0  0  0
   -7.3459    5.5824   -2.6728 H   0  0  0  0  0  0  0  0  0  0  0  0
   -7.5560    7.1544   -3.5162 H   0  0  0  0  0  0  0  0  0  0  0  0
   -5.9538    6.3422   -3.5162 H   0  0  0  0  0  0  0  0  0  0  0  0
   -1.9800   11.0416    0.1163 H   0  0  0  0  0  0  0  0  0  0  0  0
   -0.5530   10.3096    1.9244 H   0  0  0  0  0  0  0  0  0  0  0  0
    0.0878    8.9532    0.9720 H   0  0  0  0  0  0  0  0  0  0  0  0
    1.4653   11.3956    1.5198 H   0  0  0  0  0  0  0  0  0  0  0  0
    1.9536   10.2427    0.2805 H   0  0  0  0  0  0  0  0  0  0  0  0
    0.0521   12.8346    1.4127 H   0  0  0  0  0  0  0  0  0  0  0  0
    0.3974   13.9793    0.0722 H   0  0  0  0  0  0  0  0  0  0  0  0
   -1.1275   13.0299    0.0722 H   0  0  0  0  0  0  0  0  0  0  0  0
    2.2567   11.5133   -1.7595 H   0  0  0  0  0  0  0  0  0  0  0  0
    2.9841   12.8524    0.3180 H   0  0  0  0  0  0  0  0  0  0  0  0
    3.7674   13.1393   -1.3231 H   0  0  0  0  0  0  0  0  0  0  0  0
    3.2263   15.2884    0.1018 H   0  0  0  0  0  0  0  0  0  0  0  0
   -0.1801   14.6052   -1.9559 H   0  0  0  0  0  0  0  0  0  0  0  0
    1.8097   15.6125   -4.0825 H   0  0  0  0  0  0  0  0  0  0  0  0
    0.0813   15.1127   -4.3534 H   0  0  0  0  0  0  0  0  0  0  0  0
    0.3492   17.5721   -4.3121 H   0  0  0  0  0  0  0  0  0  0  0  0
   -0.6988   16.9533   -2.9760 H   0  0  0  0  0  0  0  0  0  0  0  0
    0.7610   18.6414   -2.0919 H   0  0  0  0  0  0  0  0  0  0  0  0
    2.5600   17.3360   -3.7350 H   0  0  0  0  0  0  0  0  0  0  0  0
    0.1949   16.9294    0.8326 H   0  0  0  0  0  0  0  0  0  0  0  0
   -0.5354   17.8605   -0.5189 H   0  0  0  0  0  0  0  0  0  0  0  0
   -0.6142   16.0660   -0.5189 H   0  0  0  0  0  0  0  0  0  0  0  0
    2.1410   17.4299    0.9376 H   0  0  0  0  0  0  0  0  0  0  0  0
    3.3902   17.2016   -0.3329 H   0  0  0  0  0  0  0  0  0  0  0  0
    2.3688   18.6792   -0.3329 H   0  0  0  0  0  0  0  0  0  0  0  0
    3.3224   13.0766   -3.2538 H   0  0  0  0  0  0  0  0  0  0  0  0
    2.2081   12.2336   -4.3826 H   0  0  0  0  0  0  0  0  0  0  0  0
    2.2986   14.0276   -4.3826 H   0  0  0  0  0  0  0  0  0  0  0  0
   -0.5808   13.1961   -3.9128 H   0  0  0  0  0  0  0  0  0  0  0  0
    0.3833   11.6139   -3.8834 H   0  0  0  0  0  0  0  0  0  0  0  0
   -1.5851   12.6181   -1.8090 H   0  0  0  0  0  0  0  0  0  0  0  0
   -1.7277   11.1828   -2.8984 H   0  0  0  0  0  0  0  0  0  0  0  0
    0.8228    9.0760   -1.3329 H   0  0  0  0  0  0  0  0  0  0  0  0
   -0.3388    9.2608   -2.6906 H   0  0  0  0  0  0  0  0  0  0  0  0
    1.1980   10.1908   -2.6906 H   0  0  0  0  0  0  0  0  0  0  0  0
  1  2  1  0
  2  3  1  0
  3  4  1  0
  4  5  1  0
  5  6  1  0
  6  7  1  0
  7  8  1  0
  7  9  1  0
  2 10  1  0
 10 11  1  0
 11 12  1  0
 12 13  1  0
 13 14  1  1
 13 15  1  0
 15 16  1  0
 16 17  1  0
 17 18  2  0
 18 19  1  0
 19 20  1  0
 20 21  1  0
 21 22  1  0
 22 23  1  0
 22 24  1  0
 24 25  1  0
 24 26  1  0
 19 27  1  0
 27 28  1  6
 27 29  1  0
 29 30  1  0
 30 31  1  0
 31 32  1  6
  7  5  1  0
 31 10  1  0
 31 13  1  0
 27 15  1  0
 24 18  1  0
  1 33  1  0
  1 34  1  0
  1 35  1  0
  2 36  1  1
  3 37  1  0
  3 38  1  0
  4 39  1  0
  4 40  1  0
  5 41  1  6
  8 42  1  0
  8 43  1  0
  8 44  1  0
  9 45  1  0
  9 46  1  0
  9 47  1  0
 10 48  1  1
 11 49  1  0
 11 50  1  0
 12 51  1  0
 12 52  1  0
 14 53  1  0
 14 54  1  0
 14 55  1  0
 15 56  1  6
 16 57  1  0
 16 58  1  0
 17 59  1  0
 19 60  1  1
 20 61  1  0
 20 62  1  0
 21 63  1  0
 21 64  1  0
 22 65  1  1
 23 66  1  0
 25 67  1  0
 25 68  1  0
 25 69  1  0
 26 70  1  0
 26 71  1  0
 26 72  1  0
 28 73  1  0
 28 74  1  0
 28 75  1  0
 29 76  1  0
 29 77  1  0
 30 78  1  0
 30 79  1  0
 32 80  1  0
 32 81  1  0
 32 82  1  0
M  END
>  <meeko>  (1) 
{"is_sidechain": [false], "intermolecular_energy": 2.731, "internal_energy": -0.839}

$$$$
EPH_relaxed_0001_pdb2pqr_Repair_173_r2_0001_out
     RDKit          3D

 82 86  0  0  0  0  0  0  0  0999 V2000
    1.9860   19.5970   -0.5670 C   0  0  0  0  0  0  0  0  0  0  0  0
    2.3870   18.3830    0.2760 C   0  0  2  0  0  0  0  0  0  0  0  0
    3.8330   17.9290   -0.0110 C   0  0  0  0  0  0  0  0  0  0  0  0
    4.8080   18.2210    1.1320 C   0  0  0  0  0  0  0  0  0  0  0  0
    4.1190   18.8580    2.3000 C   0  0  2  0  0  0  0  0  0  0  0  0
    4.5480   20.1940    2.5930 O   0  0  0  0  0  0  0  0  0  0  0  0
    4.8220   19.2060    3.5990 C   0  0  0  0  0  0  0  0  0  0  0  0
    6.2790   18.9260    3.7970 C   0  0  0  0  0  0  0  0  0  0  0  0
    3.9980   19.3640    4.8390 C   0  0  0  0  0  0  0  0  0  0  0  0
    1.4200   17.2330    0.0250 C   0  0  1  0  0  0  0  0  0  0  0  0
    0.1100   17.6940   -0.6670 C   0  0  0  0  0  0  0  0  0  0  0  0
   -0.3240   16.5460   -1.6140 C   0  0  0  0  0  0  0  0  0  0  0  0
    0.5530   15.3420   -1.1960 C   0  0  1  0  0  0  0  0  0  0  0  0
   -0.1590   14.7450    0.0590 C   0  0  0  0  0  0  0  0  0  0  0  0
    0.8020   14.2550   -2.2910 C   0  0  2  0  0  0  0  0  0  0  0  0
   -0.4600   13.5310   -2.7910 C   0  0  0  0  0  0  0  0  0  0  0  0
   -0.8240   12.2920   -2.0420 C   0  0  0  0  0  0  0  0  0  0  0  0
   -0.0170   11.6230   -1.1980 C   0  0  0  0  0  0  0  0  0  0  0  0
    1.4440   12.0490   -1.0010 C   0  0  1  0  0  0  0  0  0  0  0  0
    2.3610   10.7990   -1.0660 C   0  0  0  0  0  0  0  0  0  0  0  0
    1.9350    9.7090   -0.0880 C   0  0  0  0  0  0  0  0  0  0  0  0
    0.4960    9.2710   -0.3530 C   0  0  2  0  0  0  0  0  0  0  0  0
    0.4400    8.6200   -1.6250 O   0  0  0  0  0  0  0  0  0  0  0  0
   -0.5180   10.4480   -0.3220 C   0  0  0  0  0  0  0  0  0  0  0  0
   -0.6790   10.9590    1.1310 C   0  0  0  0  0  0  0  0  0  0  0  0
   -1.9060    9.8930   -0.7440 C   0  0  0  0  0  0  0  0  0  0  0  0
    1.9540   13.2290   -1.9360 C   0  0  1  0  0  0  0  0  0  0  0  0
    2.4690   12.6510   -3.2890 C   0  0  0  0  0  0  0  0  0  0  0  0
    3.1880   13.9280   -1.2530 C   0  0  0  0  0  0  0  0  0  0  0  0
    2.8820   15.0750   -0.2710 C   0  0  0  0  0  0  0  0  0  0  0  0
    1.9070   16.0810   -0.8910 C   0  0  2  0  0  0  0  0  0  0  0  0
    2.6040   16.7150   -2.1420 C   0  0  0  0  0  0  0  0  0  0  0  0
    1.7109   20.4297    0.0970 H   0  0  0  0  0  0  0  0  0  0  0  0
    2.8323   19.8983   -1.2018 H   0  0  0  0  0  0  0  0  0  0  0  0
    1.1267   19.3349   -1.2018 H   0  0  0  0  0  0  0  0  0  0  0  0
    2.3392   18.6838    1.3330 H   0  0  0  0  0  0  0  0  0  0  0  0
    3.8266   16.8443   -0.1934 H   0  0  0  0  0  0  0  0  0  0  0  0
    4.1816   18.4995   -0.8845 H   0  0  0  0  0  0  0  0  0  0  0  0
    5.2656   17.2761    1.4602 H   0  0  0  0  0  0  0  0  0  0  0  0
    5.5711   18.9210    0.7609 H   0  0  0  0  0  0  0  0  0  0  0  0
    3.1944   18.3012    2.0876 H   0  0  0  0  0  0  0  0  0  0  0  0
    6.5012   18.8833    4.8735 H   0  0  0  0  0  0  0  0  0  0  0  0
    6.5338   17.9625    3.3315 H   0  0  0  0  0  0  0  0  0  0  0  0
    6.8728   19.7265    3.3315 H   0  0  0  0  0  0  0  0  0  0  0  0
    4.6398   19.2409    5.7239 H   0  0  0  0  0  0  0  0  0  0  0  0
    3.5435   20.3656    4.8521 H   0  0  0  0  0  0  0  0  0  0  0  0
    3.2053   18.6015    4.8521 H   0  0  0  0  0  0  0  0  0  0  0  0
    1.2964   16.8680    1.0553 H   0  0  0  0  0  0  0  0  0  0  0  0
   -0.6706   17.8798    0.0854 H   0  0  0  0  0  0  0  0  0  0  0  0
    0.2664   18.6287   -1.2255 H   0  0  0  0  0  0  0  0  0  0  0  0
   -1.3909   16.3143   -1.4797 H   0  0  0  0  0  0  0  0  0  0  0  0
   -0.1939   16.8084   -2.6743 H   0  0  0  0  0  0  0  0  0  0  0  0
    0.3125   15.1404    0.9708 H   0  0  0  0  0  0  0  0  0  0  0  0
   -1.2226   15.0253    0.0451 H   0  0  0  0  0  0  0  0  0  0  0  0
   -0.0685   13.6488    0.0451 H   0  0  0  0  0  0  0  0  0  0  0  0
    1.1590   14.8548   -3.1412 H   0  0  0  0  0  0  0  0  0  0  0  0
   -1.3047   14.2319   -2.7193 H   0  0  0  0  0  0  0  0  0  0  0  0
   -0.2392   13.2105   -3.8198 H   0  0  0  0  0  0  0  0  0  0  0  0
   -1.8376   11.8920   -2.1927 H   0  0  0  0  0  0  0  0  0  0  0  0
    1.4972   12.4994    0.0012 H   0  0  0  0  0  0  0  0  0  0  0  0
    2.3273   10.3898   -2.0865 H   0  0  0  0  0  0  0  0  0  0  0  0
    3.3775   11.1162   -0.7901 H   0  0  0  0  0  0  0  0  0  0  0  0
    2.6022    8.8419   -0.2021 H   0  0  0  0  0  0  0  0  0  0  0  0
    1.9977   10.1101    0.9344 H   0  0  0  0  0  0  0  0  0  0  0  0
    0.2047    8.5858    0.4567 H   0  0  0  0  0  0  0  0  0  0  0  0
   -0.2600    7.9460   -1.5810 H   0  0  0  0  0  0  0  0  0  0  0  0
   -0.4247   10.1519    1.8338 H   0  0  0  0  0  0  0  0  0  0  0  0
   -0.0067   11.8139    1.2956 H   0  0  0  0  0  0  0  0  0  0  0  0
   -1.7200   11.2741    1.2956 H   0  0  0  0  0  0  0  0  0  0  0  0
   -2.4953    9.6574    0.1545 H   0  0  0  0  0  0  0  0  0  0  0  0
   -2.4363   10.6482   -1.3427 H   0  0  0  0  0  0  0  0  0  0  0  0
   -1.7694    8.9803   -1.3427 H   0  0  0  0  0  0  0  0  0  0  0  0
    3.1890   11.8430   -3.0922 H   0  0  0  0  0  0  0  0  0  0  0  0
    1.6201   12.2536   -3.8648 H   0  0  0  0  0  0  0  0  0  0  0  0
    2.9613   13.4486   -3.8648 H   0  0  0  0  0  0  0  0  0  0  0  0
    3.7435   13.1561   -0.7002 H   0  0  0  0  0  0  0  0  0  0  0  0
    3.7456   14.3965   -2.0774 H   0  0  0  0  0  0  0  0  0  0  0  0
    2.4350   14.6568    0.6430 H   0  0  0  0  0  0  0  0  0  0  0  0
    3.8218   15.5960   -0.0359 H   0  0  0  0  0  0  0  0  0  0  0  0
    3.3800   17.4209   -1.8110 H   0  0  0  0  0  0  0  0  0  0  0  0
    3.0651   15.9203   -2.7469 H   0  0  0  0  0  0  0  0  0  0  0  0
    1.8564   17.2491   -2.7469 H   0  0  0  0  0  0  0  0  0  0  0  0
  1  2  1  0
  2  3  1  0
  3  4  1  0
  4  5  1  0
  5  6  1  0
  6  7  1  0
  7  8  1  0
  7  9  1  0
  2 10  1  0
 10 11  1  0
 11 12  1  0
 12 13  1  0
 13 14  1  1
 13 15  1  0
 15 16  1  0
 16 17  1  0
 17 18  2  0
 18 19  1  0
 19 20  1  0
 20 21  1  0
 21 22  1  0
 22 23  1  0
 22 24  1  0
 24 25  1  0
 24 26  1  0
 19 27  1  0
 27 28  1  6
 27 29  1  0
 29 30  1  0
 30 31  1  0
 31 32  1  6
  7  5  1  0
 31 10  1  0
 31 13  1  0
 27 15  1  0
 24 18  1  0
  1 33  1  0
  1 34  1  0
  1 35  1  0
  2 36  1  1
  3 37  1  0
  3 38  1  0
  4 39  1  0
  4 40  1  0
  5 41  1  1
  8 42  1  0
  8 43  1  0
  8 44  1  0
  9 45  1  0
  9 46  1  0
  9 47  1  0
 10 48  1  1
 11 49  1  0
 11 50  1  0
 12 51  1  0
 12 52  1  0
 14 53  1  0
 14 54  1  0
 14 55  1  0
 15 56  1  6
 16 57  1  0
 16 58  1  0
 17 59  1  0
 19 60  1  1
 20 61  1  0
 20 62  1  0
 21 63  1  0
 21 64  1  0
 22 65  1  1
 23 66  1  0
 25 67  1  0
 25 68  1  0
 25 69  1  0
 26 70  1  0
 26 71  1  0
 26 72  1  0
 28 73  1  0
 28 74  1  0
 28 75  1  0
 29 76  1  0
 29 77  1  0
 30 78  1  0
 30 79  1  0
 32 80  1  0
 32 81  1  0
 32 82  1  0
M  END
>  <meeko>  (2) 
{"is_sidechain": [false], "intermolecular_energy": 2.731, "internal_energy": -0.839}

$$$$
EPH_relaxed_0001_pdb2pqr_Repair_173_r2_0001_out
     RDKit          3D

 82 86  0  0  0  0  0  0  0  0999 V2000
    0.3920   18.4010   -0.0360 C   0  0  0  0  0  0  0  0  0  0  0  0
    1.4850   17.3530   -0.2590 C   0  0  2  0  0  0  0  0  0  0  0  0
    2.6930   17.9280   -1.0260 C   0  0  0  0  0  0  0  0  0  0  0  0
    3.9300   18.1480   -0.1510 C   0  0  0  0  0  0  0  0  0  0  0  0
    3.5610   18.6220    1.2220 C   0  0  2  0  0  0  0  0  0  0  0  0
    3.8430   20.0040    1.4740 O   0  0  0  0  0  0  0  0  0  0  0  0
    4.5790   19.0530    2.2610 C   0  0  0  0  0  0  0  0  0  0  0  0
    6.0470   19.0300    1.9710 C   0  0  0  0  0  0  0  0  0  0  0  0
    4.1830   19.0300    3.7040 C   0  0  0  0  0  0  0  0  0  0  0  0
    0.9130   16.1570   -1.0100 C   0  0  1  0  0  0  0  0  0  0  0  0
    0.8110   16.4040   -2.5390 C   0  0  0  0  0  0  0  0  0  0  0  0
    1.0990   15.0480   -3.2320 C   0  0  0  0  0  0  0  0  0  0  0  0
    1.0300   14.0050   -2.0920 C   0  0  1  0  0  0  0  0  0  0  0  0
   -0.4930   13.7240   -1.8980 C   0  0  0  0  0  0  0  0  0  0  0  0
    1.8360   12.6840   -2.3140 C   0  0  2  0  0  0  0  0  0  0  0  0
    1.3780   11.8330   -3.5120 C   0  0  0  0  0  0  0  0  0  0  0  0
    0.3330   10.8120   -3.2060 C   0  0  0  0  0  0  0  0  0  0  0  0
   -0.0120   10.3910   -1.9750 C   0  0  0  0  0  0  0  0  0  0  0  0
    0.7430   10.8820   -0.7340 C   0  0  1  0  0  0  0  0  0  0  0  0
    1.0740    9.6750    0.1830 C   0  0  0  0  0  0  0  0  0  0  0  0
   -0.1620    8.8540    0.5380 C   0  0  0  0  0  0  0  0  0  0  0  0
   -0.8520    8.3350   -0.7200 C   0  0  2  0  0  0  0  0  0  0  0  0
    0.0070    7.3860   -1.3590 O   0  0  0  0  0  0  0  0  0  0  0  0
   -1.2250    9.4610   -1.7240 C   0  0  0  0  0  0  0  0  0  0  0  0
   -2.3800   10.3150   -1.1420 C   0  0  0  0  0  0  0  0  0  0  0  0
   -1.7850    8.7910   -3.0070 C   0  0  0  0  0  0  0  0  0  0  0  0
    2.0090   11.8030   -1.0110 C   0  0  1  0  0  0  0  0  0  0  0  0
    3.2720   10.9170   -1.2370 C   0  0  0  0  0  0  0  0  0  0  0  0
    2.3000   12.6750    0.2670 C   0  0  0  0  0  0  0  0  0  0  0  0
    1.5630   14.0240    0.3700 C   0  0  0  0  0  0  0  0  0  0  0  0
    1.6990   14.8240   -0.9290 C   0  0  2  0  0  0  0  0  0  0  0  0
    3.2190   15.1400   -1.1400 C   0  0  0  0  0  0  0  0  0  0  0  0
    0.2392   18.5475    1.0434 H   0  0  0  0  0  0  0  0  0  0  0  0
    0.6972   19.3526   -0.4956 H   0  0  0  0  0  0  0  0  0  0  0  0
   -0.5460   18.0561   -0.4956 H   0  0  0  0  0  0  0  0  0  0  0  0
    1.8438   17.0336    0.7306 H   0  0  0  0  0  0  0  0  0  0  0  0
    2.9579   17.2278   -1.8319 H   0  0  0  0  0  0  0  0  0  0  0  0
    2.3908   18.9139   -1.4089 H   0  0  0  0  0  0  0  0  0  0  0  0
    4.4790   17.1987   -0.0648 H   0  0  0  0  0  0  0  0  0  0  0  0
    4.5520   18.9216   -0.6250 H   0  0  0  0  0  0  0  0  0  0  0  0
    2.7181   17.9165    1.2639 H   0  0  0  0  0  0  0  0  0  0  0  0
    6.6076   19.0212    2.9174 H   0  0  0  0  0  0  0  0  0  0  0  0
    6.2921   18.1279    1.3912 H   0  0  0  0  0  0  0  0  0  0  0  0
    6.3203   19.9240    1.3912 H   0  0  0  0  0  0  0  0  0  0  0  0
    5.0843   19.0823    4.3324 H   0  0  0  0  0  0  0  0  0  0  0  0
    3.5347   19.8920    3.9201 H   0  0  0  0  0  0  0  0  0  0  0  0
    3.6389   18.0987    3.9201 H   0  0  0  0  0  0  0  0  0  0  0  0
   -0.0516   16.0580   -0.4906 H   0  0  0  0  0  0  0  0  0  0  0  0
   -0.1983   16.7554   -2.7993 H   0  0  0  0  0  0  0  0  0  0  0  0
    1.5277   17.1729   -2.8632 H   0  0  0  0  0  0  0  0  0  0  0  0
    0.3403   14.8352   -3.9995 H   0  0  0  0  0  0  0  0  0  0  0  0
    2.0714   15.0404   -3.7461 H   0  0  0  0  0  0  0  0  0  0  0  0
   -0.7240   13.6814   -0.8234 H   0  0  0  0  0  0  0  0  0  0  0  0
   -1.0771   14.5295   -2.3669 H   0  0  0  0  0  0  0  0  0  0  0  0
   -0.7512   12.7631   -2.3669 H   0  0  0  0  0  0  0  0  0  0  0  0
    2.8351   13.0597   -2.5797 H   0  0  0  0  0  0  0  0  0  0  0  0
    0.9755   12.5126   -4.2776 H   0  0  0  0  0  0  0  0  0  0  0  0
    2.2642   11.2718   -3.8433 H   0  0  0  0  0  0  0  0  0  0  0  0
   -0.2002   10.3660   -4.0585 H   0  0  0  0  0  0  0  0  0  0  0  0
    0.0585   11.5687   -0.2145 H   0  0  0  0  0  0  0  0  0  0  0  0
    1.7925    9.0240   -0.3365 H   0  0  0  0  0  0  0  0  0  0  0  0
    1.4916   10.0721    1.1200 H   0  0  0  0  0  0  0  0  0  0  0  0
    0.1403    7.9995    1.1613 H   0  0  0  0  0  0  0  0  0  0  0  0
   -0.8665    9.4985    1.0842 H   0  0  0  0  0  0  0  0  0  0  0  0
   -1.7977    7.8679   -0.4079 H   0  0  0  0  0  0  0  0  0  0  0  0
   -0.0280    6.5630   -0.8430 H   0  0  0  0  0  0  0  0  0  0  0  0
   -2.3401   10.2855   -0.0431 H   0  0  0  0  0  0  0  0  0  0  0  0
   -2.2759   11.3550   -1.4849 H   0  0  0  0  0  0  0  0  0  0  0  0
   -3.3438    9.9106   -1.4849 H   0  0  0  0  0  0  0  0  0  0  0  0
   -2.4671    7.9749   -2.7266 H   0  0  0  0  0  0  0  0  0  0  0  0
   -2.3315    9.5376   -3.6019 H   0  0  0  0  0  0  0  0  0  0  0  0
   -0.9533    8.3856   -3.6019 H   0  0  0  0  0  0  0  0  0  0  0  0
    3.6921   10.6223   -0.2640 H   0  0  0  0  0  0  0  0  0  0  0  0
    2.9917   10.0165   -1.8032 H   0  0  0  0  0  0  0  0  0  0  0  0
    4.0233   11.4871   -1.8032 H   0  0  0  0  0  0  0  0  0  0  0  0
    2.0239   12.0769    1.1479 H   0  0  0  0  0  0  0  0  0  0  0  0
    3.3670   12.9342    0.2018 H   0  0  0  0  0  0  0  0  0  0  0  0
    0.4971   13.8375    0.5677 H   0  0  0  0  0  0  0  0  0  0  0  0
    2.0105   14.6064    1.1889 H   0  0  0  0  0  0  0  0  0  0  0  0
    3.7115   15.2424   -0.1617 H   0  0  0  0  0  0  0  0  0  0  0  0
    3.6892   14.3204   -1.7032 H   0  0  0  0  0  0  0  0  0  0  0  0
    3.3235   16.0791   -1.7032 H   0  0  0  0  0  0  0  0  0  0  0  0
  1  2  1  0
  2  3  1  0
  3  4  1  0
  4  5  1  0
  5  6  1  0
  6  7  1  0
  7  8  1  0
  7  9  1  0
  2 10  1  0
 10 11  1  0
 11 12  1  0
 12 13  1  0
 13 14  1  1
 13 15  1  0
 15 16  1  0
 16 17  1  0
 17 18  2  0
 18 19  1  0
 19 20  1  0
 20 21  1  0
 21 22  1  0
 22 23  1  0
 22 24  1  0
 24 25  1  0
 24 26  1  0
 19 27  1  0
 27 28  1  6
 27 29  1  0
 29 30  1  0
 30 31  1  0
 31 32  1  6
  7  5  1  0
 31 10  1  0
 31 13  1  0
 27 15  1  0
 24 18  1  0
  1 33  1  0
  1 34  1  0
  1 35  1  0
  2 36  1  1
  3 37  1  0
  3 38  1  0
  4 39  1  0
  4 40  1  0
  5 41  1  1
  8 42  1  0
  8 43  1  0
  8 44  1  0
  9 45  1  0
  9 46  1  0
  9 47  1  0
 10 48  1  1
 11 49  1  0
 11 50  1  0
 12 51  1  0
 12 52  1  0
 14 53  1  0
 14 54  1  0
 14 55  1  0
 15 56  1  6
 16 57  1  0
 16 58  1  0
 17 59  1  0
 19 60  1  1
 20 61  1  0
 20 62  1  0
 21 63  1  0
 21 64  1  0
 22 65  1  1
 23 66  1  0
 25 67  1  0
 25 68  1  0
 25 69  1  0
 26 70  1  0
 26 71  1  0
 26 72  1  0
 28 73  1  0
 28 74  1  0
 28 75  1  0
 29 76  1  0
 29 77  1  0
 30 78  1  0
 30 79  1  0
 32 80  1  0
 32 81  1  0
 32 82  1  0
M  END
>  <meeko>  (3) 
{"is_sidechain": [false], "intermolecular_energy": 2.731, "internal_energy": -0.839}

$$$$
EPH_relaxed_0001_pdb2pqr_Repair_173_r2_0001_out
     RDKit          3D

 82 86  0  0  0  0  0  0  0  0999 V2000
   -3.4940    9.3170    0.3980 C   0  0  0  0  0  0  0  0  0  0  0  0
   -2.6150    9.6730   -0.8050 C   0  0  2  0  0  0  0  0  0  0  0  0
   -1.9170    8.4350   -1.4020 C   0  0  0  0  0  0  0  0  0  0  0  0
   -2.8190    7.5990   -2.3130 C   0  0  0  0  0  0  0  0  0  0  0  0
   -4.2530    7.6620   -1.8830 C   0  0  2  0  0  0  0  0  0  0  0  0
   -4.7930    6.4200   -1.4130 O   0  0  0  0  0  0  0  0  0  0  0  0
   -5.3780    6.9510   -2.6120 C   0  0  0  0  0  0  0  0  0  0  0  0
   -5.1170    6.1260   -3.8340 C   0  0  0  0  0  0  0  0  0  0  0  0
   -6.7770    7.4510   -2.4300 C   0  0  0  0  0  0  0  0  0  0  0  0
   -1.5770   10.7130   -0.4000 C   0  0  1  0  0  0  0  0  0  0  0  0
   -0.5110   10.1440    0.5750 C   0  0  0  0  0  0  0  0  0  0  0  0
    0.8290   10.8430    0.2290 C   0  0  0  0  0  0  0  0  0  0  0  0
    0.4300   12.0170   -0.6950 C   0  0  1  0  0  0  0  0  0  0  0  0
   -0.0520   13.1430    0.2730 C   0  0  0  0  0  0  0  0  0  0  0  0
    1.5340   12.5320   -1.6750 C   0  0  2  0  0  0  0  0  0  0  0  0
    2.7880   13.1120   -0.9970 C   0  0  0  0  0  0  0  0  0  0  0  0
    2.7440   14.5790   -0.7230 C   0  0  0  0  0  0  0  0  0  0  0  0
    1.8680   15.4490   -1.2580 C   0  0  0  0  0  0  0  0  0  0  0  0
    0.8550   14.9950   -2.3170 C   0  0  1  0  0  0  0  0  0  0  0  0
    0.8430   16.0100   -3.4910 C   0  0  0  0  0  0  0  0  0  0  0  0
    0.5970   17.4410   -3.0230 C   0  0  0  0  0  0  0  0  0  0  0  0
    1.6580   17.8760   -2.0160 C   0  0  2  0  0  0  0  0  0  0  0  0
    2.9220   17.9530   -2.6820 O   0  0  0  0  0  0  0  0  0  0  0  0
    1.7690   16.9220   -0.7930 C   0  0  0  0  0  0  0  0  0  0  0  0
    0.5090   17.0680    0.0960 C   0  0  0  0  0  0  0  0  0  0  0  0
    2.9680   17.3940    0.0730 C   0  0  0  0  0  0  0  0  0  0  0  0
    0.9960   13.4910   -2.8120 C   0  0  1  0  0  0  0  0  0  0  0  0
    2.0210   13.4110   -3.9850 C   0  0  0  0  0  0  0  0  0  0  0  0
   -0.3850   13.0110   -3.3960 C   0  0  0  0  0  0  0  0  0  0  0  0
   -1.3870   12.4020   -2.3970 C   0  0  0  0  0  0  0  0  0  0  0  0
   -0.7150   11.3350   -1.5280 C   0  0  2  0  0  0  0  0  0  0  0  0
   -0.2400   10.1780   -2.4720 C   0  0  0  0  0  0  0  0  0  0  0  0
   -2.9495    9.5375    1.3280 H   0  0  0  0  0  0  0  0  0  0  0  0
   -4.4190    9.9114    0.3649 H   0  0  0  0  0  0  0  0  0  0  0  0
   -3.7447    8.2465    0.3649 H   0  0  0  0  0  0  0  0  0  0  0  0
   -3.2721   10.0874   -1.5838 H   0  0  0  0  0  0  0  0  0  0  0  0
   -1.0502    8.7741   -1.9882 H   0  0  0  0  0  0  0  0  0  0  0  0
   -1.6276    7.7913   -0.5582 H   0  0  0  0  0  0  0  0  0  0  0  0
   -2.7383    7.9804   -3.3416 H   0  0  0  0  0  0  0  0  0  0  0  0
   -2.4892    6.5513   -2.2537 H   0  0  0  0  0  0  0  0  0  0  0  0
   -4.1312    8.7035   -1.5506 H   0  0  0  0  0  0  0  0  0  0  0  0
   -4.7978    5.1170   -3.5339 H   0  0  0  0  0  0  0  0  0  0  0  0
   -6.0370    6.0565   -4.4329 H   0  0  0  0  0  0  0  0  0  0  0  0
   -4.3244    6.5984   -4.4329 H   0  0  0  0  0  0  0  0  0  0  0  0
   -7.0010    7.5310   -1.3560 H   0  0  0  0  0  0  0  0  0  0  0  0
   -6.8768    8.4405   -2.9001 H   0  0  0  0  0  0  0  0  0  0  0  0
   -7.4814    6.7490   -2.9001 H   0  0  0  0  0  0  0  0  0  0  0  0
   -2.2400   11.4773    0.0315 H   0  0  0  0  0  0  0  0  0  0  0  0
   -0.7944   10.3617    1.6153 H   0  0  0  0  0  0  0  0  0  0  0  0
   -0.4250    9.0521    0.4732 H   0  0  0  0  0  0  0  0  0  0  0  0
    1.3192   11.2156    1.1405 H   0  0  0  0  0  0  0  0  0  0  0  0
    1.5442   10.1590   -0.2512 H   0  0  0  0  0  0  0  0  0  0  0  0
    0.0879   12.8163    1.3140 H   0  0  0  0  0  0  0  0  0  0  0  0
    0.5339   14.0565    0.0935 H   0  0  0  0  0  0  0  0  0  0  0  0
   -1.1174   13.3496    0.0935 H   0  0  0  0  0  0  0  0  0  0  0  0
    1.8620   11.6055   -2.1689 H   0  0  0  0  0  0  0  0  0  0  0  0
    2.9277   12.5912   -0.0382 H   0  0  0  0  0  0  0  0  0  0  0  0
    3.6153   12.9595   -1.7058 H   0  0  0  0  0  0  0  0  0  0  0  0
    3.4914   14.9830   -0.0243 H   0  0  0  0  0  0  0  0  0  0  0  0
   -0.1252   14.9900   -1.8177 H   0  0  0  0  0  0  0  0  0  0  0  0
    1.8156   15.9686   -4.0032 H   0  0  0  0  0  0  0  0  0  0  0  0
    0.0191   15.7322   -4.1648 H   0  0  0  0  0  0  0  0  0  0  0  0
    0.6283   18.1144   -3.8923 H   0  0  0  0  0  0  0  0  0  0  0  0
   -0.3884   17.4865   -2.5362 H   0  0  0  0  0  0  0  0  0  0  0  0
    1.3563   18.8578   -1.6222 H   0  0  0  0  0  0  0  0  0  0  0  0
    2.7890   17.6660   -3.6010 H   0  0  0  0  0  0  0  0  0  0  0  0
    0.8020   17.0340    1.1557 H   0  0  0  0  0  0  0  0  0  0  0  0
    0.0185   18.0290   -0.1182 H   0  0  0  0  0  0  0  0  0  0  0  0
   -0.1883   16.2446   -0.1182 H   0  0  0  0  0  0  0  0  0  0  0  0
    2.7129   17.2936    1.1383 H   0  0  0  0  0  0  0  0  0  0  0  0
    3.8493   16.7757   -0.1529 H   0  0  0  0  0  0  0  0  0  0  0  0
    3.1913   18.4471   -0.1529 H   0  0  0  0  0  0  0  0  0  0  0  0
    3.0395   13.3315   -3.5772 H   0  0  0  0  0  0  0  0  0  0  0  0
    1.8033   12.5271   -4.6025 H   0  0  0  0  0  0  0  0  0  0  0  0
    1.9431   14.3180   -4.6025 H   0  0  0  0  0  0  0  0  0  0  0  0
   -0.8688   13.8809   -3.8643 H   0  0  0  0  0  0  0  0  0  0  0  0
   -0.1363   12.1937   -4.0889 H   0  0  0  0  0  0  0  0  0  0  0  0
   -1.7787   13.1997   -1.7487 H   0  0  0  0  0  0  0  0  0  0  0  0
   -2.2036   11.9300   -2.9630 H   0  0  0  0  0  0  0  0  0  0  0  0
    0.1084    9.3293   -1.8651 H   0  0  0  0  0  0  0  0  0  0  0  0
   -1.0783    9.8551   -3.1068 H   0  0  0  0  0  0  0  0  0  0  0  0
    0.5834   10.5374   -3.1068 H   0  0  0  0  0  0  0  0  0  0  0  0
  1  2  1  0
  2  3  1  0
  3  4  1  0
  4  5  1  0
  5  6  1  0
  6  7  1  0
  7  8  1  0
  7  9  1  0
  2 10  1  0
 10 11  1  0
 11 12  1  0
 12 13  1  0
 13 14  1  1
 13 15  1  0
 15 16  1  0
 16 17  1  0
 17 18  2  0
 18 19  1  0
 19 20  1  0
 20 21  1  0
 21 22  1  0
 22 23  1  0
 22 24  1  0
 24 25  1  0
 24 26  1  0
 19 27  1  0
 27 28  1  6
 27 29  1  0
 29 30  1  0
 30 31  1  0
 31 32  1  6
  7  5  1  0
 31 10  1  0
 31 13  1  0
 27 15  1  0
 24 18  1  0
  1 33  1  0
  1 34  1  0
  1 35  1  0
  2 36  1  6
  3 37  1  0
  3 38  1  0
  4 39  1  0
  4 40  1  0
  5 41  1  1
  8 42  1  0
  8 43  1  0
  8 44  1  0
  9 45  1  0
  9 46  1  0
  9 47  1  0
 10 48  1  1
 11 49  1  0
 11 50  1  0
 12 51  1  0
 12 52  1  0
 14 53  1  0
 14 54  1  0
 14 55  1  0
 15 56  1  6
 16 57  1  0
 16 58  1  0
 17 59  1  0
 19 60  1  1
 20 61  1  0
 20 62  1  0
 21 63  1  0
 21 64  1  0
 22 65  1  1
 23 66  1  0
 25 67  1  0
 25 68  1  0
 25 69  1  0
 26 70  1  0
 26 71  1  0
 26 72  1  0
 28 73  1  0
 28 74  1  0
 28 75  1  0
 29 76  1  0
 29 77  1  0
 30 78  1  0
 30 79  1  0
 32 80  1  0
 32 81  1  0
 32 82  1  0
M  END
>  <meeko>  (4) 
{"is_sidechain": [false], "intermolecular_energy": 2.731, "internal_energy": -0.839}

$$$$
EPH_relaxed_0001_pdb2pqr_Repair_173_r2_0001_out
     RDKit          3D

 82 86  0  0  0  0  0  0  0  0999 V2000
    2.3340   17.9770   -2.6710 C   0  0  0  0  0  0  0  0  0  0  0  0
    1.0150   17.5950   -1.9950 C   0  0  2  0  0  0  0  0  0  0  0  0
    1.1070   17.6680   -0.4580 C   0  0  0  0  0  0  0  0  0  0  0  0
    0.8010   19.0550    0.1130 C   0  0  0  0  0  0  0  0  0  0  0  0
   -0.6370   19.1820    0.5190 C   0  0  2  0  0  0  0  0  0  0  0  0
   -1.5210   18.2460   -0.1110 O   0  0  0  0  0  0  0  0  0  0  0  0
   -1.7360   19.6310   -0.4250 C   0  0  0  0  0  0  0  0  0  0  0  0
   -1.4450   19.9840   -1.8500 C   0  0  0  0  0  0  0  0  0  0  0  0
   -2.9940   20.1940    0.1590 C   0  0  0  0  0  0  0  0  0  0  0  0
    0.5960   16.1950   -2.4260 C   0  0  1  0  0  0  0  0  0  0  0  0
    0.7400   15.9720   -3.9560 C   0  0  0  0  0  0  0  0  0  0  0  0
    1.1640   14.4940   -4.1550 C   0  0  0  0  0  0  0  0  0  0  0  0
    0.9290   13.8320   -2.7770 C   0  0  1  0  0  0  0  0  0  0  0  0
   -0.6000   13.5190   -2.7380 C   0  0  0  0  0  0  0  0  0  0  0  0
    1.7860   12.5620   -2.4660 C   0  0  2  0  0  0  0  0  0  0  0  0
    1.5460   11.3670   -3.4050 C   0  0  0  0  0  0  0  0  0  0  0  0
    0.4850   10.4140   -2.9650 C   0  0  0  0  0  0  0  0  0  0  0  0
   -0.0490   10.3520   -1.7310 C   0  0  0  0  0  0  0  0  0  0  0  0
    0.4840   11.2380   -0.5970 C   0  0  1  0  0  0  0  0  0  0  0  0
    0.6840   10.3800    0.6800 C   0  0  0  0  0  0  0  0  0  0  0  0
   -0.5770    9.6200    1.0770 C   0  0  0  0  0  0  0  0  0  0  0  0
   -1.0430    8.7070   -0.0540 C   0  0  2  0  0  0  0  0  0  0  0  0
   -0.0720    7.6720   -0.2400 O   0  0  0  0  0  0  0  0  0  0  0  0
   -1.2680    9.4590   -1.3950 C   0  0  0  0  0  0  0  0  0  0  0  0
   -2.5180   10.3660   -1.2790 C   0  0  0  0  0  0  0  0  0  0  0  0
   -1.5980    8.4030   -2.4850 C   0  0  0  0  0  0  0  0  0  0  0  0
    1.7600   12.1190   -0.9470 C   0  0  1  0  0  0  0  0  0  0  0  0
    3.0600   11.2930   -0.7020 C   0  0  0  0  0  0  0  0  0  0  0  0
    1.8220   13.3470    0.0360 C   0  0  0  0  0  0  0  0  0  0  0  0
    1.0520   14.6130   -0.3850 C   0  0  0  0  0  0  0  0  0  0  0  0
    1.3830   15.0010   -1.8290 C   0  0  2  0  0  0  0  0  0  0  0  0
    2.9110   15.3430   -1.8950 C   0  0  0  0  0  0  0  0  0  0  0  0
    3.0899   18.1959   -1.9025 H   0  0  0  0  0  0  0  0  0  0  0  0
    2.6798   17.1421   -3.2982 H   0  0  0  0  0  0  0  0  0  0  0  0
    2.1802   18.8675   -3.2982 H   0  0  0  0  0  0  0  0  0  0  0  0
    0.2565   18.3247   -2.3148 H   0  0  0  0  0  0  0  0  0  0  0  0
    0.3887   16.9515   -0.0330 H   0  0  0  0  0  0  0  0  0  0  0  0
    2.1467   17.4318   -0.1872 H   0  0  0  0  0  0  0  0  0  0  0  0
    1.4368   19.2261    0.9942 H   0  0  0  0  0  0  0  0  0  0  0  0
    1.0038   19.8008   -0.6697 H   0  0  0  0  0  0  0  0  0  0  0  0
   -0.3479   19.5159    1.5264 H   0  0  0  0  0  0  0  0  0  0  0  0
   -0.7456   20.8324   -1.8821 H   0  0  0  0  0  0  0  0  0  0  0  0
   -0.9947   19.1182   -2.3576 H   0  0  0  0  0  0  0  0  0  0  0  0
   -2.3808   20.2608   -2.3576 H   0  0  0  0  0  0  0  0  0  0  0  0
   -2.9328   20.1666    1.2570 H   0  0  0  0  0  0  0  0  0  0  0  0
   -3.1199   21.2343   -0.1754 H   0  0  0  0  0  0  0  0  0  0  0  0
   -3.8537   19.5948   -0.1754 H   0  0  0  0  0  0  0  0  0  0  0  0
   -0.4382   16.1894   -2.0514 H   0  0  0  0  0  0  0  0  0  0  0  0
   -0.2200   16.1615   -4.4584 H   0  0  0  0  0  0  0  0  0  0  0  0
    1.4845   16.6577   -4.3866 H   0  0  0  0  0  0  0  0  0  0  0  0
    0.5457   14.0132   -4.9273 H   0  0  0  0  0  0  0  0  0  0  0  0
    2.2076   14.4008   -4.4901 H   0  0  0  0  0  0  0  0  0  0  0  0
   -0.9337   13.4507   -1.6921 H   0  0  0  0  0  0  0  0  0  0  0  0
   -1.1519   14.3228   -3.2472 H   0  0  0  0  0  0  0  0  0  0  0  0
   -0.7917   12.5630   -3.2472 H   0  0  0  0  0  0  0  0  0  0  0  0
    2.8079   12.9084   -2.6797 H   0  0  0  0  0  0  0  0  0  0  0  0
    1.2607   11.7616   -4.3914 H   0  0  0  0  0  0  0  0  0  0  0  0
    2.4849   10.7940   -3.4147 H   0  0  0  0  0  0  0  0  0  0  0  0
    0.1072    9.7015   -3.7130 H   0  0  0  0  0  0  0  0  0  0  0  0
   -0.2887   11.9999   -0.4171 H   0  0  0  0  0  0  0  0  0  0  0  0
    1.4895    9.6542    0.4946 H   0  0  0  0  0  0  0  0  0  0  0  0
    0.9362   11.0626    1.5049 H   0  0  0  0  0  0  0  0  0  0  0  0
   -0.3643    9.0101    1.9674 H   0  0  0  0  0  0  0  0  0  0  0  0
   -1.3731   10.3484    1.2906 H   0  0  0  0  0  0  0  0  0  0  0  0
   -2.0178    8.2898    0.2388 H   0  0  0  0  0  0  0  0  0  0  0  0
   -0.5110    6.8220   -0.0630 H   0  0  0  0  0  0  0  0  0  0  0  0
   -2.7511   10.5351   -0.2174 H   0  0  0  0  0  0  0  0  0  0  0  0
   -2.3179   11.3305   -1.7686 H   0  0  0  0  0  0  0  0  0  0  0  0
   -3.3728    9.8766   -1.7686 H   0  0  0  0  0  0  0  0  0  0  0  0
   -1.8930    7.4590   -2.0036 H   0  0  0  0  0  0  0  0  0  0  0  0
   -2.4246    8.7689   -3.1117 H   0  0  0  0  0  0  0  0  0  0  0  0
   -0.7101    8.2332   -3.1117 H   0  0  0  0  0  0  0  0  0  0  0  0
    3.2281   11.1862    0.3798 H   0  0  0  0  0  0  0  0  0  0  0  0
    2.9527   10.2970   -1.1565 H   0  0  0  0  0  0  0  0  0  0  0  0
    3.9161   11.8132   -1.1565 H   0  0  0  0  0  0  0  0  0  0  0  0
    1.4179   13.0185    1.0049 H   0  0  0  0  0  0  0  0  0  0  0  0
    2.8802   13.6468    0.0558 H   0  0  0  0  0  0  0  0  0  0  0  0
   -0.0280   14.4214   -0.3024 H   0  0  0  0  0  0  0  0  0  0  0  0
    1.3481   15.4400    0.2771 H   0  0  0  0  0  0  0  0  0  0  0  0
    3.3111   15.4326   -0.8743 H   0  0  0  0  0  0  0  0  0  0  0  0
    3.4434   14.5418   -2.4285 H   0  0  0  0  0  0  0  0  0  0  0  0
    3.0510   16.2947   -2.4285 H   0  0  0  0  0  0  0  0  0  0  0  0
  1  2  1  0
  2  3  1  0
  3  4  1  0
  4  5  1  0
  5  6  1  0
  6  7  1  0
  7  8  1  0
  7  9  1  0
  2 10  1  0
 10 11  1  0
 11 12  1  0
 12 13  1  0
 13 14  1  1
 13 15  1  0
 15 16  1  0
 16 17  1  0
 17 18  2  0
 18 19  1  0
 19 20  1  0
 20 21  1  0
 21 22  1  0
 22 23  1  0
 22 24  1  0
 24 25  1  0
 24 26  1  0
 19 27  1  0
 27 28  1  1
 27 29  1  0
 29 30  1  0
 30 31  1  0
 31 32  1  1
  7  5  1  0
 31 10  1  0
 31 13  1  0
 27 15  1  0
 24 18  1  0
  1 33  1  0
  1 34  1  0
  1 35  1  0
  2 36  1  6
  3 37  1  0
  3 38  1  0
  4 39  1  0
  4 40  1  0
  5 41  1  1
  8 42  1  0
  8 43  1  0
  8 44  1  0
  9 45  1  0
  9 46  1  0
  9 47  1  0
 10 48  1  1
 11 49  1  0
 11 50  1  0
 12 51  1  0
 12 52  1  0
 14 53  1  0
 14 54  1  0
 14 55  1  0
 15 56  1  6
 16 57  1  0
 16 58  1  0
 17 59  1  0
 19 60  1  1
 20 61  1  0
 20 62  1  0
 21 63  1  0
 21 64  1  0
 22 65  1  1
 23 66  1  0
 25 67  1  0
 25 68  1  0
 25 69  1  0
 26 70  1  0
 26 71  1  0
 26 72  1  0
 28 73  1  0
 28 74  1  0
 28 75  1  0
 29 76  1  0
 29 77  1  0
 30 78  1  0
 30 79  1  0
 32 80  1  0
 32 81  1  0
 32 82  1  0
M  END
>  <meeko>  (5) 
{"is_sidechain": [false], "intermolecular_energy": 2.731, "internal_energy": -0.839}

$$$$
EPH_relaxed_0001_pdb2pqr_Repair_173_r2_0001_out
     RDKit          3D

 82 86  0  0  0  0  0  0  0  0999 V2000
    2.1900   18.0290   -2.5760 C   0  0  0  0  0  0  0  0  0  0  0  0
    0.6690   17.8760   -2.6560 C   0  0  2  0  0  0  0  0  0  0  0  0
   -0.0310   18.3470   -1.3650 C   0  0  0  0  0  0  0  0  0  0  0  0
    0.6920   17.9240   -0.0840 C   0  0  0  0  0  0  0  0  0  0  0  0
    1.2050   19.1070    0.6800 C   0  0  2  0  0  0  0  0  0  0  0  0
    2.0820   19.9640   -0.0620 O   0  0  0  0  0  0  0  0  0  0  0  0
    2.6610   19.2870    1.0650 C   0  0  0  0  0  0  0  0  0  0  0  0
    3.6960   18.2700    0.6990 C   0  0  0  0  0  0  0  0  0  0  0  0
    2.9920   20.1940    2.2090 C   0  0  0  0  0  0  0  0  0  0  0  0
    0.3060   16.4240   -2.9450 C   0  0  1  0  0  0  0  0  0  0  0  0
    0.3850   16.0780   -4.4560 C   0  0  0  0  0  0  0  0  0  0  0  0
    0.8790   14.6120   -4.5540 C   0  0  0  0  0  0  0  0  0  0  0  0
    0.7510   14.0600   -3.1140 C   0  0  1  0  0  0  0  0  0  0  0  0
   -0.7540   13.6750   -2.9650 C   0  0  0  0  0  0  0  0  0  0  0  0
    1.6910   12.8670   -2.7460 C   0  0  2  0  0  0  0  0  0  0  0  0
    1.4710   11.5840   -3.5670 C   0  0  0  0  0  0  0  0  0  0  0  0
    0.4870   10.6200   -2.9910 C   0  0  0  0  0  0  0  0  0  0  0  0
    0.0200   10.6390   -1.7280 C   0  0  0  0  0  0  0  0  0  0  0  0
    0.5600   11.6450   -0.7040 C   0  0  1  0  0  0  0  0  0  0  0  0
    0.8710   10.9120    0.6270 C   0  0  0  0  0  0  0  0  0  0  0  0
   -0.3250   10.1260    1.1560 C   0  0  0  0  0  0  0  0  0  0  0  0
   -0.7960    9.0960    0.1320 C   0  0  2  0  0  0  0  0  0  0  0  0
    0.2190    8.1000   -0.0190 O   0  0  0  0  0  0  0  0  0  0  0  0
   -1.1300    9.7180   -1.2530 C   0  0  0  0  0  0  0  0  0  0  0  0
   -2.4200   10.5670   -1.1450 C   0  0  0  0  0  0  0  0  0  0  0  0
   -1.4550    8.5560   -2.2310 C   0  0  0  0  0  0  0  0  0  0  0  0
    1.7660   12.5560   -1.1960 C   0  0  1  0  0  0  0  0  0  0  0  0
    3.1200   11.8210   -0.9540 C   0  0  0  0  0  0  0  0  0  0  0  0
    1.8100   13.8660   -0.3240 C   0  0  0  0  0  0  0  0  0  0  0  0
    0.9520   15.0510   -0.8060 C   0  0  0  0  0  0  0  0  0  0  0  0
    1.1870   15.3280   -2.2940 C   0  0  2  0  0  0  0  0  0  0  0  0
    2.6880   15.7400   -2.4720 C   0  0  0  0  0  0  0  0  0  0  0  0
    2.5004   18.0602   -1.5212 H   0  0  0  0  0  0  0  0  0  0  0  0
    2.6712   17.1747   -3.0747 H   0  0  0  0  0  0  0  0  0  0  0  0
    2.4914   18.9620   -3.0747 H   0  0  0  0  0  0  0  0  0  0  0  0
    0.3154   18.5176   -3.4765 H   0  0  0  0  0  0  0  0  0  0  0  0
   -0.0912   19.4452   -1.3834 H   0  0  0  0  0  0  0  0  0  0  0  0
   -1.0233   17.8727   -1.3458 H   0  0  0  0  0  0  0  0  0  0  0  0
   -0.0093   17.3651    0.5531 H   0  0  0  0  0  0  0  0  0  0  0  0
    1.5522   17.2992   -0.3663 H   0  0  0  0  0  0  0  0  0  0  0  0
    0.2751   19.1620    1.2651 H   0  0  0  0  0  0  0  0  0  0  0  0
    4.1305   17.8430    1.6149 H   0  0  0  0  0  0  0  0  0  0  0  0
    3.2296   17.4691    0.1065 H   0  0  0  0  0  0  0  0  0  0  0  0
    4.4886   18.7503    0.1065 H   0  0  0  0  0  0  0  0  0  0  0  0
    2.8014   19.6716    3.1581 H   0  0  0  0  0  0  0  0  0  0  0  0
    4.0526   20.4805    2.1548 H   0  0  0  0  0  0  0  0  0  0  0  0
    2.3652   21.0963    2.1548 H   0  0  0  0  0  0  0  0  0  0  0  0
   -0.7064   16.3976   -2.5155 H   0  0  0  0  0  0  0  0  0  0  0  0
   -0.6080   16.1748   -4.9192 H   0  0  0  0  0  0  0  0  0  0  0  0
    1.0681   16.7609   -4.9823 H   0  0  0  0  0  0  0  0  0  0  0  0
    0.2497   14.0357   -5.2482 H   0  0  0  0  0  0  0  0  0  0  0  0
    1.9078   14.5432   -4.9373 H   0  0  0  0  0  0  0  0  0  0  0  0
   -1.0117   13.6091   -1.8976 H   0  0  0  0  0  0  0  0  0  0  0  0
   -1.3782   14.4424   -3.4462 H   0  0  0  0  0  0  0  0  0  0  0  0
   -0.9330   12.7021   -3.4462 H   0  0  0  0  0  0  0  0  0  0  0  0
    2.6798   13.2454   -3.0445 H   0  0  0  0  0  0  0  0  0  0  0  0
    1.1157   11.8764   -4.5661 H   0  0  0  0  0  0  0  0  0  0  0  0
    2.4385   11.0607   -3.5796 H   0  0  0  0  0  0  0  0  0  0  0  0
    0.1117    9.8270   -3.6546 H   0  0  0  0  0  0  0  0  0  0  0  0
   -0.2433   12.3798   -0.5465 H   0  0  0  0  0  0  0  0  0  0  0  0
    1.7048   10.2145    0.4588 H   0  0  0  0  0  0  0  0  0  0  0  0
    1.1265   11.6755    1.3766 H   0  0  0  0  0  0  0  0  0  0  0  0
   -0.0342    9.6070    2.0813 H   0  0  0  0  0  0  0  0  0  0  0  0
   -1.1484   10.8286    1.3521 H   0  0  0  0  0  0  0  0  0  0  0  0
   -1.7303    8.6561    0.5110 H   0  0  0  0  0  0  0  0  0  0  0  0
   -0.2000    7.2310    0.1070 H   0  0  0  0  0  0  0  0  0  0  0  0
   -2.6651   10.7283   -0.0849 H   0  0  0  0  0  0  0  0  0  0  0  0
   -2.2620   11.5382   -1.6367 H   0  0  0  0  0  0  0  0  0  0  0  0
   -3.2495   10.0377   -1.6367 H   0  0  0  0  0  0  0  0  0  0  0  0
   -1.7076    7.6528   -1.6562 H   0  0  0  0  0  0  0  0  0  0  0  0
   -2.3087    8.8380   -2.8647 H   0  0  0  0  0  0  0  0  0  0  0  0
   -0.5788    8.3542   -2.8647 H   0  0  0  0  0  0  0  0  0  0  0  0
    3.2969   11.7250    0.1274 H   0  0  0  0  0  0  0  0  0  0  0  0
    3.0806   10.8205   -1.4094 H   0  0  0  0  0  0  0  0  0  0  0  0
    3.9376   12.3991   -1.4094 H   0  0  0  0  0  0  0  0  0  0  0  0
    1.4737   13.6024    0.6896 H   0  0  0  0  0  0  0  0  0  0  0  0
    2.8498   14.2191   -0.3878 H   0  0  0  0  0  0  0  0  0  0  0  0
   -0.1104   14.8141   -0.6474 H   0  0  0  0  0  0  0  0  0  0  0  0
    1.2364   15.9460   -0.2332 H   0  0  0  0  0  0  0  0  0  0  0  0
    3.1529   15.8676   -1.4833 H   0  0  0  0  0  0  0  0  0  0  0  0
    3.2202   14.9547   -3.0288 H   0  0  0  0  0  0  0  0  0  0  0  0
    2.7448   16.6869   -3.0288 H   0  0  0  0  0  0  0  0  0  0  0  0
  1  2  1  0
  2  3  1  0
  3  4  1  0
  4  5  1  0
  5  6  1  0
  6  7  1  0
  7  8  1  0
  7  9  1  0
  2 10  1  0
 10 11  1  0
 11 12  1  0
 12 13  1  0
 13 14  1  1
 13 15  1  0
 15 16  1  0
 16 17  1  0
 17 18  2  0
 18 19  1  0
 19 20  1  0
 20 21  1  0
 21 22  1  0
 22 23  1  0
 22 24  1  0
 24 25  1  0
 24 26  1  0
 19 27  1  0
 27 28  1  6
 27 29  1  0
 29 30  1  0
 30 31  1  0
 31 32  1  1
  7  5  1  0
 31 10  1  0
 31 13  1  0
 27 15  1  0
 24 18  1  0
  1 33  1  0
  1 34  1  0
  1 35  1  0
  2 36  1  6
  3 37  1  0
  3 38  1  0
  4 39  1  0
  4 40  1  0
  5 41  1  1
  8 42  1  0
  8 43  1  0
  8 44  1  0
  9 45  1  0
  9 46  1  0
  9 47  1  0
 10 48  1  1
 11 49  1  0
 11 50  1  0
 12 51  1  0
 12 52  1  0
 14 53  1  0
 14 54  1  0
 14 55  1  0
 15 56  1  6
 16 57  1  0
 16 58  1  0
 17 59  1  0
 19 60  1  1
 20 61  1  0
 20 62  1  0
 21 63  1  0
 21 64  1  0
 22 65  1  1
 23 66  1  0
 25 67  1  0
 25 68  1  0
 25 69  1  0
 26 70  1  0
 26 71  1  0
 26 72  1  0
 28 73  1  0
 28 74  1  0
 28 75  1  0
 29 76  1  0
 29 77  1  0
 30 78  1  0
 30 79  1  0
 32 80  1  0
 32 81  1  0
 32 82  1  0
M  END
>  <meeko>  (6) 
{"is_sidechain": [false], "intermolecular_energy": 2.731, "internal_energy": -0.839}

$$$$
EPH_relaxed_0001_pdb2pqr_Repair_173_r2_0001_out
     RDKit          3D

 82 86  0  0  0  0  0  0  0  0999 V2000
   -5.1490    5.8510   -1.7960 C   0  0  0  0  0  0  0  0  0  0  0  0
   -5.4590    7.3510   -1.8080 C   0  0  2  0  0  0  0  0  0  0  0  0
   -5.2420    8.0000   -0.4270 C   0  0  0  0  0  0  0  0  0  0  0  0
   -4.1690    9.0910   -0.4210 C   0  0  0  0  0  0  0  0  0  0  0  0
   -2.8490    8.5730   -0.9050 C   0  0  2  0  0  0  0  0  0  0  0  0
   -1.7550    8.7830   -0.0020 O   0  0  0  0  0  0  0  0  0  0  0  0
   -1.6780    9.4690   -1.2620 C   0  0  0  0  0  0  0  0  0  0  0  0
   -1.7730   10.9590   -1.1500 C   0  0  0  0  0  0  0  0  0  0  0  0
   -0.6190    8.9350   -2.1760 C   0  0  0  0  0  0  0  0  0  0  0  0
   -6.8920    7.5810   -2.2730 C   0  0  1  0  0  0  0  0  0  0  0  0
   -7.1990    6.8890   -3.6280 C   0  0  0  0  0  0  0  0  0  0  0  0
   -8.6750    6.4190   -3.5660 C   0  0  0  0  0  0  0  0  0  0  0  0
   -9.2620    7.1390   -2.3290 C   0  0  1  0  0  0  0  0  0  0  0  0
   -9.6090    8.5770   -2.8290 C   0  0  0  0  0  0  0  0  0  0  0  0
  -10.4900    6.4530   -1.6480 C   0  0  2  0  0  0  0  0  0  0  0  0
  -11.7440    6.3320   -2.5330 C   0  0  0  0  0  0  0  0  0  0  0  0
  -12.6950    7.4790   -2.4510 C   0  0  0  0  0  0  0  0  0  0  0  0
  -12.6980    8.4260   -1.4940 C   0  0  0  0  0  0  0  0  0  0  0  0
  -11.7350    8.3450   -0.3020 C   0  0  1  0  0  0  0  0  0  0  0  0
  -12.5120    8.6230    1.0110 C   0  0  0  0  0  0  0  0  0  0  0  0
  -13.2790    9.9410    0.9690 C   0  0  0  0  0  0  0  0  0  0  0  0
  -14.2670    9.9610   -0.1940 C   0  0  2  0  0  0  0  0  0  0  0  0
  -15.2870    8.9880    0.0510 O   0  0  0  0  0  0  0  0  0  0  0  0
  -13.6000    9.6830   -1.5700 C   0  0  0  0  0  0  0  0  0  0  0  0
  -12.7180   10.8900   -1.9740 C   0  0  0  0  0  0  0  0  0  0  0  0
  -14.7250    9.5900   -2.6360 C   0  0  0  0  0  0  0  0  0  0  0  0
  -10.8460    7.0300   -0.2190 C   0  0  1  0  0  0  0  0  0  0  0  0
  -11.6240    5.9080    0.5340 C   0  0  0  0  0  0  0  0  0  0  0  0
   -9.5610    7.3330    0.6400 C   0  0  0  0  0  0  0  0  0  0  0  0
   -8.3400    7.8980   -0.1100 C   0  0  0  0  0  0  0  0  0  0  0  0
   -8.0290    7.0640   -1.3570 C   0  0  2  0  0  0  0  0  0  0  0  0
   -7.6540    5.6180   -0.8840 C   0  0  0  0  0  0  0  0  0  0  0  0
   -5.0764    5.4999   -0.7561 H   0  0  0  0  0  0  0  0  0  0  0  0
   -5.9535    5.3062   -2.3117 H   0  0  0  0  0  0  0  0  0  0  0  0
   -4.1944    5.6697   -2.3117 H   0  0  0  0  0  0  0  0  0  0  0  0
   -4.7592    7.8283   -2.5097 H   0  0  0  0  0  0  0  0  0  0  0  0
   -6.1927    8.4463   -0.0999 H   0  0  0  0  0  0  0  0  0  0  0  0
   -4.8959    7.2054    0.2504 H   0  0  0  0  0  0  0  0  0  0  0  0
   -4.4921    9.9123   -1.0776 H   0  0  0  0  0  0  0  0  0  0  0  0
   -4.0414    9.4406    0.6141 H   0  0  0  0  0  0  0  0  0  0  0  0
   -3.3436    7.7539   -1.4477 H   0  0  0  0  0  0  0  0  0  0  0  0
   -1.7913   11.2465   -0.0884 H   0  0  0  0  0  0  0  0  0  0  0  0
   -0.9024   11.4198   -1.6397 H   0  0  0  0  0  0  0  0  0  0  0  0
   -2.6951   11.3055   -1.6397 H   0  0  0  0  0  0  0  0  0  0  0  0
    0.2056    8.5192   -1.5784 H   0  0  0  0  0  0  0  0  0  0  0  0
   -1.0467    8.1448   -2.8106 H   0  0  0  0  0  0  0  0  0  0  0  0
   -0.2379    9.7487   -2.8106 H   0  0  0  0  0  0  0  0  0  0  0  0
   -6.9020    8.6806   -2.3008 H   0  0  0  0  0  0  0  0  0  0  0  0
   -7.0624    7.6001   -4.4560 H   0  0  0  0  0  0  0  0  0  0  0  0
   -6.5211    6.0400   -3.8004 H   0  0  0  0  0  0  0  0  0  0  0  0
   -9.2146    6.7124   -4.4785 H   0  0  0  0  0  0  0  0  0  0  0  0
   -8.7617    5.3249   -3.4921 H   0  0  0  0  0  0  0  0  0  0  0  0
   -9.7684    9.2375   -1.9639 H   0  0  0  0  0  0  0  0  0  0  0  0
   -8.7784    8.9639   -3.4377 H   0  0  0  0  0  0  0  0  0  0  0  0
  -10.5246    8.5426   -3.4377 H   0  0  0  0  0  0  0  0  0  0  0  0
  -10.1301    5.4247   -1.4961 H   0  0  0  0  0  0  0  0  0  0  0  0
  -11.4145    6.2377   -3.5783 H   0  0  0  0  0  0  0  0  0  0  0  0
  -12.2937    5.4538   -2.1634 H   0  0  0  0  0  0  0  0  0  0  0  0
  -13.4582    7.5574   -3.2392 H   0  0  0  0  0  0  0  0  0  0  0  0
  -10.9829    9.1314   -0.4633 H   0  0  0  0  0  0  0  0  0  0  0  0
  -13.2272    7.8040    1.1777 H   0  0  0  0  0  0  0  0  0  0  0  0
  -11.7766    8.6905    1.8262 H   0  0  0  0  0  0  0  0  0  0  0  0
  -13.8309   10.0664    1.9122 H   0  0  0  0  0  0  0  0  0  0  0  0
  -12.5593   10.7615    0.8321 H   0  0  0  0  0  0  0  0  0  0  0  0
  -14.6898   10.9750   -0.2497 H   0  0  0  0  0  0  0  0  0  0  0  0
  -15.2920    8.3710   -0.7000 H   0  0  0  0  0  0  0  0  0  0  0  0
  -12.3495   11.3942   -1.0685 H   0  0  0  0  0  0  0  0  0  0  0  0
  -11.8638   10.5367   -2.5702 H   0  0  0  0  0  0  0  0  0  0  0  0
  -13.3141   11.5965   -2.5702 H   0  0  0  0  0  0  0  0  0  0  0  0
  -15.7003    9.5094   -2.1337 H   0  0  0  0  0  0  0  0  0  0  0  0
  -14.7099   10.4925   -3.2648 H   0  0  0  0  0  0  0  0  0  0  0  0
  -14.5619    8.7023   -3.2648 H   0  0  0  0  0  0  0  0  0  0  0  0
  -11.5216    6.0557    1.6192 H   0  0  0  0  0  0  0  0  0  0  0  0
  -12.6877    5.9501    0.2570 H   0  0  0  0  0  0  0  0  0  0  0  0
  -11.2116    4.9266    0.2570 H   0  0  0  0  0  0  0  0  0  0  0  0
   -9.8427    8.0623    1.4138 H   0  0  0  0  0  0  0  0  0  0  0  0
   -9.2350    6.3551    1.0240 H   0  0  0  0  0  0  0  0  0  0  0  0
   -8.5516    8.9339   -0.4134 H   0  0  0  0  0  0  0  0  0  0  0  0
   -7.4692    7.8639    0.5612 H   0  0  0  0  0  0  0  0  0  0  0  0
   -7.6448    5.5827    0.2154 H   0  0  0  0  0  0  0  0  0  0  0  0
   -8.3963    4.9026   -1.2677 H   0  0  0  0  0  0  0  0  0  0  0  0
   -6.6576    5.3536   -1.2677 H   0  0  0  0  0  0  0  0  0  0  0  0
  1  2  1  0
  2  3  1  0
  3  4  1  0
  4  5  1  0
  5  6  1  0
  6  7  1  0
  7  8  1  0
  7  9  1  0
  2 10  1  0
 10 11  1  0
 11 12  1  0
 12 13  1  0
 13 14  1  6
 13 15  1  0
 15 16  1  0
 16 17  1  0
 17 18  2  0
 18 19  1  0
 19 20  1  0
 20 21  1  0
 21 22  1  0
 22 23  1  0
 22 24  1  0
 24 25  1  0
 24 26  1  0
 19 27  1  0
 27 28  1  1
 27 29  1  0
 29 30  1  0
 30 31  1  0
 31 32  1  1
  7  5  1  0
 31 10  1  0
 31 13  1  0
 27 15  1  0
 24 18  1  0
  1 33  1  0
  1 34  1  0
  1 35  1  0
  2 36  1  6
  3 37  1  0
  3 38  1  0
  4 39  1  0
  4 40  1  0
  5 41  1  6
  8 42  1  0
  8 43  1  0
  8 44  1  0
  9 45  1  0
  9 46  1  0
  9 47  1  0
 10 48  1  6
 11 49  1  0
 11 50  1  0
 12 51  1  0
 12 52  1  0
 14 53  1  0
 14 54  1  0
 14 55  1  0
 15 56  1  1
 16 57  1  0
 16 58  1  0
 17 59  1  0
 19 60  1  6
 20 61  1  0
 20 62  1  0
 21 63  1  0
 21 64  1  0
 22 65  1  6
 23 66  1  0
 25 67  1  0
 25 68  1  0
 25 69  1  0
 26 70  1  0
 26 71  1  0
 26 72  1  0
 28 73  1  0
 28 74  1  0
 28 75  1  0
 29 76  1  0
 29 77  1  0
 30 78  1  0
 30 79  1  0
 32 80  1  0
 32 81  1  0
 32 82  1  0
M  END
>  <meeko>  (7) 
{"is_sidechain": [false], "intermolecular_energy": 2.731, "internal_energy": -0.839}

$$$$
EPH_relaxed_0001_pdb2pqr_Repair_173_r2_0001_out
     RDKit          3D

 82 86  0  0  0  0  0  0  0  0999 V2000
    4.5580   16.1560   -0.3470 C   0  0  0  0  0  0  0  0  0  0  0  0
    3.2240   16.9040   -0.4190 C   0  0  2  0  0  0  0  0  0  0  0  0
    3.1220   18.0130    0.6470 C   0  0  0  0  0  0  0  0  0  0  0  0
    2.0180   19.0360    0.3680 C   0  0  0  0  0  0  0  0  0  0  0  0
    1.5160   18.9390   -1.0410 C   0  0  2  0  0  0  0  0  0  0  0  0
    1.4150   20.1920   -1.7290 O   0  0  0  0  0  0  0  0  0  0  0  0
    0.1800   19.4970   -1.4930 C   0  0  0  0  0  0  0  0  0  0  0  0
   -0.7380   20.1930   -0.5390 C   0  0  0  0  0  0  0  0  0  0  0  0
   -0.4450   18.9400   -2.7350 C   0  0  0  0  0  0  0  0  0  0  0  0
    2.0690   15.9220   -0.2620 C   0  0  1  0  0  0  0  0  0  0  0  0
    0.7030   16.6330   -0.0640 C   0  0  0  0  0  0  0  0  0  0  0  0
   -0.3630   15.7600   -0.7740 C   0  0  0  0  0  0  0  0  0  0  0  0
    0.3590   14.4230   -1.0650 C   0  0  1  0  0  0  0  0  0  0  0  0
    0.2960   13.6320    0.2790 C   0  0  0  0  0  0  0  0  0  0  0  0
   -0.2000   13.5810   -2.2580 C   0  0  2  0  0  0  0  0  0  0  0  0
   -1.6500   13.0950   -2.0890 C   0  0  0  0  0  0  0  0  0  0  0  0
   -1.8030   11.7580   -1.4410 C   0  0  0  0  0  0  0  0  0  0  0  0
   -0.8200   10.8560   -1.2690 C   0  0  0  0  0  0  0  0  0  0  0  0
    0.5840   11.1020   -1.8370 C   0  0  1  0  0  0  0  0  0  0  0  0
    1.0820    9.8220   -2.5580 C   0  0  0  0  0  0  0  0  0  0  0  0
    1.0230    8.5860   -1.6650 C   0  0  0  0  0  0  0  0  0  0  0  0
   -0.3990    8.3410   -1.1670 C   0  0  2  0  0  0  0  0  0  0  0  0
   -1.2240    7.9880   -2.2820 O   0  0  0  0  0  0  0  0  0  0  0  0
   -1.0110    9.5670   -0.4320 C   0  0  0  0  0  0  0  0  0  0  0  0
   -0.3020    9.7630    0.9310 C   0  0  0  0  0  0  0  0  0  0  0  0
   -2.4930    9.2380   -0.1070 C   0  0  0  0  0  0  0  0  0  0  0  0
    0.7530   12.4080   -2.7260 C   0  0  1  0  0  0  0  0  0  0  0  0
    0.3790   12.0950   -4.2070 C   0  0  0  0  0  0  0  0  0  0  0  0
    2.2680   12.8340   -2.7320 C   0  0  0  0  0  0  0  0  0  0  0  0
    2.7330   13.7630   -1.5940 C   0  0  0  0  0  0  0  0  0  0  0  0
    1.7880   14.9590   -1.4430 C   0  0  2  0  0  0  0  0  0  0  0  0
    1.8480   15.7870   -2.7720 C   0  0  0  0  0  0  0  0  0  0  0  0
    4.8349   16.0007    0.7062 H   0  0  0  0  0  0  0  0  0  0  0  0
    4.4595   15.1815   -0.8477 H   0  0  0  0  0  0  0  0  0  0  0  0
    5.3380   16.7483   -0.8477 H   0  0  0  0  0  0  0  0  0  0  0  0
    3.1686   17.3885   -1.4050 H   0  0  0  0  0  0  0  0  0  0  0  0
    2.9205   17.5416    1.6202 H   0  0  0  0  0  0  0  0  0  0  0  0
    4.0767   18.5593    0.6345 H   0  0  0  0  0  0  0  0  0  0  0  0
    1.1809   18.8543    1.0581 H   0  0  0  0  0  0  0  0  0  0  0  0
    2.4378   20.0422    0.5141 H   0  0  0  0  0  0  0  0  0  0  0  0
    1.9823   17.9503   -1.1635 H   0  0  0  0  0  0  0  0  0  0  0  0
   -0.4359   19.9640    0.4936 H   0  0  0  0  0  0  0  0  0  0  0  0
   -0.6840   21.2791   -0.7045 H   0  0  0  0  0  0  0  0  0  0  0  0
   -1.7692   19.8477   -0.7045 H   0  0  0  0  0  0  0  0  0  0  0  0
   -1.2400   18.2315   -2.4594 H   0  0  0  0  0  0  0  0  0  0  0  0
   -0.8746   19.7602   -3.3289 H   0  0  0  0  0  0  0  0  0  0  0  0
    0.3206   18.4192   -3.3289 H   0  0  0  0  0  0  0  0  0  0  0  0
    2.4273   15.3541    0.6093 H   0  0  0  0  0  0  0  0  0  0  0  0
    0.4713   16.7164    1.0081 H   0  0  0  0  0  0  0  0  0  0  0  0
    0.7229   17.6501   -0.4826 H   0  0  0  0  0  0  0  0  0  0  0  0
   -1.2315   15.5978   -0.1186 H   0  0  0  0  0  0  0  0  0  0  0  0
   -0.7486   16.2338   -1.6888 H   0  0  0  0  0  0  0  0  0  0  0  0
    0.3521   14.3364    1.1220 H   0  0  0  0  0  0  0  0  0  0  0  0
   -0.6496   13.0724    0.3311 H   0  0  0  0  0  0  0  0  0  0  0  0
    1.1411   12.9297    0.3311 H   0  0  0  0  0  0  0  0  0  0  0  0
   -0.2247   14.3162   -3.0758 H   0  0  0  0  0  0  0  0  0  0  0  0
   -2.1868   13.8336   -1.4755 H   0  0  0  0  0  0  0  0  0  0  0  0
   -2.0559   12.9887   -3.1058 H   0  0  0  0  0  0  0  0  0  0  0  0
   -2.8040   11.4882   -1.0734 H   0  0  0  0  0  0  0  0  0  0  0  0
    1.2286   11.3182   -0.9723 H   0  0  0  0  0  0  0  0  0  0  0  0
    0.4519    9.6480   -3.4427 H   0  0  0  0  0  0  0  0  0  0  0  0
    2.1342    9.9833   -2.8352 H   0  0  0  0  0  0  0  0  0  0  0  0
    1.3593    7.7103   -2.2395 H   0  0  0  0  0  0  0  0  0  0  0  0
    1.6766    8.7492   -0.7954 H   0  0  0  0  0  0  0  0  0  0  0  0
   -0.3543    7.5243   -0.4314 H   0  0  0  0  0  0  0  0  0  0  0  0
   -0.6360    7.7800   -3.0280 H   0  0  0  0  0  0  0  0  0  0  0  0
   -1.0138    9.5662    1.7462 H   0  0  0  0  0  0  0  0  0  0  0  0
    0.5450    9.0653    1.0074 H   0  0  0  0  0  0  0  0  0  0  0  0
    0.0664   10.7967    1.0074 H   0  0  0  0  0  0  0  0  0  0  0  0
   -2.6311    9.2073    0.9839 H   0  0  0  0  0  0  0  0  0  0  0  0
   -3.1436   10.0136   -0.5373 H   0  0  0  0  0  0  0  0  0  0  0  0
   -2.7543    8.2600   -0.5373 H   0  0  0  0  0  0  0  0  0  0  0  0
   -0.4644   11.3892   -4.2309 H   0  0  0  0  0  0  0  0  0  0  0  0
    0.0923   13.0263   -4.7175 H   0  0  0  0  0  0  0  0  0  0  0  0
    1.2452   11.6487   -4.7175 H   0  0  0  0  0  0  0  0  0  0  0  0
    2.8720   11.9161   -2.6801 H   0  0  0  0  0  0  0  0  0  0  0  0
    2.3985   13.4202   -3.6536 H   0  0  0  0  0  0  0  0  0  0  0  0
    2.7503   13.1966   -0.6512 H   0  0  0  0  0  0  0  0  0  0  0  0
    3.7384   14.1382   -1.8357 H   0  0  0  0  0  0  0  0  0  0  0  0
    1.9256   16.8580   -2.5335 H   0  0  0  0  0  0  0  0  0  0  0  0
    2.7261   15.4772   -3.3577 H   0  0  0  0  0  0  0  0  0  0  0  0
    0.9345   15.6070   -3.3577 H   0  0  0  0  0  0  0  0  0  0  0  0
  1  2  1  0
  2  3  1  0
  3  4  1  0
  4  5  1  0
  5  6  1  0
  6  7  1  0
  7  8  1  0
  7  9  1  0
  2 10  1  0
 10 11  1  0
 11 12  1  0
 12 13  1  0
 13 14  1  1
 13 15  1  0
 15 16  1  0
 16 17  1  0
 17 18  2  0
 18 19  1  0
 19 20  1  0
 20 21  1  0
 21 22  1  0
 22 23  1  0
 22 24  1  0
 24 25  1  0
 24 26  1  0
 19 27  1  0
 27 28  1  6
 27 29  1  0
 29 30  1  0
 30 31  1  0
 31 32  1  6
  7  5  1  0
 31 10  1  0
 31 13  1  0
 27 15  1  0
 24 18  1  0
  1 33  1  0
  1 34  1  0
  1 35  1  0
  2 36  1  6
  3 37  1  0
  3 38  1  0
  4 39  1  0
  4 40  1  0
  5 41  1  6
  8 42  1  0
  8 43  1  0
  8 44  1  0
  9 45  1  0
  9 46  1  0
  9 47  1  0
 10 48  1  1
 11 49  1  0
 11 50  1  0
 12 51  1  0
 12 52  1  0
 14 53  1  0
 14 54  1  0
 14 55  1  0
 15 56  1  6
 16 57  1  0
 16 58  1  0
 17 59  1  0
 19 60  1  1
 20 61  1  0
 20 62  1  0
 21 63  1  0
 21 64  1  0
 22 65  1  1
 23 66  1  0
 25 67  1  0
 25 68  1  0
 25 69  1  0
 26 70  1  0
 26 71  1  0
 26 72  1  0
 28 73  1  0
 28 74  1  0
 28 75  1  0
 29 76  1  0
 29 77  1  0
 30 78  1  0
 30 79  1  0
 32 80  1  0
 32 81  1  0
 32 82  1  0
M  END
>  <meeko>  (8) 
{"is_sidechain": [false], "intermolecular_energy": 2.731, "internal_energy": -0.839}

$$$$
EPH_relaxed_0001_pdb2pqr_Repair_173_r2_0001_out
     RDKit          3D

 82 86  0  0  0  0  0  0  0  0999 V2000
    2.8560   18.4240   -3.5450 C   0  0  0  0  0  0  0  0  0  0  0  0
    1.9640   18.1590   -2.3280 C   0  0  2  0  0  0  0  0  0  0  0  0
    2.1330   19.2360   -1.2380 C   0  0  0  0  0  0  0  0  0  0  0  0
    1.2210   19.0330   -0.0260 C   0  0  0  0  0  0  0  0  0  0  0  0
    0.0090   19.9120   -0.0910 C   0  0  2  0  0  0  0  0  0  0  0  0
   -0.5940   20.1940    1.1790 O   0  0  0  0  0  0  0  0  0  0  0  0
   -1.3900   19.4350    0.2540 C   0  0  0  0  0  0  0  0  0  0  0  0
   -1.6490   18.0260    0.6880 C   0  0  0  0  0  0  0  0  0  0  0  0
   -2.5590   20.1900   -0.2970 C   0  0  0  0  0  0  0  0  0  0  0  0
    2.2690   16.7820   -1.7510 C   0  0  1  0  0  0  0  0  0  0  0  0
    2.9120   16.8540   -0.3400 C   0  0  0  0  0  0  0  0  0  0  0  0
    2.3810   15.6340    0.4560 C   0  0  0  0  0  0  0  0  0  0  0  0
    1.7240   14.7280   -0.6110 C   0  0  1  0  0  0  0  0  0  0  0  0
    2.9100   13.9480   -1.2600 C   0  0  0  0  0  0  0  0  0  0  0  0
    0.6070   13.7600   -0.1020 C   0  0  2  0  0  0  0  0  0  0  0  0
    1.0700   12.7100    0.9220 C   0  0  0  0  0  0  0  0  0  0  0  0
    1.5350   11.4150    0.3420 C   0  0  0  0  0  0  0  0  0  0  0  0
    1.3160   11.0000   -0.9190 C   0  0  0  0  0  0  0  0  0  0  0  0
    0.4490   11.8220   -1.8800 C   0  0  1  0  0  0  0  0  0  0  0  0
   -0.5530   10.8850   -2.6050 C   0  0  0  0  0  0  0  0  0  0  0  0
    0.1370    9.7150   -3.2980 C   0  0  0  0  0  0  0  0  0  0  0  0
    0.9420    8.8870   -2.3000 C   0  0  2  0  0  0  0  0  0  0  0  0
    0.0370    8.2520   -1.3920 O   0  0  0  0  0  0  0  0  0  0  0  0
    1.9790    9.7270   -1.5030 C   0  0  0  0  0  0  0  0  0  0  0  0
    3.1280   10.1660   -2.4450 C   0  0  0  0  0  0  0  0  0  0  0  0
    2.6220    8.8030   -0.4350 C   0  0  0  0  0  0  0  0  0  0  0  0
   -0.2560   13.1030   -1.2550 C   0  0  1  0  0  0  0  0  0  0  0  0
   -1.6200   12.7000   -0.6160 C   0  0  0  0  0  0  0  0  0  0  0  0
   -0.5880   14.1210   -2.4090 C   0  0  0  0  0  0  0  0  0  0  0  0
    0.5140   15.1300   -2.7840 C   0  0  0  0  0  0  0  0  0  0  0  0
    1.0740   15.8200   -1.5360 C   0  0  2  0  0  0  0  0  0  0  0  0
   -0.0920   16.6310   -0.8740 C   0  0  0  0  0  0  0  0  0  0  0  0
    3.8592   18.7220   -3.2063 H   0  0  0  0  0  0  0  0  0  0  0  0
    2.9304   17.5092   -4.1512 H   0  0  0  0  0  0  0  0  0  0  0  0
    2.4188   19.2311   -4.1512 H   0  0  0  0  0  0  0  0  0  0  0  0
    0.9190   18.1965   -2.6693 H   0  0  0  0  0  0  0  0  0  0  0  0
    3.1774   19.2203   -0.8932 H   0  0  0  0  0  0  0  0  0  0  0  0
    1.8553   20.1988   -1.6916 H   0  0  0  0  0  0  0  0  0  0  0  0
    0.8979   17.9820    0.0050 H   0  0  0  0  0  0  0  0  0  0  0  0
    1.7885   19.2977    0.8784 H   0  0  0  0  0  0  0  0  0  0  0  0
    0.4123   20.4443   -0.9651 H   0  0  0  0  0  0  0  0  0  0  0  0
   -1.6581   17.9766    1.7869 H   0  0  0  0  0  0  0  0  0  0  0  0
   -2.6230   17.6954    0.2980 H   0  0  0  0  0  0  0  0  0  0  0  0
   -0.8563   17.3706    0.2980 H   0  0  0  0  0  0  0  0  0  0  0  0
   -3.1661   20.5821    0.5323 H   0  0  0  0  0  0  0  0  0  0  0  0
   -2.1977   21.0259   -0.9141 H   0  0  0  0  0  0  0  0  0  0  0  0
   -3.1723   19.5169   -0.9141 H   0  0  0  0  0  0  0  0  0  0  0  0
    2.9276   16.3932   -2.5417 H   0  0  0  0  0  0  0  0  0  0  0  0
    4.0080   16.8061   -0.4202 H   0  0  0  0  0  0  0  0  0  0  0  0
    2.6542   17.7971    0.1640 H   0  0  0  0  0  0  0  0  0  0  0  0
    3.2070   15.1078    0.9569 H   0  0  0  0  0  0  0  0  0  0  0  0
    1.6745   15.9272    1.2466 H   0  0  0  0  0  0  0  0  0  0  0  0
    3.5489   13.5278   -0.4693 H   0  0  0  0  0  0  0  0  0  0  0  0
    2.5149   13.1328   -1.8841 H   0  0  0  0  0  0  0  0  0  0  0  0
    3.5020   14.6336   -1.8841 H   0  0  0  0  0  0  0  0  0  0  0  0
   -0.0605   14.4390    0.4488 H   0  0  0  0  0  0  0  0  0  0  0  0
    1.9009   13.1416    1.4994 H   0  0  0  0  0  0  0  0  0  0  0  0
    0.1869   12.4703    1.5325 H   0  0  0  0  0  0  0  0  0  0  0  0
    2.1047   10.7436    1.0013 H   0  0  0  0  0  0  0  0  0  0  0  0
    1.1418   12.2644   -2.6110 H   0  0  0  0  0  0  0  0  0  0  0  0
   -1.2629   10.4874   -1.8647 H   0  0  0  0  0  0  0  0  0  0  0  0
   -1.0639   11.4770   -3.3786 H   0  0  0  0  0  0  0  0  0  0  0  0
   -0.6246    9.0739   -3.7659 H   0  0  0  0  0  0  0  0  0  0  0  0
    0.8246   10.1136   -4.0585 H   0  0  0  0  0  0  0  0  0  0  0  0
    1.5151    8.1439   -2.8739 H   0  0  0  0  0  0  0  0  0  0  0  0
   -0.5900    8.9270   -1.0810 H   0  0  0  0  0  0  0  0  0  0  0  0
    3.9890   10.4950   -1.8446 H   0  0  0  0  0  0  0  0  0  0  0  0
    3.4260    9.3184   -3.0796 H   0  0  0  0  0  0  0  0  0  0  0  0
    2.7849   10.9964   -3.0796 H   0  0  0  0  0  0  0  0  0  0  0  0
    2.3662    9.1706    0.5697 H   0  0  0  0  0  0  0  0  0  0  0  0
    2.2406    7.7787   -0.5588 H   0  0  0  0  0  0  0  0  0  0  0  0
    3.7150    8.8047   -0.5588 H   0  0  0  0  0  0  0  0  0  0  0  0
   -1.5332   12.7257    0.4803 H   0  0  0  0  0  0  0  0  0  0  0  0
   -2.3990   13.4064   -0.9387 H   0  0  0  0  0  0  0  0  0  0  0  0
   -1.8901   11.6837   -0.9387 H   0  0  0  0  0  0  0  0  0  0  0  0
   -0.8247   13.5366   -3.3103 H   0  0  0  0  0  0  0  0  0  0  0  0
   -1.4181   14.7315   -2.0240 H   0  0  0  0  0  0  0  0  0  0  0  0
    1.3288   14.5985   -3.2974 H   0  0  0  0  0  0  0  0  0  0  0  0
    0.0786   15.8960   -3.4425 H   0  0  0  0  0  0  0  0  0  0  0  0
   -0.0051   16.5706    0.2209 H   0  0  0  0  0  0  0  0  0  0  0  0
   -0.0318   17.6832   -1.1891 H   0  0  0  0  0  0  0  0  0  0  0  0
   -1.0575   16.2085   -1.1891 H   0  0  0  0  0  0  0  0  0  0  0  0
  1  2  1  0
  2  3  1  0
  3  4  1  0
  4  5  1  0
  5  6  1  0
  6  7  1  0
  7  8  1  0
  7  9  1  0
  2 10  1  0
 10 11  1  0
 11 12  1  0
 12 13  1  0
 13 14  1  6
 13 15  1  0
 15 16  1  0
 16 17  1  0
 17 18  2  0
 18 19  1  0
 19 20  1  0
 20 21  1  0
 21 22  1  0
 22 23  1  0
 22 24  1  0
 24 25  1  0
 24 26  1  0
 19 27  1  0
 27 28  1  1
 27 29  1  0
 29 30  1  0
 30 31  1  0
 31 32  1  1
  7  5  1  0
 31 10  1  0
 31 13  1  0
 27 15  1  0
 24 18  1  0
  1 33  1  0
  1 34  1  0
  1 35  1  0
  2 36  1  6
  3 37  1  0
  3 38  1  0
  4 39  1  0
  4 40  1  0
  5 41  1  6
  8 42  1  0
  8 43  1  0
  8 44  1  0
  9 45  1  0
  9 46  1  0
  9 47  1  0
 10 48  1  6
 11 49  1  0
 11 50  1  0
 12 51  1  0
 12 52  1  0
 14 53  1  0
 14 54  1  0
 14 55  1  0
 15 56  1  1
 16 57  1  0
 16 58  1  0
 17 59  1  0
 19 60  1  6
 20 61  1  0
 20 62  1  0
 21 63  1  0
 21 64  1  0
 22 65  1  6
 23 66  1  0
 25 67  1  0
 25 68  1  0
 25 69  1  0
 26 70  1  0
 26 71  1  0
 26 72  1  0
 28 73  1  0
 28 74  1  0
 28 75  1  0
 29 76  1  0
 29 77  1  0
 30 78  1  0
 30 79  1  0
 32 80  1  0
 32 81  1  0
 32 82  1  0
M  END
>  <meeko>  (9) 
{"is_sidechain": [false], "intermolecular_energy": 2.731, "internal_energy": -0.839}

$$$$
EPH_relaxed_0001_pdb2pqr_Repair_173_r2_0001_out
     RDKit          3D

 82 86  0  0  0  0  0  0  0  0999 V2000
    0.2300   10.4450   -3.5700 C   0  0  0  0  0  0  0  0  0  0  0  0
    1.0470   10.1770   -2.3040 C   0  0  2  0  0  0  0  0  0  0  0  0
    0.4590    9.0240   -1.4660 C   0  0  0  0  0  0  0  0  0  0  0  0
   -0.6850    8.2810   -2.1600 C   0  0  0  0  0  0  0  0  0  0  0  0
   -2.0230    8.7210   -1.6480 C   0  0  2  0  0  0  0  0  0  0  0  0
   -2.2190   10.1410   -1.6280 O   0  0  0  0  0  0  0  0  0  0  0  0
   -2.2120    9.4850   -0.3500 C   0  0  0  0  0  0  0  0  0  0  0  0
   -1.0480    9.8520    0.5160 C   0  0  0  0  0  0  0  0  0  0  0  0
   -3.5530    9.4450    0.3150 C   0  0  0  0  0  0  0  0  0  0  0  0
    1.1300   11.4440   -1.4600 C   0  0  1  0  0  0  0  0  0  0  0  0
    2.2270   11.3630   -0.3660 C   0  0  0  0  0  0  0  0  0  0  0  0
    2.8190   12.7890   -0.2200 C   0  0  0  0  0  0  0  0  0  0  0  0
    1.8300   13.7020   -0.9820 C   0  0  1  0  0  0  0  0  0  0  0  0
    0.6580   13.9490    0.0190 C   0  0  0  0  0  0  0  0  0  0  0  0
    2.4130   15.0450   -1.5320 C   0  0  2  0  0  0  0  0  0  0  0  0
    2.9340   16.0170   -0.4590 C   0  0  0  0  0  0  0  0  0  0  0  0
    1.9290   16.9910    0.0600 C   0  0  0  0  0  0  0  0  0  0  0  0
    0.7440   17.2740   -0.5140 C   0  0  0  0  0  0  0  0  0  0  0  0
    0.3550   16.6560   -1.8630 C   0  0  1  0  0  0  0  0  0  0  0  0
   -0.2170   17.7590   -2.7920 C   0  0  0  0  0  0  0  0  0  0  0  0
   -1.3670   18.5280   -2.1480 C   0  0  0  0  0  0  0  0  0  0  0  0
   -0.9250   19.1760   -0.8390 C   0  0  2  0  0  0  0  0  0  0  0  0
    0.0370   20.1940   -1.1300 O   0  0  0  0  0  0  0  0  0  0  0  0
   -0.3220   18.1620    0.1740 C   0  0  0  0  0  0  0  0  0  0  0  0
   -1.4420   17.2420    0.7190 C   0  0  0  0  0  0  0  0  0  0  0  0
    0.2120   18.9640    1.3910 C   0  0  0  0  0  0  0  0  0  0  0  0
    1.4750   15.7800   -2.5730 C   0  0  1  0  0  0  0  0  0  0  0  0
    2.3980   16.6940   -3.4350 C   0  0  0  0  0  0  0  0  0  0  0  0
    0.7860   14.7760   -3.5710 C   0  0  0  0  0  0  0  0  0  0  0  0
    0.3400   13.4190   -2.9950 C   0  0  0  0  0  0  0  0  0  0  0  0
    1.4700   12.7660   -2.1930 C   0  0  2  0  0  0  0  0  0  0  0  0
    2.6550   12.4850   -3.1790 C   0  0  0  0  0  0  0  0  0  0  0  0
   -0.7809   10.7766   -3.2906 H   0  0  0  0  0  0  0  0  0  0  0  0
    0.7218   11.2289   -4.1647 H   0  0  0  0  0  0  0  0  0  0  0  0
    0.1619    9.5221   -4.1647 H   0  0  0  0  0  0  0  0  0  0  0  0
    2.0561    9.8741   -2.6203 H   0  0  0  0  0  0  0  0  0  0  0  0
    1.2628    8.3037   -1.2538 H   0  0  0  0  0  0  0  0  0  0  0  0
    0.0438    9.4708   -0.5506 H   0  0  0  0  0  0  0  0  0  0  0  0
   -0.6344    8.4785   -3.2409 H   0  0  0  0  0  0  0  0  0  0  0  0
   -0.5737    7.2070   -1.9498 H   0  0  0  0  0  0  0  0  0  0  0  0
   -2.5004    7.8137   -2.0467 H   0  0  0  0  0  0  0  0  0  0  0  0
   -1.3352    9.7615    1.5740 H   0  0  0  0  0  0  0  0  0  0  0  0
   -0.2065    9.1756    0.3053 H   0  0  0  0  0  0  0  0  0  0  0  0
   -0.7467   10.8887    0.3053 H   0  0  0  0  0  0  0  0  0  0  0  0
   -3.4210    9.4489    1.4070 H   0  0  0  0  0  0  0  0  0  0  0  0
   -4.1383   10.3261    0.0132 H   0  0  0  0  0  0  0  0  0  0  0  0
   -4.0848    8.5306    0.0132 H   0  0  0  0  0  0  0  0  0  0  0  0
    0.0984   11.4795   -1.0797 H   0  0  0  0  0  0  0  0  0  0  0  0
    1.7874   11.0358    0.5878 H   0  0  0  0  0  0  0  0  0  0  0  0
    3.0069   10.6378   -0.6414 H   0  0  0  0  0  0  0  0  0  0  0  0
    2.8773   13.0786    0.8396 H   0  0  0  0  0  0  0  0  0  0  0  0
    3.8422   12.8586   -0.6179 H   0  0  0  0  0  0  0  0  0  0  0  0
    1.0335   13.8699    1.0499 H   0  0  0  0  0  0  0  0  0  0  0  0
    0.2425   14.9544   -0.1438 H   0  0  0  0  0  0  0  0  0  0  0  0
   -0.1279   13.1968   -0.1438 H   0  0  0  0  0  0  0  0  0  0  0  0
    3.3015   14.7084   -2.0863 H   0  0  0  0  0  0  0  0  0  0  0  0
    3.3004   15.4215    0.3902 H   0  0  0  0  0  0  0  0  0  0  0  0
    3.7167   16.6172   -0.9460 H   0  0  0  0  0  0  0  0  0  0  0  0
    2.1773   17.5228    0.9903 H   0  0  0  0  0  0  0  0  0  0  0  0
   -0.4248   15.9119   -1.6433 H   0  0  0  0  0  0  0  0  0  0  0  0
    0.5884   18.4676   -3.0355 H   0  0  0  0  0  0  0  0  0  0  0  0
   -0.6087   17.2659   -3.6939 H   0  0  0  0  0  0  0  0  0  0  0  0
   -1.7082   19.3117   -2.8403 H   0  0  0  0  0  0  0  0  0  0  0  0
   -2.1833   17.8229   -1.9324 H   0  0  0  0  0  0  0  0  0  0  0  0
   -1.8210   19.6005   -0.3626 H   0  0  0  0  0  0  0  0  0  0  0  0
   -0.3310   20.7530   -1.8360 H   0  0  0  0  0  0  0  0  0  0  0  0
   -1.4251   17.2558    1.8188 H   0  0  0  0  0  0  0  0  0  0  0  0
   -2.4183   17.6023    0.3627 H   0  0  0  0  0  0  0  0  0  0  0  0
   -1.2781   16.2143    0.3627 H   0  0  0  0  0  0  0  0  0  0  0  0
   -0.1125   18.4766    2.3222 H   0  0  0  0  0  0  0  0  0  0  0  0
    1.3111   18.9941    1.3566 H   0  0  0  0  0  0  0  0  0  0  0  0
   -0.1841   19.9896    1.3566 H   0  0  0  0  0  0  0  0  0  0  0  0
    3.0226   17.3125   -2.7736 H   0  0  0  0  0  0  0  0  0  0  0  0
    3.0433   16.0690   -4.0698 H   0  0  0  0  0  0  0  0  0  0  0  0
    1.7794   17.3454   -4.0698 H   0  0  0  0  0  0  0  0  0  0  0  0
   -0.1060   15.2731   -3.9799 H   0  0  0  0  0  0  0  0  0  0  0  0
    1.5600   14.5325   -4.3138 H   0  0  0  0  0  0  0  0  0  0  0  0
   -0.5260   13.5753   -2.3350 H   0  0  0  0  0  0  0  0  0  0  0  0
    0.0727   12.7543   -3.8297 H   0  0  0  0  0  0  0  0  0  0  0  0
    3.5673   12.2687   -2.6037 H   0  0  0  0  0  0  0  0  0  0  0  0
    2.4076   11.6206   -3.8127 H   0  0  0  0  0  0  0  0  0  0  0  0
    2.8220   13.3684   -3.8127 H   0  0  0  0  0  0  0  0  0  0  0  0
  1  2  1  0
  2  3  1  0
  3  4  1  0
  4  5  1  0
  5  6  1  0
  6  7  1  0
  7  8  1  0
  7  9  1  0
  2 10  1  0
 10 11  1  0
 11 12  1  0
 12 13  1  0
 13 14  1  1
 13 15  1  0
 15 16  1  0
 16 17  1  0
 17 18  2  0
 18 19  1  0
 19 20  1  0
 20 21  1  0
 21 22  1  0
 22 23  1  0
 22 24  1  0
 24 25  1  0
 24 26  1  0
 19 27  1  0
 27 28  1  6
 27 29  1  0
 29 30  1  0
 30 31  1  0
 31 32  1  6
  7  5  1  0
 31 10  1  0
 31 13  1  0
 27 15  1  0
 24 18  1  0
  1 33  1  0
  1 34  1  0
  1 35  1  0
  2 36  1  6
  3 37  1  0
  3 38  1  0
  4 39  1  0
  4 40  1  0
  5 41  1  6
  8 42  1  0
  8 43  1  0
  8 44  1  0
  9 45  1  0
  9 46  1  0
  9 47  1  0
 10 48  1  1
 11 49  1  0
 11 50  1  0
 12 51  1  0
 12 52  1  0
 14 53  1  0
 14 54  1  0
 14 55  1  0
 15 56  1  6
 16 57  1  0
 16 58  1  0
 17 59  1  0
 19 60  1  1
 20 61  1  0
 20 62  1  0
 21 63  1  0
 21 64  1  0
 22 65  1  1
 23 66  1  0
 25 67  1  0
 25 68  1  0
 25 69  1  0
 26 70  1  0
 26 71  1  0
 26 72  1  0
 28 73  1  0
 28 74  1  0
 28 75  1  0
 29 76  1  0
 29 77  1  0
 30 78  1  0
 30 79  1  0
 32 80  1  0
 32 81  1  0
 32 82  1  0
M  END
>  <meeko>  (10) 
{"is_sidechain": [false], "intermolecular_energy": 2.731, "internal_energy": -0.839}

$$$$
EPH_relaxed_0001_pdb2pqr_Repair_173_r2_0001_out
     RDKit          3D

 82 86  0  0  0  0  0  0  0  0999 V2000
   -0.9010   16.3850   -5.8790 C   0  0  0  0  0  0  0  0  0  0  0  0
    0.1900   15.6820   -6.6920 C   0  0  2  0  0  0  0  0  0  0  0  0
   -0.2130   15.5010   -8.1690 C   0  0  0  0  0  0  0  0  0  0  0  0
    0.4370   16.5170   -9.1130 C   0  0  0  0  0  0  0  0  0  0  0  0
    1.8400   16.1260   -9.4670 C   0  0  2  0  0  0  0  0  0  0  0  0
    2.3220   16.6760  -10.7000 O   0  0  0  0  0  0  0  0  0  0  0  0
    2.1890   15.2460  -10.6530 C   0  0  0  0  0  0  0  0  0  0  0  0
    1.1300   14.7030  -11.5610 C   0  0  0  0  0  0  0  0  0  0  0  0
    3.4980   14.5200  -10.6440 C   0  0  0  0  0  0  0  0  0  0  0  0
    0.5100   14.3280   -6.0700 C   0  0  1  0  0  0  0  0  0  0  0  0
    1.7360   13.6420   -6.7300 C   0  0  0  0  0  0  0  0  0  0  0  0
    2.4770   12.8730   -5.6060 C   0  0  0  0  0  0  0  0  0  0  0  0
    1.4840   12.8640   -4.4190 C   0  0  1  0  0  0  0  0  0  0  0  0
    0.4920   11.7010   -4.7340 C   0  0  0  0  0  0  0  0  0  0  0  0
    2.1120   12.7180   -2.9950 C   0  0  2  0  0  0  0  0  0  0  0  0
    2.8680   11.4010   -2.7470 C   0  0  0  0  0  0  0  0  0  0  0  0
    2.0440   10.2870   -2.1920 C   0  0  0  0  0  0  0  0  0  0  0  0
    0.8240   10.4180   -1.6380 C   0  0  0  0  0  0  0  0  0  0  0  0
    0.1930   11.8020   -1.4390 C   0  0  1  0  0  0  0  0  0  0  0  0
   -0.3930   11.9030   -0.0060 C   0  0  0  0  0  0  0  0  0  0  0  0
   -1.3630   10.7690    0.3100 C   0  0  0  0  0  0  0  0  0  0  0  0
   -0.6830    9.4110    0.1580 C   0  0  2  0  0  0  0  0  0  0  0  0
    0.3230    9.2830    1.1680 O   0  0  0  0  0  0  0  0  0  0  0  0
   -0.0460    9.1990   -1.2440 C   0  0  0  0  0  0  0  0  0  0  0  0
   -1.1630    9.0360   -2.3040 C   0  0  0  0  0  0  0  0  0  0  0  0
    0.7270    7.8530   -1.2180 C   0  0  0  0  0  0  0  0  0  0  0  0
    1.1140   13.0430   -1.8100 C   0  0  1  0  0  0  0  0  0  0  0  0
    1.9920   13.4400   -0.5850 C   0  0  0  0  0  0  0  0  0  0  0  0
    0.2000   14.2860   -2.1230 C   0  0  0  0  0  0  0  0  0  0  0  0
   -0.2910   14.4410   -3.5750 C   0  0  0  0  0  0  0  0  0  0  0  0
    0.8720   14.3050   -4.5630 C   0  0  2  0  0  0  0  0  0  0  0  0
    1.8750   15.4750   -4.2850 C   0  0  0  0  0  0  0  0  0  0  0  0
   -0.6994   16.2551   -4.8055 H   0  0  0  0  0  0  0  0  0  0  0  0
   -0.9071   17.4574   -6.1238 H   0  0  0  0  0  0  0  0  0  0  0  0
   -1.8801   15.9474   -6.1238 H   0  0  0  0  0  0  0  0  0  0  0  0
    1.0842   16.3222   -6.6697 H   0  0  0  0  0  0  0  0  0  0  0  0
    0.0831   14.4910   -8.4886 H   0  0  0  0  0  0  0  0  0  0  0  0
   -1.3002   15.6575   -8.2273 H   0  0  0  0  0  0  0  0  0  0  0  0
   -0.1593   16.5790  -10.0353 H   0  0  0  0  0  0  0  0  0  0  0  0
    0.4711   17.4892   -8.5996 H   0  0  0  0  0  0  0  0  0  0  0  0
    2.1196   16.0771   -8.4043 H   0  0  0  0  0  0  0  0  0  0  0  0
    0.3108   14.2830  -10.9589 H   0  0  0  0  0  0  0  0  0  0  0  0
    0.7407   15.5127  -12.1957 H   0  0  0  0  0  0  0  0  0  0  0  0
    1.5603   13.9143  -12.1957 H   0  0  0  0  0  0  0  0  0  0  0  0
    3.8132   14.3452   -9.6047 H   0  0  0  0  0  0  0  0  0  0  0  0
    3.3858   13.5552  -11.1603 H   0  0  0  0  0  0  0  0  0  0  0  0
    4.2570   15.1261  -11.1603 H   0  0  0  0  0  0  0  0  0  0  0  0
   -0.4508   13.8181   -6.2341 H   0  0  0  0  0  0  0  0  0  0  0  0
    1.4037   12.9430   -7.5117 H   0  0  0  0  0  0  0  0  0  0  0  0
    2.3965   14.3837   -7.2029 H   0  0  0  0  0  0  0  0  0  0  0  0
    2.7092   11.8465   -5.9258 H   0  0  0  0  0  0  0  0  0  0  0  0
    3.4371   13.3412   -5.3432 H   0  0  0  0  0  0  0  0  0  0  0  0
    0.1231   11.2685   -3.7923 H   0  0  0  0  0  0  0  0  0  0  0  0
   -0.3565   12.0903   -5.3159 H   0  0  0  0  0  0  0  0  0  0  0  0
    1.0102   10.9245   -5.3159 H   0  0  0  0  0  0  0  0  0  0  0  0
    2.8782   13.5073   -2.9933 H   0  0  0  0  0  0  0  0  0  0  0  0
    3.2906   11.0660   -3.7058 H   0  0  0  0  0  0  0  0  0  0  0  0
    3.6284   11.6258   -1.9846 H   0  0  0  0  0  0  0  0  0  0  0  0
    2.4694    9.2737   -2.2397 H   0  0  0  0  0  0  0  0  0  0  0  0
   -0.6170   11.8763   -2.1795 H   0  0  0  0  0  0  0  0  0  0  0  0
    0.4354   11.8703    0.7169 H   0  0  0  0  0  0  0  0  0  0  0  0
   -0.9512   12.8485    0.0608 H   0  0  0  0  0  0  0  0  0  0  0  0
   -1.7204   10.8788    1.3445 H   0  0  0  0  0  0  0  0  0  0  0  0
   -2.2053   10.8207   -0.3956 H   0  0  0  0  0  0  0  0  0  0  0  0
   -1.4586    8.6391    0.2704 H   0  0  0  0  0  0  0  0  0  0  0  0
    0.1250    9.9320    1.8640 H   0  0  0  0  0  0  0  0  0  0  0  0
   -2.1300    8.8949   -1.7990 H   0  0  0  0  0  0  0  0  0  0  0  0
   -1.2059    9.9374   -2.9330 H   0  0  0  0  0  0  0  0  0  0  0  0
   -0.9466    8.1599   -2.9330 H   0  0  0  0  0  0  0  0  0  0  0  0
    0.9009    7.5501   -0.1749 H   0  0  0  0  0  0  0  0  0  0  0  0
    0.1351    7.0803   -1.7303 H   0  0  0  0  0  0  0  0  0  0  0  0
    1.6927    7.9748   -1.7303 H   0  0  0  0  0  0  0  0  0  0  0  0
    1.4558   13.1976    0.3444 H   0  0  0  0  0  0  0  0  0  0  0  0
    2.9400   12.8829   -0.6174 H   0  0  0  0  0  0  0  0  0  0  0  0
    2.1999   14.5197   -0.6174 H   0  0  0  0  0  0  0  0  0  0  0  0
   -0.6879   14.2168   -1.4774 H   0  0  0  0  0  0  0  0  0  0  0  0
    0.8368   15.1640   -1.9400 H   0  0  0  0  0  0  0  0  0  0  0  0
   -1.0374   13.6615   -3.7879 H   0  0  0  0  0  0  0  0  0  0  0  0
   -0.7354   15.4405   -3.6908 H   0  0  0  0  0  0  0  0  0  0  0  0
    1.9900   15.6092   -3.1993 H   0  0  0  0  0  0  0  0  0  0  0  0
    2.8516   15.2343   -4.7302 H   0  0  0  0  0  0  0  0  0  0  0  0
    1.4879   16.4034   -4.7302 H   0  0  0  0  0  0  0  0  0  0  0  0
  1  2  1  0
  2  3  1  0
  3  4  1  0
  4  5  1  0
  5  6  1  0
  6  7  1  0
  7  8  1  0
  7  9  1  0
  2 10  1  0
 10 11  1  0
 11 12  1  0
 12 13  1  0
 13 14  1  6
 13 15  1  0
 15 16  1  0
 16 17  1  0
 17 18  2  0
 18 19  1  0
 19 20  1  0
 20 21  1  0
 21 22  1  0
 22 23  1  0
 22 24  1  0
 24 25  1  0
 24 26  1  0
 19 27  1  0
 27 28  1  1
 27 29  1  0
 29 30  1  0
 30 31  1  0
 31 32  1  6
  7  5  1  0
 31 10  1  0
 31 13  1  0
 27 15  1  0
 24 18  1  0
  1 33  1  0
  1 34  1  0
  1 35  1  0
  2 36  1  6
  3 37  1  0
  3 38  1  0
  4 39  1  0
  4 40  1  0
  5 41  1  1
  8 42  1  0
  8 43  1  0
  8 44  1  0
  9 45  1  0
  9 46  1  0
  9 47  1  0
 10 48  1  1
 11 49  1  0
 11 50  1  0
 12 51  1  0
 12 52  1  0
 14 53  1  0
 14 54  1  0
 14 55  1  0
 15 56  1  6
 16 57  1  0
 16 58  1  0
 17 59  1  0
 19 60  1  6
 20 61  1  0
 20 62  1  0
 21 63  1  0
 21 64  1  0
 22 65  1  1
 23 66  1  0
 25 67  1  0
 25 68  1  0
 25 69  1  0
 26 70  1  0
 26 71  1  0
 26 72  1  0
 28 73  1  0
 28 74  1  0
 28 75  1  0
 29 76  1  0
 29 77  1  0
 30 78  1  0
 30 79  1  0
 32 80  1  0
 32 81  1  0
 32 82  1  0
M  END
>  <meeko>  (11) 
{"is_sidechain": [false], "intermolecular_energy": 2.731, "internal_energy": -0.839}

$$$$
EPH_relaxed_0001_pdb2pqr_Repair_173_r2_0001_out
     RDKit          3D

 82 86  0  0  0  0  0  0  0  0999 V2000
   -4.1480    7.3670   -3.6770 C   0  0  0  0  0  0  0  0  0  0  0  0
   -3.7310    7.2210   -2.2110 C   0  0  2  0  0  0  0  0  0  0  0  0
   -4.8800    6.6870   -1.3310 C   0  0  0  0  0  0  0  0  0  0  0  0
   -6.1950    6.4900   -2.0900 C   0  0  0  0  0  0  0  0  0  0  0  0
   -7.3570    6.3390   -1.1550 C   0  0  2  0  0  0  0  0  0  0  0  0
   -8.4720    5.6190   -1.6960 O   0  0  0  0  0  0  0  0  0  0  0  0
   -8.7030    7.0010   -1.3800 C   0  0  0  0  0  0  0  0  0  0  0  0
   -8.9580    7.8650   -2.5750 C   0  0  0  0  0  0  0  0  0  0  0  0
   -9.6050    7.2070   -0.2030 C   0  0  0  0  0  0  0  0  0  0  0  0
   -3.2440    8.5620   -1.6730 C   0  0  1  0  0  0  0  0  0  0  0  0
   -3.9060    8.9400   -0.3220 C   0  0  0  0  0  0  0  0  0  0  0  0
   -2.8330    9.6940    0.5060 C   0  0  0  0  0  0  0  0  0  0  0  0
   -1.7120   10.0150   -0.5090 C   0  0  1  0  0  0  0  0  0  0  0  0
   -2.2060   11.2890   -1.2640 C   0  0  0  0  0  0  0  0  0  0  0  0
   -0.2790   10.2160    0.0840 C   0  0  2  0  0  0  0  0  0  0  0  0
   -0.1350   11.4000    1.0560 C   0  0  0  0  0  0  0  0  0  0  0  0
    0.2490   12.6980    0.4280 C   0  0  0  0  0  0  0  0  0  0  0  0
    0.7460   12.8490   -0.8140 C   0  0  0  0  0  0  0  0  0  0  0  0
    1.0590   11.6300   -1.6910 C   0  0  1  0  0  0  0  0  0  0  0  0
    2.4600   11.8020   -2.3360 C   0  0  0  0  0  0  0  0  0  0  0  0
    2.5960   13.1170   -3.0960 C   0  0  0  0  0  0  0  0  0  0  0  0
    2.3340   14.3080   -2.1770 C   0  0  2  0  0  0  0  0  0  0  0  0
    3.3780   14.3750   -1.2010 O   0  0  0  0  0  0  0  0  0  0  0  0
    0.9550   14.2390   -1.4630 C   0  0  0  0  0  0  0  0  0  0  0  0
   -0.1770   14.4700   -2.4950 C   0  0  0  0  0  0  0  0  0  0  0  0
    0.8770   15.4230   -0.4620 C   0  0  0  0  0  0  0  0  0  0  0  0
    0.8770   10.2120   -0.9970 C   0  0  1  0  0  0  0  0  0  0  0  0
    2.1850    9.8130   -0.2480 C   0  0  0  0  0  0  0  0  0  0  0  0
    0.6520    9.1200   -2.1090 C   0  0  0  0  0  0  0  0  0  0  0  0
   -0.8000    8.8840   -2.5680 C   0  0  0  0  0  0  0  0  0  0  0  0
   -1.7310    8.6980   -1.3660 C   0  0  2  0  0  0  0  0  0  0  0  0
   -1.2720    7.4100   -0.6010 C   0  0  0  0  0  0  0  0  0  0  0  0
   -5.1851    7.7301   -3.7288 H   0  0  0  0  0  0  0  0  0  0  0  0
   -3.4825    8.0856   -4.1777 H   0  0  0  0  0  0  0  0  0  0  0  0
   -4.0761    6.3902   -4.1777 H   0  0  0  0  0  0  0  0  0  0  0  0
   -2.9143    6.4852   -2.1710 H   0  0  0  0  0  0  0  0  0  0  0  0
   -4.5735    5.7182   -0.9097 H   0  0  0  0  0  0  0  0  0  0  0  0
   -5.0673    7.4420   -0.5533 H   0  0  0  0  0  0  0  0  0  0  0  0
   -6.3682    7.3634   -2.7359 H   0  0  0  0  0  0  0  0  0  0  0  0
   -6.1124    5.5693   -2.6862 H   0  0  0  0  0  0  0  0  0  0  0  0
   -6.6837    6.3126   -0.2856 H   0  0  0  0  0  0  0  0  0  0  0  0
   -9.2549    8.8710   -2.2435 H   0  0  0  0  0  0  0  0  0  0  0  0
   -8.0419    7.9338   -3.1799 H   0  0  0  0  0  0  0  0  0  0  0  0
   -9.7647    7.4253   -3.1799 H   0  0  0  0  0  0  0  0  0  0  0  0
   -9.0310    7.0759    0.7262 H   0  0  0  0  0  0  0  0  0  0  0  0
  -10.0234    8.2238   -0.2352 H   0  0  0  0  0  0  0  0  0  0  0  0
  -10.4233    6.4726   -0.2352 H   0  0  0  0  0  0  0  0  0  0  0  0
   -3.5160    9.2097   -2.5194 H   0  0  0  0  0  0  0  0  0  0  0  0
   -4.7765    9.5898   -0.4953 H   0  0  0  0  0  0  0  0  0  0  0  0
   -4.2580    8.0438    0.2100 H   0  0  0  0  0  0  0  0  0  0  0  0
   -3.2494   10.6195    0.9303 H   0  0  0  0  0  0  0  0  0  0  0  0
   -2.4681    9.0992    1.3564 H   0  0  0  0  0  0  0  0  0  0  0  0
   -2.5034   12.0559   -0.5336 H   0  0  0  0  0  0  0  0  0  0  0  0
   -1.3940   11.6791   -1.8952 H   0  0  0  0  0  0  0  0  0  0  0  0
   -3.0688   11.0297   -1.8952 H   0  0  0  0  0  0  0  0  0  0  0  0
   -0.1480    9.3104    0.6946 H   0  0  0  0  0  0  0  0  0  0  0  0
   -1.0999   11.5411    1.5649 H   0  0  0  0  0  0  0  0  0  0  0  0
    0.6880   11.1363    1.7365 H   0  0  0  0  0  0  0  0  0  0  0  0
    0.1146   13.6083    1.0308 H   0  0  0  0  0  0  0  0  0  0  0  0
    0.2870   11.6125   -2.4744 H   0  0  0  0  0  0  0  0  0  0  0  0
    3.2200   11.7737   -1.5413 H   0  0  0  0  0  0  0  0  0  0  0  0
    2.5983   10.9833   -3.0575 H   0  0  0  0  0  0  0  0  0  0  0  0
    3.6150   13.1938   -3.5032 H   0  0  0  0  0  0  0  0  0  0  0  0
    1.8550   13.1310   -3.9088 H   0  0  0  0  0  0  0  0  0  0  0  0
    2.3176   15.2116   -2.8041 H   0  0  0  0  0  0  0  0  0  0  0  0
    3.8200   15.2350   -1.3010 H   0  0  0  0  0  0  0  0  0  0  0  0
   -1.1219   14.6628   -1.9658 H   0  0  0  0  0  0  0  0  0  0  0  0
    0.0731   15.3356   -3.1260 H   0  0  0  0  0  0  0  0  0  0  0  0
   -0.2860   13.5756   -3.1260 H   0  0  0  0  0  0  0  0  0  0  0  0
    0.9025   15.0354    0.5671 H   0  0  0  0  0  0  0  0  0  0  0  0
    1.7328   16.0953   -0.6219 H   0  0  0  0  0  0  0  0  0  0  0  0
   -0.0596   15.9773   -0.6219 H   0  0  0  0  0  0  0  0  0  0  0  0
    2.0161    9.8645    0.8377 H   0  0  0  0  0  0  0  0  0  0  0  0
    2.4688    8.7874   -0.5267 H   0  0  0  0  0  0  0  0  0  0  0  0
    2.9929   10.5056   -0.5267 H   0  0  0  0  0  0  0  0  0  0  0  0
    1.2356    9.4193   -2.9921 H   0  0  0  0  0  0  0  0  0  0  0  0
    0.9658    8.1716   -1.6485 H   0  0  0  0  0  0  0  0  0  0  0  0
   -1.1377    9.7515   -3.1540 H   0  0  0  0  0  0  0  0  0  0  0  0
   -0.8305    7.9706   -3.1802 H   0  0  0  0  0  0  0  0  0  0  0  0
   -1.3346    7.5856    0.4831 H   0  0  0  0  0  0  0  0  0  0  0  0
   -1.9256    6.5686   -0.8745 H   0  0  0  0  0  0  0  0  0  0  0  0
   -0.2336    7.1716   -0.8745 H   0  0  0  0  0  0  0  0  0  0  0  0
  1  2  1  0
  2  3  1  0
  3  4  1  0
  4  5  1  0
  5  6  1  0
  6  7  1  0
  7  8  1  0
  7  9  1  0
  2 10  1  0
 10 11  1  0
 11 12  1  0
 12 13  1  0
 13 14  1  6
 13 15  1  0
 15 16  1  0
 16 17  1  0
 17 18  2  0
 18 19  1  0
 19 20  1  0
 20 21  1  0
 21 22  1  0
 22 23  1  0
 22 24  1  0
 24 25  1  0
 24 26  1  0
 19 27  1  0
 27 28  1  1
 27 29  1  0
 29 30  1  0
 30 31  1  0
 31 32  1  1
  7  5  1  0
 31 10  1  0
 31 13  1  0
 27 15  1  0
 24 18  1  0
  1 33  1  0
  1 34  1  0
  1 35  1  0
  2 36  1  6
  3 37  1  0
  3 38  1  0
  4 39  1  0
  4 40  1  0
  5 41  1  1
  8 42  1  0
  8 43  1  0
  8 44  1  0
  9 45  1  0
  9 46  1  0
  9 47  1  0
 10 48  1  6
 11 49  1  0
 11 50  1  0
 12 51  1  0
 12 52  1  0
 14 53  1  0
 14 54  1  0
 14 55  1  0
 15 56  1  1
 16 57  1  0
 16 58  1  0
 17 59  1  0
 19 60  1  6
 20 61  1  0
 20 62  1  0
 21 63  1  0
 21 64  1  0
 22 65  1  6
 23 66  1  0
 25 67  1  0
 25 68  1  0
 25 69  1  0
 26 70  1  0
 26 71  1  0
 26 72  1  0
 28 73  1  0
 28 74  1  0
 28 75  1  0
 29 76  1  0
 29 77  1  0
 30 78  1  0
 30 79  1  0
 32 80  1  0
 32 81  1  0
 32 82  1  0
M  END
>  <meeko>  (12) 
{"is_sidechain": [false], "intermolecular_energy": 2.731, "internal_energy": -0.839}

$$$$
EPH_relaxed_0001_pdb2pqr_Repair_173_r2_0001_out
     RDKit          3D

 82 86  0  0  0  0  0  0  0  0999 V2000
   -2.3630    7.8240   -2.3040 C   0  0  0  0  0  0  0  0  0  0  0  0
   -2.2330    8.3890   -0.8860 C   0  0  2  0  0  0  0  0  0  0  0  0
   -3.5690    8.3450   -0.1190 C   0  0  0  0  0  0  0  0  0  0  0  0
   -4.8010    8.4660   -1.0210 C   0  0  0  0  0  0  0  0  0  0  0  0
   -5.6260    7.2150   -1.0030 C   0  0  2  0  0  0  0  0  0  0  0  0
   -5.6770    6.5140   -2.2520 O   0  0  0  0  0  0  0  0  0  0  0  0
   -6.9210    7.0560   -1.7770 C   0  0  0  0  0  0  0  0  0  0  0  0
   -7.4640    8.1630   -2.6250 C   0  0  0  0  0  0  0  0  0  0  0  0
   -7.9000    6.0160   -1.3290 C   0  0  0  0  0  0  0  0  0  0  0  0
   -1.7100    9.8190   -0.9430 C   0  0  1  0  0  0  0  0  0  0  0  0
   -1.2790   10.3530    0.4490 C   0  0  0  0  0  0  0  0  0  0  0  0
   -0.0600   11.2810    0.2150 C   0  0  0  0  0  0  0  0  0  0  0  0
   -0.0350   11.5140   -1.3140 C   0  0  1  0  0  0  0  0  0  0  0  0
   -1.0940   12.6320   -1.5670 C   0  0  0  0  0  0  0  0  0  0  0  0
    1.3520   11.8820   -1.9350 C   0  0  2  0  0  0  0  0  0  0  0  0
    1.9620   13.2020   -1.4330 C   0  0  0  0  0  0  0  0  0  0  0  0
    1.6010   14.4140   -2.2260 C   0  0  0  0  0  0  0  0  0  0  0  0
    1.0550   14.4090   -3.4570 C   0  0  0  0  0  0  0  0  0  0  0  0
    0.8360   13.0940   -4.2160 C   0  0  1  0  0  0  0  0  0  0  0  0
    1.3370   13.2500   -5.6760 C   0  0  0  0  0  0  0  0  0  0  0  0
    0.7080   14.4460   -6.3860 C   0  0  0  0  0  0  0  0  0  0  0  0
    0.9970   15.7410   -5.6320 C   0  0  2  0  0  0  0  0  0  0  0  0
    2.4000   16.0110   -5.7000 O   0  0  0  0  0  0  0  0  0  0  0  0
    0.5440   15.6990   -4.1450 C   0  0  0  0  0  0  0  0  0  0  0  0
   -1.0030   15.7090   -4.0720 C   0  0  0  0  0  0  0  0  0  0  0  0
    1.0200   17.0100   -3.4640 C   0  0  0  0  0  0  0  0  0  0  0  0
    1.4010   11.7860   -3.5140 C   0  0  1  0  0  0  0  0  0  0  0  0
    2.8980   11.5780   -3.9000 C   0  0  0  0  0  0  0  0  0  0  0  0
    0.6230   10.5310   -4.0610 C   0  0  0  0  0  0  0  0  0  0  0  0
   -0.6780   10.1470   -3.3310 C   0  0  0  0  0  0  0  0  0  0  0  0
   -0.4590   10.0860   -1.8160 C   0  0  2  0  0  0  0  0  0  0  0  0
    0.5860    8.9540   -1.5300 C   0  0  0  0  0  0  0  0  0  0  0  0
   -2.6094    6.7533   -2.2509 H   0  0  0  0  0  0  0  0  0  0  0  0
   -3.1618    8.3579   -2.8396 H   0  0  0  0  0  0  0  0  0  0  0  0
   -1.4112    7.9551   -2.8396 H   0  0  0  0  0  0  0  0  0  0  0  0
   -1.5193    7.7543   -0.3402 H   0  0  0  0  0  0  0  0  0  0  0  0
   -3.6274    7.3892    0.4223 H   0  0  0  0  0  0  0  0  0  0  0  0
   -3.5798    9.2120    0.5579 H   0  0  0  0  0  0  0  0  0  0  0  0
   -5.4189    9.3056   -0.6698 H   0  0  0  0  0  0  0  0  0  0  0  0
   -4.4561    8.6346   -2.0518 H   0  0  0  0  0  0  0  0  0  0  0  0
   -5.3698    7.0329    0.0511 H   0  0  0  0  0  0  0  0  0  0  0  0
   -7.8559    8.9619   -1.9783 H   0  0  0  0  0  0  0  0  0  0  0  0
   -6.6613    8.5660   -3.2600 H   0  0  0  0  0  0  0  0  0  0  0  0
   -8.2740    7.7749   -3.2600 H   0  0  0  0  0  0  0  0  0  0  0  0
   -7.9271    5.9873   -0.2297 H   0  0  0  0  0  0  0  0  0  0  0  0
   -8.9002    6.2639   -1.7140 H   0  0  0  0  0  0  0  0  0  0  0  0
   -7.5922    5.0326   -1.7140 H   0  0  0  0  0  0  0  0  0  0  0  0
   -2.5872   10.3177   -1.3810 H   0  0  0  0  0  0  0  0  0  0  0  0
   -2.1026   10.9186    0.9092 H   0  0  0  0  0  0  0  0  0  0  0  0
   -1.0208    9.5257    1.1264 H   0  0  0  0  0  0  0  0  0  0  0  0
   -0.1882   12.2331    0.7509 H   0  0  0  0  0  0  0  0  0  0  0  0
    0.8773   10.8400    0.5852 H   0  0  0  0  0  0  0  0  0  0  0  0
   -1.4584   13.0167   -0.6031 H   0  0  0  0  0  0  0  0  0  0  0  0
   -0.6330   13.4513   -2.1381 H   0  0  0  0  0  0  0  0  0  0  0  0
   -1.9371   12.2160   -2.1381 H   0  0  0  0  0  0  0  0  0  0  0  0
    2.0034   11.0853   -1.5464 H   0  0  0  0  0  0  0  0  0  0  0  0
    1.6248   13.3602   -0.3980 H   0  0  0  0  0  0  0  0  0  0  0  0
    3.0520   13.0892   -1.5291 H   0  0  0  0  0  0  0  0  0  0  0  0
    1.7975   15.3937   -1.7661 H   0  0  0  0  0  0  0  0  0  0  0  0
   -0.2496   12.9165   -4.2103 H   0  0  0  0  0  0  0  0  0  0  0  0
    2.4289   13.3826   -5.6619 H   0  0  0  0  0  0  0  0  0  0  0  0
    1.0464   12.3436   -6.2274 H   0  0  0  0  0  0  0  0  0  0  0  0
    1.1229   14.5206   -7.4020 H   0  0  0  0  0  0  0  0  0  0  0  0
   -0.3813   14.2981   -6.4255 H   0  0  0  0  0  0  0  0  0  0  0  0
    0.4150   16.5401   -6.1144 H   0  0  0  0  0  0  0  0  0  0  0  0
    2.8090   15.6470   -4.8970 H   0  0  0  0  0  0  0  0  0  0  0  0
   -1.3204   15.7111   -3.0188 H   0  0  0  0  0  0  0  0  0  0  0  0
   -1.3879   16.6097   -4.5727 H   0  0  0  0  0  0  0  0  0  0  0  0
   -1.3995   14.8134   -4.5727 H   0  0  0  0  0  0  0  0  0  0  0  0
    0.9772   16.8920   -2.3712 H   0  0  0  0  0  0  0  0  0  0  0  0
    2.0543   17.2270   -3.7691 H   0  0  0  0  0  0  0  0  0  0  0  0
    0.3659   17.8401   -3.7691 H   0  0  0  0  0  0  0  0  0  0  0  0
    3.5041   11.4938   -2.9859 H   0  0  0  0  0  0  0  0  0  0  0  0
    2.9992   10.6572   -4.4932 H   0  0  0  0  0  0  0  0  0  0  0  0
    3.2464   12.4364   -4.4932 H   0  0  0  0  0  0  0  0  0  0  0  0
    0.3682   10.7299   -5.1124 H   0  0  0  0  0  0  0  0  0  0  0  0
    1.3026    9.6805   -3.9039 H   0  0  0  0  0  0  0  0  0  0  0  0
   -1.4504   10.8981   -3.5530 H   0  0  0  0  0  0  0  0  0  0  0  0
   -0.9958    9.1533   -3.6798 H   0  0  0  0  0  0  0  0  0  0  0  0
    0.7021    8.8282   -0.4434 H   0  0  0  0  0  0  0  0  0  0  0  0
    0.2348    8.0103   -1.9729 H   0  0  0  0  0  0  0  0  0  0  0  0
    1.5547    9.2288   -1.9729 H   0  0  0  0  0  0  0  0  0  0  0  0
  1  2  1  0
  2  3  1  0
  3  4  1  0
  4  5  1  0
  5  6  1  0
  6  7  1  0
  7  8  1  0
  7  9  1  0
  2 10  1  0
 10 11  1  0
 11 12  1  0
 12 13  1  0
 13 14  1  1
 13 15  1  0
 15 16  1  0
 16 17  1  0
 17 18  2  0
 18 19  1  0
 19 20  1  0
 20 21  1  0
 21 22  1  0
 22 23  1  0
 22 24  1  0
 24 25  1  0
 24 26  1  0
 19 27  1  0
 27 28  1  1
 27 29  1  0
 29 30  1  0
 30 31  1  0
 31 32  1  6
  7  5  1  0
 31 10  1  0
 31 13  1  0
 27 15  1  0
 24 18  1  0
  1 33  1  0
  1 34  1  0
  1 35  1  0
  2 36  1  1
  3 37  1  0
  3 38  1  0
  4 39  1  0
  4 40  1  0
  5 41  1  1
  8 42  1  0
  8 43  1  0
  8 44  1  0
  9 45  1  0
  9 46  1  0
  9 47  1  0
 10 48  1  6
 11 49  1  0
 11 50  1  0
 12 51  1  0
 12 52  1  0
 14 53  1  0
 14 54  1  0
 14 55  1  0
 15 56  1  1
 16 57  1  0
 16 58  1  0
 17 59  1  0
 19 60  1  6
 20 61  1  0
 20 62  1  0
 21 63  1  0
 21 64  1  0
 22 65  1  6
 23 66  1  0
 25 67  1  0
 25 68  1  0
 25 69  1  0
 26 70  1  0
 26 71  1  0
 26 72  1  0
 28 73  1  0
 28 74  1  0
 28 75  1  0
 29 76  1  0
 29 77  1  0
 30 78  1  0
 30 79  1  0
 32 80  1  0
 32 81  1  0
 32 82  1  0
M  END
>  <meeko>  (13) 
{"is_sidechain": [false], "intermolecular_energy": 2.731, "internal_energy": -0.839}

$$$$
EPH_relaxed_0001_pdb2pqr_Repair_173_r2_0001_out
     RDKit          3D

 82 86  0  0  0  0  0  0  0  0999 V2000
    1.3580   18.6910   -2.5460 C   0  0  0  0  0  0  0  0  0  0  0  0
    0.7040   17.7530   -1.5280 C   0  0  2  0  0  0  0  0  0  0  0  0
    1.1080   18.0940   -0.0800 C   0  0  0  0  0  0  0  0  0  0  0  0
    1.8110   19.4470    0.0600 C   0  0  0  0  0  0  0  0  0  0  0  0
    2.6630   19.5050    1.2930 C   0  0  2  0  0  0  0  0  0  0  0  0
    3.9090   20.1940    1.1280 O   0  0  0  0  0  0  0  0  0  0  0  0
    3.9950   18.7910    1.4230 C   0  0  0  0  0  0  0  0  0  0  0  0
    4.5520   17.9670    0.3040 C   0  0  0  0  0  0  0  0  0  0  0  0
    4.5170   18.4940    2.7940 C   0  0  0  0  0  0  0  0  0  0  0  0
    1.0690   16.3070   -1.8440 C   0  0  1  0  0  0  0  0  0  0  0  0
    2.5520   16.1450   -2.2710 C   0  0  0  0  0  0  0  0  0  0  0  0
    3.0290   14.7770   -1.7190 C   0  0  0  0  0  0  0  0  0  0  0  0
    1.7310   14.0560   -1.2880 C   0  0  1  0  0  0  0  0  0  0  0  0
    1.1450   13.4620   -2.6070 C   0  0  0  0  0  0  0  0  0  0  0  0
    1.8830   12.9630   -0.1800 C   0  0  2  0  0  0  0  0  0  0  0  0
    2.7650   11.7620   -0.5650 C   0  0  0  0  0  0  0  0  0  0  0  0
    2.0440   10.6190   -1.1990 C   0  0  0  0  0  0  0  0  0  0  0  0
    0.7110   10.4350   -1.1940 C   0  0  0  0  0  0  0  0  0  0  0  0
   -0.2120   11.3830   -0.4160 C   0  0  1  0  0  0  0  0  0  0  0  0
   -1.2350   10.5530    0.4030 C   0  0  0  0  0  0  0  0  0  0  0  0
   -2.0100    9.5630   -0.4610 C   0  0  0  0  0  0  0  0  0  0  0  0
   -1.0620    8.6000   -1.1720 C   0  0  2  0  0  0  0  0  0  0  0  0
   -0.4300    7.7690   -0.1940 O   0  0  0  0  0  0  0  0  0  0  0  0
    0.0210    9.3230   -2.0210 C   0  0  0  0  0  0  0  0  0  0  0  0
   -0.6400    9.9780   -3.2590 C   0  0  0  0  0  0  0  0  0  0  0  0
    0.9950    8.2460   -2.5690 C   0  0  0  0  0  0  0  0  0  0  0  0
    0.5140   12.4930    0.4590 C   0  0  1  0  0  0  0  0  0  0  0  0
    0.8540   11.9210    1.8690 C   0  0  0  0  0  0  0  0  0  0  0  0
   -0.4790   13.6920    0.6950 C   0  0  0  0  0  0  0  0  0  0  0  0
   -0.4970   14.8000   -0.3760 C   0  0  0  0  0  0  0  0  0  0  0  0
    0.9240   15.2710   -0.7010 C   0  0  2  0  0  0  0  0  0  0  0  0
    1.5320   15.8940    0.6020 C   0  0  0  0  0  0  0  0  0  0  0  0
    1.9090   19.4813   -2.0152 H   0  0  0  0  0  0  0  0  0  0  0  0
    2.0542   18.1191   -3.1771 H   0  0  0  0  0  0  0  0  0  0  0  0
    0.5807   19.1465   -3.1771 H   0  0  0  0  0  0  0  0  0  0  0  0
   -0.3849   17.8874   -1.6067 H   0  0  0  0  0  0  0  0  0  0  0  0
    0.1994   18.1089    0.5398 H   0  0  0  0  0  0  0  0  0  0  0  0
    1.8241   17.3244    0.2439 H   0  0  0  0  0  0  0  0  0  0  0  0
    2.4483   19.6104   -0.8216 H   0  0  0  0  0  0  0  0  0  0  0  0
    1.0398   20.2273    0.1393 H   0  0  0  0  0  0  0  0  0  0  0  0
    1.7713   19.5267    1.9368 H   0  0  0  0  0  0  0  0  0  0  0  0
    5.1225   17.1230    0.7189 H   0  0  0  0  0  0  0  0  0  0  0  0
    3.7273   17.5833   -0.3145 H   0  0  0  0  0  0  0  0  0  0  0  0
    5.2155   18.5893   -0.3145 H   0  0  0  0  0  0  0  0  0  0  0  0
    3.8192   18.8910    3.5460 H   0  0  0  0  0  0  0  0  0  0  0  0
    4.6135   17.4057    2.9218 H   0  0  0  0  0  0  0  0  0  0  0  0
    5.5019   18.9670    2.9218 H   0  0  0  0  0  0  0  0  0  0  0  0
    0.3334   16.0997   -2.6352 H   0  0  0  0  0  0  0  0  0  0  0  0
    2.6343   16.1605   -3.3678 H   0  0  0  0  0  0  0  0  0  0  0  0
    3.1685   16.9666   -1.8775 H   0  0  0  0  0  0  0  0  0  0  0  0
    3.5506   14.2039   -2.4996 H   0  0  0  0  0  0  0  0  0  0  0  0
    3.7403   14.8880   -0.8873 H   0  0  0  0  0  0  0  0  0  0  0  0
    0.3918   12.6985   -2.3624 H   0  0  0  0  0  0  0  0  0  0  0  0
    0.6757   14.2652   -3.1941 H   0  0  0  0  0  0  0  0  0  0  0  0
    1.9545   13.0037   -3.1941 H   0  0  0  0  0  0  0  0  0  0  0  0
    2.4347   13.4993    0.6062 H   0  0  0  0  0  0  0  0  0  0  0  0
    3.5305   12.1151   -1.2717 H   0  0  0  0  0  0  0  0  0  0  0  0
    3.1804   11.3749    0.3771 H   0  0  0  0  0  0  0  0  0  0  0  0
    2.6544    9.8627   -1.7142 H   0  0  0  0  0  0  0  0  0  0  0  0
   -0.7392   11.9834   -1.1720 H   0  0  0  0  0  0  0  0  0  0  0  0
   -0.6938    9.9941    1.1806 H   0  0  0  0  0  0  0  0  0  0  0  0
   -1.9608   11.2546    0.8400 H   0  0  0  0  0  0  0  0  0  0  0  0
   -2.6954    8.9871    0.1782 H   0  0  0  0  0  0  0  0  0  0  0  0
   -2.5732   10.1256   -1.2202 H   0  0  0  0  0  0  0  0  0  0  0  0
   -1.6633    8.0019   -1.8726 H   0  0  0  0  0  0  0  0  0  0  0  0
    0.5300    7.9040   -0.2680 H   0  0  0  0  0  0  0  0  0  0  0  0
   -1.3854   10.7166   -2.9290 H   0  0  0  0  0  0  0  0  0  0  0  0
    0.1301   10.4793   -3.8637 H   0  0  0  0  0  0  0  0  0  0  0  0
   -1.1342    9.2033   -3.8637 H   0  0  0  0  0  0  0  0  0  0  0  0
    1.4707    7.7200   -1.7282 H   0  0  0  0  0  0  0  0  0  0  0  0
    0.4362    7.5249   -3.1836 H   0  0  0  0  0  0  0  0  0  0  0  0
    1.7684    8.7298   -3.1836 H   0  0  0  0  0  0  0  0  0  0  0  0
    0.4547   12.5927    2.6432 H   0  0  0  0  0  0  0  0  0  0  0  0
    0.4015   10.9245    1.9793 H   0  0  0  0  0  0  0  0  0  0  0  0
    1.9456   11.8423    1.9793 H   0  0  0  0  0  0  0  0  0  0  0  0
   -1.4949   13.2751    0.7597 H   0  0  0  0  0  0  0  0  0  0  0  0
   -0.1236   14.1840    1.6124 H   0  0  0  0  0  0  0  0  0  0  0  0
   -0.9645   14.4082   -1.2914 H   0  0  0  0  0  0  0  0  0  0  0  0
   -1.0697   15.6548    0.0130 H   0  0  0  0  0  0  0  0  0  0  0  0
    1.0720   15.4226    1.4830 H   0  0  0  0  0  0  0  0  0  0  0  0
    2.6182   15.7211    0.6188 H   0  0  0  0  0  0  0  0  0  0  0  0
    1.3326   16.9757    0.6188 H   0  0  0  0  0  0  0  0  0  0  0  0
  1  2  1  0
  2  3  1  0
  3  4  1  0
  4  5  1  0
  5  6  1  0
  6  7  1  0
  7  8  1  0
  7  9  1  0
  2 10  1  0
 10 11  1  0
 11 12  1  0
 12 13  1  0
 13 14  1  6
 13 15  1  0
 15 16  1  0
 16 17  1  0
 17 18  2  0
 18 19  1  0
 19 20  1  0
 20 21  1  0
 21 22  1  0
 22 23  1  0
 22 24  1  0
 24 25  1  0
 24 26  1  0
 19 27  1  0
 27 28  1  1
 27 29  1  0
 29 30  1  0
 30 31  1  0
 31 32  1  1
  7  5  1  0
 31 10  1  0
 31 13  1  0
 27 15  1  0
 24 18  1  0
  1 33  1  0
  1 34  1  0
  1 35  1  0
  2 36  1  1
  3 37  1  0
  3 38  1  0
  4 39  1  0
  4 40  1  0
  5 41  1  1
  8 42  1  0
  8 43  1  0
  8 44  1  0
  9 45  1  0
  9 46  1  0
  9 47  1  0
 10 48  1  6
 11 49  1  0
 11 50  1  0
 12 51  1  0
 12 52  1  0
 14 53  1  0
 14 54  1  0
 14 55  1  0
 15 56  1  1
 16 57  1  0
 16 58  1  0
 17 59  1  0
 19 60  1  6
 20 61  1  0
 20 62  1  0
 21 63  1  0
 21 64  1  0
 22 65  1  6
 23 66  1  0
 25 67  1  0
 25 68  1  0
 25 69  1  0
 26 70  1  0
 26 71  1  0
 26 72  1  0
 28 73  1  0
 28 74  1  0
 28 75  1  0
 29 76  1  0
 29 77  1  0
 30 78  1  0
 30 79  1  0
 32 80  1  0
 32 81  1  0
 32 82  1  0
M  END
>  <meeko>  (14) 
{"is_sidechain": [false], "intermolecular_energy": 2.731, "internal_energy": -0.839}

$$$$
EPH_relaxed_0001_pdb2pqr_Repair_173_r2_0001_out
     RDKit          3D

 82 86  0  0  0  0  0  0  0  0999 V2000
    1.8550   10.8570   -4.8890 C   0  0  0  0  0  0  0  0  0  0  0  0
    1.0770   10.6960   -3.5800 C   0  0  2  0  0  0  0  0  0  0  0  0
   -0.0900    9.6980   -3.7170 C   0  0  0  0  0  0  0  0  0  0  0  0
   -0.0540    8.5640   -2.6880 C   0  0  0  0  0  0  0  0  0  0  0  0
    0.1270    9.0860   -1.2950 C   0  0  2  0  0  0  0  0  0  0  0  0
   -0.2270    8.1610   -0.2580 O   0  0  0  0  0  0  0  0  0  0  0  0
   -1.0250    9.3520   -0.3440 C   0  0  0  0  0  0  0  0  0  0  0  0
   -2.4440    9.1060   -0.7500 C   0  0  0  0  0  0  0  0  0  0  0  0
   -0.8110   10.3050    0.7910 C   0  0  0  0  0  0  0  0  0  0  0  0
    0.5520   12.0500   -3.1170 C   0  0  1  0  0  0  0  0  0  0  0  0
   -0.9100   11.9800   -2.6010 C   0  0  0  0  0  0  0  0  0  0  0  0
   -1.0240   13.0000   -1.4390 C   0  0  0  0  0  0  0  0  0  0  0  0
    0.2630   13.8520   -1.5410 C   0  0  1  0  0  0  0  0  0  0  0  0
   -0.0380   14.9010   -2.6570 C   0  0  0  0  0  0  0  0  0  0  0  0
    0.7440   14.5370   -0.2200 C   0  0  2  0  0  0  0  0  0  0  0  0
   -0.2350   15.5630    0.3770 C   0  0  0  0  0  0  0  0  0  0  0  0
   -0.0480   16.9690   -0.0900 C   0  0  0  0  0  0  0  0  0  0  0  0
    1.0380   17.4440   -0.7280 C   0  0  0  0  0  0  0  0  0  0  0  0
    2.2690   16.5560   -0.9550 C   0  0  1  0  0  0  0  0  0  0  0  0
    3.5510   17.3420   -0.5740 C   0  0  0  0  0  0  0  0  0  0  0  0
    3.6550   18.6800   -1.3000 C   0  0  0  0  0  0  0  0  0  0  0  0
    2.4410   19.5570   -1.0030 C   0  0  2  0  0  0  0  0  0  0  0  0
    2.4650   19.9230    0.3800 O   0  0  0  0  0  0  0  0  0  0  0  0
    1.0900   18.8660   -1.3380 C   0  0  0  0  0  0  0  0  0  0  0  0
    0.9350   18.7420   -2.8740 C   0  0  0  0  0  0  0  0  0  0  0  0
   -0.0550   19.8000   -0.8610 C   0  0  0  0  0  0  0  0  0  0  0  0
    2.2160   15.1140   -0.2890 C   0  0  1  0  0  0  0  0  0  0  0  0
    2.7340   15.1870    1.1800 C   0  0  0  0  0  0  0  0  0  0  0  0
    3.1990   14.1560   -1.0590 C   0  0  0  0  0  0  0  0  0  0  0  0
    2.6300   13.4160   -2.2850 C   0  0  0  0  0  0  0  0  0  0  0  0
    1.2970   12.7410   -1.9480 C   0  0  2  0  0  0  0  0  0  0  0  0
    1.5720   11.6650   -0.8420 C   0  0  0  0  0  0  0  0  0  0  0  0
    2.9095   11.0752   -4.6644 H   0  0  0  0  0  0  0  0  0  0  0  0
    1.7892    9.9262   -5.4715 H   0  0  0  0  0  0  0  0  0  0  0  0
    1.4252   11.6852   -5.4715 H   0  0  0  0  0  0  0  0  0  0  0  0
    1.7722   10.2905   -2.8302 H   0  0  0  0  0  0  0  0  0  0  0  0
   -1.0342   10.2487   -3.5941 H   0  0  0  0  0  0  0  0  0  0  0  0
   -0.0013    9.2338   -4.7103 H   0  0  0  0  0  0  0  0  0  0  0  0
   -1.0003    8.0056   -2.7394 H   0  0  0  0  0  0  0  0  0  0  0  0
    0.8007    7.9131   -2.9243 H   0  0  0  0  0  0  0  0  0  0  0  0
    0.9792    9.7047   -1.6129 H   0  0  0  0  0  0  0  0  0  0  0  0
   -3.0690    8.9977    0.1487 H   0  0  0  0  0  0  0  0  0  0  0  0
   -2.8065    9.9547   -1.3486 H   0  0  0  0  0  0  0  0  0  0  0  0
   -2.4997    8.1848   -1.3486 H   0  0  0  0  0  0  0  0  0  0  0  0
   -0.9308    9.7714    1.7454 H   0  0  0  0  0  0  0  0  0  0  0  0
    0.2038   10.7251    0.7307 H   0  0  0  0  0  0  0  0  0  0  0  0
   -1.5488   11.1186    0.7307 H   0  0  0  0  0  0  0  0  0  0  0  0
    0.6899   12.6264   -4.0437 H   0  0  0  0  0  0  0  0  0  0  0  0
   -1.6094   12.2451   -3.4076 H   0  0  0  0  0  0  0  0  0  0  0  0
   -1.1604   10.9643   -2.2607 H   0  0  0  0  0  0  0  0  0  0  0  0
   -1.9175   13.6298   -1.5612 H   0  0  0  0  0  0  0  0  0  0  0  0
   -1.1225   12.5082   -0.4600 H   0  0  0  0  0  0  0  0  0  0  0  0
   -0.3132   15.8601   -2.1941 H   0  0  0  0  0  0  0  0  0  0  0  0
    0.8569   15.0388   -3.2817 H   0  0  0  0  0  0  0  0  0  0  0  0
   -0.8698   14.5433   -3.2817 H   0  0  0  0  0  0  0  0  0  0  0  0
    0.7634   13.6962    0.4890 H   0  0  0  0  0  0  0  0  0  0  0  0
   -1.2566   15.2507    0.1147 H   0  0  0  0  0  0  0  0  0  0  0  0
   -0.0422   15.5736    1.4599 H   0  0  0  0  0  0  0  0  0  0  0  0
   -0.8674   17.6768    0.1038 H   0  0  0  0  0  0  0  0  0  0  0  0
    2.2809   16.3207   -2.0295 H   0  0  0  0  0  0  0  0  0  0  0  0
    3.5408   17.5289    0.5100 H   0  0  0  0  0  0  0  0  0  0  0  0
    4.4169   16.7326   -0.8719 H   0  0  0  0  0  0  0  0  0  0  0  0
    4.5652   19.2004   -0.9674 H   0  0  0  0  0  0  0  0  0  0  0  0
    3.6949   18.4901   -2.3828 H   0  0  0  0  0  0  0  0  0  0  0  0
    2.5078   20.4442   -1.6498 H   0  0  0  0  0  0  0  0  0  0  0  0
    2.0630   20.8050    0.4580 H   0  0  0  0  0  0  0  0  0  0  0  0
    0.0951   18.0701   -3.1047 H   0  0  0  0  0  0  0  0  0  0  0  0
    0.7388   19.7352   -3.3041 H   0  0  0  0  0  0  0  0  0  0  0  0
    1.8609   18.3326   -3.3041 H   0  0  0  0  0  0  0  0  0  0  0  0
   -0.0785   19.8192    0.2386 H   0  0  0  0  0  0  0  0  0  0  0  0
    0.1189   20.8172   -1.2418 H   0  0  0  0  0  0  0  0  0  0  0  0
   -1.0165   19.4253   -1.2418 H   0  0  0  0  0  0  0  0  0  0  0  0
    1.8884   15.0678    1.8733 H   0  0  0  0  0  0  0  0  0  0  0  0
    3.4649   14.3830    1.3515 H   0  0  0  0  0  0  0  0  0  0  0  0
    3.2142   16.1617    1.3515 H   0  0  0  0  0  0  0  0  0  0  0  0
    4.0522   14.7600   -1.4013 H   0  0  0  0  0  0  0  0  0  0  0  0
    3.4537   13.3651   -0.3381 H   0  0  0  0  0  0  0  0  0  0  0  0
    2.4719   14.1380   -3.0997 H   0  0  0  0  0  0  0  0  0  0  0  0
    3.3480   12.6410   -2.5913 H   0  0  0  0  0  0  0  0  0  0  0  0
    1.4551   12.1223    0.1516 H   0  0  0  0  0  0  0  0  0  0  0  0
    0.8568   10.8364   -0.9507 H   0  0  0  0  0  0  0  0  0  0  0  0
    2.5971   11.2812   -0.9507 H   0  0  0  0  0  0  0  0  0  0  0  0
  1  2  1  0
  2  3  1  0
  3  4  1  0
  4  5  1  0
  5  6  1  0
  6  7  1  0
  7  8  1  0
  7  9  1  0
  2 10  1  0
 10 11  1  0
 11 12  1  0
 12 13  1  0
 13 14  1  6
 13 15  1  0
 15 16  1  0
 16 17  1  0
 17 18  2  0
 18 19  1  0
 19 20  1  0
 20 21  1  0
 21 22  1  0
 22 23  1  0
 22 24  1  0
 24 25  1  0
 24 26  1  0
 19 27  1  0
 27 28  1  1
 27 29  1  0
 29 30  1  0
 30 31  1  0
 31 32  1  1
  7  5  1  0
 31 10  1  0
 31 13  1  0
 27 15  1  0
 24 18  1  0
  1 33  1  0
  1 34  1  0
  1 35  1  0
  2 36  1  1
  3 37  1  0
  3 38  1  0
  4 39  1  0
  4 40  1  0
  5 41  1  1
  8 42  1  0
  8 43  1  0
  8 44  1  0
  9 45  1  0
  9 46  1  0
  9 47  1  0
 10 48  1  6
 11 49  1  0
 11 50  1  0
 12 51  1  0
 12 52  1  0
 14 53  1  0
 14 54  1  0
 14 55  1  0
 15 56  1  1
 16 57  1  0
 16 58  1  0
 17 59  1  0
 19 60  1  6
 20 61  1  0
 20 62  1  0
 21 63  1  0
 21 64  1  0
 22 65  1  6
 23 66  1  0
 25 67  1  0
 25 68  1  0
 25 69  1  0
 26 70  1  0
 26 71  1  0
 26 72  1  0
 28 73  1  0
 28 74  1  0
 28 75  1  0
 29 76  1  0
 29 77  1  0
 30 78  1  0
 30 79  1  0
 32 80  1  0
 32 81  1  0
 32 82  1  0
M  END
>  <meeko>  (15) 
{"is_sidechain": [false], "intermolecular_energy": 2.731, "internal_energy": -0.839}

$$$$
EPH_relaxed_0001_pdb2pqr_Repair_173_r2_0001_out
     RDKit          3D

 82 86  0  0  0  0  0  0  0  0999 V2000
    0.9200   14.9580   -2.6720 C   0  0  0  0  0  0  0  0  0  0  0  0
    1.1760   14.2820   -4.0220 C   0  0  2  0  0  0  0  0  0  0  0  0
    0.4580   15.0050   -5.1790 C   0  0  0  0  0  0  0  0  0  0  0  0
    0.9880   14.6270   -6.5640 C   0  0  0  0  0  0  0  0  0  0  0  0
    0.7810   15.7310   -7.5570 C   0  0  2  0  0  0  0  0  0  0  0  0
    0.4140   15.2930   -8.8720 O   0  0  0  0  0  0  0  0  0  0  0  0
    1.6820   15.9570   -8.7560 C   0  0  0  0  0  0  0  0  0  0  0  0
    2.8600   15.0730   -9.0250 C   0  0  0  0  0  0  0  0  0  0  0  0
    1.7100   17.3160   -9.3840 C   0  0  0  0  0  0  0  0  0  0  0  0
    0.7350   12.8240   -3.9650 C   0  0  1  0  0  0  0  0  0  0  0  0
    1.8680   11.8410   -4.3630 C   0  0  0  0  0  0  0  0  0  0  0  0
    1.6870   10.5730   -3.4900 C   0  0  0  0  0  0  0  0  0  0  0  0
    0.2800   10.7270   -2.8660 C   0  0  1  0  0  0  0  0  0  0  0  0
   -0.7060   10.2540   -3.9790 C   0  0  0  0  0  0  0  0  0  0  0  0
    0.0350    9.9710   -1.5190 C   0  0  2  0  0  0  0  0  0  0  0  0
    0.1480    8.4390   -1.6000 C   0  0  0  0  0  0  0  0  0  0  0  0
   -1.1240    7.7210   -1.9100 C   0  0  0  0  0  0  0  0  0  0  0  0
   -2.3590    8.2500   -1.8340 C   0  0  0  0  0  0  0  0  0  0  0  0
   -2.5740    9.6750   -1.3070 C   0  0  1  0  0  0  0  0  0  0  0  0
   -3.7420    9.6790   -0.2860 C   0  0  0  0  0  0  0  0  0  0  0  0
   -5.0190    9.0680   -0.8550 C   0  0  0  0  0  0  0  0  0  0  0  0
   -4.7790    7.6320   -1.3140 C   0  0  2  0  0  0  0  0  0  0  0  0
   -4.5020    6.8220   -0.1670 O   0  0  0  0  0  0  0  0  0  0  0  0
   -3.6170    7.5020   -2.3380 C   0  0  0  0  0  0  0  0  0  0  0  0
   -4.0440    8.1260   -3.6900 C   0  0  0  0  0  0  0  0  0  0  0  0
   -3.3870    5.9910   -2.6110 C   0  0  0  0  0  0  0  0  0  0  0  0
   -1.2790   10.4140   -0.7570 C   0  0  1  0  0  0  0  0  0  0  0  0
   -1.0630   10.0600    0.7460 C   0  0  0  0  0  0  0  0  0  0  0  0
   -1.5100   11.9700   -0.8170 C   0  0  0  0  0  0  0  0  0  0  0  0
   -1.1370   12.6770   -2.1340 C   0  0  0  0  0  0  0  0  0  0  0  0
    0.2680   12.2750   -2.5940 C   0  0  2  0  0  0  0  0  0  0  0  0
    1.2840   12.7570   -1.5040 C   0  0  0  0  0  0  0  0  0  0  0  0
    1.1825   14.2648   -1.8592 H   0  0  0  0  0  0  0  0  0  0  0  0
    1.5367   15.8655   -2.5935 H   0  0  0  0  0  0  0  0  0  0  0  0
   -0.1431   15.2293   -2.5935 H   0  0  0  0  0  0  0  0  0  0  0  0
    2.2568   14.3360   -4.2195 H   0  0  0  0  0  0  0  0  0  0  0  0
   -0.6117   14.7524   -5.1357 H   0  0  0  0  0  0  0  0  0  0  0  0
    0.6407   16.0818   -5.0478 H   0  0  0  0  0  0  0  0  0  0  0  0
    2.0643   14.4133   -6.4877 H   0  0  0  0  0  0  0  0  0  0  0  0
    0.4345   13.7430   -6.9136 H   0  0  0  0  0  0  0  0  0  0  0  0
    0.4210   16.4061   -6.7666 H   0  0  0  0  0  0  0  0  0  0  0  0
    3.2975   14.7447   -8.0707 H   0  0  0  0  0  0  0  0  0  0  0  0
    2.5349   14.1941   -9.6010 H   0  0  0  0  0  0  0  0  0  0  0  0
    3.6131   15.6308   -9.6010 H   0  0  0  0  0  0  0  0  0  0  0  0
    1.7258   18.0837   -8.5963 H   0  0  0  0  0  0  0  0  0  0  0  0
    2.6103   17.4129  -10.0085 H   0  0  0  0  0  0  0  0  0  0  0  0
    0.8144   17.4499  -10.0085 H   0  0  0  0  0  0  0  0  0  0  0  0
   -0.1136   12.8611   -4.6639 H   0  0  0  0  0  0  0  0  0  0  0  0
    1.7874   11.5817   -5.4290 H   0  0  0  0  0  0  0  0  0  0  0  0
    2.8578   12.2932   -4.2023 H   0  0  0  0  0  0  0  0  0  0  0  0
    1.7404    9.6648   -4.1084 H   0  0  0  0  0  0  0  0  0  0  0  0
    2.4735   10.4758   -2.7271 H   0  0  0  0  0  0  0  0  0  0  0  0
   -1.6047    9.8229   -3.5137 H   0  0  0  0  0  0  0  0  0  0  0  0
   -0.9927   11.1126   -4.6040 H   0  0  0  0  0  0  0  0  0  0  0  0
   -0.2157    9.4930   -4.6040 H   0  0  0  0  0  0  0  0  0  0  0  0
    0.8866   10.3008   -0.9058 H   0  0  0  0  0  0  0  0  0  0  0  0
    0.8773    8.1931   -2.3859 H   0  0  0  0  0  0  0  0  0  0  0  0
    0.4505    8.1028   -0.5973 H   0  0  0  0  0  0  0  0  0  0  0  0
   -1.0448    6.6708   -2.2274 H   0  0  0  0  0  0  0  0  0  0  0  0
   -2.8416   10.2856   -2.1820 H   0  0  0  0  0  0  0  0  0  0  0  0
   -3.4385    9.1007    0.5991 H   0  0  0  0  0  0  0  0  0  0  0  0
   -3.9584   10.7268   -0.0306 H   0  0  0  0  0  0  0  0  0  0  0  0
   -5.7975    9.0722   -0.0778 H   0  0  0  0  0  0  0  0  0  0  0  0
   -5.3380    9.6651   -1.7220 H   0  0  0  0  0  0  0  0  0  0  0  0
   -5.6901    7.2937   -1.8292 H   0  0  0  0  0  0  0  0  0  0  0  0
   -3.5360    6.7460   -0.0870 H   0  0  0  0  0  0  0  0  0  0  0  0
   -4.6562    9.0207   -3.5038 H   0  0  0  0  0  0  0  0  0  0  0  0
   -3.1483    8.4074   -4.2631 H   0  0  0  0  0  0  0  0  0  0  0  0
   -4.6307    7.3930   -4.2631 H   0  0  0  0  0  0  0  0  0  0  0  0
   -3.3052    5.4539   -1.6545 H   0  0  0  0  0  0  0  0  0  0  0  0
   -4.2343    5.5891   -3.1859 H   0  0  0  0  0  0  0  0  0  0  0  0
   -2.4585    5.8595   -3.1859 H   0  0  0  0  0  0  0  0  0  0  0  0
   -1.5329   10.8302    1.3753 H   0  0  0  0  0  0  0  0  0  0  0  0
   -1.5185    9.0822    0.9615 H   0  0  0  0  0  0  0  0  0  0  0  0
    0.0149   10.0179    0.9615 H   0  0  0  0  0  0  0  0  0  0  0  0
   -2.5781   12.1553   -0.6307 H   0  0  0  0  0  0  0  0  0  0  0  0
   -0.8305   12.3914   -0.0615 H   0  0  0  0  0  0  0  0  0  0  0  0
   -1.8637   12.3971   -2.9109 H   0  0  0  0  0  0  0  0  0  0  0  0
   -1.1529   13.7638   -1.9651 H   0  0  0  0  0  0  0  0  0  0  0  0
    0.8697   12.5605   -0.5041 H   0  0  0  0  0  0  0  0  0  0  0  0
    2.2329   12.2131   -1.6211 H   0  0  0  0  0  0  0  0  0  0  0  0
    1.4630   13.8360   -1.6211 H   0  0  0  0  0  0  0  0  0  0  0  0
  1  2  1  0
  2  3  1  0
  3  4  1  0
  4  5  1  0
  5  6  1  0
  6  7  1  0
  7  8  1  0
  7  9  1  0
  2 10  1  0
 10 11  1  0
 11 12  1  0
 12 13  1  0
 13 14  1  6
 13 15  1  0
 15 16  1  0
 16 17  1  0
 17 18  2  0
 18 19  1  0
 19 20  1  0
 20 21  1  0
 21 22  1  0
 22 23  1  0
 22 24  1  0
 24 25  1  0
 24 26  1  0
 19 27  1  0
 27 28  1  1
 27 29  1  0
 29 30  1  0
 30 31  1  0
 31 32  1  1
  7  5  1  0
 31 10  1  0
 31 13  1  0
 27 15  1  0
 24 18  1  0
  1 33  1  0
  1 34  1  0
  1 35  1  0
  2 36  1  6
  3 37  1  0
  3 38  1  0
  4 39  1  0
  4 40  1  0
  5 41  1  1
  8 42  1  0
  8 43  1  0
  8 44  1  0
  9 45  1  0
  9 46  1  0
  9 47  1  0
 10 48  1  6
 11 49  1  0
 11 50  1  0
 12 51  1  0
 12 52  1  0
 14 53  1  0
 14 54  1  0
 14 55  1  0
 15 56  1  1
 16 57  1  0
 16 58  1  0
 17 59  1  0
 19 60  1  6
 20 61  1  0
 20 62  1  0
 21 63  1  0
 21 64  1  0
 22 65  1  6
 23 66  1  0
 25 67  1  0
 25 68  1  0
 25 69  1  0
 26 70  1  0
 26 71  1  0
 26 72  1  0
 28 73  1  0
 28 74  1  0
 28 75  1  0
 29 76  1  0
 29 77  1  0
 30 78  1  0
 30 79  1  0
 32 80  1  0
 32 81  1  0
 32 82  1  0
M  END
>  <meeko>  (16) 
{"is_sidechain": [false], "intermolecular_energy": 2.731, "internal_energy": -0.839}

$$$$
EPH_relaxed_0001_pdb2pqr_Repair_173_r2_0001_out
     RDKit          3D

 82 86  0  0  0  0  0  0  0  0999 V2000
   -0.1170    9.3650   -4.2560 C   0  0  0  0  0  0  0  0  0  0  0  0
    0.0960    9.5720   -2.7530 C   0  0  2  0  0  0  0  0  0  0  0  0
   -0.6580    8.5250   -1.9100 C   0  0  0  0  0  0  0  0  0  0  0  0
   -2.1800    8.5920   -2.0620 C   0  0  0  0  0  0  0  0  0  0  0  0
   -2.7350    7.3300   -2.6500 C   0  0  2  0  0  0  0  0  0  0  0  0
   -3.7600    7.5280   -3.6330 O   0  0  0  0  0  0  0  0  0  0  0  0
   -4.1600    6.8590   -2.4260 C   0  0  0  0  0  0  0  0  0  0  0  0
   -5.1180    7.6420   -1.5840 C   0  0  0  0  0  0  0  0  0  0  0  0
   -4.4710    5.4070   -2.6160 C   0  0  0  0  0  0  0  0  0  0  0  0
   -0.3440   10.9760   -2.3550 C   0  0  1  0  0  0  0  0  0  0  0  0
   -1.5600   10.9700   -1.3910 C   0  0  0  0  0  0  0  0  0  0  0  0
   -1.3680   12.1650   -0.4210 C   0  0  0  0  0  0  0  0  0  0  0  0
   -0.2390   13.0070   -1.0590 C   0  0  1  0  0  0  0  0  0  0  0  0
   -0.9450   13.8540   -2.1630 C   0  0  0  0  0  0  0  0  0  0  0  0
    0.5890   13.9060   -0.0840 C   0  0  2  0  0  0  0  0  0  0  0  0
   -0.2160   15.0020    0.6360 C   0  0  0  0  0  0  0  0  0  0  0  0
   -0.2800   16.3150   -0.0710 C   0  0  0  0  0  0  0  0  0  0  0  0
    0.5150   16.6940   -1.0900 C   0  0  0  0  0  0  0  0  0  0  0  0
    1.6660   15.7990   -1.5650 C   0  0  1  0  0  0  0  0  0  0  0  0
    2.9480   16.6550   -1.7410 C   0  0  0  0  0  0  0  0  0  0  0  0
    2.7290   17.8570   -2.6540 C   0  0  0  0  0  0  0  0  0  0  0  0
    1.6160   18.7530   -2.1170 C   0  0  2  0  0  0  0  0  0  0  0  0
    2.0510   19.3410   -0.8870 O   0  0  0  0  0  0  0  0  0  0  0  0
    0.2760   17.9980   -1.8900 C   0  0  0  0  0  0  0  0  0  0  0  0
   -0.3470   17.6220   -3.2570 C   0  0  0  0  0  0  0  0  0  0  0  0
   -0.7180   18.9810   -1.2150 C   0  0  0  0  0  0  0  0  0  0  0  0
    1.9220   14.4850   -0.7090 C   0  0  1  0  0  0  0  0  0  0  0  0
    2.8720   14.8050    0.4850 C   0  0  0  0  0  0  0  0  0  0  0  0
    2.6730   13.4270   -1.6020 C   0  0  0  0  0  0  0  0  0  0  0  0
    1.7960   12.4890   -2.4530 C   0  0  0  0  0  0  0  0  0  0  0  0
    0.6860   11.8590   -1.6060 C   0  0  2  0  0  0  0  0  0  0  0  0
    1.3660   10.9820   -0.5010 C   0  0  0  0  0  0  0  0  0  0  0  0
   -0.8976    8.6064   -4.4147 H   0  0  0  0  0  0  0  0  0  0  0  0
   -0.4291   10.3141   -4.7162 H   0  0  0  0  0  0  0  0  0  0  0  0
    0.8228    9.0259   -4.7162 H   0  0  0  0  0  0  0  0  0  0  0  0
    1.1699    9.4470   -2.5504 H   0  0  0  0  0  0  0  0  0  0  0  0
   -0.3221    7.5239   -2.2181 H   0  0  0  0  0  0  0  0  0  0  0  0
   -0.4308    8.7380   -0.8550 H   0  0  0  0  0  0  0  0  0  0  0  0
   -2.6304    8.7517   -1.0712 H   0  0  0  0  0  0  0  0  0  0  0  0
   -2.4202    9.4219   -2.7429 H   0  0  0  0  0  0  0  0  0  0  0  0
   -1.7646    6.8237   -2.5399 H   0  0  0  0  0  0  0  0  0  0  0  0
   -4.9009    7.4646   -0.5203 H   0  0  0  0  0  0  0  0  0  0  0  0
   -5.0102    8.7139   -1.8064 H   0  0  0  0  0  0  0  0  0  0  0  0
   -6.1470    7.3230   -1.8064 H   0  0  0  0  0  0  0  0  0  0  0  0
   -4.5747    4.9227   -1.6338 H   0  0  0  0  0  0  0  0  0  0  0  0
   -5.4116    5.3038   -3.1769 H   0  0  0  0  0  0  0  0  0  0  0  0
   -3.6552    4.9276   -3.1769 H   0  0  0  0  0  0  0  0  0  0  0  0
   -0.5445   11.3958   -3.3518 H   0  0  0  0  0  0  0  0  0  0  0  0
   -2.4943   11.0896   -1.9591 H   0  0  0  0  0  0  0  0  0  0  0  0
   -1.6224   10.0201   -0.8399 H   0  0  0  0  0  0  0  0  0  0  0  0
   -2.2940   12.7535   -0.3416 H   0  0  0  0  0  0  0  0  0  0  0  0
   -1.1193   11.8384    0.5995 H   0  0  0  0  0  0  0  0  0  0  0  0
   -1.5807   14.6167   -1.6895 H   0  0  0  0  0  0  0  0  0  0  0  0
   -0.1861   14.3463   -2.7889 H   0  0  0  0  0  0  0  0  0  0  0  0
   -1.5659   13.1962   -2.7889 H   0  0  0  0  0  0  0  0  0  0  0  0
    0.8873   13.1918    0.6976 H   0  0  0  0  0  0  0  0  0  0  0  0
   -1.2451   14.6366    0.7679 H   0  0  0  0  0  0  0  0  0  0  0  0
    0.3091   15.1921    1.5837 H   0  0  0  0  0  0  0  0  0  0  0  0
   -1.0404   17.0335    0.2688 H   0  0  0  0  0  0  0  0  0  0  0  0
    1.3528   15.3910   -2.5373 H   0  0  0  0  0  0  0  0  0  0  0  0
    3.2687   17.0167   -0.7529 H   0  0  0  0  0  0  0  0  0  0  0  0
    3.7135   16.0172   -2.2072 H   0  0  0  0  0  0  0  0  0  0  0  0
    3.6612   18.4378   -2.7147 H   0  0  0  0  0  0  0  0  0  0  0  0
    2.4375   17.4932   -3.6503 H   0  0  0  0  0  0  0  0  0  0  0  0
    1.4168   19.5226   -2.8773 H   0  0  0  0  0  0  0  0  0  0  0  0
    2.9750   19.6180   -1.0040 H   0  0  0  0  0  0  0  0  0  0  0  0
   -1.2783   17.0599   -3.0933 H   0  0  0  0  0  0  0  0  0  0  0  0
   -0.5667   18.5384   -3.8243 H   0  0  0  0  0  0  0  0  0  0  0  0
    0.3615   17.0005   -3.8243 H   0  0  0  0  0  0  0  0  0  0  0  0
   -0.6321   18.8961   -0.1216 H   0  0  0  0  0  0  0  0  0  0  0  0
   -0.4816   20.0103   -1.5225 H   0  0  0  0  0  0  0  0  0  0  0  0
   -1.7446   18.7331   -1.5225 H   0  0  0  0  0  0  0  0  0  0  0  0
    2.3427   14.6267    1.4327 H   0  0  0  0  0  0  0  0  0  0  0  0
    3.7585   14.1559    0.4324 H   0  0  0  0  0  0  0  0  0  0  0  0
    3.1851   15.8582    0.4324 H   0  0  0  0  0  0  0  0  0  0  0  0
    3.3329   13.9787   -2.2877 H   0  0  0  0  0  0  0  0  0  0  0  0
    3.1938   12.7683   -0.8914 H   0  0  0  0  0  0  0  0  0  0  0  0
    1.3407   13.0660   -3.2714 H   0  0  0  0  0  0  0  0  0  0  0  0
    2.4298   11.6850   -2.8553 H   0  0  0  0  0  0  0  0  0  0  0  0
    1.0768   11.3550    0.4926 H   0  0  0  0  0  0  0  0  0  0  0  0
    1.0396    9.9372   -0.6097 H   0  0  0  0  0  0  0  0  0  0  0  0
    2.4592   11.0379   -0.6097 H   0  0  0  0  0  0  0  0  0  0  0  0
  1  2  1  0
  2  3  1  0
  3  4  1  0
  4  5  1  0
  5  6  1  0
  6  7  1  0
  7  8  1  0
  7  9  1  0
  2 10  1  0
 10 11  1  0
 11 12  1  0
 12 13  1  0
 13 14  1  6
 13 15  1  0
 15 16  1  0
 16 17  1  0
 17 18  2  0
 18 19  1  0
 19 20  1  0
 20 21  1  0
 21 22  1  0
 22 23  1  0
 22 24  1  0
 24 25  1  0
 24 26  1  0
 19 27  1  0
 27 28  1  1
 27 29  1  0
 29 30  1  0
 30 31  1  0
 31 32  1  1
  7  5  1  0
 31 10  1  0
 31 13  1  0
 27 15  1  0
 24 18  1  0
  1 33  1  0
  1 34  1  0
  1 35  1  0
  2 36  1  6
  3 37  1  0
  3 38  1  0
  4 39  1  0
  4 40  1  0
  5 41  1  6
  8 42  1  0
  8 43  1  0
  8 44  1  0
  9 45  1  0
  9 46  1  0
  9 47  1  0
 10 48  1  6
 11 49  1  0
 11 50  1  0
 12 51  1  0
 12 52  1  0
 14 53  1  0
 14 54  1  0
 14 55  1  0
 15 56  1  1
 16 57  1  0
 16 58  1  0
 17 59  1  0
 19 60  1  6
 20 61  1  0
 20 62  1  0
 21 63  1  0
 21 64  1  0
 22 65  1  6
 23 66  1  0
 25 67  1  0
 25 68  1  0
 25 69  1  0
 26 70  1  0
 26 71  1  0
 26 72  1  0
 28 73  1  0
 28 74  1  0
 28 75  1  0
 29 76  1  0
 29 77  1  0
 30 78  1  0
 30 79  1  0
 32 80  1  0
 32 81  1  0
 32 82  1  0
M  END
>  <meeko>  (17) 
{"is_sidechain": [false], "intermolecular_energy": 2.731, "internal_energy": -0.839}

$$$$
EPH_relaxed_0001_pdb2pqr_Repair_173_r2_0001_out
     RDKit          3D

 82 86  0  0  0  0  0  0  0  0999 V2000
   -0.0840    8.8380   -2.2630 C   0  0  0  0  0  0  0  0  0  0  0  0
    0.8200    9.9440   -2.8140 C   0  0  2  0  0  0  0  0  0  0  0  0
    2.2600    9.8410   -2.2720 C   0  0  0  0  0  0  0  0  0  0  0  0
    3.3190    9.6810   -3.3660 C   0  0  0  0  0  0  0  0  0  0  0  0
    3.7180   11.0030   -3.9490 C   0  0  2  0  0  0  0  0  0  0  0  0
    3.4560   11.1430   -5.3520 O   0  0  0  0  0  0  0  0  0  0  0  0
    4.8380   11.1690   -4.9600 C   0  0  0  0  0  0  0  0  0  0  0  0
    5.6300    9.9950   -5.4450 C   0  0  0  0  0  0  0  0  0  0  0  0
    5.4800   12.5130   -5.1020 C   0  0  0  0  0  0  0  0  0  0  0  0
    0.2340   11.3100   -2.4780 C   0  0  1  0  0  0  0  0  0  0  0  0
   -1.0960   11.2110   -1.6840 C   0  0  0  0  0  0  0  0  0  0  0  0
   -1.1190   12.4070   -0.6980 C   0  0  0  0  0  0  0  0  0  0  0  0
    0.0230   13.3320   -1.1800 C   0  0  1  0  0  0  0  0  0  0  0  0
   -0.5880   14.1380   -2.3680 C   0  0  0  0  0  0  0  0  0  0  0  0
    0.6490   14.2760   -0.1030 C   0  0  2  0  0  0  0  0  0  0  0  0
   -0.3200   15.3070    0.5030 C   0  0  0  0  0  0  0  0  0  0  0  0
   -0.3810   16.6190   -0.2070 C   0  0  0  0  0  0  0  0  0  0  0  0
    0.5130   17.0620   -1.1100 C   0  0  0  0  0  0  0  0  0  0  0  0
    1.7780   16.2540   -1.4280 C   0  0  1  0  0  0  0  0  0  0  0  0
    3.0090   17.1980   -1.4310 C   0  0  0  0  0  0  0  0  0  0  0  0
    2.8280   18.3910   -2.3650 C   0  0  0  0  0  0  0  0  0  0  0  0
    1.5940   19.2020   -1.9810 C   0  0  2  0  0  0  0  0  0  0  0  0
    1.8190   19.8080   -0.7040 O   0  0  0  0  0  0  0  0  0  0  0  0
    0.2930   18.3540   -1.9350 C   0  0  0  0  0  0  0  0  0  0  0  0
   -0.1160   17.9480   -3.3730 C   0  0  0  0  0  0  0  0  0  0  0  0
   -0.8490   19.2590   -1.3980 C   0  0  0  0  0  0  0  0  0  0  0  0
    2.0090   14.9530   -0.5450 C   0  0  1  0  0  0  0  0  0  0  0  0
    2.7670   15.3260    0.7660 C   0  0  0  0  0  0  0  0  0  0  0  0
    2.9440   13.9580   -1.3300 C   0  0  0  0  0  0  0  0  0  0  0  0
    2.2560   12.9690   -2.2900 C   0  0  0  0  0  0  0  0  0  0  0  0
    1.0900   12.2550   -1.5990 C   0  0  2  0  0  0  0  0  0  0  0  0
    1.6780   11.4180   -0.4120 C   0  0  0  0  0  0  0  0  0  0  0  0
   -0.0643    8.8621   -1.1634 H   0  0  0  0  0  0  0  0  0  0  0  0
   -1.1140    8.9970   -2.6148 H   0  0  0  0  0  0  0  0  0  0  0  0
    0.2768    7.8602   -2.6148 H   0  0  0  0  0  0  0  0  0  0  0  0
    0.8682    9.8184   -3.9057 H   0  0  0  0  0  0  0  0  0  0  0  0
    2.4834   10.7558   -1.7035 H   0  0  0  0  0  0  0  0  0  0  0  0
    2.3044    8.9371   -1.6467 H   0  0  0  0  0  0  0  0  0  0  0  0
    4.2083    9.1991   -2.9336 H   0  0  0  0  0  0  0  0  0  0  0  0
    2.8900    9.0666   -4.1713 H   0  0  0  0  0  0  0  0  0  0  0  0
    3.4994   11.5135   -2.9995 H   0  0  0  0  0  0  0  0  0  0  0  0
    6.0119    9.4289   -4.5827 H   0  0  0  0  0  0  0  0  0  0  0  0
    4.9855    9.3444   -6.0544 H   0  0  0  0  0  0  0  0  0  0  0  0
    6.4746   10.3490   -6.0544 H   0  0  0  0  0  0  0  0  0  0  0  0
    5.6798   12.9312   -4.1044 H   0  0  0  0  0  0  0  0  0  0  0  0
    6.4265   12.4108   -5.6530 H   0  0  0  0  0  0  0  0  0  0  0  0
    4.8057   13.1851   -5.6530 H   0  0  0  0  0  0  0  0  0  0  0  0
    0.1390   11.7236   -3.4928 H   0  0  0  0  0  0  0  0  0  0  0  0
   -1.9527   11.2704   -2.3714 H   0  0  0  0  0  0  0  0  0  0  0  0
   -1.1640   10.2542   -1.1456 H   0  0  0  0  0  0  0  0  0  0  0  0
   -2.0864   12.9287   -0.7428 H   0  0  0  0  0  0  0  0  0  0  0  0
   -0.9856   12.0891    0.3466 H   0  0  0  0  0  0  0  0  0  0  0  0
   -1.2086   14.9567   -1.9749 H   0  0  0  0  0  0  0  0  0  0  0  0
    0.2227   14.5553   -2.9833 H   0  0  0  0  0  0  0  0  0  0  0  0
   -1.2088   13.4702   -2.9833 H   0  0  0  0  0  0  0  0  0  0  0  0
    0.8905   13.5767    0.7110 H   0  0  0  0  0  0  0  0  0  0  0  0
   -1.3293   14.8697    0.4964 H   0  0  0  0  0  0  0  0  0  0  0  0
    0.0593   15.5245    1.5124 H   0  0  0  0  0  0  0  0  0  0  0  0
   -1.2286   17.2795    0.0280 H   0  0  0  0  0  0  0  0  0  0  0  0
    1.6267   15.8356   -2.4340 H   0  0  0  0  0  0  0  0  0  0  0  0
    3.1698   17.5714   -0.4089 H   0  0  0  0  0  0  0  0  0  0  0  0
    3.8728   16.6198   -1.7908 H   0  0  0  0  0  0  0  0  0  0  0  0
    3.7168   19.0360   -2.3014 H   0  0  0  0  0  0  0  0  0  0  0  0
    2.6968   18.0168   -3.3910 H   0  0  0  0  0  0  0  0  0  0  0  0
    1.4443   19.9631   -2.7609 H   0  0  0  0  0  0  0  0  0  0  0  0
    2.7620   19.7010   -0.4900 H   0  0  0  0  0  0  0  0  0  0  0  0
   -0.8960   17.1737   -3.3275 H   0  0  0  0  0  0  0  0  0  0  0  0
   -0.5039   18.8284   -3.9063 H   0  0  0  0  0  0  0  0  0  0  0  0
    0.7615   17.5536   -3.9063 H   0  0  0  0  0  0  0  0  0  0  0  0
   -0.8376   19.2499   -0.2981 H   0  0  0  0  0  0  0  0  0  0  0  0
   -0.7014   20.2880   -1.7578 H   0  0  0  0  0  0  0  0  0  0  0  0
   -1.8170   18.8801   -1.7578 H   0  0  0  0  0  0  0  0  0  0  0  0
    2.1630   15.0288    1.6360 H   0  0  0  0  0  0  0  0  0  0  0  0
    3.7329   14.8003    0.7933 H   0  0  0  0  0  0  0  0  0  0  0  0
    2.9398   16.4120    0.7933 H   0  0  0  0  0  0  0  0  0  0  0  0
    3.6487   14.5605   -1.9219 H   0  0  0  0  0  0  0  0  0  0  0  0
    3.4105   13.3305   -0.5563 H   0  0  0  0  0  0  0  0  0  0  0  0
    1.8743   13.5204   -3.1619 H   0  0  0  0  0  0  0  0  0  0  0  0
    2.9927   12.2147   -2.6036 H   0  0  0  0  0  0  0  0  0  0  0  0
    1.3640   11.8650    0.5428 H   0  0  0  0  0  0  0  0  0  0  0  0
    1.3065   10.3844   -0.4727 H   0  0  0  0  0  0  0  0  0  0  0  0
    2.7763   11.4170   -0.4727 H   0  0  0  0  0  0  0  0  0  0  0  0
  1  2  1  0
  2  3  1  0
  3  4  1  0
  4  5  1  0
  5  6  1  0
  6  7  1  0
  7  8  1  0
  7  9  1  0
  2 10  1  0
 10 11  1  0
 11 12  1  0
 12 13  1  0
 13 14  1  6
 13 15  1  0
 15 16  1  0
 16 17  1  0
 17 18  2  0
 18 19  1  0
 19 20  1  0
 20 21  1  0
 21 22  1  0
 22 23  1  0
 22 24  1  0
 24 25  1  0
 24 26  1  0
 19 27  1  0
 27 28  1  1
 27 29  1  0
 29 30  1  0
 30 31  1  0
 31 32  1  1
  7  5  1  0
 31 10  1  0
 31 13  1  0
 27 15  1  0
 24 18  1  0
  1 33  1  0
  1 34  1  0
  1 35  1  0
  2 36  1  6
  3 37  1  0
  3 38  1  0
  4 39  1  0
  4 40  1  0
  5 41  1  1
  8 42  1  0
  8 43  1  0
  8 44  1  0
  9 45  1  0
  9 46  1  0
  9 47  1  0
 10 48  1  6
 11 49  1  0
 11 50  1  0
 12 51  1  0
 12 52  1  0
 14 53  1  0
 14 54  1  0
 14 55  1  0
 15 56  1  1
 16 57  1  0
 16 58  1  0
 17 59  1  0
 19 60  1  6
 20 61  1  0
 20 62  1  0
 21 63  1  0
 21 64  1  0
 22 65  1  6
 23 66  1  0
 25 67  1  0
 25 68  1  0
 25 69  1  0
 26 70  1  0
 26 71  1  0
 26 72  1  0
 28 73  1  0
 28 74  1  0
 28 75  1  0
 29 76  1  0
 29 77  1  0
 30 78  1  0
 30 79  1  0
 32 80  1  0
 32 81  1  0
 32 82  1  0
M  END
>  <meeko>  (18) 
{"is_sidechain": [false], "intermolecular_energy": 2.731, "internal_energy": -0.839}

$$$$
EPH_relaxed_0001_pdb2pqr_Repair_173_r2_0001_out
     RDKit          3D

 82 86  0  0  0  0  0  0  0  0999 V2000
    3.1200   14.8460   -7.5500 C   0  0  0  0  0  0  0  0  0  0  0  0
    1.5960   14.8760   -7.4070 C   0  0  2  0  0  0  0  0  0  0  0  0
    0.9730   16.1160   -8.0790 C   0  0  0  0  0  0  0  0  0  0  0  0
    1.8960   16.7920   -9.0970 C   0  0  0  0  0  0  0  0  0  0  0  0
    1.5690   16.3820  -10.5010 C   0  0  2  0  0  0  0  0  0  0  0  0
    0.9880   15.0770  -10.6230 O   0  0  0  0  0  0  0  0  0  0  0  0
    2.2780   15.2550  -11.2290 C   0  0  0  0  0  0  0  0  0  0  0  0
    3.3720   14.4700  -10.5760 C   0  0  0  0  0  0  0  0  0  0  0  0
    2.2480   15.2410  -12.7260 C   0  0  0  0  0  0  0  0  0  0  0  0
    1.2120   14.8350   -5.9320 C   0  0  1  0  0  0  0  0  0  0  0  0
   -0.0460   15.6900   -5.6190 C   0  0  0  0  0  0  0  0  0  0  0  0
   -0.8220   14.9490   -4.4990 C   0  0  0  0  0  0  0  0  0  0  0  0
    0.1690   13.8820   -3.9780 C   0  0  1  0  0  0  0  0  0  0  0  0
    1.1050   14.6520   -2.9930 C   0  0  0  0  0  0  0  0  0  0  0  0
   -0.4640   12.6210   -3.3050 C   0  0  2  0  0  0  0  0  0  0  0  0
   -1.2820   12.9010   -2.0320 C   0  0  0  0  0  0  0  0  0  0  0  0
   -0.5110   12.8490   -0.7550 C   0  0  0  0  0  0  0  0  0  0  0  0
    0.7140   12.3120   -0.6020 C   0  0  0  0  0  0  0  0  0  0  0  0
    1.4090   11.5920   -1.7640 C   0  0  1  0  0  0  0  0  0  0  0  0
    2.0000   10.2490   -1.2630 C   0  0  0  0  0  0  0  0  0  0  0  0
    2.9160   10.4270   -0.0550 C   0  0  0  0  0  0  0  0  0  0  0  0
    2.1720   11.0920    1.1000 C   0  0  2  0  0  0  0  0  0  0  0  0
    1.1610   10.1960    1.5740 O   0  0  0  0  0  0  0  0  0  0  0  0
    1.5250   12.4500    0.7100 C   0  0  0  0  0  0  0  0  0  0  0  0
    2.6330   13.5090    0.4870 C   0  0  0  0  0  0  0  0  0  0  0  0
    0.6890   12.9460    1.9210 C   0  0  0  0  0  0  0  0  0  0  0  0
    0.5490   11.4240   -3.0900 C   0  0  1  0  0  0  0  0  0  0  0  0
   -0.3090   10.1250   -3.0050 C   0  0  0  0  0  0  0  0  0  0  0  0
    1.5210   11.2350   -4.3140 C   0  0  0  0  0  0  0  0  0  0  0  0
    2.0180   12.5160   -5.0110 C   0  0  0  0  0  0  0  0  0  0  0  0
    0.8500   13.4550   -5.3290 C   0  0  2  0  0  0  0  0  0  0  0  0
   -0.0970   12.7160   -6.3350 C   0  0  0  0  0  0  0  0  0  0  0  0
    3.5818   14.8369   -6.5517 H   0  0  0  0  0  0  0  0  0  0  0  0
    3.4189   13.9418   -8.1005 H   0  0  0  0  0  0  0  0  0  0  0  0
    3.4542   15.7377   -8.1005 H   0  0  0  0  0  0  0  0  0  0  0  0
    1.1982   13.9882   -7.9204 H   0  0  0  0  0  0  0  0  0  0  0  0
    0.0532   15.8056   -8.5963 H   0  0  0  0  0  0  0  0  0  0  0  0
    0.7788   16.8501   -7.2832 H   0  0  0  0  0  0  0  0  0  0  0  0
    1.7849   17.8829   -9.0093 H   0  0  0  0  0  0  0  0  0  0  0  0
    2.9291   16.4819   -8.8814 H   0  0  0  0  0  0  0  0  0  0  0  0
    1.3573   17.4242  -10.7820 H   0  0  0  0  0  0  0  0  0  0  0  0
    3.2724   14.5415   -9.4829 H   0  0  0  0  0  0  0  0  0  0  0  0
    3.3003   13.4160  -10.8826 H   0  0  0  0  0  0  0  0  0  0  0  0
    4.3475   14.8755  -10.8826 H   0  0  0  0  0  0  0  0  0  0  0  0
    1.3011   14.7991  -13.0696 H   0  0  0  0  0  0  0  0  0  0  0  0
    2.3306   16.2707  -13.1040 H   0  0  0  0  0  0  0  0  0  0  0  0
    3.0902   14.6429  -13.1040 H   0  0  0  0  0  0  0  0  0  0  0  0
    2.1475   15.2053   -5.4872 H   0  0  0  0  0  0  0  0  0  0  0  0
    0.2523   16.6912   -5.2747 H   0  0  0  0  0  0  0  0  0  0  0  0
   -0.6708   15.8170   -6.5154 H   0  0  0  0  0  0  0  0  0  0  0  0
   -1.1016   15.6451   -3.6944 H   0  0  0  0  0  0  0  0  0  0  0  0
   -1.7593   14.5045   -4.8649 H   0  0  0  0  0  0  0  0  0  0  0  0
    0.8196   14.4172   -1.9569 H   0  0  0  0  0  0  0  0  0  0  0  0
    2.1479   14.3469   -3.1642 H   0  0  0  0  0  0  0  0  0  0  0  0
    1.0067   15.7341   -3.1642 H   0  0  0  0  0  0  0  0  0  0  0  0
   -1.1923   12.2914   -4.0606 H   0  0  0  0  0  0  0  0  0  0  0  0
   -1.7205   13.9056   -2.1237 H   0  0  0  0  0  0  0  0  0  0  0  0
   -2.0309   12.0978   -1.9685 H   0  0  0  0  0  0  0  0  0  0  0  0
   -0.9838   13.2865    0.1367 H   0  0  0  0  0  0  0  0  0  0  0  0
    2.2214   12.2577   -2.0907 H   0  0  0  0  0  0  0  0  0  0  0  0
    1.1715    9.5821   -0.9821 H   0  0  0  0  0  0  0  0  0  0  0  0
    2.6027    9.8242   -2.0793 H   0  0  0  0  0  0  0  0  0  0  0  0
    3.2784    9.4407    0.2705 H   0  0  0  0  0  0  0  0  0  0  0  0
    3.7599   11.0699   -0.3458 H   0  0  0  0  0  0  0  0  0  0  0  0
    2.9099   11.3100    1.8861 H   0  0  0  0  0  0  0  0  0  0  0  0
    1.3830    9.9620    2.4910 H   0  0  0  0  0  0  0  0  0  0  0  0
    3.0032   13.8629    1.4605 H   0  0  0  0  0  0  0  0  0  0  0  0
    3.4619   13.0588   -0.0789 H   0  0  0  0  0  0  0  0  0  0  0  0
    2.2208   14.3574   -0.0789 H   0  0  0  0  0  0  0  0  0  0  0  0
    1.1872   12.6504    2.8561 H   0  0  0  0  0  0  0  0  0  0  0  0
    0.6021   14.0419    1.8823 H   0  0  0  0  0  0  0  0  0  0  0  0
   -0.3145   12.4970    1.8823 H   0  0  0  0  0  0  0  0  0  0  0  0
   -0.4796    9.8667   -1.9495 H   0  0  0  0  0  0  0  0  0  0  0  0
   -1.2758   10.2909   -3.5028 H   0  0  0  0  0  0  0  0  0  0  0  0
    0.2231    9.3009   -3.5028 H   0  0  0  0  0  0  0  0  0  0  0  0
    2.4048   10.6870   -3.9555 H   0  0  0  0  0  0  0  0  0  0  0  0
    0.9272   10.7059   -5.0739 H   0  0  0  0  0  0  0  0  0  0  0  0
    2.7266   13.0345   -4.3484 H   0  0  0  0  0  0  0  0  0  0  0  0
    2.5088   12.2344   -5.9543 H   0  0  0  0  0  0  0  0  0  0  0  0
   -0.8436   12.1334   -5.7753 H   0  0  0  0  0  0  0  0  0  0  0  0
   -0.6087   13.4560   -6.9680 H   0  0  0  0  0  0  0  0  0  0  0  0
    0.4964   12.0398   -6.9680 H   0  0  0  0  0  0  0  0  0  0  0  0
  1  2  1  0
  2  3  1  0
  3  4  1  0
  4  5  1  0
  5  6  1  0
  6  7  1  0
  7  8  1  0
  7  9  1  0
  2 10  1  0
 10 11  1  0
 11 12  1  0
 12 13  1  0
 13 14  1  1
 13 15  1  0
 15 16  1  0
 16 17  1  0
 17 18  2  0
 18 19  1  0
 19 20  1  0
 20 21  1  0
 21 22  1  0
 22 23  1  0
 22 24  1  0
 24 25  1  0
 24 26  1  0
 19 27  1  0
 27 28  1  1
 27 29  1  0
 29 30  1  0
 30 31  1  0
 31 32  1  6
  7  5  1  0
 31 10  1  0
 31 13  1  0
 27 15  1  0
 24 18  1  0
  1 33  1  0
  1 34  1  0
  1 35  1  0
  2 36  1  6
  3 37  1  0
  3 38  1  0
  4 39  1  0
  4 40  1  0
  5 41  1  6
  8 42  1  0
  8 43  1  0
  8 44  1  0
  9 45  1  0
  9 46  1  0
  9 47  1  0
 10 48  1  1
 11 49  1  0
 11 50  1  0
 12 51  1  0
 12 52  1  0
 14 53  1  0
 14 54  1  0
 14 55  1  0
 15 56  1  6
 16 57  1  0
 16 58  1  0
 17 59  1  0
 19 60  1  6
 20 61  1  0
 20 62  1  0
 21 63  1  0
 21 64  1  0
 22 65  1  1
 23 66  1  0
 25 67  1  0
 25 68  1  0
 25 69  1  0
 26 70  1  0
 26 71  1  0
 26 72  1  0
 28 73  1  0
 28 74  1  0
 28 75  1  0
 29 76  1  0
 29 77  1  0
 30 78  1  0
 30 79  1  0
 32 80  1  0
 32 81  1  0
 32 82  1  0
M  END
>  <meeko>  (19) 
{"is_sidechain": [false], "intermolecular_energy": 2.731, "internal_energy": -0.839}

$$$$
EPH_relaxed_0001_pdb2pqr_Repair_173_r2_0001_out
     RDKit          3D

 82 86  0  0  0  0  0  0  0  0999 V2000
    0.8450   14.7380   -4.7560 C   0  0  0  0  0  0  0  0  0  0  0  0
    0.5860   14.1890   -3.3510 C   0  0  2  0  0  0  0  0  0  0  0  0
    1.7970   14.3880   -2.4170 C   0  0  0  0  0  0  0  0  0  0  0  0
    1.5660   15.4370   -1.3260 C   0  0  0  0  0  0  0  0  0  0  0  0
    1.1510   16.7560   -1.9030 C   0  0  2  0  0  0  0  0  0  0  0  0
    2.0990   17.3390   -2.8070 O   0  0  0  0  0  0  0  0  0  0  0  0
    1.8540   18.0640   -1.5920 C   0  0  0  0  0  0  0  0  0  0  0  0
    3.0300   18.1170   -0.6670 C   0  0  0  0  0  0  0  0  0  0  0  0
    1.1060   19.3450   -1.7940 C   0  0  0  0  0  0  0  0  0  0  0  0
    0.2260   12.7100   -3.4280 C   0  0  1  0  0  0  0  0  0  0  0  0
    1.4560   11.8110   -3.7270 C   0  0  0  0  0  0  0  0  0  0  0  0
    1.2390   10.4850   -2.9520 C   0  0  0  0  0  0  0  0  0  0  0  0
   -0.2420   10.5300   -2.5090 C   0  0  1  0  0  0  0  0  0  0  0  0
   -1.0500   10.0750   -3.7640 C   0  0  0  0  0  0  0  0  0  0  0  0
   -0.6110    9.6840   -1.2470 C   0  0  2  0  0  0  0  0  0  0  0  0
   -0.4000    8.1670   -1.3930 C   0  0  0  0  0  0  0  0  0  0  0  0
   -1.5790    7.4060   -1.9020 C   0  0  0  0  0  0  0  0  0  0  0  0
   -2.8420    7.8660   -1.9590 C   0  0  0  0  0  0  0  0  0  0  0  0
   -3.2040    9.2450   -1.3910 C   0  0  1  0  0  0  0  0  0  0  0  0
   -4.4900    9.1290   -0.5310 C   0  0  0  0  0  0  0  0  0  0  0  0
   -5.6470    8.4890   -1.2920 C   0  0  0  0  0  0  0  0  0  0  0  0
   -5.2690    7.0970   -1.7900 C   0  0  2  0  0  0  0  0  0  0  0  0
   -5.0930    6.2350   -0.6620 O   0  0  0  0  0  0  0  0  0  0  0  0
   -3.9810    7.0870   -2.6610 C   0  0  0  0  0  0  0  0  0  0  0  0
   -4.2690    7.7680   -4.0220 C   0  0  0  0  0  0  0  0  0  0  0  0
   -3.6320    5.6080   -2.9800 C   0  0  0  0  0  0  0  0  0  0  0  0
   -2.0340   10.0140   -0.6390 C   0  0  1  0  0  0  0  0  0  0  0  0
   -1.9900    9.5820    0.8590 C   0  0  0  0  0  0  0  0  0  0  0  0
   -2.3450   11.5570   -0.6470 C   0  0  0  0  0  0  0  0  0  0  0  0
   -1.8500   12.3600   -1.8660 C   0  0  0  0  0  0  0  0  0  0  0  0
   -0.3780   12.0570   -2.1600 C   0  0  2  0  0  0  0  0  0  0  0  0
    0.4630   12.5240   -0.9230 C   0  0  0  0  0  0  0  0  0  0  0  0
    1.3133   15.7305   -4.6813 H   0  0  0  0  0  0  0  0  0  0  0  0
    1.5162   14.0558   -5.2983 H   0  0  0  0  0  0  0  0  0  0  0  0
   -0.1083   14.8222   -5.2983 H   0  0  0  0  0  0  0  0  0  0  0  0
   -0.2560   14.7548   -2.9256 H   0  0  0  0  0  0  0  0  0  0  0  0
    2.0236   13.4269   -1.9324 H   0  0  0  0  0  0  0  0  0  0  0  0
    2.6281   14.7496   -3.0403 H   0  0  0  0  0  0  0  0  0  0  0  0
    0.7756   15.0795   -0.6496 H   0  0  0  0  0  0  0  0  0  0  0  0
    2.5126   15.5825   -0.7849 H   0  0  0  0  0  0  0  0  0  0  0  0
    0.0914   16.4623   -1.8725 H   0  0  0  0  0  0  0  0  0  0  0  0
    2.6779   18.1011    0.3750 H   0  0  0  0  0  0  0  0  0  0  0  0
    3.6785   17.2472   -0.8482 H   0  0  0  0  0  0  0  0  0  0  0  0
    3.5976   19.0416   -0.8482 H   0  0  0  0  0  0  0  0  0  0  0  0
    0.8522   19.7796   -0.8159 H   0  0  0  0  0  0  0  0  0  0  0  0
    1.7337   20.0512   -2.3573 H   0  0  0  0  0  0  0  0  0  0  0  0
    0.1825   19.1454   -2.3573 H   0  0  0  0  0  0  0  0  0  0  0  0
   -0.5286   12.7457   -4.2276 H   0  0  0  0  0  0  0  0  0  0  0  0
    1.5263   11.6118   -4.8065 H   0  0  0  0  0  0  0  0  0  0  0  0
    2.3897   12.3024   -3.4160 H   0  0  0  0  0  0  0  0  0  0  0  0
    1.4229    9.6190   -3.6049 H   0  0  0  0  0  0  0  0  0  0  0  0
    1.9265   10.3828   -2.0994 H   0  0  0  0  0  0  0  0  0  0  0  0
   -1.9667    9.5588   -3.4426 H   0  0  0  0  0  0  0  0  0  0  0  0
   -1.3172   10.9553   -4.3671 H   0  0  0  0  0  0  0  0  0  0  0  0
   -0.4358    9.3901   -4.3671 H   0  0  0  0  0  0  0  0  0  0  0  0
    0.1357   10.0194   -0.5122 H   0  0  0  0  0  0  0  0  0  0  0  0
    0.4356    8.0054   -2.0899 H   0  0  0  0  0  0  0  0  0  0  0  0
   -0.2071    7.7873   -0.3788 H   0  0  0  0  0  0  0  0  0  0  0  0
   -1.3999    6.3818   -2.2611 H   0  0  0  0  0  0  0  0  0  0  0  0
   -3.3932    9.8921   -2.2602 H   0  0  0  0  0  0  0  0  0  0  0  0
   -4.2679    8.5152    0.3544 H   0  0  0  0  0  0  0  0  0  0  0  0
   -4.7973   10.1474   -0.2509 H   0  0  0  0  0  0  0  0  0  0  0  0
   -6.5167    8.4082   -0.6233 H   0  0  0  0  0  0  0  0  0  0  0  0
   -5.8869    9.1194   -2.1609 H   0  0  0  0  0  0  0  0  0  0  0  0
   -6.0873    6.7444   -2.4351 H   0  0  0  0  0  0  0  0  0  0  0  0
   -5.7980    5.5670   -0.6890 H   0  0  0  0  0  0  0  0  0  0  0  0
   -4.6921    8.7685   -3.8491 H   0  0  0  0  0  0  0  0  0  0  0  0
   -3.3325    7.8594   -4.5917 H   0  0  0  0  0  0  0  0  0  0  0  0
   -4.9869    7.1597   -4.5917 H   0  0  0  0  0  0  0  0  0  0  0  0
   -3.5007    5.0514   -2.0404 H   0  0  0  0  0  0  0  0  0  0  0  0
   -4.4482    5.1562   -3.5628 H   0  0  0  0  0  0  0  0  0  0  0  0
   -2.6999    5.5687   -3.5628 H   0  0  0  0  0  0  0  0  0  0  0  0
   -2.0806   10.4714    1.4999 H   0  0  0  0  0  0  0  0  0  0  0  0
   -2.8227    8.8940    1.0668 H   0  0  0  0  0  0  0  0  0  0  0  0
   -1.0357    9.0760    1.0668 H   0  0  0  0  0  0  0  0  0  0  0  0
   -3.4371   11.6765   -0.5911 H   0  0  0  0  0  0  0  0  0  0  0  0
   -1.7916   11.9663    0.2110 H   0  0  0  0  0  0  0  0  0  0  0  0
   -2.4553   12.0909   -2.7442 H   0  0  0  0  0  0  0  0  0  0  0  0
   -1.9500   13.4327   -1.6439 H   0  0  0  0  0  0  0  0  0  0  0  0
   -0.0560   12.2358    0.0031 H   0  0  0  0  0  0  0  0  0  0  0  0
    1.4537   12.0468   -0.9519 H   0  0  0  0  0  0  0  0  0  0  0  0
    0.5816   13.6172   -0.9519 H   0  0  0  0  0  0  0  0  0  0  0  0
  1  2  1  0
  2  3  1  0
  3  4  1  0
  4  5  1  0
  5  6  1  0
  6  7  1  0
  7  8  1  0
  7  9  1  0
  2 10  1  0
 10 11  1  0
 11 12  1  0
 12 13  1  0
 13 14  1  6
 13 15  1  0
 15 16  1  0
 16 17  1  0
 17 18  2  0
 18 19  1  0
 19 20  1  0
 20 21  1  0
 21 22  1  0
 22 23  1  0
 22 24  1  0
 24 25  1  0
 24 26  1  0
 19 27  1  0
 27 28  1  1
 27 29  1  0
 29 30  1  0
 30 31  1  0
 31 32  1  1
  7  5  1  0
 31 10  1  0
 31 13  1  0
 27 15  1  0
 24 18  1  0
  1 33  1  0
  1 34  1  0
  1 35  1  0
  2 36  1  1
  3 37  1  0
  3 38  1  0
  4 39  1  0
  4 40  1  0
  5 41  1  6
  8 42  1  0
  8 43  1  0
  8 44  1  0
  9 45  1  0
  9 46  1  0
  9 47  1  0
 10 48  1  6
 11 49  1  0
 11 50  1  0
 12 51  1  0
 12 52  1  0
 14 53  1  0
 14 54  1  0
 14 55  1  0
 15 56  1  1
 16 57  1  0
 16 58  1  0
 17 59  1  0
 19 60  1  6
 20 61  1  0
 20 62  1  0
 21 63  1  0
 21 64  1  0
 22 65  1  6
 23 66  1  0
 25 67  1  0
 25 68  1  0
 25 69  1  0
 26 70  1  0
 26 71  1  0
 26 72  1  0
 28 73  1  0
 28 74  1  0
 28 75  1  0
 29 76  1  0
 29 77  1  0
 30 78  1  0
 30 79  1  0
 32 80  1  0
 32 81  1  0
 32 82  1  0
M  END
>  <meeko>  (20) 
{"is_sidechain": [false], "intermolecular_energy": 2.731, "internal_energy": -0.839}

$$$$
