EPH_relaxed_0001_pdb2pqr_Repair_327_r2_0001_out
     RDKit          3D

 82 86  0  0  0  0  0  0  0  0999 V2000
    4.7170   16.9230   -1.1720 C   0  0  0  0  0  0  0  0  0  0  0  0
    3.5250   17.5340   -0.4300 C   0  0  2  0  0  0  0  0  0  0  0  0
    3.8890   17.9560    1.0070 C   0  0  0  0  0  0  0  0  0  0  0  0
    4.5830   19.3180    1.0910 C   0  0  0  0  0  0  0  0  0  0  0  0
    5.8100   19.2640    1.9510 C   0  0  2  0  0  0  0  0  0  0  0  0
    5.7520   18.3050    3.0150 O   0  0  0  0  0  0  0  0  0  0  0  0
    5.8290   19.6850    3.4080 C   0  0  0  0  0  0  0  0  0  0  0  0
    4.5980   20.1940    4.0900 C   0  0  0  0  0  0  0  0  0  0  0  0
    7.1390   20.0640    4.0260 C   0  0  0  0  0  0  0  0  0  0  0  0
    2.3660   16.5440   -0.4040 C   0  0  1  0  0  0  0  0  0  0  0  0
    0.9870   17.2330   -0.5800 C   0  0  0  0  0  0  0  0  0  0  0  0
    0.0980   16.2550   -1.3900 C   0  0  0  0  0  0  0  0  0  0  0  0
    0.8700   14.9150   -1.3660 C   0  0  1  0  0  0  0  0  0  0  0  0
    0.5280   14.2800    0.0190 C   0  0  0  0  0  0  0  0  0  0  0  0
    0.5780   13.9270   -2.5420 C   0  0  2  0  0  0  0  0  0  0  0  0
   -0.8730   13.4220   -2.6240 C   0  0  0  0  0  0  0  0  0  0  0  0
   -1.1540   12.1640   -1.8700 C   0  0  0  0  0  0  0  0  0  0  0  0
   -0.2250   11.3150   -1.3930 C   0  0  0  0  0  0  0  0  0  0  0  0
    1.2660   11.5350   -1.6800 C   0  0  1  0  0  0  0  0  0  0  0  0
    1.9100   10.1960   -2.1260 C   0  0  0  0  0  0  0  0  0  0  0  0
    1.6690    9.0690   -1.1270 C   0  0  0  0  0  0  0  0  0  0  0  0
    0.1750    8.8420   -0.9120 C   0  0  2  0  0  0  0  0  0  0  0  0
   -0.3950    8.3410   -2.1250 O   0  0  0  0  0  0  0  0  0  0  0  0
   -0.5830   10.1250   -0.4690 C   0  0  0  0  0  0  0  0  0  0  0  0
   -0.1780   10.4940    0.9800 C   0  0  0  0  0  0  0  0  0  0  0  0
   -2.0990    9.7920   -0.4250 C   0  0  0  0  0  0  0  0  0  0  0  0
    1.6130   12.7360   -2.6610 C   0  0  1  0  0  0  0  0  0  0  0  0
    1.5600   12.2470   -4.1410 C   0  0  0  0  0  0  0  0  0  0  0  0
    3.0940   13.2020   -2.3990 C   0  0  0  0  0  0  0  0  0  0  0  0
    3.3040   14.2670   -1.3060 C   0  0  0  0  0  0  0  0  0  0  0  0
    2.3440   15.4450   -1.4970 C   0  0  2  0  0  0  0  0  0  0  0  0
    2.6790   16.1180   -2.8710 C   0  0  0  0  0  0  0  0  0  0  0  0
    5.4496   16.5475   -0.4425 H   0  0  0  0  0  0  0  0  0  0  0  0
    4.3691   16.0920   -1.8033 H   0  0  0  0  0  0  0  0  0  0  0  0
    5.1885   17.6906   -1.8033 H   0  0  0  0  0  0  0  0  0  0  0  0
    3.2269   18.4419   -0.9748 H   0  0  0  0  0  0  0  0  0  0  0  0
    2.9641   18.0002    1.6008 H   0  0  0  0  0  0  0  0  0  0  0  0
    4.5991   17.2090    1.3914 H   0  0  0  0  0  0  0  0  0  0  0  0
    4.8717   19.6339    0.0777 H   0  0  0  0  0  0  0  0  0  0  0  0
    3.8798   20.0335    1.5421 H   0  0  0  0  0  0  0  0  0  0  0  0
    6.4497   19.5326    1.0974 H   0  0  0  0  0  0  0  0  0  0  0  0
    4.7332   20.1381    5.1802 H   0  0  0  0  0  0  0  0  0  0  0  0
    4.4212   21.2390    3.7955 H   0  0  0  0  0  0  0  0  0  0  0  0
    3.7348   19.5790    3.7955 H   0  0  0  0  0  0  0  0  0  0  0  0
    7.0486   20.0378    5.1220 H   0  0  0  0  0  0  0  0  0  0  0  0
    7.9150   19.3535    3.7050 H   0  0  0  0  0  0  0  0  0  0  0  0
    7.4158   21.0791    3.7050 H   0  0  0  0  0  0  0  0  0  0  0  0
    2.5347   16.0896    0.5835 H   0  0  0  0  0  0  0  0  0  0  0  0
    0.5343   17.4308    0.4028 H   0  0  0  0  0  0  0  0  0  0  0  0
    1.0906   18.1962   -1.1011 H   0  0  0  0  0  0  0  0  0  0  0  0
   -0.8883   16.1435   -0.9160 H   0  0  0  0  0  0  0  0  0  0  0  0
   -0.0880   16.6110   -2.4140 H   0  0  0  0  0  0  0  0  0  0  0  0
    0.8839   14.9407    0.8232 H   0  0  0  0  0  0  0  0  0  0  0  0
   -0.5611   14.1519    0.1047 H   0  0  0  0  0  0  0  0  0  0  0  0
    1.0204   13.3001    0.1047 H   0  0  0  0  0  0  0  0  0  0  0  0
    0.7231   14.5640   -3.4269 H   0  0  0  0  0  0  0  0  0  0  0  0
   -1.5301   14.2100   -2.2274 H   0  0  0  0  0  0  0  0  0  0  0  0
   -1.0547   13.1888   -3.6835 H   0  0  0  0  0  0  0  0  0  0  0  0
   -2.2089   11.9099   -1.6893 H   0  0  0  0  0  0  0  0  0  0  0  0
    1.7132   11.8664   -0.7312 H   0  0  0  0  0  0  0  0  0  0  0  0
    1.4814    9.9046   -3.0963 H   0  0  0  0  0  0  0  0  0  0  0  0
    2.9964   10.3547   -2.1942 H   0  0  0  0  0  0  0  0  0  0  0  0
    2.1222    8.1435   -1.5119 H   0  0  0  0  0  0  0  0  0  0  0  0
    2.1240    9.3485   -0.1653 H   0  0  0  0  0  0  0  0  0  0  0  0
    0.0669    8.1158   -0.0929 H   0  0  0  0  0  0  0  0  0  0  0  0
    0.0660    7.5150   -2.3480 H   0  0  0  0  0  0  0  0  0  0  0  0
   -0.7992    9.9280    1.6898 H   0  0  0  0  0  0  0  0  0  0  0  0
    0.8813   10.2441    1.1396 H   0  0  0  0  0  0  0  0  0  0  0  0
   -0.3285   11.5719    1.1396 H   0  0  0  0  0  0  0  0  0  0  0  0
   -2.4283    9.7197    0.6221 H   0  0  0  0  0  0  0  0  0  0  0  0
   -2.6640   10.5874   -0.9329 H   0  0  0  0  0  0  0  0  0  0  0  0
   -2.2786    8.8330   -0.9329 H   0  0  0  0  0  0  0  0  0  0  0  0
    1.4415   11.1536   -4.1619 H   0  0  0  0  0  0  0  0  0  0  0  0
    0.7076   12.7180   -4.6525 H   0  0  0  0  0  0  0  0  0  0  0  0
    2.4935   12.5245   -4.6525 H   0  0  0  0  0  0  0  0  0  0  0  0
    3.6770   12.3136   -2.1144 H   0  0  0  0  0  0  0  0  0  0  0  0
    3.4142   13.6831   -3.3350 H   0  0  0  0  0  0  0  0  0  0  0  0
    3.1238   13.8120   -0.3209 H   0  0  0  0  0  0  0  0  0  0  0  0
    4.3362   14.6410   -1.3743 H   0  0  0  0  0  0  0  0  0  0  0  0
    3.1629   17.0900   -2.6949 H   0  0  0  0  0  0  0  0  0  0  0  0
    3.3588   15.4681   -3.4416 H   0  0  0  0  0  0  0  0  0  0  0  0
    1.7507   16.2685   -3.4416 H   0  0  0  0  0  0  0  0  0  0  0  0
  1  2  1  0
  2  3  1  0
  3  4  1  0
  4  5  1  0
  5  6  1  0
  6  7  1  0
  7  8  1  0
  7  9  1  0
  2 10  1  0
 10 11  1  0
 11 12  1  0
 12 13  1  0
 13 14  1  1
 13 15  1  0
 15 16  1  0
 16 17  1  0
 17 18  2  0
 18 19  1  0
 19 20  1  0
 20 21  1  0
 21 22  1  0
 22 23  1  0
 22 24  1  0
 24 25  1  0
 24 26  1  0
 19 27  1  0
 27 28  1  6
 27 29  1  0
 29 30  1  0
 30 31  1  0
 31 32  1  6
  7  5  1  0
 31 10  1  0
 31 13  1  0
 27 15  1  0
 24 18  1  0
  1 33  1  0
  1 34  1  0
  1 35  1  0
  2 36  1  6
  3 37  1  0
  3 38  1  0
  4 39  1  0
  4 40  1  0
  5 41  1  6
  8 42  1  0
  8 43  1  0
  8 44  1  0
  9 45  1  0
  9 46  1  0
  9 47  1  0
 10 48  1  1
 11 49  1  0
 11 50  1  0
 12 51  1  0
 12 52  1  0
 14 53  1  0
 14 54  1  0
 14 55  1  0
 15 56  1  6
 16 57  1  0
 16 58  1  0
 17 59  1  0
 19 60  1  1
 20 61  1  0
 20 62  1  0
 21 63  1  0
 21 64  1  0
 22 65  1  1
 23 66  1  0
 25 67  1  0
 25 68  1  0
 25 69  1  0
 26 70  1  0
 26 71  1  0
 26 72  1  0
 28 73  1  0
 28 74  1  0
 28 75  1  0
 29 76  1  0
 29 77  1  0
 30 78  1  0
 30 79  1  0
 32 80  1  0
 32 81  1  0
 32 82  1  0
M  END
>  <meeko>  (1) 
{"is_sidechain": [false], "intermolecular_energy": 2.731, "internal_energy": -0.839}

$$$$
EPH_relaxed_0001_pdb2pqr_Repair_327_r2_0001_out
     RDKit          3D

 82 86  0  0  0  0  0  0  0  0999 V2000
    3.5400   16.8450   -0.3430 C   0  0  0  0  0  0  0  0  0  0  0  0
    2.1260   17.3260   -0.6800 C   0  0  2  0  0  0  0  0  0  0  0  0
    1.4100   17.9300    0.5450 C   0  0  0  0  0  0  0  0  0  0  0  0
    0.8920   19.3520    0.3150 C   0  0  0  0  0  0  0  0  0  0  0  0
   -0.5970   19.4320    0.4710 C   0  0  2  0  0  0  0  0  0  0  0  0
   -1.3190   18.3450   -0.1220 O   0  0  0  0  0  0  0  0  0  0  0  0
   -1.5490   19.6440   -0.6910 C   0  0  0  0  0  0  0  0  0  0  0  0
   -1.0490   19.7920   -2.0940 C   0  0  0  0  0  0  0  0  0  0  0  0
   -2.9120   20.1940   -0.4070 C   0  0  0  0  0  0  0  0  0  0  0  0
    1.3060   16.1720   -1.2450 C   0  0  1  0  0  0  0  0  0  0  0  0
    0.7510   16.4710   -2.6630 C   0  0  0  0  0  0  0  0  0  0  0  0
    0.7620   15.1290   -3.4400 C   0  0  0  0  0  0  0  0  0  0  0  0
    1.0030   14.0530   -2.3560 C   0  0  1  0  0  0  0  0  0  0  0  0
   -0.3970   13.8120   -1.7100 C   0  0  0  0  0  0  0  0  0  0  0  0
    1.6520   12.7160   -2.8420 C   0  0  2  0  0  0  0  0  0  0  0  0
    0.8180   11.9180   -3.8590 C   0  0  0  0  0  0  0  0  0  0  0  0
   -0.1230   10.9200   -3.2700 C   0  0  0  0  0  0  0  0  0  0  0  0
   -0.0920   10.4700   -2.0010 C   0  0  0  0  0  0  0  0  0  0  0  0
    1.0250   10.8990   -1.0410 C   0  0  1  0  0  0  0  0  0  0  0  0
    1.5730    9.6530   -0.2960 C   0  0  0  0  0  0  0  0  0  0  0  0
    0.4740    8.8590    0.4040 C   0  0  0  0  0  0  0  0  0  0  0  0
   -0.5880    8.4020   -0.5930 C   0  0  2  0  0  0  0  0  0  0  0  0
   -0.0020    7.4480   -1.4850 O   0  0  0  0  0  0  0  0  0  0  0  0
   -1.2050    9.5710   -1.4100 C   0  0  0  0  0  0  0  0  0  0  0  0
   -2.0930   10.4400   -0.4860 C   0  0  0  0  0  0  0  0  0  0  0  0
   -2.1560    8.9590   -2.4750 C   0  0  0  0  0  0  0  0  0  0  0  0
    2.1790   11.7890   -1.6730 C   0  0  1  0  0  0  0  0  0  0  0  0
    3.2780   10.8720   -2.2930 C   0  0  0  0  0  0  0  0  0  0  0  0
    2.8810   12.6100   -0.5280 C   0  0  0  0  0  0  0  0  0  0  0  0
    2.2630   13.9770   -0.1750 C   0  0  0  0  0  0  0  0  0  0  0  0
    2.0270   14.8140   -1.4360 C   0  0  2  0  0  0  0  0  0  0  0  0
    3.4210   15.0900   -2.0950 C   0  0  0  0  0  0  0  0  0  0  0  0
    3.6625   16.8033    0.7494 H   0  0  0  0  0  0  0  0  0  0  0  0
    3.6974   15.8428   -0.7681 H   0  0  0  0  0  0  0  0  0  0  0  0
    4.2759   17.5433   -0.7681 H   0  0  0  0  0  0  0  0  0  0  0  0
    2.2182   18.1217   -1.4338 H   0  0  0  0  0  0  0  0  0  0  0  0
    0.5555   17.2861    0.8004 H   0  0  0  0  0  0  0  0  0  0  0  0
    2.1510   17.9848    1.3561 H   0  0  0  0  0  0  0  0  0  0  0  0
    1.3636   20.0257    1.0456 H   0  0  0  0  0  0  0  0  0  0  0  0
    1.1452   19.6468   -0.7141 H   0  0  0  0  0  0  0  0  0  0  0  0
   -0.4926   19.9398    1.4412 H   0  0  0  0  0  0  0  0  0  0  0  0
    0.0056   20.1042   -2.0764 H   0  0  0  0  0  0  0  0  0  0  0  0
   -1.1377   18.8291   -2.6183 H   0  0  0  0  0  0  0  0  0  0  0  0
   -1.6475   20.5515   -2.6183 H   0  0  0  0  0  0  0  0  0  0  0  0
   -3.0634   20.2551    0.6808 H   0  0  0  0  0  0  0  0  0  0  0  0
   -3.0010   21.1984   -0.8466 H   0  0  0  0  0  0  0  0  0  0  0  0
   -3.6732   19.5326   -0.8466 H   0  0  0  0  0  0  0  0  0  0  0  0
    0.5429   16.0854   -0.4575 H   0  0  0  0  0  0  0  0  0  0  0  0
   -0.2755   16.8602   -2.5937 H   0  0  0  0  0  0  0  0  0  0  0  0
    1.3626   17.2287   -3.1748 H   0  0  0  0  0  0  0  0  0  0  0  0
   -0.2019   14.9639   -3.9436 H   0  0  0  0  0  0  0  0  0  0  0  0
    1.5308   15.1085   -4.2265 H   0  0  0  0  0  0  0  0  0  0  0  0
   -0.3029   13.8282   -0.6142 H   0  0  0  0  0  0  0  0  0  0  0  0
   -1.0898   14.6041   -2.0302 H   0  0  0  0  0  0  0  0  0  0  0  0
   -0.7851   12.8338   -2.0302 H   0  0  0  0  0  0  0  0  0  0  0  0
    2.5363   13.0695   -3.3925 H   0  0  0  0  0  0  0  0  0  0  0  0
    0.2279   12.6335   -4.4504 H   0  0  0  0  0  0  0  0  0  0  0  0
    1.5387   11.3404   -4.4566 H   0  0  0  0  0  0  0  0  0  0  0  0
   -0.9078   10.5183   -3.9278 H   0  0  0  0  0  0  0  0  0  0  0  0
    0.5601   11.5898   -0.3222 H   0  0  0  0  0  0  0  0  0  0  0  0
    2.0717    8.9974   -1.0250 H   0  0  0  0  0  0  0  0  0  0  0  0
    2.2725   10.0065    0.4758 H   0  0  0  0  0  0  0  0  0  0  0  0
    0.9190    7.9760    0.8860 H   0  0  0  0  0  0  0  0  0  0  0  0
   -0.0038    9.5065    1.1539 H   0  0  0  0  0  0  0  0  0  0  0  0
   -1.4110    7.9542   -0.0166 H   0  0  0  0  0  0  0  0  0  0  0  0
   -0.3260    6.5680   -1.2290 H   0  0  0  0  0  0  0  0  0  0  0  0
   -1.8610   10.2129    0.5650 H   0  0  0  0  0  0  0  0  0  0  0  0
   -1.8963   11.5041   -0.6833 H   0  0  0  0  0  0  0  0  0  0  0  0
   -3.1526   10.2203   -0.6833 H   0  0  0  0  0  0  0  0  0  0  0  0
   -2.9784    8.4298   -1.9714 H   0  0  0  0  0  0  0  0  0  0  0  0
   -2.5676    9.7622   -3.1039 H   0  0  0  0  0  0  0  0  0  0  0  0
   -1.5955    8.2517   -3.1039 H   0  0  0  0  0  0  0  0  0  0  0  0
    3.8528   10.3924   -1.4871 H   0  0  0  0  0  0  0  0  0  0  0  0
    2.8027   10.0989   -2.9146 H   0  0  0  0  0  0  0  0  0  0  0  0
    3.9535   11.4781   -2.9146 H   0  0  0  0  0  0  0  0  0  0  0  0
    2.8652   11.9925    0.3822 H   0  0  0  0  0  0  0  0  0  0  0  0
    3.8861   12.8387   -0.9120 H   0  0  0  0  0  0  0  0  0  0  0  0
    1.3019   13.8164    0.3354 H   0  0  0  0  0  0  0  0  0  0  0  0
    2.9610   14.5189    0.4801 H   0  0  0  0  0  0  0  0  0  0  0  0
    4.1753   15.2393   -1.3084 H   0  0  0  0  0  0  0  0  0  0  0  0
    3.7077   14.2312   -2.7197 H   0  0  0  0  0  0  0  0  0  0  0  0
    3.3589   15.9933   -2.7197 H   0  0  0  0  0  0  0  0  0  0  0  0
  1  2  1  0
  2  3  1  0
  3  4  1  0
  4  5  1  0
  5  6  1  0
  6  7  1  0
  7  8  1  0
  7  9  1  0
  2 10  1  0
 10 11  1  0
 11 12  1  0
 12 13  1  0
 13 14  1  1
 13 15  1  0
 15 16  1  0
 16 17  1  0
 17 18  2  0
 18 19  1  0
 19 20  1  0
 20 21  1  0
 21 22  1  0
 22 23  1  0
 22 24  1  0
 24 25  1  0
 24 26  1  0
 19 27  1  0
 27 28  1  6
 27 29  1  0
 29 30  1  0
 30 31  1  0
 31 32  1  6
  7  5  1  0
 31 10  1  0
 31 13  1  0
 27 15  1  0
 24 18  1  0
  1 33  1  0
  1 34  1  0
  1 35  1  0
  2 36  1  6
  3 37  1  0
  3 38  1  0
  4 39  1  0
  4 40  1  0
  5 41  1  1
  8 42  1  0
  8 43  1  0
  8 44  1  0
  9 45  1  0
  9 46  1  0
  9 47  1  0
 10 48  1  1
 11 49  1  0
 11 50  1  0
 12 51  1  0
 12 52  1  0
 14 53  1  0
 14 54  1  0
 14 55  1  0
 15 56  1  6
 16 57  1  0
 16 58  1  0
 17 59  1  0
 19 60  1  1
 20 61  1  0
 20 62  1  0
 21 63  1  0
 21 64  1  0
 22 65  1  1
 23 66  1  0
 25 67  1  0
 25 68  1  0
 25 69  1  0
 26 70  1  0
 26 71  1  0
 26 72  1  0
 28 73  1  0
 28 74  1  0
 28 75  1  0
 29 76  1  0
 29 77  1  0
 30 78  1  0
 30 79  1  0
 32 80  1  0
 32 81  1  0
 32 82  1  0
M  END
>  <meeko>  (2) 
{"is_sidechain": [false], "intermolecular_energy": 2.731, "internal_energy": -0.839}

$$$$
EPH_relaxed_0001_pdb2pqr_Repair_327_r2_0001_out
     RDKit          3D

 82 86  0  0  0  0  0  0  0  0999 V2000
    4.4390   16.6850   -1.0640 C   0  0  0  0  0  0  0  0  0  0  0  0
    3.1650   17.3350   -0.5170 C   0  0  2  0  0  0  0  0  0  0  0  0
    3.3280   17.7910    0.9470 C   0  0  0  0  0  0  0  0  0  0  0  0
    4.4830   18.7730    1.1600 C   0  0  0  0  0  0  0  0  0  0  0  0
    4.7630   18.9910    2.6170 C   0  0  2  0  0  0  0  0  0  0  0  0
    5.5020   20.1830    2.9120 O   0  0  0  0  0  0  0  0  0  0  0  0
    6.1550   18.9400    3.2180 C   0  0  0  0  0  0  0  0  0  0  0  0
    7.3590   18.6610    2.3740 C   0  0  0  0  0  0  0  0  0  0  0  0
    6.2910   18.6760    4.6850 C   0  0  0  0  0  0  0  0  0  0  0  0
    1.9950   16.3650   -0.6330 C   0  0  1  0  0  0  0  0  0  0  0  0
    0.7570   17.0010   -1.3190 C   0  0  0  0  0  0  0  0  0  0  0  0
    0.0780   15.8790   -2.1470 C   0  0  0  0  0  0  0  0  0  0  0  0
    0.7440   14.5730   -1.6530 C   0  0  1  0  0  0  0  0  0  0  0  0
   -0.0020   14.2200   -0.3280 C   0  0  0  0  0  0  0  0  0  0  0  0
    0.7390   13.3730   -2.6550 C   0  0  2  0  0  0  0  0  0  0  0  0
   -0.6550   12.8550   -3.0470 C   0  0  0  0  0  0  0  0  0  0  0  0
   -1.1990   11.7690   -2.1800 C   0  0  0  0  0  0  0  0  0  0  0  0
   -0.4860   11.0330   -1.3070 C   0  0  0  0  0  0  0  0  0  0  0  0
    1.0360   11.1990   -1.1970 C   0  0  1  0  0  0  0  0  0  0  0  0
    1.7090    9.8010   -1.1810 C   0  0  0  0  0  0  0  0  0  0  0  0
    1.1410    8.8910   -0.0970 C   0  0  0  0  0  0  0  0  0  0  0  0
   -0.3640    8.7040   -0.2740 C   0  0  2  0  0  0  0  0  0  0  0  0
   -0.5980    7.9730   -1.4820 O   0  0  0  0  0  0  0  0  0  0  0  0
   -1.1470   10.0460   -0.3150 C   0  0  0  0  0  0  0  0  0  0  0  0
   -1.1430   10.6940    1.0920 C   0  0  0  0  0  0  0  0  0  0  0  0
   -2.6310    9.7220   -0.6390 C   0  0  0  0  0  0  0  0  0  0  0  0
    1.7040   12.1860   -2.2480 C   0  0  1  0  0  0  0  0  0  0  0  0
    2.0400   11.4160   -3.5620 C   0  0  0  0  0  0  0  0  0  0  0  0
    3.0750   12.7000   -1.6720 C   0  0  0  0  0  0  0  0  0  0  0  0
    3.0280   13.9590   -0.7860 C   0  0  0  0  0  0  0  0  0  0  0  0
    2.2210   15.0740   -1.4590 C   0  0  2  0  0  0  0  0  0  0  0  0
    2.9600   15.4650   -2.7840 C   0  0  0  0  0  0  0  0  0  0  0  0
    5.0741   16.3610   -0.2263 H   0  0  0  0  0  0  0  0  0  0  0  0
    4.1709   15.8135   -1.6793 H   0  0  0  0  0  0  0  0  0  0  0  0
    4.9872   17.4136   -1.6793 H   0  0  0  0  0  0  0  0  0  0  0  0
    2.9656   18.2318   -1.1219 H   0  0  0  0  0  0  0  0  0  0  0  0
    2.3945   18.2783    1.2651 H   0  0  0  0  0  0  0  0  0  0  0  0
    3.5555   16.8931    1.5403 H   0  0  0  0  0  0  0  0  0  0  0  0
    5.3868   18.3702    0.6795 H   0  0  0  0  0  0  0  0  0  0  0  0
    4.1986   19.7388    0.7168 H   0  0  0  0  0  0  0  0  0  0  0  0
    3.8205   18.4975    2.8965 H   0  0  0  0  0  0  0  0  0  0  0  0
    8.2237   18.4606    3.0237 H   0  0  0  0  0  0  0  0  0  0  0  0
    7.1663   17.7837    1.7390 H   0  0  0  0  0  0  0  0  0  0  0  0
    7.5719   19.5336    1.7390 H   0  0  0  0  0  0  0  0  0  0  0  0
    5.8588   19.5149    5.2501 H   0  0  0  0  0  0  0  0  0  0  0  0
    5.7586   17.7482    4.9415 H   0  0  0  0  0  0  0  0  0  0  0  0
    7.3555   18.5708    4.9415 H   0  0  0  0  0  0  0  0  0  0  0  0
    1.8584   16.1135    0.4291 H   0  0  0  0  0  0  0  0  0  0  0  0
    0.0600   17.3865   -0.5603 H   0  0  0  0  0  0  0  0  0  0  0  0
    1.0514   17.8433   -1.9623 H   0  0  0  0  0  0  0  0  0  0  0  0
   -1.0054   15.8582   -1.9579 H   0  0  0  0  0  0  0  0  0  0  0  0
    0.2012   16.0266   -3.2301 H   0  0  0  0  0  0  0  0  0  0  0  0
    0.6185   14.5136    0.5315 H   0  0  0  0  0  0  0  0  0  0  0  0
   -0.9592   14.7607   -0.2909 H   0  0  0  0  0  0  0  0  0  0  0  0
   -0.1909   13.1370   -0.2909 H   0  0  0  0  0  0  0  0  0  0  0  0
    1.1554   13.8255   -3.5671 H   0  0  0  0  0  0  0  0  0  0  0  0
   -1.3553   13.7025   -3.0097 H   0  0  0  0  0  0  0  0  0  0  0  0
   -0.5457   12.4172   -4.0502 H   0  0  0  0  0  0  0  0  0  0  0  0
   -2.2742   11.5514   -2.2612 H   0  0  0  0  0  0  0  0  0  0  0  0
    1.2178   11.7121   -0.2411 H   0  0  0  0  0  0  0  0  0  0  0  0
    1.5533    9.3234   -2.1596 H   0  0  0  0  0  0  0  0  0  0  0  0
    2.7781    9.9475   -0.9676 H   0  0  0  0  0  0  0  0  0  0  0  0
    1.6349    7.9099   -0.1555 H   0  0  0  0  0  0  0  0  0  0  0  0
    1.3239    9.3562    0.8829 H   0  0  0  0  0  0  0  0  0  0  0  0
   -0.7339    8.1520    0.6026 H   0  0  0  0  0  0  0  0  0  0  0  0
   -1.5500    7.7790   -1.5280 H   0  0  0  0  0  0  0  0  0  0  0  0
   -1.1479    9.9054    1.8589 H   0  0  0  0  0  0  0  0  0  0  0  0
   -0.2410   11.3128    1.2081 H   0  0  0  0  0  0  0  0  0  0  0  0
   -2.0373   11.3239    1.2081 H   0  0  0  0  0  0  0  0  0  0  0  0
   -3.1927    9.5994    0.2988 H   0  0  0  0  0  0  0  0  0  0  0  0
   -3.0672   10.5461   -1.2226 H   0  0  0  0  0  0  0  0  0  0  0  0
   -2.6841    8.7911   -1.2226 H   0  0  0  0  0  0  0  0  0  0  0  0
    2.4685   10.4341   -3.3123 H   0  0  0  0  0  0  0  0  0  0  0  0
    1.1211   11.2762   -4.1502 H   0  0  0  0  0  0  0  0  0  0  0  0
    2.7675   11.9946   -4.1502 H   0  0  0  0  0  0  0  0  0  0  0  0
    3.5096   11.8869   -1.0720 H   0  0  0  0  0  0  0  0  0  0  0  0
    3.6666   12.9900   -2.5529 H   0  0  0  0  0  0  0  0  0  0  0  0
    2.5580   13.7049    0.1755 H   0  0  0  0  0  0  0  0  0  0  0  0
    4.0566   14.3162   -0.6296 H   0  0  0  0  0  0  0  0  0  0  0  0
    3.9082   15.9667   -2.5407 H   0  0  0  0  0  0  0  0  0  0  0  0
    3.1654   14.5575   -3.3708 H   0  0  0  0  0  0  0  0  0  0  0  0
    2.3253   16.1453   -3.3708 H   0  0  0  0  0  0  0  0  0  0  0  0
  1  2  1  0
  2  3  1  0
  3  4  1  0
  4  5  1  0
  5  6  1  0
  6  7  1  0
  7  8  1  0
  7  9  1  0
  2 10  1  0
 10 11  1  0
 11 12  1  0
 12 13  1  0
 13 14  1  1
 13 15  1  0
 15 16  1  0
 16 17  1  0
 17 18  2  0
 18 19  1  0
 19 20  1  0
 20 21  1  0
 21 22  1  0
 22 23  1  0
 22 24  1  0
 24 25  1  0
 24 26  1  0
 19 27  1  0
 27 28  1  6
 27 29  1  0
 29 30  1  0
 30 31  1  0
 31 32  1  6
  7  5  1  0
 31 10  1  0
 31 13  1  0
 27 15  1  0
 24 18  1  0
  1 33  1  0
  1 34  1  0
  1 35  1  0
  2 36  1  6
  3 37  1  0
  3 38  1  0
  4 39  1  0
  4 40  1  0
  5 41  1  1
  8 42  1  0
  8 43  1  0
  8 44  1  0
  9 45  1  0
  9 46  1  0
  9 47  1  0
 10 48  1  1
 11 49  1  0
 11 50  1  0
 12 51  1  0
 12 52  1  0
 14 53  1  0
 14 54  1  0
 14 55  1  0
 15 56  1  6
 16 57  1  0
 16 58  1  0
 17 59  1  0
 19 60  1  1
 20 61  1  0
 20 62  1  0
 21 63  1  0
 21 64  1  0
 22 65  1  1
 23 66  1  0
 25 67  1  0
 25 68  1  0
 25 69  1  0
 26 70  1  0
 26 71  1  0
 26 72  1  0
 28 73  1  0
 28 74  1  0
 28 75  1  0
 29 76  1  0
 29 77  1  0
 30 78  1  0
 30 79  1  0
 32 80  1  0
 32 81  1  0
 32 82  1  0
M  END
>  <meeko>  (3) 
{"is_sidechain": [false], "intermolecular_energy": 2.731, "internal_energy": -0.839}

$$$$
EPH_relaxed_0001_pdb2pqr_Repair_327_r2_0001_out
     RDKit          3D

 82 86  0  0  0  0  0  0  0  0999 V2000
   -2.6110    7.6160   -3.0490 C   0  0  0  0  0  0  0  0  0  0  0  0
   -2.8920    7.8760   -1.5660 C   0  0  2  0  0  0  0  0  0  0  0  0
   -4.4000    7.8340   -1.2450 C   0  0  0  0  0  0  0  0  0  0  0  0
   -5.1290    6.6420   -1.8700 C   0  0  0  0  0  0  0  0  0  0  0  0
   -6.3290    7.0760   -2.6570 C   0  0  2  0  0  0  0  0  0  0  0  0
   -6.8840    8.3350   -2.2550 O   0  0  0  0  0  0  0  0  0  0  0  0
   -7.7220    7.1830   -2.0660 C   0  0  0  0  0  0  0  0  0  0  0  0
   -7.9890    6.8530   -0.6310 C   0  0  0  0  0  0  0  0  0  0  0  0
   -8.8970    7.1350   -2.9930 C   0  0  0  0  0  0  0  0  0  0  0  0
   -2.3100    9.2240   -1.1560 C   0  0  1  0  0  0  0  0  0  0  0  0
   -2.8220    9.6980    0.2300 C   0  0  0  0  0  0  0  0  0  0  0  0
   -1.6480   10.4530    0.9060 C   0  0  0  0  0  0  0  0  0  0  0  0
   -0.6220   10.6770   -0.2300 C   0  0  1  0  0  0  0  0  0  0  0  0
   -1.1470   11.9270   -1.0040 C   0  0  0  0  0  0  0  0  0  0  0  0
    0.8680   10.8530    0.2090 C   0  0  2  0  0  0  0  0  0  0  0  0
    1.1470   12.0800    1.0940 C   0  0  0  0  0  0  0  0  0  0  0  0
    1.5090   13.3270    0.3590 C   0  0  0  0  0  0  0  0  0  0  0  0
    1.8850   13.3930   -0.9320 C   0  0  0  0  0  0  0  0  0  0  0  0
    2.0700   12.1180   -1.7650 C   0  0  1  0  0  0  0  0  0  0  0  0
    3.4050   12.2010   -2.5510 C   0  0  0  0  0  0  0  0  0  0  0  0
    3.5090   13.4680   -3.3940 C   0  0  0  0  0  0  0  0  0  0  0  0
    3.3790   14.7150   -2.5230 C   0  0  2  0  0  0  0  0  0  0  0  0
    4.5160   14.7940   -1.6580 O   0  0  0  0  0  0  0  0  0  0  0  0
    2.0760   14.7380   -1.6760 C   0  0  0  0  0  0  0  0  0  0  0  0
    0.8560   14.9560   -2.6050 C   0  0  0  0  0  0  0  0  0  0  0  0
    2.1360   15.9750   -0.7400 C   0  0  0  0  0  0  0  0  0  0  0  0
    1.9100   10.7460   -0.9770 C   0  0  1  0  0  0  0  0  0  0  0  0
    3.2720   10.3380   -0.3370 C   0  0  0  0  0  0  0  0  0  0  0  0
    1.5400    9.6070   -1.9980 C   0  0  0  0  0  0  0  0  0  0  0  0
    0.0430    9.4040   -2.3000 C   0  0  0  0  0  0  0  0  0  0  0  0
   -0.7710    9.3170   -1.0050 C   0  0  2  0  0  0  0  0  0  0  0  0
   -0.2810    8.0550   -0.2160 C   0  0  0  0  0  0  0  0  0  0  0  0
   -1.8067    6.8718   -3.1448 H   0  0  0  0  0  0  0  0  0  0  0  0
   -3.5222    7.2355   -3.5336 H   0  0  0  0  0  0  0  0  0  0  0  0
   -2.3023    8.5540   -3.5336 H   0  0  0  0  0  0  0  0  0  0  0  0
   -2.4094    7.0718   -0.9913 H   0  0  0  0  0  0  0  0  0  0  0  0
   -4.5213    7.7816   -0.1530 H   0  0  0  0  0  0  0  0  0  0  0  0
   -4.8454    8.7440   -1.6735 H   0  0  0  0  0  0  0  0  0  0  0  0
   -4.4361    6.1118   -2.5399 H   0  0  0  0  0  0  0  0  0  0  0  0
   -5.4716    5.9851   -1.0569 H   0  0  0  0  0  0  0  0  0  0  0  0
   -5.9472    6.5776   -3.5602 H   0  0  0  0  0  0  0  0  0  0  0  0
   -7.4289    7.5453    0.0148 H   0  0  0  0  0  0  0  0  0  0  0  0
   -9.0654    6.9505   -0.4265 H   0  0  0  0  0  0  0  0  0  0  0  0
   -7.6690    5.8207   -0.4265 H   0  0  0  0  0  0  0  0  0  0  0  0
   -9.8262    7.0970   -2.4055 H   0  0  0  0  0  0  0  0  0  0  0  0
   -8.9006    8.0337   -3.6272 H   0  0  0  0  0  0  0  0  0  0  0  0
   -8.8273    6.2390   -3.6272 H   0  0  0  0  0  0  0  0  0  0  0  0
   -2.6423    9.8360   -2.0075 H   0  0  0  0  0  0  0  0  0  0  0  0
   -3.6835   10.3706    0.1059 H   0  0  0  0  0  0  0  0  0  0  0  0
   -3.1487    8.8453    0.8433 H   0  0  0  0  0  0  0  0  0  0  0  0
   -1.9897   11.4149    1.3158 H   0  0  0  0  0  0  0  0  0  0  0  0
   -1.2206    9.8903    1.7490 H   0  0  0  0  0  0  0  0  0  0  0  0
   -1.4694   12.6946   -0.2851 H   0  0  0  0  0  0  0  0  0  0  0  0
   -0.3427   12.3313   -1.6361 H   0  0  0  0  0  0  0  0  0  0  0  0
   -1.9988   11.6358   -1.6361 H   0  0  0  0  0  0  0  0  0  0  0  0
    1.0287    9.9770    0.8547 H   0  0  0  0  0  0  0  0  0  0  0  0
    0.2428   12.2847    1.6860 H   0  0  0  0  0  0  0  0  0  0  0  0
    2.0244   11.8213    1.7049 H   0  0  0  0  0  0  0  0  0  0  0  0
    1.4649   14.2725    0.9195 H   0  0  0  0  0  0  0  0  0  0  0  0
    1.2247   12.0892   -2.4682 H   0  0  0  0  0  0  0  0  0  0  0  0
    4.2384   12.1855   -1.8333 H   0  0  0  0  0  0  0  0  0  0  0  0
    3.4441   11.3404   -3.2350 H   0  0  0  0  0  0  0  0  0  0  0  0
    4.4847   13.4836   -3.9016 H   0  0  0  0  0  0  0  0  0  0  0  0
    2.6921   13.4676   -4.1307 H   0  0  0  0  0  0  0  0  0  0  0  0
    3.3308   15.5835   -3.1963 H   0  0  0  0  0  0  0  0  0  0  0  0
    4.7270   13.8900   -1.3660 H   0  0  0  0  0  0  0  0  0  0  0  0
   -0.0452   15.1170   -1.9951 H   0  0  0  0  0  0  0  0  0  0  0  0
    1.0313   15.8370   -3.2398 H   0  0  0  0  0  0  0  0  0  0  0  0
    0.7154   14.0688   -3.2398 H   0  0  0  0  0  0  0  0  0  0  0  0
    2.1199   15.6426    0.3085 H   0  0  0  0  0  0  0  0  0  0  0  0
    3.0624   16.5360   -0.9326 H   0  0  0  0  0  0  0  0  0  0  0  0
    1.2682   16.6230   -0.9326 H   0  0  0  0  0  0  0  0  0  0  0  0
    3.1845   10.3642    0.7592 H   0  0  0  0  0  0  0  0  0  0  0  0
    3.5385    9.3206   -0.6593 H   0  0  0  0  0  0  0  0  0  0  0  0
    4.0539   11.0413   -0.6593 H   0  0  0  0  0  0  0  0  0  0  0  0
    2.0432    9.8362   -2.9489 H   0  0  0  0  0  0  0  0  0  0  0  0
    1.8659    8.6727   -1.5174 H   0  0  0  0  0  0  0  0  0  0  0  0
   -0.3217   10.2522   -2.8979 H   0  0  0  0  0  0  0  0  0  0  0  0
   -0.0782    8.4617   -2.8544 H   0  0  0  0  0  0  0  0  0  0  0  0
   -0.3554    8.2465    0.8646 H   0  0  0  0  0  0  0  0  0  0  0  0
   -0.9091    7.1912   -0.4794 H   0  0  0  0  0  0  0  0  0  0  0  0
    0.7654    7.8414   -0.4794 H   0  0  0  0  0  0  0  0  0  0  0  0
  1  2  1  0
  2  3  1  0
  3  4  1  0
  4  5  1  0
  5  6  1  0
  6  7  1  0
  7  8  1  0
  7  9  1  0
  2 10  1  0
 10 11  1  0
 11 12  1  0
 12 13  1  0
 13 14  1  6
 13 15  1  0
 15 16  1  0
 16 17  1  0
 17 18  2  0
 18 19  1  0
 19 20  1  0
 20 21  1  0
 21 22  1  0
 22 23  1  0
 22 24  1  0
 24 25  1  0
 24 26  1  0
 19 27  1  0
 27 28  1  1
 27 29  1  0
 29 30  1  0
 30 31  1  0
 31 32  1  1
  7  5  1  0
 31 10  1  0
 31 13  1  0
 27 15  1  0
 24 18  1  0
  1 33  1  0
  1 34  1  0
  1 35  1  0
  2 36  1  1
  3 37  1  0
  3 38  1  0
  4 39  1  0
  4 40  1  0
  5 41  1  6
  8 42  1  0
  8 43  1  0
  8 44  1  0
  9 45  1  0
  9 46  1  0
  9 47  1  0
 10 48  1  6
 11 49  1  0
 11 50  1  0
 12 51  1  0
 12 52  1  0
 14 53  1  0
 14 54  1  0
 14 55  1  0
 15 56  1  1
 16 57  1  0
 16 58  1  0
 17 59  1  0
 19 60  1  6
 20 61  1  0
 20 62  1  0
 21 63  1  0
 21 64  1  0
 22 65  1  6
 23 66  1  0
 25 67  1  0
 25 68  1  0
 25 69  1  0
 26 70  1  0
 26 71  1  0
 26 72  1  0
 28 73  1  0
 28 74  1  0
 28 75  1  0
 29 76  1  0
 29 77  1  0
 30 78  1  0
 30 79  1  0
 32 80  1  0
 32 81  1  0
 32 82  1  0
M  END
>  <meeko>  (4) 
{"is_sidechain": [false], "intermolecular_energy": 2.731, "internal_energy": -0.839}

$$$$
EPH_relaxed_0001_pdb2pqr_Repair_327_r2_0001_out
     RDKit          3D

 82 86  0  0  0  0  0  0  0  0999 V2000
   -1.8350    8.3710   -1.9130 C   0  0  0  0  0  0  0  0  0  0  0  0
   -2.2150    8.8680   -0.5150 C   0  0  2  0  0  0  0  0  0  0  0  0
   -3.7120    9.2220   -0.4130 C   0  0  0  0  0  0  0  0  0  0  0  0
   -4.6300    8.0000   -0.3170 C   0  0  0  0  0  0  0  0  0  0  0  0
   -5.3310    7.7300   -1.6130 C   0  0  2  0  0  0  0  0  0  0  0  0
   -6.3910    8.6450   -1.9220 O   0  0  0  0  0  0  0  0  0  0  0  0
   -6.7770    7.2780   -1.7040 C   0  0  0  0  0  0  0  0  0  0  0  0
   -7.6070    7.0690   -0.4770 C   0  0  0  0  0  0  0  0  0  0  0  0
   -7.2300    6.5740   -2.9450 C   0  0  0  0  0  0  0  0  0  0  0  0
   -1.3670   10.0780   -0.1450 C   0  0  1  0  0  0  0  0  0  0  0  0
   -0.3910    9.7880    1.0270 C   0  0  0  0  0  0  0  0  0  0  0  0
    0.8970   10.6030    0.7490 C   0  0  0  0  0  0  0  0  0  0  0  0
    0.5030   11.5830   -0.3810 C   0  0  1  0  0  0  0  0  0  0  0  0
   -0.2330   12.7540    0.3420 C   0  0  0  0  0  0  0  0  0  0  0  0
    1.6690   12.1030   -1.2830 C   0  0  2  0  0  0  0  0  0  0  0  0
    2.7430   12.9260   -0.5500 C   0  0  0  0  0  0  0  0  0  0  0  0
    2.4970   14.3980   -0.5040 C   0  0  0  0  0  0  0  0  0  0  0  0
    1.6130   15.0680   -1.2670 C   0  0  0  0  0  0  0  0  0  0  0  0
    0.8160   14.3490   -2.3630 C   0  0  1  0  0  0  0  0  0  0  0  0
    0.8550   15.1900   -3.6660 C   0  0  0  0  0  0  0  0  0  0  0  0
    0.3870   16.6260   -3.4510 C   0  0  0  0  0  0  0  0  0  0  0  0
    1.2410   17.3250   -2.3960 C   0  0  2  0  0  0  0  0  0  0  0  0
    2.5700   17.4770   -2.9060 O   0  0  0  0  0  0  0  0  0  0  0  0
    1.2850   16.5640   -1.0410 C   0  0  0  0  0  0  0  0  0  0  0  0
   -0.0950   16.6600   -0.3450 C   0  0  0  0  0  0  0  0  0  0  0  0
    2.2910   17.2990   -0.1140 C   0  0  0  0  0  0  0  0  0  0  0  0
    1.1920   12.8250   -2.6080 C   0  0  1  0  0  0  0  0  0  0  0  0
    2.3730   12.7240   -3.6200 C   0  0  0  0  0  0  0  0  0  0  0  0
   -0.0310   12.0950   -3.2790 C   0  0  0  0  0  0  0  0  0  0  0  0
   -1.0890   11.4980   -2.3320 C   0  0  0  0  0  0  0  0  0  0  0  0
   -0.4310   10.6520   -1.2380 C   0  0  2  0  0  0  0  0  0  0  0  0
    0.2990    9.4530   -1.9340 C   0  0  0  0  0  0  0  0  0  0  0  0
   -1.1691    7.5000   -1.8240 H   0  0  0  0  0  0  0  0  0  0  0  0
   -2.7450    8.0825   -2.4595 H   0  0  0  0  0  0  0  0  0  0  0  0
   -1.3180    9.1735   -2.4595 H   0  0  0  0  0  0  0  0  0  0  0  0
   -2.0203    8.0484    0.1923 H   0  0  0  0  0  0  0  0  0  0  0  0
   -3.8620    9.8401    0.4845 H   0  0  0  0  0  0  0  0  0  0  0  0
   -3.9799    9.7526   -1.3386 H   0  0  0  0  0  0  0  0  0  0  0  0
   -4.0260    7.1207   -0.0485 H   0  0  0  0  0  0  0  0  0  0  0  0
   -5.3926    8.2035    0.4492 H   0  0  0  0  0  0  0  0  0  0  0  0
   -4.4056    7.3365   -2.0589 H   0  0  0  0  0  0  0  0  0  0  0  0
   -6.9856    7.2255    0.4171 H   0  0  0  0  0  0  0  0  0  0  0  0
   -8.4422    7.7849   -0.4729 H   0  0  0  0  0  0  0  0  0  0  0  0
   -8.0035    6.0430   -0.4729 H   0  0  0  0  0  0  0  0  0  0  0  0
   -7.8062    5.6786   -2.6690 H   0  0  0  0  0  0  0  0  0  0  0  0
   -7.8636    7.2491   -3.5390 H   0  0  0  0  0  0  0  0  0  0  0  0
   -6.3531    6.2771   -3.5390 H   0  0  0  0  0  0  0  0  0  0  0  0
   -2.1655   10.7992    0.0835 H   0  0  0  0  0  0  0  0  0  0  0  0
   -0.8400   10.1030    1.9805 H   0  0  0  0  0  0  0  0  0  0  0  0
   -0.1698    8.7129    1.0997 H   0  0  0  0  0  0  0  0  0  0  0  0
    1.2100   11.1533    1.6486 H   0  0  0  0  0  0  0  0  0  0  0  0
    1.7442    9.9605    0.4671 H   0  0  0  0  0  0  0  0  0  0  0  0
   -0.1502   12.6223    1.4310 H   0  0  0  0  0  0  0  0  0  0  0  0
    0.2267   13.7104    0.0523 H   0  0  0  0  0  0  0  0  0  0  0  0
   -1.2942   12.7546    0.0523 H   0  0  0  0  0  0  0  0  0  0  0  0
    2.1643   11.1698   -1.5893 H   0  0  0  0  0  0  0  0  0  0  0  0
    2.8047   12.5591    0.4852 H   0  0  0  0  0  0  0  0  0  0  0  0
    3.6731   12.7905   -1.1215 H   0  0  0  0  0  0  0  0  0  0  0  0
    3.0883   14.9849    0.2143 H   0  0  0  0  0  0  0  0  0  0  0  0
   -0.2177   14.2808   -1.9930 H   0  0  0  0  0  0  0  0  0  0  0  0
    1.8884   15.2088   -4.0425 H   0  0  0  0  0  0  0  0  0  0  0  0
    0.1694   14.7203   -4.3866 H   0  0  0  0  0  0  0  0  0  0  0  0
    0.4653   17.1763   -4.4002 H   0  0  0  0  0  0  0  0  0  0  0  0
   -0.6563   16.6073   -3.1028 H   0  0  0  0  0  0  0  0  0  0  0  0
    0.7794   18.3024   -2.1918 H   0  0  0  0  0  0  0  0  0  0  0  0
    3.1870   17.2820   -2.1810 H   0  0  0  0  0  0  0  0  0  0  0  0
    0.0432   16.6504    0.7462 H   0  0  0  0  0  0  0  0  0  0  0  0
   -0.5919   17.5949   -0.6434 H   0  0  0  0  0  0  0  0  0  0  0  0
   -0.7166   15.8029   -0.6434 H   0  0  0  0  0  0  0  0  0  0  0  0
    2.0287   17.1073    0.9369 H   0  0  0  0  0  0  0  0  0  0  0  0
    3.3083   16.9299   -0.3111 H   0  0  0  0  0  0  0  0  0  0  0  0
    2.2486   18.3804   -0.3111 H   0  0  0  0  0  0  0  0  0  0  0  0
    3.3218   12.6429   -3.0694 H   0  0  0  0  0  0  0  0  0  0  0  0
    2.2388   11.8341   -4.2524 H   0  0  0  0  0  0  0  0  0  0  0  0
    2.3919   13.6238   -4.2524 H   0  0  0  0  0  0  0  0  0  0  0  0
   -0.5386   12.8241   -3.9276 H   0  0  0  0  0  0  0  0  0  0  0  0
    0.4028   11.2324   -3.8059 H   0  0  0  0  0  0  0  0  0  0  0  0
   -1.6545   12.3165   -1.8626 H   0  0  0  0  0  0  0  0  0  0  0  0
   -1.7600   10.8528   -2.9181 H   0  0  0  0  0  0  0  0  0  0  0  0
    0.7094    8.7789   -1.1677 H   0  0  0  0  0  0  0  0  0  0  0  0
   -0.4171    8.9021   -2.5615 H   0  0  0  0  0  0  0  0  0  0  0  0
    1.1172    9.8362   -2.5615 H   0  0  0  0  0  0  0  0  0  0  0  0
  1  2  1  0
  2  3  1  0
  3  4  1  0
  4  5  1  0
  5  6  1  0
  6  7  1  0
  7  8  1  0
  7  9  1  0
  2 10  1  0
 10 11  1  0
 11 12  1  0
 12 13  1  0
 13 14  1  1
 13 15  1  0
 15 16  1  0
 16 17  1  0
 17 18  2  0
 18 19  1  0
 19 20  1  0
 20 21  1  0
 21 22  1  0
 22 23  1  0
 22 24  1  0
 24 25  1  0
 24 26  1  0
 19 27  1  0
 27 28  1  6
 27 29  1  0
 29 30  1  0
 30 31  1  0
 31 32  1  6
  7  5  1  0
 31 10  1  0
 31 13  1  0
 27 15  1  0
 24 18  1  0
  1 33  1  0
  1 34  1  0
  1 35  1  0
  2 36  1  1
  3 37  1  0
  3 38  1  0
  4 39  1  0
  4 40  1  0
  5 41  1  6
  8 42  1  0
  8 43  1  0
  8 44  1  0
  9 45  1  0
  9 46  1  0
  9 47  1  0
 10 48  1  1
 11 49  1  0
 11 50  1  0
 12 51  1  0
 12 52  1  0
 14 53  1  0
 14 54  1  0
 14 55  1  0
 15 56  1  6
 16 57  1  0
 16 58  1  0
 17 59  1  0
 19 60  1  1
 20 61  1  0
 20 62  1  0
 21 63  1  0
 21 64  1  0
 22 65  1  1
 23 66  1  0
 25 67  1  0
 25 68  1  0
 25 69  1  0
 26 70  1  0
 26 71  1  0
 26 72  1  0
 28 73  1  0
 28 74  1  0
 28 75  1  0
 29 76  1  0
 29 77  1  0
 30 78  1  0
 30 79  1  0
 32 80  1  0
 32 81  1  0
 32 82  1  0
M  END
>  <meeko>  (5) 
{"is_sidechain": [false], "intermolecular_energy": 2.731, "internal_energy": -0.839}

$$$$
EPH_relaxed_0001_pdb2pqr_Repair_327_r2_0001_out
     RDKit          3D

 82 86  0  0  0  0  0  0  0  0999 V2000
    1.3400   18.3440   -0.0470 C   0  0  0  0  0  0  0  0  0  0  0  0
    2.1480   17.0450   -0.1190 C   0  0  2  0  0  0  0  0  0  0  0  0
    3.4760   17.2290   -0.8800 C   0  0  0  0  0  0  0  0  0  0  0  0
    4.5560   17.9490   -0.0670 C   0  0  0  0  0  0  0  0  0  0  0  0
    3.9910   18.5820    1.1680 C   0  0  2  0  0  0  0  0  0  0  0  0
    4.2800   19.9780    1.3110 O   0  0  0  0  0  0  0  0  0  0  0  0
    4.8470   19.1090    2.3050 C   0  0  0  0  0  0  0  0  0  0  0  0
    6.3410   19.0260    2.2600 C   0  0  0  0  0  0  0  0  0  0  0  0
    4.2270   19.2550    3.6590 C   0  0  0  0  0  0  0  0  0  0  0  0
    1.3160   15.9520   -0.7790 C   0  0  1  0  0  0  0  0  0  0  0  0
    0.7750   16.3720   -2.1720 C   0  0  0  0  0  0  0  0  0  0  0  0
    0.7730   15.0970   -3.0540 C   0  0  0  0  0  0  0  0  0  0  0  0
    0.9930   13.9340   -2.0590 C   0  0  1  0  0  0  0  0  0  0  0  0
   -0.4150   13.6620   -1.4430 C   0  0  0  0  0  0  0  0  0  0  0  0
    1.6270   12.6320   -2.6480 C   0  0  2  0  0  0  0  0  0  0  0  0
    0.7890   11.9300   -3.7310 C   0  0  0  0  0  0  0  0  0  0  0  0
   -0.1690   10.9010   -3.2290 C   0  0  0  0  0  0  0  0  0  0  0  0
   -0.1520   10.3500   -2.0010 C   0  0  0  0  0  0  0  0  0  0  0  0
    0.9640   10.6840   -1.0030 C   0  0  1  0  0  0  0  0  0  0  0  0
    1.4910    9.3750   -0.3580 C   0  0  0  0  0  0  0  0  0  0  0  0
    0.3770    8.5430    0.2700 C   0  0  0  0  0  0  0  0  0  0  0  0
   -0.6840    8.1810   -0.7660 C   0  0  2  0  0  0  0  0  0  0  0  0
   -0.1050    7.2950   -1.7290 O   0  0  0  0  0  0  0  0  0  0  0  0
   -1.2810    9.4210   -1.4900 C   0  0  0  0  0  0  0  0  0  0  0  0
   -2.1630   10.2250   -0.5030 C   0  0  0  0  0  0  0  0  0  0  0  0
   -2.2320    8.9100   -2.6060 C   0  0  0  0  0  0  0  0  0  0  0  0
    2.1350   11.6060   -1.5550 C   0  0  1  0  0  0  0  0  0  0  0  0
    3.2260   10.7280   -2.2410 C   0  0  0  0  0  0  0  0  0  0  0  0
    2.8400   12.3230   -0.3430 C   0  0  0  0  0  0  0  0  0  0  0  0
    2.2380   13.6660    0.1150 C   0  0  0  0  0  0  0  0  0  0  0  0
    2.0200   14.6040   -1.0760 C   0  0  2  0  0  0  0  0  0  0  0  0
    3.4220   14.9140   -1.7030 C   0  0  0  0  0  0  0  0  0  0  0  0
    1.1723   18.6136    1.0062 H   0  0  0  0  0  0  0  0  0  0  0  0
    1.8963   19.1501   -0.5477 H   0  0  0  0  0  0  0  0  0  0  0  0
    0.3710   18.2013   -0.5477 H   0  0  0  0  0  0  0  0  0  0  0  0
    2.3965   16.7517    0.9116 H   0  0  0  0  0  0  0  0  0  0  0  0
    3.8564   16.2356   -1.1601 H   0  0  0  0  0  0  0  0  0  0  0  0
    3.2602   17.8578   -1.7564 H   0  0  0  0  0  0  0  0  0  0  0  0
    5.3262   17.2205    0.2264 H   0  0  0  0  0  0  0  0  0  0  0  0
    4.9841   18.7445   -0.6946 H   0  0  0  0  0  0  0  0  0  0  0  0
    3.1266   17.9019    1.1493 H   0  0  0  0  0  0  0  0  0  0  0  0
    6.7381   19.0039    3.2856 H   0  0  0  0  0  0  0  0  0  0  0  0
    6.6416   18.1098    1.7307 H   0  0  0  0  0  0  0  0  0  0  0  0
    6.7412   19.9033    1.7307 H   0  0  0  0  0  0  0  0  0  0  0  0
    4.9885   19.0757    4.4323 H   0  0  0  0  0  0  0  0  0  0  0  0
    3.8242   20.2726    3.7701 H   0  0  0  0  0  0  0  0  0  0  0  0
    3.4125   18.5241    3.7701 H   0  0  0  0  0  0  0  0  0  0  0  0
    0.5469   15.8130   -0.0049 H   0  0  0  0  0  0  0  0  0  0  0  0
   -0.2465   16.7690   -2.0777 H   0  0  0  0  0  0  0  0  0  0  0  0
    1.4005   17.1595   -2.6176 H   0  0  0  0  0  0  0  0  0  0  0  0
   -0.1899   14.9861   -3.5741 H   0  0  0  0  0  0  0  0  0  0  0  0
    1.5464   15.1292   -3.8356 H   0  0  0  0  0  0  0  0  0  0  0  0
   -0.3439   13.6757   -0.3454 H   0  0  0  0  0  0  0  0  0  0  0  0
   -1.1171   14.4411   -1.7747 H   0  0  0  0  0  0  0  0  0  0  0  0
   -0.7764   12.6774   -1.7747 H   0  0  0  0  0  0  0  0  0  0  0  0
    2.5192   13.0171   -3.1634 H   0  0  0  0  0  0  0  0  0  0  0  0
    0.2124   12.6989   -4.2661 H   0  0  0  0  0  0  0  0  0  0  0  0
    1.5057   11.3927   -4.3695 H   0  0  0  0  0  0  0  0  0  0  0  0
   -0.9551   10.5647   -3.9210 H   0  0  0  0  0  0  0  0  0  0  0  0
    0.5027   11.3203   -0.2333 H   0  0  0  0  0  0  0  0  0  0  0  0
    1.9855    8.7733   -1.1348 H   0  0  0  0  0  0  0  0  0  0  0  0
    2.1907    9.6555    0.4431 H   0  0  0  0  0  0  0  0  0  0  0  0
    0.8072    7.6186    0.6828 H   0  0  0  0  0  0  0  0  0  0  0  0
   -0.0975    9.1355    1.0661 H   0  0  0  0  0  0  0  0  0  0  0  0
   -1.5156    7.6984   -0.2317 H   0  0  0  0  0  0  0  0  0  0  0  0
    0.8280    7.5480   -1.8380 H   0  0  0  0  0  0  0  0  0  0  0  0
   -1.8834    9.9701    0.5299 H   0  0  0  0  0  0  0  0  0  0  0  0
   -2.0110   11.3017   -0.6689 H   0  0  0  0  0  0  0  0  0  0  0  0
   -3.2211    9.9742   -0.6689 H   0  0  0  0  0  0  0  0  0  0  0  0
   -3.1132    8.4365   -2.1485 H   0  0  0  0  0  0  0  0  0  0  0  0
   -2.5534    9.7569   -3.2301 H   0  0  0  0  0  0  0  0  0  0  0  0
   -1.7032    8.1746   -3.2301 H   0  0  0  0  0  0  0  0  0  0  0  0
    3.8380   10.2355   -1.4709 H   0  0  0  0  0  0  0  0  0  0  0  0
    2.7417    9.9649   -2.8680 H   0  0  0  0  0  0  0  0  0  0  0  0
    3.8679   11.3643   -2.8680 H   0  0  0  0  0  0  0  0  0  0  0  0
    2.8093   11.6348    0.5145 H   0  0  0  0  0  0  0  0  0  0  0  0
    3.8508   12.5677   -0.7014 H   0  0  0  0  0  0  0  0  0  0  0  0
    1.2721   13.4783    0.6066 H   0  0  0  0  0  0  0  0  0  0  0  0
    2.9396   14.1444    0.8142 H   0  0  0  0  0  0  0  0  0  0  0  0
    4.1553   15.0761   -0.8993 H   0  0  0  0  0  0  0  0  0  0  0  0
    3.7414   14.0648   -2.3249 H   0  0  0  0  0  0  0  0  0  0  0  0
    3.3536   15.8187   -2.3249 H   0  0  0  0  0  0  0  0  0  0  0  0
  1  2  1  0
  2  3  1  0
  3  4  1  0
  4  5  1  0
  5  6  1  0
  6  7  1  0
  7  8  1  0
  7  9  1  0
  2 10  1  0
 10 11  1  0
 11 12  1  0
 12 13  1  0
 13 14  1  1
 13 15  1  0
 15 16  1  0
 16 17  1  0
 17 18  2  0
 18 19  1  0
 19 20  1  0
 20 21  1  0
 21 22  1  0
 22 23  1  0
 22 24  1  0
 24 25  1  0
 24 26  1  0
 19 27  1  0
 27 28  1  6
 27 29  1  0
 29 30  1  0
 30 31  1  0
 31 32  1  6
  7  5  1  0
 31 10  1  0
 31 13  1  0
 27 15  1  0
 24 18  1  0
  1 33  1  0
  1 34  1  0
  1 35  1  0
  2 36  1  1
  3 37  1  0
  3 38  1  0
  4 39  1  0
  4 40  1  0
  5 41  1  1
  8 42  1  0
  8 43  1  0
  8 44  1  0
  9 45  1  0
  9 46  1  0
  9 47  1  0
 10 48  1  1
 11 49  1  0
 11 50  1  0
 12 51  1  0
 12 52  1  0
 14 53  1  0
 14 54  1  0
 14 55  1  0
 15 56  1  6
 16 57  1  0
 16 58  1  0
 17 59  1  0
 19 60  1  1
 20 61  1  0
 20 62  1  0
 21 63  1  0
 21 64  1  0
 22 65  1  1
 23 66  1  0
 25 67  1  0
 25 68  1  0
 25 69  1  0
 26 70  1  0
 26 71  1  0
 26 72  1  0
 28 73  1  0
 28 74  1  0
 28 75  1  0
 29 76  1  0
 29 77  1  0
 30 78  1  0
 30 79  1  0
 32 80  1  0
 32 81  1  0
 32 82  1  0
M  END
>  <meeko>  (6) 
{"is_sidechain": [false], "intermolecular_energy": 2.731, "internal_energy": -0.839}

$$$$
EPH_relaxed_0001_pdb2pqr_Repair_327_r2_0001_out
     RDKit          3D

 82 86  0  0  0  0  0  0  0  0999 V2000
   -1.3330    7.8030   -1.2080 C   0  0  0  0  0  0  0  0  0  0  0  0
   -1.3720    8.8850   -0.1250 C   0  0  2  0  0  0  0  0  0  0  0  0
   -2.6810    9.6980   -0.1630 C   0  0  0  0  0  0  0  0  0  0  0  0
   -3.9410    8.8430    0.0030 C   0  0  0  0  0  0  0  0  0  0  0  0
   -4.5880    8.5470   -1.3160 C   0  0  2  0  0  0  0  0  0  0  0  0
   -6.0070    8.7510   -1.3460 O   0  0  0  0  0  0  0  0  0  0  0  0
   -5.5570    7.3990   -1.5330 C   0  0  0  0  0  0  0  0  0  0  0  0
   -5.9320    6.4730   -0.4190 C   0  0  0  0  0  0  0  0  0  0  0  0
   -5.7560    6.8850   -2.9250 C   0  0  0  0  0  0  0  0  0  0  0  0
   -0.1760    9.8170   -0.2790 C   0  0  1  0  0  0  0  0  0  0  0  0
    1.1770    9.0560   -0.2930 C   0  0  0  0  0  0  0  0  0  0  0  0
    2.1100    9.8200   -1.2670 C   0  0  0  0  0  0  0  0  0  0  0  0
    1.3910   11.1640   -1.5230 C   0  0  1  0  0  0  0  0  0  0  0  0
    1.7460   12.0510   -0.2880 C   0  0  0  0  0  0  0  0  0  0  0  0
    1.7310   11.8850   -2.8680 C   0  0  2  0  0  0  0  0  0  0  0  0
    3.2010   12.3110   -3.0270 C   0  0  0  0  0  0  0  0  0  0  0  0
    3.5240   13.6830   -2.5350 C   0  0  0  0  0  0  0  0  0  0  0  0
    2.6260   14.6440   -2.2510 C   0  0  0  0  0  0  0  0  0  0  0  0
    1.1300   14.4250   -2.5120 C   0  0  1  0  0  0  0  0  0  0  0  0
    0.5420   15.6700   -3.2260 C   0  0  0  0  0  0  0  0  0  0  0  0
    0.8190   16.9650   -2.4680 C   0  0  0  0  0  0  0  0  0  0  0  0
    2.3190   17.1760   -2.2790 C   0  0  2  0  0  0  0  0  0  0  0  0
    2.9170   17.4030   -3.5590 O   0  0  0  0  0  0  0  0  0  0  0  0
    3.0220   15.9810   -1.5780 C   0  0  0  0  0  0  0  0  0  0  0  0
    2.5920   15.9230   -0.0910 C   0  0  0  0  0  0  0  0  0  0  0  0
    4.5500   16.2590   -1.5770 C   0  0  0  0  0  0  0  0  0  0  0  0
    0.7440   13.0660   -3.2380 C   0  0  1  0  0  0  0  0  0  0  0  0
    0.8280   13.2470   -4.7850 C   0  0  0  0  0  0  0  0  0  0  0  0
   -0.7560   12.7160   -2.9120 C   0  0  0  0  0  0  0  0  0  0  0  0
   -1.0170   11.9000   -1.6320 C   0  0  0  0  0  0  0  0  0  0  0  0
   -0.1020   10.6730   -1.5680 C   0  0  2  0  0  0  0  0  0  0  0  0
   -0.4520    9.7510   -2.7860 C   0  0  0  0  0  0  0  0  0  0  0  0
   -1.2972    6.8110   -0.7341 H   0  0  0  0  0  0  0  0  0  0  0  0
   -2.2344    7.8781   -1.8339 H   0  0  0  0  0  0  0  0  0  0  0  0
   -0.4393    7.9428   -1.8339 H   0  0  0  0  0  0  0  0  0  0  0  0
   -1.3263    8.3786    0.8504 H   0  0  0  0  0  0  0  0  0  0  0  0
   -2.6539   10.4383    0.6501 H   0  0  0  0  0  0  0  0  0  0  0  0
   -2.7394   10.1677   -1.1560 H   0  0  0  0  0  0  0  0  0  0  0  0
   -3.6665    7.8938    0.4864 H   0  0  0  0  0  0  0  0  0  0  0  0
   -4.6585    9.4057    0.6182 H   0  0  0  0  0  0  0  0  0  0  0  0
   -3.6837    8.8619   -1.8574 H   0  0  0  0  0  0  0  0  0  0  0  0
   -5.7341    6.9617    0.5464 H   0  0  0  0  0  0  0  0  0  0  0  0
   -7.0013    6.2254   -0.4922 H   0  0  0  0  0  0  0  0  0  0  0  0
   -5.3363    5.5512   -0.4922 H   0  0  0  0  0  0  0  0  0  0  0  0
   -6.1529    5.8599   -2.8841 H   0  0  0  0  0  0  0  0  0  0  0  0
   -6.4682    7.5330   -3.4568 H   0  0  0  0  0  0  0  0  0  0  0  0
   -4.7931    6.8845   -3.4568 H   0  0  0  0  0  0  0  0  0  0  0  0
   -0.3350   10.4656    0.5951 H   0  0  0  0  0  0  0  0  0  0  0  0
    1.6137    9.0412    0.7165 H   0  0  0  0  0  0  0  0  0  0  0  0
    1.0400    8.0128   -0.6140 H   0  0  0  0  0  0  0  0  0  0  0  0
    3.0957    9.9882   -0.8087 H   0  0  0  0  0  0  0  0  0  0  0  0
    2.2907    9.2602   -2.1965 H   0  0  0  0  0  0  0  0  0  0  0  0
    1.5246   11.4977    0.6366 H   0  0  0  0  0  0  0  0  0  0  0  0
    2.8156   12.3063   -0.3153 H   0  0  0  0  0  0  0  0  0  0  0  0
    1.1479   12.9738   -0.3153 H   0  0  0  0  0  0  0  0  0  0  0  0
    1.5689   11.0888   -3.6095 H   0  0  0  0  0  0  0  0  0  0  0  0
    3.8244   11.5951   -2.4713 H   0  0  0  0  0  0  0  0  0  0  0  0
    3.3997   12.3210   -4.1089 H   0  0  0  0  0  0  0  0  0  0  0  0
    4.5866   13.9293   -2.3925 H   0  0  0  0  0  0  0  0  0  0  0  0
    0.6630   14.3061   -1.5232 H   0  0  0  0  0  0  0  0  0  0  0  0
    0.9891   15.7456   -4.2282 H   0  0  0  0  0  0  0  0  0  0  0  0
   -0.5491   15.5406   -3.2779 H   0  0  0  0  0  0  0  0  0  0  0  0
    0.4053   17.8107   -3.0369 H   0  0  0  0  0  0  0  0  0  0  0  0
    0.3459   16.9000   -1.4771 H   0  0  0  0  0  0  0  0  0  0  0  0
    2.4495   18.0467   -1.6195 H   0  0  0  0  0  0  0  0  0  0  0  0
    2.1990   17.5150   -4.2040 H   0  0  0  0  0  0  0  0  0  0  0  0
    3.4769   16.0424    0.5515 H   0  0  0  0  0  0  0  0  0  0  0  0
    1.8768   16.7328    0.1157 H   0  0  0  0  0  0  0  0  0  0  0  0
    2.1170   14.9526    0.1157 H   0  0  0  0  0  0  0  0  0  0  0  0
    4.9101   16.3245   -0.5397 H   0  0  0  0  0  0  0  0  0  0  0  0
    5.0718   15.4411   -2.0953 H   0  0  0  0  0  0  0  0  0  0  0  0
    4.7503   17.2083   -2.0953 H   0  0  0  0  0  0  0  0  0  0  0  0
    1.2807   14.2225   -5.0160 H   0  0  0  0  0  0  0  0  0  0  0  0
    1.4459   12.4450   -5.2150 H   0  0  0  0  0  0  0  0  0  0  0  0
   -0.1834   13.2011   -5.2150 H   0  0  0  0  0  0  0  0  0  0  0  0
   -1.3064   13.6640   -2.8202 H   0  0  0  0  0  0  0  0  0  0  0  0
   -1.0863   12.0689   -3.7379 H   0  0  0  0  0  0  0  0  0  0  0  0
   -0.8278   12.5362   -0.7548 H   0  0  0  0  0  0  0  0  0  0  0  0
   -2.0624   11.5579   -1.6411 H   0  0  0  0  0  0  0  0  0  0  0  0
   -0.8199    8.7817   -2.4183 H   0  0  0  0  0  0  0  0  0  0  0  0
   -1.2305   10.2308   -3.3973 H   0  0  0  0  0  0  0  0  0  0  0  0
    0.4488    9.5933   -3.3973 H   0  0  0  0  0  0  0  0  0  0  0  0
  1  2  1  0
  2  3  1  0
  3  4  1  0
  4  5  1  0
  5  6  1  0
  6  7  1  0
  7  8  1  0
  7  9  1  0
  2 10  1  0
 10 11  1  0
 11 12  1  0
 12 13  1  0
 13 14  1  1
 13 15  1  0
 15 16  1  0
 16 17  1  0
 17 18  2  0
 18 19  1  0
 19 20  1  0
 20 21  1  0
 21 22  1  0
 22 23  1  0
 22 24  1  0
 24 25  1  0
 24 26  1  0
 19 27  1  0
 27 28  1  6
 27 29  1  0
 29 30  1  0
 30 31  1  0
 31 32  1  6
  7  5  1  0
 31 10  1  0
 31 13  1  0
 27 15  1  0
 24 18  1  0
  1 33  1  0
  1 34  1  0
  1 35  1  0
  2 36  1  1
  3 37  1  0
  3 38  1  0
  4 39  1  0
  4 40  1  0
  5 41  1  6
  8 42  1  0
  8 43  1  0
  8 44  1  0
  9 45  1  0
  9 46  1  0
  9 47  1  0
 10 48  1  1
 11 49  1  0
 11 50  1  0
 12 51  1  0
 12 52  1  0
 14 53  1  0
 14 54  1  0
 14 55  1  0
 15 56  1  6
 16 57  1  0
 16 58  1  0
 17 59  1  0
 19 60  1  1
 20 61  1  0
 20 62  1  0
 21 63  1  0
 21 64  1  0
 22 65  1  1
 23 66  1  0
 25 67  1  0
 25 68  1  0
 25 69  1  0
 26 70  1  0
 26 71  1  0
 26 72  1  0
 28 73  1  0
 28 74  1  0
 28 75  1  0
 29 76  1  0
 29 77  1  0
 30 78  1  0
 30 79  1  0
 32 80  1  0
 32 81  1  0
 32 82  1  0
M  END
>  <meeko>  (7) 
{"is_sidechain": [false], "intermolecular_energy": 2.731, "internal_energy": -0.839}

$$$$
EPH_relaxed_0001_pdb2pqr_Repair_327_r2_0001_out
     RDKit          3D

 82 86  0  0  0  0  0  0  0  0999 V2000
    0.1190   10.4180   -3.7340 C   0  0  0  0  0  0  0  0  0  0  0  0
    1.1420   10.2100   -2.6140 C   0  0  2  0  0  0  0  0  0  0  0  0
    0.8480    8.9430   -1.7860 C   0  0  0  0  0  0  0  0  0  0  0  0
    0.1780    9.2300   -0.4390 C   0  0  0  0  0  0  0  0  0  0  0  0
   -1.2470    8.7630   -0.4180 C   0  0  2  0  0  0  0  0  0  0  0  0
   -1.9190    8.8370   -1.6820 O   0  0  0  0  0  0  0  0  0  0  0  0
   -2.4320    9.6840   -0.6420 C   0  0  0  0  0  0  0  0  0  0  0  0
   -2.2450   11.1470   -0.9010 C   0  0  0  0  0  0  0  0  0  0  0  0
   -3.7720    9.2630   -0.1260 C   0  0  0  0  0  0  0  0  0  0  0  0
    1.1710   11.4320   -1.7030 C   0  0  1  0  0  0  0  0  0  0  0  0
    2.1330   11.2560   -0.4980 C   0  0  0  0  0  0  0  0  0  0  0  0
    2.7530   12.6490   -0.2140 C   0  0  0  0  0  0  0  0  0  0  0  0
    1.8900   13.6350   -1.0360 C   0  0  1  0  0  0  0  0  0  0  0  0
    0.6210   13.8820   -0.1620 C   0  0  0  0  0  0  0  0  0  0  0  0
    2.5780   14.9770   -1.4470 C   0  0  2  0  0  0  0  0  0  0  0  0
    3.0060   15.8770   -0.2750 C   0  0  0  0  0  0  0  0  0  0  0  0
    1.9830   16.8660    0.1770 C   0  0  0  0  0  0  0  0  0  0  0  0
    0.8820   17.2220   -0.5110 C   0  0  0  0  0  0  0  0  0  0  0  0
    0.6290   16.6840   -1.9250 C   0  0  1  0  0  0  0  0  0  0  0  0
    0.2050   17.8510   -2.8560 C   0  0  0  0  0  0  0  0  0  0  0  0
   -0.9840   18.6340   -2.3070 C   0  0  0  0  0  0  0  0  0  0  0  0
   -0.6720   19.2030   -0.9250 C   0  0  2  0  0  0  0  0  0  0  0  0
    0.3520   20.1940   -1.0550 O   0  0  0  0  0  0  0  0  0  0  0  0
   -0.2240   18.1200    0.0960 C   0  0  0  0  0  0  0  0  0  0  0  0
   -1.4310   17.2210    0.4640 C   0  0  0  0  0  0  0  0  0  0  0  0
    0.1950   18.8420    1.4050 C   0  0  0  0  0  0  0  0  0  0  0  0
    1.7910   15.7980   -2.5490 C   0  0  1  0  0  0  0  0  0  0  0  0
    2.8380   16.7130   -3.2540 C   0  0  0  0  0  0  0  0  0  0  0  0
    1.1870   14.8700   -3.6680 C   0  0  0  0  0  0  0  0  0  0  0  0
    0.6310   13.5060   -3.2150 C   0  0  0  0  0  0  0  0  0  0  0  0
    1.6390   12.7720   -2.3250 C   0  0  2  0  0  0  0  0  0  0  0  0
    2.9190   12.4890   -3.1850 C   0  0  0  0  0  0  0  0  0  0  0  0
   -0.8694   10.6190   -3.2951 H   0  0  0  0  0  0  0  0  0  0  0  0
    0.4247   11.2724   -4.3558 H   0  0  0  0  0  0  0  0  0  0  0  0
    0.0668    9.5121   -4.3558 H   0  0  0  0  0  0  0  0  0  0  0  0
    2.1261   10.0744   -3.0863 H   0  0  0  0  0  0  0  0  0  0  0  0
    0.1838    8.2912   -2.3725 H   0  0  0  0  0  0  0  0  0  0  0  0
    1.8165    8.4687   -1.5689 H   0  0  0  0  0  0  0  0  0  0  0  0
    0.7353    8.7103    0.3543 H   0  0  0  0  0  0  0  0  0  0  0  0
    0.1849   10.3180   -0.2774 H   0  0  0  0  0  0  0  0  0  0  0  0
   -1.0207    8.0301    0.3704 H   0  0  0  0  0  0  0  0  0  0  0  0
   -2.1765   11.6831    0.0570 H   0  0  0  0  0  0  0  0  0  0  0  0
   -1.3197   11.3024   -1.4751 H   0  0  0  0  0  0  0  0  0  0  0  0
   -3.1015   11.5301   -1.4751 H   0  0  0  0  0  0  0  0  0  0  0  0
   -3.7592    9.2670    0.9739 H   0  0  0  0  0  0  0  0  0  0  0  0
   -4.5402    9.9631   -0.4863 H   0  0  0  0  0  0  0  0  0  0  0  0
   -4.0017    8.2494   -0.4863 H   0  0  0  0  0  0  0  0  0  0  0  0
    0.1045   11.4914   -1.4402 H   0  0  0  0  0  0  0  0  0  0  0  0
    1.5766   10.9023    0.3825 H   0  0  0  0  0  0  0  0  0  0  0  0
    2.9138   10.5139   -0.7208 H   0  0  0  0  0  0  0  0  0  0  0  0
    2.6990   12.8867    0.8586 H   0  0  0  0  0  0  0  0  0  0  0  0
    3.8169   12.6961   -0.4894 H   0  0  0  0  0  0  0  0  0  0  0  0
    0.8930   13.8291    0.9025 H   0  0  0  0  0  0  0  0  0  0  0  0
    0.2094   14.8771   -0.3862 H   0  0  0  0  0  0  0  0  0  0  0  0
   -0.1338   13.1139   -0.3862 H   0  0  0  0  0  0  0  0  0  0  0  0
    3.5119   14.6299   -1.9131 H   0  0  0  0  0  0  0  0  0  0  0  0
    3.2524   15.2287    0.5788 H   0  0  0  0  0  0  0  0  0  0  0  0
    3.8589   16.4675   -0.6408 H   0  0  0  0  0  0  0  0  0  0  0  0
    2.1424   17.3442    1.1547 H   0  0  0  0  0  0  0  0  0  0  0  0
   -0.1959   15.9623   -1.8313 H   0  0  0  0  0  0  0  0  0  0  0  0
    1.0566   18.5376   -2.9712 H   0  0  0  0  0  0  0  0  0  0  0  0
   -0.0975   17.4164   -3.8202 H   0  0  0  0  0  0  0  0  0  0  0  0
   -1.2174   19.4618   -2.9928 H   0  0  0  0  0  0  0  0  0  0  0  0
   -1.8430   17.9524   -2.2201 H   0  0  0  0  0  0  0  0  0  0  0  0
   -1.6009   19.6409   -0.5309 H   0  0  0  0  0  0  0  0  0  0  0  0
    0.9720   19.8890   -1.7380 H   0  0  0  0  0  0  0  0  0  0  0  0
   -1.5191   17.1554    1.5585 H   0  0  0  0  0  0  0  0  0  0  0  0
   -2.3519   17.6550    0.0474 H   0  0  0  0  0  0  0  0  0  0  0  0
   -1.2789   16.2144    0.0474 H   0  0  0  0  0  0  0  0  0  0  0  0
   -0.1449   18.2562    2.2718 H   0  0  0  0  0  0  0  0  0  0  0  0
    1.2902   18.9399    1.4353 H   0  0  0  0  0  0  0  0  0  0  0  0
   -0.2634   19.8415    1.4353 H   0  0  0  0  0  0  0  0  0  0  0  0
    3.4374   17.2368   -2.4948 H   0  0  0  0  0  0  0  0  0  0  0  0
    3.4987   16.0976   -3.8823 H   0  0  0  0  0  0  0  0  0  0  0  0
    2.3167   17.4502   -3.8823 H   0  0  0  0  0  0  0  0  0  0  0  0
    0.3655   15.4208   -4.1494 H   0  0  0  0  0  0  0  0  0  0  0  0
    2.0321   14.6305   -4.3301 H   0  0  0  0  0  0  0  0  0  0  0  0
   -0.2988   13.6661   -2.6495 H   0  0  0  0  0  0  0  0  0  0  0  0
    0.4378   12.8919   -4.1069 H   0  0  0  0  0  0  0  0  0  0  0  0
    3.7738   12.3000   -2.5190 H   0  0  0  0  0  0  0  0  0  0  0  0
    2.7467   11.6073   -3.8197 H   0  0  0  0  0  0  0  0  0  0  0  0
    3.1345   13.3612   -3.8197 H   0  0  0  0  0  0  0  0  0  0  0  0
  1  2  1  0
  2  3  1  0
  3  4  1  0
  4  5  1  0
  5  6  1  0
  6  7  1  0
  7  8  1  0
  7  9  1  0
  2 10  1  0
 10 11  1  0
 11 12  1  0
 12 13  1  0
 13 14  1  1
 13 15  1  0
 15 16  1  0
 16 17  1  0
 17 18  2  0
 18 19  1  0
 19 20  1  0
 20 21  1  0
 21 22  1  0
 22 23  1  0
 22 24  1  0
 24 25  1  0
 24 26  1  0
 19 27  1  0
 27 28  1  6
 27 29  1  0
 29 30  1  0
 30 31  1  0
 31 32  1  6
  7  5  1  0
 31 10  1  0
 31 13  1  0
 27 15  1  0
 24 18  1  0
  1 33  1  0
  1 34  1  0
  1 35  1  0
  2 36  1  6
  3 37  1  0
  3 38  1  0
  4 39  1  0
  4 40  1  0
  5 41  1  1
  8 42  1  0
  8 43  1  0
  8 44  1  0
  9 45  1  0
  9 46  1  0
  9 47  1  0
 10 48  1  1
 11 49  1  0
 11 50  1  0
 12 51  1  0
 12 52  1  0
 14 53  1  0
 14 54  1  0
 14 55  1  0
 15 56  1  6
 16 57  1  0
 16 58  1  0
 17 59  1  0
 19 60  1  1
 20 61  1  0
 20 62  1  0
 21 63  1  0
 21 64  1  0
 22 65  1  1
 23 66  1  0
 25 67  1  0
 25 68  1  0
 25 69  1  0
 26 70  1  0
 26 71  1  0
 26 72  1  0
 28 73  1  0
 28 74  1  0
 28 75  1  0
 29 76  1  0
 29 77  1  0
 30 78  1  0
 30 79  1  0
 32 80  1  0
 32 81  1  0
 32 82  1  0
M  END
>  <meeko>  (8) 
{"is_sidechain": [false], "intermolecular_energy": 2.731, "internal_energy": -0.839}

$$$$
EPH_relaxed_0001_pdb2pqr_Repair_327_r2_0001_out
     RDKit          3D

 82 86  0  0  0  0  0  0  0  0999 V2000
    3.5630   17.1570   -1.0020 C   0  0  0  0  0  0  0  0  0  0  0  0
    2.6240   16.8260   -2.1660 C   0  0  2  0  0  0  0  0  0  0  0  0
    1.2160   17.4190   -1.9630 C   0  0  0  0  0  0  0  0  0  0  0  0
    0.9870   17.9980   -0.5640 C   0  0  0  0  0  0  0  0  0  0  0  0
   -0.0510   19.0790   -0.5740 C   0  0  2  0  0  0  0  0  0  0  0  0
   -0.2930   19.6880    0.7010 O   0  0  0  0  0  0  0  0  0  0  0  0
   -1.3910   18.9590    0.1280 C   0  0  0  0  0  0  0  0  0  0  0  0
   -1.7660   17.7250    0.8880 C   0  0  0  0  0  0  0  0  0  0  0  0
   -2.5190   19.8290   -0.3310 C   0  0  0  0  0  0  0  0  0  0  0  0
    2.5310   15.3150   -2.3450 C   0  0  1  0  0  0  0  0  0  0  0  0
    3.8970   14.6710   -2.7060 C   0  0  0  0  0  0  0  0  0  0  0  0
    3.9290   13.2790   -2.0240 C   0  0  0  0  0  0  0  0  0  0  0  0
    2.4700   13.0300   -1.5770 C   0  0  1  0  0  0  0  0  0  0  0  0
    1.7380   12.5240   -2.8590 C   0  0  0  0  0  0  0  0  0  0  0  0
    2.2730   12.0480   -0.3750 C   0  0  2  0  0  0  0  0  0  0  0  0
    2.7480   10.6060   -0.6260 C   0  0  0  0  0  0  0  0  0  0  0  0
    1.7160    9.6830   -1.1850 C   0  0  0  0  0  0  0  0  0  0  0  0
    0.3900    9.9150   -1.2090 C   0  0  0  0  0  0  0  0  0  0  0  0
   -0.2030   11.1650   -0.5470 C   0  0  1  0  0  0  0  0  0  0  0  0
   -1.4360   10.7650    0.3050 C   0  0  0  0  0  0  0  0  0  0  0  0
   -2.4720    9.9820   -0.4970 C   0  0  0  0  0  0  0  0  0  0  0  0
   -1.8590    8.7160   -1.0910 C   0  0  2  0  0  0  0  0  0  0  0  0
   -1.5180    7.8250   -0.0240 O   0  0  0  0  0  0  0  0  0  0  0  0
   -0.6020    8.9950   -1.9620 C   0  0  0  0  0  0  0  0  0  0  0  0
   -1.0230    9.7040   -3.2730 C   0  0  0  0  0  0  0  0  0  0  0  0
   -0.0000    7.6270   -2.3820 C   0  0  0  0  0  0  0  0  0  0  0  0
    0.8220   12.0780    0.2550 C   0  0  1  0  0  0  0  0  0  0  0  0
    0.9620   11.5600    1.7190 C   0  0  0  0  0  0  0  0  0  0  0  0
    0.2420   13.5380    0.3540 C   0  0  0  0  0  0  0  0  0  0  0  0
    0.5710   14.4960   -0.8070 C   0  0  0  0  0  0  0  0  0  0  0  0
    2.0700   14.4810   -1.1230 C   0  0  2  0  0  0  0  0  0  0  0  0
    2.8310   15.0060    0.1420 C   0  0  0  0  0  0  0  0  0  0  0  0
    3.0445   16.9742   -0.0492 H   0  0  0  0  0  0  0  0  0  0  0  0
    4.4580   16.5202   -1.0604 H   0  0  0  0  0  0  0  0  0  0  0  0
    3.8608   18.2143   -1.0604 H   0  0  0  0  0  0  0  0  0  0  0  0
    3.0473   17.2831   -3.0726 H   0  0  0  0  0  0  0  0  0  0  0  0
    1.0682   18.2224   -2.6997 H   0  0  0  0  0  0  0  0  0  0  0  0
    0.4989   16.5947   -2.0908 H   0  0  0  0  0  0  0  0  0  0  0  0
    0.6547   17.1911    0.1057 H   0  0  0  0  0  0  0  0  0  0  0  0
    1.9340   18.4355   -0.2150 H   0  0  0  0  0  0  0  0  0  0  0  0
    0.2207   19.3630   -1.6014 H   0  0  0  0  0  0  0  0  0  0  0  0
   -1.7048   17.9265    1.9676 H   0  0  0  0  0  0  0  0  0  0  0  0
   -2.7937   17.4320    0.6274 H   0  0  0  0  0  0  0  0  0  0  0  0
   -1.0751   16.9097    0.6274 H   0  0  0  0  0  0  0  0  0  0  0  0
   -3.0472   20.2364    0.5437 H   0  0  0  0  0  0  0  0  0  0  0  0
   -2.1209   20.6562   -0.9370 H   0  0  0  0  0  0  0  0  0  0  0  0
   -3.2179   19.2338   -0.9370 H   0  0  0  0  0  0  0  0  0  0  0  0
    1.7719   15.2698   -3.1398 H   0  0  0  0  0  0  0  0  0  0  0  0
    3.9874   14.5607   -3.7967 H   0  0  0  0  0  0  0  0  0  0  0  0
    4.7327   15.2985   -2.3627 H   0  0  0  0  0  0  0  0  0  0  0  0
    4.2546   12.5056   -2.7352 H   0  0  0  0  0  0  0  0  0  0  0  0
    4.6352   13.2435   -1.1814 H   0  0  0  0  0  0  0  0  0  0  0  0
    0.8652   11.9207   -2.5688 H   0  0  0  0  0  0  0  0  0  0  0  0
    1.4057   13.3861   -3.4559 H   0  0  0  0  0  0  0  0  0  0  0  0
    2.4271   11.9085   -3.4559 H   0  0  0  0  0  0  0  0  0  0  0  0
    2.9574   12.4600    0.3812 H   0  0  0  0  0  0  0  0  0  0  0  0
    3.5895   10.6436   -1.3335 H   0  0  0  0  0  0  0  0  0  0  0  0
    3.0189   10.1989    0.3593 H   0  0  0  0  0  0  0  0  0  0  0  0
    2.0689    8.7333   -1.6134 H   0  0  0  0  0  0  0  0  0  0  0  0
   -0.5158   11.8245   -1.3699 H   0  0  0  0  0  0  0  0  0  0  0  0
   -1.0966   10.1422    1.1458 H   0  0  0  0  0  0  0  0  0  0  0  0
   -1.9149   11.6914    0.6550 H   0  0  0  0  0  0  0  0  0  0  0  0
   -3.3041    9.7023    0.1658 H   0  0  0  0  0  0  0  0  0  0  0  0
   -2.8324   10.6170   -1.3197 H   0  0  0  0  0  0  0  0  0  0  0  0
   -2.6093    8.2671   -1.7585 H   0  0  0  0  0  0  0  0  0  0  0  0
   -1.6110    8.3160    0.8100 H   0  0  0  0  0  0  0  0  0  0  0  0
   -1.5709   10.6267   -3.0312 H   0  0  0  0  0  0  0  0  0  0  0  0
   -0.1263    9.9530   -3.8595 H   0  0  0  0  0  0  0  0  0  0  0  0
   -1.6708    9.0359   -3.8595 H   0  0  0  0  0  0  0  0  0  0  0  0
    0.2552    7.0471   -1.4828 H   0  0  0  0  0  0  0  0  0  0  0  0
   -0.7364    7.0705   -2.9804 H   0  0  0  0  0  0  0  0  0  0  0  0
    0.9077    7.7941   -2.9804 H   0  0  0  0  0  0  0  0  0  0  0  0
    0.7409   12.3782    2.4202 H   0  0  0  0  0  0  0  0  0  0  0  0
    0.2549   10.7338    1.8848 H   0  0  0  0  0  0  0  0  0  0  0  0
    1.9890   11.2025    1.8848 H   0  0  0  0  0  0  0  0  0  0  0  0
   -0.8531   13.4574    0.4189 H   0  0  0  0  0  0  0  0  0  0  0  0
    0.7247   13.9803    1.2380 H   0  0  0  0  0  0  0  0  0  0  0  0
    0.0117   14.1831   -1.7011 H   0  0  0  0  0  0  0  0  0  0  0  0
    0.2853   15.5163   -0.5113 H   0  0  0  0  0  0  0  0  0  0  0  0
    2.3199   14.6534    1.0500 H   0  0  0  0  0  0  0  0  0  0  0  0
    3.8637   14.6273    0.1321 H   0  0  0  0  0  0  0  0  0  0  0  0
    2.8437   16.1059    0.1321 H   0  0  0  0  0  0  0  0  0  0  0  0
  1  2  1  0
  2  3  1  0
  3  4  1  0
  4  5  1  0
  5  6  1  0
  6  7  1  0
  7  8  1  0
  7  9  1  0
  2 10  1  0
 10 11  1  0
 11 12  1  0
 12 13  1  0
 13 14  1  6
 13 15  1  0
 15 16  1  0
 16 17  1  0
 17 18  2  0
 18 19  1  0
 19 20  1  0
 20 21  1  0
 21 22  1  0
 22 23  1  0
 22 24  1  0
 24 25  1  0
 24 26  1  0
 19 27  1  0
 27 28  1  1
 27 29  1  0
 29 30  1  0
 30 31  1  0
 31 32  1  1
  7  5  1  0
 31 10  1  0
 31 13  1  0
 27 15  1  0
 24 18  1  0
  1 33  1  0
  1 34  1  0
  1 35  1  0
  2 36  1  6
  3 37  1  0
  3 38  1  0
  4 39  1  0
  4 40  1  0
  5 41  1  6
  8 42  1  0
  8 43  1  0
  8 44  1  0
  9 45  1  0
  9 46  1  0
  9 47  1  0
 10 48  1  6
 11 49  1  0
 11 50  1  0
 12 51  1  0
 12 52  1  0
 14 53  1  0
 14 54  1  0
 14 55  1  0
 15 56  1  1
 16 57  1  0
 16 58  1  0
 17 59  1  0
 19 60  1  6
 20 61  1  0
 20 62  1  0
 21 63  1  0
 21 64  1  0
 22 65  1  6
 23 66  1  0
 25 67  1  0
 25 68  1  0
 25 69  1  0
 26 70  1  0
 26 71  1  0
 26 72  1  0
 28 73  1  0
 28 74  1  0
 28 75  1  0
 29 76  1  0
 29 77  1  0
 30 78  1  0
 30 79  1  0
 32 80  1  0
 32 81  1  0
 32 82  1  0
M  END
>  <meeko>  (9) 
{"is_sidechain": [false], "intermolecular_energy": 2.731, "internal_energy": -0.839}

$$$$
EPH_relaxed_0001_pdb2pqr_Repair_327_r2_0001_out
     RDKit          3D

 82 86  0  0  0  0  0  0  0  0999 V2000
   -5.1880    5.8720   -1.5410 C   0  0  0  0  0  0  0  0  0  0  0  0
   -5.4400    7.3690   -1.7430 C   0  0  2  0  0  0  0  0  0  0  0  0
   -5.1780    8.1800   -0.4580 C   0  0  0  0  0  0  0  0  0  0  0  0
   -4.2030    9.3440   -0.6520 C   0  0  0  0  0  0  0  0  0  0  0  0
   -2.7860    8.9280   -0.4010 C   0  0  2  0  0  0  0  0  0  0  0  0
   -2.1380    9.6260    0.6710 O   0  0  0  0  0  0  0  0  0  0  0  0
   -1.5930    9.8340   -0.6420 C   0  0  0  0  0  0  0  0  0  0  0  0
   -1.7630   11.2280   -1.1580 C   0  0  0  0  0  0  0  0  0  0  0  0
   -0.2480    9.2080   -0.8420 C   0  0  0  0  0  0  0  0  0  0  0  0
   -6.8700    7.5950   -2.2190 C   0  0  1  0  0  0  0  0  0  0  0  0
   -7.1640    6.9020   -3.5760 C   0  0  0  0  0  0  0  0  0  0  0  0
   -8.6400    6.4280   -3.5260 C   0  0  0  0  0  0  0  0  0  0  0  0
   -9.2380    7.1480   -2.2940 C   0  0  1  0  0  0  0  0  0  0  0  0
   -9.5850    8.5840   -2.7980 C   0  0  0  0  0  0  0  0  0  0  0  0
  -10.4710    6.4580   -1.6230 C   0  0  2  0  0  0  0  0  0  0  0  0
  -11.7160    6.3340   -2.5180 C   0  0  0  0  0  0  0  0  0  0  0  0
  -12.6710    7.4790   -2.4440 C   0  0  0  0  0  0  0  0  0  0  0  0
  -12.6840    8.4260   -1.4880 C   0  0  0  0  0  0  0  0  0  0  0  0
  -11.7310    8.3480   -0.2880 C   0  0  1  0  0  0  0  0  0  0  0  0
  -12.5190    8.6250    1.0190 C   0  0  0  0  0  0  0  0  0  0  0  0
  -13.2890    9.9410    0.9700 C   0  0  0  0  0  0  0  0  0  0  0  0
  -14.2680    9.9580   -0.2010 C   0  0  2  0  0  0  0  0  0  0  0  0
  -15.2870    8.9820    0.0360 O   0  0  0  0  0  0  0  0  0  0  0  0
  -13.5880    9.6810   -1.5710 C   0  0  0  0  0  0  0  0  0  0  0  0
  -12.7060   10.8900   -1.9690 C   0  0  0  0  0  0  0  0  0  0  0  0
  -14.7040    9.5850   -2.6470 C   0  0  0  0  0  0  0  0  0  0  0  0
  -10.8390    7.0360   -0.1970 C   0  0  1  0  0  0  0  0  0  0  0  0
  -11.6200    5.9120    0.5510 C   0  0  0  0  0  0  0  0  0  0  0  0
   -9.5620    7.3420    0.6730 C   0  0  0  0  0  0  0  0  0  0  0  0
   -8.3370    7.9100   -0.0680 C   0  0  0  0  0  0  0  0  0  0  0  0
   -8.0130    7.0760   -1.3120 C   0  0  2  0  0  0  0  0  0  0  0  0
   -7.6390    5.6310   -0.8350 C   0  0  0  0  0  0  0  0  0  0  0  0
   -5.1504    5.6485   -0.4646 H   0  0  0  0  0  0  0  0  0  0  0  0
   -6.0020    5.2970   -2.0067 H   0  0  0  0  0  0  0  0  0  0  0  0
   -4.2306    5.5952   -2.0067 H   0  0  0  0  0  0  0  0  0  0  0  0
   -4.7331    7.7240   -2.5074 H   0  0  0  0  0  0  0  0  0  0  0  0
   -6.1365    8.5857   -0.1021 H   0  0  0  0  0  0  0  0  0  0  0  0
   -4.7175    7.4928    0.2671 H   0  0  0  0  0  0  0  0  0  0  0  0
   -4.2887    9.7123   -1.6850 H   0  0  0  0  0  0  0  0  0  0  0  0
   -4.4619   10.1320    0.0705 H   0  0  0  0  0  0  0  0  0  0  0  0
   -3.0069    7.8985   -0.7194 H   0  0  0  0  0  0  0  0  0  0  0  0
   -1.8480   11.9247   -0.3110 H   0  0  0  0  0  0  0  0  0  0  0  0
   -0.8915   11.5008   -1.7712 H   0  0  0  0  0  0  0  0  0  0  0  0
   -2.6746   11.2834   -1.7712 H   0  0  0  0  0  0  0  0  0  0  0  0
    0.2071    8.9962    0.1368 H   0  0  0  0  0  0  0  0  0  0  0  0
   -0.3603    8.2696   -1.4049 H   0  0  0  0  0  0  0  0  0  0  0  0
    0.3976    9.8982   -1.4049 H   0  0  0  0  0  0  0  0  0  0  0  0
   -6.8828    8.6946   -2.2468 H   0  0  0  0  0  0  0  0  0  0  0  0
   -7.0224    7.6133   -4.4031 H   0  0  0  0  0  0  0  0  0  0  0  0
   -6.4826    6.0547   -3.7425 H   0  0  0  0  0  0  0  0  0  0  0  0
   -9.1730    6.7195   -4.4430 H   0  0  0  0  0  0  0  0  0  0  0  0
   -8.7251    5.3338   -3.4524 H   0  0  0  0  0  0  0  0  0  0  0  0
   -9.7452    9.2468   -1.9348 H   0  0  0  0  0  0  0  0  0  0  0  0
   -8.7542    8.9695   -3.4072 H   0  0  0  0  0  0  0  0  0  0  0  0
  -10.5002    8.5476   -3.4072 H   0  0  0  0  0  0  0  0  0  0  0  0
  -10.1117    5.4299   -1.4680 H   0  0  0  0  0  0  0  0  0  0  0  0
  -11.3773    6.2407   -3.5604 H   0  0  0  0  0  0  0  0  0  0  0  0
  -12.2666    5.4544   -2.1533 H   0  0  0  0  0  0  0  0  0  0  0  0
  -13.4282    7.5551   -3.2382 H   0  0  0  0  0  0  0  0  0  0  0  0
  -10.9800    9.1365   -0.4438 H   0  0  0  0  0  0  0  0  0  0  0  0
  -13.2333    7.8043    1.1807 H   0  0  0  0  0  0  0  0  0  0  0  0
  -11.7901    8.6950    1.8399 H   0  0  0  0  0  0  0  0  0  0  0  0
  -13.8487   10.0656    1.9087 H   0  0  0  0  0  0  0  0  0  0  0  0
  -12.5702   10.7632    0.8382 H   0  0  0  0  0  0  0  0  0  0  0  0
  -14.6939   10.9704   -0.2607 H   0  0  0  0  0  0  0  0  0  0  0  0
  -15.1140    8.2270   -0.5500 H   0  0  0  0  0  0  0  0  0  0  0  0
  -12.3401   11.3916   -1.0610 H   0  0  0  0  0  0  0  0  0  0  0  0
  -11.8501   10.5393   -2.5644 H   0  0  0  0  0  0  0  0  0  0  0  0
  -13.3013   11.5979   -2.5644 H   0  0  0  0  0  0  0  0  0  0  0  0
  -15.6833    9.5008   -2.1531 H   0  0  0  0  0  0  0  0  0  0  0  0
  -14.6865   10.4880   -3.2750 H   0  0  0  0  0  0  0  0  0  0  0  0
  -14.5326    8.6983   -3.2750 H   0  0  0  0  0  0  0  0  0  0  0  0
  -11.5198    6.0562    1.6369 H   0  0  0  0  0  0  0  0  0  0  0  0
  -12.6831    5.9560    0.2718 H   0  0  0  0  0  0  0  0  0  0  0  0
  -11.2079    4.9311    0.2718 H   0  0  0  0  0  0  0  0  0  0  0  0
   -9.8517    8.0706    1.4445 H   0  0  0  0  0  0  0  0  0  0  0  0
   -9.2368    6.3653    1.0605 H   0  0  0  0  0  0  0  0  0  0  0  0
   -8.5496    8.9450   -0.3740 H   0  0  0  0  0  0  0  0  0  0  0  0
   -7.4715    7.8790    0.6102 H   0  0  0  0  0  0  0  0  0  0  0  0
   -7.6306    5.5985    0.2645 H   0  0  0  0  0  0  0  0  0  0  0  0
   -8.3814    4.9150   -1.2173 H   0  0  0  0  0  0  0  0  0  0  0  0
   -6.6424    5.3651   -1.2173 H   0  0  0  0  0  0  0  0  0  0  0  0
  1  2  1  0
  2  3  1  0
  3  4  1  0
  4  5  1  0
  5  6  1  0
  6  7  1  0
  7  8  1  0
  7  9  1  0
  2 10  1  0
 10 11  1  0
 11 12  1  0
 12 13  1  0
 13 14  1  6
 13 15  1  0
 15 16  1  0
 16 17  1  0
 17 18  2  0
 18 19  1  0
 19 20  1  0
 20 21  1  0
 21 22  1  0
 22 23  1  0
 22 24  1  0
 24 25  1  0
 24 26  1  0
 19 27  1  0
 27 28  1  1
 27 29  1  0
 29 30  1  0
 30 31  1  0
 31 32  1  1
  7  5  1  0
 31 10  1  0
 31 13  1  0
 27 15  1  0
 24 18  1  0
  1 33  1  0
  1 34  1  0
  1 35  1  0
  2 36  1  6
  3 37  1  0
  3 38  1  0
  4 39  1  0
  4 40  1  0
  5 41  1  1
  8 42  1  0
  8 43  1  0
  8 44  1  0
  9 45  1  0
  9 46  1  0
  9 47  1  0
 10 48  1  6
 11 49  1  0
 11 50  1  0
 12 51  1  0
 12 52  1  0
 14 53  1  0
 14 54  1  0
 14 55  1  0
 15 56  1  1
 16 57  1  0
 16 58  1  0
 17 59  1  0
 19 60  1  6
 20 61  1  0
 20 62  1  0
 21 63  1  0
 21 64  1  0
 22 65  1  6
 23 66  1  0
 25 67  1  0
 25 68  1  0
 25 69  1  0
 26 70  1  0
 26 71  1  0
 26 72  1  0
 28 73  1  0
 28 74  1  0
 28 75  1  0
 29 76  1  0
 29 77  1  0
 30 78  1  0
 30 79  1  0
 32 80  1  0
 32 81  1  0
 32 82  1  0
M  END
>  <meeko>  (10) 
{"is_sidechain": [false], "intermolecular_energy": 2.731, "internal_energy": -0.839}

$$$$
EPH_relaxed_0001_pdb2pqr_Repair_327_r2_0001_out
     RDKit          3D

 82 86  0  0  0  0  0  0  0  0999 V2000
   -1.3310   10.4370    1.6600 C   0  0  0  0  0  0  0  0  0  0  0  0
   -1.9660   10.1360    0.2990 C   0  0  2  0  0  0  0  0  0  0  0  0
   -2.7700    8.8200    0.3120 C   0  0  0  0  0  0  0  0  0  0  0  0
   -4.1360    8.9270   -0.3720 C   0  0  0  0  0  0  0  0  0  0  0  0
   -4.6500    7.5840   -0.7940 C   0  0  2  0  0  0  0  0  0  0  0  0
   -4.8020    7.4180   -2.2090 O   0  0  0  0  0  0  0  0  0  0  0  0
   -6.0100    7.3720   -1.4330 C   0  0  0  0  0  0  0  0  0  0  0  0
   -6.9400    8.5170   -1.6860 C   0  0  0  0  0  0  0  0  0  0  0  0
   -6.6300    6.0110   -1.3630 C   0  0  0  0  0  0  0  0  0  0  0  0
   -0.8880   10.0770   -0.7760 C   0  0  1  0  0  0  0  0  0  0  0  0
   -1.3010    9.2020   -1.9890 C   0  0  0  0  0  0  0  0  0  0  0  0
   -0.6870    9.8640   -3.2490 C   0  0  0  0  0  0  0  0  0  0  0  0
    0.3230   10.8960   -2.6940 C   0  0  1  0  0  0  0  0  0  0  0  0
    1.6000   10.0650   -2.3550 C   0  0  0  0  0  0  0  0  0  0  0  0
    0.6530   12.1080   -3.6240 C   0  0  2  0  0  0  0  0  0  0  0  0
    1.3210   11.7420   -4.9620 C   0  0  0  0  0  0  0  0  0  0  0  0
    2.8130   11.7110   -4.9420 C   0  0  0  0  0  0  0  0  0  0  0  0
    3.5940   12.2390   -3.9810 C   0  0  0  0  0  0  0  0  0  0  0  0
    2.9840   13.0360   -2.8200 C   0  0  1  0  0  0  0  0  0  0  0  0
    3.7910   14.3450   -2.6110 C   0  0  0  0  0  0  0  0  0  0  0  0
    5.2830   14.0890   -2.4230 C   0  0  0  0  0  0  0  0  0  0  0  0
    5.8640   13.3460   -3.6230 C   0  0  2  0  0  0  0  0  0  0  0  0
    5.8130   14.2060   -4.7660 O   0  0  0  0  0  0  0  0  0  0  0  0
    5.1260   12.0150   -3.9370 C   0  0  0  0  0  0  0  0  0  0  0  0
    5.4330   10.9760   -2.8310 C   0  0  0  0  0  0  0  0  0  0  0  0
    5.7180   11.4390   -5.2510 C   0  0  0  0  0  0  0  0  0  0  0  0
    1.4180   13.2910   -2.9010 C   0  0  1  0  0  0  0  0  0  0  0  0
    1.1300   14.5800   -3.7310 C   0  0  0  0  0  0  0  0  0  0  0  0
    0.8650   13.5620   -1.4520 C   0  0  0  0  0  0  0  0  0  0  0  0
    0.4440   12.3320   -0.6270 C   0  0  0  0  0  0  0  0  0  0  0  0
   -0.4730   11.4140   -1.4410 C   0  0  2  0  0  0  0  0  0  0  0  0
   -1.7760   12.2160   -1.7780 C   0  0  0  0  0  0  0  0  0  0  0  0
   -2.0117   10.1143    2.4616 H   0  0  0  0  0  0  0  0  0  0  0  0
   -0.3779    9.8948    1.7479 H   0  0  0  0  0  0  0  0  0  0  0  0
   -1.1473   11.5180    1.7479 H   0  0  0  0  0  0  0  0  0  0  0  0
   -2.6700   10.9510    0.0748 H   0  0  0  0  0  0  0  0  0  0  0  0
   -2.1816    8.0483   -0.2060 H   0  0  0  0  0  0  0  0  0  0  0  0
   -2.9570    8.5676    1.3662 H   0  0  0  0  0  0  0  0  0  0  0  0
   -4.8522    9.3785    0.3303 H   0  0  0  0  0  0  0  0  0  0  0  0
   -4.0217    9.5492   -1.2719 H   0  0  0  0  0  0  0  0  0  0  0  0
   -4.1514    7.0995    0.0584 H   0  0  0  0  0  0  0  0  0  0  0  0
   -7.2784    8.9336   -0.7258 H   0  0  0  0  0  0  0  0  0  0  0  0
   -6.4154    9.2957   -2.2591 H   0  0  0  0  0  0  0  0  0  0  0  0
   -7.8097    8.1632   -2.2591 H   0  0  0  0  0  0  0  0  0  0  0  0
   -6.7617    5.7218   -0.3099 H   0  0  0  0  0  0  0  0  0  0  0  0
   -7.6092    6.0280   -1.8638 H   0  0  0  0  0  0  0  0  0  0  0  0
   -5.9746    5.2833   -1.8638 H   0  0  0  0  0  0  0  0  0  0  0  0
   -0.0543    9.6784   -0.1793 H   0  0  0  0  0  0  0  0  0  0  0  0
   -0.9104    8.1806   -1.8695 H   0  0  0  0  0  0  0  0  0  0  0  0
   -2.3958    9.1348   -2.0724 H   0  0  0  0  0  0  0  0  0  0  0  0
   -0.1749    9.1150   -3.8708 H   0  0  0  0  0  0  0  0  0  0  0  0
   -1.4503   10.3299   -3.8896 H   0  0  0  0  0  0  0  0  0  0  0  0
    1.7112    9.9926   -1.2630 H   0  0  0  0  0  0  0  0  0  0  0  0
    1.5045    9.0556   -2.7815 H   0  0  0  0  0  0  0  0  0  0  0  0
    2.4843   10.5611   -2.7815 H   0  0  0  0  0  0  0  0  0  0  0  0
   -0.3474   12.4852   -3.8828 H   0  0  0  0  0  0  0  0  0  0  0  0
    0.9642   10.7446   -5.2584 H   0  0  0  0  0  0  0  0  0  0  0  0
    1.0425   12.5375   -5.6689 H   0  0  0  0  0  0  0  0  0  0  0  0
    3.3174   11.2145   -5.7841 H   0  0  0  0  0  0  0  0  0  0  0  0
    3.0742   12.3952   -1.9305 H   0  0  0  0  0  0  0  0  0  0  0  0
    3.6521   14.9893   -3.4917 H   0  0  0  0  0  0  0  0  0  0  0  0
    3.4167   14.8252   -1.6948 H   0  0  0  0  0  0  0  0  0  0  0  0
    5.8022   15.0522   -2.3100 H   0  0  0  0  0  0  0  0  0  0  0  0
    5.4227   13.4694   -1.5249 H   0  0  0  0  0  0  0  0  0  0  0  0
    6.9010   13.0771   -3.3735 H   0  0  0  0  0  0  0  0  0  0  0  0
    5.9330   13.6520   -5.5560 H   0  0  0  0  0  0  0  0  0  0  0  0
    5.2958   11.4404   -1.8433 H   0  0  0  0  0  0  0  0  0  0  0  0
    4.7493   10.1202   -2.9319 H   0  0  0  0  0  0  0  0  0  0  0  0
    6.4720   10.6292   -2.9319 H   0  0  0  0  0  0  0  0  0  0  0  0
    6.4872   10.6906   -5.0095 H   0  0  0  0  0  0  0  0  0  0  0  0
    4.9169   10.9653   -5.8374 H   0  0  0  0  0  0  0  0  0  0  0  0
    6.1695   12.2528   -5.8374 H   0  0  0  0  0  0  0  0  0  0  0  0
    0.9420   15.4215   -3.0480 H   0  0  0  0  0  0  0  0  0  0  0  0
    1.9990   14.8096   -4.3651 H   0  0  0  0  0  0  0  0  0  0  0  0
    0.2459   14.4179   -4.3651 H   0  0  0  0  0  0  0  0  0  0  0  0
    1.6508   14.0870   -0.8890 H   0  0  0  0  0  0  0  0  0  0  0  0
   -0.0600   14.1385   -1.6007 H   0  0  0  0  0  0  0  0  0  0  0  0
    1.3434   11.7719   -0.3313 H   0  0  0  0  0  0  0  0  0  0  0  0
   -0.1043   12.6768    0.2621 H   0  0  0  0  0  0  0  0  0  0  0  0
   -2.2709   12.5206   -0.8441 H   0  0  0  0  0  0  0  0  0  0  0  0
   -1.5152   13.1101   -2.3633 H   0  0  0  0  0  0  0  0  0  0  0  0
   -2.4567   11.5804   -2.3633 H   0  0  0  0  0  0  0  0  0  0  0  0
  1  2  1  0
  2  3  1  0
  3  4  1  0
  4  5  1  0
  5  6  1  0
  6  7  1  0
  7  8  1  0
  7  9  1  0
  2 10  1  0
 10 11  1  0
 11 12  1  0
 12 13  1  0
 13 14  1  1
 13 15  1  0
 15 16  1  0
 16 17  1  0
 17 18  2  0
 18 19  1  0
 19 20  1  0
 20 21  1  0
 21 22  1  0
 22 23  1  0
 22 24  1  0
 24 25  1  0
 24 26  1  0
 19 27  1  0
 27 28  1  6
 27 29  1  0
 29 30  1  0
 30 31  1  0
 31 32  1  6
  7  5  1  0
 31 10  1  0
 31 13  1  0
 27 15  1  0
 24 18  1  0
  1 33  1  0
  1 34  1  0
  1 35  1  0
  2 36  1  6
  3 37  1  0
  3 38  1  0
  4 39  1  0
  4 40  1  0
  5 41  1  1
  8 42  1  0
  8 43  1  0
  8 44  1  0
  9 45  1  0
  9 46  1  0
  9 47  1  0
 10 48  1  1
 11 49  1  0
 11 50  1  0
 12 51  1  0
 12 52  1  0
 14 53  1  0
 14 54  1  0
 14 55  1  0
 15 56  1  6
 16 57  1  0
 16 58  1  0
 17 59  1  0
 19 60  1  1
 20 61  1  0
 20 62  1  0
 21 63  1  0
 21 64  1  0
 22 65  1  1
 23 66  1  0
 25 67  1  0
 25 68  1  0
 25 69  1  0
 26 70  1  0
 26 71  1  0
 26 72  1  0
 28 73  1  0
 28 74  1  0
 28 75  1  0
 29 76  1  0
 29 77  1  0
 30 78  1  0
 30 79  1  0
 32 80  1  0
 32 81  1  0
 32 82  1  0
M  END
>  <meeko>  (11) 
{"is_sidechain": [false], "intermolecular_energy": 2.731, "internal_energy": -0.839}

$$$$
EPH_relaxed_0001_pdb2pqr_Repair_327_r2_0001_out
     RDKit          3D

 82 86  0  0  0  0  0  0  0  0999 V2000
    4.6420   16.8300   -1.5520 C   0  0  0  0  0  0  0  0  0  0  0  0
    4.7130   15.3020   -1.6170 C   0  0  2  0  0  0  0  0  0  0  0  0
    5.0650   14.7970   -3.0310 C   0  0  0  0  0  0  0  0  0  0  0  0
    6.0060   13.5900   -3.0370 C   0  0  0  0  0  0  0  0  0  0  0  0
    5.5830   12.5620   -4.0430 C   0  0  2  0  0  0  0  0  0  0  0  0
    5.1290   11.3250   -3.4790 O   0  0  0  0  0  0  0  0  0  0  0  0
    6.3260   11.2590   -4.2700 C   0  0  0  0  0  0  0  0  0  0  0  0
    7.5540   10.9140   -3.4870 C   0  0  0  0  0  0  0  0  0  0  0  0
    6.1470   10.5510   -5.5770 C   0  0  0  0  0  0  0  0  0  0  0  0
    3.3890   14.7000   -1.1630 C   0  0  1  0  0  0  0  0  0  0  0  0
    2.3870   15.7720   -0.6580 C   0  0  0  0  0  0  0  0  0  0  0  0
    0.9720   15.2910   -1.0690 C   0  0  0  0  0  0  0  0  0  0  0  0
    1.1690   13.8180   -1.4950 C   0  0  1  0  0  0  0  0  0  0  0  0
    1.1920   13.0130   -0.1580 C   0  0  0  0  0  0  0  0  0  0  0  0
    0.1170   13.2410   -2.4980 C   0  0  2  0  0  0  0  0  0  0  0  0
   -1.3290   13.1980   -1.9730 C   0  0  0  0  0  0  0  0  0  0  0  0
   -1.7170   11.9360   -1.2770 C   0  0  0  0  0  0  0  0  0  0  0  0
   -1.0380   10.7750   -1.3270 C   0  0  0  0  0  0  0  0  0  0  0  0
    0.1980   10.6230   -2.2220 C   0  0  1  0  0  0  0  0  0  0  0  0
    0.1050    9.2910   -3.0130 C   0  0  0  0  0  0  0  0  0  0  0  0
   -0.1090    8.0850   -2.1040 C   0  0  0  0  0  0  0  0  0  0  0  0
   -1.3780    8.2470   -1.2720 C   0  0  2  0  0  0  0  0  0  0  0  0
   -2.5100    8.2110   -2.1460 O   0  0  0  0  0  0  0  0  0  0  0  0
   -1.4020    9.5590   -0.4390 C   0  0  0  0  0  0  0  0  0  0  0  0
   -0.3650    9.4670    0.7080 C   0  0  0  0  0  0  0  0  0  0  0  0
   -2.7930    9.6680    0.2410 C   0  0  0  0  0  0  0  0  0  0  0  0
    0.5350   11.8640   -3.1560 C   0  0  1  0  0  0  0  0  0  0  0  0
   -0.2560   11.7520   -4.4950 C   0  0  0  0  0  0  0  0  0  0  0  0
    2.0620   11.8220   -3.5370 C   0  0  0  0  0  0  0  0  0  0  0  0
    3.0390   12.5120   -2.5660 C   0  0  0  0  0  0  0  0  0  0  0  0
    2.5610   13.9250   -2.2190 C   0  0  2  0  0  0  0  0  0  0  0  0
    2.5490   14.7650   -3.5420 C   0  0  0  0  0  0  0  0  0  0  0  0
    4.6270   17.1520   -0.5003 H   0  0  0  0  0  0  0  0  0  0  0  0
    5.5212   17.2596   -2.0545 H   0  0  0  0  0  0  0  0  0  0  0  0
    3.7268   17.1762   -2.0545 H   0  0  0  0  0  0  0  0  0  0  0  0
    5.5186   14.9790   -0.9412 H   0  0  0  0  0  0  0  0  0  0  0  0
    4.1324   14.5127   -3.5403 H   0  0  0  0  0  0  0  0  0  0  0  0
    5.5903   15.6165   -3.5434 H   0  0  0  0  0  0  0  0  0  0  0  0
    7.0224   13.9316   -3.2823 H   0  0  0  0  0  0  0  0  0  0  0  0
    5.9757   13.1267   -2.0398 H   0  0  0  0  0  0  0  0  0  0  0  0
    5.2390   13.3453   -4.7345 H   0  0  0  0  0  0  0  0  0  0  0  0
    7.3325   10.9762   -2.4113 H   0  0  0  0  0  0  0  0  0  0  0  0
    7.8731    9.8914   -3.7371 H   0  0  0  0  0  0  0  0  0  0  0  0
    8.3589   11.6208   -3.7371 H   0  0  0  0  0  0  0  0  0  0  0  0
    5.8812    9.4999   -5.3912 H   0  0  0  0  0  0  0  0  0  0  0  0
    5.3434   11.0366   -6.1500 H   0  0  0  0  0  0  0  0  0  0  0  0
    7.0849   10.5963   -6.1500 H   0  0  0  0  0  0  0  0  0  0  0  0
    3.7563   14.0082   -0.3907 H   0  0  0  0  0  0  0  0  0  0  0  0
    2.4522   15.8658    0.4361 H   0  0  0  0  0  0  0  0  0  0  0  0
    2.6107   16.7574   -1.0927 H   0  0  0  0  0  0  0  0  0  0  0  0
    0.2765   15.3598   -0.2195 H   0  0  0  0  0  0  0  0  0  0  0  0
    0.5407   15.9039   -1.8742 H   0  0  0  0  0  0  0  0  0  0  0  0
    1.1720   13.7119    0.6912 H   0  0  0  0  0  0  0  0  0  0  0  0
    0.3123   12.3542   -0.1115 H   0  0  0  0  0  0  0  0  0  0  0  0
    2.1079   12.4055   -0.1115 H   0  0  0  0  0  0  0  0  0  0  0  0
    0.1209   13.9918   -3.3019 H   0  0  0  0  0  0  0  0  0  0  0  0
   -1.4586   14.0301   -1.2654 H   0  0  0  0  0  0  0  0  0  0  0  0
   -1.9768   13.2685   -2.8592 H   0  0  0  0  0  0  0  0  0  0  0  0
   -2.6355   11.9565   -0.6721 H   0  0  0  0  0  0  0  0  0  0  0  0
    1.0627   10.5943   -1.5426 H   0  0  0  0  0  0  0  0  0  0  0  0
   -0.7383    9.3566   -3.7163 H   0  0  0  0  0  0  0  0  0  0  0  0
    1.0604    9.1475   -3.5390 H   0  0  0  0  0  0  0  0  0  0  0  0
   -0.1971    7.1794   -2.7222 H   0  0  0  0  0  0  0  0  0  0  0  0
    0.7499    8.0031   -1.4217 H   0  0  0  0  0  0  0  0  0  0  0  0
   -1.4069    7.4174   -0.5502 H   0  0  0  0  0  0  0  0  0  0  0  0
   -2.8520    9.1190   -2.2230 H   0  0  0  0  0  0  0  0  0  0  0  0
   -0.8845    9.5131    1.6765 H   0  0  0  0  0  0  0  0  0  0  0  0
    0.1836    8.5167    0.6310 H   0  0  0  0  0  0  0  0  0  0  0  0
    0.3423   10.3059    0.6310 H   0  0  0  0  0  0  0  0  0  0  0  0
   -2.6686    9.6583    1.3339 H   0  0  0  0  0  0  0  0  0  0  0  0
   -3.2779   10.6069   -0.0645 H   0  0  0  0  0  0  0  0  0  0  0  0
   -3.4182    8.8161   -0.0645 H   0  0  0  0  0  0  0  0  0  0  0  0
   -1.3238   11.6008   -4.2785 H   0  0  0  0  0  0  0  0  0  0  0  0
   -0.1270   12.6774   -5.0756 H   0  0  0  0  0  0  0  0  0  0  0  0
    0.1248   10.8988   -5.0756 H   0  0  0  0  0  0  0  0  0  0  0  0
    2.3575   10.7651   -3.6114 H   0  0  0  0  0  0  0  0  0  0  0  0
    2.1403   12.3895   -4.4760 H   0  0  0  0  0  0  0  0  0  0  0  0
    3.1076   11.9184   -1.6424 H   0  0  0  0  0  0  0  0  0  0  0  0
    4.0234   12.5842   -3.0515 H   0  0  0  0  0  0  0  0  0  0  0  0
    2.5337   15.8369   -3.2956 H   0  0  0  0  0  0  0  0  0  0  0  0
    3.4505   14.5367   -4.1295 H   0  0  0  0  0  0  0  0  0  0  0  0
    1.6544   14.5110   -4.1295 H   0  0  0  0  0  0  0  0  0  0  0  0
  1  2  1  0
  2  3  1  0
  3  4  1  0
  4  5  1  0
  5  6  1  0
  6  7  1  0
  7  8  1  0
  7  9  1  0
  2 10  1  0
 10 11  1  0
 11 12  1  0
 12 13  1  0
 13 14  1  1
 13 15  1  0
 15 16  1  0
 16 17  1  0
 17 18  2  0
 18 19  1  0
 19 20  1  0
 20 21  1  0
 21 22  1  0
 22 23  1  0
 22 24  1  0
 24 25  1  0
 24 26  1  0
 19 27  1  0
 27 28  1  6
 27 29  1  0
 29 30  1  0
 30 31  1  0
 31 32  1  6
  7  5  1  0
 31 10  1  0
 31 13  1  0
 27 15  1  0
 24 18  1  0
  1 33  1  0
  1 34  1  0
  1 35  1  0
  2 36  1  1
  3 37  1  0
  3 38  1  0
  4 39  1  0
  4 40  1  0
  5 41  1  6
  8 42  1  0
  8 43  1  0
  8 44  1  0
  9 45  1  0
  9 46  1  0
  9 47  1  0
 10 48  1  1
 11 49  1  0
 11 50  1  0
 12 51  1  0
 12 52  1  0
 14 53  1  0
 14 54  1  0
 14 55  1  0
 15 56  1  6
 16 57  1  0
 16 58  1  0
 17 59  1  0
 19 60  1  1
 20 61  1  0
 20 62  1  0
 21 63  1  0
 21 64  1  0
 22 65  1  1
 23 66  1  0
 25 67  1  0
 25 68  1  0
 25 69  1  0
 26 70  1  0
 26 71  1  0
 26 72  1  0
 28 73  1  0
 28 74  1  0
 28 75  1  0
 29 76  1  0
 29 77  1  0
 30 78  1  0
 30 79  1  0
 32 80  1  0
 32 81  1  0
 32 82  1  0
M  END
>  <meeko>  (12) 
{"is_sidechain": [false], "intermolecular_energy": 2.731, "internal_energy": -0.839}

$$$$
EPH_relaxed_0001_pdb2pqr_Repair_327_r2_0001_out
     RDKit          3D

 82 86  0  0  0  0  0  0  0  0999 V2000
    4.7290   16.9750   -2.6290 C   0  0  0  0  0  0  0  0  0  0  0  0
    3.3050   16.6220   -2.1910 C   0  0  2  0  0  0  0  0  0  0  0  0
    3.0190   17.0560   -0.7400 C   0  0  0  0  0  0  0  0  0  0  0  0
    4.1330   17.9050   -0.1210 C   0  0  0  0  0  0  0  0  0  0  0  0
    3.6650   18.6200    1.1110 C   0  0  2  0  0  0  0  0  0  0  0  0
    3.9500   20.0240    1.1330 O   0  0  0  0  0  0  0  0  0  0  0  0
    4.6070   19.2290    2.1330 C   0  0  0  0  0  0  0  0  0  0  0  0
    6.0930   19.1510    1.9690 C   0  0  0  0  0  0  0  0  0  0  0  0
    4.1000   19.4660    3.5210 C   0  0  0  0  0  0  0  0  0  0  0  0
    3.0720   15.1230   -2.3420 C   0  0  1  0  0  0  0  0  0  0  0  0
    4.3850   14.3370   -2.6010 C   0  0  0  0  0  0  0  0  0  0  0  0
    4.2350   12.9690   -1.8870 C   0  0  0  0  0  0  0  0  0  0  0  0
    2.7330   12.8780   -1.5290 C   0  0  1  0  0  0  0  0  0  0  0  0
    2.0340   12.4110   -2.8440 C   0  0  0  0  0  0  0  0  0  0  0  0
    2.3660   11.9560   -0.3210 C   0  0  2  0  0  0  0  0  0  0  0  0
    2.7070   10.4670   -0.5090 C   0  0  0  0  0  0  0  0  0  0  0  0
    1.6240    9.6360   -1.1110 C   0  0  0  0  0  0  0  0  0  0  0  0
    0.3320    9.9970   -1.2250 C   0  0  0  0  0  0  0  0  0  0  0  0
   -0.1720   11.3180   -0.6300 C   0  0  1  0  0  0  0  0  0  0  0  0
   -1.4890   11.0670    0.1500 C   0  0  0  0  0  0  0  0  0  0  0  0
   -2.5470   10.3680   -0.6990 C   0  0  0  0  0  0  0  0  0  0  0  0
   -2.0290    9.0310   -1.2240 C   0  0  2  0  0  0  0  0  0  0  0  0
   -1.8460    8.1420   -0.1180 O   0  0  0  0  0  0  0  0  0  0  0  0
   -0.7000    9.1580   -2.0190 C   0  0  0  0  0  0  0  0  0  0  0  0
   -0.9660    9.8680   -3.3690 C   0  0  0  0  0  0  0  0  0  0  0  0
   -0.2140    7.7260   -2.3690 C   0  0  0  0  0  0  0  0  0  0  0  0
    0.8890   12.1470    0.2150 C   0  0  1  0  0  0  0  0  0  0  0  0
    0.8860   11.6610    1.6960 C   0  0  0  0  0  0  0  0  0  0  0  0
    0.4540   13.6600    0.2430 C   0  0  0  0  0  0  0  0  0  0  0  0
    0.9480   14.5470   -0.9150 C   0  0  0  0  0  0  0  0  0  0  0  0
    2.4540   14.3740   -1.1340 C   0  0  2  0  0  0  0  0  0  0  0  0
    3.1850   14.8570    0.1650 C   0  0  0  0  0  0  0  0  0  0  0  0
    5.3580   17.1309   -1.7401 H   0  0  0  0  0  0  0  0  0  0  0  0
    5.1421   16.1521   -3.2308 H   0  0  0  0  0  0  0  0  0  0  0  0
    4.7099   17.8956   -3.2308 H   0  0  0  0  0  0  0  0  0  0  0  0
    2.6118   17.1740   -2.8428 H   0  0  0  0  0  0  0  0  0  0  0  0
    2.0887   17.6428   -0.7299 H   0  0  0  0  0  0  0  0  0  0  0  0
    2.9424   16.1380   -0.1388 H   0  0  0  0  0  0  0  0  0  0  0  0
    4.9749   17.2492    0.1455 H   0  0  0  0  0  0  0  0  0  0  0  0
    4.4401   18.6597   -0.8600 H   0  0  0  0  0  0  0  0  0  0  0  0
    2.8092   17.9362    1.2114 H   0  0  0  0  0  0  0  0  0  0  0  0
    6.5704   19.1259    2.9597 H   0  0  0  0  0  0  0  0  0  0  0  0
    6.3532   18.2380    1.4134 H   0  0  0  0  0  0  0  0  0  0  0  0
    6.4473   20.0318    1.4134 H   0  0  0  0  0  0  0  0  0  0  0  0
    4.8471   19.1167    4.2489 H   0  0  0  0  0  0  0  0  0  0  0  0
    3.9204   20.5414    3.6672 H   0  0  0  0  0  0  0  0  0  0  0  0
    3.1598   18.9141    3.6672 H   0  0  0  0  0  0  0  0  0  0  0  0
    2.3629   15.1306   -3.1829 H   0  0  0  0  0  0  0  0  0  0  0  0
    4.5299   14.1868   -3.6810 H   0  0  0  0  0  0  0  0  0  0  0  0
    5.2573   14.8882   -2.2198 H   0  0  0  0  0  0  0  0  0  0  0  0
    4.5247   12.1470   -2.5581 H   0  0  0  0  0  0  0  0  0  0  0  0
    4.8807   12.8885   -1.0001 H   0  0  0  0  0  0  0  0  0  0  0  0
    1.1432   11.8159   -2.5943 H   0  0  0  0  0  0  0  0  0  0  0  0
    1.7341   13.2908   -3.4322 H   0  0  0  0  0  0  0  0  0  0  0  0
    2.7320   11.7972   -3.4322 H   0  0  0  0  0  0  0  0  0  0  0  0
    3.0416   12.3202    0.4670 H   0  0  0  0  0  0  0  0  0  0  0  0
    3.5895   10.4003   -1.1623 H   0  0  0  0  0  0  0  0  0  0  0  0
    2.8745   10.0635    0.5005 H   0  0  0  0  0  0  0  0  0  0  0  0
    1.9050    8.6440   -1.4943 H   0  0  0  0  0  0  0  0  0  0  0  0
   -0.3664   11.9816   -1.4855 H   0  0  0  0  0  0  0  0  0  0  0  0
   -1.2666   10.4381    1.0246 H   0  0  0  0  0  0  0  0  0  0  0  0
   -1.8927   12.0459    0.4478 H   0  0  0  0  0  0  0  0  0  0  0  0
   -3.4423   10.1912   -0.0849 H   0  0  0  0  0  0  0  0  0  0  0  0
   -2.7904   11.0118   -1.5571 H   0  0  0  0  0  0  0  0  0  0  0  0
   -2.7782    8.6401   -1.9281 H   0  0  0  0  0  0  0  0  0  0  0  0
   -2.2030    7.2750   -0.3750 H   0  0  0  0  0  0  0  0  0  0  0  0
   -1.3462   10.8829   -3.1808 H   0  0  0  0  0  0  0  0  0  0  0  0
   -0.0293    9.9279   -3.9426 H   0  0  0  0  0  0  0  0  0  0  0  0
   -1.7114    9.2977   -3.9426 H   0  0  0  0  0  0  0  0  0  0  0  0
   -0.0240    7.1663   -1.4413 H   0  0  0  0  0  0  0  0  0  0  0  0
   -0.9873    7.2098   -2.9569 H   0  0  0  0  0  0  0  0  0  0  0  0
    0.7137    7.7871   -2.9569 H   0  0  0  0  0  0  0  0  0  0  0  0
    0.8914   12.5320    2.3678 H   0  0  0  0  0  0  0  0  0  0  0  0
   -0.0159   11.0595    1.8827 H   0  0  0  0  0  0  0  0  0  0  0  0
    1.7804   11.0484    1.8827 H   0  0  0  0  0  0  0  0  0  0  0  0
   -0.6456   13.6901    0.2393 H   0  0  0  0  0  0  0  0  0  0  0  0
    0.9240   14.0776    1.1456 H   0  0  0  0  0  0  0  0  0  0  0  0
    0.4158   14.2661   -1.8358 H   0  0  0  0  0  0  0  0  0  0  0  0
    0.7490   15.5986   -0.6609 H   0  0  0  0  0  0  0  0  0  0  0  0
    2.6387   14.4960    1.0489 H   0  0  0  0  0  0  0  0  0  0  0  0
    4.2099   14.4577    0.1790 H   0  0  0  0  0  0  0  0  0  0  0  0
    3.2196   15.9564    0.1790 H   0  0  0  0  0  0  0  0  0  0  0  0
  1  2  1  0
  2  3  1  0
  3  4  1  0
  4  5  1  0
  5  6  1  0
  6  7  1  0
  7  8  1  0
  7  9  1  0
  2 10  1  0
 10 11  1  0
 11 12  1  0
 12 13  1  0
 13 14  1  6
 13 15  1  0
 15 16  1  0
 16 17  1  0
 17 18  2  0
 18 19  1  0
 19 20  1  0
 20 21  1  0
 21 22  1  0
 22 23  1  0
 22 24  1  0
 24 25  1  0
 24 26  1  0
 19 27  1  0
 27 28  1  1
 27 29  1  0
 29 30  1  0
 30 31  1  0
 31 32  1  1
  7  5  1  0
 31 10  1  0
 31 13  1  0
 27 15  1  0
 24 18  1  0
  1 33  1  0
  1 34  1  0
  1 35  1  0
  2 36  1  6
  3 37  1  0
  3 38  1  0
  4 39  1  0
  4 40  1  0
  5 41  1  1
  8 42  1  0
  8 43  1  0
  8 44  1  0
  9 45  1  0
  9 46  1  0
  9 47  1  0
 10 48  1  6
 11 49  1  0
 11 50  1  0
 12 51  1  0
 12 52  1  0
 14 53  1  0
 14 54  1  0
 14 55  1  0
 15 56  1  1
 16 57  1  0
 16 58  1  0
 17 59  1  0
 19 60  1  6
 20 61  1  0
 20 62  1  0
 21 63  1  0
 21 64  1  0
 22 65  1  6
 23 66  1  0
 25 67  1  0
 25 68  1  0
 25 69  1  0
 26 70  1  0
 26 71  1  0
 26 72  1  0
 28 73  1  0
 28 74  1  0
 28 75  1  0
 29 76  1  0
 29 77  1  0
 30 78  1  0
 30 79  1  0
 32 80  1  0
 32 81  1  0
 32 82  1  0
M  END
>  <meeko>  (13) 
{"is_sidechain": [false], "intermolecular_energy": 2.731, "internal_energy": -0.839}

$$$$
EPH_relaxed_0001_pdb2pqr_Repair_327_r2_0001_out
     RDKit          3D

 82 86  0  0  0  0  0  0  0  0999 V2000
    3.1930   18.3210    0.6840 C   0  0  0  0  0  0  0  0  0  0  0  0
    3.5530   17.0070   -0.0140 C   0  0  2  0  0  0  0  0  0  0  0  0
    4.1850   17.2400   -1.4010 C   0  0  0  0  0  0  0  0  0  0  0  0
    5.5450   17.9400   -1.3480 C   0  0  0  0  0  0  0  0  0  0  0  0
    6.1750   18.0310   -2.7050 C   0  0  2  0  0  0  0  0  0  0  0  0
    5.3060   17.6900   -3.7920 O   0  0  0  0  0  0  0  0  0  0  0  0
    6.4360   16.8260   -3.5890 C   0  0  0  0  0  0  0  0  0  0  0  0
    6.0730   15.4430   -3.1490 C   0  0  0  0  0  0  0  0  0  0  0  0
    7.4790   16.9350   -4.6580 C   0  0  0  0  0  0  0  0  0  0  0  0
    2.3120   16.1320   -0.1470 C   0  0  1  0  0  0  0  0  0  0  0  0
    1.0590   16.9350   -0.5850 C   0  0  0  0  0  0  0  0  0  0  0  0
    0.2220   15.9990   -1.4950 C   0  0  0  0  0  0  0  0  0  0  0  0
    0.8400   14.5970   -1.2850 C   0  0  1  0  0  0  0  0  0  0  0  0
    0.2100   14.0760    0.0450 C   0  0  0  0  0  0  0  0  0  0  0  0
    0.6500   13.5760   -2.4530 C   0  0  2  0  0  0  0  0  0  0  0  0
   -0.8110   13.2030   -2.7620 C   0  0  0  0  0  0  0  0  0  0  0  0
   -1.3390   12.0220   -2.0180 C   0  0  0  0  0  0  0  0  0  0  0  0
   -0.5940   11.1190   -1.3540 C   0  0  0  0  0  0  0  0  0  0  0  0
    0.9380   11.1830   -1.3890 C   0  0  1  0  0  0  0  0  0  0  0  0
    1.5090    9.7660   -1.6640 C   0  0  0  0  0  0  0  0  0  0  0  0
    0.9910    8.7250   -0.6760 C   0  0  0  0  0  0  0  0  0  0  0  0
   -0.5330    8.6510   -0.7120 C   0  0  2  0  0  0  0  0  0  0  0  0
   -0.9400    8.1370   -1.9840 O   0  0  0  0  0  0  0  0  0  0  0  0
   -1.2200   10.0220   -0.4580 C   0  0  0  0  0  0  0  0  0  0  0  0
   -1.0280   10.4340    1.0220 C   0  0  0  0  0  0  0  0  0  0  0  0
   -2.7480    9.8350   -0.6610 C   0  0  0  0  0  0  0  0  0  0  0  0
    1.5640   12.2880   -2.3440 C   0  0  1  0  0  0  0  0  0  0  0  0
    1.7100   11.7220   -3.7900 C   0  0  0  0  0  0  0  0  0  0  0  0
    3.0200   12.6290   -1.8510 C   0  0  0  0  0  0  0  0  0  0  0  0
    3.1520   13.7300   -0.7820 C   0  0  0  0  0  0  0  0  0  0  0  0
    2.3620   14.9800   -1.1820 C   0  0  2  0  0  0  0  0  0  0  0  0
    2.9880   15.5390   -2.5050 C   0  0  0  0  0  0  0  0  0  0  0  0
    3.2317   18.1797    1.7742 H   0  0  0  0  0  0  0  0  0  0  0  0
    3.9105   19.1011    0.3897 H   0  0  0  0  0  0  0  0  0  0  0  0
    2.1781   18.6264    0.3897 H   0  0  0  0  0  0  0  0  0  0  0  0
    4.3027   16.4965    0.6084 H   0  0  0  0  0  0  0  0  0  0  0  0
    4.3157   16.2641   -1.8914 H   0  0  0  0  0  0  0  0  0  0  0  0
    3.5045   17.9016   -1.9571 H   0  0  0  0  0  0  0  0  0  0  0  0
    5.4076   18.9562   -0.9499 H   0  0  0  0  0  0  0  0  0  0  0  0
    6.2096   17.3494   -0.7003 H   0  0  0  0  0  0  0  0  0  0  0  0
    6.8215   18.8576   -2.3753 H   0  0  0  0  0  0  0  0  0  0  0  0
    6.0615   15.3991   -2.0499 H   0  0  0  0  0  0  0  0  0  0  0  0
    5.0766   15.1845   -3.5368 H   0  0  0  0  0  0  0  0  0  0  0  0
    6.8140   14.7285   -3.5368 H   0  0  0  0  0  0  0  0  0  0  0  0
    8.4707   17.0386   -4.1935 H   0  0  0  0  0  0  0  0  0  0  0  0
    7.4596   16.0299   -5.2829 H   0  0  0  0  0  0  0  0  0  0  0  0
    7.2729   17.8165   -5.2829 H   0  0  0  0  0  0  0  0  0  0  0  0
    2.2662   15.7208    0.8722 H   0  0  0  0  0  0  0  0  0  0  0  0
    0.4714   17.2305    0.2967 H   0  0  0  0  0  0  0  0  0  0  0  0
    1.3455   17.8525   -1.1199 H   0  0  0  0  0  0  0  0  0  0  0  0
   -0.8355   16.0067   -1.1922 H   0  0  0  0  0  0  0  0  0  0  0  0
    0.2452   16.3117   -2.5493 H   0  0  0  0  0  0  0  0  0  0  0  0
    0.7429   14.5167    0.9005 H   0  0  0  0  0  0  0  0  0  0  0  0
   -0.8508   14.3642    0.0858 H   0  0  0  0  0  0  0  0  0  0  0  0
    0.2940   12.9800    0.0858 H   0  0  0  0  0  0  0  0  0  0  0  0
    1.0044   14.1462   -3.3244 H   0  0  0  0  0  0  0  0  0  0  0  0
   -1.4423   14.0696   -2.5159 H   0  0  0  0  0  0  0  0  0  0  0  0
   -0.8358   12.9276   -3.8267 H   0  0  0  0  0  0  0  0  0  0  0  0
   -2.4294   11.8773   -2.0118 H   0  0  0  0  0  0  0  0  0  0  0  0
    1.2510   11.5252   -0.3916 H   0  0  0  0  0  0  0  0  0  0  0  0
    1.2212    9.4610   -2.6809 H   0  0  0  0  0  0  0  0  0  0  0  0
    2.6020    9.8186   -1.5514 H   0  0  0  0  0  0  0  0  0  0  0  0
    1.4057    7.7408   -0.9394 H   0  0  0  0  0  0  0  0  0  0  0  0
    1.3049    9.0155    0.3374 H   0  0  0  0  0  0  0  0  0  0  0  0
   -0.8498    7.9860    0.1050 H   0  0  0  0  0  0  0  0  0  0  0  0
   -1.7510    7.6180   -1.8460 H   0  0  0  0  0  0  0  0  0  0  0  0
   -1.4013    9.6330    1.6770 H   0  0  0  0  0  0  0  0  0  0  0  0
    0.0409   10.6015    1.2203 H   0  0  0  0  0  0  0  0  0  0  0  0
   -1.5872   11.3603    1.2203 H   0  0  0  0  0  0  0  0  0  0  0  0
   -3.2434    9.7744    0.3193 H   0  0  0  0  0  0  0  0  0  0  0  0
   -3.1506   10.6906   -1.2230 H   0  0  0  0  0  0  0  0  0  0  0  0
   -2.9324    8.9076   -1.2230 H   0  0  0  0  0  0  0  0  0  0  0  0
    1.9845   10.6579   -3.7413 H   0  0  0  0  0  0  0  0  0  0  0  0
    0.7546   11.8301   -4.3243 H   0  0  0  0  0  0  0  0  0  0  0  0
    2.4939   12.2788   -4.3243 H   0  0  0  0  0  0  0  0  0  0  0  0
    3.4547   11.7080   -1.4353 H   0  0  0  0  0  0  0  0  0  0  0  0
    3.5382   13.0248   -2.7369 H   0  0  0  0  0  0  0  0  0  0  0  0
    2.7648   13.3506    0.1751 H   0  0  0  0  0  0  0  0  0  0  0  0
    4.2138   14.0015   -0.6873 H   0  0  0  0  0  0  0  0  0  0  0  0
    3.7877   16.2531   -2.2591 H   0  0  0  0  0  0  0  0  0  0  0  0
    3.4061   14.7082   -3.0924 H   0  0  0  0  0  0  0  0  0  0  0  0
    2.2097   16.0481   -3.0924 H   0  0  0  0  0  0  0  0  0  0  0  0
  1  2  1  0
  2  3  1  0
  3  4  1  0
  4  5  1  0
  5  6  1  0
  6  7  1  0
  7  8  1  0
  7  9  1  0
  2 10  1  0
 10 11  1  0
 11 12  1  0
 12 13  1  0
 13 14  1  1
 13 15  1  0
 15 16  1  0
 16 17  1  0
 17 18  2  0
 18 19  1  0
 19 20  1  0
 20 21  1  0
 21 22  1  0
 22 23  1  0
 22 24  1  0
 24 25  1  0
 24 26  1  0
 19 27  1  0
 27 28  1  6
 27 29  1  0
 29 30  1  0
 30 31  1  0
 31 32  1  6
  7  5  1  0
 31 10  1  0
 31 13  1  0
 27 15  1  0
 24 18  1  0
  1 33  1  0
  1 34  1  0
  1 35  1  0
  2 36  1  1
  3 37  1  0
  3 38  1  0
  4 39  1  0
  4 40  1  0
  5 41  1  6
  8 42  1  0
  8 43  1  0
  8 44  1  0
  9 45  1  0
  9 46  1  0
  9 47  1  0
 10 48  1  1
 11 49  1  0
 11 50  1  0
 12 51  1  0
 12 52  1  0
 14 53  1  0
 14 54  1  0
 14 55  1  0
 15 56  1  6
 16 57  1  0
 16 58  1  0
 17 59  1  0
 19 60  1  1
 20 61  1  0
 20 62  1  0
 21 63  1  0
 21 64  1  0
 22 65  1  1
 23 66  1  0
 25 67  1  0
 25 68  1  0
 25 69  1  0
 26 70  1  0
 26 71  1  0
 26 72  1  0
 28 73  1  0
 28 74  1  0
 28 75  1  0
 29 76  1  0
 29 77  1  0
 30 78  1  0
 30 79  1  0
 32 80  1  0
 32 81  1  0
 32 82  1  0
M  END
>  <meeko>  (14) 
{"is_sidechain": [false], "intermolecular_energy": 2.731, "internal_energy": -0.839}

$$$$
EPH_relaxed_0001_pdb2pqr_Repair_327_r2_0001_out
     RDKit          3D

 82 86  0  0  0  0  0  0  0  0999 V2000
   -0.6910    7.6950   -3.0590 C   0  0  0  0  0  0  0  0  0  0  0  0
   -1.3910    8.1720   -1.7840 C   0  0  2  0  0  0  0  0  0  0  0  0
   -2.8390    7.6520   -1.6860 C   0  0  0  0  0  0  0  0  0  0  0  0
   -3.3040    6.8890   -2.9290 C   0  0  0  0  0  0  0  0  0  0  0  0
   -4.7570    7.1210   -3.2110 C   0  0  2  0  0  0  0  0  0  0  0  0
   -5.4970    7.6830   -2.1190 O   0  0  0  0  0  0  0  0  0  0  0  0
   -5.8750    6.3580   -2.5250 C   0  0  0  0  0  0  0  0  0  0  0  0
   -5.5870    5.3030   -1.5020 C   0  0  0  0  0  0  0  0  0  0  0  0
   -7.2120    6.2910   -3.1940 C   0  0  0  0  0  0  0  0  0  0  0  0
   -1.3790    9.6950   -1.7230 C   0  0  1  0  0  0  0  0  0  0  0  0
   -2.6770   10.2790   -1.1030 C   0  0  0  0  0  0  0  0  0  0  0  0
   -2.2630   11.5430   -0.3060 C   0  0  0  0  0  0  0  0  0  0  0  0
   -0.8130   11.8330   -0.7610 C   0  0  1  0  0  0  0  0  0  0  0  0
   -0.9630   12.5850   -2.1210 C   0  0  0  0  0  0  0  0  0  0  0  0
    0.0800   12.6310    0.2440 C   0  0  2  0  0  0  0  0  0  0  0  0
   -0.4110   14.0530    0.5670 C   0  0  0  0  0  0  0  0  0  0  0  0
    0.1200   15.1280   -0.3220 C   0  0  0  0  0  0  0  0  0  0  0  0
    1.1700   15.0070   -1.1540 C   0  0  0  0  0  0  0  0  0  0  0  0
    2.0040   13.7190   -1.1880 C   0  0  1  0  0  0  0  0  0  0  0  0
    3.5130   14.0790   -1.1640 C   0  0  0  0  0  0  0  0  0  0  0  0
    3.9000   15.0540   -2.2720 C   0  0  0  0  0  0  0  0  0  0  0  0
    3.0910   16.3440   -2.1710 C   0  0  2  0  0  0  0  0  0  0  0  0
    3.4680   17.0310   -0.9730 O   0  0  0  0  0  0  0  0  0  0  0  0
    1.5550   16.1060   -2.1750 C   0  0  0  0  0  0  0  0  0  0  0  0
    1.1040   15.6420   -3.5820 C   0  0  0  0  0  0  0  0  0  0  0  0
    0.8590   17.4710   -1.9250 C   0  0  0  0  0  0  0  0  0  0  0  0
    1.6220   12.6180   -0.1080 C   0  0  1  0  0  0  0  0  0  0  0  0
    2.3850   12.8910    1.2240 C   0  0  0  0  0  0  0  0  0  0  0  0
    2.1080   11.2090   -0.6170 C   0  0  0  0  0  0  0  0  0  0  0  0
    1.1330   10.4180   -1.5090 C   0  0  0  0  0  0  0  0  0  0  0  0
   -0.2640   10.3650   -0.8820 C   0  0  2  0  0  0  0  0  0  0  0  0
   -0.1490    9.5950    0.4770 C   0  0  0  0  0  0  0  0  0  0  0  0
    0.1905    7.0943   -2.7905 H   0  0  0  0  0  0  0  0  0  0  0  0
   -1.3860    7.0818   -3.6514 H   0  0  0  0  0  0  0  0  0  0  0  0
   -0.3745    8.5662   -3.6514 H   0  0  0  0  0  0  0  0  0  0  0  0
   -0.8349    7.7611   -0.9285 H   0  0  0  0  0  0  0  0  0  0  0  0
   -2.9083    6.9786   -0.8190 H   0  0  0  0  0  0  0  0  0  0  0  0
   -3.4908    8.5325   -1.5866 H   0  0  0  0  0  0  0  0  0  0  0  0
   -2.7148    7.2254   -3.7948 H   0  0  0  0  0  0  0  0  0  0  0  0
   -3.1578    5.8142   -2.7459 H   0  0  0  0  0  0  0  0  0  0  0  0
   -4.5430    7.3219   -4.2711 H   0  0  0  0  0  0  0  0  0  0  0  0
   -5.7031    5.7282   -0.4941 H   0  0  0  0  0  0  0  0  0  0  0  0
   -6.2896    4.4664   -1.6302 H   0  0  0  0  0  0  0  0  0  0  0  0
   -4.5568    4.9395   -1.6302 H   0  0  0  0  0  0  0  0  0  0  0  0
   -8.0026    6.2514   -2.4302 H   0  0  0  0  0  0  0  0  0  0  0  0
   -7.3530    7.1832   -3.8218 H   0  0  0  0  0  0  0  0  0  0  0  0
   -7.2631    5.3892   -3.8218 H   0  0  0  0  0  0  0  0  0  0  0  0
   -1.2323    9.9202   -2.7897 H   0  0  0  0  0  0  0  0  0  0  0  0
   -3.3883   10.5484   -1.8976 H   0  0  0  0  0  0  0  0  0  0  0  0
   -3.1680    9.5432   -0.4492 H   0  0  0  0  0  0  0  0  0  0  0  0
   -2.9229   12.3889   -0.5490 H   0  0  0  0  0  0  0  0  0  0  0  0
   -2.3373   11.3938    0.7813 H   0  0  0  0  0  0  0  0  0  0  0  0
   -1.1749   13.6475   -1.9310 H   0  0  0  0  0  0  0  0  0  0  0  0
   -0.0291   12.4943   -2.6951 H   0  0  0  0  0  0  0  0  0  0  0  0
   -1.7907   12.1429   -2.6951 H   0  0  0  0  0  0  0  0  0  0  0  0
   -0.0400   12.0557    1.1738 H   0  0  0  0  0  0  0  0  0  0  0  0
   -1.5083   14.0594    0.4901 H   0  0  0  0  0  0  0  0  0  0  0  0
   -0.0389   14.2815    1.5766 H   0  0  0  0  0  0  0  0  0  0  0  0
   -0.3907   16.1019   -0.2944 H   0  0  0  0  0  0  0  0  0  0  0  0
    1.7546   13.2193   -2.1357 H   0  0  0  0  0  0  0  0  0  0  0  0
    3.7508   14.5369   -0.1925 H   0  0  0  0  0  0  0  0  0  0  0  0
    4.0803   13.1502   -1.3237 H   0  0  0  0  0  0  0  0  0  0  0  0
    4.9702   15.2925   -2.1840 H   0  0  0  0  0  0  0  0  0  0  0  0
    3.6894   14.5828   -3.2434 H   0  0  0  0  0  0  0  0  0  0  0  0
    3.3172   16.9463   -3.0632 H   0  0  0  0  0  0  0  0  0  0  0  0
    3.1430   17.9450   -1.0440 H   0  0  0  0  0  0  0  0  0  0  0  0
    0.3405   14.8565   -3.4818 H   0  0  0  0  0  0  0  0  0  0  0  0
    0.6815   16.4960   -4.1318 H   0  0  0  0  0  0  0  0  0  0  0  0
    1.9696   15.2440   -4.1318 H   0  0  0  0  0  0  0  0  0  0  0  0
    0.7705   17.6446   -0.8424 H   0  0  0  0  0  0  0  0  0  0  0  0
    1.4568   18.2758   -2.3777 H   0  0  0  0  0  0  0  0  0  0  0  0
   -0.1435   17.4598   -2.3777 H   0  0  0  0  0  0  0  0  0  0  0  0
    1.7302   12.6567    2.0763 H   0  0  0  0  0  0  0  0  0  0  0  0
    3.2841   12.2588    1.2677 H   0  0  0  0  0  0  0  0  0  0  0  0
    2.6790   13.9501    1.2677 H   0  0  0  0  0  0  0  0  0  0  0  0
    3.0333   11.3638   -1.1913 H   0  0  0  0  0  0  0  0  0  0  0  0
    2.2253   10.5999    0.2914 H   0  0  0  0  0  0  0  0  0  0  0  0
    1.0678   10.9067   -2.4923 H   0  0  0  0  0  0  0  0  0  0  0  0
    1.5094    9.3898   -1.6142 H   0  0  0  0  0  0  0  0  0  0  0  0
   -0.2550   10.3048    1.3107 H   0  0  0  0  0  0  0  0  0  0  0  0
   -0.9439    8.8371    0.5374 H   0  0  0  0  0  0  0  0  0  0  0  0
    0.8327    9.1024    0.5374 H   0  0  0  0  0  0  0  0  0  0  0  0
  1  2  1  0
  2  3  1  0
  3  4  1  0
  4  5  1  0
  5  6  1  0
  6  7  1  0
  7  8  1  0
  7  9  1  0
  2 10  1  0
 10 11  1  0
 11 12  1  0
 12 13  1  0
 13 14  1  6
 13 15  1  0
 15 16  1  0
 16 17  1  0
 17 18  2  0
 18 19  1  0
 19 20  1  0
 20 21  1  0
 21 22  1  0
 22 23  1  0
 22 24  1  0
 24 25  1  0
 24 26  1  0
 19 27  1  0
 27 28  1  1
 27 29  1  0
 29 30  1  0
 30 31  1  0
 31 32  1  1
  7  5  1  0
 31 10  1  0
 31 13  1  0
 27 15  1  0
 24 18  1  0
  1 33  1  0
  1 34  1  0
  1 35  1  0
  2 36  1  1
  3 37  1  0
  3 38  1  0
  4 39  1  0
  4 40  1  0
  5 41  1  6
  8 42  1  0
  8 43  1  0
  8 44  1  0
  9 45  1  0
  9 46  1  0
  9 47  1  0
 10 48  1  6
 11 49  1  0
 11 50  1  0
 12 51  1  0
 12 52  1  0
 14 53  1  0
 14 54  1  0
 14 55  1  0
 15 56  1  1
 16 57  1  0
 16 58  1  0
 17 59  1  0
 19 60  1  6
 20 61  1  0
 20 62  1  0
 21 63  1  0
 21 64  1  0
 22 65  1  6
 23 66  1  0
 25 67  1  0
 25 68  1  0
 25 69  1  0
 26 70  1  0
 26 71  1  0
 26 72  1  0
 28 73  1  0
 28 74  1  0
 28 75  1  0
 29 76  1  0
 29 77  1  0
 30 78  1  0
 30 79  1  0
 32 80  1  0
 32 81  1  0
 32 82  1  0
M  END
>  <meeko>  (15) 
{"is_sidechain": [false], "intermolecular_energy": 2.731, "internal_energy": -0.839}

$$$$
EPH_relaxed_0001_pdb2pqr_Repair_327_r2_0001_out
     RDKit          3D

 82 86  0  0  0  0  0  0  0  0999 V2000
   -2.6500    9.6970    0.2950 C   0  0  0  0  0  0  0  0  0  0  0  0
   -1.2120    9.9010    0.7790 C   0  0  2  0  0  0  0  0  0  0  0  0
   -1.0430   11.2230    1.5540 C   0  0  0  0  0  0  0  0  0  0  0  0
    0.1120   11.2040    2.5590 C   0  0  0  0  0  0  0  0  0  0  0  0
    0.2530   12.5180    3.2670 C   0  0  2  0  0  0  0  0  0  0  0  0
    0.6170   12.4170    4.6500 O   0  0  0  0  0  0  0  0  0  0  0  0
   -0.6780   12.9760    4.3740 C   0  0  0  0  0  0  0  0  0  0  0  0
   -1.8190   12.1260    4.8350 C   0  0  0  0  0  0  0  0  0  0  0  0
   -0.7760   14.4410    4.6650 C   0  0  0  0  0  0  0  0  0  0  0  0
   -0.2550    9.8670   -0.4070 C   0  0  1  0  0  0  0  0  0  0  0  0
   -0.7710    8.9730   -1.5660 C   0  0  0  0  0  0  0  0  0  0  0  0
   -0.3160    9.6460   -2.8860 C   0  0  0  0  0  0  0  0  0  0  0  0
    0.7180   10.7090   -2.4460 C   0  0  1  0  0  0  0  0  0  0  0  0
    2.0470    9.9160   -2.2450 C   0  0  0  0  0  0  0  0  0  0  0  0
    0.9110   11.9250   -3.4100 C   0  0  2  0  0  0  0  0  0  0  0  0
    1.4410   11.5700   -4.8100 C   0  0  0  0  0  0  0  0  0  0  0  0
    2.9270   11.5820   -4.9520 C   0  0  0  0  0  0  0  0  0  0  0  0
    3.7920   12.1370   -4.0820 C   0  0  0  0  0  0  0  0  0  0  0  0
    3.2880   12.9220   -2.8640 C   0  0  1  0  0  0  0  0  0  0  0  0
    4.0740   14.2550   -2.7460 C   0  0  0  0  0  0  0  0  0  0  0  0
    5.5850   14.0420   -2.7190 C   0  0  0  0  0  0  0  0  0  0  0  0
    6.0550   13.3100   -3.9740 C   0  0  2  0  0  0  0  0  0  0  0  0
    5.8560   14.1610   -5.1060 O   0  0  0  0  0  0  0  0  0  0  0  0
    5.3250   11.9570   -4.2030 C   0  0  0  0  0  0  0  0  0  0  0  0
    5.7790   10.9330   -3.1330 C   0  0  0  0  0  0  0  0  0  0  0  0
    5.7890   11.3900   -5.5710 C   0  0  0  0  0  0  0  0  0  0  0  0
    1.7150   13.1320   -2.7760 C   0  0  1  0  0  0  0  0  0  0  0  0
    1.3030   14.4080   -3.5730 C   0  0  0  0  0  0  0  0  0  0  0  0
    1.3140   13.3970   -1.2770 C   0  0  0  0  0  0  0  0  0  0  0  0
    1.0200   12.1590   -0.4080 C   0  0  0  0  0  0  0  0  0  0  0  0
    0.0470   11.2110   -1.1160 C   0  0  2  0  0  0  0  0  0  0  0  0
   -1.3070   11.9740   -1.3120 C   0  0  0  0  0  0  0  0  0  0  0  0
   -3.3190    9.6021    1.1630 H   0  0  0  0  0  0  0  0  0  0  0  0
   -2.9583   10.5604   -0.3129 H   0  0  0  0  0  0  0  0  0  0  0  0
   -2.7059    8.7819   -0.3129 H   0  0  0  0  0  0  0  0  0  0  0  0
   -0.9757    9.0795    1.4713 H   0  0  0  0  0  0  0  0  0  0  0  0
   -0.8592   12.0295    0.8289 H   0  0  0  0  0  0  0  0  0  0  0  0
   -1.9674   11.3786    2.1296 H   0  0  0  0  0  0  0  0  0  0  0  0
   -0.0762   10.4164    3.3035 H   0  0  0  0  0  0  0  0  0  0  0  0
    1.0436   11.0103    2.0070 H   0  0  0  0  0  0  0  0  0  0  0  0
    0.5962   13.0058    2.3428 H   0  0  0  0  0  0  0  0  0  0  0  0
   -1.8424   12.1086    5.9346 H   0  0  0  0  0  0  0  0  0  0  0  0
   -2.7635   12.5424    4.4547 H   0  0  0  0  0  0  0  0  0  0  0  0
   -1.6903   11.1019    4.4547 H   0  0  0  0  0  0  0  0  0  0  0  0
   -0.7865   14.5987    5.7536 H   0  0  0  0  0  0  0  0  0  0  0  0
    0.0894   14.9604    4.2276 H   0  0  0  0  0  0  0  0  0  0  0  0
   -1.7029   14.8405    4.2276 H   0  0  0  0  0  0  0  0  0  0  0  0
    0.6497    9.4961    0.0970 H   0  0  0  0  0  0  0  0  0  0  0  0
   -0.3400    7.9641   -1.4870 H   0  0  0  0  0  0  0  0  0  0  0  0
   -1.8659    8.8730   -1.5305 H   0  0  0  0  0  0  0  0  0  0  0  0
    0.1472    8.9087   -3.5582 H   0  0  0  0  0  0  0  0  0  0  0  0
   -1.1572   10.0870   -3.4408 H   0  0  0  0  0  0  0  0  0  0  0  0
    2.2445    9.7981   -1.1693 H   0  0  0  0  0  0  0  0  0  0  0  0
    1.9564    8.9242   -2.7120 H   0  0  0  0  0  0  0  0  0  0  0  0
    2.8768   10.4667   -2.7120 H   0  0  0  0  0  0  0  0  0  0  0  0
   -0.1214   12.2731   -3.5616 H   0  0  0  0  0  0  0  0  0  0  0  0
    1.0837   10.5608   -5.0627 H   0  0  0  0  0  0  0  0  0  0  0  0
    1.0648   12.3529   -5.4850 H   0  0  0  0  0  0  0  0  0  0  0  0
    3.3514   11.0962   -5.8430 H   0  0  0  0  0  0  0  0  0  0  0  0
    3.4925   12.2884   -1.9884 H   0  0  0  0  0  0  0  0  0  0  0  0
    3.8226   14.8903   -3.6081 H   0  0  0  0  0  0  0  0  0  0  0  0
    3.7863   14.7297   -1.7963 H   0  0  0  0  0  0  0  0  0  0  0  0
    6.0856   15.0200   -2.6638 H   0  0  0  0  0  0  0  0  0  0  0  0
    5.8379   13.4306   -1.8402 H   0  0  0  0  0  0  0  0  0  0  0  0
    7.1205   13.0729   -3.8380 H   0  0  0  0  0  0  0  0  0  0  0  0
    6.5020   14.8850   -5.0470 H   0  0  0  0  0  0  0  0  0  0  0  0
    5.5961   11.3455   -2.1298 H   0  0  0  0  0  0  0  0  0  0  0  0
    5.2106    9.9991   -3.2547 H   0  0  0  0  0  0  0  0  0  0  0  0
    6.8527   10.7272   -3.2547 H   0  0  0  0  0  0  0  0  0  0  0  0
    6.4776   10.5485   -5.4046 H   0  0  0  0  0  0  0  0  0  0  0  0
    4.9141   11.0410   -6.1390 H   0  0  0  0  0  0  0  0  0  0  0  0
    6.3042   12.1786   -6.1390 H   0  0  0  0  0  0  0  0  0  0  0  0
    1.0433   15.2122   -2.8688 H   0  0  0  0  0  0  0  0  0  0  0  0
    2.1423   14.7318   -4.2061 H   0  0  0  0  0  0  0  0  0  0  0  0
    0.4329   14.1798   -4.2061 H   0  0  0  0  0  0  0  0  0  0  0  0
    2.1404   13.9474   -0.8036 H   0  0  0  0  0  0  0  0  0  0  0  0
    0.3627   13.9471   -1.3261 H   0  0  0  0  0  0  0  0  0  0  0  0
    1.9618   11.6262   -0.2103 H   0  0  0  0  0  0  0  0  0  0  0  0
    0.5614   12.4928    0.5345 H   0  0  0  0  0  0  0  0  0  0  0  0
   -1.7370   12.2163   -0.3289 H   0  0  0  0  0  0  0  0  0  0  0  0
   -1.1265   12.9032   -1.8723 H   0  0  0  0  0  0  0  0  0  0  0  0
   -2.0083   11.3383   -1.8723 H   0  0  0  0  0  0  0  0  0  0  0  0
  1  2  1  0
  2  3  1  0
  3  4  1  0
  4  5  1  0
  5  6  1  0
  6  7  1  0
  7  8  1  0
  7  9  1  0
  2 10  1  0
 10 11  1  0
 11 12  1  0
 12 13  1  0
 13 14  1  1
 13 15  1  0
 15 16  1  0
 16 17  1  0
 17 18  2  0
 18 19  1  0
 19 20  1  0
 20 21  1  0
 21 22  1  0
 22 23  1  0
 22 24  1  0
 24 25  1  0
 24 26  1  0
 19 27  1  0
 27 28  1  6
 27 29  1  0
 29 30  1  0
 30 31  1  0
 31 32  1  6
  7  5  1  0
 31 10  1  0
 31 13  1  0
 27 15  1  0
 24 18  1  0
  1 33  1  0
  1 34  1  0
  1 35  1  0
  2 36  1  1
  3 37  1  0
  3 38  1  0
  4 39  1  0
  4 40  1  0
  5 41  1  6
  8 42  1  0
  8 43  1  0
  8 44  1  0
  9 45  1  0
  9 46  1  0
  9 47  1  0
 10 48  1  1
 11 49  1  0
 11 50  1  0
 12 51  1  0
 12 52  1  0
 14 53  1  0
 14 54  1  0
 14 55  1  0
 15 56  1  6
 16 57  1  0
 16 58  1  0
 17 59  1  0
 19 60  1  1
 20 61  1  0
 20 62  1  0
 21 63  1  0
 21 64  1  0
 22 65  1  1
 23 66  1  0
 25 67  1  0
 25 68  1  0
 25 69  1  0
 26 70  1  0
 26 71  1  0
 26 72  1  0
 28 73  1  0
 28 74  1  0
 28 75  1  0
 29 76  1  0
 29 77  1  0
 30 78  1  0
 30 79  1  0
 32 80  1  0
 32 81  1  0
 32 82  1  0
M  END
>  <meeko>  (16) 
{"is_sidechain": [false], "intermolecular_energy": 2.731, "internal_energy": -0.839}

$$$$
EPH_relaxed_0001_pdb2pqr_Repair_327_r2_0001_out
     RDKit          3D

 82 86  0  0  0  0  0  0  0  0999 V2000
   -2.9570    9.5880    0.3840 C   0  0  0  0  0  0  0  0  0  0  0  0
   -2.9030    9.5800   -1.1460 C   0  0  2  0  0  0  0  0  0  0  0  0
   -2.6180    8.1740   -1.7100 C   0  0  0  0  0  0  0  0  0  0  0  0
   -3.8340    7.5180   -2.3710 C   0  0  0  0  0  0  0  0  0  0  0  0
   -5.0410    7.5690   -1.4850 C   0  0  2  0  0  0  0  0  0  0  0  0
   -5.4980    6.2910   -1.0210 O   0  0  0  0  0  0  0  0  0  0  0  0
   -6.3950    7.0110   -1.8820 C   0  0  0  0  0  0  0  0  0  0  0  0
   -6.6120    6.3630   -3.2140 C   0  0  0  0  0  0  0  0  0  0  0  0
   -7.6150    7.5270   -1.1850 C   0  0  0  0  0  0  0  0  0  0  0  0
   -1.8430   10.5610   -1.6330 C   0  0  1  0  0  0  0  0  0  0  0  0
   -2.1520   12.0260   -1.2250 C   0  0  0  0  0  0  0  0  0  0  0  0
   -0.7880   12.7090   -0.9440 C   0  0  0  0  0  0  0  0  0  0  0  0
    0.2640   11.7290   -1.5140 C   0  0  1  0  0  0  0  0  0  0  0  0
    0.2920   12.0190   -3.0480 C   0  0  0  0  0  0  0  0  0  0  0  0
    1.6930   11.8070   -0.8860 C   0  0  2  0  0  0  0  0  0  0  0  0
    2.4180   13.1510   -1.0770 C   0  0  0  0  0  0  0  0  0  0  0  0
    3.2590   13.2520   -2.3060 C   0  0  0  0  0  0  0  0  0  0  0  0
    3.6550   12.2180   -3.0710 C   0  0  0  0  0  0  0  0  0  0  0  0
    3.3350   10.7720   -2.6670 C   0  0  1  0  0  0  0  0  0  0  0  0
    4.6090    9.9000   -2.8170 C   0  0  0  0  0  0  0  0  0  0  0  0
    5.2220    9.9940   -4.2110 C   0  0  0  0  0  0  0  0  0  0  0  0
    5.5790   11.4380   -4.5530 C   0  0  2  0  0  0  0  0  0  0  0  0
    6.6380   11.8670   -3.6910 O   0  0  0  0  0  0  0  0  0  0  0  0
    4.3760   12.4140   -4.4270 C   0  0  0  0  0  0  0  0  0  0  0  0
    3.3600   12.1350   -5.5620 C   0  0  0  0  0  0  0  0  0  0  0  0
    4.9030   13.8550   -4.6600 C   0  0  0  0  0  0  0  0  0  0  0  0
    2.6310   10.5870   -1.2550 C   0  0  1  0  0  0  0  0  0  0  0  0
    3.7080   10.4970   -0.1310 C   0  0  0  0  0  0  0  0  0  0  0  0
    1.8600    9.2140   -1.2410 C   0  0  0  0  0  0  0  0  0  0  0  0
    0.4110    9.2260   -1.7640 C   0  0  0  0  0  0  0  0  0  0  0  0
   -0.3960   10.3570   -1.1190 C   0  0  2  0  0  0  0  0  0  0  0  0
   -0.4600   10.0810    0.4220 C   0  0  0  0  0  0  0  0  0  0  0  0
   -1.9447    9.4380    0.7874 H   0  0  0  0  0  0  0  0  0  0  0  0
   -3.3509   10.5543    0.7319 H   0  0  0  0  0  0  0  0  0  0  0  0
   -3.6142    8.7774    0.7319 H   0  0  0  0  0  0  0  0  0  0  0  0
   -3.8928    9.8883   -1.5137 H   0  0  0  0  0  0  0  0  0  0  0  0
   -1.8173    8.2563   -2.4598 H   0  0  0  0  0  0  0  0  0  0  0  0
   -2.3323    7.5380   -0.8592 H   0  0  0  0  0  0  0  0  0  0  0  0
   -4.0580    8.0464   -3.3094 H   0  0  0  0  0  0  0  0  0  0  0  0
   -3.5927    6.4618   -2.5613 H   0  0  0  0  0  0  0  0  0  0  0  0
   -4.7345    8.5466   -1.0845 H   0  0  0  0  0  0  0  0  0  0  0  0
   -6.9582    5.3293   -3.0668 H   0  0  0  0  0  0  0  0  0  0  0  0
   -7.3703    6.9270   -3.7769 H   0  0  0  0  0  0  0  0  0  0  0  0
   -5.6670    6.3566   -3.7769 H   0  0  0  0  0  0  0  0  0  0  0  0
   -7.4691    7.4653   -0.0965 H   0  0  0  0  0  0  0  0  0  0  0  0
   -7.7864    8.5747   -1.4732 H   0  0  0  0  0  0  0  0  0  0  0  0
   -8.4861    6.9203   -1.4732 H   0  0  0  0  0  0  0  0  0  0  0  0
   -1.8897   10.3615   -2.7138 H   0  0  0  0  0  0  0  0  0  0  0  0
   -2.6742   12.5448   -2.0424 H   0  0  0  0  0  0  0  0  0  0  0  0
   -2.8014   12.0605   -0.3378 H   0  0  0  0  0  0  0  0  0  0  0  0
   -0.7286   13.6820   -1.4537 H   0  0  0  0  0  0  0  0  0  0  0  0
   -0.6345   12.9092    0.1267 H   0  0  0  0  0  0  0  0  0  0  0  0
    0.3965   13.1013   -3.2147 H   0  0  0  0  0  0  0  0  0  0  0  0
    1.1436   11.4937   -3.5050 H   0  0  0  0  0  0  0  0  0  0  0  0
   -0.6444   11.6663   -3.5050 H   0  0  0  0  0  0  0  0  0  0  0  0
    1.4810   11.7326    0.1908 H   0  0  0  0  0  0  0  0  0  0  0  0
    1.6575   13.9446   -1.1193 H   0  0  0  0  0  0  0  0  0  0  0  0
    3.1087   13.2481   -0.2264 H   0  0  0  0  0  0  0  0  0  0  0  0
    3.5828   14.2575   -2.6127 H   0  0  0  0  0  0  0  0  0  0  0  0
    2.5600   10.4241   -3.3658 H   0  0  0  0  0  0  0  0  0  0  0  0
    5.3544   10.2352   -2.0808 H   0  0  0  0  0  0  0  0  0  0  0  0
    4.3179    8.8524   -2.6504 H   0  0  0  0  0  0  0  0  0  0  0  0
    6.1339    9.3798   -4.2456 H   0  0  0  0  0  0  0  0  0  0  0  0
    4.4861    9.6310   -4.9436 H   0  0  0  0  0  0  0  0  0  0  0  0
    5.8905   11.4594   -5.6077 H   0  0  0  0  0  0  0  0  0  0  0  0
    6.6530   11.2710   -2.9230 H   0  0  0  0  0  0  0  0  0  0  0  0
    2.3865   11.8677   -5.1251 H   0  0  0  0  0  0  0  0  0  0  0  0
    3.2481   13.0357   -6.1835 H   0  0  0  0  0  0  0  0  0  0  0  0
    3.7237   11.3035   -6.1835 H   0  0  0  0  0  0  0  0  0  0  0  0
    5.0810   14.3417   -3.6897 H   0  0  0  0  0  0  0  0  0  0  0  0
    5.8443   13.8139   -5.2277 H   0  0  0  0  0  0  0  0  0  0  0  0
    4.1573   14.4308   -5.2277 H   0  0  0  0  0  0  0  0  0  0  0  0
    3.2163   10.5381    0.8521 H   0  0  0  0  0  0  0  0  0  0  0  0
    4.2590    9.5497   -0.2261 H   0  0  0  0  0  0  0  0  0  0  0  0
    4.4085   11.3397   -0.2261 H   0  0  0  0  0  0  0  0  0  0  0  0
    2.4310    8.5053   -1.8589 H   0  0  0  0  0  0  0  0  0  0  0  0
    1.7805    8.9392   -0.1788 H   0  0  0  0  0  0  0  0  0  0  0  0
    0.4233    9.3695   -2.8545 H   0  0  0  0  0  0  0  0  0  0  0  0
   -0.0624    8.2669   -1.5069 H   0  0  0  0  0  0  0  0  0  0  0  0
   -0.2446   11.0100    0.9702 H   0  0  0  0  0  0  0  0  0  0  0  0
   -1.4651    9.7225    0.6889 H   0  0  0  0  0  0  0  0  0  0  0  0
    0.2847    9.3167    0.6889 H   0  0  0  0  0  0  0  0  0  0  0  0
  1  2  1  0
  2  3  1  0
  3  4  1  0
  4  5  1  0
  5  6  1  0
  6  7  1  0
  7  8  1  0
  7  9  1  0
  2 10  1  0
 10 11  1  0
 11 12  1  0
 12 13  1  0
 13 14  1  6
 13 15  1  0
 15 16  1  0
 16 17  1  0
 17 18  2  0
 18 19  1  0
 19 20  1  0
 20 21  1  0
 21 22  1  0
 22 23  1  0
 22 24  1  0
 24 25  1  0
 24 26  1  0
 19 27  1  0
 27 28  1  1
 27 29  1  0
 29 30  1  0
 30 31  1  0
 31 32  1  1
  7  5  1  0
 31 10  1  0
 31 13  1  0
 27 15  1  0
 24 18  1  0
  1 33  1  0
  1 34  1  0
  1 35  1  0
  2 36  1  6
  3 37  1  0
  3 38  1  0
  4 39  1  0
  4 40  1  0
  5 41  1  1
  8 42  1  0
  8 43  1  0
  8 44  1  0
  9 45  1  0
  9 46  1  0
  9 47  1  0
 10 48  1  6
 11 49  1  0
 11 50  1  0
 12 51  1  0
 12 52  1  0
 14 53  1  0
 14 54  1  0
 14 55  1  0
 15 56  1  1
 16 57  1  0
 16 58  1  0
 17 59  1  0
 19 60  1  6
 20 61  1  0
 20 62  1  0
 21 63  1  0
 21 64  1  0
 22 65  1  6
 23 66  1  0
 25 67  1  0
 25 68  1  0
 25 69  1  0
 26 70  1  0
 26 71  1  0
 26 72  1  0
 28 73  1  0
 28 74  1  0
 28 75  1  0
 29 76  1  0
 29 77  1  0
 30 78  1  0
 30 79  1  0
 32 80  1  0
 32 81  1  0
 32 82  1  0
M  END
>  <meeko>  (17) 
{"is_sidechain": [false], "intermolecular_energy": 2.731, "internal_energy": -0.839}

$$$$
EPH_relaxed_0001_pdb2pqr_Repair_327_r2_0001_out
     RDKit          3D

 82 86  0  0  0  0  0  0  0  0999 V2000
    0.1280   10.3330   -2.6240 C   0  0  0  0  0  0  0  0  0  0  0  0
    0.6260   10.4490   -1.1800 C   0  0  2  0  0  0  0  0  0  0  0  0
   -0.5280   10.6920   -0.1860 C   0  0  0  0  0  0  0  0  0  0  0  0
   -1.8720   10.9750   -0.8610 C   0  0  0  0  0  0  0  0  0  0  0  0
   -2.9370   10.0290   -0.3950 C   0  0  2  0  0  0  0  0  0  0  0  0
   -2.4510    8.8910    0.3290 O   0  0  0  0  0  0  0  0  0  0  0  0
   -3.0930    8.6170   -0.9270 C   0  0  0  0  0  0  0  0  0  0  0  0
   -2.1730    8.0720   -1.9750 C   0  0  0  0  0  0  0  0  0  0  0  0
   -4.4220    7.9430   -0.7900 C   0  0  0  0  0  0  0  0  0  0  0  0
    1.6520   11.5700   -1.0720 C   0  0  1  0  0  0  0  0  0  0  0  0
    2.9280   11.2950   -1.9120 C   0  0  0  0  0  0  0  0  0  0  0  0
    3.4140   12.6650   -2.4490 C   0  0  0  0  0  0  0  0  0  0  0  0
    2.6100   13.7090   -1.6400 C   0  0  1  0  0  0  0  0  0  0  0  0
    3.3660   13.8320   -0.2800 C   0  0  0  0  0  0  0  0  0  0  0  0
    2.4100   15.1040   -2.3180 C   0  0  2  0  0  0  0  0  0  0  0  0
    3.7050   15.8880   -2.5920 C   0  0  0  0  0  0  0  0  0  0  0  0
    4.1440   16.7980   -1.4930 C   0  0  0  0  0  0  0  0  0  0  0  0
    3.3830   17.1970   -0.4560 C   0  0  0  0  0  0  0  0  0  0  0  0
    1.9030   16.8010   -0.3680 C   0  0  1  0  0  0  0  0  0  0  0  0
    1.0550   18.0470   -0.0000 C   0  0  0  0  0  0  0  0  0  0  0  0
    1.5510   18.7400    1.2660 C   0  0  0  0  0  0  0  0  0  0  0  0
    3.0090   19.1690    1.1180 C   0  0  2  0  0  0  0  0  0  0  0  0
    3.0880   20.1940    0.1220 O   0  0  0  0  0  0  0  0  0  0  0  0
    3.9570   17.9980    0.7380 C   0  0  0  0  0  0  0  0  0  0  0  0
    4.1040   17.0360    1.9430 C   0  0  0  0  0  0  0  0  0  0  0  0
    5.3690   18.5910    0.4810 C   0  0  0  0  0  0  0  0  0  0  0  0
    1.3200   16.0140   -1.6190 C   0  0  1  0  0  0  0  0  0  0  0  0
    0.8240   17.0230   -2.6990 C   0  0  0  0  0  0  0  0  0  0  0  0
    0.0560   15.1920   -1.1650 C   0  0  0  0  0  0  0  0  0  0  0  0
    0.3090   13.7750   -0.6160 C   0  0  0  0  0  0  0  0  0  0  0  0
    1.2210   12.9780   -1.5530 C   0  0  2  0  0  0  0  0  0  0  0  0
    0.4770   12.8190   -2.9230 C   0  0  0  0  0  0  0  0  0  0  0  0
   -0.9433   10.0835   -2.6235 H   0  0  0  0  0  0  0  0  0  0  0  0
    0.2811   11.2909   -3.1427 H   0  0  0  0  0  0  0  0  0  0  0  0
    0.6886    9.5414   -3.1427 H   0  0  0  0  0  0  0  0  0  0  0  0
    1.0948    9.4903   -0.9135 H   0  0  0  0  0  0  0  0  0  0  0  0
   -0.6376    9.7972    0.4444 H   0  0  0  0  0  0  0  0  0  0  0  0
   -0.2665   11.5871    0.3975 H   0  0  0  0  0  0  0  0  0  0  0  0
   -2.1804   12.0038   -0.6235 H   0  0  0  0  0  0  0  0  0  0  0  0
   -1.7456   10.8414   -1.9455 H   0  0  0  0  0  0  0  0  0  0  0  0
   -3.6529   10.8558   -0.2766 H   0  0  0  0  0  0  0  0  0  0  0  0
   -1.3231    7.5686   -1.4910 H   0  0  0  0  0  0  0  0  0  0  0  0
   -2.7177    7.3508   -2.6020 H   0  0  0  0  0  0  0  0  0  0  0  0
   -1.8022    8.8963   -2.6020 H   0  0  0  0  0  0  0  0  0  0  0  0
   -4.6630    7.8208    0.2763 H   0  0  0  0  0  0  0  0  0  0  0  0
   -5.1962    8.5574   -1.2728 H   0  0  0  0  0  0  0  0  0  0  0  0
   -4.3837    6.9554   -1.2728 H   0  0  0  0  0  0  0  0  0  0  0  0
    1.8051   11.5748    0.0173 H   0  0  0  0  0  0  0  0  0  0  0  0
    3.7051   10.8379   -1.2818 H   0  0  0  0  0  0  0  0  0  0  0  0
    2.7149   10.6003   -2.7378 H   0  0  0  0  0  0  0  0  0  0  0  0
    4.4935   12.7884   -2.2775 H   0  0  0  0  0  0  0  0  0  0  0  0
    3.2578   12.7672   -3.5330 H   0  0  0  0  0  0  0  0  0  0  0  0
    2.6517   13.7158    0.5484 H   0  0  0  0  0  0  0  0  0  0  0  0
    4.1338   13.0470   -0.2150 H   0  0  0  0  0  0  0  0  0  0  0  0
    3.8453   14.8199   -0.2150 H   0  0  0  0  0  0  0  0  0  0  0  0
    2.0117   14.8310   -3.3063 H   0  0  0  0  0  0  0  0  0  0  0  0
    4.5104   15.1611   -2.7736 H   0  0  0  0  0  0  0  0  0  0  0  0
    3.4922   16.5347   -3.4560 H   0  0  0  0  0  0  0  0  0  0  0  0
    5.1767   17.1746   -1.5337 H   0  0  0  0  0  0  0  0  0  0  0  0
    1.8357   16.0527    0.4355 H   0  0  0  0  0  0  0  0  0  0  0  0
    1.0996   18.7627   -0.8342 H   0  0  0  0  0  0  0  0  0  0  0  0
    0.0259   17.7067    0.1873 H   0  0  0  0  0  0  0  0  0  0  0  0
    0.9317   19.6290    1.4559 H   0  0  0  0  0  0  0  0  0  0  0  0
    1.4766   18.0329    2.1053 H   0  0  0  0  0  0  0  0  0  0  0  0
    3.3453   19.5390    2.0978 H   0  0  0  0  0  0  0  0  0  0  0  0
    3.8780   20.0200   -0.4170 H   0  0  0  0  0  0  0  0  0  0  0  0
    4.0169   17.6058    2.8799 H   0  0  0  0  0  0  0  0  0  0  0  0
    3.3119   16.2738    1.9025 H   0  0  0  0  0  0  0  0  0  0  0  0
    5.0876   16.5451    1.9025 H   0  0  0  0  0  0  0  0  0  0  0  0
    5.8606   18.7975    1.4431 H   0  0  0  0  0  0  0  0  0  0  0  0
    5.9711   17.8697   -0.0911 H   0  0  0  0  0  0  0  0  0  0  0  0
    5.2755   19.5259   -0.0911 H   0  0  0  0  0  0  0  0  0  0  0  0
    0.3904   17.9051   -2.2051 H   0  0  0  0  0  0  0  0  0  0  0  0
    1.6718   17.3342   -3.3270 H   0  0  0  0  0  0  0  0  0  0  0  0
    0.0598   16.5417   -3.3270 H   0  0  0  0  0  0  0  0  0  0  0  0
   -0.4504   15.7686   -0.3769 H   0  0  0  0  0  0  0  0  0  0  0  0
   -0.5353   15.0444   -2.0807 H   0  0  0  0  0  0  0  0  0  0  0  0
    0.7871   13.8520    0.3717 H   0  0  0  0  0  0  0  0  0  0  0  0
   -0.6556   13.2522   -0.5376 H   0  0  0  0  0  0  0  0  0  0  0  0
   -0.5837   12.5923   -2.7401 H   0  0  0  0  0  0  0  0  0  0  0  0
    0.5585   13.7549   -3.4953 H   0  0  0  0  0  0  0  0  0  0  0  0
    0.9339   11.9982   -3.4953 H   0  0  0  0  0  0  0  0  0  0  0  0
  1  2  1  0
  2  3  1  0
  3  4  1  0
  4  5  1  0
  5  6  1  0
  6  7  1  0
  7  8  1  0
  7  9  1  0
  2 10  1  0
 10 11  1  0
 11 12  1  0
 12 13  1  0
 13 14  1  1
 13 15  1  0
 15 16  1  0
 16 17  1  0
 17 18  2  0
 18 19  1  0
 19 20  1  0
 20 21  1  0
 21 22  1  0
 22 23  1  0
 22 24  1  0
 24 25  1  0
 24 26  1  0
 19 27  1  0
 27 28  1  6
 27 29  1  0
 29 30  1  0
 30 31  1  0
 31 32  1  6
  7  5  1  0
 31 10  1  0
 31 13  1  0
 27 15  1  0
 24 18  1  0
  1 33  1  0
  1 34  1  0
  1 35  1  0
  2 36  1  1
  3 37  1  0
  3 38  1  0
  4 39  1  0
  4 40  1  0
  5 41  1  1
  8 42  1  0
  8 43  1  0
  8 44  1  0
  9 45  1  0
  9 46  1  0
  9 47  1  0
 10 48  1  1
 11 49  1  0
 11 50  1  0
 12 51  1  0
 12 52  1  0
 14 53  1  0
 14 54  1  0
 14 55  1  0
 15 56  1  6
 16 57  1  0
 16 58  1  0
 17 59  1  0
 19 60  1  1
 20 61  1  0
 20 62  1  0
 21 63  1  0
 21 64  1  0
 22 65  1  1
 23 66  1  0
 25 67  1  0
 25 68  1  0
 25 69  1  0
 26 70  1  0
 26 71  1  0
 26 72  1  0
 28 73  1  0
 28 74  1  0
 28 75  1  0
 29 76  1  0
 29 77  1  0
 30 78  1  0
 30 79  1  0
 32 80  1  0
 32 81  1  0
 32 82  1  0
M  END
>  <meeko>  (18) 
{"is_sidechain": [false], "intermolecular_energy": 2.731, "internal_energy": -0.839}

$$$$
