EPH_relaxed_0001_pdb2pqr_Repair_369_r2_0001_out
     RDKit          3D

 82 86  0  0  0  0  0  0  0  0999 V2000
   -1.3320    8.4650   -1.8680 C   0  0  0  0  0  0  0  0  0  0  0  0
   -1.7880    9.0360   -0.5230 C   0  0  2  0  0  0  0  0  0  0  0  0
   -3.2900    9.3870   -0.5200 C   0  0  0  0  0  0  0  0  0  0  0  0
   -4.2080    8.1640   -0.5810 C   0  0  0  0  0  0  0  0  0  0  0  0
   -4.5620    7.8050   -1.9920 C   0  0  2  0  0  0  0  0  0  0  0  0
   -5.9540    7.9290   -2.3110 O   0  0  0  0  0  0  0  0  0  0  0  0
   -5.4070    6.6010   -2.3630 C   0  0  0  0  0  0  0  0  0  0  0  0
   -5.9510    5.6780   -1.3180 C   0  0  0  0  0  0  0  0  0  0  0  0
   -5.2970    6.0490   -3.7500 C   0  0  0  0  0  0  0  0  0  0  0  0
   -0.9640   10.2710   -0.1760 C   0  0  1  0  0  0  0  0  0  0  0  0
    0.1100    9.9870    0.9080 C   0  0  0  0  0  0  0  0  0  0  0  0
    1.3390   10.8660    0.5610 C   0  0  0  0  0  0  0  0  0  0  0  0
    0.8180   11.8620   -0.5020 C   0  0  1  0  0  0  0  0  0  0  0  0
    0.0920   12.9770    0.3140 C   0  0  0  0  0  0  0  0  0  0  0  0
    1.8890   12.4610   -1.4710 C   0  0  2  0  0  0  0  0  0  0  0  0
    2.9810   13.3070   -0.7940 C   0  0  0  0  0  0  0  0  0  0  0  0
    2.6790   14.7640   -0.6790 C   0  0  0  0  0  0  0  0  0  0  0  0
    1.7120   15.4180   -1.3490 C   0  0  0  0  0  0  0  0  0  0  0  0
    0.8630   14.7000   -2.4060 C   0  0  1  0  0  0  0  0  0  0  0  0
    0.7670   15.5810   -3.6790 C   0  0  0  0  0  0  0  0  0  0  0  0
    0.2580   16.9880   -3.3800 C   0  0  0  0  0  0  0  0  0  0  0  0
    1.1610   17.6900   -2.3700 C   0  0  2  0  0  0  0  0  0  0  0  0
    2.4390   17.9170   -2.9730 O   0  0  0  0  0  0  0  0  0  0  0  0
    1.3410   16.8910   -1.0490 C   0  0  0  0  0  0  0  0  0  0  0  0
    0.0160   16.9050   -0.2480 C   0  0  0  0  0  0  0  0  0  0  0  0
    2.3840   17.6400   -0.1760 C   0  0  0  0  0  0  0  0  0  0  0  0
    1.2820   13.2010   -2.7310 C   0  0  1  0  0  0  0  0  0  0  0  0
    2.3850   13.1840   -3.8320 C   0  0  0  0  0  0  0  0  0  0  0  0
    0.0420   12.4400   -3.3320 C   0  0  0  0  0  0  0  0  0  0  0  0
   -0.9150   11.7680   -2.3290 C   0  0  0  0  0  0  0  0  0  0  0  0
   -0.1400   10.9190   -1.3170 C   0  0  2  0  0  0  0  0  0  0  0  0
    0.5830    9.7750   -2.1070 C   0  0  0  0  0  0  0  0  0  0  0  0
   -0.6541    7.6161   -1.6951 H   0  0  0  0  0  0  0  0  0  0  0  0
   -2.2089    8.1238   -2.4377 H   0  0  0  0  0  0  0  0  0  0  0  0
   -0.8053    9.2447   -2.4377 H   0  0  0  0  0  0  0  0  0  0  0  0
   -1.6293    8.2574    0.2376 H   0  0  0  0  0  0  0  0  0  0  0  0
   -3.5146    9.9441    0.4015 H   0  0  0  0  0  0  0  0  0  0  0  0
   -3.4834    9.9794   -1.4264 H   0  0  0  0  0  0  0  0  0  0  0  0
   -3.6953    7.3101   -0.1141 H   0  0  0  0  0  0  0  0  0  0  0  0
   -5.1379    8.4069   -0.0460 H   0  0  0  0  0  0  0  0  0  0  0  0
   -3.5844    8.1589   -2.3512 H   0  0  0  0  0  0  0  0  0  0  0  0
   -5.7166    6.0757   -0.3196 H   0  0  0  0  0  0  0  0  0  0  0  0
   -7.0419    5.5960   -1.4332 H   0  0  0  0  0  0  0  0  0  0  0  0
   -5.4944    4.6839   -1.4332 H   0  0  0  0  0  0  0  0  0  0  0  0
   -5.0822    4.9713   -3.6998 H   0  0  0  0  0  0  0  0  0  0  0  0
   -6.2448    6.2095   -4.2847 H   0  0  0  0  0  0  0  0  0  0  0  0
   -4.4831    6.5605   -4.2847 H   0  0  0  0  0  0  0  0  0  0  0  0
   -1.7709   10.9497    0.1376 H   0  0  0  0  0  0  0  0  0  0  0  0
   -0.2767   10.2523    1.9030 H   0  0  0  0  0  0  0  0  0  0  0  0
    0.3797    8.9207    0.9270 H   0  0  0  0  0  0  0  0  0  0  0  0
    1.6976   11.4016    1.4524 H   0  0  0  0  0  0  0  0  0  0  0  0
    2.1880   10.2704    0.1943 H   0  0  0  0  0  0  0  0  0  0  0  0
    0.2173   12.7846    1.3898 H   0  0  0  0  0  0  0  0  0  0  0  0
    0.5262   13.9562    0.0637 H   0  0  0  0  0  0  0  0  0  0  0  0
   -0.9791   12.9760    0.0637 H   0  0  0  0  0  0  0  0  0  0  0  0
    2.3981   11.5605   -1.8450 H   0  0  0  0  0  0  0  0  0  0  0  0
    3.1376   12.9112    0.2203 H   0  0  0  0  0  0  0  0  0  0  0  0
    3.8689   13.2302   -1.4388 H   0  0  0  0  0  0  0  0  0  0  0  0
    3.2994   15.3535    0.0120 H   0  0  0  0  0  0  0  0  0  0  0  0
   -0.1356   14.5767   -1.9615 H   0  0  0  0  0  0  0  0  0  0  0  0
    1.7667   15.6565   -4.1317 H   0  0  0  0  0  0  0  0  0  0  0  0
    0.0483   15.1041   -4.3616 H   0  0  0  0  0  0  0  0  0  0  0  0
    0.2400   17.5704   -4.3130 H   0  0  0  0  0  0  0  0  0  0  0  0
   -0.7537   16.9130   -2.9546 H   0  0  0  0  0  0  0  0  0  0  0  0
    0.6757   18.6391   -2.0985 H   0  0  0  0  0  0  0  0  0  0  0  0
    2.5730   17.2280   -3.6460 H   0  0  0  0  0  0  0  0  0  0  0  0
    0.2387   16.9026    0.8292 H   0  0  0  0  0  0  0  0  0  0  0  0
   -0.5565   17.8092   -0.5021 H   0  0  0  0  0  0  0  0  0  0  0  0
   -0.5755   16.0131   -0.5021 H   0  0  0  0  0  0  0  0  0  0  0  0
    2.1567   17.4768    0.8878 H   0  0  0  0  0  0  0  0  0  0  0  0
    3.3910   17.2574   -0.3987 H   0  0  0  0  0  0  0  0  0  0  0  0
    2.3432   18.7165   -0.3987 H   0  0  0  0  0  0  0  0  0  0  0  0
    3.3770   13.1687   -3.3570 H   0  0  0  0  0  0  0  0  0  0  0  0
    2.2644   12.2876   -4.4580 H   0  0  0  0  0  0  0  0  0  0  0  0
    2.2921   14.0837   -4.4580 H   0  0  0  0  0  0  0  0  0  0  0  0
   -0.5435   13.1664   -3.9148 H   0  0  0  0  0  0  0  0  0  0  0  0
    0.4690   11.6138   -3.9194 H   0  0  0  0  0  0  0  0  0  0  0  0
   -1.4767   12.5458   -1.7910 H   0  0  0  0  0  0  0  0  0  0  0  0
   -1.6016   11.1122   -2.8845 H   0  0  0  0  0  0  0  0  0  0  0  0
    1.0315    9.0653   -1.3962 H   0  0  0  0  0  0  0  0  0  0  0  0
   -0.1467    9.2485   -2.7397 H   0  0  0  0  0  0  0  0  0  0  0  0
    1.3717   10.2081   -2.7397 H   0  0  0  0  0  0  0  0  0  0  0  0
  1  2  1  0
  2  3  1  0
  3  4  1  0
  4  5  1  0
  5  6  1  0
  6  7  1  0
  7  8  1  0
  7  9  1  0
  2 10  1  0
 10 11  1  0
 11 12  1  0
 12 13  1  0
 13 14  1  1
 13 15  1  0
 15 16  1  0
 16 17  1  0
 17 18  2  0
 18 19  1  0
 19 20  1  0
 20 21  1  0
 21 22  1  0
 22 23  1  0
 22 24  1  0
 24 25  1  0
 24 26  1  0
 19 27  1  0
 27 28  1  6
 27 29  1  0
 29 30  1  0
 30 31  1  0
 31 32  1  6
  7  5  1  0
 31 10  1  0
 31 13  1  0
 27 15  1  0
 24 18  1  0
  1 33  1  0
  1 34  1  0
  1 35  1  0
  2 36  1  1
  3 37  1  0
  3 38  1  0
  4 39  1  0
  4 40  1  0
  5 41  1  6
  8 42  1  0
  8 43  1  0
  8 44  1  0
  9 45  1  0
  9 46  1  0
  9 47  1  0
 10 48  1  1
 11 49  1  0
 11 50  1  0
 12 51  1  0
 12 52  1  0
 14 53  1  0
 14 54  1  0
 14 55  1  0
 15 56  1  6
 16 57  1  0
 16 58  1  0
 17 59  1  0
 19 60  1  1
 20 61  1  0
 20 62  1  0
 21 63  1  0
 21 64  1  0
 22 65  1  1
 23 66  1  0
 25 67  1  0
 25 68  1  0
 25 69  1  0
 26 70  1  0
 26 71  1  0
 26 72  1  0
 28 73  1  0
 28 74  1  0
 28 75  1  0
 29 76  1  0
 29 77  1  0
 30 78  1  0
 30 79  1  0
 32 80  1  0
 32 81  1  0
 32 82  1  0
M  END
>  <meeko>  (1) 
{"is_sidechain": [false], "intermolecular_energy": 2.731, "internal_energy": -0.839}

$$$$
EPH_relaxed_0001_pdb2pqr_Repair_369_r2_0001_out
     RDKit          3D

 82 86  0  0  0  0  0  0  0  0999 V2000
    4.1920   17.5570   -0.6700 C   0  0  0  0  0  0  0  0  0  0  0  0
    2.8310   18.1260   -0.2610 C   0  0  2  0  0  0  0  0  0  0  0  0
    2.8790   18.8150    1.1180 C   0  0  0  0  0  0  0  0  0  0  0  0
    4.2420   18.7150    1.8080 C   0  0  0  0  0  0  0  0  0  0  0  0
    4.1980   19.2610    3.2030 C   0  0  2  0  0  0  0  0  0  0  0  0
    5.2410   20.1940    3.5140 O   0  0  0  0  0  0  0  0  0  0  0  0
    5.2530   18.9620    4.2520 C   0  0  0  0  0  0  0  0  0  0  0  0
    6.4260   18.0830    3.9500 C   0  0  0  0  0  0  0  0  0  0  0  0
    4.8910   19.1210    5.6960 C   0  0  0  0  0  0  0  0  0  0  0  0
    1.7850   17.0170   -0.2530 C   0  0  1  0  0  0  0  0  0  0  0  0
    0.3600   17.5370   -0.5810 C   0  0  0  0  0  0  0  0  0  0  0  0
   -0.3510   16.4170   -1.3840 C   0  0  0  0  0  0  0  0  0  0  0  0
    0.5550   15.1760   -1.2070 C   0  0  1  0  0  0  0  0  0  0  0  0
    0.1690   14.5930    0.1890 C   0  0  0  0  0  0  0  0  0  0  0  0
    0.4670   14.0910   -2.3300 C   0  0  2  0  0  0  0  0  0  0  0  0
   -0.9110   13.4230   -2.4850 C   0  0  0  0  0  0  0  0  0  0  0  0
   -1.1180   12.1910   -1.6680 C   0  0  0  0  0  0  0  0  0  0  0  0
   -0.1470   11.4820   -1.0630 C   0  0  0  0  0  0  0  0  0  0  0  0
    1.3300   11.8480   -1.2510 C   0  0  1  0  0  0  0  0  0  0  0  0
    2.1480   10.5640   -1.5520 C   0  0  0  0  0  0  0  0  0  0  0  0
    1.9450    9.4810   -0.4970 C   0  0  0  0  0  0  0  0  0  0  0  0
    0.4710    9.1030   -0.3800 C   0  0  2  0  0  0  0  0  0  0  0  0
    0.0600    8.4680   -1.5940 O   0  0  0  0  0  0  0  0  0  0  0  0
   -0.4520   10.3180   -0.0870 C   0  0  0  0  0  0  0  0  0  0  0  0
   -0.2100   10.8200    1.3580 C   0  0  0  0  0  0  0  0  0  0  0  0
   -1.9230    9.8230   -0.1340 C   0  0  0  0  0  0  0  0  0  0  0  0
    1.6280   13.0170   -2.2860 C   0  0  1  0  0  0  0  0  0  0  0  0
    1.7510   12.4340   -3.7270 C   0  0  0  0  0  0  0  0  0  0  0  0
    3.0250   13.6600   -1.9470 C   0  0  0  0  0  0  0  0  0  0  0  0
    3.0310   14.8080   -0.9190 C   0  0  0  0  0  0  0  0  0  0  0  0
    1.9700   15.8580   -1.2630 C   0  0  2  0  0  0  0  0  0  0  0  0
    2.3450   16.4770   -2.6530 C   0  0  0  0  0  0  0  0  0  0  0  0
    4.7736   17.3138    0.2314 H   0  0  0  0  0  0  0  0  0  0  0  0
    4.0437   16.6455   -1.2677 H   0  0  0  0  0  0  0  0  0  0  0  0
    4.7366   18.3028   -1.2677 H   0  0  0  0  0  0  0  0  0  0  0  0
    2.5566   18.8910   -1.0023 H   0  0  0  0  0  0  0  0  0  0  0  0
    2.6350   19.8791    0.9834 H   0  0  0  0  0  0  0  0  0  0  0  0
    2.1534   18.2967    1.7621 H   0  0  0  0  0  0  0  0  0  0  0  0
    4.5447   17.6582    1.8481 H   0  0  0  0  0  0  0  0  0  0  0  0
    4.9640   19.3099    1.2293 H   0  0  0  0  0  0  0  0  0  0  0  0
    3.1002   19.1934    3.2201 H   0  0  0  0  0  0  0  0  0  0  0  0
    6.8809   17.7421    4.8918 H   0  0  0  0  0  0  0  0  0  0  0  0
    6.0911   17.2117    3.3681 H   0  0  0  0  0  0  0  0  0  0  0  0
    7.1682   18.6491    3.3681 H   0  0  0  0  0  0  0  0  0  0  0  0
    5.7182   18.7577    6.3235 H   0  0  0  0  0  0  0  0  0  0  0  0
    4.7056   20.1834    5.9127 H   0  0  0  0  0  0  0  0  0  0  0  0
    3.9832   18.5387    5.9127 H   0  0  0  0  0  0  0  0  0  0  0  0
    1.9181   16.6459    0.7739 H   0  0  0  0  0  0  0  0  0  0  0  0
   -0.1906   17.7448    0.3483 H   0  0  0  0  0  0  0  0  0  0  0  0
    0.4040   18.4712   -1.1601 H   0  0  0  0  0  0  0  0  0  0  0  0
   -1.3554   16.2258   -0.9782 H   0  0  0  0  0  0  0  0  0  0  0  0
   -0.4896   16.6853   -2.4417 H   0  0  0  0  0  0  0  0  0  0  0  0
    0.5903   15.2293    0.9813 H   0  0  0  0  0  0  0  0  0  0  0  0
   -0.9265   14.5653    0.2846 H   0  0  0  0  0  0  0  0  0  0  0  0
    0.5713   13.5737    0.2846 H   0  0  0  0  0  0  0  0  0  0  0  0
    0.6161   14.6847   -3.2440 H   0  0  0  0  0  0  0  0  0  0  0  0
   -1.6785   14.1558   -2.1953 H   0  0  0  0  0  0  0  0  0  0  0  0
   -0.9789   13.1060   -3.5361 H   0  0  0  0  0  0  0  0  0  0  0  0
   -2.1512   11.8323   -1.5505 H   0  0  0  0  0  0  0  0  0  0  0  0
    1.6586   12.2849   -0.2965 H   0  0  0  0  0  0  0  0  0  0  0  0
    1.8352   10.1675   -2.5292 H   0  0  0  0  0  0  0  0  0  0  0  0
    3.2133   10.8381   -1.5488 H   0  0  0  0  0  0  0  0  0  0  0  0
    2.5239    8.5895   -0.7802 H   0  0  0  0  0  0  0  0  0  0  0  0
    2.2862    9.8686    0.4742 H   0  0  0  0  0  0  0  0  0  0  0  0
    0.3728    8.4212    0.4776 H   0  0  0  0  0  0  0  0  0  0  0  0
   -0.8870    8.6520   -1.7170 H   0  0  0  0  0  0  0  0  0  0  0  0
   -0.5729   10.0672    2.0733 H   0  0  0  0  0  0  0  0  0  0  0  0
    0.8664   10.9846    1.5135 H   0  0  0  0  0  0  0  0  0  0  0  0
   -0.7517   11.7647    1.5135 H   0  0  0  0  0  0  0  0  0  0  0  0
   -2.3001    9.6961    0.8915 H   0  0  0  0  0  0  0  0  0  0  0  0
   -2.5419   10.5624   -0.6634 H   0  0  0  0  0  0  0  0  0  0  0  0
   -1.9690    8.8599   -0.6634 H   0  0  0  0  0  0  0  0  0  0  0  0
    1.9778   11.3592   -3.6696 H   0  0  0  0  0  0  0  0  0  0  0  0
    0.8022   12.5804   -4.2640 H   0  0  0  0  0  0  0  0  0  0  0  0
    2.5598   12.9512   -4.2640 H   0  0  0  0  0  0  0  0  0  0  0  0
    3.6731   12.8612   -1.5574 H   0  0  0  0  0  0  0  0  0  0  0  0
    3.3682   14.1148   -2.8880 H   0  0  0  0  0  0  0  0  0  0  0  0
    2.8206   14.3977    0.0797 H   0  0  0  0  0  0  0  0  0  0  0  0
    4.0198   15.2897   -0.9371 H   0  0  0  0  0  0  0  0  0  0  0  0
    2.9094   17.4086   -2.4993 H   0  0  0  0  0  0  0  0  0  0  0  0
    2.9626   15.7631   -3.2177 H   0  0  0  0  0  0  0  0  0  0  0  0
    1.4263   16.6938   -3.2177 H   0  0  0  0  0  0  0  0  0  0  0  0
  1  2  1  0
  2  3  1  0
  3  4  1  0
  4  5  1  0
  5  6  1  0
  6  7  1  0
  7  8  1  0
  7  9  1  0
  2 10  1  0
 10 11  1  0
 11 12  1  0
 12 13  1  0
 13 14  1  1
 13 15  1  0
 15 16  1  0
 16 17  1  0
 17 18  2  0
 18 19  1  0
 19 20  1  0
 20 21  1  0
 21 22  1  0
 22 23  1  0
 22 24  1  0
 24 25  1  0
 24 26  1  0
 19 27  1  0
 27 28  1  6
 27 29  1  0
 29 30  1  0
 30 31  1  0
 31 32  1  6
  7  5  1  0
 31 10  1  0
 31 13  1  0
 27 15  1  0
 24 18  1  0
  1 33  1  0
  1 34  1  0
  1 35  1  0
  2 36  1  6
  3 37  1  0
  3 38  1  0
  4 39  1  0
  4 40  1  0
  5 41  1  1
  8 42  1  0
  8 43  1  0
  8 44  1  0
  9 45  1  0
  9 46  1  0
  9 47  1  0
 10 48  1  1
 11 49  1  0
 11 50  1  0
 12 51  1  0
 12 52  1  0
 14 53  1  0
 14 54  1  0
 14 55  1  0
 15 56  1  6
 16 57  1  0
 16 58  1  0
 17 59  1  0
 19 60  1  1
 20 61  1  0
 20 62  1  0
 21 63  1  0
 21 64  1  0
 22 65  1  1
 23 66  1  0
 25 67  1  0
 25 68  1  0
 25 69  1  0
 26 70  1  0
 26 71  1  0
 26 72  1  0
 28 73  1  0
 28 74  1  0
 28 75  1  0
 29 76  1  0
 29 77  1  0
 30 78  1  0
 30 79  1  0
 32 80  1  0
 32 81  1  0
 32 82  1  0
M  END
>  <meeko>  (2) 
{"is_sidechain": [false], "intermolecular_energy": 2.731, "internal_energy": -0.839}

$$$$
EPH_relaxed_0001_pdb2pqr_Repair_369_r2_0001_out
     RDKit          3D

 82 86  0  0  0  0  0  0  0  0999 V2000
    2.1740   18.0580   -2.6000 C   0  0  0  0  0  0  0  0  0  0  0  0
    0.6510   17.8950   -2.6270 C   0  0  2  0  0  0  0  0  0  0  0  0
   -0.0050   18.3470   -1.3080 C   0  0  0  0  0  0  0  0  0  0  0  0
    0.7690   17.9220   -0.0570 C   0  0  0  0  0  0  0  0  0  0  0  0
    1.2910   19.1060    0.7000 C   0  0  2  0  0  0  0  0  0  0  0  0
    2.1700   19.9550   -0.0480 O   0  0  0  0  0  0  0  0  0  0  0  0
    2.7500   19.2790    1.0790 C   0  0  0  0  0  0  0  0  0  0  0  0
    3.7790   18.2560    0.7120 C   0  0  0  0  0  0  0  0  0  0  0  0
    3.0900   20.1890    2.2180 C   0  0  0  0  0  0  0  0  0  0  0  0
    0.2900   16.4430   -2.9180 C   0  0  1  0  0  0  0  0  0  0  0  0
    0.3480   16.1040   -4.4310 C   0  0  0  0  0  0  0  0  0  0  0  0
    0.8460   14.6400   -4.5430 C   0  0  0  0  0  0  0  0  0  0  0  0
    0.7400   14.0810   -3.1050 C   0  0  1  0  0  0  0  0  0  0  0  0
   -0.7620   13.6900   -2.9360 C   0  0  0  0  0  0  0  0  0  0  0  0
    1.6900   12.8890   -2.7550 C   0  0  2  0  0  0  0  0  0  0  0  0
    1.4620   11.6100   -3.5790 C   0  0  0  0  0  0  0  0  0  0  0  0
    0.4890   10.6400   -2.9940 C   0  0  0  0  0  0  0  0  0  0  0  0
    0.0400   10.6510   -1.7250 C   0  0  0  0  0  0  0  0  0  0  0  0
    0.5910   11.6540   -0.7030 C   0  0  1  0  0  0  0  0  0  0  0  0
    0.9230   10.9160    0.6200 C   0  0  0  0  0  0  0  0  0  0  0  0
   -0.2630   10.1240    1.1610 C   0  0  0  0  0  0  0  0  0  0  0  0
   -0.7450    9.0970    0.1400 C   0  0  2  0  0  0  0  0  0  0  0  0
    0.2720    8.1040   -0.0310 O   0  0  0  0  0  0  0  0  0  0  0  0
   -1.1000    9.7230   -1.2380 C   0  0  0  0  0  0  0  0  0  0  0  0
   -2.3920   10.5680   -1.1080 C   0  0  0  0  0  0  0  0  0  0  0  0
   -1.4350    8.5660   -2.2160 C   0  0  0  0  0  0  0  0  0  0  0  0
    1.7870   12.5710   -1.2080 C   0  0  1  0  0  0  0  0  0  0  0  0
    3.1470   11.8400   -0.9890 C   0  0  0  0  0  0  0  0  0  0  0  0
    1.8390   13.8770   -0.3300 C   0  0  0  0  0  0  0  0  0  0  0  0
    0.9700   15.0610   -0.7950 C   0  0  0  0  0  0  0  0  0  0  0  0
    1.1840   15.3470   -2.2850 C   0  0  2  0  0  0  0  0  0  0  0  0
    2.6810   15.7650   -2.4820 C   0  0  0  0  0  0  0  0  0  0  0  0
    2.5203   18.0951   -1.5566 H   0  0  0  0  0  0  0  0  0  0  0  0
    2.6432   17.2049   -3.1120 H   0  0  0  0  0  0  0  0  0  0  0  0
    2.4520   18.9910   -3.1120 H   0  0  0  0  0  0  0  0  0  0  0  0
    0.2625   18.5427   -3.4268 H   0  0  0  0  0  0  0  0  0  0  0  0
   -0.0778   19.4446   -1.3149 H   0  0  0  0  0  0  0  0  0  0  0  0
   -0.9903   17.8607   -1.2564 H   0  0  0  0  0  0  0  0  0  0  0  0
    0.0989   17.3467    0.5987 H   0  0  0  0  0  0  0  0  0  0  0  0
    1.6275   17.3123   -0.3752 H   0  0  0  0  0  0  0  0  0  0  0  0
    0.3633   19.1689    1.2877 H   0  0  0  0  0  0  0  0  0  0  0  0
    4.2114   17.8261    1.6275 H   0  0  0  0  0  0  0  0  0  0  0  0
    3.3077   17.4581    0.1194 H   0  0  0  0  0  0  0  0  0  0  0  0
    4.5741   18.7320    0.1194 H   0  0  0  0  0  0  0  0  0  0  0  0
    2.8971   19.6727    3.1700 H   0  0  0  0  0  0  0  0  0  0  0  0
    4.1527   20.4671    2.1605 H   0  0  0  0  0  0  0  0  0  0  0  0
    2.4700   21.0958    2.1605 H   0  0  0  0  0  0  0  0  0  0  0  0
   -0.7159   16.4113   -2.4740 H   0  0  0  0  0  0  0  0  0  0  0  0
   -0.6521   16.1992   -4.8791 H   0  0  0  0  0  0  0  0  0  0  0  0
    1.0208   16.7918   -4.9642 H   0  0  0  0  0  0  0  0  0  0  0  0
    0.2092   14.0648   -5.2312 H   0  0  0  0  0  0  0  0  0  0  0  0
    1.8696   14.5768   -4.9408 H   0  0  0  0  0  0  0  0  0  0  0  0
   -1.0061   13.6265   -1.8653 H   0  0  0  0  0  0  0  0  0  0  0  0
   -1.3953   14.4532   -3.4118 H   0  0  0  0  0  0  0  0  0  0  0  0
   -0.9428   12.7149   -3.4118 H   0  0  0  0  0  0  0  0  0  0  0  0
    2.6738   13.2718   -3.0643 H   0  0  0  0  0  0  0  0  0  0  0  0
    1.0916   11.9064   -4.5714 H   0  0  0  0  0  0  0  0  0  0  0  0
    2.4307   11.0897   -3.6080 H   0  0  0  0  0  0  0  0  0  0  0  0
    0.1067    9.8493   -3.6563 H   0  0  0  0  0  0  0  0  0  0  0  0
   -0.2125   12.3851   -0.5300 H   0  0  0  0  0  0  0  0  0  0  0  0
    1.7566   10.2220    0.4371 H   0  0  0  0  0  0  0  0  0  0  0  0
    1.1867   11.6766    1.3697 H   0  0  0  0  0  0  0  0  0  0  0  0
    0.0419    9.6021    2.0801 H   0  0  0  0  0  0  0  0  0  0  0  0
   -1.0858   10.8234    1.3705 H   0  0  0  0  0  0  0  0  0  0  0  0
   -1.6722    8.6531    0.5315 H   0  0  0  0  0  0  0  0  0  0  0  0
    1.0450    8.3820    0.4890 H   0  0  0  0  0  0  0  0  0  0  0  0
   -2.6249   10.7204   -0.0438 H   0  0  0  0  0  0  0  0  0  0  0  0
   -2.2426   11.5435   -1.5939 H   0  0  0  0  0  0  0  0  0  0  0  0
   -3.2258   10.0401   -1.5939 H   0  0  0  0  0  0  0  0  0  0  0  0
   -1.6960    7.6647   -1.6420 H   0  0  0  0  0  0  0  0  0  0  0  0
   -2.2860    8.8563   -2.8497 H   0  0  0  0  0  0  0  0  0  0  0  0
   -0.5606    8.3567   -2.8497 H   0  0  0  0  0  0  0  0  0  0  0  0
    3.3385   11.7371    0.0893 H   0  0  0  0  0  0  0  0  0  0  0  0
    3.1057   10.8425   -1.4509 H   0  0  0  0  0  0  0  0  0  0  0  0
    3.9561   12.4248   -1.4509 H   0  0  0  0  0  0  0  0  0  0  0  0
    1.5177   13.6075    0.6869 H   0  0  0  0  0  0  0  0  0  0  0  0
    2.8767   14.2340   -0.4059 H   0  0  0  0  0  0  0  0  0  0  0  0
   -0.0893   14.8189   -0.6236 H   0  0  0  0  0  0  0  0  0  0  0  0
    1.2587   15.9542   -0.2216 H   0  0  0  0  0  0  0  0  0  0  0  0
    3.1570   15.8979   -1.4992 H   0  0  0  0  0  0  0  0  0  0  0  0
    3.2101   14.9802   -3.0425 H   0  0  0  0  0  0  0  0  0  0  0  0
    2.7270   16.7103   -3.0425 H   0  0  0  0  0  0  0  0  0  0  0  0
  1  2  1  0
  2  3  1  0
  3  4  1  0
  4  5  1  0
  5  6  1  0
  6  7  1  0
  7  8  1  0
  7  9  1  0
  2 10  1  0
 10 11  1  0
 11 12  1  0
 12 13  1  0
 13 14  1  1
 13 15  1  0
 15 16  1  0
 16 17  1  0
 17 18  2  0
 18 19  1  0
 19 20  1  0
 20 21  1  0
 21 22  1  0
 22 23  1  0
 22 24  1  0
 24 25  1  0
 24 26  1  0
 19 27  1  0
 27 28  1  6
 27 29  1  0
 29 30  1  0
 30 31  1  0
 31 32  1  1
  7  5  1  0
 31 10  1  0
 31 13  1  0
 27 15  1  0
 24 18  1  0
  1 33  1  0
  1 34  1  0
  1 35  1  0
  2 36  1  6
  3 37  1  0
  3 38  1  0
  4 39  1  0
  4 40  1  0
  5 41  1  1
  8 42  1  0
  8 43  1  0
  8 44  1  0
  9 45  1  0
  9 46  1  0
  9 47  1  0
 10 48  1  1
 11 49  1  0
 11 50  1  0
 12 51  1  0
 12 52  1  0
 14 53  1  0
 14 54  1  0
 14 55  1  0
 15 56  1  6
 16 57  1  0
 16 58  1  0
 17 59  1  0
 19 60  1  1
 20 61  1  0
 20 62  1  0
 21 63  1  0
 21 64  1  0
 22 65  1  1
 23 66  1  0
 25 67  1  0
 25 68  1  0
 25 69  1  0
 26 70  1  0
 26 71  1  0
 26 72  1  0
 28 73  1  0
 28 74  1  0
 28 75  1  0
 29 76  1  0
 29 77  1  0
 30 78  1  0
 30 79  1  0
 32 80  1  0
 32 81  1  0
 32 82  1  0
M  END
>  <meeko>  (3) 
{"is_sidechain": [false], "intermolecular_energy": 2.731, "internal_energy": -0.839}

$$$$
EPH_relaxed_0001_pdb2pqr_Repair_369_r2_0001_out
     RDKit          3D

 82 86  0  0  0  0  0  0  0  0999 V2000
    2.4070   18.0650   -2.6710 C   0  0  0  0  0  0  0  0  0  0  0  0
    1.0970   17.6930   -1.9710 C   0  0  2  0  0  0  0  0  0  0  0  0
    1.2210   17.7570   -0.4350 C   0  0  0  0  0  0  0  0  0  0  0  0
    0.8660   19.1250    0.1550 C   0  0  0  0  0  0  0  0  0  0  0  0
   -0.5830   19.2080    0.5290 C   0  0  2  0  0  0  0  0  0  0  0  0
   -1.4320   18.2750   -0.1520 O   0  0  0  0  0  0  0  0  0  0  0  0
   -1.6690   19.6650   -0.4260 C   0  0  0  0  0  0  0  0  0  0  0  0
   -1.3520   20.0700   -1.8320 C   0  0  0  0  0  0  0  0  0  0  0  0
   -2.9530   20.1820    0.1440 C   0  0  0  0  0  0  0  0  0  0  0  0
    0.6560   16.2990   -2.4000 C   0  0  1  0  0  0  0  0  0  0  0  0
    0.7640   16.0830   -3.9330 C   0  0  0  0  0  0  0  0  0  0  0  0
    1.1710   14.6030   -4.1500 C   0  0  0  0  0  0  0  0  0  0  0  0
    0.9590   13.9350   -2.7710 C   0  0  1  0  0  0  0  0  0  0  0  0
   -0.5710   13.6360   -2.7000 C   0  0  0  0  0  0  0  0  0  0  0  0
    1.8110   12.6560   -2.4850 C   0  0  2  0  0  0  0  0  0  0  0  0
    1.5400   11.4680   -3.4240 C   0  0  0  0  0  0  0  0  0  0  0  0
    0.4790   10.5220   -2.9670 C   0  0  0  0  0  0  0  0  0  0  0  0
   -0.0280   10.4590   -1.7220 C   0  0  0  0  0  0  0  0  0  0  0  0
    0.5380   11.3330   -0.5950 C   0  0  1  0  0  0  0  0  0  0  0  0
    0.7570   10.4670    0.6730 C   0  0  0  0  0  0  0  0  0  0  0  0
   -0.5020    9.7160    1.0930 C   0  0  0  0  0  0  0  0  0  0  0  0
   -1.0010    8.8130   -0.0320 C   0  0  2  0  0  0  0  0  0  0  0  0
   -0.0440    7.7700   -0.2450 O   0  0  0  0  0  0  0  0  0  0  0  0
   -1.2480    9.5750   -1.3640 C   0  0  0  0  0  0  0  0  0  0  0  0
   -2.4870   10.4930   -1.2170 C   0  0  0  0  0  0  0  0  0  0  0  0
   -1.6110    8.5280   -2.4520 C   0  0  0  0  0  0  0  0  0  0  0  0
    1.8140   12.2040   -0.9680 C   0  0  1  0  0  0  0  0  0  0  0  0
    3.1110   11.3650   -0.7550 C   0  0  0  0  0  0  0  0  0  0  0  0
    1.9090   13.4270    0.0200 C   0  0  0  0  0  0  0  0  0  0  0  0
    1.1420   14.7020   -0.3770 C   0  0  0  0  0  0  0  0  0  0  0  0
    1.4450   15.0950   -1.8270 C   0  0  2  0  0  0  0  0  0  0  0  0
    2.9740   15.4230   -1.9240 C   0  0  0  0  0  0  0  0  0  0  0  0
    3.1768   18.2836   -1.9163 H   0  0  0  0  0  0  0  0  0  0  0  0
    2.7380   17.2253   -3.2998 H   0  0  0  0  0  0  0  0  0  0  0  0
    2.2473   18.9533   -3.2998 H   0  0  0  0  0  0  0  0  0  0  0  0
    0.3395   18.4316   -2.2723 H   0  0  0  0  0  0  0  0  0  0  0  0
    0.5454   17.0055   -0.0005 H   0  0  0  0  0  0  0  0  0  0  0  0
    2.2759   17.5650   -0.1894 H   0  0  0  0  0  0  0  0  0  0  0  0
    1.4766   19.2948    1.0541 H   0  0  0  0  0  0  0  0  0  0  0  0
    1.0676   19.8907   -0.6086 H   0  0  0  0  0  0  0  0  0  0  0  0
   -0.3247   19.5143    1.5534 H   0  0  0  0  0  0  0  0  0  0  0  0
   -0.6740   20.9362   -1.8201 H   0  0  0  0  0  0  0  0  0  0  0  0
   -0.8673   19.2321   -2.3545 H   0  0  0  0  0  0  0  0  0  0  0  0
   -2.2818   20.3393   -2.3545 H   0  0  0  0  0  0  0  0  0  0  0  0
   -2.9012   20.1611    1.2426 H   0  0  0  0  0  0  0  0  0  0  0  0
   -3.1152   21.2155   -0.1959 H   0  0  0  0  0  0  0  0  0  0  0  0
   -3.7861   19.5492   -0.1959 H   0  0  0  0  0  0  0  0  0  0  0  0
   -0.3697   16.3007   -2.0026 H   0  0  0  0  0  0  0  0  0  0  0  0
   -0.2054   16.2833   -4.4127 H   0  0  0  0  0  0  0  0  0  0  0  0
    1.5048   16.7648   -4.3761 H   0  0  0  0  0  0  0  0  0  0  0  0
    0.5325   14.1322   -4.9120 H   0  0  0  0  0  0  0  0  0  0  0  0
    2.2063   14.5028   -4.5078 H   0  0  0  0  0  0  0  0  0  0  0  0
   -0.8842   13.5748   -1.6473 H   0  0  0  0  0  0  0  0  0  0  0  0
   -1.1259   14.4427   -3.2013 H   0  0  0  0  0  0  0  0  0  0  0  0
   -0.7814   12.6798   -3.2013 H   0  0  0  0  0  0  0  0  0  0  0  0
    2.8308   12.9957   -2.7189 H   0  0  0  0  0  0  0  0  0  0  0  0
    1.2381   11.8702   -4.4023 H   0  0  0  0  0  0  0  0  0  0  0  0
    2.4730   10.8862   -3.4552 H   0  0  0  0  0  0  0  0  0  0  0  0
    0.0781    9.8174   -3.7105 H   0  0  0  0  0  0  0  0  0  0  0  0
   -0.2236   12.1009   -0.3942 H   0  0  0  0  0  0  0  0  0  0  0  0
    1.5520    9.7351    0.4671 H   0  0  0  0  0  0  0  0  0  0  0  0
    1.0324   11.1433    1.4957 H   0  0  0  0  0  0  0  0  0  0  0  0
   -0.2757    9.0996    1.9755 H   0  0  0  0  0  0  0  0  0  0  0  0
   -1.2866   10.4505    1.3271 H   0  0  0  0  0  0  0  0  0  0  0  0
   -1.9727    8.4027    0.2802 H   0  0  0  0  0  0  0  0  0  0  0  0
   -0.4590    7.1040   -0.8180 H   0  0  0  0  0  0  0  0  0  0  0  0
   -2.7012   10.6517   -0.1498 H   0  0  0  0  0  0  0  0  0  0  0  0
   -2.2851   11.4612   -1.6984 H   0  0  0  0  0  0  0  0  0  0  0  0
   -3.3545   10.0179   -1.6984 H   0  0  0  0  0  0  0  0  0  0  0  0
   -1.9347    7.5943   -1.9689 H   0  0  0  0  0  0  0  0  0  0  0  0
   -2.4263    8.9182   -3.0789 H   0  0  0  0  0  0  0  0  0  0  0  0
   -0.7291    8.3298   -3.0789 H   0  0  0  0  0  0  0  0  0  0  0  0
    3.2970   11.2447    0.3225 H   0  0  0  0  0  0  0  0  0  0  0  0
    2.9876   10.3751   -1.2186 H   0  0  0  0  0  0  0  0  0  0  0  0
    3.9633   11.8834   -1.2186 H   0  0  0  0  0  0  0  0  0  0  0  0
    1.5234   13.0970    0.9959 H   0  0  0  0  0  0  0  0  0  0  0  0
    2.9701   13.7171    0.0175 H   0  0  0  0  0  0  0  0  0  0  0  0
    0.0623   14.5200   -0.2716 H   0  0  0  0  0  0  0  0  0  0  0  0
    1.4602   15.5226    0.2828 H   0  0  0  0  0  0  0  0  0  0  0  0
    3.3946   15.5132   -0.9116 H   0  0  0  0  0  0  0  0  0  0  0  0
    3.4888   14.6149   -2.4643 H   0  0  0  0  0  0  0  0  0  0  0  0
    3.1121   16.3712   -2.4643 H   0  0  0  0  0  0  0  0  0  0  0  0
  1  2  1  0
  2  3  1  0
  3  4  1  0
  4  5  1  0
  5  6  1  0
  6  7  1  0
  7  8  1  0
  7  9  1  0
  2 10  1  0
 10 11  1  0
 11 12  1  0
 12 13  1  0
 13 14  1  1
 13 15  1  0
 15 16  1  0
 16 17  1  0
 17 18  2  0
 18 19  1  0
 19 20  1  0
 20 21  1  0
 21 22  1  0
 22 23  1  0
 22 24  1  0
 24 25  1  0
 24 26  1  0
 19 27  1  0
 27 28  1  6
 27 29  1  0
 29 30  1  0
 30 31  1  0
 31 32  1  1
  7  5  1  0
 31 10  1  0
 31 13  1  0
 27 15  1  0
 24 18  1  0
  1 33  1  0
  1 34  1  0
  1 35  1  0
  2 36  1  6
  3 37  1  0
  3 38  1  0
  4 39  1  0
  4 40  1  0
  5 41  1  1
  8 42  1  0
  8 43  1  0
  8 44  1  0
  9 45  1  0
  9 46  1  0
  9 47  1  0
 10 48  1  1
 11 49  1  0
 11 50  1  0
 12 51  1  0
 12 52  1  0
 14 53  1  0
 14 54  1  0
 14 55  1  0
 15 56  1  6
 16 57  1  0
 16 58  1  0
 17 59  1  0
 19 60  1  1
 20 61  1  0
 20 62  1  0
 21 63  1  0
 21 64  1  0
 22 65  1  1
 23 66  1  0
 25 67  1  0
 25 68  1  0
 25 69  1  0
 26 70  1  0
 26 71  1  0
 26 72  1  0
 28 73  1  0
 28 74  1  0
 28 75  1  0
 29 76  1  0
 29 77  1  0
 30 78  1  0
 30 79  1  0
 32 80  1  0
 32 81  1  0
 32 82  1  0
M  END
>  <meeko>  (4) 
{"is_sidechain": [false], "intermolecular_energy": 2.731, "internal_energy": -0.839}

$$$$
EPH_relaxed_0001_pdb2pqr_Repair_369_r2_0001_out
     RDKit          3D

 82 86  0  0  0  0  0  0  0  0999 V2000
    1.9040   18.4500   -2.0460 C   0  0  0  0  0  0  0  0  0  0  0  0
    1.4890   17.4780   -0.9370 C   0  0  2  0  0  0  0  0  0  0  0  0
    2.6700   17.1110   -0.0160 C   0  0  0  0  0  0  0  0  0  0  0  0
    3.6190   18.2790    0.2640 C   0  0  0  0  0  0  0  0  0  0  0  0
    3.4220   18.8350    1.6420 C   0  0  2  0  0  0  0  0  0  0  0  0
    3.8450   20.1940    1.8050 O   0  0  0  0  0  0  0  0  0  0  0  0
    4.5660   19.2100    2.5650 C   0  0  0  0  0  0  0  0  0  0  0  0
    5.9930   19.0440    2.1450 C   0  0  0  0  0  0  0  0  0  0  0  0
    4.3070   19.2760    4.0370 C   0  0  0  0  0  0  0  0  0  0  0  0
    0.8920   16.2160   -1.5480 C   0  0  1  0  0  0  0  0  0  0  0  0
    0.7010   16.3290   -3.0840 C   0  0  0  0  0  0  0  0  0  0  0  0
    0.9690   14.9200   -3.6730 C   0  0  0  0  0  0  0  0  0  0  0  0
    0.9780   13.9790   -2.4450 C   0  0  1  0  0  0  0  0  0  0  0  0
   -0.5280   13.7030   -2.1400 C   0  0  0  0  0  0  0  0  0  0  0  0
    1.7880   12.6510   -2.5970 C   0  0  2  0  0  0  0  0  0  0  0  0
    1.2760   11.6950   -3.6890 C   0  0  0  0  0  0  0  0  0  0  0  0
    0.2630   10.6960   -3.2370 C   0  0  0  0  0  0  0  0  0  0  0  0
   -0.0070   10.3800   -1.9560 C   0  0  0  0  0  0  0  0  0  0  0  0
    0.8100   10.9840   -0.8070 C   0  0  1  0  0  0  0  0  0  0  0  0
    1.2080    9.8650    0.1900 C   0  0  0  0  0  0  0  0  0  0  0  0
    0.0050    9.0670    0.6850 C   0  0  0  0  0  0  0  0  0  0  0  0
   -0.7480    8.4340   -0.4820 C   0  0  2  0  0  0  0  0  0  0  0  0
    0.0870    7.4410   -1.0850 O   0  0  0  0  0  0  0  0  0  0  0  0
   -1.1920    9.4660   -1.5570 C   0  0  0  0  0  0  0  0  0  0  0  0
   -2.3230   10.3570   -0.9870 C   0  0  0  0  0  0  0  0  0  0  0  0
   -1.8130    8.6810   -2.7440 C   0  0  0  0  0  0  0  0  0  0  0  0
    2.0450   11.8880   -1.2350 C   0  0  1  0  0  0  0  0  0  0  0  0
    3.3060   10.9970   -1.4540 C   0  0  0  0  0  0  0  0  0  0  0  0
    2.3960   12.8710   -0.0560 C   0  0  0  0  0  0  0  0  0  0  0  0
    1.6470   14.2170   -0.0270 C   0  0  0  0  0  0  0  0  0  0  0  0
    1.6990   14.9020   -1.3970 C   0  0  2  0  0  0  0  0  0  0  0  0
    3.2010   15.2120   -1.7200 C   0  0  0  0  0  0  0  0  0  0  0  0
    2.2981   19.3731   -1.5959 H   0  0  0  0  0  0  0  0  0  0  0  0
    2.6819   17.9847   -2.6692 H   0  0  0  0  0  0  0  0  0  0  0  0
    1.0299   18.6901   -2.6692 H   0  0  0  0  0  0  0  0  0  0  0  0
    0.7329   17.9839   -0.3186 H   0  0  0  0  0  0  0  0  0  0  0  0
    2.2649   16.7553    0.9429 H   0  0  0  0  0  0  0  0  0  0  0  0
    3.2556   16.3392   -0.5369 H   0  0  0  0  0  0  0  0  0  0  0  0
    4.6565   17.9266    0.1667 H   0  0  0  0  0  0  0  0  0  0  0  0
    3.4041   19.0771   -0.4619 H   0  0  0  0  0  0  0  0  0  0  0  0
    2.5286   18.2109    1.7911 H   0  0  0  0  0  0  0  0  0  0  0  0
    6.6316   18.9697    3.0375 H   0  0  0  0  0  0  0  0  0  0  0  0
    6.0943   18.1280    1.5444 H   0  0  0  0  0  0  0  0  0  0  0  0
    6.3018   19.9123    1.5444 H   0  0  0  0  0  0  0  0  0  0  0  0
    5.2323   19.0402    4.5830 H   0  0  0  0  0  0  0  0  0  0  0  0
    3.9709   20.2885    4.3051 H   0  0  0  0  0  0  0  0  0  0  0  0
    3.5273   18.5478    4.3051 H   0  0  0  0  0  0  0  0  0  0  0  0
   -0.0404   16.1536   -0.9677 H   0  0  0  0  0  0  0  0  0  0  0  0
   -0.3262   16.6473   -3.3156 H   0  0  0  0  0  0  0  0  0  0  0  0
    1.3872   17.0737   -3.5136 H   0  0  0  0  0  0  0  0  0  0  0  0
    0.1718   14.6346   -4.3751 H   0  0  0  0  0  0  0  0  0  0  0  0
    1.9114   14.8767   -4.2387 H   0  0  0  0  0  0  0  0  0  0  0  0
   -0.6824   13.6747   -1.0513 H   0  0  0  0  0  0  0  0  0  0  0  0
   -1.1433   14.5033   -2.5769 H   0  0  0  0  0  0  0  0  0  0  0  0
   -0.8195   12.7365   -2.5769 H   0  0  0  0  0  0  0  0  0  0  0  0
    2.7656   13.0113   -2.9499 H   0  0  0  0  0  0  0  0  0  0  0  0
    0.8228   12.3017   -4.4869 H   0  0  0  0  0  0  0  0  0  0  0  0
    2.1498   11.1145   -4.0199 H   0  0  0  0  0  0  0  0  0  0  0  0
   -0.3116   10.1738   -4.0162 H   0  0  0  0  0  0  0  0  0  0  0  0
    0.1468   11.7074   -0.3101 H   0  0  0  0  0  0  0  0  0  0  0  0
    1.9050    9.1775   -0.3115 H   0  0  0  0  0  0  0  0  0  0  0  0
    1.6720   10.3459    1.0637 H   0  0  0  0  0  0  0  0  0  0  0  0
    0.3536    8.2728    1.3615 H   0  0  0  0  0  0  0  0  0  0  0  0
   -0.6764    9.7505    1.2127 H   0  0  0  0  0  0  0  0  0  0  0  0
   -1.6680    7.9872   -0.0772 H   0  0  0  0  0  0  0  0  0  0  0  0
    0.4860    6.9180   -0.3690 H   0  0  0  0  0  0  0  0  0  0  0  0
   -2.2909   10.3317    0.1122 H   0  0  0  0  0  0  0  0  0  0  0  0
   -2.1849   11.3916   -1.3342 H   0  0  0  0  0  0  0  0  0  0  0  0
   -3.2965    9.9806   -1.3342 H   0  0  0  0  0  0  0  0  0  0  0  0
   -2.4515    7.8738   -2.3558 H   0  0  0  0  0  0  0  0  0  0  0  0
   -2.4181    9.3637   -3.3586 H   0  0  0  0  0  0  0  0  0  0  0  0
   -1.0093    8.2493   -3.3586 H   0  0  0  0  0  0  0  0  0  0  0  0
    3.7214   10.7035   -0.4787 H   0  0  0  0  0  0  0  0  0  0  0  0
    3.0247   10.0960   -2.0189 H   0  0  0  0  0  0  0  0  0  0  0  0
    4.0613   11.5630   -2.0189 H   0  0  0  0  0  0  0  0  0  0  0  0
    2.1793   12.3493    0.8879 H   0  0  0  0  0  0  0  0  0  0  0  0
    3.4537   13.1335   -0.2056 H   0  0  0  0  0  0  0  0  0  0  0  0
    0.5966   14.0387    0.2468 H   0  0  0  0  0  0  0  0  0  0  0  0
    2.1310   14.8724    0.7120 H   0  0  0  0  0  0  0  0  0  0  0  0
    3.7617   15.3277   -0.7807 H   0  0  0  0  0  0  0  0  0  0  0  0
    3.6293   14.3833   -2.3030 H   0  0  0  0  0  0  0  0  0  0  0  0
    3.2662   16.1425   -2.3030 H   0  0  0  0  0  0  0  0  0  0  0  0
  1  2  1  0
  2  3  1  0
  3  4  1  0
  4  5  1  0
  5  6  1  0
  6  7  1  0
  7  8  1  0
  7  9  1  0
  2 10  1  0
 10 11  1  0
 11 12  1  0
 12 13  1  0
 13 14  1  1
 13 15  1  0
 15 16  1  0
 16 17  1  0
 17 18  2  0
 18 19  1  0
 19 20  1  0
 20 21  1  0
 21 22  1  0
 22 23  1  0
 22 24  1  0
 24 25  1  0
 24 26  1  0
 19 27  1  0
 27 28  1  6
 27 29  1  0
 29 30  1  0
 30 31  1  0
 31 32  1  6
  7  5  1  0
 31 10  1  0
 31 13  1  0
 27 15  1  0
 24 18  1  0
  1 33  1  0
  1 34  1  0
  1 35  1  0
  2 36  1  1
  3 37  1  0
  3 38  1  0
  4 39  1  0
  4 40  1  0
  5 41  1  1
  8 42  1  0
  8 43  1  0
  8 44  1  0
  9 45  1  0
  9 46  1  0
  9 47  1  0
 10 48  1  1
 11 49  1  0
 11 50  1  0
 12 51  1  0
 12 52  1  0
 14 53  1  0
 14 54  1  0
 14 55  1  0
 15 56  1  6
 16 57  1  0
 16 58  1  0
 17 59  1  0
 19 60  1  1
 20 61  1  0
 20 62  1  0
 21 63  1  0
 21 64  1  0
 22 65  1  1
 23 66  1  0
 25 67  1  0
 25 68  1  0
 25 69  1  0
 26 70  1  0
 26 71  1  0
 26 72  1  0
 28 73  1  0
 28 74  1  0
 28 75  1  0
 29 76  1  0
 29 77  1  0
 30 78  1  0
 30 79  1  0
 32 80  1  0
 32 81  1  0
 32 82  1  0
M  END
>  <meeko>  (5) 
{"is_sidechain": [false], "intermolecular_energy": 2.731, "internal_energy": -0.839}

$$$$
EPH_relaxed_0001_pdb2pqr_Repair_369_r2_0001_out
     RDKit          3D

 82 86  0  0  0  0  0  0  0  0999 V2000
    3.7850   17.9220    0.6070 C   0  0  0  0  0  0  0  0  0  0  0  0
    2.7590   18.2940   -0.4670 C   0  0  2  0  0  0  0  0  0  0  0  0
    2.0470   19.6260   -0.1550 C   0  0  0  0  0  0  0  0  0  0  0  0
    0.9870   19.5140    0.9440 C   0  0  0  0  0  0  0  0  0  0  0  0
   -0.3160   20.1230    0.5200 C   0  0  2  0  0  0  0  0  0  0  0  0
   -1.3070   20.1940    1.5540 O   0  0  0  0  0  0  0  0  0  0  0  0
   -1.6160   19.3440    0.4370 C   0  0  0  0  0  0  0  0  0  0  0  0
   -1.6760   17.8880    0.7790 C   0  0  0  0  0  0  0  0  0  0  0  0
   -2.7100   19.8700   -0.4370 C   0  0  0  0  0  0  0  0  0  0  0  0
    1.7320   17.1770   -0.6140 C   0  0  1  0  0  0  0  0  0  0  0  0
    0.4710   17.6250   -1.4000 C   0  0  0  0  0  0  0  0  0  0  0  0
   -0.0040   16.3980   -2.2200 C   0  0  0  0  0  0  0  0  0  0  0  0
    0.7880   15.2060   -1.6330 C   0  0  1  0  0  0  0  0  0  0  0  0
    0.0080   14.8030   -0.3420 C   0  0  0  0  0  0  0  0  0  0  0  0
    1.0020   13.9830   -2.5840 C   0  0  2  0  0  0  0  0  0  0  0  0
   -0.2870   13.2770   -3.0380 C   0  0  0  0  0  0  0  0  0  0  0  0
   -0.7440   12.1580   -2.1620 C   0  0  0  0  0  0  0  0  0  0  0  0
   -0.0010   11.5500   -1.2180 C   0  0  0  0  0  0  0  0  0  0  0  0
    1.4760   11.9150   -1.0220 C   0  0  1  0  0  0  0  0  0  0  0  0
    2.3190   10.6170   -0.9080 C   0  0  0  0  0  0  0  0  0  0  0  0
    1.8020    9.6770    0.1760 C   0  0  0  0  0  0  0  0  0  0  0  0
    0.3480    9.2910   -0.0840 C   0  0  2  0  0  0  0  0  0  0  0  0
    0.2880    8.4970   -1.2730 O   0  0  0  0  0  0  0  0  0  0  0  0
   -0.5950   10.5180   -0.2280 C   0  0  0  0  0  0  0  0  0  0  0  0
   -0.7660   11.2080    1.1490 C   0  0  0  0  0  0  0  0  0  0  0  0
   -2.0010    9.9950   -0.6280 C   0  0  0  0  0  0  0  0  0  0  0  0
    2.0800   12.9450   -2.0710 C   0  0  1  0  0  0  0  0  0  0  0  0
    2.5970   12.1820   -3.3290 C   0  0  0  0  0  0  0  0  0  0  0  0
    3.3350   13.6510   -1.4340 C   0  0  0  0  0  0  0  0  0  0  0  0
    3.0700   14.9220   -0.6050 C   0  0  0  0  0  0  0  0  0  0  0  0
    2.1740   15.9000   -1.3710 C   0  0  2  0  0  0  0  0  0  0  0  0
    2.9420   16.3400   -2.6640 C   0  0  0  0  0  0  0  0  0  0  0  0
    3.3468   18.0809    1.6034 H   0  0  0  0  0  0  0  0  0  0  0  0
    4.0665   16.8646    0.4946 H   0  0  0  0  0  0  0  0  0  0  0  0
    4.6788   18.5533    0.4946 H   0  0  0  0  0  0  0  0  0  0  0  0
    3.3044   18.4253   -1.4132 H   0  0  0  0  0  0  0  0  0  0  0  0
    2.8035   20.3575    0.1653 H   0  0  0  0  0  0  0  0  0  0  0  0
    1.5267   19.9354   -1.0734 H   0  0  0  0  0  0  0  0  0  0  0  0
    0.8251   18.4511    1.1765 H   0  0  0  0  0  0  0  0  0  0  0  0
    1.3496   20.0593    1.8278 H   0  0  0  0  0  0  0  0  0  0  0  0
    0.1969   20.7805   -0.1974 H   0  0  0  0  0  0  0  0  0  0  0  0
   -1.6809   17.7681    1.8724 H   0  0  0  0  0  0  0  0  0  0  0  0
   -2.5930   17.4499    0.3579 H   0  0  0  0  0  0  0  0  0  0  0  0
   -0.7982   17.3760    0.3579 H   0  0  0  0  0  0  0  0  0  0  0  0
   -3.5243   20.2615    0.1904 H   0  0  0  0  0  0  0  0  0  0  0  0
   -2.3159   20.6771   -1.0721 H   0  0  0  0  0  0  0  0  0  0  0  0
   -3.0943   19.0582   -1.0721 H   0  0  0  0  0  0  0  0  0  0  0  0
    1.5590   16.9445    0.4471 H   0  0  0  0  0  0  0  0  0  0  0  0
   -0.3176   17.9424   -0.7019 H   0  0  0  0  0  0  0  0  0  0  0  0
    0.6977   18.4764   -2.0585 H   0  0  0  0  0  0  0  0  0  0  0  0
   -1.0861   16.2437   -2.0965 H   0  0  0  0  0  0  0  0  0  0  0  0
    0.1707   16.5242   -3.2987 H   0  0  0  0  0  0  0  0  0  0  0  0
    0.5867   15.1020    0.5444 H   0  0  0  0  0  0  0  0  0  0  0  0
   -0.9684   15.3095   -0.3304 H   0  0  0  0  0  0  0  0  0  0  0  0
   -0.1439   13.7136   -0.3304 H   0  0  0  0  0  0  0  0  0  0  0  0
    1.4176   14.4548   -3.4866 H   0  0  0  0  0  0  0  0  0  0  0  0
   -1.0900   14.0278   -3.0770 H   0  0  0  0  0  0  0  0  0  0  0  0
   -0.0584   12.8250   -4.0144 H   0  0  0  0  0  0  0  0  0  0  0  0
   -1.7750   11.7999   -2.2993 H   0  0  0  0  0  0  0  0  0  0  0  0
    1.5283   12.4780   -0.0785 H   0  0  0  0  0  0  0  0  0  0  0  0
    2.2895   10.0914   -1.8739 H   0  0  0  0  0  0  0  0  0  0  0  0
    3.3445   10.9078   -0.6364 H   0  0  0  0  0  0  0  0  0  0  0  0
    2.4195    8.7667    0.1875 H   0  0  0  0  0  0  0  0  0  0  0  0
    1.8600   10.1937    1.1454 H   0  0  0  0  0  0  0  0  0  0  0  0
   -0.0047    8.7249    0.7907 H   0  0  0  0  0  0  0  0  0  0  0  0
   -0.1620    7.6650   -1.0480 H   0  0  0  0  0  0  0  0  0  0  0  0
   -0.5848   10.4768    1.9505 H   0  0  0  0  0  0  0  0  0  0  0  0
   -0.0455   12.0345    1.2369 H   0  0  0  0  0  0  0  0  0  0  0  0
   -1.7891   11.6025    1.2369 H   0  0  0  0  0  0  0  0  0  0  0  0
   -2.5835    9.7783    0.2796 H   0  0  0  0  0  0  0  0  0  0  0  0
   -2.5210   10.7599   -1.2235 H   0  0  0  0  0  0  0  0  0  0  0  0
   -1.8947    9.0763   -1.2235 H   0  0  0  0  0  0  0  0  0  0  0  0
    3.1878   11.3100   -3.0119 H   0  0  0  0  0  0  0  0  0  0  0  0
    1.7404   11.8451   -3.9312 H   0  0  0  0  0  0  0  0  0  0  0  0
    3.2274   12.8527   -3.9312 H   0  0  0  0  0  0  0  0  0  0  0  0
    3.8290   12.9212   -0.7757 H   0  0  0  0  0  0  0  0  0  0  0  0
    3.9418   13.9856   -2.2883 H   0  0  0  0  0  0  0  0  0  0  0  0
    2.5740   14.6410    0.3357 H   0  0  0  0  0  0  0  0  0  0  0  0
    4.0323   15.4144   -0.4011 H   0  0  0  0  0  0  0  0  0  0  0  0
    3.8643   16.8684   -2.3807 H   0  0  0  0  0  0  0  0  0  0  0  0
    3.1969   15.4509   -3.2595 H   0  0  0  0  0  0  0  0  0  0  0  0
    2.3040   17.0096   -3.2595 H   0  0  0  0  0  0  0  0  0  0  0  0
  1  2  1  0
  2  3  1  0
  3  4  1  0
  4  5  1  0
  5  6  1  0
  6  7  1  0
  7  8  1  0
  7  9  1  0
  2 10  1  0
 10 11  1  0
 11 12  1  0
 12 13  1  0
 13 14  1  1
 13 15  1  0
 15 16  1  0
 16 17  1  0
 17 18  2  0
 18 19  1  0
 19 20  1  0
 20 21  1  0
 21 22  1  0
 22 23  1  0
 22 24  1  0
 24 25  1  0
 24 26  1  0
 19 27  1  0
 27 28  1  6
 27 29  1  0
 29 30  1  0
 30 31  1  0
 31 32  1  6
  7  5  1  0
 31 10  1  0
 31 13  1  0
 27 15  1  0
 24 18  1  0
  1 33  1  0
  1 34  1  0
  1 35  1  0
  2 36  1  6
  3 37  1  0
  3 38  1  0
  4 39  1  0
  4 40  1  0
  5 41  1  6
  8 42  1  0
  8 43  1  0
  8 44  1  0
  9 45  1  0
  9 46  1  0
  9 47  1  0
 10 48  1  1
 11 49  1  0
 11 50  1  0
 12 51  1  0
 12 52  1  0
 14 53  1  0
 14 54  1  0
 14 55  1  0
 15 56  1  6
 16 57  1  0
 16 58  1  0
 17 59  1  0
 19 60  1  1
 20 61  1  0
 20 62  1  0
 21 63  1  0
 21 64  1  0
 22 65  1  1
 23 66  1  0
 25 67  1  0
 25 68  1  0
 25 69  1  0
 26 70  1  0
 26 71  1  0
 26 72  1  0
 28 73  1  0
 28 74  1  0
 28 75  1  0
 29 76  1  0
 29 77  1  0
 30 78  1  0
 30 79  1  0
 32 80  1  0
 32 81  1  0
 32 82  1  0
M  END
>  <meeko>  (6) 
{"is_sidechain": [false], "intermolecular_energy": 2.731, "internal_energy": -0.839}

$$$$
EPH_relaxed_0001_pdb2pqr_Repair_369_r2_0001_out
     RDKit          3D

 82 86  0  0  0  0  0  0  0  0999 V2000
    0.3990    8.8730   -2.5500 C   0  0  0  0  0  0  0  0  0  0  0  0
    1.1700   10.0350   -3.1830 C   0  0  2  0  0  0  0  0  0  0  0  0
    2.6600   10.0280   -2.7870 C   0  0  0  0  0  0  0  0  0  0  0  0
    3.5830   10.6180   -3.8560 C   0  0  0  0  0  0  0  0  0  0  0  0
    4.9760   10.8160   -3.3370 C   0  0  2  0  0  0  0  0  0  0  0  0
    5.5990   12.0410   -3.7470 O   0  0  0  0  0  0  0  0  0  0  0  0
    6.2050   10.8290   -4.2260 C   0  0  0  0  0  0  0  0  0  0  0  0
    6.1000   10.6400   -5.7070 C   0  0  0  0  0  0  0  0  0  0  0  0
    7.5370   10.5370   -3.6090 C   0  0  0  0  0  0  0  0  0  0  0  0
    0.5310   11.3610   -2.7850 C   0  0  1  0  0  0  0  0  0  0  0  0
   -0.8410   11.1760   -2.0830 C   0  0  0  0  0  0  0  0  0  0  0  0
   -0.9510   12.2940   -1.0150 C   0  0  0  0  0  0  0  0  0  0  0  0
    0.1950   13.2750   -1.3570 C   0  0  1  0  0  0  0  0  0  0  0  0
   -0.3640   14.1550   -2.5190 C   0  0  0  0  0  0  0  0  0  0  0  0
    0.7320   14.1490   -0.1770 C   0  0  2  0  0  0  0  0  0  0  0  0
   -0.2960   15.1120    0.4420 C   0  0  0  0  0  0  0  0  0  0  0  0
   -0.3460   16.4720   -0.1720 C   0  0  0  0  0  0  0  0  0  0  0  0
    0.5890   16.9990   -0.9840 C   0  0  0  0  0  0  0  0  0  0  0  0
    1.8900   16.2420   -1.2830 C   0  0  1  0  0  0  0  0  0  0  0  0
    3.0950   17.2080   -1.1420 C   0  0  0  0  0  0  0  0  0  0  0  0
    2.9420   18.4630   -1.9960 C   0  0  0  0  0  0  0  0  0  0  0  0
    1.6670   19.2190   -1.6290 C   0  0  2  0  0  0  0  0  0  0  0  0
    1.8010   19.7320   -0.3000 O   0  0  0  0  0  0  0  0  0  0  0  0
    0.3870   18.3440   -1.7250 C   0  0  0  0  0  0  0  0  0  0  0  0
    0.0750   18.0380   -3.2110 C   0  0  0  0  0  0  0  0  0  0  0  0
   -0.8070   19.1840   -1.1940 C   0  0  0  0  0  0  0  0  0  0  0  0
    2.1000   14.8830   -0.4850 C   0  0  1  0  0  0  0  0  0  0  0  0
    2.7690   15.1730    0.8930 C   0  0  0  0  0  0  0  0  0  0  0  0
    3.1040   13.9690   -1.2820 C   0  0  0  0  0  0  0  0  0  0  0  0
    2.4980   13.0400   -2.3520 C   0  0  0  0  0  0  0  0  0  0  0  0
    1.3110   12.2540   -1.7880 C   0  0  2  0  0  0  0  0  0  0  0  0
    1.8470   11.3430   -0.6320 C   0  0  0  0  0  0  0  0  0  0  0  0
    0.4514    8.9520   -1.4541 H   0  0  0  0  0  0  0  0  0  0  0  0
   -0.6525    8.9128   -2.8706 H   0  0  0  0  0  0  0  0  0  0  0  0
    0.8443    7.9196   -2.8706 H   0  0  0  0  0  0  0  0  0  0  0  0
    1.1185    9.9103   -4.2747 H   0  0  0  0  0  0  0  0  0  0  0  0
    2.7770   10.6154   -1.8644 H   0  0  0  0  0  0  0  0  0  0  0  0
    2.9527    8.9760   -2.6543 H   0  0  0  0  0  0  0  0  0  0  0  0
    3.6168    9.9326   -4.7157 H   0  0  0  0  0  0  0  0  0  0  0  0
    3.1836   11.5997   -4.1505 H   0  0  0  0  0  0  0  0  0  0  0  0
    4.7373   10.2636   -2.4162 H   0  0  0  0  0  0  0  0  0  0  0  0
    5.5759    9.6966   -5.9200 H   0  0  0  0  0  0  0  0  0  0  0  0
    5.5383   11.4784   -6.1447 H   0  0  0  0  0  0  0  0  0  0  0  0
    7.1086   10.6061   -6.1447 H   0  0  0  0  0  0  0  0  0  0  0  0
    7.4457   10.5570   -2.5130 H   0  0  0  0  0  0  0  0  0  0  0  0
    7.8798    9.5424   -3.9303 H   0  0  0  0  0  0  0  0  0  0  0  0
    8.2644   11.2970   -3.9303 H   0  0  0  0  0  0  0  0  0  0  0  0
    0.4853   11.8477   -3.7704 H   0  0  0  0  0  0  0  0  0  0  0  0
   -1.6568   11.2697   -2.8150 H   0  0  0  0  0  0  0  0  0  0  0  0
   -0.9177   10.1803   -1.6219 H   0  0  0  0  0  0  0  0  0  0  0  0
   -1.9263   12.7985   -1.0801 H   0  0  0  0  0  0  0  0  0  0  0  0
   -0.8719   11.9013    0.0095 H   0  0  0  0  0  0  0  0  0  0  0  0
   -0.9092   15.0133   -2.0993 H   0  0  0  0  0  0  0  0  0  0  0  0
    0.4698   14.5175   -3.1382 H   0  0  0  0  0  0  0  0  0  0  0  0
   -1.0465   13.5543   -3.1382 H   0  0  0  0  0  0  0  0  0  0  0  0
    0.9407   13.3970    0.5982 H   0  0  0  0  0  0  0  0  0  0  0  0
   -1.2922   14.6566    0.3410 H   0  0  0  0  0  0  0  0  0  0  0  0
    0.0165   15.2607    1.4861 H   0  0  0  0  0  0  0  0  0  0  0  0
   -1.2216   17.0965    0.0590 H   0  0  0  0  0  0  0  0  0  0  0  0
    1.8089   15.8965   -2.3242 H   0  0  0  0  0  0  0  0  0  0  0  0
    3.1850   17.5079   -0.0875 H   0  0  0  0  0  0  0  0  0  0  0  0
    3.9924   16.6752   -1.4894 H   0  0  0  0  0  0  0  0  0  0  0  0
    3.8097   19.1188   -1.8314 H   0  0  0  0  0  0  0  0  0  0  0  0
    2.8818   18.1640   -3.0529 H   0  0  0  0  0  0  0  0  0  0  0  0
    1.5452   20.0334   -2.3583 H   0  0  0  0  0  0  0  0  0  0  0  0
    1.8740   18.9720    0.3020 H   0  0  0  0  0  0  0  0  0  0  0  0
   -0.7092   17.2689   -3.2702 H   0  0  0  0  0  0  0  0  0  0  0  0
   -0.2726   18.9551   -3.7091 H   0  0  0  0  0  0  0  0  0  0  0  0
    0.9852   17.6727   -3.7091 H   0  0  0  0  0  0  0  0  0  0  0  0
   -0.7989   19.1783   -0.0940 H   0  0  0  0  0  0  0  0  0  0  0  0
   -0.7170   20.2188   -1.5560 H   0  0  0  0  0  0  0  0  0  0  0  0
   -1.7506   18.7497   -1.5560 H   0  0  0  0  0  0  0  0  0  0  0  0
    2.0853   14.8766    1.7021 H   0  0  0  0  0  0  0  0  0  0  0  0
    3.7041   14.5994    0.9746 H   0  0  0  0  0  0  0  0  0  0  0  0
    2.9897   16.2475    0.9746 H   0  0  0  0  0  0  0  0  0  0  0  0
    3.8271   14.6282   -1.7845 H   0  0  0  0  0  0  0  0  0  0  0  0
    3.5399   13.2955   -0.5294 H   0  0  0  0  0  0  0  0  0  0  0  0
    2.1557   13.6469   -3.2031 H   0  0  0  0  0  0  0  0  0  0  0  0
    3.2701   12.3257   -2.6737 H   0  0  0  0  0  0  0  0  0  0  0  0
    1.5843   11.7894    0.3384 H   0  0  0  0  0  0  0  0  0  0  0  0
    1.3924   10.3445   -0.7113 H   0  0  0  0  0  0  0  0  0  0  0  0
    2.9406   11.2554   -0.7113 H   0  0  0  0  0  0  0  0  0  0  0  0
  1  2  1  0
  2  3  1  0
  3  4  1  0
  4  5  1  0
  5  6  1  0
  6  7  1  0
  7  8  1  0
  7  9  1  0
  2 10  1  0
 10 11  1  0
 11 12  1  0
 12 13  1  0
 13 14  1  6
 13 15  1  0
 15 16  1  0
 16 17  1  0
 17 18  2  0
 18 19  1  0
 19 20  1  0
 20 21  1  0
 21 22  1  0
 22 23  1  0
 22 24  1  0
 24 25  1  0
 24 26  1  0
 19 27  1  0
 27 28  1  1
 27 29  1  0
 29 30  1  0
 30 31  1  0
 31 32  1  1
  7  5  1  0
 31 10  1  0
 31 13  1  0
 27 15  1  0
 24 18  1  0
  1 33  1  0
  1 34  1  0
  1 35  1  0
  2 36  1  6
  3 37  1  0
  3 38  1  0
  4 39  1  0
  4 40  1  0
  5 41  1  1
  8 42  1  0
  8 43  1  0
  8 44  1  0
  9 45  1  0
  9 46  1  0
  9 47  1  0
 10 48  1  6
 11 49  1  0
 11 50  1  0
 12 51  1  0
 12 52  1  0
 14 53  1  0
 14 54  1  0
 14 55  1  0
 15 56  1  1
 16 57  1  0
 16 58  1  0
 17 59  1  0
 19 60  1  6
 20 61  1  0
 20 62  1  0
 21 63  1  0
 21 64  1  0
 22 65  1  6
 23 66  1  0
 25 67  1  0
 25 68  1  0
 25 69  1  0
 26 70  1  0
 26 71  1  0
 26 72  1  0
 28 73  1  0
 28 74  1  0
 28 75  1  0
 29 76  1  0
 29 77  1  0
 30 78  1  0
 30 79  1  0
 32 80  1  0
 32 81  1  0
 32 82  1  0
M  END
>  <meeko>  (7) 
{"is_sidechain": [false], "intermolecular_energy": 2.731, "internal_energy": -0.839}

$$$$
EPH_relaxed_0001_pdb2pqr_Repair_369_r2_0001_out
     RDKit          3D

 82 86  0  0  0  0  0  0  0  0999 V2000
   -0.2850   10.5090   -4.0380 C   0  0  0  0  0  0  0  0  0  0  0  0
    0.9450   10.3550   -3.1390 C   0  0  2  0  0  0  0  0  0  0  0  0
    0.9400    9.0170   -2.3730 C   0  0  0  0  0  0  0  0  0  0  0  0
   -0.4450    8.6010   -1.8690 C   0  0  0  0  0  0  0  0  0  0  0  0
   -0.6530    8.9900   -0.4370 C   0  0  2  0  0  0  0  0  0  0  0  0
   -2.0230    9.0010   -0.0130 O   0  0  0  0  0  0  0  0  0  0  0  0
   -1.3490   10.2700   -0.0100 C   0  0  0  0  0  0  0  0  0  0  0  0
   -1.8800   11.2420   -1.0170 C   0  0  0  0  0  0  0  0  0  0  0  0
   -1.0800   10.8070    1.3610 C   0  0  0  0  0  0  0  0  0  0  0  0
    1.0190   11.5180   -2.1560 C   0  0  1  0  0  0  0  0  0  0  0  0
    2.0830   11.2960   -1.0490 C   0  0  0  0  0  0  0  0  0  0  0  0
    2.6890   12.6860   -0.7260 C   0  0  0  0  0  0  0  0  0  0  0  0
    1.7360   13.6950   -1.4080 C   0  0  1  0  0  0  0  0  0  0  0  0
    0.5390   13.8480   -0.4180 C   0  0  0  0  0  0  0  0  0  0  0  0
    2.3520   15.0820   -1.7860 C   0  0  2  0  0  0  0  0  0  0  0  0
    2.8540   15.9190   -0.5970 C   0  0  0  0  0  0  0  0  0  0  0  0
    1.8480   16.8450    0.0010 C   0  0  0  0  0  0  0  0  0  0  0  0
    0.6840   17.2100   -0.5690 C   0  0  0  0  0  0  0  0  0  0  0  0
    0.3260   16.7540   -1.9890 C   0  0  1  0  0  0  0  0  0  0  0  0
   -0.2040   17.9630   -2.8030 C   0  0  0  0  0  0  0  0  0  0  0  0
   -1.3620   18.6730   -2.1090 C   0  0  0  0  0  0  0  0  0  0  0  0
   -0.9500   19.1630   -0.7230 C   0  0  2  0  0  0  0  0  0  0  0  0
    0.0340   20.1920   -0.8710 O   0  0  0  0  0  0  0  0  0  0  0  0
   -0.3900   18.0320    0.1850 C   0  0  0  0  0  0  0  0  0  0  0  0
   -1.5380   17.0760    0.5920 C   0  0  0  0  0  0  0  0  0  0  0  0
    0.1200   18.6830    1.4990 C   0  0  0  0  0  0  0  0  0  0  0  0
    1.4540   15.9450   -2.7630 C   0  0  1  0  0  0  0  0  0  0  0  0
    2.4140   16.9350   -3.4910 C   0  0  0  0  0  0  0  0  0  0  0  0
    0.7810   15.0710   -3.8860 C   0  0  0  0  0  0  0  0  0  0  0  0
    0.3010   13.6650   -3.4790 C   0  0  0  0  0  0  0  0  0  0  0  0
    1.3990   12.9080   -2.7260 C   0  0  2  0  0  0  0  0  0  0  0  0
    2.6080   12.7200   -3.7050 C   0  0  0  0  0  0  0  0  0  0  0  0
   -1.1837   10.6215   -3.4137 H   0  0  0  0  0  0  0  0  0  0  0  0
   -0.1659   11.3992   -4.6730 H   0  0  0  0  0  0  0  0  0  0  0  0
   -0.3890    9.6169   -4.6730 H   0  0  0  0  0  0  0  0  0  0  0  0
    1.8328   10.3602   -3.7885 H   0  0  0  0  0  0  0  0  0  0  0  0
    1.3156    8.2310   -3.0446 H   0  0  0  0  0  0  0  0  0  0  0  0
    1.5774    9.1518   -1.4867 H   0  0  0  0  0  0  0  0  0  0  0  0
   -1.2115    9.0918   -2.4868 H   0  0  0  0  0  0  0  0  0  0  0  0
   -0.5220    7.5061   -1.9418 H   0  0  0  0  0  0  0  0  0  0  0  0
    0.3105    8.5432   -0.1507 H   0  0  0  0  0  0  0  0  0  0  0  0
   -2.3445   12.0923   -0.4963 H   0  0  0  0  0  0  0  0  0  0  0  0
   -1.0546   11.6045   -1.6473 H   0  0  0  0  0  0  0  0  0  0  0  0
   -2.6310   10.7434   -1.6473 H   0  0  0  0  0  0  0  0  0  0  0  0
   -1.4396   10.0892    2.1130 H   0  0  0  0  0  0  0  0  0  0  0  0
    0.0017   10.9610    1.4888 H   0  0  0  0  0  0  0  0  0  0  0  0
   -1.6044   11.7655    1.4888 H   0  0  0  0  0  0  0  0  0  0  0  0
   -0.0228   11.5286   -1.8030 H   0  0  0  0  0  0  0  0  0  0  0  0
    1.6120   10.8701   -0.1508 H   0  0  0  0  0  0  0  0  0  0  0  0
    2.8609   10.5941   -1.3839 H   0  0  0  0  0  0  0  0  0  0  0  0
    2.7189   12.8536    0.3607 H   0  0  0  0  0  0  0  0  0  0  0  0
    3.7246   12.7829   -1.0838 H   0  0  0  0  0  0  0  0  0  0  0  0
    0.9103   13.8005    0.6164 H   0  0  0  0  0  0  0  0  0  0  0  0
    0.0454   14.8165   -0.5863 H   0  0  0  0  0  0  0  0  0  0  0  0
   -0.1823   13.0347   -0.5863 H   0  0  0  0  0  0  0  0  0  0  0  0
    3.2521   14.7949   -2.3495 H   0  0  0  0  0  0  0  0  0  0  0  0
    3.1878   15.2261    0.1894 H   0  0  0  0  0  0  0  0  0  0  0  0
    3.6579   16.5574   -0.9923 H   0  0  0  0  0  0  0  0  0  0  0  0
    2.0768   17.2650    0.9916 H   0  0  0  0  0  0  0  0  0  0  0  0
   -0.4695   16.0029   -1.8752 H   0  0  0  0  0  0  0  0  0  0  0  0
    0.6173   18.6814   -2.9426 H   0  0  0  0  0  0  0  0  0  0  0  0
   -0.5753   17.5806   -3.7652 H   0  0  0  0  0  0  0  0  0  0  0  0
   -1.6726   19.5349   -2.7179 H   0  0  0  0  0  0  0  0  0  0  0  0
   -2.1934   17.9615   -1.9969 H   0  0  0  0  0  0  0  0  0  0  0  0
   -1.8538   19.5460   -0.2265 H   0  0  0  0  0  0  0  0  0  0  0  0
   -0.2510   20.9500   -0.3340 H   0  0  0  0  0  0  0  0  0  0  0  0
   -1.6004   17.0241    1.6890 H   0  0  0  0  0  0  0  0  0  0  0  0
   -2.4893   17.4526    0.1881 H   0  0  0  0  0  0  0  0  0  0  0  0
   -1.3399   16.0722    0.1881 H   0  0  0  0  0  0  0  0  0  0  0  0
   -0.3008   18.1458    2.3617 H   0  0  0  0  0  0  0  0  0  0  0  0
    1.2181   18.6283    1.5331 H   0  0  0  0  0  0  0  0  0  0  0  0
   -0.1959   19.7361    1.5331 H   0  0  0  0  0  0  0  0  0  0  0  0
    2.9768   17.5154   -2.7450 H   0  0  0  0  0  0  0  0  0  0  0  0
    3.1160   16.3688   -4.1207 H   0  0  0  0  0  0  0  0  0  0  0  0
    1.8264   17.6192   -4.1207 H   0  0  0  0  0  0  0  0  0  0  0  0
   -0.0924   15.6253   -4.2601 H   0  0  0  0  0  0  0  0  0  0  0  0
    1.5727   14.9001   -4.6303 H   0  0  0  0  0  0  0  0  0  0  0  0
   -0.5813   13.7600   -2.8290 H   0  0  0  0  0  0  0  0  0  0  0  0
    0.0489   13.1028   -4.3903 H   0  0  0  0  0  0  0  0  0  0  0  0
    3.5311   12.5765   -3.1243 H   0  0  0  0  0  0  0  0  0  0  0  0
    2.4328   11.8383   -4.3390 H   0  0  0  0  0  0  0  0  0  0  0  0
    2.7088   13.6133   -4.3390 H   0  0  0  0  0  0  0  0  0  0  0  0
  1  2  1  0
  2  3  1  0
  3  4  1  0
  4  5  1  0
  5  6  1  0
  6  7  1  0
  7  8  1  0
  7  9  1  0
  2 10  1  0
 10 11  1  0
 11 12  1  0
 12 13  1  0
 13 14  1  1
 13 15  1  0
 15 16  1  0
 16 17  1  0
 17 18  2  0
 18 19  1  0
 19 20  1  0
 20 21  1  0
 21 22  1  0
 22 23  1  0
 22 24  1  0
 24 25  1  0
 24 26  1  0
 19 27  1  0
 27 28  1  6
 27 29  1  0
 29 30  1  0
 30 31  1  0
 31 32  1  6
  7  5  1  0
 31 10  1  0
 31 13  1  0
 27 15  1  0
 24 18  1  0
  1 33  1  0
  1 34  1  0
  1 35  1  0
  2 36  1  6
  3 37  1  0
  3 38  1  0
  4 39  1  0
  4 40  1  0
  5 41  1  1
  8 42  1  0
  8 43  1  0
  8 44  1  0
  9 45  1  0
  9 46  1  0
  9 47  1  0
 10 48  1  1
 11 49  1  0
 11 50  1  0
 12 51  1  0
 12 52  1  0
 14 53  1  0
 14 54  1  0
 14 55  1  0
 15 56  1  6
 16 57  1  0
 16 58  1  0
 17 59  1  0
 19 60  1  1
 20 61  1  0
 20 62  1  0
 21 63  1  0
 21 64  1  0
 22 65  1  1
 23 66  1  0
 25 67  1  0
 25 68  1  0
 25 69  1  0
 26 70  1  0
 26 71  1  0
 26 72  1  0
 28 73  1  0
 28 74  1  0
 28 75  1  0
 29 76  1  0
 29 77  1  0
 30 78  1  0
 30 79  1  0
 32 80  1  0
 32 81  1  0
 32 82  1  0
M  END
>  <meeko>  (8) 
{"is_sidechain": [false], "intermolecular_energy": 2.731, "internal_energy": -0.839}

$$$$
EPH_relaxed_0001_pdb2pqr_Repair_369_r2_0001_out
     RDKit          3D

 82 86  0  0  0  0  0  0  0  0999 V2000
    0.1510   17.8040   -2.5630 C   0  0  0  0  0  0  0  0  0  0  0  0
   -0.1040   16.8960   -1.3570 C   0  0  2  0  0  0  0  0  0  0  0  0
   -0.1780   17.6890   -0.0380 C   0  0  0  0  0  0  0  0  0  0  0  0
    0.4330   19.0900   -0.1270 C   0  0  0  0  0  0  0  0  0  0  0  0
    1.5860   19.2540    0.8160 C   0  0  2  0  0  0  0  0  0  0  0  0
    2.5800   20.1940    0.3890 O   0  0  0  0  0  0  0  0  0  0  0  0
    3.0040   18.8250    0.4860 C   0  0  0  0  0  0  0  0  0  0  0  0
    3.3430   18.1980   -0.8300 C   0  0  0  0  0  0  0  0  0  0  0  0
    3.9540   18.5660    1.6130 C   0  0  0  0  0  0  0  0  0  0  0  0
    0.9860   15.8340   -1.2670 C   0  0  1  0  0  0  0  0  0  0  0  0
    1.2140   15.3340    0.1840 C   0  0  0  0  0  0  0  0  0  0  0  0
    1.5700   13.8280    0.0880 C   0  0  0  0  0  0  0  0  0  0  0  0
    1.8610   13.5920   -1.4130 C   0  0  1  0  0  0  0  0  0  0  0  0
    3.3280   14.0810   -1.6190 C   0  0  0  0  0  0  0  0  0  0  0  0
    1.6610   12.1310   -1.9330 C   0  0  2  0  0  0  0  0  0  0  0  0
    2.5820   11.0780   -1.2920 C   0  0  0  0  0  0  0  0  0  0  0  0
    3.8790   10.8520   -1.9960 C   0  0  0  0  0  0  0  0  0  0  0  0
    4.1700   11.2550   -3.2470 C   0  0  0  0  0  0  0  0  0  0  0  0
    3.1080   11.9290   -4.1250 C   0  0  1  0  0  0  0  0  0  0  0  0
    3.1290   11.2950   -5.5410 C   0  0  0  0  0  0  0  0  0  0  0  0
    4.5160   11.3260   -6.1760 C   0  0  0  0  0  0  0  0  0  0  0  0
    5.5320   10.5960   -5.3010 C   0  0  2  0  0  0  0  0  0  0  0  0
    5.2050    9.2030   -5.2790 O   0  0  0  0  0  0  0  0  0  0  0  0
    5.5940   11.1410   -3.8470 C   0  0  0  0  0  0  0  0  0  0  0  0
    6.2350   12.5510   -3.8470 C   0  0  0  0  0  0  0  0  0  0  0  0
    6.5510   10.2290   -3.0350 C   0  0  0  0  0  0  0  0  0  0  0  0
    1.6450   12.0010   -3.5100 C   0  0  1  0  0  0  0  0  0  0  0  0
    0.8630   10.6930   -3.8420 C   0  0  0  0  0  0  0  0  0  0  0  0
    0.8550   13.1770   -4.1990 C   0  0  0  0  0  0  0  0  0  0  0  0
    0.9990   14.5740   -3.5670 C   0  0  0  0  0  0  0  0  0  0  0  0
    0.7650   14.5180   -2.0540 C   0  0  2  0  0  0  0  0  0  0  0  0
   -0.7110   14.0500   -1.8160 C   0  0  0  0  0  0  0  0  0  0  0  0
    0.4330   18.8080   -2.2130 H   0  0  0  0  0  0  0  0  0  0  0  0
    0.9663   17.3854   -3.1713 H   0  0  0  0  0  0  0  0  0  0  0  0
   -0.7631   17.8710   -3.1713 H   0  0  0  0  0  0  0  0  0  0  0  0
   -1.0814   16.4139   -1.5063 H   0  0  0  0  0  0  0  0  0  0  0  0
   -1.2354   17.7888    0.2483 H   0  0  0  0  0  0  0  0  0  0  0  0
    0.4075   17.1297    0.7066 H   0  0  0  0  0  0  0  0  0  0  0  0
    0.7864   19.2599   -1.1547 H   0  0  0  0  0  0  0  0  0  0  0  0
   -0.3421   19.8198    0.1497 H   0  0  0  0  0  0  0  0  0  0  0  0
    0.9370   19.0545    1.6814 H   0  0  0  0  0  0  0  0  0  0  0  0
    3.8598   17.2422   -0.6585 H   0  0  0  0  0  0  0  0  0  0  0  0
    2.4191   18.0183   -1.3994 H   0  0  0  0  0  0  0  0  0  0  0  0
    3.9993   18.8726   -1.3994 H   0  0  0  0  0  0  0  0  0  0  0  0
    3.4333   18.7080    2.5715 H   0  0  0  0  0  0  0  0  0  0  0  0
    4.3273   17.5333    1.5479 H   0  0  0  0  0  0  0  0  0  0  0  0
    4.7997   19.2663    1.5479 H   0  0  0  0  0  0  0  0  0  0  0  0
    1.8259   16.3955   -1.7021 H   0  0  0  0  0  0  0  0  0  0  0  0
    2.0409   15.8896    0.6505 H   0  0  0  0  0  0  0  0  0  0  0  0
    0.3163   15.4889    0.8005 H   0  0  0  0  0  0  0  0  0  0  0  0
    2.4573   13.5989    0.6965 H   0  0  0  0  0  0  0  0  0  0  0  0
    0.7617   13.1830    0.4632 H   0  0  0  0  0  0  0  0  0  0  0  0
    3.8027   14.2392   -0.6394 H   0  0  0  0  0  0  0  0  0  0  0  0
    3.8919   13.3222   -2.1814 H   0  0  0  0  0  0  0  0  0  0  0  0
    3.3238   15.0263   -2.1814 H   0  0  0  0  0  0  0  0  0  0  0  0
    0.6459   11.8930   -1.5823 H   0  0  0  0  0  0  0  0  0  0  0  0
    2.8048   11.4016   -0.2646 H   0  0  0  0  0  0  0  0  0  0  0  0
    2.0367   10.1241   -1.3450 H   0  0  0  0  0  0  0  0  0  0  0  0
    4.6629   10.3106   -1.4461 H   0  0  0  0  0  0  0  0  0  0  0  0
    3.3922   12.9898   -4.1870 H   0  0  0  0  0  0  0  0  0  0  0  0
    2.8001   10.2482   -5.4634 H   0  0  0  0  0  0  0  0  0  0  0  0
    2.4559   11.8848   -6.1807 H   0  0  0  0  0  0  0  0  0  0  0  0
    4.4722   10.8379   -7.1608 H   0  0  0  0  0  0  0  0  0  0  0  0
    4.8313   12.3746   -6.2807 H   0  0  0  0  0  0  0  0  0  0  0  0
    6.5261   10.7643   -5.7408 H   0  0  0  0  0  0  0  0  0  0  0  0
    5.4080    8.8390   -6.1580 H   0  0  0  0  0  0  0  0  0  0  0  0
    6.3867   12.8848   -2.8099 H   0  0  0  0  0  0  0  0  0  0  0  0
    7.2044   12.5131   -4.3655 H   0  0  0  0  0  0  0  0  0  0  0  0
    5.5691   13.2565   -4.3655 H   0  0  0  0  0  0  0  0  0  0  0  0
    6.3842   10.3879   -1.9594 H   0  0  0  0  0  0  0  0  0  0  0  0
    6.3540    9.1760   -3.2849 H   0  0  0  0  0  0  0  0  0  0  0  0
    7.5933   10.4764   -3.2849 H   0  0  0  0  0  0  0  0  0  0  0  0
    0.5659   10.1960   -2.9067 H   0  0  0  0  0  0  0  0  0  0  0  0
   -0.0351   10.9411   -4.4267 H   0  0  0  0  0  0  0  0  0  0  0  0
    1.5067   10.0194   -4.4267 H   0  0  0  0  0  0  0  0  0  0  0  0
    1.2019   13.2456   -5.2406 H   0  0  0  0  0  0  0  0  0  0  0  0
   -0.2075   12.9168   -4.0832 H   0  0  0  0  0  0  0  0  0  0  0  0
    2.0131   14.9537   -3.7605 H   0  0  0  0  0  0  0  0  0  0  0  0
    0.2466   15.2405   -4.0139 H   0  0  0  0  0  0  0  0  0  0  0  0
   -0.9063   13.9881   -0.7352 H   0  0  0  0  0  0  0  0  0  0  0  0
   -1.4030   14.7728   -2.2728 H   0  0  0  0  0  0  0  0  0  0  0  0
   -0.8601   13.0605   -2.2728 H   0  0  0  0  0  0  0  0  0  0  0  0
  1  2  1  0
  2  3  1  0
  3  4  1  0
  4  5  1  0
  5  6  1  0
  6  7  1  0
  7  8  1  0
  7  9  1  0
  2 10  1  0
 10 11  1  0
 11 12  1  0
 12 13  1  0
 13 14  1  1
 13 15  1  0
 15 16  1  0
 16 17  1  0
 17 18  2  0
 18 19  1  0
 19 20  1  0
 20 21  1  0
 21 22  1  0
 22 23  1  0
 22 24  1  0
 24 25  1  0
 24 26  1  0
 19 27  1  0
 27 28  1  1
 27 29  1  0
 29 30  1  0
 30 31  1  0
 31 32  1  6
  7  5  1  0
 31 10  1  0
 31 13  1  0
 27 15  1  0
 24 18  1  0
  1 33  1  0
  1 34  1  0
  1 35  1  0
  2 36  1  6
  3 37  1  0
  3 38  1  0
  4 39  1  0
  4 40  1  0
  5 41  1  1
  8 42  1  0
  8 43  1  0
  8 44  1  0
  9 45  1  0
  9 46  1  0
  9 47  1  0
 10 48  1  6
 11 49  1  0
 11 50  1  0
 12 51  1  0
 12 52  1  0
 14 53  1  0
 14 54  1  0
 14 55  1  0
 15 56  1  1
 16 57  1  0
 16 58  1  0
 17 59  1  0
 19 60  1  6
 20 61  1  0
 20 62  1  0
 21 63  1  0
 21 64  1  0
 22 65  1  6
 23 66  1  0
 25 67  1  0
 25 68  1  0
 25 69  1  0
 26 70  1  0
 26 71  1  0
 26 72  1  0
 28 73  1  0
 28 74  1  0
 28 75  1  0
 29 76  1  0
 29 77  1  0
 30 78  1  0
 30 79  1  0
 32 80  1  0
 32 81  1  0
 32 82  1  0
M  END
>  <meeko>  (9) 
{"is_sidechain": [false], "intermolecular_energy": 2.731, "internal_energy": -0.839}

$$$$
EPH_relaxed_0001_pdb2pqr_Repair_369_r2_0001_out
     RDKit          3D

 82 86  0  0  0  0  0  0  0  0999 V2000
   -0.9500   16.3950   -5.8980 C   0  0  0  0  0  0  0  0  0  0  0  0
    0.1610   15.7080   -6.6960 C   0  0  2  0  0  0  0  0  0  0  0  0
   -0.2240   15.5100   -8.1760 C   0  0  0  0  0  0  0  0  0  0  0  0
    0.4310   16.5200   -9.1220 C   0  0  0  0  0  0  0  0  0  0  0  0
    1.8380   16.1310   -9.4610 C   0  0  2  0  0  0  0  0  0  0  0  0
    2.3310   16.6790  -10.6900 O   0  0  0  0  0  0  0  0  0  0  0  0
    2.2020   15.2490  -10.6410 C   0  0  0  0  0  0  0  0  0  0  0  0
    1.1530   14.7010  -11.5580 C   0  0  0  0  0  0  0  0  0  0  0  0
    3.5120   14.5260  -10.6160 C   0  0  0  0  0  0  0  0  0  0  0  0
    0.5020   14.3650   -6.0620 C   0  0  1  0  0  0  0  0  0  0  0  0
    1.7330   13.6880   -6.7210 C   0  0  0  0  0  0  0  0  0  0  0  0
    2.4890   12.9390   -5.5940 C   0  0  0  0  0  0  0  0  0  0  0  0
    1.5030   12.9300   -4.4020 C   0  0  1  0  0  0  0  0  0  0  0  0
    0.5250   11.7510   -4.7010 C   0  0  0  0  0  0  0  0  0  0  0  0
    2.1400   12.8060   -2.9800 C   0  0  2  0  0  0  0  0  0  0  0  0
    2.9140   11.5010   -2.7230 C   0  0  0  0  0  0  0  0  0  0  0  0
    2.1070   10.3820   -2.1520 C   0  0  0  0  0  0  0  0  0  0  0  0
    0.8880   10.5030   -1.5930 C   0  0  0  0  0  0  0  0  0  0  0  0
    0.2410   11.8810   -1.4050 C   0  0  1  0  0  0  0  0  0  0  0  0
   -0.3400   11.9890    0.0300 C   0  0  0  0  0  0  0  0  0  0  0  0
   -1.2940   10.8460    0.3620 C   0  0  0  0  0  0  0  0  0  0  0  0
   -0.5970    9.4950    0.2200 C   0  0  2  0  0  0  0  0  0  0  0  0
    0.4150    9.3900    1.2260 O   0  0  0  0  0  0  0  0  0  0  0  0
    0.0360    9.2770   -1.1830 C   0  0  0  0  0  0  0  0  0  0  0  0
   -1.0850    9.0900   -2.2360 C   0  0  0  0  0  0  0  0  0  0  0  0
    0.8260    7.9410   -1.1480 C   0  0  0  0  0  0  0  0  0  0  0  0
    1.1440   13.1300   -1.7930 C   0  0  1  0  0  0  0  0  0  0  0  0
    2.0230   13.5500   -0.5760 C   0  0  0  0  0  0  0  0  0  0  0  0
    0.2120   14.3580   -2.1130 C   0  0  0  0  0  0  0  0  0  0  0  0
   -0.2880   14.4920   -3.5650 C   0  0  0  0  0  0  0  0  0  0  0  0
    0.8710   14.3610   -4.5580 C   0  0  2  0  0  0  0  0  0  0  0  0
    1.8620   15.5470   -4.2960 C   0  0  0  0  0  0  0  0  0  0  0  0
   -0.7563   16.2752   -4.8218 H   0  0  0  0  0  0  0  0  0  0  0  0
   -0.9737   17.4656   -6.1494 H   0  0  0  0  0  0  0  0  0  0  0  0
   -1.9184   15.9378   -6.1494 H   0  0  0  0  0  0  0  0  0  0  0  0
    1.0423   16.3657   -6.6698 H   0  0  0  0  0  0  0  0  0  0  0  0
    0.0814   14.4986   -8.4821 H   0  0  0  0  0  0  0  0  0  0  0  0
   -1.3114   15.6596   -8.2484 H   0  0  0  0  0  0  0  0  0  0  0  0
   -0.1575   16.5729  -10.0498 H   0  0  0  0  0  0  0  0  0  0  0  0
    0.4579   17.4962   -8.6157 H   0  0  0  0  0  0  0  0  0  0  0  0
    2.1065   16.0851   -8.3953 H   0  0  0  0  0  0  0  0  0  0  0  0
    0.3331   14.2727  -10.9628 H   0  0  0  0  0  0  0  0  0  0  0  0
    0.7617   15.5099  -12.1925 H   0  0  0  0  0  0  0  0  0  0  0  0
    1.5935   13.9178  -12.1925 H   0  0  0  0  0  0  0  0  0  0  0  0
    3.8178   14.3572   -9.5729 H   0  0  0  0  0  0  0  0  0  0  0  0
    3.4066   13.5583  -11.1283 H   0  0  0  0  0  0  0  0  0  0  0  0
    4.2745   15.1310  -11.1283 H   0  0  0  0  0  0  0  0  0  0  0  0
   -0.4532   13.8417   -6.2162 H   0  0  0  0  0  0  0  0  0  0  0  0
    1.4056   12.9776   -7.4944 H   0  0  0  0  0  0  0  0  0  0  0  0
    2.3820   14.4334   -7.2038 H   0  0  0  0  0  0  0  0  0  0  0  0
    2.7316   11.9122   -5.9051 H   0  0  0  0  0  0  0  0  0  0  0  0
    3.4449   13.4210   -5.3411 H   0  0  0  0  0  0  0  0  0  0  0  0
    0.1684   11.3211   -3.7534 H   0  0  0  0  0  0  0  0  0  0  0  0
   -0.3326   12.1239   -5.2802 H   0  0  0  0  0  0  0  0  0  0  0  0
    1.0499   10.9771   -5.2802 H   0  0  0  0  0  0  0  0  0  0  0  0
    2.8960   13.6049   -2.9901 H   0  0  0  0  0  0  0  0  0  0  0  0
    3.3355   11.1617   -3.6807 H   0  0  0  0  0  0  0  0  0  0  0  0
    3.6756   11.7431   -1.9672 H   0  0  0  0  0  0  0  0  0  0  0  0
    2.5452    9.3738   -2.1913 H   0  0  0  0  0  0  0  0  0  0  0  0
   -0.5729   11.9377   -2.1428 H   0  0  0  0  0  0  0  0  0  0  0  0
    0.4920   11.9742    0.7494 H   0  0  0  0  0  0  0  0  0  0  0  0
   -0.9100   12.9279    0.0898 H   0  0  0  0  0  0  0  0  0  0  0  0
   -1.6478   10.9615    1.3971 H   0  0  0  0  0  0  0  0  0  0  0  0
   -2.1404   10.8800   -0.3398 H   0  0  0  0  0  0  0  0  0  0  0  0
   -1.3621    8.7145    0.3437 H   0  0  0  0  0  0  0  0  0  0  0  0
    0.5540   10.2780    1.5970 H   0  0  0  0  0  0  0  0  0  0  0  0
   -2.0455    8.9298   -1.7245 H   0  0  0  0  0  0  0  0  0  0  0  0
   -1.1505    9.9896   -2.8656 H   0  0  0  0  0  0  0  0  0  0  0  0
   -0.8549    8.2178   -2.8656 H   0  0  0  0  0  0  0  0  0  0  0  0
    1.0007    7.6456   -0.1029 H   0  0  0  0  0  0  0  0  0  0  0  0
    0.2454    7.1583   -1.6581 H   0  0  0  0  0  0  0  0  0  0  0  0
    1.7916    8.0725   -1.6581 H   0  0  0  0  0  0  0  0  0  0  0  0
    1.4992   13.2997    0.3584 H   0  0  0  0  0  0  0  0  0  0  0  0
    2.9822   13.0129   -0.6138 H   0  0  0  0  0  0  0  0  0  0  0  0
    2.2078   14.6337   -0.6138 H   0  0  0  0  0  0  0  0  0  0  0  0
   -0.6718   14.2833   -1.4624 H   0  0  0  0  0  0  0  0  0  0  0  0
    0.8376   15.2463   -1.9411 H   0  0  0  0  0  0  0  0  0  0  0  0
   -1.0254   13.7009   -3.7661 H   0  0  0  0  0  0  0  0  0  0  0  0
   -0.7452   15.4848   -3.6884 H   0  0  0  0  0  0  0  0  0  0  0  0
    1.9827   15.6914   -3.2122 H   0  0  0  0  0  0  0  0  0  0  0  0
    2.8386   15.3150   -4.7460 H   0  0  0  0  0  0  0  0  0  0  0  0
    1.4602   16.4668   -4.7460 H   0  0  0  0  0  0  0  0  0  0  0  0
  1  2  1  0
  2  3  1  0
  3  4  1  0
  4  5  1  0
  5  6  1  0
  6  7  1  0
  7  8  1  0
  7  9  1  0
  2 10  1  0
 10 11  1  0
 11 12  1  0
 12 13  1  0
 13 14  1  6
 13 15  1  0
 15 16  1  0
 16 17  1  0
 17 18  2  0
 18 19  1  0
 19 20  1  0
 20 21  1  0
 21 22  1  0
 22 23  1  0
 22 24  1  0
 24 25  1  0
 24 26  1  0
 19 27  1  0
 27 28  1  1
 27 29  1  0
 29 30  1  0
 30 31  1  0
 31 32  1  6
  7  5  1  0
 31 10  1  0
 31 13  1  0
 27 15  1  0
 24 18  1  0
  1 33  1  0
  1 34  1  0
  1 35  1  0
  2 36  1  6
  3 37  1  0
  3 38  1  0
  4 39  1  0
  4 40  1  0
  5 41  1  1
  8 42  1  0
  8 43  1  0
  8 44  1  0
  9 45  1  0
  9 46  1  0
  9 47  1  0
 10 48  1  1
 11 49  1  0
 11 50  1  0
 12 51  1  0
 12 52  1  0
 14 53  1  0
 14 54  1  0
 14 55  1  0
 15 56  1  6
 16 57  1  0
 16 58  1  0
 17 59  1  0
 19 60  1  6
 20 61  1  0
 20 62  1  0
 21 63  1  0
 21 64  1  0
 22 65  1  1
 23 66  1  0
 25 67  1  0
 25 68  1  0
 25 69  1  0
 26 70  1  0
 26 71  1  0
 26 72  1  0
 28 73  1  0
 28 74  1  0
 28 75  1  0
 29 76  1  0
 29 77  1  0
 30 78  1  0
 30 79  1  0
 32 80  1  0
 32 81  1  0
 32 82  1  0
M  END
>  <meeko>  (10) 
{"is_sidechain": [false], "intermolecular_energy": 2.731, "internal_energy": -0.839}

$$$$
EPH_relaxed_0001_pdb2pqr_Repair_369_r2_0001_out
     RDKit          3D

 82 86  0  0  0  0  0  0  0  0999 V2000
    0.0970    9.3930   -2.6130 C   0  0  0  0  0  0  0  0  0  0  0  0
    1.1440   10.4310   -3.0260 C   0  0  2  0  0  0  0  0  0  0  0  0
    2.5560    9.8190   -3.1340 C   0  0  0  0  0  0  0  0  0  0  0  0
    3.5050   10.6170   -4.0320 C   0  0  0  0  0  0  0  0  0  0  0  0
    4.8720   10.7330   -3.4300 C   0  0  2  0  0  0  0  0  0  0  0  0
    5.5650   11.9480   -3.7450 O   0  0  0  0  0  0  0  0  0  0  0  0
    6.1500   10.7360   -4.2480 C   0  0  0  0  0  0  0  0  0  0  0  0
    6.1210   10.6200   -5.7400 C   0  0  0  0  0  0  0  0  0  0  0  0
    7.4320   10.3610   -3.5740 C   0  0  0  0  0  0  0  0  0  0  0  0
    1.1510   11.5860   -2.0320 C   0  0  1  0  0  0  0  0  0  0  0  0
    2.2090   11.4030   -0.9110 C   0  0  0  0  0  0  0  0  0  0  0  0
    2.7460   12.8160   -0.5670 C   0  0  0  0  0  0  0  0  0  0  0  0
    1.7570   13.7870   -1.2540 C   0  0  1  0  0  0  0  0  0  0  0  0
    0.5400   13.8760   -0.2810 C   0  0  0  0  0  0  0  0  0  0  0  0
    2.3150   15.2030   -1.6120 C   0  0  2  0  0  0  0  0  0  0  0  0
    2.7610   16.0510   -0.4080 C   0  0  0  0  0  0  0  0  0  0  0  0
    1.7050   16.9250    0.1840 C   0  0  0  0  0  0  0  0  0  0  0  0
    0.5350   17.2420   -0.4010 C   0  0  0  0  0  0  0  0  0  0  0  0
    0.2180   16.7840   -1.8300 C   0  0  1  0  0  0  0  0  0  0  0  0
   -0.3550   17.9750   -2.6410 C   0  0  0  0  0  0  0  0  0  0  0  0
   -1.5540   18.6260   -1.9580 C   0  0  0  0  0  0  0  0  0  0  0  0
   -1.1840   19.1200   -0.5620 C   0  0  2  0  0  0  0  0  0  0  0  0
   -0.2470   20.1940   -0.6870 O   0  0  0  0  0  0  0  0  0  0  0  0
   -0.5860   18.0080    0.3440 C   0  0  0  0  0  0  0  0  0  0  0  0
   -1.6950   16.9960    0.7260 C   0  0  0  0  0  0  0  0  0  0  0  0
   -0.1260   18.6690    1.6710 C   0  0  0  0  0  0  0  0  0  0  0  0
    1.3930   16.0340   -2.5940 C   0  0  1  0  0  0  0  0  0  0  0  0
    2.3170   17.0730   -3.2990 C   0  0  0  0  0  0  0  0  0  0  0  0
    0.7770   15.1410   -3.7350 C   0  0  0  0  0  0  0  0  0  0  0  0
    0.3550   13.7110   -3.3470 C   0  0  0  0  0  0  0  0  0  0  0  0
    1.4750   12.9970   -2.5840 C   0  0  2  0  0  0  0  0  0  0  0  0
    2.7060   12.8730   -3.5460 C   0  0  0  0  0  0  0  0  0  0  0  0
    0.0449    9.3414   -1.5154 H   0  0  0  0  0  0  0  0  0  0  0  0
   -0.8854    9.6838   -3.0134 H   0  0  0  0  0  0  0  0  0  0  0  0
    0.3793    8.4081   -3.0134 H   0  0  0  0  0  0  0  0  0  0  0  0
    0.8675   10.8020   -4.0240 H   0  0  0  0  0  0  0  0  0  0  0  0
    2.9915    9.7700   -2.1251 H   0  0  0  0  0  0  0  0  0  0  0  0
    2.4416    8.8246   -3.5901 H   0  0  0  0  0  0  0  0  0  0  0  0
    3.5859   10.1099   -5.0048 H   0  0  0  0  0  0  0  0  0  0  0  0
    3.0948   11.6310   -4.1486 H   0  0  0  0  0  0  0  0  0  0  0  0
    4.5594   10.1489   -2.5519 H   0  0  0  0  0  0  0  0  0  0  0  0
    5.8632    9.5887   -6.0226 H   0  0  0  0  0  0  0  0  0  0  0  0
    5.3679   11.3109   -6.1469 H   0  0  0  0  0  0  0  0  0  0  0  0
    7.1106   10.8752   -6.1469 H   0  0  0  0  0  0  0  0  0  0  0  0
    7.2978   10.4003   -2.4829 H   0  0  0  0  0  0  0  0  0  0  0  0
    7.7182    9.3415   -3.8718 H   0  0  0  0  0  0  0  0  0  0  0  0
    8.2225   11.0655   -3.8718 H   0  0  0  0  0  0  0  0  0  0  0  0
    0.1050   11.5449   -1.6939 H   0  0  0  0  0  0  0  0  0  0  0  0
    1.7454   10.9476   -0.0235 H   0  0  0  0  0  0  0  0  0  0  0  0
    3.0231   10.7409   -1.2409 H   0  0  0  0  0  0  0  0  0  0  0  0
    2.7529   12.9745    0.5215 H   0  0  0  0  0  0  0  0  0  0  0  0
    3.7810   12.9636   -0.9089 H   0  0  0  0  0  0  0  0  0  0  0  0
    0.8989   13.8498    0.7585 H   0  0  0  0  0  0  0  0  0  0  0  0
   -0.0028   14.8162   -0.4578 H   0  0  0  0  0  0  0  0  0  0  0  0
   -0.1339   13.0247   -0.4578 H   0  0  0  0  0  0  0  0  0  0  0  0
    3.2345   14.9616   -2.1654 H   0  0  0  0  0  0  0  0  0  0  0  0
    3.1150   15.3666    0.3770 H   0  0  0  0  0  0  0  0  0  0  0  0
    3.5401   16.7293   -0.7860 H   0  0  0  0  0  0  0  0  0  0  0  0
    1.8995   17.3450    1.1819 H   0  0  0  0  0  0  0  0  0  0  0  0
   -0.5446   15.9969   -1.7349 H   0  0  0  0  0  0  0  0  0  0  0  0
    0.4347   18.7310   -2.7626 H   0  0  0  0  0  0  0  0  0  0  0  0
   -0.6953   17.5847   -3.6115 H   0  0  0  0  0  0  0  0  0  0  0  0
   -1.8940   19.4791   -2.5635 H   0  0  0  0  0  0  0  0  0  0  0  0
   -2.3546   17.8774   -1.8650 H   0  0  0  0  0  0  0  0  0  0  0  0
   -2.1113   19.4556   -0.0747 H   0  0  0  0  0  0  0  0  0  0  0  0
   -0.4110   20.6300   -1.5400 H   0  0  0  0  0  0  0  0  0  0  0  0
   -1.7686   16.9289    1.8215 H   0  0  0  0  0  0  0  0  0  0  0  0
   -2.6573   17.3337    0.3139 H   0  0  0  0  0  0  0  0  0  0  0  0
   -1.4465   16.0068    0.3139 H   0  0  0  0  0  0  0  0  0  0  0  0
   -0.5238   18.0974    2.5225 H   0  0  0  0  0  0  0  0  0  0  0  0
    0.9731   18.6760    1.7154 H   0  0  0  0  0  0  0  0  0  0  0  0
   -0.5013   19.7020    1.7154 H   0  0  0  0  0  0  0  0  0  0  0  0
    2.8460   17.6678   -2.5398 H   0  0  0  0  0  0  0  0  0  0  0  0
    3.0496   16.5453   -3.9273 H   0  0  0  0  0  0  0  0  0  0  0  0
    1.7074   17.7390   -3.9273 H   0  0  0  0  0  0  0  0  0  0  0  0
   -0.1148   15.6588   -4.1178 H   0  0  0  0  0  0  0  0  0  0  0  0
    1.5865   15.0130   -4.4687 H   0  0  0  0  0  0  0  0  0  0  0  0
   -0.5400   13.7604   -2.7094 H   0  0  0  0  0  0  0  0  0  0  0  0
    0.1418   13.1464   -4.2667 H   0  0  0  0  0  0  0  0  0  0  0  0
    3.6274   12.7802   -2.9523 H   0  0  0  0  0  0  0  0  0  0  0  0
    2.5873   11.9823   -4.1804 H   0  0  0  0  0  0  0  0  0  0  0  0
    2.7673   13.7695   -4.1804 H   0  0  0  0  0  0  0  0  0  0  0  0
  1  2  1  0
  2  3  1  0
  3  4  1  0
  4  5  1  0
  5  6  1  0
  6  7  1  0
  7  8  1  0
  7  9  1  0
  2 10  1  0
 10 11  1  0
 11 12  1  0
 12 13  1  0
 13 14  1  1
 13 15  1  0
 15 16  1  0
 16 17  1  0
 17 18  2  0
 18 19  1  0
 19 20  1  0
 20 21  1  0
 21 22  1  0
 22 23  1  0
 22 24  1  0
 24 25  1  0
 24 26  1  0
 19 27  1  0
 27 28  1  6
 27 29  1  0
 29 30  1  0
 30 31  1  0
 31 32  1  6
  7  5  1  0
 31 10  1  0
 31 13  1  0
 27 15  1  0
 24 18  1  0
  1 33  1  0
  1 34  1  0
  1 35  1  0
  2 36  1  6
  3 37  1  0
  3 38  1  0
  4 39  1  0
  4 40  1  0
  5 41  1  1
  8 42  1  0
  8 43  1  0
  8 44  1  0
  9 45  1  0
  9 46  1  0
  9 47  1  0
 10 48  1  1
 11 49  1  0
 11 50  1  0
 12 51  1  0
 12 52  1  0
 14 53  1  0
 14 54  1  0
 14 55  1  0
 15 56  1  6
 16 57  1  0
 16 58  1  0
 17 59  1  0
 19 60  1  1
 20 61  1  0
 20 62  1  0
 21 63  1  0
 21 64  1  0
 22 65  1  1
 23 66  1  0
 25 67  1  0
 25 68  1  0
 25 69  1  0
 26 70  1  0
 26 71  1  0
 26 72  1  0
 28 73  1  0
 28 74  1  0
 28 75  1  0
 29 76  1  0
 29 77  1  0
 30 78  1  0
 30 79  1  0
 32 80  1  0
 32 81  1  0
 32 82  1  0
M  END
>  <meeko>  (11) 
{"is_sidechain": [false], "intermolecular_energy": 2.731, "internal_energy": -0.839}

$$$$
EPH_relaxed_0001_pdb2pqr_Repair_369_r2_0001_out
     RDKit          3D

 82 86  0  0  0  0  0  0  0  0999 V2000
   -0.2870   15.1120   -7.7450 C   0  0  0  0  0  0  0  0  0  0  0  0
    1.0670   15.1180   -7.0310 C   0  0  2  0  0  0  0  0  0  0  0  0
    2.2440   15.2340   -8.0190 C   0  0  0  0  0  0  0  0  0  0  0  0
    2.2450   16.5360   -8.8250 C   0  0  0  0  0  0  0  0  0  0  0  0
    1.8420   16.3050  -10.2500 C   0  0  2  0  0  0  0  0  0  0  0  0
    1.1820   15.0560  -10.4910 O   0  0  0  0  0  0  0  0  0  0  0  0
    2.4560   15.2330  -11.1310 C   0  0  0  0  0  0  0  0  0  0  0  0
    3.5260   14.3220  -10.6190 C   0  0  0  0  0  0  0  0  0  0  0  0
    2.3680   15.3910  -12.6170 C   0  0  0  0  0  0  0  0  0  0  0  0
    1.2160   13.8560   -6.1890 C   0  0  1  0  0  0  0  0  0  0  0  0
    2.6440   13.2530   -6.2640 C   0  0  0  0  0  0  0  0  0  0  0  0
    2.9500   12.6540   -4.8670 C   0  0  0  0  0  0  0  0  0  0  0  0
    1.5840   12.6330   -4.1440 C   0  0  1  0  0  0  0  0  0  0  0  0
    0.8680   11.3520   -4.6760 C   0  0  0  0  0  0  0  0  0  0  0  0
    1.6290   12.6620   -2.5810 C   0  0  2  0  0  0  0  0  0  0  0  0
    2.3200   11.4530   -1.9260 C   0  0  0  0  0  0  0  0  0  0  0  0
    1.4240   10.3060   -1.5990 C   0  0  0  0  0  0  0  0  0  0  0  0
    0.0790   10.3500   -1.5580 C   0  0  0  0  0  0  0  0  0  0  0  0
   -0.6720   11.6730   -1.7620 C   0  0  1  0  0  0  0  0  0  0  0  0
   -1.7650   11.8210   -0.6720 C   0  0  0  0  0  0  0  0  0  0  0  0
   -2.7040   10.6200   -0.6180 C   0  0  0  0  0  0  0  0  0  0  0  0
   -1.9270    9.3320   -0.3550 C   0  0  2  0  0  0  0  0  0  0  0  0
   -1.3770    9.3870    0.9650 O   0  0  0  0  0  0  0  0  0  0  0  0
   -0.7910    9.0810   -1.3850 C   0  0  0  0  0  0  0  0  0  0  0  0
   -1.4060    8.7220   -2.7610 C   0  0  0  0  0  0  0  0  0  0  0  0
    0.0030    7.8290   -0.9250 C   0  0  0  0  0  0  0  0  0  0  0  0
    0.2350   12.9710   -1.8980 C   0  0  1  0  0  0  0  0  0  0  0  0
    0.5500   13.5500   -0.4850 C   0  0  0  0  0  0  0  0  0  0  0  0
   -0.5730   14.0840   -2.6640 C   0  0  0  0  0  0  0  0  0  0  0  0
   -0.4810   14.0750   -4.2020 C   0  0  0  0  0  0  0  0  0  0  0  0
    0.9770   13.9860   -4.6640 C   0  0  2  0  0  0  0  0  0  0  0  0
    1.7170   15.2730   -4.1620 C   0  0  0  0  0  0  0  0  0  0  0  0
   -1.0951   15.1084   -6.9987 H   0  0  0  0  0  0  0  0  0  0  0  0
   -0.3734   16.0098   -8.3747 H   0  0  0  0  0  0  0  0  0  0  0  0
   -0.3655   14.2135   -8.3747 H   0  0  0  0  0  0  0  0  0  0  0  0
    1.0940   16.0045   -6.3804 H   0  0  0  0  0  0  0  0  0  0  0  0
    3.1830   15.1779   -7.4487 H   0  0  0  0  0  0  0  0  0  0  0  0
    2.1410   14.4097   -8.7400 H   0  0  0  0  0  0  0  0  0  0  0  0
    1.5377   17.2413   -8.3642 H   0  0  0  0  0  0  0  0  0  0  0  0
    3.2670   16.9428   -8.8189 H   0  0  0  0  0  0  0  0  0  0  0  0
    1.6809   17.3823  -10.4028 H   0  0  0  0  0  0  0  0  0  0  0  0
    3.5180   14.3288   -9.5191 H   0  0  0  0  0  0  0  0  0  0  0  0
    3.3412   13.2997  -10.9807 H   0  0  0  0  0  0  0  0  0  0  0  0
    4.5057   14.6674  -10.9807 H   0  0  0  0  0  0  0  0  0  0  0  0
    1.8455   16.3291  -12.8557 H   0  0  0  0  0  0  0  0  0  0  0  0
    3.3816   15.4170  -13.0436 H   0  0  0  0  0  0  0  0  0  0  0  0
    1.8123   14.5430  -13.0436 H   0  0  0  0  0  0  0  0  0  0  0  0
    0.4269   13.2380   -6.6423 H   0  0  0  0  0  0  0  0  0  0  0  0
    2.6829   12.4653   -7.0308 H   0  0  0  0  0  0  0  0  0  0  0  0
    3.3834   14.0209   -6.5353 H   0  0  0  0  0  0  0  0  0  0  0  0
    3.3551   11.6357   -4.9614 H   0  0  0  0  0  0  0  0  0  0  0  0
    3.7033   13.2384   -4.3185 H   0  0  0  0  0  0  0  0  0  0  0  0
    0.5274   10.7426   -3.8260 H   0  0  0  0  0  0  0  0  0  0  0  0
    0.0020   11.6436   -5.2885 H   0  0  0  0  0  0  0  0  0  0  0  0
    1.5700   10.7672   -5.2885 H   0  0  0  0  0  0  0  0  0  0  0  0
    2.2812   13.5245   -2.3795 H   0  0  0  0  0  0  0  0  0  0  0  0
    3.0971   11.0913   -2.6154 H   0  0  0  0  0  0  0  0  0  0  0  0
    2.7159   11.8131   -0.9649 H   0  0  0  0  0  0  0  0  0  0  0  0
    1.9030    9.3421   -1.3720 H   0  0  0  0  0  0  0  0  0  0  0  0
   -1.1418   11.6066   -2.7544 H   0  0  0  0  0  0  0  0  0  0  0  0
   -1.2746   11.9294    0.3066 H   0  0  0  0  0  0  0  0  0  0  0  0
   -2.3687   12.7057   -0.9226 H   0  0  0  0  0  0  0  0  0  0  0  0
   -3.4353   10.7707    0.1897 H   0  0  0  0  0  0  0  0  0  0  0  0
   -3.2155   10.5300   -1.5877 H   0  0  0  0  0  0  0  0  0  0  0  0
   -2.6325    8.4942   -0.4565 H   0  0  0  0  0  0  0  0  0  0  0  0
   -1.5800   10.2640    1.3320 H   0  0  0  0  0  0  0  0  0  0  0  0
   -2.3470    8.1727   -2.6100 H   0  0  0  0  0  0  0  0  0  0  0  0
   -1.6066    9.6449   -3.3250 H   0  0  0  0  0  0  0  0  0  0  0  0
   -0.7010    8.0935   -3.3250 H   0  0  0  0  0  0  0  0  0  0  0  0
    0.0260    7.7928    0.1742 H   0  0  0  0  0  0  0  0  0  0  0  0
   -0.4856    6.9225   -1.3116 H   0  0  0  0  0  0  0  0  0  0  0  0
    1.0313    7.8845   -1.3116 H   0  0  0  0  0  0  0  0  0  0  0  0
    0.1749   12.8606    0.2857 H   0  0  0  0  0  0  0  0  0  0  0  0
    1.6376   13.6697   -0.3719 H   0  0  0  0  0  0  0  0  0  0  0  0
    0.0597   14.5282   -0.3719 H   0  0  0  0  0  0  0  0  0  0  0  0
   -1.6332   13.9712   -2.3934 H   0  0  0  0  0  0  0  0  0  0  0  0
   -0.1168   15.0357   -2.3540 H   0  0  0  0  0  0  0  0  0  0  0  0
   -1.0351   13.2078   -4.5905 H   0  0  0  0  0  0  0  0  0  0  0  0
   -0.9134   15.0113   -4.5846 H   0  0  0  0  0  0  0  0  0  0  0  0
    1.7245   15.2861   -3.0621 H   0  0  0  0  0  0  0  0  0  0  0  0
    2.7515   15.2704   -4.5358 H   0  0  0  0  0  0  0  0  0  0  0  0
    1.1943   16.1658   -4.5358 H   0  0  0  0  0  0  0  0  0  0  0  0
  1  2  1  0
  2  3  1  0
  3  4  1  0
  4  5  1  0
  5  6  1  0
  6  7  1  0
  7  8  1  0
  7  9  1  0
  2 10  1  0
 10 11  1  0
 11 12  1  0
 12 13  1  0
 13 14  1  1
 13 15  1  0
 15 16  1  0
 16 17  1  0
 17 18  2  0
 18 19  1  0
 19 20  1  0
 20 21  1  0
 21 22  1  0
 22 23  1  0
 22 24  1  0
 24 25  1  0
 24 26  1  0
 19 27  1  0
 27 28  1  1
 27 29  1  0
 29 30  1  0
 30 31  1  0
 31 32  1  1
  7  5  1  0
 31 10  1  0
 31 13  1  0
 27 15  1  0
 24 18  1  0
  1 33  1  0
  1 34  1  0
  1 35  1  0
  2 36  1  1
  3 37  1  0
  3 38  1  0
  4 39  1  0
  4 40  1  0
  5 41  1  6
  8 42  1  0
  8 43  1  0
  8 44  1  0
  9 45  1  0
  9 46  1  0
  9 47  1  0
 10 48  1  6
 11 49  1  0
 11 50  1  0
 12 51  1  0
 12 52  1  0
 14 53  1  0
 14 54  1  0
 14 55  1  0
 15 56  1  6
 16 57  1  0
 16 58  1  0
 17 59  1  0
 19 60  1  6
 20 61  1  0
 20 62  1  0
 21 63  1  0
 21 64  1  0
 22 65  1  1
 23 66  1  0
 25 67  1  0
 25 68  1  0
 25 69  1  0
 26 70  1  0
 26 71  1  0
 26 72  1  0
 28 73  1  0
 28 74  1  0
 28 75  1  0
 29 76  1  0
 29 77  1  0
 30 78  1  0
 30 79  1  0
 32 80  1  0
 32 81  1  0
 32 82  1  0
M  END
>  <meeko>  (12) 
{"is_sidechain": [false], "intermolecular_energy": 2.731, "internal_energy": -0.839}

$$$$
EPH_relaxed_0001_pdb2pqr_Repair_369_r2_0001_out
     RDKit          3D

 82 86  0  0  0  0  0  0  0  0999 V2000
   -3.9450    7.3520   -3.6480 C   0  0  0  0  0  0  0  0  0  0  0  0
   -3.6360    7.2580   -2.1510 C   0  0  2  0  0  0  0  0  0  0  0  0
   -4.8620    6.8070   -1.3320 C   0  0  0  0  0  0  0  0  0  0  0  0
   -6.0270    6.3090   -2.1920 C   0  0  0  0  0  0  0  0  0  0  0  0
   -7.2710    6.1120   -1.3790 C   0  0  2  0  0  0  0  0  0  0  0  0
   -8.3670    5.5270   -2.0940 O   0  0  0  0  0  0  0  0  0  0  0  0
   -8.5610    6.8710   -1.6270 C   0  0  0  0  0  0  0  0  0  0  0  0
   -8.6720    7.8860   -2.7220 C   0  0  0  0  0  0  0  0  0  0  0  0
   -9.5510    6.9840   -0.5100 C   0  0  0  0  0  0  0  0  0  0  0  0
   -3.1340    8.6030   -1.6380 C   0  0  1  0  0  0  0  0  0  0  0  0
   -3.8060    9.0220   -0.3040 C   0  0  0  0  0  0  0  0  0  0  0  0
   -2.7310    9.7780    0.5200 C   0  0  0  0  0  0  0  0  0  0  0  0
   -1.5920   10.0580   -0.4880 C   0  0  1  0  0  0  0  0  0  0  0  0
   -2.0570   11.3220   -1.2780 C   0  0  0  0  0  0  0  0  0  0  0  0
   -0.1640   10.2490    0.1180 C   0  0  2  0  0  0  0  0  0  0  0  0
   -0.0130   11.4520    1.0650 C   0  0  0  0  0  0  0  0  0  0  0  0
    0.4000   12.7300    0.4110 C   0  0  0  0  0  0  0  0  0  0  0  0
    0.9140   12.8440   -0.8270 C   0  0  0  0  0  0  0  0  0  0  0  0
    1.2180   11.6000   -1.6720 C   0  0  1  0  0  0  0  0  0  0  0  0
    2.6290   11.7350   -2.3030 C   0  0  0  0  0  0  0  0  0  0  0  0
    2.7960   13.0310   -3.0910 C   0  0  0  0  0  0  0  0  0  0  0  0
    2.5420   14.2460   -2.2030 C   0  0  2  0  0  0  0  0  0  0  0  0
    3.5760   14.3190   -1.2160 O   0  0  0  0  0  0  0  0  0  0  0  0
    1.1540   14.2160   -1.5050 C   0  0  0  0  0  0  0  0  0  0  0  0
    0.0390   14.4400   -2.5560 C   0  0  0  0  0  0  0  0  0  0  0  0
    1.0820   15.4230   -0.5320 C   0  0  0  0  0  0  0  0  0  0  0  0
    1.0050   10.2020   -0.9480 C   0  0  1  0  0  0  0  0  0  0  0  0
    2.2970    9.8000   -0.1740 C   0  0  0  0  0  0  0  0  0  0  0  0
    0.7760    9.0880   -2.0380 C   0  0  0  0  0  0  0  0  0  0  0  0
   -0.6740    8.8660   -2.5090 C   0  0  0  0  0  0  0  0  0  0  0  0
   -1.6230    8.7210   -1.3160 C   0  0  2  0  0  0  0  0  0  0  0  0
   -1.1940    7.4450   -0.5150 C   0  0  0  0  0  0  0  0  0  0  0  0
   -4.9889    7.6696   -3.7877 H   0  0  0  0  0  0  0  0  0  0  0  0
   -3.2726    8.0862   -4.1158 H   0  0  0  0  0  0  0  0  0  0  0  0
   -3.7954    6.3677   -4.1158 H   0  0  0  0  0  0  0  0  0  0  0  0
   -2.8539    6.4953   -2.0223 H   0  0  0  0  0  0  0  0  0  0  0  0
   -4.5514    5.9916   -0.6621 H   0  0  0  0  0  0  0  0  0  0  0  0
   -5.2226    7.6882   -0.7811 H   0  0  0  0  0  0  0  0  0  0  0  0
   -6.2298    7.0486   -2.9806 H   0  0  0  0  0  0  0  0  0  0  0  0
   -5.7432    5.3387   -2.6256 H   0  0  0  0  0  0  0  0  0  0  0  0
   -6.6775    5.9430   -0.4684 H   0  0  0  0  0  0  0  0  0  0  0  0
   -8.7816    8.8886   -2.2829 H   0  0  0  0  0  0  0  0  0  0  0  0
   -7.7651    7.8552   -3.3438 H   0  0  0  0  0  0  0  0  0  0  0  0
   -9.5508    7.6599   -3.3438 H   0  0  0  0  0  0  0  0  0  0  0  0
   -9.0246    6.9239    0.4540 H   0  0  0  0  0  0  0  0  0  0  0  0
  -10.0761    7.9479   -0.5816 H   0  0  0  0  0  0  0  0  0  0  0  0
  -10.2798    6.1632   -0.5816 H   0  0  0  0  0  0  0  0  0  0  0  0
   -3.3853    9.2361   -2.5017 H   0  0  0  0  0  0  0  0  0  0  0  0
   -4.6640    9.6811   -0.5026 H   0  0  0  0  0  0  0  0  0  0  0  0
   -4.1784    8.1438    0.2438 H   0  0  0  0  0  0  0  0  0  0  0  0
   -3.1377   10.7195    0.9177 H   0  0  0  0  0  0  0  0  0  0  0  0
   -2.3862    9.1971    1.3882 H   0  0  0  0  0  0  0  0  0  0  0  0
   -2.3474   12.1113   -0.5690 H   0  0  0  0  0  0  0  0  0  0  0  0
   -1.2327   11.6827   -1.9108 H   0  0  0  0  0  0  0  0  0  0  0  0
   -2.9185   11.0625   -1.9108 H   0  0  0  0  0  0  0  0  0  0  0  0
   -0.0549    9.3554    0.7501 H   0  0  0  0  0  0  0  0  0  0  0  0
   -0.9817   11.6200    1.5584 H   0  0  0  0  0  0  0  0  0  0  0  0
    0.7967   11.1911    1.7623 H   0  0  0  0  0  0  0  0  0  0  0  0
    0.2731   13.6562    0.9907 H   0  0  0  0  0  0  0  0  0  0  0  0
    0.4554   11.5764   -2.4644 H   0  0  0  0  0  0  0  0  0  0  0  0
    3.3787   11.7124   -1.4984 H   0  0  0  0  0  0  0  0  0  0  0  0
    2.7626   10.8982   -3.0044 H   0  0  0  0  0  0  0  0  0  0  0  0
    3.8211   13.0822   -3.4866 H   0  0  0  0  0  0  0  0  0  0  0  0
    2.0655   13.0384   -3.9134 H   0  0  0  0  0  0  0  0  0  0  0  0
    2.5471   15.1350   -2.8507 H   0  0  0  0  0  0  0  0  0  0  0  0
    3.9870   13.4400   -1.1550 H   0  0  0  0  0  0  0  0  0  0  0  0
   -0.9151   14.6317   -2.0432 H   0  0  0  0  0  0  0  0  0  0  0  0
    0.2969   15.3043   -3.1857 H   0  0  0  0  0  0  0  0  0  0  0  0
   -0.0569   13.5432   -3.1857 H   0  0  0  0  0  0  0  0  0  0  0  0
    1.1037   15.0591    0.5058 H   0  0  0  0  0  0  0  0  0  0  0  0
    1.9422   16.0862   -0.7061 H   0  0  0  0  0  0  0  0  0  0  0  0
    0.1491   15.9792   -0.7061 H   0  0  0  0  0  0  0  0  0  0  0  0
    2.1092    9.8584    0.9083 H   0  0  0  0  0  0  0  0  0  0  0  0
    2.5799    8.7714   -0.4420 H   0  0  0  0  0  0  0  0  0  0  0  0
    3.1136   10.4865   -0.4420 H   0  0  0  0  0  0  0  0  0  0  0  0
    1.3752    9.3573   -2.9203 H   0  0  0  0  0  0  0  0  0  0  0  0
    1.0690    8.1453   -1.5527 H   0  0  0  0  0  0  0  0  0  0  0  0
   -0.9901    9.7261   -3.1175 H   0  0  0  0  0  0  0  0  0  0  0  0
   -0.7119    7.9398   -3.1013 H   0  0  0  0  0  0  0  0  0  0  0  0
   -1.2626    7.6490    0.5637 H   0  0  0  0  0  0  0  0  0  0  0  0
   -1.8604    6.6088   -0.7731 H   0  0  0  0  0  0  0  0  0  0  0  0
   -0.1578    7.1812   -0.7731 H   0  0  0  0  0  0  0  0  0  0  0  0
  1  2  1  0
  2  3  1  0
  3  4  1  0
  4  5  1  0
  5  6  1  0
  6  7  1  0
  7  8  1  0
  7  9  1  0
  2 10  1  0
 10 11  1  0
 11 12  1  0
 12 13  1  0
 13 14  1  6
 13 15  1  0
 15 16  1  0
 16 17  1  0
 17 18  2  0
 18 19  1  0
 19 20  1  0
 20 21  1  0
 21 22  1  0
 22 23  1  0
 22 24  1  0
 24 25  1  0
 24 26  1  0
 19 27  1  0
 27 28  1  1
 27 29  1  0
 29 30  1  0
 30 31  1  0
 31 32  1  1
  7  5  1  0
 31 10  1  0
 31 13  1  0
 27 15  1  0
 24 18  1  0
  1 33  1  0
  1 34  1  0
  1 35  1  0
  2 36  1  6
  3 37  1  0
  3 38  1  0
  4 39  1  0
  4 40  1  0
  5 41  1  1
  8 42  1  0
  8 43  1  0
  8 44  1  0
  9 45  1  0
  9 46  1  0
  9 47  1  0
 10 48  1  6
 11 49  1  0
 11 50  1  0
 12 51  1  0
 12 52  1  0
 14 53  1  0
 14 54  1  0
 14 55  1  0
 15 56  1  1
 16 57  1  0
 16 58  1  0
 17 59  1  0
 19 60  1  6
 20 61  1  0
 20 62  1  0
 21 63  1  0
 21 64  1  0
 22 65  1  6
 23 66  1  0
 25 67  1  0
 25 68  1  0
 25 69  1  0
 26 70  1  0
 26 71  1  0
 26 72  1  0
 28 73  1  0
 28 74  1  0
 28 75  1  0
 29 76  1  0
 29 77  1  0
 30 78  1  0
 30 79  1  0
 32 80  1  0
 32 81  1  0
 32 82  1  0
M  END
>  <meeko>  (13) 
{"is_sidechain": [false], "intermolecular_energy": 2.731, "internal_energy": -0.839}

$$$$
EPH_relaxed_0001_pdb2pqr_Repair_369_r2_0001_out
     RDKit          3D

 82 86  0  0  0  0  0  0  0  0999 V2000
    0.4190   19.1490   -2.3700 C   0  0  0  0  0  0  0  0  0  0  0  0
    0.1030   18.1460   -1.2570 C   0  0  2  0  0  0  0  0  0  0  0  0
    0.7360   18.5520    0.0880 C   0  0  0  0  0  0  0  0  0  0  0  0
    1.8960   19.5410   -0.0510 C   0  0  0  0  0  0  0  0  0  0  0  0
    2.6930   19.6430    1.2140 C   0  0  2  0  0  0  0  0  0  0  0  0
    4.0080   20.1920    1.0510 O   0  0  0  0  0  0  0  0  0  0  0  0
    3.9410   18.8240    1.4850 C   0  0  0  0  0  0  0  0  0  0  0  0
    4.4630   17.8420    0.4830 C   0  0  0  0  0  0  0  0  0  0  0  0
    4.3690   18.6200    2.9050 C   0  0  0  0  0  0  0  0  0  0  0  0
    0.5800   16.7550   -1.6600 C   0  0  1  0  0  0  0  0  0  0  0  0
    2.0280   16.7590   -2.2170 C   0  0  0  0  0  0  0  0  0  0  0  0
    2.6860   15.4310   -1.7630 C   0  0  0  0  0  0  0  0  0  0  0  0
    1.5090   14.5680   -1.2510 C   0  0  1  0  0  0  0  0  0  0  0  0
    0.8700   13.9570   -2.5370 C   0  0  0  0  0  0  0  0  0  0  0  0
    1.8670   13.4630   -0.2040 C   0  0  2  0  0  0  0  0  0  0  0  0
    2.8260   12.3710   -0.7090 C   0  0  0  0  0  0  0  0  0  0  0  0
    2.1690   11.1800   -1.3240 C   0  0  0  0  0  0  0  0  0  0  0  0
    0.8670   10.8600   -1.2120 C   0  0  0  0  0  0  0  0  0  0  0  0
   -0.0730   11.6850   -0.3220 C   0  0  1  0  0  0  0  0  0  0  0  0
   -0.9320   10.7300    0.5480 C   0  0  0  0  0  0  0  0  0  0  0  0
   -1.6780    9.6920   -0.2850 C   0  0  0  0  0  0  0  0  0  0  0  0
   -0.7060    8.8540   -1.1110 C   0  0  2  0  0  0  0  0  0  0  0  0
    0.0900    8.0620   -0.2230 O   0  0  0  0  0  0  0  0  0  0  0  0
    0.2200    9.7090   -2.0210 C   0  0  0  0  0  0  0  0  0  0  0  0
   -0.6110   10.3300   -3.1710 C   0  0  0  0  0  0  0  0  0  0  0  0
    1.2440    8.7540   -2.6910 C   0  0  0  0  0  0  0  0  0  0  0  0
    0.6140   12.8360    0.5310 C   0  0  1  0  0  0  0  0  0  0  0  0
    1.1330   12.2590    1.8830 C   0  0  0  0  0  0  0  0  0  0  0  0
   -0.4690   13.9200    0.8970 C   0  0  0  0  0  0  0  0  0  0  0  0
   -0.6910   15.0520   -0.1240 C   0  0  0  0  0  0  0  0  0  0  0  0
    0.6410   15.6750   -0.5500 C   0  0  2  0  0  0  0  0  0  0  0  0
    1.2970   16.3170    0.7190 C   0  0  0  0  0  0  0  0  0  0  0  0
    0.7212   20.1082   -1.9243 H   0  0  0  0  0  0  0  0  0  0  0  0
    1.2380   18.7598   -2.9926 H   0  0  0  0  0  0  0  0  0  0  0  0
   -0.4752   19.2996   -2.9926 H   0  0  0  0  0  0  0  0  0  0  0  0
   -0.9882   18.1387   -1.1181 H   0  0  0  0  0  0  0  0  0  0  0  0
   -0.0423   19.0152    0.7122 H   0  0  0  0  0  0  0  0  0  0  0  0
    1.1466   17.6366    0.5392 H   0  0  0  0  0  0  0  0  0  0  0  0
    2.5572   19.2029   -0.8625 H   0  0  0  0  0  0  0  0  0  0  0  0
    1.4756   20.5332   -0.2720 H   0  0  0  0  0  0  0  0  0  0  0  0
    1.7798   19.8132    1.8032 H   0  0  0  0  0  0  0  0  0  0  0  0
    4.9167   16.9885    1.0081 H   0  0  0  0  0  0  0  0  0  0  0  0
    3.6349   17.4864   -0.1477 H   0  0  0  0  0  0  0  0  0  0  0  0
    5.2210   18.3295   -0.1477 H   0  0  0  0  0  0  0  0  0  0  0  0
    3.5858   18.9933    3.5812 H   0  0  0  0  0  0  0  0  0  0  0  0
    4.5314   17.5477    3.0886 H   0  0  0  0  0  0  0  0  0  0  0  0
    5.3043   19.1692    3.0886 H   0  0  0  0  0  0  0  0  0  0  0  0
   -0.1985   16.4977   -2.3933 H   0  0  0  0  0  0  0  0  0  0  0  0
    2.0111   16.8172   -3.3153 H   0  0  0  0  0  0  0  0  0  0  0  0
    2.5920   17.6267   -1.8441 H   0  0  0  0  0  0  0  0  0  0  0  0
    3.1900   14.9386   -2.6077 H   0  0  0  0  0  0  0  0  0  0  0  0
    3.4545   15.5883   -0.9919 H   0  0  0  0  0  0  0  0  0  0  0  0
    0.1022   13.2228   -2.2516 H   0  0  0  0  0  0  0  0  0  0  0  0
    0.4080   14.7579   -3.1329 H   0  0  0  0  0  0  0  0  0  0  0  0
    1.6494   13.4596   -3.1329 H   0  0  0  0  0  0  0  0  0  0  0  0
    2.4307   14.0293    0.5520 H   0  0  0  0  0  0  0  0  0  0  0  0
    3.4873   12.8219   -1.4636 H   0  0  0  0  0  0  0  0  0  0  0  0
    3.3591   11.9999    0.1787 H   0  0  0  0  0  0  0  0  0  0  0  0
    2.8033   10.5068   -1.9194 H   0  0  0  0  0  0  0  0  0  0  0  0
   -0.7219   12.2513   -1.0063 H   0  0  0  0  0  0  0  0  0  0  0  0
   -0.2712   10.2064    1.2545 H   0  0  0  0  0  0  0  0  0  0  0  0
   -1.6827   11.3400    1.0719 H   0  0  0  0  0  0  0  0  0  0  0  0
   -2.2430    9.0295    0.3872 H   0  0  0  0  0  0  0  0  0  0  0  0
   -2.3597   10.2164   -0.9708 H   0  0  0  0  0  0  0  0  0  0  0  0
   -1.3046    8.2193   -1.7809 H   0  0  0  0  0  0  0  0  0  0  0  0
   -0.2930    8.1440    0.6670 H   0  0  0  0  0  0  0  0  0  0  0  0
   -1.4246   10.9380   -2.7486 H   0  0  0  0  0  0  0  0  0  0  0  0
    0.0383   10.9660   -3.7906 H   0  0  0  0  0  0  0  0  0  0  0  0
   -1.0370    9.5271   -3.7906 H   0  0  0  0  0  0  0  0  0  0  0  0
    1.8132    8.2231   -1.9138 H   0  0  0  0  0  0  0  0  0  0  0  0
    0.7096    8.0242   -3.3170 H   0  0  0  0  0  0  0  0  0  0  0  0
    1.9348    9.3379   -3.3170 H   0  0  0  0  0  0  0  0  0  0  0  0
    0.6536   12.7920    2.7173 H   0  0  0  0  0  0  0  0  0  0  0  0
    0.8881   11.1883    1.9429 H   0  0  0  0  0  0  0  0  0  0  0  0
    2.2236   12.3896    1.9429 H   0  0  0  0  0  0  0  0  0  0  0  0
   -1.4288   13.3996    1.0309 H   0  0  0  0  0  0  0  0  0  0  0  0
   -0.0848   14.4176    1.7996 H   0  0  0  0  0  0  0  0  0  0  0  0
   -1.1967   14.6425   -1.0109 H   0  0  0  0  0  0  0  0  0  0  0  0
   -1.3085   15.8318    0.3457 H   0  0  0  0  0  0  0  0  0  0  0  0
    0.8500   15.8796    1.6239 H   0  0  0  0  0  0  0  0  0  0  0  0
    2.3791   16.1193    0.7122 H   0  0  0  0  0  0  0  0  0  0  0  0
    1.1227   17.4031    0.7122 H   0  0  0  0  0  0  0  0  0  0  0  0
  1  2  1  0
  2  3  1  0
  3  4  1  0
  4  5  1  0
  5  6  1  0
  6  7  1  0
  7  8  1  0
  7  9  1  0
  2 10  1  0
 10 11  1  0
 11 12  1  0
 12 13  1  0
 13 14  1  6
 13 15  1  0
 15 16  1  0
 16 17  1  0
 17 18  2  0
 18 19  1  0
 19 20  1  0
 20 21  1  0
 21 22  1  0
 22 23  1  0
 22 24  1  0
 24 25  1  0
 24 26  1  0
 19 27  1  0
 27 28  1  1
 27 29  1  0
 29 30  1  0
 30 31  1  0
 31 32  1  1
  7  5  1  0
 31 10  1  0
 31 13  1  0
 27 15  1  0
 24 18  1  0
  1 33  1  0
  1 34  1  0
  1 35  1  0
  2 36  1  1
  3 37  1  0
  3 38  1  0
  4 39  1  0
  4 40  1  0
  5 41  1  1
  8 42  1  0
  8 43  1  0
  8 44  1  0
  9 45  1  0
  9 46  1  0
  9 47  1  0
 10 48  1  6
 11 49  1  0
 11 50  1  0
 12 51  1  0
 12 52  1  0
 14 53  1  0
 14 54  1  0
 14 55  1  0
 15 56  1  1
 16 57  1  0
 16 58  1  0
 17 59  1  0
 19 60  1  6
 20 61  1  0
 20 62  1  0
 21 63  1  0
 21 64  1  0
 22 65  1  6
 23 66  1  0
 25 67  1  0
 25 68  1  0
 25 69  1  0
 26 70  1  0
 26 71  1  0
 26 72  1  0
 28 73  1  0
 28 74  1  0
 28 75  1  0
 29 76  1  0
 29 77  1  0
 30 78  1  0
 30 79  1  0
 32 80  1  0
 32 81  1  0
 32 82  1  0
M  END
>  <meeko>  (14) 
{"is_sidechain": [false], "intermolecular_energy": 2.731, "internal_energy": -0.839}

$$$$
EPH_relaxed_0001_pdb2pqr_Repair_369_r2_0001_out
     RDKit          3D

 82 86  0  0  0  0  0  0  0  0999 V2000
    2.8640   11.4250   -5.5190 C   0  0  0  0  0  0  0  0  0  0  0  0
    1.9480   11.1120   -4.3320 C   0  0  2  0  0  0  0  0  0  0  0  0
    0.8400   10.1060   -4.7030 C   0  0  0  0  0  0  0  0  0  0  0  0
   -0.2370    9.9510   -3.6260 C   0  0  0  0  0  0  0  0  0  0  0  0
    0.2160    9.0540   -2.5140 C   0  0  2  0  0  0  0  0  0  0  0  0
   -0.7170    8.0260   -2.1560 O   0  0  0  0  0  0  0  0  0  0  0  0
   -0.4460    9.0140   -1.1490 C   0  0  0  0  0  0  0  0  0  0  0  0
   -1.6160    9.8880   -0.8230 C   0  0  0  0  0  0  0  0  0  0  0  0
    0.3410    8.4910    0.0120 C   0  0  0  0  0  0  0  0  0  0  0  0
    1.3270   12.3990   -3.8020 C   0  0  1  0  0  0  0  0  0  0  0  0
   -0.2170   12.3070   -3.6690 C   0  0  0  0  0  0  0  0  0  0  0  0
   -0.6090   13.1410   -2.4220 C   0  0  0  0  0  0  0  0  0  0  0  0
    0.6640   13.9490   -2.0770 C   0  0  1  0  0  0  0  0  0  0  0  0
    0.6440   15.1660   -3.0540 C   0  0  0  0  0  0  0  0  0  0  0  0
    0.8110   14.4050   -0.5890 C   0  0  2  0  0  0  0  0  0  0  0  0
   -0.2830   15.3650   -0.0900 C   0  0  0  0  0  0  0  0  0  0  0  0
    0.0120   16.8170   -0.2710 C   0  0  0  0  0  0  0  0  0  0  0  0
    1.2200   17.3410   -0.5470 C   0  0  0  0  0  0  0  0  0  0  0  0
    2.4690   16.4520   -0.6090 C   0  0  1  0  0  0  0  0  0  0  0  0
    3.6210   17.1200    0.1860 C   0  0  0  0  0  0  0  0  0  0  0  0
    3.8980   18.5480   -0.2730 C   0  0  0  0  0  0  0  0  0  0  0  0
    2.6490   19.4160   -0.1420 C   0  0  2  0  0  0  0  0  0  0  0  0
    2.3360   19.5660    1.2460 O   0  0  0  0  0  0  0  0  0  0  0  0
    1.4190   18.8370   -0.8950 C   0  0  0  0  0  0  0  0  0  0  0  0
    1.6420   18.9550   -2.4230 C   0  0  0  0  0  0  0  0  0  0  0  0
    0.1930   19.7310   -0.5650 C   0  0  0  0  0  0  0  0  0  0  0  0
    2.2560   14.9280   -0.2110 C   0  0  1  0  0  0  0  0  0  0  0  0
    2.4020   14.7560    1.3320 C   0  0  0  0  0  0  0  0  0  0  0  0
    3.3960   14.0620   -0.8640 C   0  0  0  0  0  0  0  0  0  0  0  0
    3.1410   13.5400   -2.2910 C   0  0  0  0  0  0  0  0  0  0  0  0
    1.7660   12.8730   -2.3940 C   0  0  2  0  0  0  0  0  0  0  0  0
    1.7650   11.6310   -1.4390 C   0  0  0  0  0  0  0  0  0  0  0  0
    3.8438   11.7598   -5.1477 H   0  0  0  0  0  0  0  0  0  0  0  0
    2.9934   10.5201   -6.1309 H   0  0  0  0  0  0  0  0  0  0  0  0
    2.4126   12.2199   -6.1309 H   0  0  0  0  0  0  0  0  0  0  0  0
    2.5665   10.6478   -3.5497 H   0  0  0  0  0  0  0  0  0  0  0  0
    0.3570   10.4478   -5.6303 H   0  0  0  0  0  0  0  0  0  0  0  0
    1.3228    9.1243   -4.8181 H   0  0  0  0  0  0  0  0  0  0  0  0
   -0.4716   10.9424   -3.2112 H   0  0  0  0  0  0  0  0  0  0  0  0
   -1.1249    9.4983   -4.0916 H   0  0  0  0  0  0  0  0  0  0  0  0
    1.2663    9.1636   -2.8219 H   0  0  0  0  0  0  0  0  0  0  0  0
   -1.7217    9.9669    0.2691 H   0  0  0  0  0  0  0  0  0  0  0  0
   -1.4557   10.8893   -1.2492 H   0  0  0  0  0  0  0  0  0  0  0  0
   -2.5307    9.4502   -1.2492 H   0  0  0  0  0  0  0  0  0  0  0  0
   -0.1361    8.8081    0.9510 H   0  0  0  0  0  0  0  0  0  0  0  0
    0.3716    7.3923   -0.0309 H   0  0  0  0  0  0  0  0  0  0  0  0
    1.3658    8.8883   -0.0309 H   0  0  0  0  0  0  0  0  0  0  0  0
    1.6856   13.1048   -4.5657 H   0  0  0  0  0  0  0  0  0  0  0  0
   -0.6998   12.7191   -4.5674 H   0  0  0  0  0  0  0  0  0  0  0  0
   -0.5428   11.2617   -3.5634 H   0  0  0  0  0  0  0  0  0  0  0  0
   -1.4463   13.8157   -2.6536 H   0  0  0  0  0  0  0  0  0  0  0  0
   -0.9415   12.5091   -1.5853 H   0  0  0  0  0  0  0  0  0  0  0  0
    0.6286   16.1010   -2.4747 H   0  0  0  0  0  0  0  0  0  0  0  0
    1.5427   15.1421   -3.6879 H   0  0  0  0  0  0  0  0  0  0  0  0
   -0.2534   15.1126   -3.6879 H   0  0  0  0  0  0  0  0  0  0  0  0
    0.6578   13.4654   -0.0379 H   0  0  0  0  0  0  0  0  0  0  0  0
   -1.2106   15.1361   -0.6351 H   0  0  0  0  0  0  0  0  0  0  0  0
   -0.3584   15.2027    0.9954 H   0  0  0  0  0  0  0  0  0  0  0  0
   -0.8297   17.5180   -0.1702 H   0  0  0  0  0  0  0  0  0  0  0  0
    2.7408   16.3841   -1.6727 H   0  0  0  0  0  0  0  0  0  0  0  0
    3.3492   17.1388    1.2517 H   0  0  0  0  0  0  0  0  0  0  0  0
    4.5330   16.5304    0.0107 H   0  0  0  0  0  0  0  0  0  0  0  0
    4.7001   18.9758    0.3463 H   0  0  0  0  0  0  0  0  0  0  0  0
    4.1993   18.5243   -1.3307 H   0  0  0  0  0  0  0  0  0  0  0  0
    2.8722   20.3878   -0.6066 H   0  0  0  0  0  0  0  0  0  0  0  0
    2.8780   20.2940    1.5930 H   0  0  0  0  0  0  0  0  0  0  0  0
    2.5992   19.4615   -2.6158 H   0  0  0  0  0  0  0  0  0  0  0  0
    1.6627   17.9498   -2.8692 H   0  0  0  0  0  0  0  0  0  0  0  0
    0.8225   19.5375   -2.8692 H   0  0  0  0  0  0  0  0  0  0  0  0
    0.0816   19.8122    0.5263 H   0  0  0  0  0  0  0  0  0  0  0  0
    0.3436   20.7327   -0.9938 H   0  0  0  0  0  0  0  0  0  0  0  0
   -0.7147   19.2813   -0.9938 H   0  0  0  0  0  0  0  0  0  0  0  0
    1.7723   15.4979    1.8448 H   0  0  0  0  0  0  0  0  0  0  0  0
    2.0836   13.7432    1.6198 H   0  0  0  0  0  0  0  0  0  0  0  0
    3.4531   14.9056    1.6198 H   0  0  0  0  0  0  0  0  0  0  0  0
    4.3068   14.6781   -0.8928 H   0  0  0  0  0  0  0  0  0  0  0  0
    3.4684   13.1613   -0.2367 H   0  0  0  0  0  0  0  0  0  0  0  0
    3.1854   14.3834   -2.9958 H   0  0  0  0  0  0  0  0  0  0  0  0
    3.9116   12.7936   -2.5341 H   0  0  0  0  0  0  0  0  0  0  0  0
    1.7653   11.9725   -0.3934 H   0  0  0  0  0  0  0  0  0  0  0  0
    0.8664   11.0250   -1.6266 H   0  0  0  0  0  0  0  0  0  0  0  0
    2.6627   11.0235   -1.6266 H   0  0  0  0  0  0  0  0  0  0  0  0
  1  2  1  0
  2  3  1  0
  3  4  1  0
  4  5  1  0
  5  6  1  0
  6  7  1  0
  7  8  1  0
  7  9  1  0
  2 10  1  0
 10 11  1  0
 11 12  1  0
 12 13  1  0
 13 14  1  6
 13 15  1  0
 15 16  1  0
 16 17  1  0
 17 18  2  0
 18 19  1  0
 19 20  1  0
 20 21  1  0
 21 22  1  0
 22 23  1  0
 22 24  1  0
 24 25  1  0
 24 26  1  0
 19 27  1  0
 27 28  1  1
 27 29  1  0
 29 30  1  0
 30 31  1  0
 31 32  1  1
  7  5  1  0
 31 10  1  0
 31 13  1  0
 27 15  1  0
 24 18  1  0
  1 33  1  0
  1 34  1  0
  1 35  1  0
  2 36  1  1
  3 37  1  0
  3 38  1  0
  4 39  1  0
  4 40  1  0
  5 41  1  1
  8 42  1  0
  8 43  1  0
  8 44  1  0
  9 45  1  0
  9 46  1  0
  9 47  1  0
 10 48  1  6
 11 49  1  0
 11 50  1  0
 12 51  1  0
 12 52  1  0
 14 53  1  0
 14 54  1  0
 14 55  1  0
 15 56  1  1
 16 57  1  0
 16 58  1  0
 17 59  1  0
 19 60  1  6
 20 61  1  0
 20 62  1  0
 21 63  1  0
 21 64  1  0
 22 65  1  6
 23 66  1  0
 25 67  1  0
 25 68  1  0
 25 69  1  0
 26 70  1  0
 26 71  1  0
 26 72  1  0
 28 73  1  0
 28 74  1  0
 28 75  1  0
 29 76  1  0
 29 77  1  0
 30 78  1  0
 30 79  1  0
 32 80  1  0
 32 81  1  0
 32 82  1  0
M  END
>  <meeko>  (15) 
{"is_sidechain": [false], "intermolecular_energy": 2.731, "internal_energy": -0.839}

$$$$
EPH_relaxed_0001_pdb2pqr_Repair_369_r2_0001_out
     RDKit          3D

 82 86  0  0  0  0  0  0  0  0999 V2000
    2.4900   18.8600   -1.5400 C   0  0  0  0  0  0  0  0  0  0  0  0
    2.0210   17.7600   -2.4970 C   0  0  2  0  0  0  0  0  0  0  0  0
    0.5090   17.8490   -2.7860 C   0  0  0  0  0  0  0  0  0  0  0  0
   -0.1120   19.1970   -2.4100 C   0  0  0  0  0  0  0  0  0  0  0  0
   -1.3130   19.0280   -1.5300 C   0  0  2  0  0  0  0  0  0  0  0  0
   -1.6710   20.1930   -0.7750 O   0  0  0  0  0  0  0  0  0  0  0  0
   -1.2490   19.0490   -0.0150 C   0  0  0  0  0  0  0  0  0  0  0  0
    0.0460   19.2430    0.7090 C   0  0  0  0  0  0  0  0  0  0  0  0
   -2.3540   18.3980    0.7570 C   0  0  0  0  0  0  0  0  0  0  0  0
    2.3630   16.3910   -1.9230 C   0  0  1  0  0  0  0  0  0  0  0  0
    3.3020   16.4770   -0.6910 C   0  0  0  0  0  0  0  0  0  0  0  0
    2.8880   15.3320    0.2690 C   0  0  0  0  0  0  0  0  0  0  0  0
    1.9590   14.4300   -0.5780 C   0  0  1  0  0  0  0  0  0  0  0  0
    2.9250   13.5420   -1.4230 C   0  0  0  0  0  0  0  0  0  0  0  0
    0.9250   13.5660    0.2150 C   0  0  2  0  0  0  0  0  0  0  0  0
    1.5380   12.5290    1.1720 C   0  0  0  0  0  0  0  0  0  0  0  0
    1.7870   11.1820    0.5790 C   0  0  0  0  0  0  0  0  0  0  0  0
    1.2720   10.7300   -0.5790 C   0  0  0  0  0  0  0  0  0  0  0  0
    0.2650   11.5710   -1.3750 C   0  0  1  0  0  0  0  0  0  0  0  0
   -0.9260   10.6780   -1.8110 C   0  0  0  0  0  0  0  0  0  0  0  0
   -0.4760    9.4330   -2.5700 C   0  0  0  0  0  0  0  0  0  0  0  0
    0.4780    8.5940   -1.7250 C   0  0  2  0  0  0  0  0  0  0  0  0
   -0.2420    8.0620   -0.6080 O   0  0  0  0  0  0  0  0  0  0  0  0
    1.7130    9.3910   -1.2200 C   0  0  0  0  0  0  0  0  0  0  0  0
    2.6510    9.7080   -2.4110 C   0  0  0  0  0  0  0  0  0  0  0  0
    2.5190    8.4690   -0.2660 C   0  0  0  0  0  0  0  0  0  0  0  0
   -0.2070   12.9230   -0.6850 C   0  0  1  0  0  0  0  0  0  0  0  0
   -1.4190   12.6460    0.2560 C   0  0  0  0  0  0  0  0  0  0  0  0
   -0.7230   13.9130   -1.7950 C   0  0  0  0  0  0  0  0  0  0  0  0
    0.3280   14.8250   -2.4560 C   0  0  0  0  0  0  0  0  0  0  0  0
    1.1880   15.5250   -1.4000 C   0  0  2  0  0  0  0  0  0  0  0  0
    0.2470   16.4440   -0.5480 C   0  0  0  0  0  0  0  0  0  0  0  0
    2.3481   18.5272   -0.5012 H   0  0  0  0  0  0  0  0  0  0  0  0
    3.5555   19.0691   -1.7158 H   0  0  0  0  0  0  0  0  0  0  0  0
    1.9032   19.7736   -1.7158 H   0  0  0  0  0  0  0  0  0  0  0  0
    2.5484   17.9039   -3.4515 H   0  0  0  0  0  0  0  0  0  0  0  0
    0.3508   17.6819   -3.8617 H   0  0  0  0  0  0  0  0  0  0  0  0
    0.0179   17.0850   -2.1654 H   0  0  0  0  0  0  0  0  0  0  0  0
    0.6386   19.7989   -1.8769 H   0  0  0  0  0  0  0  0  0  0  0  0
   -0.4330   19.6967   -3.3359 H   0  0  0  0  0  0  0  0  0  0  0  0
   -1.7622   18.3177   -2.2397 H   0  0  0  0  0  0  0  0  0  0  0  0
   -0.1329   19.2162    1.7940 H   0  0  0  0  0  0  0  0  0  0  0  0
    0.7445   18.4395    0.4326 H   0  0  0  0  0  0  0  0  0  0  0  0
    0.4784   20.2159    0.4326 H   0  0  0  0  0  0  0  0  0  0  0  0
   -2.1638   18.5100    1.8346 H   0  0  0  0  0  0  0  0  0  0  0  0
   -3.3110   18.8766    0.5018 H   0  0  0  0  0  0  0  0  0  0  0  0
   -2.3992   17.3290    0.5018 H   0  0  0  0  0  0  0  0  0  0  0  0
    2.8082   15.9240   -2.8139 H   0  0  0  0  0  0  0  0  0  0  0  0
    4.3490   16.3493   -1.0033 H   0  0  0  0  0  0  0  0  0  0  0  0
    3.2164   17.4562   -0.1972 H   0  0  0  0  0  0  0  0  0  0  0  0
    3.7713   14.7706    0.6076 H   0  0  0  0  0  0  0  0  0  0  0  0
    2.3919   15.7069    1.1763 H   0  0  0  0  0  0  0  0  0  0  0  0
    3.5653   12.9534   -0.7496 H   0  0  0  0  0  0  0  0  0  0  0  0
    2.3374   12.8622   -2.0575 H   0  0  0  0  0  0  0  0  0  0  0  0
    3.5531   14.1846   -2.0575 H   0  0  0  0  0  0  0  0  0  0  0  0
    0.4370   14.3134    0.8578 H   0  0  0  0  0  0  0  0  0  0  0  0
    2.4993   12.9249    1.5315 H   0  0  0  0  0  0  0  0  0  0  0  0
    0.7971   12.3772    1.9708 H   0  0  0  0  0  0  0  0  0  0  0  0
    2.4475   10.5011    1.1359 H   0  0  0  0  0  0  0  0  0  0  0  0
    0.8050   11.9321   -2.2627 H   0  0  0  0  0  0  0  0  0  0  0  0
   -1.4782   10.3634   -0.9132 H   0  0  0  0  0  0  0  0  0  0  0  0
   -1.5584   11.2715   -2.4876 H   0  0  0  0  0  0  0  0  0  0  0  0
   -1.3587    8.8278   -2.8243 H   0  0  0  0  0  0  0  0  0  0  0  0
    0.0496    9.7494   -3.4830 H   0  0  0  0  0  0  0  0  0  0  0  0
    0.8663    7.7896   -2.3669 H   0  0  0  0  0  0  0  0  0  0  0  0
   -1.0260    8.6200   -0.4710 H   0  0  0  0  0  0  0  0  0  0  0  0
    3.6286   10.0384   -2.0300 H   0  0  0  0  0  0  0  0  0  0  0  0
    2.7829    8.8045   -3.0245 H   0  0  0  0  0  0  0  0  0  0  0  0
    2.2077   10.5063   -3.0245 H   0  0  0  0  0  0  0  0  0  0  0  0
    2.2899    8.7311    0.7775 H   0  0  0  0  0  0  0  0  0  0  0  0
    2.2429    7.4202   -0.4497 H   0  0  0  0  0  0  0  0  0  0  0  0
    3.5953    8.6024   -0.4497 H   0  0  0  0  0  0  0  0  0  0  0  0
   -1.0939   12.7203    1.3042 H   0  0  0  0  0  0  0  0  0  0  0  0
   -2.2092   13.3867    0.0638 H   0  0  0  0  0  0  0  0  0  0  0  0
   -1.8090   11.6356    0.0638 H   0  0  0  0  0  0  0  0  0  0  0  0
   -1.1867   13.3097   -2.5894 H   0  0  0  0  0  0  0  0  0  0  0  0
   -1.4099   14.5963   -1.2742 H   0  0  0  0  0  0  0  0  0  0  0  0
    0.9769   14.2163   -3.1028 H   0  0  0  0  0  0  0  0  0  0  0  0
   -0.1947   15.5915   -3.0470 H   0  0  0  0  0  0  0  0  0  0  0  0
    0.4302   16.2651    0.5218 H   0  0  0  0  0  0  0  0  0  0  0  0
    0.4527   17.4985   -0.7839 H   0  0  0  0  0  0  0  0  0  0  0  0
   -0.8024   16.2134   -0.7839 H   0  0  0  0  0  0  0  0  0  0  0  0
  1  2  1  0
  2  3  1  0
  3  4  1  0
  4  5  1  0
  5  6  1  0
  6  7  1  0
  7  8  1  0
  7  9  1  0
  2 10  1  0
 10 11  1  0
 11 12  1  0
 12 13  1  0
 13 14  1  6
 13 15  1  0
 15 16  1  0
 16 17  1  0
 17 18  2  0
 18 19  1  0
 19 20  1  0
 20 21  1  0
 21 22  1  0
 22 23  1  0
 22 24  1  0
 24 25  1  0
 24 26  1  0
 19 27  1  0
 27 28  1  1
 27 29  1  0
 29 30  1  0
 30 31  1  0
 31 32  1  1
  7  5  1  0
 31 10  1  0
 31 13  1  0
 27 15  1  0
 24 18  1  0
  1 33  1  0
  1 34  1  0
  1 35  1  0
  2 36  1  6
  3 37  1  0
  3 38  1  0
  4 39  1  0
  4 40  1  0
  5 41  1  1
  8 42  1  0
  8 43  1  0
  8 44  1  0
  9 45  1  0
  9 46  1  0
  9 47  1  0
 10 48  1  6
 11 49  1  0
 11 50  1  0
 12 51  1  0
 12 52  1  0
 14 53  1  0
 14 54  1  0
 14 55  1  0
 15 56  1  1
 16 57  1  0
 16 58  1  0
 17 59  1  0
 19 60  1  6
 20 61  1  0
 20 62  1  0
 21 63  1  0
 21 64  1  0
 22 65  1  6
 23 66  1  0
 25 67  1  0
 25 68  1  0
 25 69  1  0
 26 70  1  0
 26 71  1  0
 26 72  1  0
 28 73  1  0
 28 74  1  0
 28 75  1  0
 29 76  1  0
 29 77  1  0
 30 78  1  0
 30 79  1  0
 32 80  1  0
 32 81  1  0
 32 82  1  0
M  END
>  <meeko>  (16) 
{"is_sidechain": [false], "intermolecular_energy": 2.731, "internal_energy": -0.839}

$$$$
EPH_relaxed_0001_pdb2pqr_Repair_369_r2_0001_out
     RDKit          3D

 82 86  0  0  0  0  0  0  0  0999 V2000
   -5.7260    5.5140   -1.1710 C   0  0  0  0  0  0  0  0  0  0  0  0
   -5.6740    6.7860   -2.0210 C   0  0  2  0  0  0  0  0  0  0  0  0
   -5.0230    7.9630   -1.2670 C   0  0  0  0  0  0  0  0  0  0  0  0
   -3.5240    8.1120   -1.5360 C   0  0  0  0  0  0  0  0  0  0  0  0
   -2.8720    9.0320   -0.5480 C   0  0  2  0  0  0  0  0  0  0  0  0
   -2.7290   10.3860   -0.9950 O   0  0  0  0  0  0  0  0  0  0  0  0
   -1.5090    9.6630   -0.7650 C   0  0  0  0  0  0  0  0  0  0  0  0
   -0.7150    9.3980   -2.0060 C   0  0  0  0  0  0  0  0  0  0  0  0
   -0.7420   10.1380    0.4290 C   0  0  0  0  0  0  0  0  0  0  0  0
   -7.0800    7.1690   -2.4690 C   0  0  1  0  0  0  0  0  0  0  0  0
   -7.4600    6.5480   -3.8400 C   0  0  0  0  0  0  0  0  0  0  0  0
   -8.9740    6.2230   -3.7800 C   0  0  0  0  0  0  0  0  0  0  0  0
   -9.4820    6.9620   -2.5200 C   0  0  1  0  0  0  0  0  0  0  0  0
   -9.6890    8.4400   -2.9780 C   0  0  0  0  0  0  0  0  0  0  0  0
  -10.7690    6.3800   -1.8500 C   0  0  2  0  0  0  0  0  0  0  0  0
  -12.0320    6.4070   -2.7280 C   0  0  0  0  0  0  0  0  0  0  0  0
  -12.8660    7.6400   -2.6070 C   0  0  0  0  0  0  0  0  0  0  0  0
  -12.7720    8.5550   -1.6250 C   0  0  0  0  0  0  0  0  0  0  0  0
  -11.8170    8.3460   -0.4430 C   0  0  1  0  0  0  0  0  0  0  0  0
  -12.5570    8.6620    0.8830 C   0  0  0  0  0  0  0  0  0  0  0  0
  -13.1910   10.0490    0.8830 C   0  0  0  0  0  0  0  0  0  0  0  0
  -14.1780   10.1980   -0.2720 C   0  0  2  0  0  0  0  0  0  0  0  0
  -15.2870    9.3230   -0.0460 O   0  0  0  0  0  0  0  0  0  0  0  0
  -13.5470    9.8950   -1.6590 C   0  0  0  0  0  0  0  0  0  0  0  0
  -12.5530   11.0220   -2.0370 C   0  0  0  0  0  0  0  0  0  0  0  0
  -14.6800    9.9430   -2.7200 C   0  0  0  0  0  0  0  0  0  0  0  0
  -11.0600    6.9490   -0.4020 C   0  0  1  0  0  0  0  0  0  0  0  0
  -11.9400    5.8880    0.3250 C   0  0  0  0  0  0  0  0  0  0  0  0
   -9.7480    7.1010    0.4560 C   0  0  0  0  0  0  0  0  0  0  0  0
   -8.4810    7.5650   -0.2880 C   0  0  0  0  0  0  0  0  0  0  0  0
   -8.2580    6.7400   -1.5590 C   0  0  2  0  0  0  0  0  0  0  0  0
   -8.0250    5.2510   -1.1290 C   0  0  0  0  0  0  0  0  0  0  0  0
   -5.7149    5.7847   -0.1049 H   0  0  0  0  0  0  0  0  0  0  0  0
   -6.6476    4.9583   -1.3986 H   0  0  0  0  0  0  0  0  0  0  0  0
   -4.8528    4.8849   -1.3986 H   0  0  0  0  0  0  0  0  0  0  0  0
   -5.0485    6.5710   -2.8999 H   0  0  0  0  0  0  0  0  0  0  0  0
   -5.5250    8.8924   -1.5741 H   0  0  0  0  0  0  0  0  0  0  0  0
   -5.1381    7.7593   -0.1922 H   0  0  0  0  0  0  0  0  0  0  0  0
   -3.0495    7.1219   -1.4681 H   0  0  0  0  0  0  0  0  0  0  0  0
   -3.3970    8.5420   -2.5405 H   0  0  0  0  0  0  0  0  0  0  0  0
   -3.2978    8.4671    0.2944 H   0  0  0  0  0  0  0  0  0  0  0  0
    0.2951    9.0609   -1.7300 H   0  0  0  0  0  0  0  0  0  0  0  0
   -1.2126    8.6172   -2.5999 H   0  0  0  0  0  0  0  0  0  0  0  0
   -0.6440   10.3211   -2.5999 H   0  0  0  0  0  0  0  0  0  0  0  0
   -1.2575    9.8187    1.3468 H   0  0  0  0  0  0  0  0  0  0  0  0
    0.2705    9.7086    0.4089 H   0  0  0  0  0  0  0  0  0  0  0  0
   -0.6752   11.2358    0.4089 H   0  0  0  0  0  0  0  0  0  0  0  0
   -6.9821    8.2646   -2.4667 H   0  0  0  0  0  0  0  0  0  0  0  0
   -7.2584    7.2650   -4.6494 H   0  0  0  0  0  0  0  0  0  0  0  0
   -6.8694    5.6418   -4.0402 H   0  0  0  0  0  0  0  0  0  0  0  0
   -9.4866    6.5929   -4.6802 H   0  0  0  0  0  0  0  0  0  0  0  0
   -9.1669    5.1410   -3.7352 H   0  0  0  0  0  0  0  0  0  0  0  0
   -9.7798    9.0885   -2.0941 H   0  0  0  0  0  0  0  0  0  0  0  0
   -8.8271    8.7611   -3.5813 H   0  0  0  0  0  0  0  0  0  0  0  0
  -10.6060    8.5119   -3.5813 H   0  0  0  0  0  0  0  0  0  0  0  0
  -10.5115    5.3173   -1.7303 H   0  0  0  0  0  0  0  0  0  0  0  0
  -11.7184    6.3103   -3.7779 H   0  0  0  0  0  0  0  0  0  0  0  0
  -12.6634    5.5767   -2.3789 H   0  0  0  0  0  0  0  0  0  0  0  0
  -13.6215    7.8150   -3.3872 H   0  0  0  0  0  0  0  0  0  0  0  0
  -10.9922    9.0590   -0.5887 H   0  0  0  0  0  0  0  0  0  0  0  0
  -13.3483    7.9126    1.0324 H   0  0  0  0  0  0  0  0  0  0  0  0
  -11.8147    8.6343    1.6943 H   0  0  0  0  0  0  0  0  0  0  0  0
  -13.7235   10.2014    1.8334 H   0  0  0  0  0  0  0  0  0  0  0  0
  -12.3950   10.7987    0.7634 H   0  0  0  0  0  0  0  0  0  0  0  0
  -14.5006   11.2493   -0.2974 H   0  0  0  0  0  0  0  0  0  0  0  0
  -15.9210    9.7930    0.5220 H   0  0  0  0  0  0  0  0  0  0  0  0
  -12.1504   11.4784   -1.1207 H   0  0  0  0  0  0  0  0  0  0  0  0
  -11.7279   10.5997   -2.6293 H   0  0  0  0  0  0  0  0  0  0  0  0
  -13.0750   11.7879   -2.6293 H   0  0  0  0  0  0  0  0  0  0  0  0
  -15.6554    9.9843   -2.2132 H   0  0  0  0  0  0  0  0  0  0  0  0
  -14.5555   10.8367   -3.3492 H   0  0  0  0  0  0  0  0  0  0  0  0
  -14.6316    9.0420   -3.3492 H   0  0  0  0  0  0  0  0  0  0  0  0
  -11.8382    6.0108    1.4134 H   0  0  0  0  0  0  0  0  0  0  0  0
  -12.9928    6.0255    0.0374 H   0  0  0  0  0  0  0  0  0  0  0  0
  -11.6102    4.8788    0.0374 H   0  0  0  0  0  0  0  0  0  0  0  0
   -9.9535    7.8325    1.2514 H   0  0  0  0  0  0  0  0  0  0  0  0
   -9.5174    6.0859    0.8115 H   0  0  0  0  0  0  0  0  0  0  0  0
   -8.5923    8.6246   -0.5618 H   0  0  0  0  0  0  0  0  0  0  0  0
   -7.6146    7.4275    0.3757 H   0  0  0  0  0  0  0  0  0  0  0  0
   -8.0145    5.1838   -0.0311 H   0  0  0  0  0  0  0  0  0  0  0  0
   -8.8358    4.6232   -1.5270 H   0  0  0  0  0  0  0  0  0  0  0  0
   -7.0611    4.9009   -1.5270 H   0  0  0  0  0  0  0  0  0  0  0  0
  1  2  1  0
  2  3  1  0
  3  4  1  0
  4  5  1  0
  5  6  1  0
  6  7  1  0
  7  8  1  0
  7  9  1  0
  2 10  1  0
 10 11  1  0
 11 12  1  0
 12 13  1  0
 13 14  1  6
 13 15  1  0
 15 16  1  0
 16 17  1  0
 17 18  2  0
 18 19  1  0
 19 20  1  0
 20 21  1  0
 21 22  1  0
 22 23  1  0
 22 24  1  0
 24 25  1  0
 24 26  1  0
 19 27  1  0
 27 28  1  1
 27 29  1  0
 29 30  1  0
 30 31  1  0
 31 32  1  1
  7  5  1  0
 31 10  1  0
 31 13  1  0
 27 15  1  0
 24 18  1  0
  1 33  1  0
  1 34  1  0
  1 35  1  0
  2 36  1  6
  3 37  1  0
  3 38  1  0
  4 39  1  0
  4 40  1  0
  5 41  1  1
  8 42  1  0
  8 43  1  0
  8 44  1  0
  9 45  1  0
  9 46  1  0
  9 47  1  0
 10 48  1  6
 11 49  1  0
 11 50  1  0
 12 51  1  0
 12 52  1  0
 14 53  1  0
 14 54  1  0
 14 55  1  0
 15 56  1  1
 16 57  1  0
 16 58  1  0
 17 59  1  0
 19 60  1  6
 20 61  1  0
 20 62  1  0
 21 63  1  0
 21 64  1  0
 22 65  1  6
 23 66  1  0
 25 67  1  0
 25 68  1  0
 25 69  1  0
 26 70  1  0
 26 71  1  0
 26 72  1  0
 28 73  1  0
 28 74  1  0
 28 75  1  0
 29 76  1  0
 29 77  1  0
 30 78  1  0
 30 79  1  0
 32 80  1  0
 32 81  1  0
 32 82  1  0
M  END
>  <meeko>  (17) 
{"is_sidechain": [false], "intermolecular_energy": 2.731, "internal_energy": -0.839}

$$$$
EPH_relaxed_0001_pdb2pqr_Repair_369_r2_0001_out
     RDKit          3D

 82 86  0  0  0  0  0  0  0  0999 V2000
   -1.8030    7.6870   -2.3430 C   0  0  0  0  0  0  0  0  0  0  0  0
   -1.9800    8.3350   -0.9680 C   0  0  2  0  0  0  0  0  0  0  0  0
   -3.4410    8.2720   -0.4800 C   0  0  0  0  0  0  0  0  0  0  0  0
   -4.4630    8.1380   -1.6120 C   0  0  0  0  0  0  0  0  0  0  0  0
   -5.3470    6.9430   -1.4230 C   0  0  2  0  0  0  0  0  0  0  0  0
   -5.6520    6.2270   -2.6280 O   0  0  0  0  0  0  0  0  0  0  0  0
   -6.7620    6.8540   -1.9650 C   0  0  0  0  0  0  0  0  0  0  0  0
   -7.3740    7.9810   -2.7360 C   0  0  0  0  0  0  0  0  0  0  0  0
   -7.7110    5.8850   -1.3310 C   0  0  0  0  0  0  0  0  0  0  0  0
   -1.5090    9.7840   -1.0120 C   0  0  1  0  0  0  0  0  0  0  0  0
   -1.0940   10.3200    0.3850 C   0  0  0  0  0  0  0  0  0  0  0  0
    0.0920   11.2930    0.1560 C   0  0  0  0  0  0  0  0  0  0  0  0
    0.1050   11.5400   -1.3700 C   0  0  1  0  0  0  0  0  0  0  0  0
   -0.9930   12.6230   -1.6110 C   0  0  0  0  0  0  0  0  0  0  0  0
    1.4770   11.9620   -1.9900 C   0  0  2  0  0  0  0  0  0  0  0  0
    2.0420   13.2980   -1.4770 C   0  0  0  0  0  0  0  0  0  0  0  0
    1.6370   14.5040   -2.2580 C   0  0  0  0  0  0  0  0  0  0  0  0
    1.0890   14.4910   -3.4880 C   0  0  0  0  0  0  0  0  0  0  0  0
    0.9150   13.1760   -4.2590 C   0  0  1  0  0  0  0  0  0  0  0  0
    1.4070   13.3630   -5.7180 C   0  0  0  0  0  0  0  0  0  0  0  0
    0.7360   14.5420   -6.4160 C   0  0  0  0  0  0  0  0  0  0  0  0
    0.9800   15.8400   -5.6500 C   0  0  2  0  0  0  0  0  0  0  0  0
    2.3730   16.1600   -5.7180 O   0  0  0  0  0  0  0  0  0  0  0  0
    0.5320   15.7680   -4.1640 C   0  0  0  0  0  0  0  0  0  0  0  0
   -1.0140   15.7240   -4.0880 C   0  0  0  0  0  0  0  0  0  0  0  0
    0.9630   17.0890   -3.4710 C   0  0  0  0  0  0  0  0  0  0  0  0
    1.5270   11.8820   -3.5690 C   0  0  1  0  0  0  0  0  0  0  0  0
    3.0290   11.7300   -3.9600 C   0  0  0  0  0  0  0  0  0  0  0  0
    0.7920   10.6060   -4.1270 C   0  0  0  0  0  0  0  0  0  0  0  0
   -0.4930   10.1700   -3.3990 C   0  0  0  0  0  0  0  0  0  0  0  0
   -0.2690   10.1020   -1.8850 C   0  0  2  0  0  0  0  0  0  0  0  0
    0.8150    9.0050   -1.6100 C   0  0  0  0  0  0  0  0  0  0  0  0
   -1.5151    6.6328   -2.2172 H   0  0  0  0  0  0  0  0  0  0  0  0
   -2.7498    7.7445   -2.9001 H   0  0  0  0  0  0  0  0  0  0  0  0
   -1.0170    8.2178   -2.9001 H   0  0  0  0  0  0  0  0  0  0  0  0
   -1.3678    7.7658   -0.2530 H   0  0  0  0  0  0  0  0  0  0  0  0
   -3.5469    7.4044    0.1879 H   0  0  0  0  0  0  0  0  0  0  0  0
   -3.6504    9.2233    0.0310 H   0  0  0  0  0  0  0  0  0  0  0  0
   -5.0878    9.0430   -1.6370 H   0  0  0  0  0  0  0  0  0  0  0  0
   -3.9135    8.0116   -2.5565 H   0  0  0  0  0  0  0  0  0  0  0  0
   -4.9274    6.7617   -0.4225 H   0  0  0  0  0  0  0  0  0  0  0  0
   -7.7790    8.7267   -2.0361 H   0  0  0  0  0  0  0  0  0  0  0  0
   -6.6072    8.4510   -3.3693 H   0  0  0  0  0  0  0  0  0  0  0  0
   -8.1857    7.5938   -3.3693 H   0  0  0  0  0  0  0  0  0  0  0  0
   -7.6361    5.9615   -0.2362 H   0  0  0  0  0  0  0  0  0  0  0  0
   -8.7387    6.1192   -1.6455 H   0  0  0  0  0  0  0  0  0  0  0  0
   -7.4554    4.8624   -1.6455 H   0  0  0  0  0  0  0  0  0  0  0  0
   -2.4041   10.2563   -1.4429 H   0  0  0  0  0  0  0  0  0  0  0  0
   -1.9359   10.8521    0.8521 H   0  0  0  0  0  0  0  0  0  0  0  0
   -0.8058    9.4963    1.0547 H   0  0  0  0  0  0  0  0  0  0  0  0
   -0.0681   12.2353    0.7005 H   0  0  0  0  0  0  0  0  0  0  0  0
    1.0451   10.8818    0.5201 H   0  0  0  0  0  0  0  0  0  0  0  0
   -1.3649   12.9898   -0.6430 H   0  0  0  0  0  0  0  0  0  0  0  0
   -0.5632   13.4606   -2.1799 H   0  0  0  0  0  0  0  0  0  0  0  0
   -1.8246   12.1817   -2.1799 H   0  0  0  0  0  0  0  0  0  0  0  0
    2.1560   11.1848   -1.6094 H   0  0  0  0  0  0  0  0  0  0  0  0
    1.7020   13.4349   -0.4399 H   0  0  0  0  0  0  0  0  0  0  0  0
    3.1350   13.2242   -1.5765 H   0  0  0  0  0  0  0  0  0  0  0  0
    1.7999   15.4858   -1.7894 H   0  0  0  0  0  0  0  0  0  0  0  0
   -0.1636   12.9600   -4.2538 H   0  0  0  0  0  0  0  0  0  0  0  0
    2.4936   13.5334   -5.7044 H   0  0  0  0  0  0  0  0  0  0  0  0
    1.1465   12.4522   -6.2771 H   0  0  0  0  0  0  0  0  0  0  0  0
    1.1470   14.6406   -7.4316 H   0  0  0  0  0  0  0  0  0  0  0  0
   -0.3474   14.3562   -6.4561 H   0  0  0  0  0  0  0  0  0  0  0  0
    0.3690   16.6226   -6.1236 H   0  0  0  0  0  0  0  0  0  0  0  0
    2.6020   16.6490   -4.9100 H   0  0  0  0  0  0  0  0  0  0  0  0
   -1.3292   15.7150   -3.0342 H   0  0  0  0  0  0  0  0  0  0  0  0
   -1.4311   16.6106   -4.5879 H   0  0  0  0  0  0  0  0  0  0  0  0
   -1.3800   14.8151   -4.5879 H   0  0  0  0  0  0  0  0  0  0  0  0
    0.9212   16.9609   -2.3793 H   0  0  0  0  0  0  0  0  0  0  0  0
    1.9904   17.3424   -3.7714 H   0  0  0  0  0  0  0  0  0  0  0  0
    0.2827   17.8995   -3.7714 H   0  0  0  0  0  0  0  0  0  0  0  0
    3.6408   11.6681   -3.0480 H   0  0  0  0  0  0  0  0  0  0  0  0
    3.1624   10.8138   -4.5539 H   0  0  0  0  0  0  0  0  0  0  0  0
    3.3432   12.6009   -4.5539 H   0  0  0  0  0  0  0  0  0  0  0  0
    0.5284   10.8061   -5.1760 H   0  0  0  0  0  0  0  0  0  0  0  0
    1.5011    9.7781   -3.9792 H   0  0  0  0  0  0  0  0  0  0  0  0
   -1.2915   10.8959   -3.6124 H   0  0  0  0  0  0  0  0  0  0  0  0
   -0.7767    9.1693   -3.7570 H   0  0  0  0  0  0  0  0  0  0  0  0
    0.9408    8.8777   -0.5246 H   0  0  0  0  0  0  0  0  0  0  0  0
    0.4938    8.0522   -2.0561 H   0  0  0  0  0  0  0  0  0  0  0  0
    1.7716    9.3148   -2.0561 H   0  0  0  0  0  0  0  0  0  0  0  0
  1  2  1  0
  2  3  1  0
  3  4  1  0
  4  5  1  0
  5  6  1  0
  6  7  1  0
  7  8  1  0
  7  9  1  0
  2 10  1  0
 10 11  1  0
 11 12  1  0
 12 13  1  0
 13 14  1  1
 13 15  1  0
 15 16  1  0
 16 17  1  0
 17 18  2  0
 18 19  1  0
 19 20  1  0
 20 21  1  0
 21 22  1  0
 22 23  1  0
 22 24  1  0
 24 25  1  0
 24 26  1  0
 19 27  1  0
 27 28  1  1
 27 29  1  0
 29 30  1  0
 30 31  1  0
 31 32  1  6
  7  5  1  0
 31 10  1  0
 31 13  1  0
 27 15  1  0
 24 18  1  0
  1 33  1  0
  1 34  1  0
  1 35  1  0
  2 36  1  1
  3 37  1  0
  3 38  1  0
  4 39  1  0
  4 40  1  0
  5 41  1  1
  8 42  1  0
  8 43  1  0
  8 44  1  0
  9 45  1  0
  9 46  1  0
  9 47  1  0
 10 48  1  6
 11 49  1  0
 11 50  1  0
 12 51  1  0
 12 52  1  0
 14 53  1  0
 14 54  1  0
 14 55  1  0
 15 56  1  1
 16 57  1  0
 16 58  1  0
 17 59  1  0
 19 60  1  6
 20 61  1  0
 20 62  1  0
 21 63  1  0
 21 64  1  0
 22 65  1  6
 23 66  1  0
 25 67  1  0
 25 68  1  0
 25 69  1  0
 26 70  1  0
 26 71  1  0
 26 72  1  0
 28 73  1  0
 28 74  1  0
 28 75  1  0
 29 76  1  0
 29 77  1  0
 30 78  1  0
 30 79  1  0
 32 80  1  0
 32 81  1  0
 32 82  1  0
M  END
>  <meeko>  (18) 
{"is_sidechain": [false], "intermolecular_energy": 2.731, "internal_energy": -0.839}

$$$$
EPH_relaxed_0001_pdb2pqr_Repair_369_r2_0001_out
     RDKit          3D

 82 86  0  0  0  0  0  0  0  0999 V2000
   -0.1120    9.3120   -4.2070 C   0  0  0  0  0  0  0  0  0  0  0  0
    0.0740    9.5260   -2.7030 C   0  0  2  0  0  0  0  0  0  0  0  0
   -0.7080    8.4920   -1.8680 C   0  0  0  0  0  0  0  0  0  0  0  0
   -2.2220    8.5400   -2.0910 C   0  0  0  0  0  0  0  0  0  0  0  0
   -2.7340    7.2690   -2.6990 C   0  0  2  0  0  0  0  0  0  0  0  0
   -3.7490    7.4480   -3.6950 O   0  0  0  0  0  0  0  0  0  0  0  0
   -4.1480    6.7560   -2.5000 C   0  0  0  0  0  0  0  0  0  0  0  0
   -5.1390    7.5050   -1.6650 C   0  0  0  0  0  0  0  0  0  0  0  0
   -4.4160    5.2990   -2.7090 C   0  0  0  0  0  0  0  0  0  0  0  0
   -0.3560   10.9370   -2.3210 C   0  0  1  0  0  0  0  0  0  0  0  0
   -1.5720   10.9500   -1.3570 C   0  0  0  0  0  0  0  0  0  0  0  0
   -1.3720   12.1540   -0.4000 C   0  0  0  0  0  0  0  0  0  0  0  0
   -0.2360   12.9810   -1.0470 C   0  0  1  0  0  0  0  0  0  0  0  0
   -0.9360   13.8210   -2.1610 C   0  0  0  0  0  0  0  0  0  0  0  0
    0.5970   13.8850   -0.0810 C   0  0  2  0  0  0  0  0  0  0  0  0
   -0.2010   14.9940    0.6260 C   0  0  0  0  0  0  0  0  0  0  0  0
   -0.2540   16.3000   -0.0960 C   0  0  0  0  0  0  0  0  0  0  0  0
    0.5440   16.6620   -1.1180 C   0  0  0  0  0  0  0  0  0  0  0  0
    1.6890   15.7540   -1.5830 C   0  0  1  0  0  0  0  0  0  0  0  0
    2.9780   16.5980   -1.7670 C   0  0  0  0  0  0  0  0  0  0  0  0
    2.7670   17.7920   -2.6930 C   0  0  0  0  0  0  0  0  0  0  0  0
    1.6600   18.7020   -2.1670 C   0  0  2  0  0  0  0  0  0  0  0  0
    2.0990   19.3000   -0.9430 O   0  0  0  0  0  0  0  0  0  0  0  0
    0.3150   17.9590   -1.9330 C   0  0  0  0  0  0  0  0  0  0  0  0
   -0.3100   17.5720   -3.2960 C   0  0  0  0  0  0  0  0  0  0  0  0
   -0.6720   18.9570   -1.2690 C   0  0  0  0  0  0  0  0  0  0  0  0
    1.9350   14.4470   -0.7120 C   0  0  1  0  0  0  0  0  0  0  0  0
    2.8860   14.7730    0.4800 C   0  0  0  0  0  0  0  0  0  0  0  0
    2.6780   13.3740   -1.5920 C   0  0  0  0  0  0  0  0  0  0  0  0
    1.7950   12.4330   -2.4330 C   0  0  0  0  0  0  0  0  0  0  0  0
    0.6800   11.8200   -1.5810 C   0  0  2  0  0  0  0  0  0  0  0  0
    1.3530   10.9510   -0.4650 C   0  0  0  0  0  0  0  0  0  0  0  0
   -0.8251    8.4915   -4.3752 H   0  0  0  0  0  0  0  0  0  0  0  0
   -0.5002   10.2345   -4.6634 H   0  0  0  0  0  0  0  0  0  0  0  0
    0.8556    9.0561   -4.6634 H   0  0  0  0  0  0  0  0  0  0  0  0
    1.1425    9.3903   -2.4795 H   0  0  0  0  0  0  0  0  0  0  0  0
   -0.3492    7.4870   -2.1350 H   0  0  0  0  0  0  0  0  0  0  0  0
   -0.5309    8.7331   -0.8095 H   0  0  0  0  0  0  0  0  0  0  0  0
   -2.7200    8.6979   -1.1230 H   0  0  0  0  0  0  0  0  0  0  0  0
   -2.4400    9.3644   -2.7859 H   0  0  0  0  0  0  0  0  0  0  0  0
   -1.7516    6.7889   -2.5793 H   0  0  0  0  0  0  0  0  0  0  0  0
   -4.9202    7.3396   -0.5997 H   0  0  0  0  0  0  0  0  0  0  0  0
   -5.0710    8.5794   -1.8908 H   0  0  0  0  0  0  0  0  0  0  0  0
   -6.1541    7.1464   -1.8908 H   0  0  0  0  0  0  0  0  0  0  0  0
   -4.5079    4.7994   -1.7333 H   0  0  0  0  0  0  0  0  0  0  0  0
   -5.3519    5.1756   -3.2737 H   0  0  0  0  0  0  0  0  0  0  0  0
   -3.5853    4.8507   -3.2737 H   0  0  0  0  0  0  0  0  0  0  0  0
   -0.5535   11.3475   -3.3222 H   0  0  0  0  0  0  0  0  0  0  0  0
   -2.5055   11.0698   -1.9264 H   0  0  0  0  0  0  0  0  0  0  0  0
   -1.6408   10.0066   -0.7955 H   0  0  0  0  0  0  0  0  0  0  0  0
   -2.2937   12.7500   -0.3276 H   0  0  0  0  0  0  0  0  0  0  0  0
   -1.1264   11.8369    0.6243 H   0  0  0  0  0  0  0  0  0  0  0  0
   -1.5742   14.5869   -1.6962 H   0  0  0  0  0  0  0  0  0  0  0  0
   -0.1735   14.3090   -2.7859 H   0  0  0  0  0  0  0  0  0  0  0  0
   -1.5535   13.1590   -2.7859 H   0  0  0  0  0  0  0  0  0  0  0  0
    0.8895   13.1784    0.7097 H   0  0  0  0  0  0  0  0  0  0  0  0
   -1.2330   14.6375    0.7602 H   0  0  0  0  0  0  0  0  0  0  0  0
    0.3235   15.1904    1.5727 H   0  0  0  0  0  0  0  0  0  0  0  0
   -1.0091   17.0280    0.2353 H   0  0  0  0  0  0  0  0  0  0  0  0
    1.3733   15.3390   -2.5515 H   0  0  0  0  0  0  0  0  0  0  0  0
    3.3012   16.9677   -0.7827 H   0  0  0  0  0  0  0  0  0  0  0  0
    3.7394   15.9499   -2.2254 H   0  0  0  0  0  0  0  0  0  0  0  0
    3.7032   18.3657   -2.7596 H   0  0  0  0  0  0  0  0  0  0  0  0
    2.4728   17.4189   -3.6851 H   0  0  0  0  0  0  0  0  0  0  0  0
    1.4664   19.4649   -2.9355 H   0  0  0  0  0  0  0  0  0  0  0  0
    1.7390   18.7710   -0.2110 H   0  0  0  0  0  0  0  0  0  0  0  0
   -1.2340   16.9998   -3.1264 H   0  0  0  0  0  0  0  0  0  0  0  0
   -0.5428   18.4842   -3.8649 H   0  0  0  0  0  0  0  0  0  0  0  0
    0.4029   16.9570   -3.8649 H   0  0  0  0  0  0  0  0  0  0  0  0
   -0.5932   18.8773   -0.1747 H   0  0  0  0  0  0  0  0  0  0  0  0
   -0.4224   19.9819   -1.5809 H   0  0  0  0  0  0  0  0  0  0  0  0
   -1.6996   18.7188   -1.5809 H   0  0  0  0  0  0  0  0  0  0  0  0
    2.3597   14.5926    1.4289 H   0  0  0  0  0  0  0  0  0  0  0  0
    3.7758   14.1286    0.4260 H   0  0  0  0  0  0  0  0  0  0  0  0
    3.1933   15.8278    0.4260 H   0  0  0  0  0  0  0  0  0  0  0  0
    3.3424   13.9130   -2.2834 H   0  0  0  0  0  0  0  0  0  0  0  0
    3.1931   12.7194   -0.8735 H   0  0  0  0  0  0  0  0  0  0  0  0
    1.3446   13.0042   -3.2581 H   0  0  0  0  0  0  0  0  0  0  0  0
    2.4236   11.6200   -2.8254 H   0  0  0  0  0  0  0  0  0  0  0  0
    1.0581   11.3318    0.5240 H   0  0  0  0  0  0  0  0  0  0  0  0
    1.0267    9.9055   -0.5676 H   0  0  0  0  0  0  0  0  0  0  0  0
    2.4468   11.0054   -0.5676 H   0  0  0  0  0  0  0  0  0  0  0  0
  1  2  1  0
  2  3  1  0
  3  4  1  0
  4  5  1  0
  5  6  1  0
  6  7  1  0
  7  8  1  0
  7  9  1  0
  2 10  1  0
 10 11  1  0
 11 12  1  0
 12 13  1  0
 13 14  1  6
 13 15  1  0
 15 16  1  0
 16 17  1  0
 17 18  2  0
 18 19  1  0
 19 20  1  0
 20 21  1  0
 21 22  1  0
 22 23  1  0
 22 24  1  0
 24 25  1  0
 24 26  1  0
 19 27  1  0
 27 28  1  1
 27 29  1  0
 29 30  1  0
 30 31  1  0
 31 32  1  1
  7  5  1  0
 31 10  1  0
 31 13  1  0
 27 15  1  0
 24 18  1  0
  1 33  1  0
  1 34  1  0
  1 35  1  0
  2 36  1  6
  3 37  1  0
  3 38  1  0
  4 39  1  0
  4 40  1  0
  5 41  1  6
  8 42  1  0
  8 43  1  0
  8 44  1  0
  9 45  1  0
  9 46  1  0
  9 47  1  0
 10 48  1  6
 11 49  1  0
 11 50  1  0
 12 51  1  0
 12 52  1  0
 14 53  1  0
 14 54  1  0
 14 55  1  0
 15 56  1  1
 16 57  1  0
 16 58  1  0
 17 59  1  0
 19 60  1  6
 20 61  1  0
 20 62  1  0
 21 63  1  0
 21 64  1  0
 22 65  1  6
 23 66  1  0
 25 67  1  0
 25 68  1  0
 25 69  1  0
 26 70  1  0
 26 71  1  0
 26 72  1  0
 28 73  1  0
 28 74  1  0
 28 75  1  0
 29 76  1  0
 29 77  1  0
 30 78  1  0
 30 79  1  0
 32 80  1  0
 32 81  1  0
 32 82  1  0
M  END
>  <meeko>  (19) 
{"is_sidechain": [false], "intermolecular_energy": 2.731, "internal_energy": -0.839}

$$$$
