EPH_relaxed_0001_pdb2pqr_Repair_71_r2_0001_out
     RDKit          3D

 82 86  0  0  0  0  0  0  0  0999 V2000
   -1.7020    8.5850   -1.8720 C   0  0  0  0  0  0  0  0  0  0  0  0
   -2.0760    9.1150   -0.4850 C   0  0  2  0  0  0  0  0  0  0  0  0
   -3.5680    9.4920   -0.3910 C   0  0  0  0  0  0  0  0  0  0  0  0
   -4.5000    8.2870   -0.2370 C   0  0  0  0  0  0  0  0  0  0  0  0
   -5.2010    7.9600   -1.5200 C   0  0  2  0  0  0  0  0  0  0  0  0
   -6.3650    8.7540   -1.7860 O   0  0  0  0  0  0  0  0  0  0  0  0
   -6.5890    7.3490   -1.5830 C   0  0  0  0  0  0  0  0  0  0  0  0
   -7.3580    7.0290   -0.3400 C   0  0  0  0  0  0  0  0  0  0  0  0
   -6.9930    6.6180   -2.8250 C   0  0  0  0  0  0  0  0  0  0  0  0
   -1.2110   10.3200   -0.1380 C   0  0  1  0  0  0  0  0  0  0  0  0
   -0.1690   10.0090    0.9690 C   0  0  0  0  0  0  0  0  0  0  0  0
    1.0990   10.8360    0.6340 C   0  0  0  0  0  0  0  0  0  0  0  0
    0.6370   11.8370   -0.4500 C   0  0  1  0  0  0  0  0  0  0  0  0
   -0.0590   12.9900    0.3390 C   0  0  0  0  0  0  0  0  0  0  0  0
    1.7480   12.3810   -1.4060 C   0  0  2  0  0  0  0  0  0  0  0  0
    2.8600   13.1930   -0.7190 C   0  0  0  0  0  0  0  0  0  0  0  0
    2.6130   14.6630   -0.6280 C   0  0  0  0  0  0  0  0  0  0  0  0
    1.6850   15.3450   -1.3240 C   0  0  0  0  0  0  0  0  0  0  0  0
    0.8270   14.6460   -2.3870 C   0  0  1  0  0  0  0  0  0  0  0  0
    0.7890   15.5140   -3.6730 C   0  0  0  0  0  0  0  0  0  0  0  0
    0.3300   16.9430   -3.4000 C   0  0  0  0  0  0  0  0  0  0  0  0
    1.2420   17.6230   -2.3810 C   0  0  2  0  0  0  0  0  0  0  0  0
    2.5380   17.7920   -2.9630 O   0  0  0  0  0  0  0  0  0  0  0  0
    1.3660   16.8350   -1.0480 C   0  0  0  0  0  0  0  0  0  0  0  0
    0.0280   16.9110   -0.2720 C   0  0  0  0  0  0  0  0  0  0  0  0
    2.4220   17.5540   -0.1650 C   0  0  0  0  0  0  0  0  0  0  0  0
    1.1930   13.1290   -2.6860 C   0  0  1  0  0  0  0  0  0  0  0  0
    2.3150   13.0550   -3.7660 C   0  0  0  0  0  0  0  0  0  0  0  0
   -0.0640   12.4080   -3.3010 C   0  0  0  0  0  0  0  0  0  0  0  0
   -1.0650   11.7870   -2.3070 C   0  0  0  0  0  0  0  0  0  0  0  0
   -0.3420   10.9210   -1.2710 C   0  0  2  0  0  0  0  0  0  0  0  0
    0.3500    9.7400   -2.0330 C   0  0  0  0  0  0  0  0  0  0  0  0
   -1.0708    7.6905   -1.7648 H   0  0  0  0  0  0  0  0  0  0  0  0
   -2.6171    8.3240   -2.4238 H   0  0  0  0  0  0  0  0  0  0  0  0
   -1.1494    9.3597   -2.4238 H   0  0  0  0  0  0  0  0  0  0  0  0
   -1.8935    8.3067    0.2385 H   0  0  0  0  0  0  0  0  0  0  0  0
   -3.7054   10.1505    0.4793 H   0  0  0  0  0  0  0  0  0  0  0  0
   -3.8347    9.9851   -1.3374 H   0  0  0  0  0  0  0  0  0  0  0  0
   -3.9068    7.4155    0.0770 H   0  0  0  0  0  0  0  0  0  0  0  0
   -5.2622    8.5375    0.5155 H   0  0  0  0  0  0  0  0  0  0  0  0
   -4.2495    7.6806   -1.9959 H   0  0  0  0  0  0  0  0  0  0  0  0
   -6.7510    7.2816    0.5419 H   0  0  0  0  0  0  0  0  0  0  0  0
   -8.2892    7.6143   -0.3241 H   0  0  0  0  0  0  0  0  0  0  0  0
   -7.5991    5.9559   -0.3241 H   0  0  0  0  0  0  0  0  0  0  0  0
   -7.5083    5.6857   -2.5505 H   0  0  0  0  0  0  0  0  0  0  0  0
   -7.6699    7.2500   -3.4186 H   0  0  0  0  0  0  0  0  0  0  0  0
   -6.0978    6.3811   -3.4186 H   0  0  0  0  0  0  0  0  0  0  0  0
   -1.9965   11.0332    0.1524 H   0  0  0  0  0  0  0  0  0  0  0  0
   -0.5631   10.3017    1.9534 H   0  0  0  0  0  0  0  0  0  0  0  0
    0.0590    8.9335    1.0062 H   0  0  0  0  0  0  0  0  0  0  0  0
    1.4617   11.3689    1.5253 H   0  0  0  0  0  0  0  0  0  0  0  0
    1.9307   10.2034    0.2902 H   0  0  0  0  0  0  0  0  0  0  0  0
    0.0484   12.8120    1.4192 H   0  0  0  0  0  0  0  0  0  0  0  0
    0.4110   13.9494    0.0769 H   0  0  0  0  0  0  0  0  0  0  0  0
   -1.1269   13.0211    0.0769 H   0  0  0  0  0  0  0  0  0  0  0  0
    2.2279   11.4565   -1.7595 H   0  0  0  0  0  0  0  0  0  0  0  0
    2.9823   12.8050    0.3030 H   0  0  0  0  0  0  0  0  0  0  0  0
    3.7559   13.0732   -1.3459 H   0  0  0  0  0  0  0  0  0  0  0  0
    3.2433   15.2371    0.0671 H   0  0  0  0  0  0  0  0  0  0  0  0
   -0.1832   14.5667   -1.9590 H   0  0  0  0  0  0  0  0  0  0  0  0
    1.7990   15.5449   -4.1077 H   0  0  0  0  0  0  0  0  0  0  0  0
    0.0652   15.0567   -4.3636 H   0  0  0  0  0  0  0  0  0  0  0  0
    0.3514   17.5139   -4.3400 H   0  0  0  0  0  0  0  0  0  0  0  0
   -0.6912   16.9123   -2.9923 H   0  0  0  0  0  0  0  0  0  0  0  0
    0.7899   18.5938   -2.1298 H   0  0  0  0  0  0  0  0  0  0  0  0
    2.9030   18.6300   -2.6310 H   0  0  0  0  0  0  0  0  0  0  0  0
    0.2300   16.8995    0.8092 H   0  0  0  0  0  0  0  0  0  0  0  0
   -0.4973   17.8404   -0.5370 H   0  0  0  0  0  0  0  0  0  0  0  0
   -0.5992   16.0470   -0.5370 H   0  0  0  0  0  0  0  0  0  0  0  0
    2.1839   17.3919    0.8966 H   0  0  0  0  0  0  0  0  0  0  0  0
    3.4205   17.1473   -0.3831 H   0  0  0  0  0  0  0  0  0  0  0  0
    2.4096   18.6321   -0.3831 H   0  0  0  0  0  0  0  0  0  0  0  0
    3.2957   12.9903   -3.2720 H   0  0  0  0  0  0  0  0  0  0  0  0
    2.1613   12.1650   -4.3940 H   0  0  0  0  0  0  0  0  0  0  0  0
    2.2796   13.9574   -4.3940 H   0  0  0  0  0  0  0  0  0  0  0  0
   -0.6100   13.1482   -3.9043 H   0  0  0  0  0  0  0  0  0  0  0  0
    0.3415   11.5581   -3.8696 H   0  0  0  0  0  0  0  0  0  0  0  0
   -1.6047   12.5932   -1.7886 H   0  0  0  0  0  0  0  0  0  0  0  0
   -1.7674   11.1519   -2.8667 H   0  0  0  0  0  0  0  0  0  0  0  0
    0.7670    9.0284   -1.3052 H   0  0  0  0  0  0  0  0  0  0  0  0
   -0.3905    9.2271   -2.6644 H   0  0  0  0  0  0  0  0  0  0  0  0
    1.1594   10.1353   -2.6644 H   0  0  0  0  0  0  0  0  0  0  0  0
  1  2  1  0
  2  3  1  0
  3  4  1  0
  4  5  1  0
  5  6  1  0
  6  7  1  0
  7  8  1  0
  7  9  1  0
  2 10  1  0
 10 11  1  0
 11 12  1  0
 12 13  1  0
 13 14  1  1
 13 15  1  0
 15 16  1  0
 16 17  1  0
 17 18  2  0
 18 19  1  0
 19 20  1  0
 20 21  1  0
 21 22  1  0
 22 23  1  0
 22 24  1  0
 24 25  1  0
 24 26  1  0
 19 27  1  0
 27 28  1  6
 27 29  1  0
 29 30  1  0
 30 31  1  0
 31 32  1  6
  7  5  1  0
 31 10  1  0
 31 13  1  0
 27 15  1  0
 24 18  1  0
  1 33  1  0
  1 34  1  0
  1 35  1  0
  2 36  1  1
  3 37  1  0
  3 38  1  0
  4 39  1  0
  4 40  1  0
  5 41  1  6
  8 42  1  0
  8 43  1  0
  8 44  1  0
  9 45  1  0
  9 46  1  0
  9 47  1  0
 10 48  1  1
 11 49  1  0
 11 50  1  0
 12 51  1  0
 12 52  1  0
 14 53  1  0
 14 54  1  0
 14 55  1  0
 15 56  1  6
 16 57  1  0
 16 58  1  0
 17 59  1  0
 19 60  1  1
 20 61  1  0
 20 62  1  0
 21 63  1  0
 21 64  1  0
 22 65  1  1
 23 66  1  0
 25 67  1  0
 25 68  1  0
 25 69  1  0
 26 70  1  0
 26 71  1  0
 26 72  1  0
 28 73  1  0
 28 74  1  0
 28 75  1  0
 29 76  1  0
 29 77  1  0
 30 78  1  0
 30 79  1  0
 32 80  1  0
 32 81  1  0
 32 82  1  0
M  END
>  <meeko>  (1) 
{"is_sidechain": [false], "intermolecular_energy": 2.731, "internal_energy": -0.839}

$$$$
EPH_relaxed_0001_pdb2pqr_Repair_71_r2_0001_out
     RDKit          3D

 82 86  0  0  0  0  0  0  0  0999 V2000
    1.9770   19.7050   -0.6480 C   0  0  0  0  0  0  0  0  0  0  0  0
    2.3220   18.5000    0.2320 C   0  0  2  0  0  0  0  0  0  0  0  0
    3.7890   18.0570    0.0600 C   0  0  0  0  0  0  0  0  0  0  0  0
    4.6000   18.0990    1.3580 C   0  0  0  0  0  0  0  0  0  0  0  0
    3.9960   19.0370    2.3600 C   0  0  2  0  0  0  0  0  0  0  0  0
    4.7950   20.1880    2.6600 O   0  0  0  0  0  0  0  0  0  0  0  0
    4.5740   19.2700    3.7430 C   0  0  0  0  0  0  0  0  0  0  0  0
    5.8110   18.5620    4.2010 C   0  0  0  0  0  0  0  0  0  0  0  0
    3.6750   19.8040    4.8130 C   0  0  0  0  0  0  0  0  0  0  0  0
    1.3870   17.3400   -0.0870 C   0  0  1  0  0  0  0  0  0  0  0  0
    0.1560   17.7770   -0.9260 C   0  0  0  0  0  0  0  0  0  0  0  0
   -0.1740   16.6010   -1.8800 C   0  0  0  0  0  0  0  0  0  0  0  0
    0.6530   15.4130   -1.3370 C   0  0  1  0  0  0  0  0  0  0  0  0
   -0.1870   14.8490   -0.1490 C   0  0  0  0  0  0  0  0  0  0  0  0
    1.0170   14.2950   -2.3690 C   0  0  2  0  0  0  0  0  0  0  0  0
   -0.1860   13.5540   -2.9780 C   0  0  0  0  0  0  0  0  0  0  0  0
   -0.6260   12.3350   -2.2370 C   0  0  0  0  0  0  0  0  0  0  0  0
    0.0880   11.6930   -1.2940 C   0  0  0  0  0  0  0  0  0  0  0  0
    1.5190   12.1290   -0.9560 C   0  0  1  0  0  0  0  0  0  0  0  0
    2.4380   10.8810   -0.8880 C   0  0  0  0  0  0  0  0  0  0  0  0
    1.9110    9.8180    0.0710 C   0  0  0  0  0  0  0  0  0  0  0  0
    0.5090    9.3680   -0.3320 C   0  0  2  0  0  0  0  0  0  0  0  0
    0.5870    8.6800   -1.5840 O   0  0  0  0  0  0  0  0  0  0  0  0
   -0.5030   10.5420   -0.4420 C   0  0  0  0  0  0  0  0  0  0  0  0
   -0.8170   11.0940    0.9700 C   0  0  0  0  0  0  0  0  0  0  0  0
   -1.8390    9.9710   -0.9910 C   0  0  0  0  0  0  0  0  0  0  0  0
    2.1250   13.2840   -1.8650 C   0  0  1  0  0  0  0  0  0  0  0  0
    2.7790   12.6690   -3.1400 C   0  0  0  0  0  0  0  0  0  0  0  0
    3.2800   14.0060   -1.0760 C   0  0  0  0  0  0  0  0  0  0  0  0
    2.8720   15.1800   -0.1660 C   0  0  0  0  0  0  0  0  0  0  0  0
    1.9670   16.1640   -0.9130 C   0  0  2  0  0  0  0  0  0  0  0  0
    2.7920   16.7650   -2.1010 C   0  0  0  0  0  0  0  0  0  0  0  0
    1.7304   20.5664   -0.0099 H   0  0  0  0  0  0  0  0  0  0  0  0
    2.8399   19.9543   -1.2831 H   0  0  0  0  0  0  0  0  0  0  0  0
    1.1130   19.4598   -1.2831 H   0  0  0  0  0  0  0  0  0  0  0  0
    2.1904   18.8064    1.2802 H   0  0  0  0  0  0  0  0  0  0  0  0
    3.7979   17.0255   -0.3220 H   0  0  0  0  0  0  0  0  0  0  0  0
    4.2598   18.7662   -0.6367 H   0  0  0  0  0  0  0  0  0  0  0  0
    4.6327   17.0882    1.7906 H   0  0  0  0  0  0  0  0  0  0  0  0
    5.6116   18.4585    1.1185 H   0  0  0  0  0  0  0  0  0  0  0  0
    2.9812   18.7863    2.0174 H   0  0  0  0  0  0  0  0  0  0  0  0
    5.8386   18.5462    5.3005 H   0  0  0  0  0  0  0  0  0  0  0  0
    5.8055   17.5303    3.8195 H   0  0  0  0  0  0  0  0  0  0  0  0
    6.6978   19.0893    3.8195 H   0  0  0  0  0  0  0  0  0  0  0  0
    4.0924   19.5561    5.8001 H   0  0  0  0  0  0  0  0  0  0  0  0
    3.5945   20.8965    4.7128 H   0  0  0  0  0  0  0  0  0  0  0  0
    2.6771   19.3521    4.7128 H   0  0  0  0  0  0  0  0  0  0  0  0
    1.1564   17.0042    0.9348 H   0  0  0  0  0  0  0  0  0  0  0  0
   -0.6997   17.9808   -0.2655 H   0  0  0  0  0  0  0  0  0  0  0  0
    0.3689   18.6965   -1.4909 H   0  0  0  0  0  0  0  0  0  0  0  0
   -1.2491   16.3698   -1.8536 H   0  0  0  0  0  0  0  0  0  0  0  0
    0.0686   16.8334   -2.9274 H   0  0  0  0  0  0  0  0  0  0  0  0
    0.2711   15.1566    0.8026 H   0  0  0  0  0  0  0  0  0  0  0  0
   -1.2128   15.2421   -0.2061 H   0  0  0  0  0  0  0  0  0  0  0  0
   -0.2115   13.7508   -0.2061 H   0  0  0  0  0  0  0  0  0  0  0  0
    1.4624   14.8701   -3.1941 H   0  0  0  0  0  0  0  0  0  0  0  0
   -1.0336   14.2542   -3.0142 H   0  0  0  0  0  0  0  0  0  0  0  0
    0.1409   13.2062   -3.9691 H   0  0  0  0  0  0  0  0  0  0  0  0
   -1.6176   11.9271   -2.4825 H   0  0  0  0  0  0  0  0  0  0  0  0
    1.4655   12.6077    0.0329 H   0  0  0  0  0  0  0  0  0  0  0  0
    2.5123   10.4426   -1.8941 H   0  0  0  0  0  0  0  0  0  0  0  0
    3.4198   11.2092   -0.5159 H   0  0  0  0  0  0  0  0  0  0  0  0
    2.5868    8.9502    0.0535 H   0  0  0  0  0  0  0  0  0  0  0  0
    1.8649   10.2486    1.0822 H   0  0  0  0  0  0  0  0  0  0  0  0
    0.1346    8.7050    0.4619 H   0  0  0  0  0  0  0  0  0  0  0  0
   -0.1240    8.0170   -1.6010 H   0  0  0  0  0  0  0  0  0  0  0  0
   -0.4237   10.4026    1.7298 H   0  0  0  0  0  0  0  0  0  0  0  0
   -0.3445   12.0799    1.0917 H   0  0  0  0  0  0  0  0  0  0  0  0
   -1.9059   11.1917    1.0917 H   0  0  0  0  0  0  0  0  0  0  0  0
   -2.4915    9.6921   -0.1505 H   0  0  0  0  0  0  0  0  0  0  0  0
   -2.3388   10.7341   -1.6057 H   0  0  0  0  0  0  0  0  0  0  0  0
   -1.6329    9.0824   -1.6057 H   0  0  0  0  0  0  0  0  0  0  0  0
    3.5505   11.9435   -2.8427 H   0  0  0  0  0  0  0  0  0  0  0  0
    2.0086   12.1605   -3.7383 H   0  0  0  0  0  0  0  0  0  0  0  0
    3.2392   13.4691   -3.7383 H   0  0  0  0  0  0  0  0  0  0  0  0
    3.7737   13.2521   -0.4452 H   0  0  0  0  0  0  0  0  0  0  0  0
    3.9219   14.4518   -1.8501 H   0  0  0  0  0  0  0  0  0  0  0  0
    2.3320   14.7869    0.7080 H   0  0  0  0  0  0  0  0  0  0  0  0
    3.7819   15.7112    0.1502 H   0  0  0  0  0  0  0  0  0  0  0  0
    3.6209   17.3689   -1.7033 H   0  0  0  0  0  0  0  0  0  0  0  0
    3.1961   15.9482   -2.7170 H   0  0  0  0  0  0  0  0  0  0  0  0
    2.1384   17.4001   -2.7170 H   0  0  0  0  0  0  0  0  0  0  0  0
  1  2  1  0
  2  3  1  0
  3  4  1  0
  4  5  1  0
  5  6  1  0
  6  7  1  0
  7  8  1  0
  7  9  1  0
  2 10  1  0
 10 11  1  0
 11 12  1  0
 12 13  1  0
 13 14  1  1
 13 15  1  0
 15 16  1  0
 16 17  1  0
 17 18  2  0
 18 19  1  0
 19 20  1  0
 20 21  1  0
 21 22  1  0
 22 23  1  0
 22 24  1  0
 24 25  1  0
 24 26  1  0
 19 27  1  0
 27 28  1  6
 27 29  1  0
 29 30  1  0
 30 31  1  0
 31 32  1  6
  7  5  1  0
 31 10  1  0
 31 13  1  0
 27 15  1  0
 24 18  1  0
  1 33  1  0
  1 34  1  0
  1 35  1  0
  2 36  1  1
  3 37  1  0
  3 38  1  0
  4 39  1  0
  4 40  1  0
  5 41  1  1
  8 42  1  0
  8 43  1  0
  8 44  1  0
  9 45  1  0
  9 46  1  0
  9 47  1  0
 10 48  1  1
 11 49  1  0
 11 50  1  0
 12 51  1  0
 12 52  1  0
 14 53  1  0
 14 54  1  0
 14 55  1  0
 15 56  1  6
 16 57  1  0
 16 58  1  0
 17 59  1  0
 19 60  1  1
 20 61  1  0
 20 62  1  0
 21 63  1  0
 21 64  1  0
 22 65  1  1
 23 66  1  0
 25 67  1  0
 25 68  1  0
 25 69  1  0
 26 70  1  0
 26 71  1  0
 26 72  1  0
 28 73  1  0
 28 74  1  0
 28 75  1  0
 29 76  1  0
 29 77  1  0
 30 78  1  0
 30 79  1  0
 32 80  1  0
 32 81  1  0
 32 82  1  0
M  END
>  <meeko>  (2) 
{"is_sidechain": [false], "intermolecular_energy": 2.731, "internal_energy": -0.839}

$$$$
EPH_relaxed_0001_pdb2pqr_Repair_71_r2_0001_out
     RDKit          3D

 82 86  0  0  0  0  0  0  0  0999 V2000
    2.3470   17.9910   -2.6890 C   0  0  0  0  0  0  0  0  0  0  0  0
    1.0430   17.6120   -1.9820 C   0  0  2  0  0  0  0  0  0  0  0  0
    1.1780   17.6670   -0.4470 C   0  0  0  0  0  0  0  0  0  0  0  0
    0.8620   19.0420    0.1490 C   0  0  0  0  0  0  0  0  0  0  0  0
   -0.5790   19.1580    0.5420 C   0  0  2  0  0  0  0  0  0  0  0  0
   -1.4600   18.2530   -0.1370 O   0  0  0  0  0  0  0  0  0  0  0  0
   -1.6650   19.6510   -0.3960 C   0  0  0  0  0  0  0  0  0  0  0  0
   -1.3540   20.0610   -1.8020 C   0  0  0  0  0  0  0  0  0  0  0  0
   -2.9290   20.1940    0.1940 C   0  0  0  0  0  0  0  0  0  0  0  0
    0.6020   16.2190   -2.4160 C   0  0  1  0  0  0  0  0  0  0  0  0
    0.6930   16.0150   -3.9520 C   0  0  0  0  0  0  0  0  0  0  0  0
    1.1030   14.5380   -4.1840 C   0  0  0  0  0  0  0  0  0  0  0  0
    0.9110   13.8590   -2.8070 C   0  0  1  0  0  0  0  0  0  0  0  0
   -0.6170   13.5540   -2.7200 C   0  0  0  0  0  0  0  0  0  0  0  0
    1.7720   12.5820   -2.5410 C   0  0  2  0  0  0  0  0  0  0  0  0
    1.4940   11.3990   -3.4860 C   0  0  0  0  0  0  0  0  0  0  0  0
    0.4430   10.4460   -3.0230 C   0  0  0  0  0  0  0  0  0  0  0  0
   -0.0490   10.3710   -1.7720 C   0  0  0  0  0  0  0  0  0  0  0  0
    0.5270   11.2400   -0.6460 C   0  0  1  0  0  0  0  0  0  0  0  0
    0.7660   10.3650    0.6120 C   0  0  0  0  0  0  0  0  0  0  0  0
   -0.4850    9.6060    1.0430 C   0  0  0  0  0  0  0  0  0  0  0  0
   -0.9940    8.7090   -0.0830 C   0  0  2  0  0  0  0  0  0  0  0  0
   -0.0360    7.6720   -0.3150 O   0  0  0  0  0  0  0  0  0  0  0  0
   -1.2610    9.4800   -1.4060 C   0  0  0  0  0  0  0  0  0  0  0  0
   -2.5010   10.3910   -1.2370 C   0  0  0  0  0  0  0  0  0  0  0  0
   -1.6330    8.4400   -2.4970 C   0  0  0  0  0  0  0  0  0  0  0  0
    1.7950   12.1190   -1.0280 C   0  0  1  0  0  0  0  0  0  0  0  0
    3.0980   11.2840   -0.8380 C   0  0  0  0  0  0  0  0  0  0  0  0
    1.8970   13.3340   -0.0320 C   0  0  0  0  0  0  0  0  0  0  0  0
    1.1200   14.6100   -0.4110 C   0  0  0  0  0  0  0  0  0  0  0  0
    1.4030   15.0140   -1.8610 C   0  0  2  0  0  0  0  0  0  0  0  0
    2.9300   15.3500   -1.9740 C   0  0  0  0  0  0  0  0  0  0  0  0
    3.1192   18.2154   -1.9384 H   0  0  0  0  0  0  0  0  0  0  0  0
    2.6800   17.1525   -3.3183 H   0  0  0  0  0  0  0  0  0  0  0  0
    2.1787   18.8774   -3.3183 H   0  0  0  0  0  0  0  0  0  0  0  0
    0.2818   18.3506   -2.2736 H   0  0  0  0  0  0  0  0  0  0  0  0
    0.4858   16.9318   -0.0108 H   0  0  0  0  0  0  0  0  0  0  0  0
    2.2289   17.4465   -0.2082 H   0  0  0  0  0  0  0  0  0  0  0  0
    1.4880   19.1966    1.0402 H   0  0  0  0  0  0  0  0  0  0  0  0
    1.0709   19.8037   -0.6166 H   0  0  0  0  0  0  0  0  0  0  0  0
   -0.3005   19.4481    1.5659 H   0  0  0  0  0  0  0  0  0  0  0  0
   -0.6893   20.9373   -1.7899 H   0  0  0  0  0  0  0  0  0  0  0  0
   -0.8565   19.2307   -2.3246 H   0  0  0  0  0  0  0  0  0  0  0  0
   -2.2877   20.3162   -2.3246 H   0  0  0  0  0  0  0  0  0  0  0  0
   -2.8630   20.1657    1.2917 H   0  0  0  0  0  0  0  0  0  0  0  0
   -3.0719   21.2329   -0.1380 H   0  0  0  0  0  0  0  0  0  0  0  0
   -3.7809   19.5825   -0.1380 H   0  0  0  0  0  0  0  0  0  0  0  0
   -0.4190   16.2132   -2.0067 H   0  0  0  0  0  0  0  0  0  0  0  0
   -0.2826   16.2151   -4.4191 H   0  0  0  0  0  0  0  0  0  0  0  0
    1.4258   16.7030   -4.3989 H   0  0  0  0  0  0  0  0  0  0  0  0
    0.4569   14.0700   -4.9413 H   0  0  0  0  0  0  0  0  0  0  0  0
    2.1343   14.4446   -4.5551 H   0  0  0  0  0  0  0  0  0  0  0  0
   -0.9193   13.4937   -1.6641 H   0  0  0  0  0  0  0  0  0  0  0  0
   -1.1802   14.3574   -3.2173 H   0  0  0  0  0  0  0  0  0  0  0  0
   -0.8286   12.5959   -3.2173 H   0  0  0  0  0  0  0  0  0  0  0  0
    2.7875   12.9276   -2.7847 H   0  0  0  0  0  0  0  0  0  0  0  0
    1.1785   11.8071   -4.4576 H   0  0  0  0  0  0  0  0  0  0  0  0
    2.4289   10.8213   -3.5332 H   0  0  0  0  0  0  0  0  0  0  0  0
    0.0358    9.7454   -3.7669 H   0  0  0  0  0  0  0  0  0  0  0  0
   -0.2351   12.0034   -0.4306 H   0  0  0  0  0  0  0  0  0  0  0  0
    1.5607    9.6376    0.3898 H   0  0  0  0  0  0  0  0  0  0  0  0
    1.0500   11.0358    1.4362 H   0  0  0  0  0  0  0  0  0  0  0  0
   -0.2452    8.9842    1.9181 H   0  0  0  0  0  0  0  0  0  0  0  0
   -1.2696   10.3354    1.2928 H   0  0  0  0  0  0  0  0  0  0  0  0
   -1.9601    8.2921    0.2377 H   0  0  0  0  0  0  0  0  0  0  0  0
    0.2320    7.7220   -1.2480 H   0  0  0  0  0  0  0  0  0  0  0  0
   -2.7035   10.5398   -0.1661 H   0  0  0  0  0  0  0  0  0  0  0  0
   -2.3086   11.3641   -1.7124 H   0  0  0  0  0  0  0  0  0  0  0  0
   -3.3721    9.9165   -1.7124 H   0  0  0  0  0  0  0  0  0  0  0  0
   -1.9663    7.5082   -2.0168 H   0  0  0  0  0  0  0  0  0  0  0  0
   -2.4438    8.8400   -3.1236 H   0  0  0  0  0  0  0  0  0  0  0  0
   -0.7525    8.2350   -3.1236 H   0  0  0  0  0  0  0  0  0  0  0  0
    3.2980   11.1558    0.2360 H   0  0  0  0  0  0  0  0  0  0  0  0
    2.9730   10.2973   -1.3080 H   0  0  0  0  0  0  0  0  0  0  0  0
    3.9422   11.8097   -1.3080 H   0  0  0  0  0  0  0  0  0  0  0  0
    1.5238   12.9951    0.9457 H   0  0  0  0  0  0  0  0  0  0  0  0
    2.9569   13.6280   -0.0440 H   0  0  0  0  0  0  0  0  0  0  0  0
    0.0424   14.4234   -0.2933 H   0  0  0  0  0  0  0  0  0  0  0  0
    1.4438   15.4272    0.2503 H   0  0  0  0  0  0  0  0  0  0  0  0
    3.3602   15.4447   -0.9660 H   0  0  0  0  0  0  0  0  0  0  0  0
    3.4437   14.5434   -2.5176 H   0  0  0  0  0  0  0  0  0  0  0  0
    3.0577   16.2977   -2.5176 H   0  0  0  0  0  0  0  0  0  0  0  0
  1  2  1  0
  2  3  1  0
  3  4  1  0
  4  5  1  0
  5  6  1  0
  6  7  1  0
  7  8  1  0
  7  9  1  0
  2 10  1  0
 10 11  1  0
 11 12  1  0
 12 13  1  0
 13 14  1  1
 13 15  1  0
 15 16  1  0
 16 17  1  0
 17 18  2  0
 18 19  1  0
 19 20  1  0
 20 21  1  0
 21 22  1  0
 22 23  1  0
 22 24  1  0
 24 25  1  0
 24 26  1  0
 19 27  1  0
 27 28  1  6
 27 29  1  0
 29 30  1  0
 30 31  1  0
 31 32  1  1
  7  5  1  0
 31 10  1  0
 31 13  1  0
 27 15  1  0
 24 18  1  0
  1 33  1  0
  1 34  1  0
  1 35  1  0
  2 36  1  6
  3 37  1  0
  3 38  1  0
  4 39  1  0
  4 40  1  0
  5 41  1  1
  8 42  1  0
  8 43  1  0
  8 44  1  0
  9 45  1  0
  9 46  1  0
  9 47  1  0
 10 48  1  1
 11 49  1  0
 11 50  1  0
 12 51  1  0
 12 52  1  0
 14 53  1  0
 14 54  1  0
 14 55  1  0
 15 56  1  6
 16 57  1  0
 16 58  1  0
 17 59  1  0
 19 60  1  1
 20 61  1  0
 20 62  1  0
 21 63  1  0
 21 64  1  0
 22 65  1  1
 23 66  1  0
 25 67  1  0
 25 68  1  0
 25 69  1  0
 26 70  1  0
 26 71  1  0
 26 72  1  0
 28 73  1  0
 28 74  1  0
 28 75  1  0
 29 76  1  0
 29 77  1  0
 30 78  1  0
 30 79  1  0
 32 80  1  0
 32 81  1  0
 32 82  1  0
M  END
>  <meeko>  (3) 
{"is_sidechain": [false], "intermolecular_energy": 2.731, "internal_energy": -0.839}

$$$$
EPH_relaxed_0001_pdb2pqr_Repair_71_r2_0001_out
     RDKit          3D

 82 86  0  0  0  0  0  0  0  0999 V2000
    2.2260   17.9740   -2.6010 C   0  0  0  0  0  0  0  0  0  0  0  0
    0.7030   17.8330   -2.6640 C   0  0  2  0  0  0  0  0  0  0  0  0
    0.0210   18.3090   -1.3660 C   0  0  0  0  0  0  0  0  0  0  0  0
    0.7690   17.9010   -0.0930 C   0  0  0  0  0  0  0  0  0  0  0  0
    1.2880   19.0940    0.6510 C   0  0  2  0  0  0  0  0  0  0  0  0
    2.1760   19.9300   -0.1020 O   0  0  0  0  0  0  0  0  0  0  0  0
    2.7440   19.2690    1.0400 C   0  0  0  0  0  0  0  0  0  0  0  0
    3.7730   18.2370    0.6980 C   0  0  0  0  0  0  0  0  0  0  0  0
    3.0770   20.1940    2.1690 C   0  0  0  0  0  0  0  0  0  0  0  0
    0.3270   16.3840   -2.9500 C   0  0  1  0  0  0  0  0  0  0  0  0
    0.3940   16.0350   -4.4600 C   0  0  0  0  0  0  0  0  0  0  0  0
    0.8760   14.5650   -4.5590 C   0  0  0  0  0  0  0  0  0  0  0  0
    0.7510   14.0160   -3.1190 C   0  0  1  0  0  0  0  0  0  0  0  0
   -0.7570   13.6440   -2.9610 C   0  0  0  0  0  0  0  0  0  0  0  0
    1.6830   12.8150   -2.7540 C   0  0  2  0  0  0  0  0  0  0  0  0
    1.4470   11.5330   -3.5720 C   0  0  0  0  0  0  0  0  0  0  0  0
    0.4580   10.5780   -2.9900 C   0  0  0  0  0  0  0  0  0  0  0  0
   -0.0010   10.6020   -1.7250 C   0  0  0  0  0  0  0  0  0  0  0  0
    0.5530   11.6050   -0.7050 C   0  0  1  0  0  0  0  0  0  0  0  0
    0.8650   10.8710    0.6260 C   0  0  0  0  0  0  0  0  0  0  0  0
   -0.3340   10.0960    1.1620 C   0  0  0  0  0  0  0  0  0  0  0  0
   -0.8200    9.0690    0.1420 C   0  0  2  0  0  0  0  0  0  0  0  0
    0.1860    8.0630   -0.0140 O   0  0  0  0  0  0  0  0  0  0  0  0
   -1.1560    9.6910   -1.2420 C   0  0  0  0  0  0  0  0  0  0  0  0
   -2.4390   10.5520   -1.1280 C   0  0  0  0  0  0  0  0  0  0  0  0
   -1.4970    8.5320   -2.2170 C   0  0  0  0  0  0  0  0  0  0  0  0
    1.7640   12.5050   -1.2040 C   0  0  1  0  0  0  0  0  0  0  0  0
    3.1130   11.7590   -0.9690 C   0  0  0  0  0  0  0  0  0  0  0  0
    1.8240   13.8160   -0.3340 C   0  0  0  0  0  0  0  0  0  0  0  0
    0.9730   15.0070   -0.8130 C   0  0  0  0  0  0  0  0  0  0  0  0
    1.2020   15.2810   -2.3020 C   0  0  2  0  0  0  0  0  0  0  0  0
    2.7060   15.6800   -2.4890 C   0  0  0  0  0  0  0  0  0  0  0  0
    2.5483   18.0038   -1.5497 H   0  0  0  0  0  0  0  0  0  0  0  0
    2.6948   17.1154   -3.1040 H   0  0  0  0  0  0  0  0  0  0  0  0
    2.5293   18.9041   -3.1040 H   0  0  0  0  0  0  0  0  0  0  0  0
    0.3443   18.4779   -3.4797 H   0  0  0  0  0  0  0  0  0  0  0  0
   -0.0477   19.4065   -1.3919 H   0  0  0  0  0  0  0  0  0  0  0  0
   -0.9674   17.8279   -1.3267 H   0  0  0  0  0  0  0  0  0  0  0  0
    0.0821   17.3440    0.5611 H   0  0  0  0  0  0  0  0  0  0  0  0
    1.6276   17.2782   -0.3843 H   0  0  0  0  0  0  0  0  0  0  0  0
    0.3555   19.1677    1.2299 H   0  0  0  0  0  0  0  0  0  0  0  0
    4.1923   17.8164    1.6239 H   0  0  0  0  0  0  0  0  0  0  0  0
    3.3054   17.4339    0.1094 H   0  0  0  0  0  0  0  0  0  0  0  0
    4.5774   18.7023    0.1094 H   0  0  0  0  0  0  0  0  0  0  0  0
    2.8936   19.6847    3.1266 H   0  0  0  0  0  0  0  0  0  0  0  0
    4.1361   20.4843    2.1050 H   0  0  0  0  0  0  0  0  0  0  0  0
    2.4460   21.0927    2.1050 H   0  0  0  0  0  0  0  0  0  0  0  0
   -0.6833   16.3673   -2.5153 H   0  0  0  0  0  0  0  0  0  0  0  0
   -0.6011   16.1388   -4.9172 H   0  0  0  0  0  0  0  0  0  0  0  0
    1.0793   16.7117   -4.9915 H   0  0  0  0  0  0  0  0  0  0  0  0
    0.2387   13.9930   -5.2494 H   0  0  0  0  0  0  0  0  0  0  0  0
    1.9022   14.4876   -4.9474 H   0  0  0  0  0  0  0  0  0  0  0  0
   -1.0093   13.5818   -1.8921 H   0  0  0  0  0  0  0  0  0  0  0  0
   -1.3772   14.4161   -3.4398 H   0  0  0  0  0  0  0  0  0  0  0  0
   -0.9470   12.6721   -3.4398 H   0  0  0  0  0  0  0  0  0  0  0  0
    2.6734   13.1848   -3.0579 H   0  0  0  0  0  0  0  0  0  0  0  0
    1.0887   11.8274   -4.5695 H   0  0  0  0  0  0  0  0  0  0  0  0
    2.4098   11.0013   -3.5888 H   0  0  0  0  0  0  0  0  0  0  0  0
    0.0718    9.7880   -3.6509 H   0  0  0  0  0  0  0  0  0  0  0  0
   -0.2434   12.3466   -0.5448 H   0  0  0  0  0  0  0  0  0  0  0  0
    1.6921   10.1664    0.4545 H   0  0  0  0  0  0  0  0  0  0  0  0
    1.1306   11.6334    1.3731 H   0  0  0  0  0  0  0  0  0  0  0  0
   -0.0423    9.5754    2.0861 H   0  0  0  0  0  0  0  0  0  0  0  0
   -1.1502   10.8059    1.3618 H   0  0  0  0  0  0  0  0  0  0  0  0
   -1.7561    8.6388    0.5275 H   0  0  0  0  0  0  0  0  0  0  0  0
    0.2020    7.5340    0.8010 H   0  0  0  0  0  0  0  0  0  0  0  0
   -2.6793   10.7132   -0.0667 H   0  0  0  0  0  0  0  0  0  0  0  0
   -2.2738   11.5228   -1.6182 H   0  0  0  0  0  0  0  0  0  0  0  0
   -3.2748   10.0313   -1.6182 H   0  0  0  0  0  0  0  0  0  0  0  0
   -1.7614    7.6334   -1.6402 H   0  0  0  0  0  0  0  0  0  0  0  0
   -2.3472    8.8242   -2.8508 H   0  0  0  0  0  0  0  0  0  0  0  0
   -0.6240    8.3172   -2.8508 H   0  0  0  0  0  0  0  0  0  0  0  0
    3.2934   11.6592    0.1115 H   0  0  0  0  0  0  0  0  0  0  0  0
    3.0640   10.7598   -1.4264 H   0  0  0  0  0  0  0  0  0  0  0  0
    3.9332   12.3317   -1.4264 H   0  0  0  0  0  0  0  0  0  0  0  0
    1.4914   13.5567    0.6819 H   0  0  0  0  0  0  0  0  0  0  0  0
    2.8663   14.1604   -0.4041 H   0  0  0  0  0  0  0  0  0  0  0  0
   -0.0904   14.7785   -0.6486 H   0  0  0  0  0  0  0  0  0  0  0  0
    1.2677   15.9003   -0.2428 H   0  0  0  0  0  0  0  0  0  0  0  0
    3.1775   15.8051   -1.5031 H   0  0  0  0  0  0  0  0  0  0  0  0
    3.2284   14.8894   -3.0476 H   0  0  0  0  0  0  0  0  0  0  0  0
    2.7678   16.6256   -3.0476 H   0  0  0  0  0  0  0  0  0  0  0  0
  1  2  1  0
  2  3  1  0
  3  4  1  0
  4  5  1  0
  5  6  1  0
  6  7  1  0
  7  8  1  0
  7  9  1  0
  2 10  1  0
 10 11  1  0
 11 12  1  0
 12 13  1  0
 13 14  1  1
 13 15  1  0
 15 16  1  0
 16 17  1  0
 17 18  2  0
 18 19  1  0
 19 20  1  0
 20 21  1  0
 21 22  1  0
 22 23  1  0
 22 24  1  0
 24 25  1  0
 24 26  1  0
 19 27  1  0
 27 28  1  6
 27 29  1  0
 29 30  1  0
 30 31  1  0
 31 32  1  1
  7  5  1  0
 31 10  1  0
 31 13  1  0
 27 15  1  0
 24 18  1  0
  1 33  1  0
  1 34  1  0
  1 35  1  0
  2 36  1  6
  3 37  1  0
  3 38  1  0
  4 39  1  0
  4 40  1  0
  5 41  1  1
  8 42  1  0
  8 43  1  0
  8 44  1  0
  9 45  1  0
  9 46  1  0
  9 47  1  0
 10 48  1  1
 11 49  1  0
 11 50  1  0
 12 51  1  0
 12 52  1  0
 14 53  1  0
 14 54  1  0
 14 55  1  0
 15 56  1  6
 16 57  1  0
 16 58  1  0
 17 59  1  0
 19 60  1  1
 20 61  1  0
 20 62  1  0
 21 63  1  0
 21 64  1  0
 22 65  1  1
 23 66  1  0
 25 67  1  0
 25 68  1  0
 25 69  1  0
 26 70  1  0
 26 71  1  0
 26 72  1  0
 28 73  1  0
 28 74  1  0
 28 75  1  0
 29 76  1  0
 29 77  1  0
 30 78  1  0
 30 79  1  0
 32 80  1  0
 32 81  1  0
 32 82  1  0
M  END
>  <meeko>  (4) 
{"is_sidechain": [false], "intermolecular_energy": 2.731, "internal_energy": -0.839}

$$$$
EPH_relaxed_0001_pdb2pqr_Repair_71_r2_0001_out
     RDKit          3D

 82 86  0  0  0  0  0  0  0  0999 V2000
   -3.4180    9.3250    0.5210 C   0  0  0  0  0  0  0  0  0  0  0  0
   -2.5770    9.6750   -0.7090 C   0  0  2  0  0  0  0  0  0  0  0  0
   -1.9060    8.4320   -1.3260 C   0  0  0  0  0  0  0  0  0  0  0  0
   -2.8160    7.6500   -2.2780 C   0  0  0  0  0  0  0  0  0  0  0  0
   -4.2570    7.7570   -1.8800 C   0  0  2  0  0  0  0  0  0  0  0  0
   -4.8140    6.5600   -1.3220 O   0  0  0  0  0  0  0  0  0  0  0  0
   -5.3740    6.9970   -2.5710 C   0  0  0  0  0  0  0  0  0  0  0  0
   -5.0980    6.0760   -3.7180 C   0  0  0  0  0  0  0  0  0  0  0  0
   -6.7720    7.5190   -2.4550 C   0  0  0  0  0  0  0  0  0  0  0  0
   -1.5190   10.7080   -0.3390 C   0  0  1  0  0  0  0  0  0  0  0  0
   -0.4190   10.1300    0.5910 C   0  0  0  0  0  0  0  0  0  0  0  0
    0.9100   10.8250    0.1980 C   0  0  0  0  0  0  0  0  0  0  0  0
    0.4800   12.0060   -0.7040 C   0  0  1  0  0  0  0  0  0  0  0  0
    0.0410   13.1280    0.2870 C   0  0  0  0  0  0  0  0  0  0  0  0
    1.5490   12.5210   -1.7220 C   0  0  2  0  0  0  0  0  0  0  0  0
    2.8300   13.0920   -1.0900 C   0  0  0  0  0  0  0  0  0  0  0  0
    2.8030   14.5570   -0.8070 C   0  0  0  0  0  0  0  0  0  0  0  0
    1.9110   15.4340   -1.3040 C   0  0  0  0  0  0  0  0  0  0  0  0
    0.8560   14.9900   -2.3260 C   0  0  1  0  0  0  0  0  0  0  0  0
    0.8040   16.0110   -3.4920 C   0  0  0  0  0  0  0  0  0  0  0  0
    0.5820   17.4410   -3.0090 C   0  0  0  0  0  0  0  0  0  0  0  0
    1.6830   17.8660   -2.0400 C   0  0  2  0  0  0  0  0  0  0  0  0
    2.9210   17.9410   -2.7540 O   0  0  0  0  0  0  0  0  0  0  0  0
    1.8360   16.9060   -0.8280 C   0  0  0  0  0  0  0  0  0  0  0  0
    0.6120   17.0510    0.1100 C   0  0  0  0  0  0  0  0  0  0  0  0
    3.0700   17.3680   -0.0060 C   0  0  0  0  0  0  0  0  0  0  0  0
    0.9720   13.4880   -2.8330 C   0  0  1  0  0  0  0  0  0  0  0  0
    1.9510   13.4100   -4.0450 C   0  0  0  0  0  0  0  0  0  0  0  0
   -0.4330   13.0170   -3.3670 C   0  0  0  0  0  0  0  0  0  0  0  0
   -1.3990   12.4060   -2.3330 C   0  0  0  0  0  0  0  0  0  0  0  0
   -0.6990   11.3320   -1.4960 C   0  0  2  0  0  0  0  0  0  0  0  0
   -0.2650   10.1790   -2.4630 C   0  0  0  0  0  0  0  0  0  0  0  0
   -2.8500    9.5614    1.4329 H   0  0  0  0  0  0  0  0  0  0  0  0
   -4.3493    9.9102    0.5070 H   0  0  0  0  0  0  0  0  0  0  0  0
   -3.6591    8.2518    0.5070 H   0  0  0  0  0  0  0  0  0  0  0  0
   -3.2565   10.0937   -1.4660 H   0  0  0  0  0  0  0  0  0  0  0  0
   -1.0171    8.7589   -1.8854 H   0  0  0  0  0  0  0  0  0  0  0  0
   -1.6540    7.7568   -0.4950 H   0  0  0  0  0  0  0  0  0  0  0  0
   -2.6964    8.0510   -3.2953 H   0  0  0  0  0  0  0  0  0  0  0  0
   -2.5263    6.5897   -2.2357 H   0  0  0  0  0  0  0  0  0  0  0  0
   -4.1336    8.8209   -1.6293 H   0  0  0  0  0  0  0  0  0  0  0  0
   -4.8022    5.0890   -3.3328 H   0  0  0  0  0  0  0  0  0  0  0  0
   -6.0048    5.9732   -4.3321 H   0  0  0  0  0  0  0  0  0  0  0  0
   -4.2841    6.4889   -4.3321 H   0  0  0  0  0  0  0  0  0  0  0  0
   -7.0392    7.6188   -1.3926 H   0  0  0  0  0  0  0  0  0  0  0  0
   -6.8379    8.5023   -2.9436 H   0  0  0  0  0  0  0  0  0  0  0  0
   -7.4663    6.8195   -2.9436 H   0  0  0  0  0  0  0  0  0  0  0  0
   -2.1614   11.4727    0.1221 H   0  0  0  0  0  0  0  0  0  0  0  0
   -0.6615   10.3434    1.6425 H   0  0  0  0  0  0  0  0  0  0  0  0
   -0.3416    9.0384    0.4799 H   0  0  0  0  0  0  0  0  0  0  0  0
    1.4363   11.1906    1.0920 H   0  0  0  0  0  0  0  0  0  0  0  0
    1.6038   10.1409   -0.3125 H   0  0  0  0  0  0  0  0  0  0  0  0
    0.1779   12.7782    1.3209 H   0  0  0  0  0  0  0  0  0  0  0  0
    0.6542   14.0257    0.1194 H   0  0  0  0  0  0  0  0  0  0  0  0
   -1.0186   13.3712    0.1194 H   0  0  0  0  0  0  0  0  0  0  0  0
    1.8548   11.5954   -2.2317 H   0  0  0  0  0  0  0  0  0  0  0  0
    3.0041   12.5655   -0.1400 H   0  0  0  0  0  0  0  0  0  0  0  0
    3.6287   12.9399   -1.8309 H   0  0  0  0  0  0  0  0  0  0  0  0
    3.5781   14.9540   -0.1350 H   0  0  0  0  0  0  0  0  0  0  0  0
   -0.1050   14.9863   -1.7908 H   0  0  0  0  0  0  0  0  0  0  0  0
    1.7564   15.9682   -4.0407 H   0  0  0  0  0  0  0  0  0  0  0  0
   -0.0466   15.7402   -4.1348 H   0  0  0  0  0  0  0  0  0  0  0  0
    0.5839   18.1183   -3.8758 H   0  0  0  0  0  0  0  0  0  0  0  0
   -0.3844   17.4892   -2.4859 H   0  0  0  0  0  0  0  0  0  0  0  0
    1.4011   18.8467   -1.6292 H   0  0  0  0  0  0  0  0  0  0  0  0
    2.7140   18.1460   -3.6820 H   0  0  0  0  0  0  0  0  0  0  0  0
    0.9459   17.0114    1.1573 H   0  0  0  0  0  0  0  0  0  0  0  0
    0.1161   18.0142   -0.0806 H   0  0  0  0  0  0  0  0  0  0  0  0
   -0.0953   16.2304   -0.0806 H   0  0  0  0  0  0  0  0  0  0  0  0
    2.8473   17.2846    1.0680 H   0  0  0  0  0  0  0  0  0  0  0  0
    3.9333   16.7322   -0.2519 H   0  0  0  0  0  0  0  0  0  0  0  0
    3.3035   18.4144   -0.2519 H   0  0  0  0  0  0  0  0  0  0  0  0
    2.9843   13.3277   -3.6770 H   0  0  0  0  0  0  0  0  0  0  0  0
    1.7082   12.5284   -4.6563 H   0  0  0  0  0  0  0  0  0  0  0  0
    1.8508   14.3190   -4.6563 H   0  0  0  0  0  0  0  0  0  0  0  0
   -0.9306   13.8916   -3.8114 H   0  0  0  0  0  0  0  0  0  0  0  0
   -0.2147   12.2030   -4.0739 H   0  0  0  0  0  0  0  0  0  0  0  0
   -1.7624   13.2017   -1.6661 H   0  0  0  0  0  0  0  0  0  0  0  0
   -2.2384   11.9401   -2.8700 H   0  0  0  0  0  0  0  0  0  0  0  0
    0.0622    9.3098   -1.8736 H   0  0  0  0  0  0  0  0  0  0  0  0
   -1.1167    9.8923   -3.0973 H   0  0  0  0  0  0  0  0  0  0  0  0
    0.5644   10.5251   -3.0973 H   0  0  0  0  0  0  0  0  0  0  0  0
  1  2  1  0
  2  3  1  0
  3  4  1  0
  4  5  1  0
  5  6  1  0
  6  7  1  0
  7  8  1  0
  7  9  1  0
  2 10  1  0
 10 11  1  0
 11 12  1  0
 12 13  1  0
 13 14  1  1
 13 15  1  0
 15 16  1  0
 16 17  1  0
 17 18  2  0
 18 19  1  0
 19 20  1  0
 20 21  1  0
 21 22  1  0
 22 23  1  0
 22 24  1  0
 24 25  1  0
 24 26  1  0
 19 27  1  0
 27 28  1  6
 27 29  1  0
 29 30  1  0
 30 31  1  0
 31 32  1  6
  7  5  1  0
 31 10  1  0
 31 13  1  0
 27 15  1  0
 24 18  1  0
  1 33  1  0
  1 34  1  0
  1 35  1  0
  2 36  1  6
  3 37  1  0
  3 38  1  0
  4 39  1  0
  4 40  1  0
  5 41  1  1
  8 42  1  0
  8 43  1  0
  8 44  1  0
  9 45  1  0
  9 46  1  0
  9 47  1  0
 10 48  1  1
 11 49  1  0
 11 50  1  0
 12 51  1  0
 12 52  1  0
 14 53  1  0
 14 54  1  0
 14 55  1  0
 15 56  1  6
 16 57  1  0
 16 58  1  0
 17 59  1  0
 19 60  1  1
 20 61  1  0
 20 62  1  0
 21 63  1  0
 21 64  1  0
 22 65  1  1
 23 66  1  0
 25 67  1  0
 25 68  1  0
 25 69  1  0
 26 70  1  0
 26 71  1  0
 26 72  1  0
 28 73  1  0
 28 74  1  0
 28 75  1  0
 29 76  1  0
 29 77  1  0
 30 78  1  0
 30 79  1  0
 32 80  1  0
 32 81  1  0
 32 82  1  0
M  END
>  <meeko>  (5) 
{"is_sidechain": [false], "intermolecular_energy": 2.731, "internal_energy": -0.839}

$$$$
EPH_relaxed_0001_pdb2pqr_Repair_71_r2_0001_out
     RDKit          3D

 82 86  0  0  0  0  0  0  0  0999 V2000
    3.7210   17.7490    0.6030 C   0  0  0  0  0  0  0  0  0  0  0  0
    2.8100   18.0580   -0.5880 C   0  0  2  0  0  0  0  0  0  0  0  0
    2.1280   19.4350   -0.4560 C   0  0  0  0  0  0  0  0  0  0  0  0
    1.2160   19.5540    0.7680 C   0  0  0  0  0  0  0  0  0  0  0  0
   -0.1190   20.1350    0.4110 C   0  0  2  0  0  0  0  0  0  0  0  0
   -1.0550   20.1940    1.4950 O   0  0  0  0  0  0  0  0  0  0  0  0
   -1.4050   19.3310    0.4000 C   0  0  0  0  0  0  0  0  0  0  0  0
   -1.4190   17.8770    0.7520 C   0  0  0  0  0  0  0  0  0  0  0  0
   -2.5550   19.8320   -0.4180 C   0  0  0  0  0  0  0  0  0  0  0  0
    1.7570   16.9660   -0.7350 C   0  0  1  0  0  0  0  0  0  0  0  0
    0.5310   17.4260   -1.5680 C   0  0  0  0  0  0  0  0  0  0  0  0
    0.0450   16.1910   -2.3690 C   0  0  0  0  0  0  0  0  0  0  0  0
    0.7870   14.9940   -1.7270 C   0  0  1  0  0  0  0  0  0  0  0  0
   -0.0400   14.6490   -0.4490 C   0  0  0  0  0  0  0  0  0  0  0  0
    0.9930   13.7410   -2.6380 C   0  0  2  0  0  0  0  0  0  0  0  0
   -0.3020   13.0570   -3.1100 C   0  0  0  0  0  0  0  0  0  0  0  0
   -0.8150   11.9760   -2.2180 C   0  0  0  0  0  0  0  0  0  0  0  0
   -0.1160   11.3740   -1.2370 C   0  0  0  0  0  0  0  0  0  0  0  0
    1.3650   11.7040   -1.0090 C   0  0  1  0  0  0  0  0  0  0  0  0
    2.1680   10.3870   -0.8360 C   0  0  0  0  0  0  0  0  0  0  0  0
    1.5940    9.4920    0.2580 C   0  0  0  0  0  0  0  0  0  0  0  0
    0.1380    9.1390   -0.0340 C   0  0  2  0  0  0  0  0  0  0  0  0
    0.0890    8.3140   -1.2020 O   0  0  0  0  0  0  0  0  0  0  0  0
   -0.7660   10.3870   -0.2370 C   0  0  0  0  0  0  0  0  0  0  0  0
   -0.9550   11.1180    1.1150 C   0  0  0  0  0  0  0  0  0  0  0  0
   -2.1750    9.8920   -0.6630 C   0  0  0  0  0  0  0  0  0  0  0  0
    2.0270   12.6880   -2.0670 C   0  0  1  0  0  0  0  0  0  0  0  0
    2.5570   11.8770   -3.2890 C   0  0  0  0  0  0  0  0  0  0  0  0
    3.2830   13.3760   -1.4130 C   0  0  0  0  0  0  0  0  0  0  0  0
    3.0310   14.6770   -0.6260 C   0  0  0  0  0  0  0  0  0  0  0  0
    2.1840   15.6570   -1.4440 C   0  0  2  0  0  0  0  0  0  0  0  0
    3.0000   16.0400   -2.7260 C   0  0  0  0  0  0  0  0  0  0  0  0
    3.1751   17.9341    1.5399 H   0  0  0  0  0  0  0  0  0  0  0  0
    4.0327   16.6949    0.5624 H   0  0  0  0  0  0  0  0  0  0  0  0
    4.6097   18.3960    0.5624 H   0  0  0  0  0  0  0  0  0  0  0  0
    3.4414   18.0879   -1.4882 H   0  0  0  0  0  0  0  0  0  0  0  0
    2.9104   20.2047   -0.3825 H   0  0  0  0  0  0  0  0  0  0  0  0
    1.4931   19.5663   -1.3446 H   0  0  0  0  0  0  0  0  0  0  0  0
    1.0654   18.5532    1.1989 H   0  0  0  0  0  0  0  0  0  0  0  0
    1.6998   20.2263    1.4918 H   0  0  0  0  0  0  0  0  0  0  0  0
    0.3426   20.7979   -0.3356 H   0  0  0  0  0  0  0  0  0  0  0  0
   -1.4201   17.7646    1.8462 H   0  0  0  0  0  0  0  0  0  0  0  0
   -2.3217   17.4073    0.3343 H   0  0  0  0  0  0  0  0  0  0  0  0
   -0.5255   17.3900    0.3343 H   0  0  0  0  0  0  0  0  0  0  0  0
   -3.3559   20.1809    0.2504 H   0  0  0  0  0  0  0  0  0  0  0  0
   -2.2182   20.6649   -1.0526 H   0  0  0  0  0  0  0  0  0  0  0  0
   -2.9356   19.0181   -1.0526 H   0  0  0  0  0  0  0  0  0  0  0  0
    1.5482   16.7678    0.3267 H   0  0  0  0  0  0  0  0  0  0  0  0
   -0.2676   17.7830   -0.9011 H   0  0  0  0  0  0  0  0  0  0  0  0
    0.7995   18.2529   -2.2419 H   0  0  0  0  0  0  0  0  0  0  0  0
   -1.0441   16.0697   -2.2731 H   0  0  0  0  0  0  0  0  0  0  0  0
    0.2533   16.2829   -3.4452 H   0  0  0  0  0  0  0  0  0  0  0  0
    0.5494   14.8949    0.4466 H   0  0  0  0  0  0  0  0  0  0  0  0
   -0.9719   15.2334   -0.4465 H   0  0  0  0  0  0  0  0  0  0  0  0
   -0.2803   13.5756   -0.4465 H   0  0  0  0  0  0  0  0  0  0  0  0
    1.4462   14.1775   -3.5402 H   0  0  0  0  0  0  0  0  0  0  0  0
   -1.0824   13.8278   -3.1931 H   0  0  0  0  0  0  0  0  0  0  0  0
   -0.0579   12.5714   -4.0663 H   0  0  0  0  0  0  0  0  0  0  0  0
   -1.8515   11.6429   -2.3752 H   0  0  0  0  0  0  0  0  0  0  0  0
    1.4064   12.2915   -0.0799 H   0  0  0  0  0  0  0  0  0  0  0  0
    2.1509    9.8358   -1.7878 H   0  0  0  0  0  0  0  0  0  0  0  0
    3.1934   10.6568   -0.5432 H   0  0  0  0  0  0  0  0  0  0  0  0
    2.1850    8.5659    0.3124 H   0  0  0  0  0  0  0  0  0  0  0  0
    1.6389   10.0337    1.2143 H   0  0  0  0  0  0  0  0  0  0  0  0
   -0.2551    8.6068    0.8448 H   0  0  0  0  0  0  0  0  0  0  0  0
   -0.6800    7.7260   -1.1150 H   0  0  0  0  0  0  0  0  0  0  0  0
   -0.7731   10.4144    1.9408 H   0  0  0  0  0  0  0  0  0  0  0  0
   -0.2435   11.9542    1.1823 H   0  0  0  0  0  0  0  0  0  0  0  0
   -1.9826   11.5046    1.1823 H   0  0  0  0  0  0  0  0  0  0  0  0
   -2.7761    9.6808    0.2337 H   0  0  0  0  0  0  0  0  0  0  0  0
   -2.6712   10.6696   -1.2622 H   0  0  0  0  0  0  0  0  0  0  0  0
   -2.0758    8.9749   -1.2622 H   0  0  0  0  0  0  0  0  0  0  0  0
    3.1262   11.0060   -2.9320 H   0  0  0  0  0  0  0  0  0  0  0  0
    1.7075   11.5351   -3.8985 H   0  0  0  0  0  0  0  0  0  0  0  0
    3.2112   12.5178   -3.8985 H   0  0  0  0  0  0  0  0  0  0  0  0
    3.7371   12.6512   -0.7213 H   0  0  0  0  0  0  0  0  0  0  0  0
    3.9231   13.6699   -2.2580 H   0  0  0  0  0  0  0  0  0  0  0  0
    2.5015   14.4361    0.3076 H   0  0  0  0  0  0  0  0  0  0  0  0
    4.0006   15.1485   -0.4079 H   0  0  0  0  0  0  0  0  0  0  0  0
    3.9589   16.4901   -2.4294 H   0  0  0  0  0  0  0  0  0  0  0  0
    3.1885   15.1363   -3.3242 H   0  0  0  0  0  0  0  0  0  0  0  0
    2.4253   16.7624   -3.3242 H   0  0  0  0  0  0  0  0  0  0  0  0
  1  2  1  0
  2  3  1  0
  3  4  1  0
  4  5  1  0
  5  6  1  0
  6  7  1  0
  7  8  1  0
  7  9  1  0
  2 10  1  0
 10 11  1  0
 11 12  1  0
 12 13  1  0
 13 14  1  1
 13 15  1  0
 15 16  1  0
 16 17  1  0
 17 18  2  0
 18 19  1  0
 19 20  1  0
 20 21  1  0
 21 22  1  0
 22 23  1  0
 22 24  1  0
 24 25  1  0
 24 26  1  0
 19 27  1  0
 27 28  1  6
 27 29  1  0
 29 30  1  0
 30 31  1  0
 31 32  1  6
  7  5  1  0
 31 10  1  0
 31 13  1  0
 27 15  1  0
 24 18  1  0
  1 33  1  0
  1 34  1  0
  1 35  1  0
  2 36  1  6
  3 37  1  0
  3 38  1  0
  4 39  1  0
  4 40  1  0
  5 41  1  6
  8 42  1  0
  8 43  1  0
  8 44  1  0
  9 45  1  0
  9 46  1  0
  9 47  1  0
 10 48  1  1
 11 49  1  0
 11 50  1  0
 12 51  1  0
 12 52  1  0
 14 53  1  0
 14 54  1  0
 14 55  1  0
 15 56  1  6
 16 57  1  0
 16 58  1  0
 17 59  1  0
 19 60  1  1
 20 61  1  0
 20 62  1  0
 21 63  1  0
 21 64  1  0
 22 65  1  1
 23 66  1  0
 25 67  1  0
 25 68  1  0
 25 69  1  0
 26 70  1  0
 26 71  1  0
 26 72  1  0
 28 73  1  0
 28 74  1  0
 28 75  1  0
 29 76  1  0
 29 77  1  0
 30 78  1  0
 30 79  1  0
 32 80  1  0
 32 81  1  0
 32 82  1  0
M  END
>  <meeko>  (6) 
{"is_sidechain": [false], "intermolecular_energy": 2.731, "internal_energy": -0.839}

$$$$
EPH_relaxed_0001_pdb2pqr_Repair_71_r2_0001_out
     RDKit          3D

 82 86  0  0  0  0  0  0  0  0999 V2000
    0.3770    8.7980   -2.3370 C   0  0  0  0  0  0  0  0  0  0  0  0
    1.1210    9.9340   -3.0440 C   0  0  2  0  0  0  0  0  0  0  0  0
    2.6240    9.9460   -2.7010 C   0  0  0  0  0  0  0  0  0  0  0  0
    3.5040   10.5320   -3.8090 C   0  0  0  0  0  0  0  0  0  0  0  0
    4.8980   10.7970   -3.3270 C   0  0  2  0  0  0  0  0  0  0  0  0
    5.4820   12.0100   -3.8210 O   0  0  0  0  0  0  0  0  0  0  0  0
    6.1130   10.7880   -4.2360 C   0  0  0  0  0  0  0  0  0  0  0  0
    5.9890   10.5070   -5.7010 C   0  0  0  0  0  0  0  0  0  0  0  0
    7.4620   10.5690   -3.6260 C   0  0  0  0  0  0  0  0  0  0  0  0
    0.4920   11.2740   -2.6790 C   0  0  1  0  0  0  0  0  0  0  0  0
   -0.8790   11.1160   -1.9690 C   0  0  0  0  0  0  0  0  0  0  0  0
   -0.9790   12.2620   -0.9300 C   0  0  0  0  0  0  0  0  0  0  0  0
    0.1720   13.2260   -1.3000 C   0  0  1  0  0  0  0  0  0  0  0  0
   -0.3840   14.0800   -2.4820 C   0  0  0  0  0  0  0  0  0  0  0  0
    0.7180   14.1270   -0.1440 C   0  0  2  0  0  0  0  0  0  0  0  0
   -0.3020   15.1120    0.4520 C   0  0  0  0  0  0  0  0  0  0  0  0
   -0.3440   16.4560   -0.1960 C   0  0  0  0  0  0  0  0  0  0  0  0
    0.5930   16.9560   -1.0240 C   0  0  0  0  0  0  0  0  0  0  0  0
    1.8870   16.1820   -1.3060 C   0  0  1  0  0  0  0  0  0  0  0  0
    3.1000   17.1440   -1.1920 C   0  0  0  0  0  0  0  0  0  0  0  0
    2.9520   18.3780   -2.0770 C   0  0  0  0  0  0  0  0  0  0  0  0
    1.6840   19.1510   -1.7280 C   0  0  2  0  0  0  0  0  0  0  0  0
    1.8250   19.6970   -0.4120 O   0  0  0  0  0  0  0  0  0  0  0  0
    0.3970   18.2820   -1.7980 C   0  0  0  0  0  0  0  0  0  0  0  0
    0.0790   17.9410   -3.2750 C   0  0  0  0  0  0  0  0  0  0  0  0
   -0.7890   19.1440   -1.2860 C   0  0  0  0  0  0  0  0  0  0  0  0
    2.0900   14.8430   -0.4740 C   0  0  1  0  0  0  0  0  0  0  0  0
    2.7650   15.1640    0.8950 C   0  0  0  0  0  0  0  0  0  0  0  0
    3.0860   13.9020   -1.2500 C   0  0  0  0  0  0  0  0  0  0  0  0
    2.4710   12.9510   -2.2940 C   0  0  0  0  0  0  0  0  0  0  0  0
    1.2800   12.1880   -1.7070 C   0  0  2  0  0  0  0  0  0  0  0  0
    1.8130   11.3020   -0.5290 C   0  0  0  0  0  0  0  0  0  0  0  0
    0.4612    8.9266   -1.2478 H   0  0  0  0  0  0  0  0  0  0  0  0
   -0.6837    8.8177   -2.6276 H   0  0  0  0  0  0  0  0  0  0  0  0
    0.8190    7.8335   -2.6276 H   0  0  0  0  0  0  0  0  0  0  0  0
    1.0314    9.7643   -4.1271 H   0  0  0  0  0  0  0  0  0  0  0  0
    2.7675   10.5456   -1.7900 H   0  0  0  0  0  0  0  0  0  0  0  0
    2.9313    8.8984   -2.5669 H   0  0  0  0  0  0  0  0  0  0  0  0
    3.5455    9.8193   -4.6459 H   0  0  0  0  0  0  0  0  0  0  0  0
    3.0634   11.4883   -4.1275 H   0  0  0  0  0  0  0  0  0  0  0  0
    4.6881   10.2957   -2.3706 H   0  0  0  0  0  0  0  0  0  0  0  0
    5.5488    9.5095   -5.8471 H   0  0  0  0  0  0  0  0  0  0  0  0
    5.3418   11.2651   -6.1663 H   0  0  0  0  0  0  0  0  0  0  0  0
    6.9852   10.5399   -6.1663 H   0  0  0  0  0  0  0  0  0  0  0  0
    7.3753   10.5831   -2.5295 H   0  0  0  0  0  0  0  0  0  0  0  0
    7.8572    9.5949   -3.9501 H   0  0  0  0  0  0  0  0  0  0  0  0
    8.1450   11.3680   -3.9501 H   0  0  0  0  0  0  0  0  0  0  0  0
    0.4475   11.7353   -3.6766 H   0  0  0  0  0  0  0  0  0  0  0  0
   -1.6962   11.1960   -2.7010 H   0  0  0  0  0  0  0  0  0  0  0  0
   -0.9607   10.1330   -1.4821 H   0  0  0  0  0  0  0  0  0  0  0  0
   -1.9512   12.7710   -1.0057 H   0  0  0  0  0  0  0  0  0  0  0  0
   -0.8998   11.8954    0.1041 H   0  0  0  0  0  0  0  0  0  0  0  0
   -0.9432   14.9389   -2.0825 H   0  0  0  0  0  0  0  0  0  0  0  0
    0.4523   14.4416   -3.0983 H   0  0  0  0  0  0  0  0  0  0  0  0
   -1.0530   13.4615   -3.0983 H   0  0  0  0  0  0  0  0  0  0  0  0
    0.9238   13.3943    0.6502 H   0  0  0  0  0  0  0  0  0  0  0  0
   -1.3014   14.6610    0.3643 H   0  0  0  0  0  0  0  0  0  0  0  0
    0.0135   15.2850    1.4915 H   0  0  0  0  0  0  0  0  0  0  0  0
   -1.2146   17.0923    0.0213 H   0  0  0  0  0  0  0  0  0  0  0  0
    1.8004   15.8096   -2.3374 H   0  0  0  0  0  0  0  0  0  0  0  0
    3.1949   17.4696   -0.1456 H   0  0  0  0  0  0  0  0  0  0  0  0
    3.9933   16.5969   -1.5278 H   0  0  0  0  0  0  0  0  0  0  0  0
    3.8241   19.0323   -1.9309 H   0  0  0  0  0  0  0  0  0  0  0  0
    2.8868   18.0520   -3.1255 H   0  0  0  0  0  0  0  0  0  0  0  0
    1.5657   19.9467   -2.4783 H   0  0  0  0  0  0  0  0  0  0  0  0
    2.1690   20.6020   -0.5040 H   0  0  0  0  0  0  0  0  0  0  0  0
   -0.6708   17.1370   -3.3124 H   0  0  0  0  0  0  0  0  0  0  0  0
   -0.3159   18.8345   -3.7808 H   0  0  0  0  0  0  0  0  0  0  0  0
    0.9978   17.6094   -3.7808 H   0  0  0  0  0  0  0  0  0  0  0  0
   -0.7924   19.1465   -0.1860 H   0  0  0  0  0  0  0  0  0  0  0  0
   -0.6793   20.1746   -1.6547 H   0  0  0  0  0  0  0  0  0  0  0  0
   -1.7354   18.7215   -1.6547 H   0  0  0  0  0  0  0  0  0  0  0  0
    2.1016   14.8485    1.7138 H   0  0  0  0  0  0  0  0  0  0  0  0
    3.7204   14.6238    0.9683 H   0  0  0  0  0  0  0  0  0  0  0  0
    2.9490   16.2460    0.9683 H   0  0  0  0  0  0  0  0  0  0  0  0
    3.8124   14.5432   -1.7708 H   0  0  0  0  0  0  0  0  0  0  0  0
    3.5194   13.2449   -0.4816 H   0  0  0  0  0  0  0  0  0  0  0  0
    2.1306   13.5385   -3.1594 H   0  0  0  0  0  0  0  0  0  0  0  0
    3.2372   12.2233   -2.5996 H   0  0  0  0  0  0  0  0  0  0  0  0
    1.5359   11.7626    0.4307 H   0  0  0  0  0  0  0  0  0  0  0  0
    1.3690   10.2978   -0.5955 H   0  0  0  0  0  0  0  0  0  0  0  0
    2.9082   11.2238   -0.5955 H   0  0  0  0  0  0  0  0  0  0  0  0
  1  2  1  0
  2  3  1  0
  3  4  1  0
  4  5  1  0
  5  6  1  0
  6  7  1  0
  7  8  1  0
  7  9  1  0
  2 10  1  0
 10 11  1  0
 11 12  1  0
 12 13  1  0
 13 14  1  6
 13 15  1  0
 15 16  1  0
 16 17  1  0
 17 18  2  0
 18 19  1  0
 19 20  1  0
 20 21  1  0
 21 22  1  0
 22 23  1  0
 22 24  1  0
 24 25  1  0
 24 26  1  0
 19 27  1  0
 27 28  1  1
 27 29  1  0
 29 30  1  0
 30 31  1  0
 31 32  1  1
  7  5  1  0
 31 10  1  0
 31 13  1  0
 27 15  1  0
 24 18  1  0
  1 33  1  0
  1 34  1  0
  1 35  1  0
  2 36  1  6
  3 37  1  0
  3 38  1  0
  4 39  1  0
  4 40  1  0
  5 41  1  1
  8 42  1  0
  8 43  1  0
  8 44  1  0
  9 45  1  0
  9 46  1  0
  9 47  1  0
 10 48  1  6
 11 49  1  0
 11 50  1  0
 12 51  1  0
 12 52  1  0
 14 53  1  0
 14 54  1  0
 14 55  1  0
 15 56  1  1
 16 57  1  0
 16 58  1  0
 17 59  1  0
 19 60  1  6
 20 61  1  0
 20 62  1  0
 21 63  1  0
 21 64  1  0
 22 65  1  6
 23 66  1  0
 25 67  1  0
 25 68  1  0
 25 69  1  0
 26 70  1  0
 26 71  1  0
 26 72  1  0
 28 73  1  0
 28 74  1  0
 28 75  1  0
 29 76  1  0
 29 77  1  0
 30 78  1  0
 30 79  1  0
 32 80  1  0
 32 81  1  0
 32 82  1  0
M  END
>  <meeko>  (7) 
{"is_sidechain": [false], "intermolecular_energy": 2.731, "internal_energy": -0.839}

$$$$
EPH_relaxed_0001_pdb2pqr_Repair_71_r2_0001_out
     RDKit          3D

 82 86  0  0  0  0  0  0  0  0999 V2000
   -0.0790   10.5360   -3.9870 C   0  0  0  0  0  0  0  0  0  0  0  0
    1.1000   10.3710   -3.0230 C   0  0  2  0  0  0  0  0  0  0  0  0
    1.0390    9.0360   -2.2550 C   0  0  0  0  0  0  0  0  0  0  0  0
   -0.3800    8.6190   -1.8560 C   0  0  0  0  0  0  0  0  0  0  0  0
   -0.6810    8.9700   -0.4310 C   0  0  2  0  0  0  0  0  0  0  0  0
   -2.0740    8.9620   -0.0930 O   0  0  0  0  0  0  0  0  0  0  0  0
   -1.4110   10.2340   -0.0160 C   0  0  0  0  0  0  0  0  0  0  0  0
   -1.8850   11.2290   -1.0290 C   0  0  0  0  0  0  0  0  0  0  0  0
   -1.2330   10.7380    1.3820 C   0  0  0  0  0  0  0  0  0  0  0  0
    1.1350   11.5360   -2.0410 C   0  0  1  0  0  0  0  0  0  0  0  0
    2.1820   11.3350   -0.9130 C   0  0  0  0  0  0  0  0  0  0  0  0
    2.7580   12.7350   -0.5820 C   0  0  0  0  0  0  0  0  0  0  0  0
    1.8000   13.7270   -1.2830 C   0  0  1  0  0  0  0  0  0  0  0  0
    0.5820   13.8600   -0.3160 C   0  0  0  0  0  0  0  0  0  0  0  0
    2.3990   15.1230   -1.6520 C   0  0  2  0  0  0  0  0  0  0  0  0
    2.8650   15.9700   -0.4550 C   0  0  0  0  0  0  0  0  0  0  0  0
    1.8310   16.8800    0.1220 C   0  0  0  0  0  0  0  0  0  0  0  0
    0.6730   17.2240   -0.4700 C   0  0  0  0  0  0  0  0  0  0  0  0
    0.3490   16.7600   -1.8960 C   0  0  1  0  0  0  0  0  0  0  0  0
   -0.1860   17.9590   -2.7220 C   0  0  0  0  0  0  0  0  0  0  0  0
   -1.3690   18.6500   -2.0510 C   0  0  0  0  0  0  0  0  0  0  0  0
   -0.9910   19.1480   -0.6590 C   0  0  2  0  0  0  0  0  0  0  0  0
   -0.0230   20.1940   -0.7900 O   0  0  0  0  0  0  0  0  0  0  0  0
   -0.4290   18.0290    0.2610 C   0  0  0  0  0  0  0  0  0  0  0  0
   -1.5680   17.0530    0.6480 C   0  0  0  0  0  0  0  0  0  0  0  0
    0.0440   18.6900    1.5840 C   0  0  0  0  0  0  0  0  0  0  0  0
    1.5060   15.9690   -2.6470 C   0  0  1  0  0  0  0  0  0  0  0  0
    2.4620   16.9740   -3.3590 C   0  0  0  0  0  0  0  0  0  0  0  0
    0.8700   15.0820   -3.7820 C   0  0  0  0  0  0  0  0  0  0  0  0
    0.4060   13.6690   -3.3810 C   0  0  0  0  0  0  0  0  0  0  0  0
    1.5020   12.9310   -2.6060 C   0  0  2  0  0  0  0  0  0  0  0  0
    2.7320   12.7630   -3.5610 C   0  0  0  0  0  0  0  0  0  0  0  0
   -1.0076   10.6660   -3.4118 H   0  0  0  0  0  0  0  0  0  0  0  0
    0.0864   11.4197   -4.6207 H   0  0  0  0  0  0  0  0  0  0  0  0
   -0.1625    9.6408   -4.6207 H   0  0  0  0  0  0  0  0  0  0  0  0
    2.0211   10.3640   -3.6243 H   0  0  0  0  0  0  0  0  0  0  0  0
    1.4658    8.2484   -2.8934 H   0  0  0  0  0  0  0  0  0  0  0  0
    1.6070    9.1751   -1.3233 H   0  0  0  0  0  0  0  0  0  0  0  0
   -1.0998    9.1336   -2.5095 H   0  0  0  0  0  0  0  0  0  0  0  0
   -0.4596    7.5272   -1.9643 H   0  0  0  0  0  0  0  0  0  0  0  0
    0.2661    8.5213   -0.0967 H   0  0  0  0  0  0  0  0  0  0  0  0
   -2.3029   12.1063   -0.5136 H   0  0  0  0  0  0  0  0  0  0  0  0
   -1.0393   11.5422   -1.6589 H   0  0  0  0  0  0  0  0  0  0  0  0
   -2.6610   10.7697   -1.6589 H   0  0  0  0  0  0  0  0  0  0  0  0
   -1.5120    9.9481    2.0949 H   0  0  0  0  0  0  0  0  0  0  0  0
   -0.1812   11.0191    1.5393 H   0  0  0  0  0  0  0  0  0  0  0  0
   -1.8750   11.6173    1.5393 H   0  0  0  0  0  0  0  0  0  0  0  0
    0.0867   11.5282   -1.7079 H   0  0  0  0  0  0  0  0  0  0  0  0
    1.7014   10.9031   -0.0228 H   0  0  0  0  0  0  0  0  0  0  0  0
    2.9781   10.6460   -1.2316 H   0  0  0  0  0  0  0  0  0  0  0  0
    2.7656   12.9047    0.5048 H   0  0  0  0  0  0  0  0  0  0  0  0
    3.7981   12.8490   -0.9215 H   0  0  0  0  0  0  0  0  0  0  0  0
    0.9346   13.8215    0.7252 H   0  0  0  0  0  0  0  0  0  0  0  0
    0.0740   14.8190   -0.4959 H   0  0  0  0  0  0  0  0  0  0  0  0
   -0.1210   13.0333   -0.4959 H   0  0  0  0  0  0  0  0  0  0  0  0
    3.3139   14.8503   -2.1985 H   0  0  0  0  0  0  0  0  0  0  0  0
    3.1956   15.2841    0.3389 H   0  0  0  0  0  0  0  0  0  0  0  0
    3.6659   16.6210   -0.8355 H   0  0  0  0  0  0  0  0  0  0  0  0
    2.0335   17.3054    1.1160 H   0  0  0  0  0  0  0  0  0  0  0  0
   -0.4361   15.9960   -1.7964 H   0  0  0  0  0  0  0  0  0  0  0  0
    0.6254   18.6911   -2.8471 H   0  0  0  0  0  0  0  0  0  0  0  0
   -0.5324   17.5692   -3.6906 H   0  0  0  0  0  0  0  0  0  0  0  0
   -1.6827   19.5058   -2.6667 H   0  0  0  0  0  0  0  0  0  0  0  0
   -2.1904   17.9249   -1.9537 H   0  0  0  0  0  0  0  0  0  0  0  0
   -1.9106   19.5153   -0.1800 H   0  0  0  0  0  0  0  0  0  0  0  0
    0.5150   20.0000   -1.5760 H   0  0  0  0  0  0  0  0  0  0  0  0
   -1.6409   16.9906    1.7438 H   0  0  0  0  0  0  0  0  0  0  0  0
   -2.5204   17.4197    0.2375 H   0  0  0  0  0  0  0  0  0  0  0  0
   -1.3516   16.0557    0.2375 H   0  0  0  0  0  0  0  0  0  0  0  0
   -0.3585   18.1275    2.4393 H   0  0  0  0  0  0  0  0  0  0  0  0
    1.1432   18.6827    1.6250 H   0  0  0  0  0  0  0  0  0  0  0  0
   -0.3176   19.7281    1.6250 H   0  0  0  0  0  0  0  0  0  0  0  0
    3.0132   17.5535   -2.6038 H   0  0  0  0  0  0  0  0  0  0  0  0
    3.1744   16.4198   -3.9878 H   0  0  0  0  0  0  0  0  0  0  0  0
    1.8729   17.6578   -3.9878 H   0  0  0  0  0  0  0  0  0  0  0  0
   -0.0050   15.6208   -4.1745 H   0  0  0  0  0  0  0  0  0  0  0  0
    1.6786   14.9235   -4.5107 H   0  0  0  0  0  0  0  0  0  0  0  0
   -0.4897   13.7506   -2.7477 H   0  0  0  0  0  0  0  0  0  0  0  0
    0.1805   13.1012   -4.2958 H   0  0  0  0  0  0  0  0  0  0  0  0
    3.6465   12.6381   -2.9626 H   0  0  0  0  0  0  0  0  0  0  0  0
    2.5851   11.8766   -4.1956 H   0  0  0  0  0  0  0  0  0  0  0  0
    2.8282   13.6563   -4.1956 H   0  0  0  0  0  0  0  0  0  0  0  0
  1  2  1  0
  2  3  1  0
  3  4  1  0
  4  5  1  0
  5  6  1  0
  6  7  1  0
  7  8  1  0
  7  9  1  0
  2 10  1  0
 10 11  1  0
 11 12  1  0
 12 13  1  0
 13 14  1  1
 13 15  1  0
 15 16  1  0
 16 17  1  0
 17 18  2  0
 18 19  1  0
 19 20  1  0
 20 21  1  0
 21 22  1  0
 22 23  1  0
 22 24  1  0
 24 25  1  0
 24 26  1  0
 19 27  1  0
 27 28  1  6
 27 29  1  0
 29 30  1  0
 30 31  1  0
 31 32  1  6
  7  5  1  0
 31 10  1  0
 31 13  1  0
 27 15  1  0
 24 18  1  0
  1 33  1  0
  1 34  1  0
  1 35  1  0
  2 36  1  6
  3 37  1  0
  3 38  1  0
  4 39  1  0
  4 40  1  0
  5 41  1  1
  8 42  1  0
  8 43  1  0
  8 44  1  0
  9 45  1  0
  9 46  1  0
  9 47  1  0
 10 48  1  1
 11 49  1  0
 11 50  1  0
 12 51  1  0
 12 52  1  0
 14 53  1  0
 14 54  1  0
 14 55  1  0
 15 56  1  6
 16 57  1  0
 16 58  1  0
 17 59  1  0
 19 60  1  1
 20 61  1  0
 20 62  1  0
 21 63  1  0
 21 64  1  0
 22 65  1  1
 23 66  1  0
 25 67  1  0
 25 68  1  0
 25 69  1  0
 26 70  1  0
 26 71  1  0
 26 72  1  0
 28 73  1  0
 28 74  1  0
 28 75  1  0
 29 76  1  0
 29 77  1  0
 30 78  1  0
 30 79  1  0
 32 80  1  0
 32 81  1  0
 32 82  1  0
M  END
>  <meeko>  (8) 
{"is_sidechain": [false], "intermolecular_energy": 2.731, "internal_energy": -0.839}

$$$$
EPH_relaxed_0001_pdb2pqr_Repair_71_r2_0001_out
     RDKit          3D

 82 86  0  0  0  0  0  0  0  0999 V2000
    2.6640   19.3540   -0.9380 C   0  0  0  0  0  0  0  0  0  0  0  0
    2.4800   18.3650   -2.0930 C   0  0  2  0  0  0  0  0  0  0  0  0
    1.0640   18.4360   -2.6970 C   0  0  0  0  0  0  0  0  0  0  0  0
    0.2300   19.6090   -2.1760 C   0  0  0  0  0  0  0  0  0  0  0  0
   -1.0470   19.1440   -1.5430 C   0  0  2  0  0  0  0  0  0  0  0  0
   -1.9540   20.1940   -1.1820 O   0  0  0  0  0  0  0  0  0  0  0  0
   -1.4140   19.4220   -0.0970 C   0  0  0  0  0  0  0  0  0  0  0  0
   -0.5030   20.1930    0.8050 C   0  0  0  0  0  0  0  0  0  0  0  0
   -2.4190   18.5350    0.5690 C   0  0  0  0  0  0  0  0  0  0  0  0
    2.7720   16.9480   -1.6150 C   0  0  1  0  0  0  0  0  0  0  0  0
    3.5800   16.9180   -0.2900 C   0  0  0  0  0  0  0  0  0  0  0  0
    3.0790   15.6900    0.5120 C   0  0  0  0  0  0  0  0  0  0  0  0
    2.2500   14.8710   -0.5050 C   0  0  1  0  0  0  0  0  0  0  0  0
    3.3050   14.0640   -1.3250 C   0  0  0  0  0  0  0  0  0  0  0  0
    1.1470   13.9390    0.0930 C   0  0  2  0  0  0  0  0  0  0  0  0
    1.6670   12.8170    1.0090 C   0  0  0  0  0  0  0  0  0  0  0  0
    1.9870   11.5300    0.3240 C   0  0  0  0  0  0  0  0  0  0  0  0
    1.5970   11.1890   -0.9190 C   0  0  0  0  0  0  0  0  0  0  0  0
    0.6700   12.1010   -1.7330 C   0  0  1  0  0  0  0  0  0  0  0  0
   -0.4620   11.2530   -2.3700 C   0  0  0  0  0  0  0  0  0  0  0  0
    0.0740   10.0830   -3.1900 C   0  0  0  0  0  0  0  0  0  0  0  0
    0.9430    9.1680   -2.3320 C   0  0  2  0  0  0  0  0  0  0  0  0
    0.1170    8.5360   -1.3490 O   0  0  0  0  0  0  0  0  0  0  0  0
    2.1130    9.9140   -1.6310 C   0  0  0  0  0  0  0  0  0  0  0  0
    3.1660   10.3380   -2.6850 C   0  0  0  0  0  0  0  0  0  0  0  0
    2.8250    8.9070   -0.6880 C   0  0  0  0  0  0  0  0  0  0  0  0
    0.1190   13.3830   -0.9740 C   0  0  1  0  0  0  0  0  0  0  0  0
   -1.1820   13.0210   -0.1920 C   0  0  0  0  0  0  0  0  0  0  0  0
   -0.2900   14.4730   -2.0350 C   0  0  0  0  0  0  0  0  0  0  0  0
    0.8160   15.4400   -2.4970 C   0  0  0  0  0  0  0  0  0  0  0  0
    1.5580   16.0390   -1.2980 C   0  0  2  0  0  0  0  0  0  0  0  0
    0.5270   16.8760   -0.4670 C   0  0  0  0  0  0  0  0  0  0  0  0
    2.5650   18.8219    0.0196 H   0  0  0  0  0  0  0  0  0  0  0  0
    3.6626   19.8109   -1.0021 H   0  0  0  0  0  0  0  0  0  0  0  0
    1.8966   20.1395   -1.0021 H   0  0  0  0  0  0  0  0  0  0  0  0
    3.1910   18.6440   -2.8846 H   0  0  0  0  0  0  0  0  0  0  0  0
    1.1568   18.5339   -3.7887 H   0  0  0  0  0  0  0  0  0  0  0  0
    0.5419   17.5142   -2.4007 H   0  0  0  0  0  0  0  0  0  0  0  0
    0.8186   20.1602   -1.4278 H   0  0  0  0  0  0  0  0  0  0  0  0
   -0.0256   20.2537   -3.0298 H   0  0  0  0  0  0  0  0  0  0  0  0
   -1.0298   18.2169   -2.1348 H   0  0  0  0  0  0  0  0  0  0  0  0
   -0.7570   19.9780    1.8534 H   0  0  0  0  0  0  0  0  0  0  0  0
    0.5392   19.8984    0.6124 H   0  0  0  0  0  0  0  0  0  0  0  0
   -0.6213   21.2695    0.6124 H   0  0  0  0  0  0  0  0  0  0  0  0
   -2.3192   18.6231    1.6609 H   0  0  0  0  0  0  0  0  0  0  0  0
   -3.4325   18.8384    0.2678 H   0  0  0  0  0  0  0  0  0  0  0  0
   -2.2439   17.4916    0.2678 H   0  0  0  0  0  0  0  0  0  0  0  0
    3.3094   16.5650   -2.4951 H   0  0  0  0  0  0  0  0  0  0  0  0
    4.6544   16.8181   -0.5038 H   0  0  0  0  0  0  0  0  0  0  0  0
    3.4370   17.8474    0.2808 H   0  0  0  0  0  0  0  0  0  0  0  0
    3.9274   15.0988    0.8870 H   0  0  0  0  0  0  0  0  0  0  0  0
    2.4886   15.9803    1.3936 H   0  0  0  0  0  0  0  0  0  0  0  0
    3.9855   13.5434   -0.6351 H   0  0  0  0  0  0  0  0  0  0  0  0
    2.7908   13.3266   -1.9589 H   0  0  0  0  0  0  0  0  0  0  0  0
    3.8821   14.7533   -1.9589 H   0  0  0  0  0  0  0  0  0  0  0  0
    0.5887   14.6249    0.7471 H   0  0  0  0  0  0  0  0  0  0  0  0
    2.5828   13.1770    1.5007 H   0  0  0  0  0  0  0  0  0  0  0  0
    0.8490   12.5931    1.7095 H   0  0  0  0  0  0  0  0  0  0  0  0
    2.5918   10.7992    0.8809 H   0  0  0  0  0  0  0  0  0  0  0  0
    1.2946   12.5427   -2.5234 H   0  0  0  0  0  0  0  0  0  0  0  0
   -1.1008   10.8572   -1.5667 H   0  0  0  0  0  0  0  0  0  0  0  0
   -1.0264   11.9071   -3.0509 H   0  0  0  0  0  0  0  0  0  0  0  0
   -0.7728    9.5051   -3.5888 H   0  0  0  0  0  0  0  0  0  0  0  0
    0.6882   10.4819   -4.0108 H   0  0  0  0  0  0  0  0  0  0  0  0
    1.4016    8.4257   -3.0018 H   0  0  0  0  0  0  0  0  0  0  0  0
   -0.5770    8.0450   -1.8200 H   0  0  0  0  0  0  0  0  0  0  0  0
    4.0698   10.7019   -2.1745 H   0  0  0  0  0  0  0  0  0  0  0  0
    3.4234    9.4734   -3.3145 H   0  0  0  0  0  0  0  0  0  0  0  0
    2.7525   11.1397   -3.3145 H   0  0  0  0  0  0  0  0  0  0  0  0
    2.6295    9.1835    0.3586 H   0  0  0  0  0  0  0  0  0  0  0  0
    2.4416    7.8935   -0.8772 H   0  0  0  0  0  0  0  0  0  0  0  0
    3.9084    8.9305   -0.8772 H   0  0  0  0  0  0  0  0  0  0  0  0
   -0.9870   13.0753    0.8892 H   0  0  0  0  0  0  0  0  0  0  0  0
   -1.9788   13.7316   -0.4570 H   0  0  0  0  0  0  0  0  0  0  0  0
   -1.4973   12.0010   -0.4570 H   0  0  0  0  0  0  0  0  0  0  0  0
   -0.6656   13.9469   -2.9251 H   0  0  0  0  0  0  0  0  0  0  0  0
   -1.0325   15.1058   -1.5268 H   0  0  0  0  0  0  0  0  0  0  0  0
    1.5328   14.8923   -3.1265 H   0  0  0  0  0  0  0  0  0  0  0  0
    0.3506   16.2586   -3.0656 H   0  0  0  0  0  0  0  0  0  0  0  0
    0.7128   16.7252    0.6067 H   0  0  0  0  0  0  0  0  0  0  0  0
    0.6382   17.9426   -0.7121 H   0  0  0  0  0  0  0  0  0  0  0  0
   -0.4940   16.5480   -0.7121 H   0  0  0  0  0  0  0  0  0  0  0  0
  1  2  1  0
  2  3  1  0
  3  4  1  0
  4  5  1  0
  5  6  1  0
  6  7  1  0
  7  8  1  0
  7  9  1  0
  2 10  1  0
 10 11  1  0
 11 12  1  0
 12 13  1  0
 13 14  1  6
 13 15  1  0
 15 16  1  0
 16 17  1  0
 17 18  2  0
 18 19  1  0
 19 20  1  0
 20 21  1  0
 21 22  1  0
 22 23  1  0
 22 24  1  0
 24 25  1  0
 24 26  1  0
 19 27  1  0
 27 28  1  1
 27 29  1  0
 29 30  1  0
 30 31  1  0
 31 32  1  1
  7  5  1  0
 31 10  1  0
 31 13  1  0
 27 15  1  0
 24 18  1  0
  1 33  1  0
  1 34  1  0
  1 35  1  0
  2 36  1  6
  3 37  1  0
  3 38  1  0
  4 39  1  0
  4 40  1  0
  5 41  1  6
  8 42  1  0
  8 43  1  0
  8 44  1  0
  9 45  1  0
  9 46  1  0
  9 47  1  0
 10 48  1  6
 11 49  1  0
 11 50  1  0
 12 51  1  0
 12 52  1  0
 14 53  1  0
 14 54  1  0
 14 55  1  0
 15 56  1  1
 16 57  1  0
 16 58  1  0
 17 59  1  0
 19 60  1  6
 20 61  1  0
 20 62  1  0
 21 63  1  0
 21 64  1  0
 22 65  1  6
 23 66  1  0
 25 67  1  0
 25 68  1  0
 25 69  1  0
 26 70  1  0
 26 71  1  0
 26 72  1  0
 28 73  1  0
 28 74  1  0
 28 75  1  0
 29 76  1  0
 29 77  1  0
 30 78  1  0
 30 79  1  0
 32 80  1  0
 32 81  1  0
 32 82  1  0
M  END
>  <meeko>  (9) 
{"is_sidechain": [false], "intermolecular_energy": 2.731, "internal_energy": -0.839}

$$$$
EPH_relaxed_0001_pdb2pqr_Repair_71_r2_0001_out
     RDKit          3D

 82 86  0  0  0  0  0  0  0  0999 V2000
   -3.7260    7.1010   -3.3250 C   0  0  0  0  0  0  0  0  0  0  0  0
   -3.7720    7.2370   -1.8010 C   0  0  2  0  0  0  0  0  0  0  0  0
   -5.1990    7.0590   -1.2450 C   0  0  0  0  0  0  0  0  0  0  0  0
   -6.2960    7.2250   -2.3000 C   0  0  0  0  0  0  0  0  0  0  0  0
   -7.6420    7.4310   -1.6730 C   0  0  2  0  0  0  0  0  0  0  0  0
   -8.2170    6.2550   -1.0890 O   0  0  0  0  0  0  0  0  0  0  0  0
   -8.9190    6.8130   -2.2110 C   0  0  0  0  0  0  0  0  0  0  0  0
   -8.9120    5.9420   -3.4280 C   0  0  0  0  0  0  0  0  0  0  0  0
  -10.2270    7.4460   -1.8500 C   0  0  0  0  0  0  0  0  0  0  0  0
   -3.2160    8.5930   -1.3830 C   0  0  1  0  0  0  0  0  0  0  0  0
   -3.8330    9.1090   -0.0550 C   0  0  0  0  0  0  0  0  0  0  0  0
   -2.7120    9.8780    0.6900 C   0  0  0  0  0  0  0  0  0  0  0  0
   -1.5990   10.0660   -0.3670 C   0  0  1  0  0  0  0  0  0  0  0  0
   -2.0530   11.2960   -1.2140 C   0  0  0  0  0  0  0  0  0  0  0  0
   -0.1470   10.2490    0.1840 C   0  0  2  0  0  0  0  0  0  0  0  0
    0.0680   11.5000    1.0540 C   0  0  0  0  0  0  0  0  0  0  0  0
    0.4950   12.7240    0.3150 C   0  0  0  0  0  0  0  0  0  0  0  0
    0.9720   12.7520   -0.9430 C   0  0  0  0  0  0  0  0  0  0  0  0
    1.2140   11.4530   -1.7230 C   0  0  1  0  0  0  0  0  0  0  0  0
    2.6080   11.5100   -2.4030 C   0  0  0  0  0  0  0  0  0  0  0  0
    2.7850   12.7530   -3.2700 C   0  0  0  0  0  0  0  0  0  0  0  0
    2.5940   14.0240   -2.4470 C   0  0  2  0  0  0  0  0  0  0  0  0
    3.6600   14.1230   -1.4970 O   0  0  0  0  0  0  0  0  0  0  0  0
    1.2280   14.0750   -1.7070 C   0  0  0  0  0  0  0  0  0  0  0  0
    0.0870   14.2720   -2.7350 C   0  0  0  0  0  0  0  0  0  0  0  0
    1.2220   15.3380   -0.8040 C   0  0  0  0  0  0  0  0  0  0  0  0
    0.9850   10.1060   -0.9130 C   0  0  1  0  0  0  0  0  0  0  0  0
    2.2900    9.7110   -0.1560 C   0  0  0  0  0  0  0  0  0  0  0  0
    0.6900    8.9390   -1.9280 C   0  0  0  0  0  0  0  0  0  0  0  0
   -0.7800    8.7330   -2.3420 C   0  0  0  0  0  0  0  0  0  0  0  0
   -1.6930    8.6850   -1.1130 C   0  0  2  0  0  0  0  0  0  0  0  0
   -1.2750    7.4450   -0.2530 C   0  0  0  0  0  0  0  0  0  0  0  0
   -3.3842    6.0903   -3.5928 H   0  0  0  0  0  0  0  0  0  0  0  0
   -4.7312    7.2697   -3.7387 H   0  0  0  0  0  0  0  0  0  0  0  0
   -3.0296    7.8452   -3.7387 H   0  0  0  0  0  0  0  0  0  0  0  0
   -3.1503    6.4339   -1.3784 H   0  0  0  0  0  0  0  0  0  0  0  0
   -5.2807    6.0499   -0.8149 H   0  0  0  0  0  0  0  0  0  0  0  0
   -5.3524    7.8488   -0.4949 H   0  0  0  0  0  0  0  0  0  0  0  0
   -6.0580    8.0965   -2.9276 H   0  0  0  0  0  0  0  0  0  0  0  0
   -6.3352    6.3048   -2.9015 H   0  0  0  0  0  0  0  0  0  0  0  0
   -7.3812    8.4633   -1.3967 H   0  0  0  0  0  0  0  0  0  0  0  0
   -8.9035    4.8853   -3.1226 H   0  0  0  0  0  0  0  0  0  0  0  0
   -9.8118    6.1430   -4.0280 H   0  0  0  0  0  0  0  0  0  0  0  0
   -8.0156    6.1575   -4.0280 H   0  0  0  0  0  0  0  0  0  0  0  0
  -10.3222    7.4921   -0.7551 H   0  0  0  0  0  0  0  0  0  0  0  0
  -10.2686    8.4639   -2.2648 H   0  0  0  0  0  0  0  0  0  0  0  0
  -11.0511    6.8470   -2.2648 H   0  0  0  0  0  0  0  0  0  0  0  0
   -3.4767    9.1813   -2.2752 H   0  0  0  0  0  0  0  0  0  0  0  0
   -4.6778    9.7812   -0.2659 H   0  0  0  0  0  0  0  0  0  0  0  0
   -4.2123    8.2754    0.5544 H   0  0  0  0  0  0  0  0  0  0  0  0
   -3.0792   10.8523    1.0448 H   0  0  0  0  0  0  0  0  0  0  0  0
   -2.3556    9.3377    1.5794 H   0  0  0  0  0  0  0  0  0  0  0  0
   -2.3545   12.1129   -0.5418 H   0  0  0  0  0  0  0  0  0  0  0  0
   -1.2196   11.6320   -1.8485 H   0  0  0  0  0  0  0  0  0  0  0  0
   -2.9048   11.0100   -1.8485 H   0  0  0  0  0  0  0  0  0  0  0  0
   -0.0427    9.3909    0.8643 H   0  0  0  0  0  0  0  0  0  0  0  0
   -0.8793   11.7250    1.5659 H   0  0  0  0  0  0  0  0  0  0  0  0
    0.8921   11.2556    1.7404 H   0  0  0  0  0  0  0  0  0  0  0  0
    0.4129   13.6852    0.8435 H   0  0  0  0  0  0  0  0  0  0  0  0
    0.4263   11.4064   -2.4894 H   0  0  0  0  0  0  0  0  0  0  0  0
    3.3819   11.5120   -1.6213 H   0  0  0  0  0  0  0  0  0  0  0  0
    2.6966   10.6305   -3.0577 H   0  0  0  0  0  0  0  0  0  0  0  0
    3.7977   12.7511   -3.6995 H   0  0  0  0  0  0  0  0  0  0  0  0
    2.0285   12.7348   -4.0683 H   0  0  0  0  0  0  0  0  0  0  0  0
    2.6043   14.8738   -3.1453 H   0  0  0  0  0  0  0  0  0  0  0  0
    3.2850   13.9560   -0.6160 H   0  0  0  0  0  0  0  0  0  0  0  0
   -0.8617   14.4358   -2.2029 H   0  0  0  0  0  0  0  0  0  0  0  0
    0.3089   15.1451   -3.3662 H   0  0  0  0  0  0  0  0  0  0  0  0
    0.0032   13.3750   -3.3662 H   0  0  0  0  0  0  0  0  0  0  0  0
    1.2234   15.0331    0.2529 H   0  0  0  0  0  0  0  0  0  0  0  0
    2.1173   15.9421   -1.0126 H   0  0  0  0  0  0  0  0  0  0  0  0
    0.3210   15.9336   -1.0126 H   0  0  0  0  0  0  0  0  0  0  0  0
    2.1150    9.7640    0.9287 H   0  0  0  0  0  0  0  0  0  0  0  0
    2.5775    8.6856   -0.4314 H   0  0  0  0  0  0  0  0  0  0  0  0
    3.0979   10.4048   -0.4314 H   0  0  0  0  0  0  0  0  0  0  0  0
    1.2682    9.1390   -2.8421 H   0  0  0  0  0  0  0  0  0  0  0  0
    0.9712    8.0177   -1.3968 H   0  0  0  0  0  0  0  0  0  0  0  0
   -1.0917    9.5656   -2.9898 H   0  0  0  0  0  0  0  0  0  0  0  0
   -0.8630    7.7764   -2.8787 H   0  0  0  0  0  0  0  0  0  0  0  0
   -1.3591    7.6944    0.8151 H   0  0  0  0  0  0  0  0  0  0  0  0
   -1.9372    6.5979   -0.4850 H   0  0  0  0  0  0  0  0  0  0  0  0
   -0.2351    7.1717   -0.4850 H   0  0  0  0  0  0  0  0  0  0  0  0
  1  2  1  0
  2  3  1  0
  3  4  1  0
  4  5  1  0
  5  6  1  0
  6  7  1  0
  7  8  1  0
  7  9  1  0
  2 10  1  0
 10 11  1  0
 11 12  1  0
 12 13  1  0
 13 14  1  6
 13 15  1  0
 15 16  1  0
 16 17  1  0
 17 18  2  0
 18 19  1  0
 19 20  1  0
 20 21  1  0
 21 22  1  0
 22 23  1  0
 22 24  1  0
 24 25  1  0
 24 26  1  0
 19 27  1  0
 27 28  1  1
 27 29  1  0
 29 30  1  0
 30 31  1  0
 31 32  1  1
  7  5  1  0
 31 10  1  0
 31 13  1  0
 27 15  1  0
 24 18  1  0
  1 33  1  0
  1 34  1  0
  1 35  1  0
  2 36  1  1
  3 37  1  0
  3 38  1  0
  4 39  1  0
  4 40  1  0
  5 41  1  1
  8 42  1  0
  8 43  1  0
  8 44  1  0
  9 45  1  0
  9 46  1  0
  9 47  1  0
 10 48  1  6
 11 49  1  0
 11 50  1  0
 12 51  1  0
 12 52  1  0
 14 53  1  0
 14 54  1  0
 14 55  1  0
 15 56  1  1
 16 57  1  0
 16 58  1  0
 17 59  1  0
 19 60  1  6
 20 61  1  0
 20 62  1  0
 21 63  1  0
 21 64  1  0
 22 65  1  6
 23 66  1  0
 25 67  1  0
 25 68  1  0
 25 69  1  0
 26 70  1  0
 26 71  1  0
 26 72  1  0
 28 73  1  0
 28 74  1  0
 28 75  1  0
 29 76  1  0
 29 77  1  0
 30 78  1  0
 30 79  1  0
 32 80  1  0
 32 81  1  0
 32 82  1  0
M  END
>  <meeko>  (10) 
{"is_sidechain": [false], "intermolecular_energy": 2.731, "internal_energy": -0.839}

$$$$
EPH_relaxed_0001_pdb2pqr_Repair_71_r2_0001_out
     RDKit          3D

 82 86  0  0  0  0  0  0  0  0999 V2000
   -0.8920   16.3760   -5.8560 C   0  0  0  0  0  0  0  0  0  0  0  0
    0.1990   15.6740   -6.6700 C   0  0  2  0  0  0  0  0  0  0  0  0
   -0.2100   15.4840   -8.1450 C   0  0  0  0  0  0  0  0  0  0  0  0
    0.4350   16.4950   -9.0970 C   0  0  0  0  0  0  0  0  0  0  0  0
    1.8430   16.1120   -9.4410 C   0  0  2  0  0  0  0  0  0  0  0  0
    2.3330   16.6740  -10.6660 O   0  0  0  0  0  0  0  0  0  0  0  0
    2.2060   15.2430  -10.6310 C   0  0  0  0  0  0  0  0  0  0  0  0
    1.1570   14.7030  -11.5520 C   0  0  0  0  0  0  0  0  0  0  0  0
    3.5180   14.5210  -10.6160 C   0  0  0  0  0  0  0  0  0  0  0  0
    0.5280   14.3250   -6.0430 C   0  0  1  0  0  0  0  0  0  0  0  0
    1.7700   13.6530   -6.6870 C   0  0  0  0  0  0  0  0  0  0  0  0
    2.5060   12.8940   -5.5530 C   0  0  0  0  0  0  0  0  0  0  0  0
    1.5000   12.8750   -4.3790 C   0  0  1  0  0  0  0  0  0  0  0  0
    0.5260   11.6990   -4.7050 C   0  0  0  0  0  0  0  0  0  0  0  0
    2.1120   12.7370   -2.9470 C   0  0  2  0  0  0  0  0  0  0  0  0
    2.8810   11.4300   -2.6890 C   0  0  0  0  0  0  0  0  0  0  0  0
    2.0640   10.3060   -2.1420 C   0  0  0  0  0  0  0  0  0  0  0  0
    0.8360   10.4220   -1.6030 C   0  0  0  0  0  0  0  0  0  0  0  0
    0.1860   11.7990   -1.4140 C   0  0  1  0  0  0  0  0  0  0  0  0
   -0.4200   11.8930    0.0120 C   0  0  0  0  0  0  0  0  0  0  0  0
   -1.3800   10.7480    0.3170 C   0  0  0  0  0  0  0  0  0  0  0  0
   -0.6810    9.3980    0.1740 C   0  0  2  0  0  0  0  0  0  0  0  0
    0.3140    9.2830    1.1970 O   0  0  0  0  0  0  0  0  0  0  0  0
   -0.0240    9.1930   -1.2190 C   0  0  0  0  0  0  0  0  0  0  0  0
   -1.1260    9.0150   -2.2930 C   0  0  0  0  0  0  0  0  0  0  0  0
    0.7650    7.8560   -1.1830 C   0  0  0  0  0  0  0  0  0  0  0  0
    1.0950   13.0510   -1.7750 C   0  0  1  0  0  0  0  0  0  0  0  0
    1.9530   13.4590   -0.5390 C   0  0  0  0  0  0  0  0  0  0  0  0
    0.1690   14.2820   -2.1000 C   0  0  0  0  0  0  0  0  0  0  0  0
   -0.3050   14.4300   -3.5580 C   0  0  0  0  0  0  0  0  0  0  0  0
    0.8710   14.3070   -4.5320 C   0  0  2  0  0  0  0  0  0  0  0  0
    1.8570   15.4900   -4.2430 C   0  0  0  0  0  0  0  0  0  0  0  0
   -0.6897   16.2458   -4.7826 H   0  0  0  0  0  0  0  0  0  0  0  0
   -0.8990   17.4485   -6.1004 H   0  0  0  0  0  0  0  0  0  0  0  0
   -1.8710   15.9379   -6.1004 H   0  0  0  0  0  0  0  0  0  0  0  0
    1.0905   16.3182   -6.6545 H   0  0  0  0  0  0  0  0  0  0  0  0
    0.0859   14.4725   -8.4600 H   0  0  0  0  0  0  0  0  0  0  0  0
   -1.2976   15.6390   -8.1998 H   0  0  0  0  0  0  0  0  0  0  0  0
   -0.1579   16.5420  -10.0223 H   0  0  0  0  0  0  0  0  0  0  0  0
    0.4586   17.4730   -8.5941 H   0  0  0  0  0  0  0  0  0  0  0  0
    2.1138   16.0555   -8.3763 H   0  0  0  0  0  0  0  0  0  0  0  0
    0.3326   14.2786  -10.9601 H   0  0  0  0  0  0  0  0  0  0  0  0
    0.7726   15.5153  -12.1864 H   0  0  0  0  0  0  0  0  0  0  0  0
    1.5948   13.9182  -12.1864 H   0  0  0  0  0  0  0  0  0  0  0  0
    3.8301   14.3492   -9.5753 H   0  0  0  0  0  0  0  0  0  0  0  0
    3.4108   13.5549  -11.1308 H   0  0  0  0  0  0  0  0  0  0  0  0
    4.2768   15.1286  -11.1308 H   0  0  0  0  0  0  0  0  0  0  0  0
   -0.4246   13.8037   -6.2188 H   0  0  0  0  0  0  0  0  0  0  0  0
    1.4557   12.9493   -7.4719 H   0  0  0  0  0  0  0  0  0  0  0  0
    2.4275   14.4020   -7.1526 H   0  0  0  0  0  0  0  0  0  0  0  0
    2.7538   11.8698   -5.8685 H   0  0  0  0  0  0  0  0  0  0  0  0
    3.4573   13.3737   -5.2793 H   0  0  0  0  0  0  0  0  0  0  0  0
    0.1592   11.2561   -3.7673 H   0  0  0  0  0  0  0  0  0  0  0  0
   -0.3254   12.0791   -5.2887 H   0  0  0  0  0  0  0  0  0  0  0  0
    1.0580   10.9333   -5.2887 H   0  0  0  0  0  0  0  0  0  0  0  0
    2.8688   13.5352   -2.9357 H   0  0  0  0  0  0  0  0  0  0  0  0
    3.3186   11.0993   -3.6425 H   0  0  0  0  0  0  0  0  0  0  0  0
    3.6298   11.6648   -1.9182 H   0  0  0  0  0  0  0  0  0  0  0  0
    2.5028    9.2981   -2.1830 H   0  0  0  0  0  0  0  0  0  0  0  0
   -0.6146   11.8636   -2.1655 H   0  0  0  0  0  0  0  0  0  0  0  0
    0.3995   11.8707    0.7454 H   0  0  0  0  0  0  0  0  0  0  0  0
   -0.9909   12.8314    0.0706 H   0  0  0  0  0  0  0  0  0  0  0  0
   -1.7513   10.8540    1.3470 H   0  0  0  0  0  0  0  0  0  0  0  0
   -2.2146   10.7891   -0.3984 H   0  0  0  0  0  0  0  0  0  0  0  0
   -1.4485    8.6167    0.2767 H   0  0  0  0  0  0  0  0  0  0  0  0
    0.2720   10.0890    1.7390 H   0  0  0  0  0  0  0  0  0  0  0  0
   -2.0967    8.8582   -1.7999 H   0  0  0  0  0  0  0  0  0  0  0  0
   -1.1751    9.9168   -2.9209 H   0  0  0  0  0  0  0  0  0  0  0  0
   -0.8887    8.1435   -2.9209 H   0  0  0  0  0  0  0  0  0  0  0  0
    0.9391    7.5610   -0.1377 H   0  0  0  0  0  0  0  0  0  0  0  0
    0.1839    7.0735   -1.6929 H   0  0  0  0  0  0  0  0  0  0  0  0
    1.7309    7.9864   -1.6929 H   0  0  0  0  0  0  0  0  0  0  0  0
    1.4122   13.2019    0.3837 H   0  0  0  0  0  0  0  0  0  0  0  0
    2.9118   12.9204   -0.5643 H   0  0  0  0  0  0  0  0  0  0  0  0
    2.1404   14.5426   -0.5643 H   0  0  0  0  0  0  0  0  0  0  0  0
   -0.7262   14.2014   -1.4658 H   0  0  0  0  0  0  0  0  0  0  0  0
    0.7917   15.1684   -1.9089 H   0  0  0  0  0  0  0  0  0  0  0  0
   -1.0396   13.6417   -3.7794 H   0  0  0  0  0  0  0  0  0  0  0  0
   -0.7590   15.4245   -3.6800 H   0  0  0  0  0  0  0  0  0  0  0  0
    1.9653   15.6199   -3.1561 H   0  0  0  0  0  0  0  0  0  0  0  0
    2.8389   15.2653   -4.6850 H   0  0  0  0  0  0  0  0  0  0  0  0
    1.4590   16.4153   -4.6850 H   0  0  0  0  0  0  0  0  0  0  0  0
  1  2  1  0
  2  3  1  0
  3  4  1  0
  4  5  1  0
  5  6  1  0
  6  7  1  0
  7  8  1  0
  7  9  1  0
  2 10  1  0
 10 11  1  0
 11 12  1  0
 12 13  1  0
 13 14  1  6
 13 15  1  0
 15 16  1  0
 16 17  1  0
 17 18  2  0
 18 19  1  0
 19 20  1  0
 20 21  1  0
 21 22  1  0
 22 23  1  0
 22 24  1  0
 24 25  1  0
 24 26  1  0
 19 27  1  0
 27 28  1  1
 27 29  1  0
 29 30  1  0
 30 31  1  0
 31 32  1  6
  7  5  1  0
 31 10  1  0
 31 13  1  0
 27 15  1  0
 24 18  1  0
  1 33  1  0
  1 34  1  0
  1 35  1  0
  2 36  1  6
  3 37  1  0
  3 38  1  0
  4 39  1  0
  4 40  1  0
  5 41  1  1
  8 42  1  0
  8 43  1  0
  8 44  1  0
  9 45  1  0
  9 46  1  0
  9 47  1  0
 10 48  1  1
 11 49  1  0
 11 50  1  0
 12 51  1  0
 12 52  1  0
 14 53  1  0
 14 54  1  0
 14 55  1  0
 15 56  1  6
 16 57  1  0
 16 58  1  0
 17 59  1  0
 19 60  1  6
 20 61  1  0
 20 62  1  0
 21 63  1  0
 21 64  1  0
 22 65  1  1
 23 66  1  0
 25 67  1  0
 25 68  1  0
 25 69  1  0
 26 70  1  0
 26 71  1  0
 26 72  1  0
 28 73  1  0
 28 74  1  0
 28 75  1  0
 29 76  1  0
 29 77  1  0
 30 78  1  0
 30 79  1  0
 32 80  1  0
 32 81  1  0
 32 82  1  0
M  END
>  <meeko>  (11) 
{"is_sidechain": [false], "intermolecular_energy": 2.731, "internal_energy": -0.839}

$$$$
EPH_relaxed_0001_pdb2pqr_Repair_71_r2_0001_out
     RDKit          3D

 82 86  0  0  0  0  0  0  0  0999 V2000
   -0.0140    9.4000   -2.5880 C   0  0  0  0  0  0  0  0  0  0  0  0
    1.0830   10.3910   -2.9860 C   0  0  2  0  0  0  0  0  0  0  0  0
    2.4720    9.7250   -3.0510 C   0  0  0  0  0  0  0  0  0  0  0  0
    3.4440   10.4210   -4.0090 C   0  0  0  0  0  0  0  0  0  0  0  0
    4.7960   10.6050   -3.3890 C   0  0  2  0  0  0  0  0  0  0  0  0
    5.3840   11.8940   -3.6090 O   0  0  0  0  0  0  0  0  0  0  0  0
    6.0700   10.7750   -4.1950 C   0  0  0  0  0  0  0  0  0  0  0  0
    6.0530   10.7680   -5.6920 C   0  0  0  0  0  0  0  0  0  0  0  0
    7.3780   10.4600   -3.5410 C   0  0  0  0  0  0  0  0  0  0  0  0
    1.1100   11.5580   -2.0060 C   0  0  1  0  0  0  0  0  0  0  0  0
    2.1760   11.3780   -0.8920 C   0  0  0  0  0  0  0  0  0  0  0  0
    2.7290   12.7900   -0.5700 C   0  0  0  0  0  0  0  0  0  0  0  0
    1.7430   13.7620   -1.2590 C   0  0  1  0  0  0  0  0  0  0  0  0
    0.5360   13.8730   -0.2750 C   0  0  0  0  0  0  0  0  0  0  0  0
    2.3100   15.1690   -1.6380 C   0  0  2  0  0  0  0  0  0  0  0  0
    2.7760   16.0260   -0.4480 C   0  0  0  0  0  0  0  0  0  0  0  0
    1.7330   16.9170    0.1430 C   0  0  0  0  0  0  0  0  0  0  0  0
    0.5600   17.2380   -0.4340 C   0  0  0  0  0  0  0  0  0  0  0  0
    0.2260   16.7660   -1.8550 C   0  0  1  0  0  0  0  0  0  0  0  0
   -0.3430   17.9540   -2.6750 C   0  0  0  0  0  0  0  0  0  0  0  0
   -1.5300   18.6230   -1.9880 C   0  0  0  0  0  0  0  0  0  0  0  0
   -1.1430   19.1300   -0.6010 C   0  0  2  0  0  0  0  0  0  0  0  0
   -0.1970   20.1940   -0.7470 O   0  0  0  0  0  0  0  0  0  0  0  0
   -0.5470   18.0230    0.3120 C   0  0  0  0  0  0  0  0  0  0  0  0
   -1.6610   17.0260    0.7160 C   0  0  0  0  0  0  0  0  0  0  0  0
   -0.0680   18.6950    1.6270 C   0  0  0  0  0  0  0  0  0  0  0  0
    1.3870   15.9970   -2.6210 C   0  0  1  0  0  0  0  0  0  0  0  0
    2.3140   17.0190   -3.3470 C   0  0  0  0  0  0  0  0  0  0  0  0
    0.7520   15.0970   -3.7460 C   0  0  0  0  0  0  0  0  0  0  0  0
    0.3210   13.6750   -3.3380 C   0  0  0  0  0  0  0  0  0  0  0  0
    1.4420   12.9600   -2.5770 C   0  0  2  0  0  0  0  0  0  0  0  0
    2.6620   12.8130   -3.5490 C   0  0  0  0  0  0  0  0  0  0  0  0
   -0.0767    9.3434   -1.4912 H   0  0  0  0  0  0  0  0  0  0  0  0
   -0.9788    9.7388   -2.9934 H   0  0  0  0  0  0  0  0  0  0  0  0
    0.2253    8.4058   -2.9934 H   0  0  0  0  0  0  0  0  0  0  0  0
    0.8461   10.7587   -3.9953 H   0  0  0  0  0  0  0  0  0  0  0  0
    2.9104    9.7367   -2.0422 H   0  0  0  0  0  0  0  0  0  0  0  0
    2.3216    8.7038   -3.4312 H   0  0  0  0  0  0  0  0  0  0  0  0
    3.5485    9.8096   -4.9174 H   0  0  0  0  0  0  0  0  0  0  0  0
    3.0378   11.4150   -4.2478 H   0  0  0  0  0  0  0  0  0  0  0  0
    4.5331    9.9333   -2.5585 H   0  0  0  0  0  0  0  0  0  0  0  0
    5.0899   10.3714   -6.0459 H   0  0  0  0  0  0  0  0  0  0  0  0
    6.1863   11.7942   -6.0650 H   0  0  0  0  0  0  0  0  0  0  0  0
    6.8703   10.1332   -6.0650 H   0  0  0  0  0  0  0  0  0  0  0  0
    7.2578   10.4889   -2.4480 H   0  0  0  0  0  0  0  0  0  0  0  0
    7.7087    9.4565   -3.8471 H   0  0  0  0  0  0  0  0  0  0  0  0
    8.1293   11.2029   -3.8471 H   0  0  0  0  0  0  0  0  0  0  0  0
    0.0665   11.5308   -1.6589 H   0  0  0  0  0  0  0  0  0  0  0  0
    1.7160   10.9377    0.0049 H   0  0  0  0  0  0  0  0  0  0  0  0
    2.9809   10.7040   -1.2206 H   0  0  0  0  0  0  0  0  0  0  0  0
    2.7476   12.9612    0.5164 H   0  0  0  0  0  0  0  0  0  0  0  0
    3.7620   12.9239   -0.9235 H   0  0  0  0  0  0  0  0  0  0  0  0
    0.9034   13.8392    0.7613 H   0  0  0  0  0  0  0  0  0  0  0  0
    0.0093   14.8234   -0.4465 H   0  0  0  0  0  0  0  0  0  0  0  0
   -0.1552   13.0346   -0.4465 H   0  0  0  0  0  0  0  0  0  0  0  0
    3.2219   14.9132   -2.1974 H   0  0  0  0  0  0  0  0  0  0  0  0
    3.1305   15.3472    0.3417 H   0  0  0  0  0  0  0  0  0  0  0  0
    3.5588   16.6919   -0.8403 H   0  0  0  0  0  0  0  0  0  0  0  0
    1.9411   17.3473    1.1337 H   0  0  0  0  0  0  0  0  0  0  0  0
   -0.5425   15.9869   -1.7437 H   0  0  0  0  0  0  0  0  0  0  0  0
    0.4525   18.7013   -2.8118 H   0  0  0  0  0  0  0  0  0  0  0  0
   -0.6949   17.5569   -3.6386 H   0  0  0  0  0  0  0  0  0  0  0  0
   -1.8685   19.4720   -2.6001 H   0  0  0  0  0  0  0  0  0  0  0  0
   -2.3357   17.8821   -1.8788 H   0  0  0  0  0  0  0  0  0  0  0  0
   -2.0626   19.4801   -0.1093 H   0  0  0  0  0  0  0  0  0  0  0  0
    0.0240   20.2640   -1.6910 H   0  0  0  0  0  0  0  0  0  0  0  0
   -1.7232   16.9704    1.8128 H   0  0  0  0  0  0  0  0  0  0  0  0
   -2.6245   17.3690    0.3111 H   0  0  0  0  0  0  0  0  0  0  0  0
   -1.4266   16.0305    0.3111 H   0  0  0  0  0  0  0  0  0  0  0  0
   -0.4647   18.1384    2.4888 H   0  0  0  0  0  0  0  0  0  0  0  0
    1.0314   18.6901    1.6619 H   0  0  0  0  0  0  0  0  0  0  0  0
   -0.4313   19.7327    1.6619 H   0  0  0  0  0  0  0  0  0  0  0  0
    2.8564   17.6170   -2.5999 H   0  0  0  0  0  0  0  0  0  0  0  0
    3.0350   16.4771   -3.9766 H   0  0  0  0  0  0  0  0  0  0  0  0
    1.7045   17.6839   -3.9766 H   0  0  0  0  0  0  0  0  0  0  0  0
   -0.1389   15.6185   -4.1260 H   0  0  0  0  0  0  0  0  0  0  0  0
    1.5531   14.9536   -4.4860 H   0  0  0  0  0  0  0  0  0  0  0  0
   -0.5677   13.7394   -2.6930 H   0  0  0  0  0  0  0  0  0  0  0  0
    0.0944   13.1019   -4.2492 H   0  0  0  0  0  0  0  0  0  0  0  0
    3.5863   12.7016   -2.9631 H   0  0  0  0  0  0  0  0  0  0  0  0
    2.5207   11.9254   -4.1832 H   0  0  0  0  0  0  0  0  0  0  0  0
    2.7356   13.7088   -4.1832 H   0  0  0  0  0  0  0  0  0  0  0  0
  1  2  1  0
  2  3  1  0
  3  4  1  0
  4  5  1  0
  5  6  1  0
  6  7  1  0
  7  8  1  0
  7  9  1  0
  2 10  1  0
 10 11  1  0
 11 12  1  0
 12 13  1  0
 13 14  1  1
 13 15  1  0
 15 16  1  0
 16 17  1  0
 17 18  2  0
 18 19  1  0
 19 20  1  0
 20 21  1  0
 21 22  1  0
 22 23  1  0
 22 24  1  0
 24 25  1  0
 24 26  1  0
 19 27  1  0
 27 28  1  6
 27 29  1  0
 29 30  1  0
 30 31  1  0
 31 32  1  6
  7  5  1  0
 31 10  1  0
 31 13  1  0
 27 15  1  0
 24 18  1  0
  1 33  1  0
  1 34  1  0
  1 35  1  0
  2 36  1  6
  3 37  1  0
  3 38  1  0
  4 39  1  0
  4 40  1  0
  5 41  1  1
  8 42  1  0
  8 43  1  0
  8 44  1  0
  9 45  1  0
  9 46  1  0
  9 47  1  0
 10 48  1  1
 11 49  1  0
 11 50  1  0
 12 51  1  0
 12 52  1  0
 14 53  1  0
 14 54  1  0
 14 55  1  0
 15 56  1  6
 16 57  1  0
 16 58  1  0
 17 59  1  0
 19 60  1  1
 20 61  1  0
 20 62  1  0
 21 63  1  0
 21 64  1  0
 22 65  1  1
 23 66  1  0
 25 67  1  0
 25 68  1  0
 25 69  1  0
 26 70  1  0
 26 71  1  0
 26 72  1  0
 28 73  1  0
 28 74  1  0
 28 75  1  0
 29 76  1  0
 29 77  1  0
 30 78  1  0
 30 79  1  0
 32 80  1  0
 32 81  1  0
 32 82  1  0
M  END
>  <meeko>  (12) 
{"is_sidechain": [false], "intermolecular_energy": 2.731, "internal_energy": -0.839}

$$$$
EPH_relaxed_0001_pdb2pqr_Repair_71_r2_0001_out
     RDKit          3D

 82 86  0  0  0  0  0  0  0  0999 V2000
   -2.0320    7.7680   -2.1250 C   0  0  0  0  0  0  0  0  0  0  0  0
   -2.2440    8.4660   -0.7790 C   0  0  2  0  0  0  0  0  0  0  0  0
   -3.7290    8.4920   -0.3650 C   0  0  0  0  0  0  0  0  0  0  0  0
   -4.6670    7.8630   -1.3990 C   0  0  0  0  0  0  0  0  0  0  0  0
   -5.8100    7.1460   -0.7460 C   0  0  2  0  0  0  0  0  0  0  0  0
   -6.3730    6.0830   -1.5260 O   0  0  0  0  0  0  0  0  0  0  0  0
   -7.2360    7.2010   -1.2620 C   0  0  0  0  0  0  0  0  0  0  0  0
   -7.5950    7.9940   -2.4790 C   0  0  0  0  0  0  0  0  0  0  0  0
   -8.3520    6.8910   -0.3130 C   0  0  0  0  0  0  0  0  0  0  0  0
   -1.6950    9.8870   -0.8390 C   0  0  1  0  0  0  0  0  0  0  0  0
   -1.2250   10.4050    0.5460 C   0  0  0  0  0  0  0  0  0  0  0  0
    0.0070   11.3110    0.2900 C   0  0  0  0  0  0  0  0  0  0  0  0
    0.0040   11.5510   -1.2370 C   0  0  1  0  0  0  0  0  0  0  0  0
   -1.0390   12.6910   -1.4610 C   0  0  0  0  0  0  0  0  0  0  0  0
    1.3840   11.8960   -1.8860 C   0  0  2  0  0  0  0  0  0  0  0  0
    2.0300   13.2010   -1.3900 C   0  0  0  0  0  0  0  0  0  0  0  0
    1.6750   14.4240   -2.1690 C   0  0  0  0  0  0  0  0  0  0  0  0
    1.1030   14.4370   -3.3880 C   0  0  0  0  0  0  0  0  0  0  0  0
    0.8430   13.1310   -4.1490 C   0  0  1  0  0  0  0  0  0  0  0  0
    1.3160   13.2860   -5.6190 C   0  0  0  0  0  0  0  0  0  0  0  0
    0.6950   14.4970   -6.3090 C   0  0  0  0  0  0  0  0  0  0  0  0
    1.0240   15.7820   -5.5540 C   0  0  2  0  0  0  0  0  0  0  0  0
    2.4310   16.0260   -5.6510 O   0  0  0  0  0  0  0  0  0  0  0  0
    0.6030   15.7400   -4.0590 C   0  0  0  0  0  0  0  0  0  0  0  0
   -0.9420   15.7800   -3.9520 C   0  0  0  0  0  0  0  0  0  0  0  0
    1.1180   17.0380   -3.3810 C   0  0  0  0  0  0  0  0  0  0  0  0
    1.3980   11.8080   -3.4660 C   0  0  1  0  0  0  0  0  0  0  0  0
    2.8810   11.5740   -3.8860 C   0  0  0  0  0  0  0  0  0  0  0  0
    0.5840   10.5720   -4.0030 C   0  0  0  0  0  0  0  0  0  0  0  0
   -0.7080   10.2090   -3.2470 C   0  0  0  0  0  0  0  0  0  0  0  0
   -0.4580   10.1340   -1.7380 C   0  0  2  0  0  0  0  0  0  0  0  0
    0.5710    8.9810   -1.4800 C   0  0  0  0  0  0  0  0  0  0  0  0
   -1.7162    6.7284   -1.9532 H   0  0  0  0  0  0  0  0  0  0  0  0
   -2.9731    7.7760   -2.6944 H   0  0  0  0  0  0  0  0  0  0  0  0
   -1.2543    8.2981   -2.6944 H   0  0  0  0  0  0  0  0  0  0  0  0
   -1.6997    7.8883   -0.0174 H   0  0  0  0  0  0  0  0  0  0  0  0
   -3.8355    7.9411    0.5811 H   0  0  0  0  0  0  0  0  0  0  0  0
   -4.0179    9.5491   -0.2697 H   0  0  0  0  0  0  0  0  0  0  0  0
   -5.0674    8.6568   -2.0468 H   0  0  0  0  0  0  0  0  0  0  0  0
   -4.0914    7.1304   -1.9837 H   0  0  0  0  0  0  0  0  0  0  0  0
   -5.3792    7.3175    0.2515 H   0  0  0  0  0  0  0  0  0  0  0  0
   -8.0309    8.9568   -2.1739 H   0  0  0  0  0  0  0  0  0  0  0  0
   -6.6908    8.1745   -3.0789 H   0  0  0  0  0  0  0  0  0  0  0  0
   -8.3272    7.4337   -3.0789 H   0  0  0  0  0  0  0  0  0  0  0  0
   -7.9920    6.9910    0.7216 H   0  0  0  0  0  0  0  0  0  0  0  0
   -9.1823    7.5925   -0.4817 H   0  0  0  0  0  0  0  0  0  0  0  0
   -8.7015    5.8618   -0.4817 H   0  0  0  0  0  0  0  0  0  0  0  0
   -2.5715   10.4057   -1.2547 H   0  0  0  0  0  0  0  0  0  0  0  0
   -2.0277   10.9838    1.0263 H   0  0  0  0  0  0  0  0  0  0  0  0
   -0.9689    9.5695    1.2141 H   0  0  0  0  0  0  0  0  0  0  0  0
   -0.0913   12.2627    0.8329 H   0  0  0  0  0  0  0  0  0  0  0  0
    0.9432   10.8501    0.6380 H   0  0  0  0  0  0  0  0  0  0  0  0
   -1.3844   13.0685   -0.4872 H   0  0  0  0  0  0  0  0  0  0  0  0
   -0.5711   13.5101   -2.0268 H   0  0  0  0  0  0  0  0  0  0  0  0
   -1.8964   12.2976   -2.0268 H   0  0  0  0  0  0  0  0  0  0  0  0
    2.0278   11.0845   -1.5159 H   0  0  0  0  0  0  0  0  0  0  0  0
    1.7182   13.3598   -0.3471 H   0  0  0  0  0  0  0  0  0  0  0  0
    3.1154   13.0681   -1.5097 H   0  0  0  0  0  0  0  0  0  0  0  0
    1.8998   15.3972   -1.7081 H   0  0  0  0  0  0  0  0  0  0  0  0
   -0.2454   12.9740   -4.1210 H   0  0  0  0  0  0  0  0  0  0  0  0
    2.4102   13.3981   -5.6273 H   0  0  0  0  0  0  0  0  0  0  0  0
    0.9967   12.3884   -6.1688 H   0  0  0  0  0  0  0  0  0  0  0  0
    1.0899   14.5698   -7.3331 H   0  0  0  0  0  0  0  0  0  0  0  0
   -0.3975   14.3696   -6.3267 H   0  0  0  0  0  0  0  0  0  0  0  0
    0.4464   16.5945   -6.0190 H   0  0  0  0  0  0  0  0  0  0  0  0
    2.5510   16.9160   -6.0240 H   0  0  0  0  0  0  0  0  0  0  0  0
   -1.2361   15.7876   -2.8921 H   0  0  0  0  0  0  0  0  0  0  0  0
   -1.3202   16.6882   -4.4440 H   0  0  0  0  0  0  0  0  0  0  0  0
   -1.3667   14.8925   -4.4440 H   0  0  0  0  0  0  0  0  0  0  0  0
    1.0726   16.9236   -2.2879 H   0  0  0  0  0  0  0  0  0  0  0  0
    2.1580   17.2239   -3.6873 H   0  0  0  0  0  0  0  0  0  0  0  0
    0.4883   17.8863   -3.6873 H   0  0  0  0  0  0  0  0  0  0  0  0
    3.5058   11.4754   -2.9860 H   0  0  0  0  0  0  0  0  0  0  0  0
    2.9518   10.6536   -4.4842 H   0  0  0  0  0  0  0  0  0  0  0  0
    3.2318   12.4279   -4.4842 H   0  0  0  0  0  0  0  0  0  0  0  0
    0.3104   10.7823   -5.0475 H   0  0  0  0  0  0  0  0  0  0  0  0
    1.2501    9.7074   -3.8657 H   0  0  0  0  0  0  0  0  0  0  0  0
   -1.4700   10.9765   -3.4477 H   0  0  0  0  0  0  0  0  0  0  0  0
   -1.0525    9.2239   -3.5946 H   0  0  0  0  0  0  0  0  0  0  0  0
    0.6981    8.8386   -0.3967 H   0  0  0  0  0  0  0  0  0  0  0  0
    0.1986    8.0494   -1.9311 H   0  0  0  0  0  0  0  0  0  0  0  0
    1.5388    9.2455   -1.9311 H   0  0  0  0  0  0  0  0  0  0  0  0
  1  2  1  0
  2  3  1  0
  3  4  1  0
  4  5  1  0
  5  6  1  0
  6  7  1  0
  7  8  1  0
  7  9  1  0
  2 10  1  0
 10 11  1  0
 11 12  1  0
 12 13  1  0
 13 14  1  1
 13 15  1  0
 15 16  1  0
 16 17  1  0
 17 18  2  0
 18 19  1  0
 19 20  1  0
 20 21  1  0
 21 22  1  0
 22 23  1  0
 22 24  1  0
 24 25  1  0
 24 26  1  0
 19 27  1  0
 27 28  1  6
 27 29  1  0
 29 30  1  0
 30 31  1  0
 31 32  1  6
  7  5  1  0
 31 10  1  0
 31 13  1  0
 27 15  1  0
 24 18  1  0
  1 33  1  0
  1 34  1  0
  1 35  1  0
  2 36  1  1
  3 37  1  0
  3 38  1  0
  4 39  1  0
  4 40  1  0
  5 41  1  1
  8 42  1  0
  8 43  1  0
  8 44  1  0
  9 45  1  0
  9 46  1  0
  9 47  1  0
 10 48  1  6
 11 49  1  0
 11 50  1  0
 12 51  1  0
 12 52  1  0
 14 53  1  0
 14 54  1  0
 14 55  1  0
 15 56  1  1
 16 57  1  0
 16 58  1  0
 17 59  1  0
 19 60  1  6
 20 61  1  0
 20 62  1  0
 21 63  1  0
 21 64  1  0
 22 65  1  6
 23 66  1  0
 25 67  1  0
 25 68  1  0
 25 69  1  0
 26 70  1  0
 26 71  1  0
 26 72  1  0
 28 73  1  0
 28 74  1  0
 28 75  1  0
 29 76  1  0
 29 77  1  0
 30 78  1  0
 30 79  1  0
 32 80  1  0
 32 81  1  0
 32 82  1  0
M  END
>  <meeko>  (13) 
{"is_sidechain": [false], "intermolecular_energy": 2.731, "internal_energy": -0.839}

$$$$
EPH_relaxed_0001_pdb2pqr_Repair_71_r2_0001_out
     RDKit          3D

 82 86  0  0  0  0  0  0  0  0999 V2000
    2.8400   11.3510   -5.3650 C   0  0  0  0  0  0  0  0  0  0  0  0
    1.8360   11.0450   -4.2500 C   0  0  2  0  0  0  0  0  0  0  0  0
    0.7160   10.0950   -4.7230 C   0  0  0  0  0  0  0  0  0  0  0  0
   -0.3600    9.8380   -3.6640 C   0  0  0  0  0  0  0  0  0  0  0  0
    0.1680    9.0160   -2.5270 C   0  0  2  0  0  0  0  0  0  0  0  0
   -0.6890    7.9430   -2.1150 O   0  0  0  0  0  0  0  0  0  0  0  0
   -0.4710    8.9850   -1.1510 C   0  0  0  0  0  0  0  0  0  0  0  0
   -1.6920    9.7910   -0.8390 C   0  0  0  0  0  0  0  0  0  0  0  0
    0.3650    8.5600    0.0170 C   0  0  0  0  0  0  0  0  0  0  0  0
    1.2320   12.3410   -3.7240 C   0  0  1  0  0  0  0  0  0  0  0  0
   -0.3080   12.2550   -3.5470 C   0  0  0  0  0  0  0  0  0  0  0  0
   -0.6640   13.1100   -2.3040 C   0  0  0  0  0  0  0  0  0  0  0  0
    0.6200   13.9200   -2.0070 C   0  0  1  0  0  0  0  0  0  0  0  0
    0.5750   15.1210   -3.0020 C   0  0  0  0  0  0  0  0  0  0  0  0
    0.8080   14.4000   -0.5310 C   0  0  2  0  0  0  0  0  0  0  0  0
   -0.2700   15.3700   -0.0180 C   0  0  0  0  0  0  0  0  0  0  0  0
    0.0220   16.8190   -0.2300 C   0  0  0  0  0  0  0  0  0  0  0  0
    1.2240   17.3350   -0.5480 C   0  0  0  0  0  0  0  0  0  0  0  0
    2.4690   16.4430   -0.6300 C   0  0  1  0  0  0  0  0  0  0  0  0
    3.6430   17.1210    0.1230 C   0  0  0  0  0  0  0  0  0  0  0  0
    3.9100   18.5410   -0.3670 C   0  0  0  0  0  0  0  0  0  0  0  0
    2.6660   19.4130   -0.2150 C   0  0  2  0  0  0  0  0  0  0  0  0
    2.3920   19.5860    1.1790 O   0  0  0  0  0  0  0  0  0  0  0  0
    1.4150   18.8250   -0.9250 C   0  0  0  0  0  0  0  0  0  0  0  0
    1.5960   18.9180   -2.4600 C   0  0  0  0  0  0  0  0  0  0  0  0
    0.2000   19.7270   -0.5760 C   0  0  0  0  0  0  0  0  0  0  0  0
    2.2630   14.9260   -0.2010 C   0  0  1  0  0  0  0  0  0  0  0  0
    2.4520   14.7790    1.3400 C   0  0  0  0  0  0  0  0  0  0  0  0
    3.3840   14.0460   -0.8710 C   0  0  0  0  0  0  0  0  0  0  0  0
    3.0890   13.5020   -2.2820 C   0  0  0  0  0  0  0  0  0  0  0  0
    1.7110   12.8370   -2.3370 C   0  0  2  0  0  0  0  0  0  0  0  0
    1.7330   11.6110   -1.3620 C   0  0  0  0  0  0  0  0  0  0  0  0
    3.8027   11.6444   -4.9211 H   0  0  0  0  0  0  0  0  0  0  0  0
    2.9811   10.4551   -5.9874 H   0  0  0  0  0  0  0  0  0  0  0  0
    2.4574   12.1733   -5.9874 H   0  0  0  0  0  0  0  0  0  0  0  0
    2.3826   10.5358   -3.4425 H   0  0  0  0  0  0  0  0  0  0  0  0
    0.2345   10.5385   -5.6070 H   0  0  0  0  0  0  0  0  0  0  0  0
    1.1877    9.1262   -4.9443 H   0  0  0  0  0  0  0  0  0  0  0  0
   -0.7129   10.8035   -3.2724 H   0  0  0  0  0  0  0  0  0  0  0  0
   -1.1820    9.2812   -4.1376 H   0  0  0  0  0  0  0  0  0  0  0  0
    1.2042    9.1827   -2.8563 H   0  0  0  0  0  0  0  0  0  0  0  0
   -1.8108    9.8694    0.2518 H   0  0  0  0  0  0  0  0  0  0  0  0
   -1.5867   10.7977   -1.2697 H   0  0  0  0  0  0  0  0  0  0  0  0
   -2.5763    9.2986   -1.2697 H   0  0  0  0  0  0  0  0  0  0  0  0
   -0.1512    8.8224    0.9522 H   0  0  0  0  0  0  0  0  0  0  0  0
    0.5231    7.4721   -0.0217 H   0  0  0  0  0  0  0  0  0  0  0  0
    1.3371    9.0734   -0.0217 H   0  0  0  0  0  0  0  0  0  0  0  0
    1.5703   13.0334   -4.5090 H   0  0  0  0  0  0  0  0  0  0  0  0
   -0.8145   12.6534   -4.4385 H   0  0  0  0  0  0  0  0  0  0  0  0
   -0.6327   11.2123   -3.4152 H   0  0  0  0  0  0  0  0  0  0  0  0
   -1.5057   13.7832   -2.5238 H   0  0  0  0  0  0  0  0  0  0  0  0
   -0.9752   12.4928   -1.4483 H   0  0  0  0  0  0  0  0  0  0  0  0
    0.5397   16.0641   -2.4370 H   0  0  0  0  0  0  0  0  0  0  0  0
    1.4743   15.1064   -3.6353 H   0  0  0  0  0  0  0  0  0  0  0  0
   -0.3207   15.0392   -3.6353 H   0  0  0  0  0  0  0  0  0  0  0  0
    0.6681   13.4697    0.0390 H   0  0  0  0  0  0  0  0  0  0  0  0
   -1.2125   15.1343   -0.5339 H   0  0  0  0  0  0  0  0  0  0  0  0
   -0.3156   15.2253    1.0715 H   0  0  0  0  0  0  0  0  0  0  0  0
   -0.8151   17.5237   -0.1169 H   0  0  0  0  0  0  0  0  0  0  0  0
    2.7126   16.3576   -1.6993 H   0  0  0  0  0  0  0  0  0  0  0  0
    3.3998   17.1578    1.1952 H   0  0  0  0  0  0  0  0  0  0  0  0
    4.5489   16.5265   -0.0665 H   0  0  0  0  0  0  0  0  0  0  0  0
    4.7298   18.9772    0.2226 H   0  0  0  0  0  0  0  0  0  0  0  0
    4.1822   18.4998   -1.4320 H   0  0  0  0  0  0  0  0  0  0  0  0
    2.8774   20.3770   -0.7008 H   0  0  0  0  0  0  0  0  0  0  0  0
    2.1040   20.5050    1.3100 H   0  0  0  0  0  0  0  0  0  0  0  0
    2.5533   19.4099   -2.6872 H   0  0  0  0  0  0  0  0  0  0  0  0
    1.5921   17.9062   -2.8916 H   0  0  0  0  0  0  0  0  0  0  0  0
    0.7712   19.5040   -2.8916 H   0  0  0  0  0  0  0  0  0  0  0  0
    0.1003   19.8010    0.5170 H   0  0  0  0  0  0  0  0  0  0  0  0
    0.3549   20.7306   -0.9989 H   0  0  0  0  0  0  0  0  0  0  0  0
   -0.7158   19.2883   -0.9989 H   0  0  0  0  0  0  0  0  0  0  0  0
    1.6875   15.3736    1.8615 H   0  0  0  0  0  0  0  0  0  0  0  0
    2.3495   13.7209    1.6227 H   0  0  0  0  0  0  0  0  0  0  0  0
    3.4523   15.1388    1.6227 H   0  0  0  0  0  0  0  0  0  0  0  0
    4.2950   14.6592   -0.9344 H   0  0  0  0  0  0  0  0  0  0  0  0
    3.4716   13.1553   -0.2314 H   0  0  0  0  0  0  0  0  0  0  0  0
    3.1158   14.3340   -3.0011 H   0  0  0  0  0  0  0  0  0  0  0  0
    3.8512   12.7500   -2.5339 H   0  0  0  0  0  0  0  0  0  0  0  0
    1.7266   11.9694   -0.3220 H   0  0  0  0  0  0  0  0  0  0  0  0
    0.8459   10.9853   -1.5397 H   0  0  0  0  0  0  0  0  0  0  0  0
    2.6419   11.0175   -1.5397 H   0  0  0  0  0  0  0  0  0  0  0  0
  1  2  1  0
  2  3  1  0
  3  4  1  0
  4  5  1  0
  5  6  1  0
  6  7  1  0
  7  8  1  0
  7  9  1  0
  2 10  1  0
 10 11  1  0
 11 12  1  0
 12 13  1  0
 13 14  1  6
 13 15  1  0
 15 16  1  0
 16 17  1  0
 17 18  2  0
 18 19  1  0
 19 20  1  0
 20 21  1  0
 21 22  1  0
 22 23  1  0
 22 24  1  0
 24 25  1  0
 24 26  1  0
 19 27  1  0
 27 28  1  1
 27 29  1  0
 29 30  1  0
 30 31  1  0
 31 32  1  1
  7  5  1  0
 31 10  1  0
 31 13  1  0
 27 15  1  0
 24 18  1  0
  1 33  1  0
  1 34  1  0
  1 35  1  0
  2 36  1  1
  3 37  1  0
  3 38  1  0
  4 39  1  0
  4 40  1  0
  5 41  1  1
  8 42  1  0
  8 43  1  0
  8 44  1  0
  9 45  1  0
  9 46  1  0
  9 47  1  0
 10 48  1  6
 11 49  1  0
 11 50  1  0
 12 51  1  0
 12 52  1  0
 14 53  1  0
 14 54  1  0
 14 55  1  0
 15 56  1  1
 16 57  1  0
 16 58  1  0
 17 59  1  0
 19 60  1  6
 20 61  1  0
 20 62  1  0
 21 63  1  0
 21 64  1  0
 22 65  1  6
 23 66  1  0
 25 67  1  0
 25 68  1  0
 25 69  1  0
 26 70  1  0
 26 71  1  0
 26 72  1  0
 28 73  1  0
 28 74  1  0
 28 75  1  0
 29 76  1  0
 29 77  1  0
 30 78  1  0
 30 79  1  0
 32 80  1  0
 32 81  1  0
 32 82  1  0
M  END
>  <meeko>  (14) 
{"is_sidechain": [false], "intermolecular_energy": 2.731, "internal_energy": -0.839}

$$$$
EPH_relaxed_0001_pdb2pqr_Repair_71_r2_0001_out
     RDKit          3D

 82 86  0  0  0  0  0  0  0  0999 V2000
   -1.9530    9.5380   -0.3790 C   0  0  0  0  0  0  0  0  0  0  0  0
   -1.4980   10.5120   -1.4700 C   0  0  2  0  0  0  0  0  0  0  0  0
   -0.5510    9.8440   -2.4870 C   0  0  0  0  0  0  0  0  0  0  0  0
    0.8280    9.5070   -1.9130 C   0  0  0  0  0  0  0  0  0  0  0  0
    1.9310    9.9600   -2.8210 C   0  0  2  0  0  0  0  0  0  0  0  0
    3.1100    9.1440   -2.7850 O   0  0  0  0  0  0  0  0  0  0  0  0
    3.2600   10.4960   -2.3190 C   0  0  0  0  0  0  0  0  0  0  0  0
    3.5540   10.6060   -0.8560 C   0  0  0  0  0  0  0  0  0  0  0  0
    4.0730   11.3600   -3.2320 C   0  0  0  0  0  0  0  0  0  0  0  0
   -0.8160   11.7190   -0.8370 C   0  0  1  0  0  0  0  0  0  0  0  0
    0.3320   11.3180    0.1270 C   0  0  0  0  0  0  0  0  0  0  0  0
    1.4280   12.4070   -0.0050 C   0  0  0  0  0  0  0  0  0  0  0  0
    0.7420   13.5580   -0.7780 C   0  0  1  0  0  0  0  0  0  0  0  0
   -0.0760   14.3340    0.3010 C   0  0  0  0  0  0  0  0  0  0  0  0
    1.6870   14.5100   -1.5810 C   0  0  2  0  0  0  0  0  0  0  0  0
    2.6980   15.2970   -0.7290 C   0  0  0  0  0  0  0  0  0  0  0  0
    2.2260   16.6300   -0.2490 C   0  0  0  0  0  0  0  0  0  0  0  0
    1.1570   17.2980   -0.7210 C   0  0  0  0  0  0  0  0  0  0  0  0
    0.3550   16.7580   -1.9120 C   0  0  1  0  0  0  0  0  0  0  0  0
    0.0940   17.9060   -2.9230 C   0  0  0  0  0  0  0  0  0  0  0  0
   -0.5670   19.1180   -2.2750 C   0  0  0  0  0  0  0  0  0  0  0  0
    0.2880   19.6610   -1.1330 C   0  0  2  0  0  0  0  0  0  0  0  0
    1.5000   20.1920   -1.6780 O   0  0  0  0  0  0  0  0  0  0  0  0
    0.6240   18.5910   -0.0570 C   0  0  0  0  0  0  0  0  0  0  0  0
   -0.6560   18.2350    0.7410 C   0  0  0  0  0  0  0  0  0  0  0  0
    1.6060   19.2300    0.9620 C   0  0  0  0  0  0  0  0  0  0  0  0
    0.9380   15.4530   -2.6070 C   0  0  1  0  0  0  0  0  0  0  0  0
    1.9840   15.8510   -3.6930 C   0  0  0  0  0  0  0  0  0  0  0  0
   -0.2260   14.7100   -3.3630 C   0  0  0  0  0  0  0  0  0  0  0  0
   -1.0470   13.6930   -2.5470 C   0  0  0  0  0  0  0  0  0  0  0  0
   -0.1290   12.7290   -1.7900 C   0  0  2  0  0  0  0  0  0  0  0  0
    0.6910   11.9180   -2.8500 C   0  0  0  0  0  0  0  0  0  0  0  0
   -1.7493    9.9741    0.6101 H   0  0  0  0  0  0  0  0  0  0  0  0
   -3.0320    9.3503   -0.4818 H   0  0  0  0  0  0  0  0  0  0  0  0
   -1.4045    8.5901   -0.4818 H   0  0  0  0  0  0  0  0  0  0  0  0
   -2.3943   10.8369   -2.0187 H   0  0  0  0  0  0  0  0  0  0  0  0
   -1.0188    8.9121   -2.8373 H   0  0  0  0  0  0  0  0  0  0  0  0
   -0.3929   10.5657   -3.3020 H   0  0  0  0  0  0  0  0  0  0  0  0
    0.9404   10.0056   -0.9389 H   0  0  0  0  0  0  0  0  0  0  0  0
    0.8979    8.4144   -1.8064 H   0  0  0  0  0  0  0  0  0  0  0  0
    1.2043   10.3517   -3.5479 H   0  0  0  0  0  0  0  0  0  0  0  0
    2.6763   10.2776   -0.2799 H   0  0  0  0  0  0  0  0  0  0  0  0
    4.4156    9.9694   -0.6063 H   0  0  0  0  0  0  0  0  0  0  0  0
    3.7862   11.6518   -0.6063 H   0  0  0  0  0  0  0  0  0  0  0  0
    4.7056   12.0323   -2.6337 H   0  0  0  0  0  0  0  0  0  0  0  0
    4.7095   10.7258   -3.8666 H   0  0  0  0  0  0  0  0  0  0  0  0
    3.4013   11.9568   -3.8666 H   0  0  0  0  0  0  0  0  0  0  0  0
   -1.6849   12.1896   -0.3537 H   0  0  0  0  0  0  0  0  0  0  0  0
   -0.0390   11.2775    1.1617 H   0  0  0  0  0  0  0  0  0  0  0  0
    0.7304   10.3241   -0.1251 H   0  0  0  0  0  0  0  0  0  0  0  0
    1.7582   12.7481    0.9873 H   0  0  0  0  0  0  0  0  0  0  0  0
    2.3261   12.0352   -0.5200 H   0  0  0  0  0  0  0  0  0  0  0  0
    0.2520   14.0228    1.3038 H   0  0  0  0  0  0  0  0  0  0  0  0
    0.0898   15.4147    0.1799 H   0  0  0  0  0  0  0  0  0  0  0  0
   -1.1464   14.1115    0.1799 H   0  0  0  0  0  0  0  0  0  0  0  0
    2.2840   13.8026   -2.1752 H   0  0  0  0  0  0  0  0  0  0  0  0
    2.9476   14.6873    0.1519 H   0  0  0  0  0  0  0  0  0  0  0  0
    3.5585   15.4966   -1.3846 H   0  0  0  0  0  0  0  0  0  0  0  0
    2.8007   17.1064    0.5589 H   0  0  0  0  0  0  0  0  0  0  0  0
   -0.5994   16.3999   -1.4987 H   0  0  0  0  0  0  0  0  0  0  0  0
    1.0552   18.2187   -3.3570 H   0  0  0  0  0  0  0  0  0  0  0  0
   -0.5927   17.5232   -3.6924 H   0  0  0  0  0  0  0  0  0  0  0  0
   -0.6973   19.9048   -3.0326 H   0  0  0  0  0  0  0  0  0  0  0  0
   -1.5415   18.8103   -1.8680 H   0  0  0  0  0  0  0  0  0  0  0  0
   -0.2963   20.4429   -0.6258 H   0  0  0  0  0  0  0  0  0  0  0  0
    2.1300   20.3000   -0.9440 H   0  0  0  0  0  0  0  0  0  0  0  0
   -0.4444   18.2939    1.8188 H   0  0  0  0  0  0  0  0  0  0  0  0
   -1.4567   18.9445    0.4853 H   0  0  0  0  0  0  0  0  0  0  0  0
   -0.9754   17.2139    0.4853 H   0  0  0  0  0  0  0  0  0  0  0  0
    1.2674   19.0097    1.9851 H   0  0  0  0  0  0  0  0  0  0  0  0
    2.6130   18.8137    0.8114 H   0  0  0  0  0  0  0  0  0  0  0  0
    1.6333   20.3193    0.8114 H   0  0  0  0  0  0  0  0  0  0  0  0
    2.9049   16.2014   -3.2041 H   0  0  0  0  0  0  0  0  0  0  0  0
    2.2118   14.9767   -4.3205 H   0  0  0  0  0  0  0  0  0  0  0  0
    1.5730   16.6556   -4.3205 H   0  0  0  0  0  0  0  0  0  0  0  0
   -0.9217   15.4756   -3.7371 H   0  0  0  0  0  0  0  0  0  0  0  0
    0.2712   14.1171   -4.1448 H   0  0  0  0  0  0  0  0  0  0  0  0
   -1.6747   14.2346   -1.8241 H   0  0  0  0  0  0  0  0  0  0  0  0
   -1.6725   13.1107   -3.2396 H   0  0  0  0  0  0  0  0  0  0  0  0
    1.3819   11.2347   -2.3345 H   0  0  0  0  0  0  0  0  0  0  0  0
    0.0019   11.3363   -3.4799 H   0  0  0  0  0  0  0  0  0  0  0  0
    1.2650   12.6135   -3.4799 H   0  0  0  0  0  0  0  0  0  0  0  0
  1  2  1  0
  2  3  1  0
  3  4  1  0
  4  5  1  0
  5  6  1  0
  6  7  1  0
  7  8  1  0
  7  9  1  0
  2 10  1  0
 10 11  1  0
 11 12  1  0
 12 13  1  0
 13 14  1  1
 13 15  1  0
 15 16  1  0
 16 17  1  0
 17 18  2  0
 18 19  1  0
 19 20  1  0
 20 21  1  0
 21 22  1  0
 22 23  1  0
 22 24  1  0
 24 25  1  0
 24 26  1  0
 19 27  1  0
 27 28  1  6
 27 29  1  0
 29 30  1  0
 30 31  1  0
 31 32  1  6
  7  5  1  0
 31 10  1  0
 31 13  1  0
 27 15  1  0
 24 18  1  0
  1 33  1  0
  1 34  1  0
  1 35  1  0
  2 36  1  6
  3 37  1  0
  3 38  1  0
  4 39  1  0
  4 40  1  0
  5 41  1  6
  8 42  1  0
  8 43  1  0
  8 44  1  0
  9 45  1  0
  9 46  1  0
  9 47  1  0
 10 48  1  1
 11 49  1  0
 11 50  1  0
 12 51  1  0
 12 52  1  0
 14 53  1  0
 14 54  1  0
 14 55  1  0
 15 56  1  6
 16 57  1  0
 16 58  1  0
 17 59  1  0
 19 60  1  1
 20 61  1  0
 20 62  1  0
 21 63  1  0
 21 64  1  0
 22 65  1  1
 23 66  1  0
 25 67  1  0
 25 68  1  0
 25 69  1  0
 26 70  1  0
 26 71  1  0
 26 72  1  0
 28 73  1  0
 28 74  1  0
 28 75  1  0
 29 76  1  0
 29 77  1  0
 30 78  1  0
 30 79  1  0
 32 80  1  0
 32 81  1  0
 32 82  1  0
M  END
>  <meeko>  (15) 
{"is_sidechain": [false], "intermolecular_energy": 2.731, "internal_energy": -0.839}

$$$$
EPH_relaxed_0001_pdb2pqr_Repair_71_r2_0001_out
     RDKit          3D

 82 86  0  0  0  0  0  0  0  0999 V2000
    0.9060   14.9070   -2.6050 C   0  0  0  0  0  0  0  0  0  0  0  0
    1.1790   14.2340   -3.9530 C   0  0  2  0  0  0  0  0  0  0  0  0
    0.4820   14.9640   -5.1190 C   0  0  0  0  0  0  0  0  0  0  0  0
    1.0520   14.6100   -6.4950 C   0  0  0  0  0  0  0  0  0  0  0  0
    0.8110   15.7030   -7.4920 C   0  0  2  0  0  0  0  0  0  0  0  0
    0.3530   15.2540   -8.7740 O   0  0  0  0  0  0  0  0  0  0  0  0
    1.6420   15.8880   -8.7480 C   0  0  0  0  0  0  0  0  0  0  0  0
    2.7790   14.9700   -9.0740 C   0  0  0  0  0  0  0  0  0  0  0  0
    1.6640   17.2350   -9.4000 C   0  0  0  0  0  0  0  0  0  0  0  0
    0.7300   12.7780   -3.9070 C   0  0  1  0  0  0  0  0  0  0  0  0
    1.8650   11.7900   -4.2900 C   0  0  0  0  0  0  0  0  0  0  0  0
    1.6640   10.5210   -3.4230 C   0  0  0  0  0  0  0  0  0  0  0  0
    0.2490   10.6800   -2.8210 C   0  0  1  0  0  0  0  0  0  0  0  0
   -0.7230   10.2150   -3.9510 C   0  0  0  0  0  0  0  0  0  0  0  0
   -0.0210    9.9220   -1.4800 C   0  0  2  0  0  0  0  0  0  0  0  0
    0.0860    8.3890   -1.5640 C   0  0  0  0  0  0  0  0  0  0  0  0
   -1.1840    7.6790   -1.8940 C   0  0  0  0  0  0  0  0  0  0  0  0
   -2.4180    8.2140   -1.8360 C   0  0  0  0  0  0  0  0  0  0  0  0
   -2.6350    9.6380   -1.3100 C   0  0  1  0  0  0  0  0  0  0  0  0
   -3.8180    9.6450   -0.3070 C   0  0  0  0  0  0  0  0  0  0  0  0
   -5.0890    9.0420   -0.8970 C   0  0  0  0  0  0  0  0  0  0  0  0
   -4.8490    7.6060   -1.3560 C   0  0  2  0  0  0  0  0  0  0  0  0
   -4.5940    6.7920   -0.2070 O   0  0  0  0  0  0  0  0  0  0  0  0
   -3.6720    7.4730   -2.3630 C   0  0  0  0  0  0  0  0  0  0  0  0
   -4.0740    8.1020   -3.7200 C   0  0  0  0  0  0  0  0  0  0  0  0
   -3.4450    5.9610   -2.6350 C   0  0  0  0  0  0  0  0  0  0  0  0
   -1.3450   10.3690   -0.7370 C   0  0  1  0  0  0  0  0  0  0  0  0
   -1.1540   10.0100    0.7680 C   0  0  0  0  0  0  0  0  0  0  0  0
   -1.5670   11.9270   -0.7970 C   0  0  0  0  0  0  0  0  0  0  0  0
   -1.1700   12.6360   -2.1060 C   0  0  0  0  0  0  0  0  0  0  0  0
    0.2390   12.2280   -2.5450 C   0  0  2  0  0  0  0  0  0  0  0  0
    1.2410   12.7020   -1.4380 C   0  0  0  0  0  0  0  0  0  0  0  0
    1.1838   14.2221   -1.7903 H   0  0  0  0  0  0  0  0  0  0  0  0
    1.5013   15.8288   -2.5282 H   0  0  0  0  0  0  0  0  0  0  0  0
   -0.1632   15.1536   -2.5282 H   0  0  0  0  0  0  0  0  0  0  0  0
    2.2629   14.2835   -4.1340 H   0  0  0  0  0  0  0  0  0  0  0  0
   -0.5854   14.6986   -5.1065 H   0  0  0  0  0  0  0  0  0  0  0  0
    0.6483   16.0410   -4.9694 H   0  0  0  0  0  0  0  0  0  0  0  0
    2.1356   14.4459   -6.4007 H   0  0  0  0  0  0  0  0  0  0  0  0
    0.5458   13.7013   -6.8528 H   0  0  0  0  0  0  0  0  0  0  0  0
    0.5169   16.3991   -6.6927 H   0  0  0  0  0  0  0  0  0  0  0  0
    3.2331   14.6033   -8.1416 H   0  0  0  0  0  0  0  0  0  0  0  0
    2.4054   14.1173   -9.6599 H   0  0  0  0  0  0  0  0  0  0  0  0
    3.5338   15.5149   -9.6599 H   0  0  0  0  0  0  0  0  0  0  0  0
    1.6768   18.0167   -8.6262 H   0  0  0  0  0  0  0  0  0  0  0  0
    2.5637   17.3245  -10.0265 H   0  0  0  0  0  0  0  0  0  0  0  0
    0.7677   17.3538  -10.0265 H   0  0  0  0  0  0  0  0  0  0  0  0
   -0.1073   12.8208   -4.6191 H   0  0  0  0  0  0  0  0  0  0  0  0
    1.7999   11.5336   -5.3577 H   0  0  0  0  0  0  0  0  0  0  0  0
    2.8544   12.2369   -4.1129 H   0  0  0  0  0  0  0  0  0  0  0  0
    1.7227    9.6140   -4.0427 H   0  0  0  0  0  0  0  0  0  0  0  0
    2.4379   10.4184   -2.6480 H   0  0  0  0  0  0  0  0  0  0  0  0
   -1.6283    9.7819   -3.5007 H   0  0  0  0  0  0  0  0  0  0  0  0
   -1.0003   11.0780   -4.5742 H   0  0  0  0  0  0  0  0  0  0  0  0
   -0.2251    9.4576   -4.5742 H   0  0  0  0  0  0  0  0  0  0  0  0
    0.8220   10.2467   -0.8523 H   0  0  0  0  0  0  0  0  0  0  0  0
    0.8252    8.1418   -2.3402 H   0  0  0  0  0  0  0  0  0  0  0  0
    0.3728    8.0482   -0.5582 H   0  0  0  0  0  0  0  0  0  0  0  0
   -1.1054    6.6288   -2.2118 H   0  0  0  0  0  0  0  0  0  0  0  0
   -2.8865   10.2515   -2.1877 H   0  0  0  0  0  0  0  0  0  0  0  0
   -3.5308    9.0628    0.5810 H   0  0  0  0  0  0  0  0  0  0  0  0
   -4.0331   10.6932   -0.0518 H   0  0  0  0  0  0  0  0  0  0  0  0
   -5.8793    9.0481   -0.1318 H   0  0  0  0  0  0  0  0  0  0  0  0
   -5.3918    9.6429   -1.7672 H   0  0  0  0  0  0  0  0  0  0  0  0
   -5.7536    7.2731   -1.8860 H   0  0  0  0  0  0  0  0  0  0  0  0
   -4.3460    5.9060   -0.5230 H   0  0  0  0  0  0  0  0  0  0  0  0
   -4.6585    9.0166   -3.5414 H   0  0  0  0  0  0  0  0  0  0  0  0
   -3.1677    8.3518   -4.2912 H   0  0  0  0  0  0  0  0  0  0  0  0
   -4.6813    7.3844   -4.2912 H   0  0  0  0  0  0  0  0  0  0  0  0
   -3.3644    5.4244   -1.6782 H   0  0  0  0  0  0  0  0  0  0  0  0
   -4.2931    5.5605   -3.2098 H   0  0  0  0  0  0  0  0  0  0  0  0
   -2.5167    5.8272   -3.2098 H   0  0  0  0  0  0  0  0  0  0  0  0
   -1.5793   10.8094    1.3925 H   0  0  0  0  0  0  0  0  0  0  0  0
   -1.6669    9.0618    0.9867 H   0  0  0  0  0  0  0  0  0  0  0  0
   -0.0810    9.9055    0.9867 H   0  0  0  0  0  0  0  0  0  0  0  0
   -2.6370   12.1173   -0.6269 H   0  0  0  0  0  0  0  0  0  0  0  0
   -0.8968   12.3427   -0.0302 H   0  0  0  0  0  0  0  0  0  0  0  0
   -1.8860   12.3623   -2.8949 H   0  0  0  0  0  0  0  0  0  0  0  0
   -1.1829   13.7224   -1.9342 H   0  0  0  0  0  0  0  0  0  0  0  0
    0.8131   12.4996   -0.4451 H   0  0  0  0  0  0  0  0  0  0  0  0
    2.1908   12.1577   -1.5458 H   0  0  0  0  0  0  0  0  0  0  0  0
    1.4227   13.7815   -1.5458 H   0  0  0  0  0  0  0  0  0  0  0  0
  1  2  1  0
  2  3  1  0
  3  4  1  0
  4  5  1  0
  5  6  1  0
  6  7  1  0
  7  8  1  0
  7  9  1  0
  2 10  1  0
 10 11  1  0
 11 12  1  0
 12 13  1  0
 13 14  1  6
 13 15  1  0
 15 16  1  0
 16 17  1  0
 17 18  2  0
 18 19  1  0
 19 20  1  0
 20 21  1  0
 21 22  1  0
 22 23  1  0
 22 24  1  0
 24 25  1  0
 24 26  1  0
 19 27  1  0
 27 28  1  1
 27 29  1  0
 29 30  1  0
 30 31  1  0
 31 32  1  1
  7  5  1  0
 31 10  1  0
 31 13  1  0
 27 15  1  0
 24 18  1  0
  1 33  1  0
  1 34  1  0
  1 35  1  0
  2 36  1  6
  3 37  1  0
  3 38  1  0
  4 39  1  0
  4 40  1  0
  5 41  1  1
  8 42  1  0
  8 43  1  0
  8 44  1  0
  9 45  1  0
  9 46  1  0
  9 47  1  0
 10 48  1  6
 11 49  1  0
 11 50  1  0
 12 51  1  0
 12 52  1  0
 14 53  1  0
 14 54  1  0
 14 55  1  0
 15 56  1  1
 16 57  1  0
 16 58  1  0
 17 59  1  0
 19 60  1  6
 20 61  1  0
 20 62  1  0
 21 63  1  0
 21 64  1  0
 22 65  1  6
 23 66  1  0
 25 67  1  0
 25 68  1  0
 25 69  1  0
 26 70  1  0
 26 71  1  0
 26 72  1  0
 28 73  1  0
 28 74  1  0
 28 75  1  0
 29 76  1  0
 29 77  1  0
 30 78  1  0
 30 79  1  0
 32 80  1  0
 32 81  1  0
 32 82  1  0
M  END
>  <meeko>  (16) 
{"is_sidechain": [false], "intermolecular_energy": 2.731, "internal_energy": -0.839}

$$$$
EPH_relaxed_0001_pdb2pqr_Repair_71_r2_0001_out
     RDKit          3D

 82 86  0  0  0  0  0  0  0  0999 V2000
   -5.1970    5.8860   -1.5580 C   0  0  0  0  0  0  0  0  0  0  0  0
   -5.4570    7.3810   -1.7600 C   0  0  2  0  0  0  0  0  0  0  0  0
   -5.1870    8.1960   -0.4790 C   0  0  0  0  0  0  0  0  0  0  0  0
   -4.2050    9.3540   -0.6820 C   0  0  0  0  0  0  0  0  0  0  0  0
   -2.7940    8.9420   -0.3890 C   0  0  2  0  0  0  0  0  0  0  0  0
   -2.1710    9.6610    0.6830 O   0  0  0  0  0  0  0  0  0  0  0  0
   -1.5950    9.8410   -0.6210 C   0  0  0  0  0  0  0  0  0  0  0  0
   -1.7510   11.2240   -1.1700 C   0  0  0  0  0  0  0  0  0  0  0  0
   -0.2460    9.2100   -0.7760 C   0  0  0  0  0  0  0  0  0  0  0  0
   -6.8920    7.6010   -2.2240 C   0  0  1  0  0  0  0  0  0  0  0  0
   -7.2000    6.8940   -3.5710 C   0  0  0  0  0  0  0  0  0  0  0  0
   -8.6740    6.4190   -3.5000 C   0  0  0  0  0  0  0  0  0  0  0  0
   -9.2610    7.1500   -2.2690 C   0  0  1  0  0  0  0  0  0  0  0  0
   -9.6150    8.5800   -2.7840 C   0  0  0  0  0  0  0  0  0  0  0  0
  -10.4850    6.4660   -1.5780 C   0  0  2  0  0  0  0  0  0  0  0  0
  -11.7400    6.3310   -2.4580 C   0  0  0  0  0  0  0  0  0  0  0  0
  -12.6960    7.4750   -2.3860 C   0  0  0  0  0  0  0  0  0  0  0  0
  -12.7000    8.4320   -1.4390 C   0  0  0  0  0  0  0  0  0  0  0  0
  -11.7340    8.3670   -0.2490 C   0  0  1  0  0  0  0  0  0  0  0  0
  -12.5090    8.6560    1.0630 C   0  0  0  0  0  0  0  0  0  0  0  0
  -13.2810    9.9710    1.0100 C   0  0  0  0  0  0  0  0  0  0  0  0
  -14.2720    9.9740   -0.1510 C   0  0  2  0  0  0  0  0  0  0  0  0
  -15.2880    9.0000    0.1070 O   0  0  0  0  0  0  0  0  0  0  0  0
  -13.6070    9.6840   -1.5260 C   0  0  0  0  0  0  0  0  0  0  0  0
  -12.7310   10.8910   -1.9450 C   0  0  0  0  0  0  0  0  0  0  0  0
  -14.7340    9.5760   -2.5880 C   0  0  0  0  0  0  0  0  0  0  0  0
  -10.8390    7.0570   -0.1540 C   0  0  1  0  0  0  0  0  0  0  0  0
  -11.6110    5.9400    0.6130 C   0  0  0  0  0  0  0  0  0  0  0  0
   -9.5530    7.3740    0.6990 C   0  0  0  0  0  0  0  0  0  0  0  0
   -8.3370    7.9360   -0.0610 C   0  0  0  0  0  0  0  0  0  0  0  0
   -8.0250    7.0900   -1.2990 C   0  0  2  0  0  0  0  0  0  0  0  0
   -7.6440    5.6500   -0.8120 C   0  0  0  0  0  0  0  0  0  0  0  0
   -5.1582    5.6627   -0.4816 H   0  0  0  0  0  0  0  0  0  0  0  0
   -6.0079    5.3066   -2.0236 H   0  0  0  0  0  0  0  0  0  0  0  0
   -4.2381    5.6144   -2.0236 H   0  0  0  0  0  0  0  0  0  0  0  0
   -4.7580    7.7369   -2.5312 H   0  0  0  0  0  0  0  0  0  0  0  0
   -6.1421    8.6090   -0.1223 H   0  0  0  0  0  0  0  0  0  0  0  0
   -4.7290    7.5096    0.2484 H   0  0  0  0  0  0  0  0  0  0  0  0
   -4.2673    9.6954   -1.7258 H   0  0  0  0  0  0  0  0  0  0  0  0
   -4.4781   10.1612    0.0136 H   0  0  0  0  0  0  0  0  0  0  0  0
   -3.0087    7.9063   -0.6911 H   0  0  0  0  0  0  0  0  0  0  0  0
   -1.8319   11.9411   -0.3398 H   0  0  0  0  0  0  0  0  0  0  0  0
   -0.8754   11.4745   -1.7869 H   0  0  0  0  0  0  0  0  0  0  0  0
   -2.6604   11.2732   -1.7869 H   0  0  0  0  0  0  0  0  0  0  0  0
    0.1816    9.0100    0.2176 H   0  0  0  0  0  0  0  0  0  0  0  0
   -0.3448    8.2647   -1.3297 H   0  0  0  0  0  0  0  0  0  0  0  0
    0.4163    9.8918   -1.3297 H   0  0  0  0  0  0  0  0  0  0  0  0
   -6.9060    8.7002   -2.2638 H   0  0  0  0  0  0  0  0  0  0  0  0
   -7.0684    7.5971   -4.4066 H   0  0  0  0  0  0  0  0  0  0  0  0
   -6.5193    6.0459   -3.7366 H   0  0  0  0  0  0  0  0  0  0  0  0
   -9.2171    6.7005   -4.4142 H   0  0  0  0  0  0  0  0  0  0  0  0
   -8.7561    5.3254   -3.4140 H   0  0  0  0  0  0  0  0  0  0  0  0
   -9.7804    9.2482   -1.9260 H   0  0  0  0  0  0  0  0  0  0  0  0
   -8.7852    8.9657   -3.3945 H   0  0  0  0  0  0  0  0  0  0  0  0
  -10.5289    8.5341   -3.3945 H   0  0  0  0  0  0  0  0  0  0  0  0
  -10.1215    5.4404   -1.4167 H   0  0  0  0  0  0  0  0  0  0  0  0
  -11.4126    6.2270   -3.5030 H   0  0  0  0  0  0  0  0  0  0  0  0
  -12.2853    5.4547   -2.0775 H   0  0  0  0  0  0  0  0  0  0  0  0
  -13.4617    7.5418   -3.1729 H   0  0  0  0  0  0  0  0  0  0  0  0
  -10.9853    9.1544   -0.4209 H   0  0  0  0  0  0  0  0  0  0  0  0
  -13.2209    7.8362    1.2397 H   0  0  0  0  0  0  0  0  0  0  0  0
  -11.7716    8.7347    1.8755 H   0  0  0  0  0  0  0  0  0  0  0  0
  -13.8309   10.1041    1.9533 H   0  0  0  0  0  0  0  0  0  0  0  0
  -12.5652   10.7933    0.8634 H   0  0  0  0  0  0  0  0  0  0  0  0
  -14.6990   10.9856   -0.2167 H   0  0  0  0  0  0  0  0  0  0  0  0
  -14.8560    8.1300    0.1500 H   0  0  0  0  0  0  0  0  0  0  0  0
  -12.3589   11.4037   -1.0457 H   0  0  0  0  0  0  0  0  0  0  0  0
  -11.8792   10.5356   -2.5434 H   0  0  0  0  0  0  0  0  0  0  0  0
  -13.3329   11.5907   -2.5434 H   0  0  0  0  0  0  0  0  0  0  0  0
  -15.7065    9.4828   -2.0825 H   0  0  0  0  0  0  0  0  0  0  0  0
  -14.7327   10.4784   -3.2171 H   0  0  0  0  0  0  0  0  0  0  0  0
  -14.5614    8.6903   -3.2171 H   0  0  0  0  0  0  0  0  0  0  0  0
  -11.5025    6.0970    1.6963 H   0  0  0  0  0  0  0  0  0  0  0  0
  -12.6764    5.9782    0.3418 H   0  0  0  0  0  0  0  0  0  0  0  0
  -11.1987    4.9569    0.3418 H   0  0  0  0  0  0  0  0  0  0  0  0
   -9.8355    8.1102    1.4659 H   0  0  0  0  0  0  0  0  0  0  0  0
   -9.2220    6.4018    1.0931 H   0  0  0  0  0  0  0  0  0  0  0  0
   -8.5546    8.9674   -0.3755 H   0  0  0  0  0  0  0  0  0  0  0  0
   -7.4642    7.9133    0.6082 H   0  0  0  0  0  0  0  0  0  0  0  0
   -7.6373    5.6246    0.2877 H   0  0  0  0  0  0  0  0  0  0  0  0
   -8.3819    4.9276   -1.1909 H   0  0  0  0  0  0  0  0  0  0  0  0
   -6.6454    5.3870   -1.1909 H   0  0  0  0  0  0  0  0  0  0  0  0
  1  2  1  0
  2  3  1  0
  3  4  1  0
  4  5  1  0
  5  6  1  0
  6  7  1  0
  7  8  1  0
  7  9  1  0
  2 10  1  0
 10 11  1  0
 11 12  1  0
 12 13  1  0
 13 14  1  6
 13 15  1  0
 15 16  1  0
 16 17  1  0
 17 18  2  0
 18 19  1  0
 19 20  1  0
 20 21  1  0
 21 22  1  0
 22 23  1  0
 22 24  1  0
 24 25  1  0
 24 26  1  0
 19 27  1  0
 27 28  1  1
 27 29  1  0
 29 30  1  0
 30 31  1  0
 31 32  1  1
  7  5  1  0
 31 10  1  0
 31 13  1  0
 27 15  1  0
 24 18  1  0
  1 33  1  0
  1 34  1  0
  1 35  1  0
  2 36  1  6
  3 37  1  0
  3 38  1  0
  4 39  1  0
  4 40  1  0
  5 41  1  1
  8 42  1  0
  8 43  1  0
  8 44  1  0
  9 45  1  0
  9 46  1  0
  9 47  1  0
 10 48  1  6
 11 49  1  0
 11 50  1  0
 12 51  1  0
 12 52  1  0
 14 53  1  0
 14 54  1  0
 14 55  1  0
 15 56  1  1
 16 57  1  0
 16 58  1  0
 17 59  1  0
 19 60  1  6
 20 61  1  0
 20 62  1  0
 21 63  1  0
 21 64  1  0
 22 65  1  6
 23 66  1  0
 25 67  1  0
 25 68  1  0
 25 69  1  0
 26 70  1  0
 26 71  1  0
 26 72  1  0
 28 73  1  0
 28 74  1  0
 28 75  1  0
 29 76  1  0
 29 77  1  0
 30 78  1  0
 30 79  1  0
 32 80  1  0
 32 81  1  0
 32 82  1  0
M  END
>  <meeko>  (17) 
{"is_sidechain": [false], "intermolecular_energy": 2.731, "internal_energy": -0.839}

$$$$
EPH_relaxed_0001_pdb2pqr_Repair_71_r2_0001_out
     RDKit          3D

 82 86  0  0  0  0  0  0  0  0999 V2000
   -1.7260   14.8380    0.4160 C   0  0  0  0  0  0  0  0  0  0  0  0
   -0.3710   15.5360    0.2700 C   0  0  2  0  0  0  0  0  0  0  0  0
   -0.3790   16.5900   -0.8550 C   0  0  0  0  0  0  0  0  0  0  0  0
   -0.0140   17.9990   -0.3810 C   0  0  0  0  0  0  0  0  0  0  0  0
    1.4260   18.0920    0.0250 C   0  0  2  0  0  0  0  0  0  0  0  0
    2.0820   19.3050   -0.3680 O   0  0  0  0  0  0  0  0  0  0  0  0
    2.5760   18.0950   -0.9660 C   0  0  0  0  0  0  0  0  0  0  0  0
    2.3360   18.0020   -2.4400 C   0  0  0  0  0  0  0  0  0  0  0  0
    3.9360   17.6970   -0.4840 C   0  0  0  0  0  0  0  0  0  0  0  0
    0.7200   14.5040    0.0090 C   0  0  1  0  0  0  0  0  0  0  0  0
    0.8530   13.4720    1.1600 C   0  0  0  0  0  0  0  0  0  0  0  0
    1.2280   12.1170    0.5050 C   0  0  0  0  0  0  0  0  0  0  0  0
    1.6210   12.4810   -0.9460 C   0  0  1  0  0  0  0  0  0  0  0  0
    3.0950   12.9850   -0.8480 C   0  0  0  0  0  0  0  0  0  0  0  0
    1.4700   11.3440   -2.0090 C   0  0  2  0  0  0  0  0  0  0  0  0
    2.3540   10.1080   -1.7720 C   0  0  0  0  0  0  0  0  0  0  0  0
    3.6980   10.1510   -2.4220 C   0  0  0  0  0  0  0  0  0  0  0  0
    4.0700   11.0050   -3.3930 C   0  0  0  0  0  0  0  0  0  0  0  0
    3.0640   11.9890   -4.0050 C   0  0  1  0  0  0  0  0  0  0  0  0
    3.1850   11.9590   -5.5510 C   0  0  0  0  0  0  0  0  0  0  0  0
    4.6120   12.2100   -6.0310 C   0  0  0  0  0  0  0  0  0  0  0  0
    5.5730   11.1780   -5.4470 C   0  0  2  0  0  0  0  0  0  0  0  0
    5.2570    9.8930   -5.9940 O   0  0  0  0  0  0  0  0  0  0  0  0
    5.5310   11.1100   -3.8950 C   0  0  0  0  0  0  0  0  0  0  0  0
    6.1590   12.3950   -3.3010 C   0  0  0  0  0  0  0  0  0  0  0  0
    6.4390    9.9340   -3.4440 C   0  0  0  0  0  0  0  0  0  0  0  0
    1.5610   11.8420   -3.5080 C   0  0  1  0  0  0  0  0  0  0  0  0
    0.8150   10.7830   -4.3750 C   0  0  0  0  0  0  0  0  0  0  0  0
    0.8100   13.2080   -3.7320 C   0  0  0  0  0  0  0  0  0  0  0  0
    0.8980   14.2440   -2.5950 C   0  0  0  0  0  0  0  0  0  0  0  0
    0.5630   13.6050   -1.2440 C   0  0  2  0  0  0  0  0  0  0  0  0
   -0.9210   13.1080   -1.3050 C   0  0  0  0  0  0  0  0  0  0  0  0
   -1.9626   14.7161    1.4833 H   0  0  0  0  0  0  0  0  0  0  0  0
   -2.5057   15.4466   -0.0652 H   0  0  0  0  0  0  0  0  0  0  0  0
   -1.6831   13.8498   -0.0652 H   0  0  0  0  0  0  0  0  0  0  0  0
   -0.1667   16.0624    1.2140 H   0  0  0  0  0  0  0  0  0  0  0  0
    0.3461   16.2834   -1.6233 H   0  0  0  0  0  0  0  0  0  0  0  0
   -1.4071   16.6378   -1.2433 H   0  0  0  0  0  0  0  0  0  0  0  0
   -0.2002   18.7098   -1.1996 H   0  0  0  0  0  0  0  0  0  0  0  0
   -0.6335   18.2368    0.4963 H   0  0  0  0  0  0  0  0  0  0  0  0
    1.2337   17.4978    0.9305 H   0  0  0  0  0  0  0  0  0  0  0  0
    1.3246   17.6101   -2.6228 H   0  0  0  0  0  0  0  0  0  0  0  0
    2.4290   19.0012   -2.8904 H   0  0  0  0  0  0  0  0  0  0  0  0
    3.0780   17.3263   -2.8904 H   0  0  0  0  0  0  0  0  0  0  0  0
    3.9486   17.6933    0.6159 H   0  0  0  0  0  0  0  0  0  0  0  0
    4.1772   16.6906   -0.8568 H   0  0  0  0  0  0  0  0  0  0  0  0
    4.6817   18.4146   -0.8568 H   0  0  0  0  0  0  0  0  0  0  0  0
    1.5832   15.1745   -0.1146 H   0  0  0  0  0  0  0  0  0  0  0  0
    1.6413   13.7852    1.8604 H   0  0  0  0  0  0  0  0  0  0  0  0
   -0.0858   13.3900    1.7274 H   0  0  0  0  0  0  0  0  0  0  0  0
    2.0745   11.6521    1.0317 H   0  0  0  0  0  0  0  0  0  0  0  0
    0.4019   11.3918    0.5441 H   0  0  0  0  0  0  0  0  0  0  0  0
    3.3796   13.0823    0.2101 H   0  0  0  0  0  0  0  0  0  0  0  0
    3.7627   12.2641   -1.3425 H   0  0  0  0  0  0  0  0  0  0  0  0
    3.1815   13.9638   -1.3425 H   0  0  0  0  0  0  0  0  0  0  0  0
    0.4357   11.0060   -1.8478 H   0  0  0  0  0  0  0  0  0  0  0  0
    2.5041   10.0003   -0.6876 H   0  0  0  0  0  0  0  0  0  0  0  0
    1.8217    9.2609   -2.2292 H   0  0  0  0  0  0  0  0  0  0  0  0
    4.4472    9.4228   -2.0778 H   0  0  0  0  0  0  0  0  0  0  0  0
    3.3438   12.9838   -3.6280 H   0  0  0  0  0  0  0  0  0  0  0  0
    2.8603   10.9716   -5.9111 H   0  0  0  0  0  0  0  0  0  0  0  0
    2.5514   12.7642   -5.9514 H   0  0  0  0  0  0  0  0  0  0  0  0
    4.6390   12.1464   -7.1288 H   0  0  0  0  0  0  0  0  0  0  0  0
    4.9245   13.2101   -5.6960 H   0  0  0  0  0  0  0  0  0  0  0  0
    6.5933   11.4862   -5.7192 H   0  0  0  0  0  0  0  0  0  0  0  0
    4.2920    9.7810   -5.9410 H   0  0  0  0  0  0  0  0  0  0  0  0
    6.1330   12.3419   -2.2026 H   0  0  0  0  0  0  0  0  0  0  0  0
    7.2019   12.4836   -3.6393 H   0  0  0  0  0  0  0  0  0  0  0  0
    5.5881   13.2723   -3.6393 H   0  0  0  0  0  0  0  0  0  0  0  0
    6.4693    9.8947   -2.3451 H   0  0  0  0  0  0  0  0  0  0  0  0
    6.0346    8.9882   -3.8337 H   0  0  0  0  0  0  0  0  0  0  0  0
    7.4564   10.0860   -3.8337 H   0  0  0  0  0  0  0  0  0  0  0  0
    0.3073   10.0623   -3.7171 H   0  0  0  0  0  0  0  0  0  0  0  0
    0.0714   11.2869   -5.0099 H   0  0  0  0  0  0  0  0  0  0  0  0
    1.5399   10.2524   -5.0099 H   0  0  0  0  0  0  0  0  0  0  0  0
    1.2267   13.6721   -4.6380 H   0  0  0  0  0  0  0  0  0  0  0  0
   -0.2556   12.9431   -3.7980 H   0  0  0  0  0  0  0  0  0  0  0  0
    1.9193   14.6509   -2.5572 H   0  0  0  0  0  0  0  0  0  0  0  0
    0.1713   15.0455   -2.7937 H   0  0  0  0  0  0  0  0  0  0  0  0
   -1.3067   12.9788   -0.2830 H   0  0  0  0  0  0  0  0  0  0  0  0
   -1.5345   13.8497   -1.8374 H   0  0  0  0  0  0  0  0  0  0  0  0
   -0.9641   12.1464   -1.8374 H   0  0  0  0  0  0  0  0  0  0  0  0
  1  2  1  0
  2  3  1  0
  3  4  1  0
  4  5  1  0
  5  6  1  0
  6  7  1  0
  7  8  1  0
  7  9  1  0
  2 10  1  0
 10 11  1  0
 11 12  1  0
 12 13  1  0
 13 14  1  1
 13 15  1  0
 15 16  1  0
 16 17  1  0
 17 18  2  0
 18 19  1  0
 19 20  1  0
 20 21  1  0
 21 22  1  0
 22 23  1  0
 22 24  1  0
 24 25  1  0
 24 26  1  0
 19 27  1  0
 27 28  1  6
 27 29  1  0
 29 30  1  0
 30 31  1  0
 31 32  1  6
  7  5  1  0
 31 10  1  0
 31 13  1  0
 27 15  1  0
 24 18  1  0
  1 33  1  0
  1 34  1  0
  1 35  1  0
  2 36  1  1
  3 37  1  0
  3 38  1  0
  4 39  1  0
  4 40  1  0
  5 41  1  1
  8 42  1  0
  8 43  1  0
  8 44  1  0
  9 45  1  0
  9 46  1  0
  9 47  1  0
 10 48  1  6
 11 49  1  0
 11 50  1  0
 12 51  1  0
 12 52  1  0
 14 53  1  0
 14 54  1  0
 14 55  1  0
 15 56  1  6
 16 57  1  0
 16 58  1  0
 17 59  1  0
 19 60  1  1
 20 61  1  0
 20 62  1  0
 21 63  1  0
 21 64  1  0
 22 65  1  1
 23 66  1  0
 25 67  1  0
 25 68  1  0
 25 69  1  0
 26 70  1  0
 26 71  1  0
 26 72  1  0
 28 73  1  0
 28 74  1  0
 28 75  1  0
 29 76  1  0
 29 77  1  0
 30 78  1  0
 30 79  1  0
 32 80  1  0
 32 81  1  0
 32 82  1  0
M  END
>  <meeko>  (18) 
{"is_sidechain": [false], "intermolecular_energy": 2.731, "internal_energy": -0.839}

$$$$
EPH_relaxed_0001_pdb2pqr_Repair_71_r2_0001_out
     RDKit          3D

 82 86  0  0  0  0  0  0  0  0999 V2000
   -0.1040    9.3150   -4.1960 C   0  0  0  0  0  0  0  0  0  0  0  0
    0.0770    9.5250   -2.6910 C   0  0  2  0  0  0  0  0  0  0  0  0
   -0.7090    8.4910   -1.8610 C   0  0  0  0  0  0  0  0  0  0  0  0
   -2.2260    8.5680   -2.0570 C   0  0  0  0  0  0  0  0  0  0  0  0
   -2.7710    7.3130   -2.6680 C   0  0  2  0  0  0  0  0  0  0  0  0
   -3.8010    7.5200   -3.6430 O   0  0  0  0  0  0  0  0  0  0  0  0
   -4.1900    6.8230   -2.4480 C   0  0  0  0  0  0  0  0  0  0  0  0
   -5.1520    7.5810   -1.5880 C   0  0  0  0  0  0  0  0  0  0  0  0
   -4.4880    5.3730   -2.6660 C   0  0  0  0  0  0  0  0  0  0  0  0
   -0.3530   10.9360   -2.3070 C   0  0  1  0  0  0  0  0  0  0  0  0
   -1.5650   10.9480   -1.3380 C   0  0  0  0  0  0  0  0  0  0  0  0
   -1.3620   12.1530   -0.3830 C   0  0  0  0  0  0  0  0  0  0  0  0
   -0.2310   12.9820   -1.0360 C   0  0  1  0  0  0  0  0  0  0  0  0
   -0.9380   13.8200   -2.1470 C   0  0  0  0  0  0  0  0  0  0  0  0
    0.6060   13.8870   -0.0740 C   0  0  2  0  0  0  0  0  0  0  0  0
   -0.1900   14.9960    0.6360 C   0  0  0  0  0  0  0  0  0  0  0  0
   -0.2490   16.3010   -0.0870 C   0  0  0  0  0  0  0  0  0  0  0  0
    0.5430   16.6630   -1.1130 C   0  0  0  0  0  0  0  0  0  0  0  0
    1.6880   15.7560   -1.5830 C   0  0  1  0  0  0  0  0  0  0  0  0
    2.9740   16.6020   -1.7740 C   0  0  0  0  0  0  0  0  0  0  0  0
    2.7570   17.7950   -2.7000 C   0  0  0  0  0  0  0  0  0  0  0  0
    1.6520   18.7040   -2.1690 C   0  0  2  0  0  0  0  0  0  0  0  0
    2.0950   19.3040   -0.9470 O   0  0  0  0  0  0  0  0  0  0  0  0
    0.3090   17.9590   -1.9280 C   0  0  0  0  0  0  0  0  0  0  0  0
   -0.3220   17.5710   -3.2870 C   0  0  0  0  0  0  0  0  0  0  0  0
   -0.6770   18.9560   -1.2600 C   0  0  0  0  0  0  0  0  0  0  0  0
    1.9400   14.4510   -0.7120 C   0  0  1  0  0  0  0  0  0  0  0  0
    2.8960   14.7790    0.4750 C   0  0  0  0  0  0  0  0  0  0  0  0
    2.6800   13.3790   -1.5960 C   0  0  0  0  0  0  0  0  0  0  0  0
    1.7950   12.4350   -2.4320 C   0  0  0  0  0  0  0  0  0  0  0  0
    0.6840   11.8220   -1.5730 C   0  0  2  0  0  0  0  0  0  0  0  0
    1.3650   10.9540   -0.4600 C   0  0  0  0  0  0  0  0  0  0  0  0
   -0.8132    8.4921   -4.3687 H   0  0  0  0  0  0  0  0  0  0  0  0
   -0.4947   10.2373   -4.6505 H   0  0  0  0  0  0  0  0  0  0  0  0
    0.8659    9.0646   -4.6505 H   0  0  0  0  0  0  0  0  0  0  0  0
    1.1446    9.3870   -2.4646 H   0  0  0  0  0  0  0  0  0  0  0  0
   -0.3722    7.4848   -2.1509 H   0  0  0  0  0  0  0  0  0  0  0  0
   -0.5104    8.7116   -0.8018 H   0  0  0  0  0  0  0  0  0  0  0  0
   -2.7042    8.7249   -1.0789 H   0  0  0  0  0  0  0  0  0  0  0  0
   -2.4413    9.4030   -2.7399 H   0  0  0  0  0  0  0  0  0  0  0  0
   -1.7952    6.8146   -2.5716 H   0  0  0  0  0  0  0  0  0  0  0  0
   -4.9196    7.3979   -0.5285 H   0  0  0  0  0  0  0  0  0  0  0  0
   -5.0659    8.6566   -1.8017 H   0  0  0  0  0  0  0  0  0  0  0  0
   -6.1776    7.2457   -1.8017 H   0  0  0  0  0  0  0  0  0  0  0  0
   -4.5914    4.8697   -1.6934 H   0  0  0  0  0  0  0  0  0  0  0  0
   -5.4256    5.2725   -3.2324 H   0  0  0  0  0  0  0  0  0  0  0  0
   -3.6661    4.9109   -3.2324 H   0  0  0  0  0  0  0  0  0  0  0  0
   -0.5547   11.3451   -3.3080 H   0  0  0  0  0  0  0  0  0  0  0  0
   -2.5010   11.0663   -1.9035 H   0  0  0  0  0  0  0  0  0  0  0  0
   -1.6306   10.0049   -0.7757 H   0  0  0  0  0  0  0  0  0  0  0  0
   -2.2844   12.7473   -0.3062 H   0  0  0  0  0  0  0  0  0  0  0  0
   -1.1102   11.8368    0.6400 H   0  0  0  0  0  0  0  0  0  0  0  0
   -1.5801   14.5810   -1.6795 H   0  0  0  0  0  0  0  0  0  0  0  0
   -0.1796   14.3139   -2.7722 H   0  0  0  0  0  0  0  0  0  0  0  0
   -1.5526   13.1556   -2.7722 H   0  0  0  0  0  0  0  0  0  0  0  0
    0.9032   13.1808    0.7153 H   0  0  0  0  0  0  0  0  0  0  0  0
   -1.2207   14.6381    0.7762 H   0  0  0  0  0  0  0  0  0  0  0  0
    0.3395   15.1944    1.5795 H   0  0  0  0  0  0  0  0  0  0  0  0
   -1.0037   17.0281    0.2473 H   0  0  0  0  0  0  0  0  0  0  0  0
    1.3688   15.3393   -2.5497 H   0  0  0  0  0  0  0  0  0  0  0  0
    3.3012   16.9731   -0.7915 H   0  0  0  0  0  0  0  0  0  0  0  0
    3.7341   15.9547   -2.2358 H   0  0  0  0  0  0  0  0  0  0  0  0
    3.6922   18.3696   -2.7720 H   0  0  0  0  0  0  0  0  0  0  0  0
    2.4581   17.4209   -3.6903 H   0  0  0  0  0  0  0  0  0  0  0  0
    1.4549   19.4663   -2.9371 H   0  0  0  0  0  0  0  0  0  0  0  0
    1.4690   20.0140   -0.7240 H   0  0  0  0  0  0  0  0  0  0  0  0
   -1.2472   17.0021   -3.1126 H   0  0  0  0  0  0  0  0  0  0  0  0
   -0.5541   18.4826   -3.8571 H   0  0  0  0  0  0  0  0  0  0  0  0
    0.3868   16.9525   -3.8571 H   0  0  0  0  0  0  0  0  0  0  0  0
   -0.5961   18.8742   -0.1660 H   0  0  0  0  0  0  0  0  0  0  0  0
   -0.4280   19.9815   -1.5704 H   0  0  0  0  0  0  0  0  0  0  0  0
   -1.7052   18.7184   -1.5704 H   0  0  0  0  0  0  0  0  0  0  0  0
    2.3740   14.5999    1.4265 H   0  0  0  0  0  0  0  0  0  0  0  0
    3.7858   14.1347    0.4180 H   0  0  0  0  0  0  0  0  0  0  0  0
    3.2028   15.8338    0.4180 H   0  0  0  0  0  0  0  0  0  0  0  0
    3.3392   13.9193   -2.2913 H   0  0  0  0  0  0  0  0  0  0  0  0
    3.2000   12.7258   -0.8798 H   0  0  0  0  0  0  0  0  0  0  0  0
    1.3402   13.0039   -3.2563 H   0  0  0  0  0  0  0  0  0  0  0  0
    2.4230   11.6223   -2.8260 H   0  0  0  0  0  0  0  0  0  0  0  0
    1.0697   11.3304    0.5305 H   0  0  0  0  0  0  0  0  0  0  0  0
    1.0450    9.9068   -0.5646 H   0  0  0  0  0  0  0  0  0  0  0  0
    2.4583   11.0156   -0.5646 H   0  0  0  0  0  0  0  0  0  0  0  0
  1  2  1  0
  2  3  1  0
  3  4  1  0
  4  5  1  0
  5  6  1  0
  6  7  1  0
  7  8  1  0
  7  9  1  0
  2 10  1  0
 10 11  1  0
 11 12  1  0
 12 13  1  0
 13 14  1  6
 13 15  1  0
 15 16  1  0
 16 17  1  0
 17 18  2  0
 18 19  1  0
 19 20  1  0
 20 21  1  0
 21 22  1  0
 22 23  1  0
 22 24  1  0
 24 25  1  0
 24 26  1  0
 19 27  1  0
 27 28  1  1
 27 29  1  0
 29 30  1  0
 30 31  1  0
 31 32  1  1
  7  5  1  0
 31 10  1  0
 31 13  1  0
 27 15  1  0
 24 18  1  0
  1 33  1  0
  1 34  1  0
  1 35  1  0
  2 36  1  6
  3 37  1  0
  3 38  1  0
  4 39  1  0
  4 40  1  0
  5 41  1  6
  8 42  1  0
  8 43  1  0
  8 44  1  0
  9 45  1  0
  9 46  1  0
  9 47  1  0
 10 48  1  6
 11 49  1  0
 11 50  1  0
 12 51  1  0
 12 52  1  0
 14 53  1  0
 14 54  1  0
 14 55  1  0
 15 56  1  1
 16 57  1  0
 16 58  1  0
 17 59  1  0
 19 60  1  6
 20 61  1  0
 20 62  1  0
 21 63  1  0
 21 64  1  0
 22 65  1  6
 23 66  1  0
 25 67  1  0
 25 68  1  0
 25 69  1  0
 26 70  1  0
 26 71  1  0
 26 72  1  0
 28 73  1  0
 28 74  1  0
 28 75  1  0
 29 76  1  0
 29 77  1  0
 30 78  1  0
 30 79  1  0
 32 80  1  0
 32 81  1  0
 32 82  1  0
M  END
>  <meeko>  (19) 
{"is_sidechain": [false], "intermolecular_energy": 2.731, "internal_energy": -0.839}

$$$$
EPH_relaxed_0001_pdb2pqr_Repair_71_r2_0001_out
     RDKit          3D

 82 86  0  0  0  0  0  0  0  0999 V2000
   -2.4530    7.7380   -0.0780 C   0  0  0  0  0  0  0  0  0  0  0  0
   -3.0690    9.1390   -0.0550 C   0  0  2  0  0  0  0  0  0  0  0  0
   -4.5650    9.1220   -0.4280 C   0  0  0  0  0  0  0  0  0  0  0  0
   -5.1730    7.7180   -0.4680 C   0  0  0  0  0  0  0  0  0  0  0  0
   -5.8670    7.4510   -1.7690 C   0  0  2  0  0  0  0  0  0  0  0  0
   -6.7970    8.4650   -2.1710 O   0  0  0  0  0  0  0  0  0  0  0  0
   -7.3550    7.1730   -1.8830 C   0  0  0  0  0  0  0  0  0  0  0  0
   -8.2380    7.1470   -0.6750 C   0  0  0  0  0  0  0  0  0  0  0  0
   -7.8570    6.4490   -3.0930 C   0  0  0  0  0  0  0  0  0  0  0  0
   -2.3060   10.0580   -1.0020 C   0  0  1  0  0  0  0  0  0  0  0  0
   -2.9580   11.4610   -1.1270 C   0  0  0  0  0  0  0  0  0  0  0  0
   -1.8000   12.4780   -1.2960 C   0  0  0  0  0  0  0  0  0  0  0  0
   -0.5570   11.6090   -1.5940 C   0  0  1  0  0  0  0  0  0  0  0  0
   -0.6550   11.2770   -3.1160 C   0  0  0  0  0  0  0  0  0  0  0  0
    0.8280   12.2340   -1.2290 C   0  0  2  0  0  0  0  0  0  0  0  0
    1.1860   13.5200   -1.9940 C   0  0  0  0  0  0  0  0  0  0  0  0
    1.9320   13.3150   -3.2710 C   0  0  0  0  0  0  0  0  0  0  0  0
    2.5480   12.1780   -3.6440 C   0  0  0  0  0  0  0  0  0  0  0  0
    2.6150   10.9720   -2.6970 C   0  0  1  0  0  0  0  0  0  0  0  0
    4.0600   10.4100   -2.6770 C   0  0  0  0  0  0  0  0  0  0  0  0
    4.5820   10.0860   -4.0730 C   0  0  0  0  0  0  0  0  0  0  0  0
    4.5540   11.3230   -4.9670 C   0  0  2  0  0  0  0  0  0  0  0  0
    5.5000   12.2730   -4.4690 O   0  0  0  0  0  0  0  0  0  0  0  0
    3.1490   11.9820   -5.0570 C   0  0  0  0  0  0  0  0  0  0  0  0
    2.1970   11.0690   -5.8680 C   0  0  0  0  0  0  0  0  0  0  0  0
    3.2900   13.2960   -5.8720 C   0  0  0  0  0  0  0  0  0  0  0  0
    2.0290   11.2030   -1.2380 C   0  0  1  0  0  0  0  0  0  0  0  0
    3.1320   11.7950   -0.3090 C   0  0  0  0  0  0  0  0  0  0  0  0
    1.6270    9.8120   -0.6200 C   0  0  0  0  0  0  0  0  0  0  0  0
    0.2040    9.3030   -0.9190 C   0  0  0  0  0  0  0  0  0  0  0  0
   -0.8370   10.3920   -0.6390 C   0  0  2  0  0  0  0  0  0  0  0  0
   -0.7770   10.7300    0.8890 C   0  0  0  0  0  0  0  0  0  0  0  0
   -2.2992    7.3881    0.9535 H   0  0  0  0  0  0  0  0  0  0  0  0
   -3.1308    7.0480   -0.6020 H   0  0  0  0  0  0  0  0  0  0  0  0
   -1.4864    7.7710   -0.6020 H   0  0  0  0  0  0  0  0  0  0  0  0
   -2.9902    9.5182    0.9746 H   0  0  0  0  0  0  0  0  0  0  0  0
   -5.1151    9.7176    0.3154 H   0  0  0  0  0  0  0  0  0  0  0  0
   -4.6480    9.5374   -1.4432 H   0  0  0  0  0  0  0  0  0  0  0  0
   -4.3702    6.9780   -0.3338 H   0  0  0  0  0  0  0  0  0  0  0  0
   -5.9169    7.6435    0.3389 H   0  0  0  0  0  0  0  0  0  0  0  0
   -4.9853    6.9198   -2.1567 H   0  0  0  0  0  0  0  0  0  0  0  0
   -7.6176    7.1653    0.2331 H   0  0  0  0  0  0  0  0  0  0  0  0
   -8.8992    8.0261   -0.6851 H   0  0  0  0  0  0  0  0  0  0  0  0
   -8.8463    6.2306   -0.6851 H   0  0  0  0  0  0  0  0  0  0  0  0
   -8.4577    5.5827   -2.7790 H   0  0  0  0  0  0  0  0  0  0  0  0
   -8.4792    7.1279   -3.6946 H   0  0  0  0  0  0  0  0  0  0  0  0
   -7.0030    6.1044   -3.6946 H   0  0  0  0  0  0  0  0  0  0  0  0
   -2.3383    9.4482   -1.9169 H   0  0  0  0  0  0  0  0  0  0  0  0
   -3.6219   11.4936   -2.0035 H   0  0  0  0  0  0  0  0  0  0  0  0
   -3.5639   11.6958   -0.2395 H   0  0  0  0  0  0  0  0  0  0  0  0
   -2.0041   13.1632   -2.1320 H   0  0  0  0  0  0  0  0  0  0  0  0
   -1.6645   13.1073   -0.4040 H   0  0  0  0  0  0  0  0  0  0  0  0
   -0.9643   10.2291   -3.2435 H   0  0  0  0  0  0  0  0  0  0  0  0
   -1.3963   11.9382   -3.5885 H   0  0  0  0  0  0  0  0  0  0  0  0
    0.3265   11.4297   -3.5885 H   0  0  0  0  0  0  0  0  0  0  0  0
    0.6786   12.5400   -0.1830 H   0  0  0  0  0  0  0  0  0  0  0  0
    0.2499   14.0481   -2.2281 H   0  0  0  0  0  0  0  0  0  0  0  0
    1.8594   14.0885   -1.3357 H   0  0  0  0  0  0  0  0  0  0  0  0
    1.9824   14.1659   -3.9663 H   0  0  0  0  0  0  0  0  0  0  0  0
    1.9280   10.2200   -3.1122 H   0  0  0  0  0  0  0  0  0  0  0  0
    4.7228   11.1582   -2.2178 H   0  0  0  0  0  0  0  0  0  0  0  0
    4.0455    9.4732   -2.1007 H   0  0  0  0  0  0  0  0  0  0  0  0
    5.6170    9.7219   -3.9947 H   0  0  0  0  0  0  0  0  0  0  0  0
    3.9358    9.3158   -4.5193 H   0  0  0  0  0  0  0  0  0  0  0  0
    4.8145   10.9999   -5.9857 H   0  0  0  0  0  0  0  0  0  0  0  0
    5.5260   12.1830   -3.5010 H   0  0  0  0  0  0  0  0  0  0  0  0
    1.5795   10.4768   -5.1766 H   0  0  0  0  0  0  0  0  0  0  0  0
    1.5459   11.6890   -6.5018 H   0  0  0  0  0  0  0  0  0  0  0  0
    2.7893   10.3926   -6.5018 H   0  0  0  0  0  0  0  0  0  0  0  0
    3.3814   14.1476   -5.1817 H   0  0  0  0  0  0  0  0  0  0  0  0
    4.1873   13.2398   -6.5058 H   0  0  0  0  0  0  0  0  0  0  0  0
    2.4012   13.4315   -6.5058 H   0  0  0  0  0  0  0  0  0  0  0  0
    2.8469   11.6420    0.7423 H   0  0  0  0  0  0  0  0  0  0  0  0
    4.0885   11.2890   -0.5069 H   0  0  0  0  0  0  0  0  0  0  0  0
    3.2390   12.8718   -0.5069 H   0  0  0  0  0  0  0  0  0  0  0  0
    2.3355    9.0617   -1.0009 H   0  0  0  0  0  0  0  0  0  0  0  0
    1.6553    9.9626    0.4693 H   0  0  0  0  0  0  0  0  0  0  0  0
    0.1417    9.0089   -1.9771 H   0  0  0  0  0  0  0  0  0  0  0  0
   -0.0050    8.4416   -0.2676 H   0  0  0  0  0  0  0  0  0  0  0  0
   -0.9398    9.8128    1.4741 H   0  0  0  0  0  0  0  0  0  0  0  0
    0.2098   11.1503    1.1331 H   0  0  0  0  0  0  0  0  0  0  0  0
   -1.5588   11.4643    1.1331 H   0  0  0  0  0  0  0  0  0  0  0  0
  1  2  1  0
  2  3  1  0
  3  4  1  0
  4  5  1  0
  5  6  1  0
  6  7  1  0
  7  8  1  0
  7  9  1  0
  2 10  1  0
 10 11  1  0
 11 12  1  0
 12 13  1  0
 13 14  1  6
 13 15  1  0
 15 16  1  0
 16 17  1  0
 17 18  2  0
 18 19  1  0
 19 20  1  0
 20 21  1  0
 21 22  1  0
 22 23  1  0
 22 24  1  0
 24 25  1  0
 24 26  1  0
 19 27  1  0
 27 28  1  1
 27 29  1  0
 29 30  1  0
 30 31  1  0
 31 32  1  1
  7  5  1  0
 31 10  1  0
 31 13  1  0
 27 15  1  0
 24 18  1  0
  1 33  1  0
  1 34  1  0
  1 35  1  0
  2 36  1  1
  3 37  1  0
  3 38  1  0
  4 39  1  0
  4 40  1  0
  5 41  1  6
  8 42  1  0
  8 43  1  0
  8 44  1  0
  9 45  1  0
  9 46  1  0
  9 47  1  0
 10 48  1  6
 11 49  1  0
 11 50  1  0
 12 51  1  0
 12 52  1  0
 14 53  1  0
 14 54  1  0
 14 55  1  0
 15 56  1  1
 16 57  1  0
 16 58  1  0
 17 59  1  0
 19 60  1  6
 20 61  1  0
 20 62  1  0
 21 63  1  0
 21 64  1  0
 22 65  1  6
 23 66  1  0
 25 67  1  0
 25 68  1  0
 25 69  1  0
 26 70  1  0
 26 71  1  0
 26 72  1  0
 28 73  1  0
 28 74  1  0
 28 75  1  0
 29 76  1  0
 29 77  1  0
 30 78  1  0
 30 79  1  0
 32 80  1  0
 32 81  1  0
 32 82  1  0
M  END
>  <meeko>  (20) 
{"is_sidechain": [false], "intermolecular_energy": 2.731, "internal_energy": -0.839}

$$$$
