EPH_relaxed_0001_pdb2pqr_Repair_181_r2_0001_out
     RDKit          3D

 82 86  0  0  0  0  0  0  0  0999 V2000
   -1.6780    8.6650   -1.7720 C   0  0  0  0  0  0  0  0  0  0  0  0
   -2.1180    9.2190   -0.4140 C   0  0  2  0  0  0  0  0  0  0  0  0
   -3.6170    9.5780   -0.3910 C   0  0  0  0  0  0  0  0  0  0  0  0
   -4.5380    8.3630   -0.2400 C   0  0  0  0  0  0  0  0  0  0  0  0
   -5.1930    8.0000   -1.5380 C   0  0  2  0  0  0  0  0  0  0  0  0
   -6.3840    8.7410   -1.8350 O   0  0  0  0  0  0  0  0  0  0  0  0
   -6.5500    7.3280   -1.6310 C   0  0  0  0  0  0  0  0  0  0  0  0
   -7.3330    6.9780   -0.4040 C   0  0  0  0  0  0  0  0  0  0  0  0
   -6.8920    6.5750   -2.8790 C   0  0  0  0  0  0  0  0  0  0  0  0
   -1.2840   10.4450   -0.0590 C   0  0  1  0  0  0  0  0  0  0  0  0
   -0.2450   10.1570    1.0590 C   0  0  0  0  0  0  0  0  0  0  0  0
    1.0070   11.0130    0.7370 C   0  0  0  0  0  0  0  0  0  0  0  0
    0.5320   12.0040   -0.3520 C   0  0  1  0  0  0  0  0  0  0  0  0
   -0.1980   13.1400    0.4310 C   0  0  0  0  0  0  0  0  0  0  0  0
    1.6390   12.5740   -1.2970 C   0  0  2  0  0  0  0  0  0  0  0  0
    2.7260   13.4110   -0.5990 C   0  0  0  0  0  0  0  0  0  0  0  0
    2.4440   14.8740   -0.5090 C   0  0  0  0  0  0  0  0  0  0  0  0
    1.5060   15.5350   -1.2140 C   0  0  0  0  0  0  0  0  0  0  0  0
    0.6760   14.8180   -2.2860 C   0  0  1  0  0  0  0  0  0  0  0  0
    0.6300   15.6850   -3.5710 C   0  0  0  0  0  0  0  0  0  0  0  0
    0.1360   17.1040   -3.3020 C   0  0  0  0  0  0  0  0  0  0  0  0
    1.0210   17.8040   -2.2750 C   0  0  2  0  0  0  0  0  0  0  0  0
    2.3190   18.0030   -2.8440 O   0  0  0  0  0  0  0  0  0  0  0  0
    1.1510   17.0170   -0.9400 C   0  0  0  0  0  0  0  0  0  0  0  0
   -0.1960   17.0620   -0.1770 C   0  0  0  0  0  0  0  0  0  0  0  0
    2.1810   17.7600   -0.0470 C   0  0  0  0  0  0  0  0  0  0  0  0
    1.0790   13.3100   -2.5820 C   0  0  1  0  0  0  0  0  0  0  0  0
    2.2130   13.2620   -3.6510 C   0  0  0  0  0  0  0  0  0  0  0  0
   -0.1550   12.5610   -3.2090 C   0  0  0  0  0  0  0  0  0  0  0  0
   -1.1500   11.9160   -2.2250 C   0  0  0  0  0  0  0  0  0  0  0  0
   -0.4170   11.0660   -1.1830 C   0  0  2  0  0  0  0  0  0  0  0  0
    0.3090    9.9020   -1.9390 C   0  0  0  0  0  0  0  0  0  0  0  0
   -1.0006    7.8121   -1.6180 H   0  0  0  0  0  0  0  0  0  0  0  0
   -2.5620    8.3339   -2.3368 H   0  0  0  0  0  0  0  0  0  0  0  0
   -1.1553    9.4510   -2.3368 H   0  0  0  0  0  0  0  0  0  0  0  0
   -1.9564    8.4288    0.3340 H   0  0  0  0  0  0  0  0  0  0  0  0
   -3.7984   10.2586    0.4539 H   0  0  0  0  0  0  0  0  0  0  0  0
   -3.8519   10.0415   -1.3605 H   0  0  0  0  0  0  0  0  0  0  0  0
   -3.9438    7.5066    0.1113 H   0  0  0  0  0  0  0  0  0  0  0  0
   -5.3269    8.6181    0.4829 H   0  0  0  0  0  0  0  0  0  0  0  0
   -4.2191    7.7610   -1.9900 H   0  0  0  0  0  0  0  0  0  0  0  0
   -6.7488    7.2392    0.4907 H   0  0  0  0  0  0  0  0  0  0  0  0
   -8.2793    7.5388   -0.4006 H   0  0  0  0  0  0  0  0  0  0  0  0
   -7.5463    5.8989   -0.4006 H   0  0  0  0  0  0  0  0  0  0  0  0
   -7.3333    5.6035   -2.6118 H   0  0  0  0  0  0  0  0  0  0  0  0
   -7.6148    7.1556   -3.4711 H   0  0  0  0  0  0  0  0  0  0  0  0
   -5.9793    6.4127   -3.4711 H   0  0  0  0  0  0  0  0  0  0  0  0
   -2.0887   11.1401    0.2226 H   0  0  0  0  0  0  0  0  0  0  0  0
   -0.6554   10.4399    2.0396 H   0  0  0  0  0  0  0  0  0  0  0  0
    0.0073    9.0870    1.0978 H   0  0  0  0  0  0  0  0  0  0  0  0
    1.3485   11.5538    1.6320 H   0  0  0  0  0  0  0  0  0  0  0  0
    1.8566   10.4001    0.4016 H   0  0  0  0  0  0  0  0  0  0  0  0
   -0.0882   12.9692    1.5121 H   0  0  0  0  0  0  0  0  0  0  0  0
    0.2455   14.1112    0.1663 H   0  0  0  0  0  0  0  0  0  0  0  0
   -1.2657   13.1401    0.1663 H   0  0  0  0  0  0  0  0  0  0  0  0
    2.1433   11.6610   -1.6463 H   0  0  0  0  0  0  0  0  0  0  0  0
    2.8481   13.0248    0.4237 H   0  0  0  0  0  0  0  0  0  0  0  0
    3.6302   13.3127   -1.2177 H   0  0  0  0  0  0  0  0  0  0  0  0
    3.0539   15.4621    0.1925 H   0  0  0  0  0  0  0  0  0  0  0  0
   -0.3363   14.7156   -1.8680 H   0  0  0  0  0  0  0  0  0  0  0  0
    1.6429   15.7389   -3.9965 H   0  0  0  0  0  0  0  0  0  0  0  0
   -0.0771   15.2117   -4.2681 H   0  0  0  0  0  0  0  0  0  0  0  0
    0.1538   17.6756   -4.2417 H   0  0  0  0  0  0  0  0  0  0  0  0
   -0.8881   17.0497   -2.9041 H   0  0  0  0  0  0  0  0  0  0  0  0
    0.5438   18.7639   -2.0283 H   0  0  0  0  0  0  0  0  0  0  0  0
    2.4320   17.3490   -3.5550 H   0  0  0  0  0  0  0  0  0  0  0  0
   -0.0043   17.0556    0.9061 H   0  0  0  0  0  0  0  0  0  0  0  0
   -0.7402   17.9788   -0.4476 H   0  0  0  0  0  0  0  0  0  0  0  0
   -0.8002   16.1835   -0.4476 H   0  0  0  0  0  0  0  0  0  0  0  0
    1.9405   17.5865    1.0123 H   0  0  0  0  0  0  0  0  0  0  0  0
    3.1916   17.3816   -0.2603 H   0  0  0  0  0  0  0  0  0  0  0  0
    2.1407   18.8384   -0.2603 H   0  0  0  0  0  0  0  0  0  0  0  0
    3.1901   13.2206   -3.1474 H   0  0  0  0  0  0  0  0  0  0  0  0
    2.0865   12.3684   -4.2799 H   0  0  0  0  0  0  0  0  0  0  0  0
    2.1625   14.1631   -4.2799 H   0  0  0  0  0  0  0  0  0  0  0  0
   -0.7125   13.2890   -3.8165 H   0  0  0  0  0  0  0  0  0  0  0  0
    0.2752   11.7215   -3.7748 H   0  0  0  0  0  0  0  0  0  0  0  0
   -1.7131   12.7090   -1.7110 H   0  0  0  0  0  0  0  0  0  0  0  0
   -1.8320   11.2652   -2.7918 H   0  0  0  0  0  0  0  0  0  0  0  0
    0.7438    9.2048   -1.2077 H   0  0  0  0  0  0  0  0  0  0  0  0
   -0.4156    9.3666   -2.5701 H   0  0  0  0  0  0  0  0  0  0  0  0
    1.1086   10.3172   -2.5701 H   0  0  0  0  0  0  0  0  0  0  0  0
  1  2  1  0
  2  3  1  0
  3  4  1  0
  4  5  1  0
  5  6  1  0
  6  7  1  0
  7  8  1  0
  7  9  1  0
  2 10  1  0
 10 11  1  0
 11 12  1  0
 12 13  1  0
 13 14  1  1
 13 15  1  0
 15 16  1  0
 16 17  1  0
 17 18  2  0
 18 19  1  0
 19 20  1  0
 20 21  1  0
 21 22  1  0
 22 23  1  0
 22 24  1  0
 24 25  1  0
 24 26  1  0
 19 27  1  0
 27 28  1  6
 27 29  1  0
 29 30  1  0
 30 31  1  0
 31 32  1  6
  7  5  1  0
 31 10  1  0
 31 13  1  0
 27 15  1  0
 24 18  1  0
  1 33  1  0
  1 34  1  0
  1 35  1  0
  2 36  1  1
  3 37  1  0
  3 38  1  0
  4 39  1  0
  4 40  1  0
  5 41  1  6
  8 42  1  0
  8 43  1  0
  8 44  1  0
  9 45  1  0
  9 46  1  0
  9 47  1  0
 10 48  1  1
 11 49  1  0
 11 50  1  0
 12 51  1  0
 12 52  1  0
 14 53  1  0
 14 54  1  0
 14 55  1  0
 15 56  1  6
 16 57  1  0
 16 58  1  0
 17 59  1  0
 19 60  1  1
 20 61  1  0
 20 62  1  0
 21 63  1  0
 21 64  1  0
 22 65  1  1
 23 66  1  0
 25 67  1  0
 25 68  1  0
 25 69  1  0
 26 70  1  0
 26 71  1  0
 26 72  1  0
 28 73  1  0
 28 74  1  0
 28 75  1  0
 29 76  1  0
 29 77  1  0
 30 78  1  0
 30 79  1  0
 32 80  1  0
 32 81  1  0
 32 82  1  0
M  END
>  <meeko>  (1) 
{"is_sidechain": [false], "intermolecular_energy": 2.731, "internal_energy": -0.839}

$$$$
EPH_relaxed_0001_pdb2pqr_Repair_181_r2_0001_out
     RDKit          3D

 82 86  0  0  0  0  0  0  0  0999 V2000
    2.3200   18.0560   -2.6210 C   0  0  0  0  0  0  0  0  0  0  0  0
    1.0390   17.6490   -1.8870 C   0  0  2  0  0  0  0  0  0  0  0  0
    1.2090   17.6930   -0.3550 C   0  0  0  0  0  0  0  0  0  0  0  0
    0.8760   19.0540    0.2620 C   0  0  0  0  0  0  0  0  0  0  0  0
   -0.5710   19.1530    0.6400 C   0  0  2  0  0  0  0  0  0  0  0  0
   -1.4400   18.2700   -0.0820 O   0  0  0  0  0  0  0  0  0  0  0  0
   -1.6460   19.6760   -0.2950 C   0  0  0  0  0  0  0  0  0  0  0  0
   -1.3190   20.1370   -1.6800 C   0  0  0  0  0  0  0  0  0  0  0  0
   -2.9190   20.1940    0.2980 C   0  0  0  0  0  0  0  0  0  0  0  0
    0.6120   16.2530   -2.3230 C   0  0  1  0  0  0  0  0  0  0  0  0
    0.8240   16.0100   -3.8410 C   0  0  0  0  0  0  0  0  0  0  0  0
    1.2250   14.5210   -4.0040 C   0  0  0  0  0  0  0  0  0  0  0  0
    0.9100   13.8800   -2.6330 C   0  0  1  0  0  0  0  0  0  0  0  0
   -0.6250   13.6000   -2.6640 C   0  0  0  0  0  0  0  0  0  0  0  0
    1.7230   12.5960   -2.2670 C   0  0  2  0  0  0  0  0  0  0  0  0
    1.5030   11.3950   -3.2040 C   0  0  0  0  0  0  0  0  0  0  0  0
    0.4010   10.4700   -2.8060 C   0  0  0  0  0  0  0  0  0  0  0  0
   -0.1930   10.4340   -1.5990 C   0  0  0  0  0  0  0  0  0  0  0  0
    0.3040   11.3210   -0.4500 C   0  0  1  0  0  0  0  0  0  0  0  0
    0.4230   10.4740    0.8440 C   0  0  0  0  0  0  0  0  0  0  0  0
   -0.8720    9.7450    1.1880 C   0  0  0  0  0  0  0  0  0  0  0  0
   -1.3020    8.8290    0.0450 C   0  0  2  0  0  0  0  0  0  0  0  0
   -0.3470    7.7720   -0.0830 O   0  0  0  0  0  0  0  0  0  0  0  0
   -1.4460    9.5700   -1.3140 C   0  0  0  0  0  0  0  0  0  0  0  0
   -2.6800   10.5050   -1.2680 C   0  0  0  0  0  0  0  0  0  0  0  0
   -1.7450    8.5100   -2.4070 C   0  0  0  0  0  0  0  0  0  0  0  0
    1.6140   12.1700   -0.7470 C   0  0  1  0  0  0  0  0  0  0  0  0
    2.8820   11.3200   -0.4300 C   0  0  0  0  0  0  0  0  0  0  0  0
    1.6550   13.4080    0.2250 C   0  0  0  0  0  0  0  0  0  0  0  0
    0.9340   14.6860   -0.2460 C   0  0  0  0  0  0  0  0  0  0  0  0
    1.3430   15.0500   -1.6760 C   0  0  2  0  0  0  0  0  0  0  0  0
    2.8790   15.3590   -1.6710 C   0  0  0  0  0  0  0  0  0  0  0  0
    3.1004   18.3040   -1.8865 H   0  0  0  0  0  0  0  0  0  0  0  0
    2.6618   17.2222   -3.2518 H   0  0  0  0  0  0  0  0  0  0  0  0
    2.1179   18.9342   -3.2518 H   0  0  0  0  0  0  0  0  0  0  0  0
    0.2589   18.3771   -2.1539 H   0  0  0  0  0  0  0  0  0  0  0  0
    0.5444   16.9379    0.0901 H   0  0  0  0  0  0  0  0  0  0  0  0
    2.2701   17.4949   -0.1433 H   0  0  0  0  0  0  0  0  0  0  0  0
    1.4903   19.1966    1.1633 H   0  0  0  0  0  0  0  0  0  0  0  0
    1.0883   19.8310   -0.4872 H   0  0  0  0  0  0  0  0  0  0  0  0
   -0.3072   19.4079    1.6770 H   0  0  0  0  0  0  0  0  0  0  0  0
   -0.6833   21.0332   -1.6276 H   0  0  0  0  0  0  0  0  0  0  0  0
   -0.7841   19.3388   -2.2154 H   0  0  0  0  0  0  0  0  0  0  0  0
   -2.2492   20.3780   -2.2154 H   0  0  0  0  0  0  0  0  0  0  0  0
   -2.8503   20.1660    1.3955 H   0  0  0  0  0  0  0  0  0  0  0  0
   -3.0826   21.2302   -0.0329 H   0  0  0  0  0  0  0  0  0  0  0  0
   -3.7596   19.5664   -0.0329 H   0  0  0  0  0  0  0  0  0  0  0  0
   -0.4389   16.2729   -1.9986 H   0  0  0  0  0  0  0  0  0  0  0  0
   -0.1066   16.2141   -4.3909 H   0  0  0  0  0  0  0  0  0  0  0  0
    1.6029   16.6750   -4.2424 H   0  0  0  0  0  0  0  0  0  0  0  0
    0.6342   14.0447   -4.8003 H   0  0  0  0  0  0  0  0  0  0  0  0
    2.2812   14.4020   -4.2873 H   0  0  0  0  0  0  0  0  0  0  0  0
   -1.0059   13.5305   -1.6344 H   0  0  0  0  0  0  0  0  0  0  0  0
   -1.1367   14.4196   -3.1897 H   0  0  0  0  0  0  0  0  0  0  0  0
   -0.8143   12.6525   -3.1897 H   0  0  0  0  0  0  0  0  0  0  0  0
    2.7610   12.9196   -2.4339 H   0  0  0  0  0  0  0  0  0  0  0  0
    1.2748   11.7839   -4.2073 H   0  0  0  0  0  0  0  0  0  0  0  0
    2.4286   10.8021   -3.1617 H   0  0  0  0  0  0  0  0  0  0  0  0
    0.0441    9.7571   -3.5639 H   0  0  0  0  0  0  0  0  0  0  0  0
   -0.4595   12.1014   -0.3156 H   0  0  0  0  0  0  0  0  0  0  0  0
    1.2207    9.7293    0.7057 H   0  0  0  0  0  0  0  0  0  0  0  0
    0.6493   11.1610    1.6727 H   0  0  0  0  0  0  0  0  0  0  0  0
   -0.7155    9.1411    2.0940 H   0  0  0  0  0  0  0  0  0  0  0  0
   -1.6618   10.4920    1.3557 H   0  0  0  0  0  0  0  0  0  0  0  0
   -2.2986    8.4362    0.2950 H   0  0  0  0  0  0  0  0  0  0  0  0
   -0.7590    7.0640   -0.6070 H   0  0  0  0  0  0  0  0  0  0  0  0
   -2.9476   10.7077   -0.2205 H   0  0  0  0  0  0  0  0  0  0  0  0
   -2.4420   11.4515   -1.7754 H   0  0  0  0  0  0  0  0  0  0  0  0
   -3.5268   10.0198   -1.7754 H   0  0  0  0  0  0  0  0  0  0  0  0
   -2.0140    7.5564   -1.9292 H   0  0  0  0  0  0  0  0  0  0  0  0
   -2.5809    8.8549   -3.0333 H   0  0  0  0  0  0  0  0  0  0  0  0
   -0.8521    8.3672   -3.0333 H   0  0  0  0  0  0  0  0  0  0  0  0
    3.0051   11.2375    0.6600 H   0  0  0  0  0  0  0  0  0  0  0  0
    2.7677   10.3154   -0.8632 H   0  0  0  0  0  0  0  0  0  0  0  0
    3.7679   11.8074   -0.8632 H   0  0  0  0  0  0  0  0  0  0  0  0
    1.1973   13.0993    1.1764 H   0  0  0  0  0  0  0  0  0  0  0  0
    2.7173   13.6854    0.2927 H   0  0  0  0  0  0  0  0  0  0  0  0
   -0.1527   14.5187   -0.2140 H   0  0  0  0  0  0  0  0  0  0  0  0
    1.2157   15.5140    0.4211 H   0  0  0  0  0  0  0  0  0  0  0  0
    3.2352   15.4307   -0.6327 H   0  0  0  0  0  0  0  0  0  0  0  0
    3.4172   14.5511   -2.1884 H   0  0  0  0  0  0  0  0  0  0  0  0
    3.0630   16.3121   -2.1884 H   0  0  0  0  0  0  0  0  0  0  0  0
  1  2  1  0
  2  3  1  0
  3  4  1  0
  4  5  1  0
  5  6  1  0
  6  7  1  0
  7  8  1  0
  7  9  1  0
  2 10  1  0
 10 11  1  0
 11 12  1  0
 12 13  1  0
 13 14  1  6
 13 15  1  0
 15 16  1  0
 16 17  1  0
 17 18  2  0
 18 19  1  0
 19 20  1  0
 20 21  1  0
 21 22  1  0
 22 23  1  0
 22 24  1  0
 24 25  1  0
 24 26  1  0
 19 27  1  0
 27 28  1  1
 27 29  1  0
 29 30  1  0
 30 31  1  0
 31 32  1  1
  7  5  1  0
 31 10  1  0
 31 13  1  0
 27 15  1  0
 24 18  1  0
  1 33  1  0
  1 34  1  0
  1 35  1  0
  2 36  1  1
  3 37  1  0
  3 38  1  0
  4 39  1  0
  4 40  1  0
  5 41  1  1
  8 42  1  0
  8 43  1  0
  8 44  1  0
  9 45  1  0
  9 46  1  0
  9 47  1  0
 10 48  1  6
 11 49  1  0
 11 50  1  0
 12 51  1  0
 12 52  1  0
 14 53  1  0
 14 54  1  0
 14 55  1  0
 15 56  1  1
 16 57  1  0
 16 58  1  0
 17 59  1  0
 19 60  1  1
 20 61  1  0
 20 62  1  0
 21 63  1  0
 21 64  1  0
 22 65  1  1
 23 66  1  0
 25 67  1  0
 25 68  1  0
 25 69  1  0
 26 70  1  0
 26 71  1  0
 26 72  1  0
 28 73  1  0
 28 74  1  0
 28 75  1  0
 29 76  1  0
 29 77  1  0
 30 78  1  0
 30 79  1  0
 32 80  1  0
 32 81  1  0
 32 82  1  0
M  END
>  <meeko>  (2) 
{"is_sidechain": [false], "intermolecular_energy": 2.731, "internal_energy": -0.839}

$$$$
EPH_relaxed_0001_pdb2pqr_Repair_181_r2_0001_out
     RDKit          3D

 82 86  0  0  0  0  0  0  0  0999 V2000
    2.1590   18.0240   -2.7290 C   0  0  0  0  0  0  0  0  0  0  0  0
    0.8720   17.6170   -2.0060 C   0  0  2  0  0  0  0  0  0  0  0  0
    1.0200   17.6920   -0.4730 C   0  0  0  0  0  0  0  0  0  0  0  0
    2.4280   18.0710   -0.0080 C   0  0  0  0  0  0  0  0  0  0  0  0
    2.3990   19.1780    1.0020 C   0  0  2  0  0  0  0  0  0  0  0  0
    3.3910   20.1940    0.8050 O   0  0  0  0  0  0  0  0  0  0  0  0
    3.5080   19.4210    2.0090 C   0  0  0  0  0  0  0  0  0  0  0  0
    4.7230   18.5490    2.0570 C   0  0  0  0  0  0  0  0  0  0  0  0
    3.1880   20.1900    3.2530 C   0  0  0  0  0  0  0  0  0  0  0  0
    0.4650   16.2090   -2.4220 C   0  0  1  0  0  0  0  0  0  0  0  0
    0.6540   15.9570   -3.9420 C   0  0  0  0  0  0  0  0  0  0  0  0
    1.0820   14.4750   -4.0990 C   0  0  0  0  0  0  0  0  0  0  0  0
    0.8050   13.8400   -2.7170 C   0  0  1  0  0  0  0  0  0  0  0  0
   -0.7250   13.5290   -2.7170 C   0  0  0  0  0  0  0  0  0  0  0  0
    1.6510   12.5750   -2.3550 C   0  0  2  0  0  0  0  0  0  0  0  0
    1.4380   11.3620   -3.2770 C   0  0  0  0  0  0  0  0  0  0  0  0
    0.3620   10.4190   -2.8510 C   0  0  0  0  0  0  0  0  0  0  0  0
   -0.2090   10.3820   -1.6330 C   0  0  0  0  0  0  0  0  0  0  0  0
    0.2910   11.2890   -0.5010 C   0  0  1  0  0  0  0  0  0  0  0  0
    0.4510   10.4560    0.7980 C   0  0  0  0  0  0  0  0  0  0  0  0
   -0.8230    9.7050    1.1720 C   0  0  0  0  0  0  0  0  0  0  0  0
   -1.2560    8.7700    0.0450 C   0  0  2  0  0  0  0  0  0  0  0  0
   -0.2820    7.7310   -0.0920 O   0  0  0  0  0  0  0  0  0  0  0  0
   -1.4390    9.4960   -1.3170 C   0  0  0  0  0  0  0  0  0  0  0  0
   -2.6910   10.4060   -1.2570 C   0  0  0  0  0  0  0  0  0  0  0  0
   -1.7370    8.4200   -2.3960 C   0  0  0  0  0  0  0  0  0  0  0  0
    1.5780   12.1620   -0.8290 C   0  0  1  0  0  0  0  0  0  0  0  0
    2.8690   11.3400   -0.5290 C   0  0  0  0  0  0  0  0  0  0  0  0
    1.6120   13.4090    0.1310 C   0  0  0  0  0  0  0  0  0  0  0  0
    0.8570   14.6670   -0.3370 C   0  0  0  0  0  0  0  0  0  0  0  0
    1.2320   15.0270   -1.7780 C   0  0  2  0  0  0  0  0  0  0  0  0
    2.7610   15.3660   -1.8040 C   0  0  0  0  0  0  0  0  0  0  0  0
    2.9341   18.2691   -1.9879 H   0  0  0  0  0  0  0  0  0  0  0  0
    2.5045   17.1913   -3.3592 H   0  0  0  0  0  0  0  0  0  0  0  0
    1.9629   18.9040   -3.3592 H   0  0  0  0  0  0  0  0  0  0  0  0
    0.0879   18.3313   -2.2977 H   0  0  0  0  0  0  0  0  0  0  0  0
    0.3143   18.4451   -0.0925 H   0  0  0  0  0  0  0  0  0  0  0  0
    0.8122   16.6856   -0.0807 H   0  0  0  0  0  0  0  0  0  0  0  0
    2.9038   17.1883    0.4442 H   0  0  0  0  0  0  0  0  0  0  0  0
    2.9958   18.4200   -0.8831 H   0  0  0  0  0  0  0  0  0  0  0  0
    1.3091   19.0796    1.1136 H   0  0  0  0  0  0  0  0  0  0  0  0
    4.9937   18.3547    3.1053 H   0  0  0  0  0  0  0  0  0  0  0  0
    4.5106   17.5959    1.5505 H   0  0  0  0  0  0  0  0  0  0  0  0
    5.5579   19.0553    1.5505 H   0  0  0  0  0  0  0  0  0  0  0  0
    3.4407   19.5827    4.1347 H   0  0  0  0  0  0  0  0  0  0  0  0
    3.7733   21.1212    3.2692 H   0  0  0  0  0  0  0  0  0  0  0  0
    2.1149   20.4311    3.2692 H   0  0  0  0  0  0  0  0  0  0  0  0
   -0.5800   16.2103   -2.0786 H   0  0  0  0  0  0  0  0  0  0  0  0
   -0.2904   16.1373   -4.4763 H   0  0  0  0  0  0  0  0  0  0  0  0
    1.4115   16.6340   -4.3638 H   0  0  0  0  0  0  0  0  0  0  0  0
    0.4867   13.9797   -4.8802 H   0  0  0  0  0  0  0  0  0  0  0  0
    2.1352   14.3749   -4.4003 H   0  0  0  0  0  0  0  0  0  0  0  0
   -1.0843   13.4560   -1.6799 H   0  0  0  0  0  0  0  0  0  0  0  0
   -1.2632   14.3361   -3.2355 H   0  0  0  0  0  0  0  0  0  0  0  0
   -0.9054   12.5758   -3.2355 H   0  0  0  0  0  0  0  0  0  0  0  0
    2.6794   12.9163   -2.5443 H   0  0  0  0  0  0  0  0  0  0  0  0
    1.1840   11.7373   -4.2793 H   0  0  0  0  0  0  0  0  0  0  0  0
    2.3758   10.7879   -3.2464 H   0  0  0  0  0  0  0  0  0  0  0  0
    0.0055    9.6926   -3.5961 H   0  0  0  0  0  0  0  0  0  0  0  0
   -0.4858   12.0549   -0.3596 H   0  0  0  0  0  0  0  0  0  0  0  0
    1.2605    9.7258    0.6512 H   0  0  0  0  0  0  0  0  0  0  0  0
    0.6793   11.1545    1.6165 H   0  0  0  0  0  0  0  0  0  0  0  0
   -0.6382    9.1126    2.0803 H   0  0  0  0  0  0  0  0  0  0  0  0
   -1.6241   10.4381    1.3474 H   0  0  0  0  0  0  0  0  0  0  0  0
   -2.2397    8.3596    0.3169 H   0  0  0  0  0  0  0  0  0  0  0  0
    0.0370    7.5070    0.7990 H   0  0  0  0  0  0  0  0  0  0  0  0
   -2.9549   10.5978   -0.2065 H   0  0  0  0  0  0  0  0  0  0  0  0
   -2.4756   11.3597   -1.7610 H   0  0  0  0  0  0  0  0  0  0  0  0
   -3.5317    9.9067   -1.7610 H   0  0  0  0  0  0  0  0  0  0  0  0
   -1.9997    7.4713   -1.9051 H   0  0  0  0  0  0  0  0  0  0  0  0
   -2.5768    8.7529   -3.0237 H   0  0  0  0  0  0  0  0  0  0  0  0
   -0.8456    8.2735   -3.0237 H   0  0  0  0  0  0  0  0  0  0  0  0
    3.0042   11.2539    0.5593 H   0  0  0  0  0  0  0  0  0  0  0  0
    2.7743   10.3356   -0.9673 H   0  0  0  0  0  0  0  0  0  0  0  0
    3.7390   11.8508   -0.9673 H   0  0  0  0  0  0  0  0  0  0  0  0
    1.1786   13.0997    1.0936 H   0  0  0  0  0  0  0  0  0  0  0  0
    2.6695   13.7084    0.1762 H   0  0  0  0  0  0  0  0  0  0  0  0
   -0.2253   14.4780   -0.2833 H   0  0  0  0  0  0  0  0  0  0  0  0
    1.1341   15.5063    0.3177 H   0  0  0  0  0  0  0  0  0  0  0  0
    3.1357   15.4491   -0.7731 H   0  0  0  0  0  0  0  0  0  0  0  0
    3.3049   14.5666   -2.3286 H   0  0  0  0  0  0  0  0  0  0  0  0
    2.9161   16.3203   -2.3286 H   0  0  0  0  0  0  0  0  0  0  0  0
  1  2  1  0
  2  3  1  0
  3  4  1  0
  4  5  1  0
  5  6  1  0
  6  7  1  0
  7  8  1  0
  7  9  1  0
  2 10  1  0
 10 11  1  0
 11 12  1  0
 12 13  1  0
 13 14  1  6
 13 15  1  0
 15 16  1  0
 16 17  1  0
 17 18  2  0
 18 19  1  0
 19 20  1  0
 20 21  1  0
 21 22  1  0
 22 23  1  0
 22 24  1  0
 24 25  1  0
 24 26  1  0
 19 27  1  0
 27 28  1  1
 27 29  1  0
 29 30  1  0
 30 31  1  0
 31 32  1  1
  7  5  1  0
 31 10  1  0
 31 13  1  0
 27 15  1  0
 24 18  1  0
  1 33  1  0
  1 34  1  0
  1 35  1  0
  2 36  1  6
  3 37  1  0
  3 38  1  0
  4 39  1  0
  4 40  1  0
  5 41  1  1
  8 42  1  0
  8 43  1  0
  8 44  1  0
  9 45  1  0
  9 46  1  0
  9 47  1  0
 10 48  1  6
 11 49  1  0
 11 50  1  0
 12 51  1  0
 12 52  1  0
 14 53  1  0
 14 54  1  0
 14 55  1  0
 15 56  1  1
 16 57  1  0
 16 58  1  0
 17 59  1  0
 19 60  1  1
 20 61  1  0
 20 62  1  0
 21 63  1  0
 21 64  1  0
 22 65  1  1
 23 66  1  0
 25 67  1  0
 25 68  1  0
 25 69  1  0
 26 70  1  0
 26 71  1  0
 26 72  1  0
 28 73  1  0
 28 74  1  0
 28 75  1  0
 29 76  1  0
 29 77  1  0
 30 78  1  0
 30 79  1  0
 32 80  1  0
 32 81  1  0
 32 82  1  0
M  END
>  <meeko>  (3) 
{"is_sidechain": [false], "intermolecular_energy": 2.731, "internal_energy": -0.839}

$$$$
EPH_relaxed_0001_pdb2pqr_Repair_181_r2_0001_out
     RDKit          3D

 82 86  0  0  0  0  0  0  0  0999 V2000
    4.0120   17.5660   -0.0640 C   0  0  0  0  0  0  0  0  0  0  0  0
    2.5980   18.1130   -0.2760 C   0  0  2  0  0  0  0  0  0  0  0  0
    2.2450   19.2190    0.7390 C   0  0  0  0  0  0  0  0  0  0  0  0
    3.4690   19.9060    1.3510 C   0  0  0  0  0  0  0  0  0  0  0  0
    3.8820   19.2580    2.6380 C   0  0  2  0  0  0  0  0  0  0  0  0
    4.1620   20.1730    3.7050 O   0  0  0  0  0  0  0  0  0  0  0  0
    5.2710   19.3910    3.2330 C   0  0  0  0  0  0  0  0  0  0  0  0
    6.3370   20.1940    2.5550 C   0  0  0  0  0  0  0  0  0  0  0  0
    5.7350   18.3530    4.2060 C   0  0  0  0  0  0  0  0  0  0  0  0
    1.5840   16.9790   -0.1840 C   0  0  1  0  0  0  0  0  0  0  0  0
    0.1190   17.4760   -0.3050 C   0  0  0  0  0  0  0  0  0  0  0  0
   -0.6670   16.3730   -1.0600 C   0  0  0  0  0  0  0  0  0  0  0  0
    0.2770   15.1480   -1.0540 C   0  0  1  0  0  0  0  0  0  0  0  0
    0.0840   14.4990    0.3520 C   0  0  0  0  0  0  0  0  0  0  0  0
    0.0680   14.1090   -2.2030 C   0  0  2  0  0  0  0  0  0  0  0  0
   -1.3050   13.4140   -2.2120 C   0  0  0  0  0  0  0  0  0  0  0  0
   -1.3830   12.1450   -1.4300 C   0  0  0  0  0  0  0  0  0  0  0  0
   -0.3290   11.4350   -0.9850 C   0  0  0  0  0  0  0  0  0  0  0  0
    1.1050   11.8450   -1.3430 C   0  0  1  0  0  0  0  0  0  0  0  0
    1.9020   10.5950   -1.8010 C   0  0  0  0  0  0  0  0  0  0  0  0
    1.8560    9.4650   -0.7770 C   0  0  0  0  0  0  0  0  0  0  0  0
    0.4170    9.0460   -0.4910 C   0  0  2  0  0  0  0  0  0  0  0  0
   -0.1330    8.4520   -1.6700 O   0  0  0  0  0  0  0  0  0  0  0  0
   -0.4850   10.2250   -0.0300 C   0  0  0  0  0  0  0  0  0  0  0  0
   -0.0700   10.6730    1.3930 C   0  0  0  0  0  0  0  0  0  0  0  0
   -1.9400    9.6960    0.0880 C   0  0  0  0  0  0  0  0  0  0  0  0
    1.2460   13.0630   -2.3540 C   0  0  1  0  0  0  0  0  0  0  0  0
    1.1940   12.5430   -3.8230 C   0  0  0  0  0  0  0  0  0  0  0  0
    2.6620   13.7260   -2.1670 C   0  0  0  0  0  0  0  0  0  0  0  0
    2.7760   14.8300   -1.0980 C   0  0  0  0  0  0  0  0  0  0  0  0
    1.6600   15.8670   -1.2600 C   0  0  2  0  0  0  0  0  0  0  0  0
    1.8420   16.5520   -2.6570 C   0  0  0  0  0  0  0  0  0  0  0  0
    4.2167   17.4868    1.0139 H   0  0  0  0  0  0  0  0  0  0  0  0
    4.0936   16.5714   -0.5268 H   0  0  0  0  0  0  0  0  0  0  0  0
    4.7417   18.2467   -0.5268 H   0  0  0  0  0  0  0  0  0  0  0  0
    2.5636   18.5627   -1.2793 H   0  0  0  0  0  0  0  0  0  0  0  0
    1.6394   19.9807    0.2261 H   0  0  0  0  0  0  0  0  0  0  0  0
    1.7010   18.7363    1.5643 H   0  0  0  0  0  0  0  0  0  0  0  0
    4.3046   19.8473    0.6380 H   0  0  0  0  0  0  0  0  0  0  0  0
    3.2049   20.9526    1.5630 H   0  0  0  0  0  0  0  0  0  0  0  0
    3.2504   18.3823    2.4278 H   0  0  0  0  0  0  0  0  0  0  0  0
    6.9733   20.6733    3.3135 H   0  0  0  0  0  0  0  0  0  0  0  0
    6.9509   19.5320    1.9266 H   0  0  0  0  0  0  0  0  0  0  0  0
    5.8701   20.9668    1.9266 H   0  0  0  0  0  0  0  0  0  0  0  0
    5.5735   18.7143    5.2324 H   0  0  0  0  0  0  0  0  0  0  0  0
    5.1663   17.4243    4.0504 H   0  0  0  0  0  0  0  0  0  0  0  0
    6.8062   18.1574    4.0504 H   0  0  0  0  0  0  0  0  0  0  0  0
    1.8554   16.5694    0.8002 H   0  0  0  0  0  0  0  0  0  0  0  0
   -0.3121   17.6312    0.6950 H   0  0  0  0  0  0  0  0  0  0  0  0
    0.0703   18.4341   -0.8431 H   0  0  0  0  0  0  0  0  0  0  0  0
   -1.6077   16.1409   -0.5392 H   0  0  0  0  0  0  0  0  0  0  0  0
   -0.9440   16.6813   -2.0789 H   0  0  0  0  0  0  0  0  0  0  0  0
    0.3050   15.2421    1.1323 H   0  0  0  0  0  0  0  0  0  0  0  0
   -0.9554   14.1547    0.4574 H   0  0  0  0  0  0  0  0  0  0  0  0
    0.7664   13.6427    0.4574 H   0  0  0  0  0  0  0  0  0  0  0  0
    0.0880   14.7437   -3.1012 H   0  0  0  0  0  0  0  0  0  0  0  0
   -2.0435   14.1152   -1.7963 H   0  0  0  0  0  0  0  0  0  0  0  0
   -1.4994   13.1384   -3.2590 H   0  0  0  0  0  0  0  0  0  0  0  0
   -2.3858   11.7572   -1.1977 H   0  0  0  0  0  0  0  0  0  0  0  0
    1.5448   12.2504   -0.4198 H   0  0  0  0  0  0  0  0  0  0  0  0
    1.4746   10.2313   -2.7471 H   0  0  0  0  0  0  0  0  0  0  0  0
    2.9536   10.8947   -1.9209 H   0  0  0  0  0  0  0  0  0  0  0  0
    2.4113    8.6005   -1.1698 H   0  0  0  0  0  0  0  0  0  0  0  0
    2.3105    9.8212    0.1593 H   0  0  0  0  0  0  0  0  0  0  0  0
    0.4423    8.3272    0.3413 H   0  0  0  0  0  0  0  0  0  0  0  0
   -1.0090    8.8480   -1.8180 H   0  0  0  0  0  0  0  0  0  0  0  0
   -0.6194   10.0799    2.1389 H   0  0  0  0  0  0  0  0  0  0  0  0
    1.0110   10.5183    1.5255 H   0  0  0  0  0  0  0  0  0  0  0  0
   -0.3068   11.7390    1.5255 H   0  0  0  0  0  0  0  0  0  0  0  0
   -2.2095    9.5980    1.1500 H   0  0  0  0  0  0  0  0  0  0  0  0
   -2.6275   10.4017   -0.4012 H   0  0  0  0  0  0  0  0  0  0  0  0
   -2.0138    8.7135   -0.4012 H   0  0  0  0  0  0  0  0  0  0  0  0
    1.0845   11.4485   -3.8209 H   0  0  0  0  0  0  0  0  0  0  0  0
    0.3367   12.9962   -4.3423 H   0  0  0  0  0  0  0  0  0  0  0  0
    2.1241   12.8175   -4.3423 H   0  0  0  0  0  0  0  0  0  0  0  0
    3.3702   12.9283   -1.8985 H   0  0  0  0  0  0  0  0  0  0  0  0
    2.8737   14.2276   -3.1228 H   0  0  0  0  0  0  0  0  0  0  0  0
    2.7011   14.3737   -0.0999 H   0  0  0  0  0  0  0  0  0  0  0  0
    3.7453   15.3360   -1.2181 H   0  0  0  0  0  0  0  0  0  0  0  0
    2.1221   17.6062   -2.5148 H   0  0  0  0  0  0  0  0  0  0  0  0
    2.6339   16.0348   -3.2186 H   0  0  0  0  0  0  0  0  0  0  0  0
    0.8978   16.4960   -3.2186 H   0  0  0  0  0  0  0  0  0  0  0  0
  1  2  1  0
  2  3  1  0
  3  4  1  0
  4  5  1  0
  5  6  1  0
  6  7  1  0
  7  8  1  0
  7  9  1  0
  2 10  1  0
 10 11  1  0
 11 12  1  0
 12 13  1  0
 13 14  1  1
 13 15  1  0
 15 16  1  0
 16 17  1  0
 17 18  2  0
 18 19  1  0
 19 20  1  0
 20 21  1  0
 21 22  1  0
 22 23  1  0
 22 24  1  0
 24 25  1  0
 24 26  1  0
 19 27  1  0
 27 28  1  6
 27 29  1  0
 29 30  1  0
 30 31  1  0
 31 32  1  6
  7  5  1  0
 31 10  1  0
 31 13  1  0
 27 15  1  0
 24 18  1  0
  1 33  1  0
  1 34  1  0
  1 35  1  0
  2 36  1  6
  3 37  1  0
  3 38  1  0
  4 39  1  0
  4 40  1  0
  5 41  1  1
  8 42  1  0
  8 43  1  0
  8 44  1  0
  9 45  1  0
  9 46  1  0
  9 47  1  0
 10 48  1  1
 11 49  1  0
 11 50  1  0
 12 51  1  0
 12 52  1  0
 14 53  1  0
 14 54  1  0
 14 55  1  0
 15 56  1  6
 16 57  1  0
 16 58  1  0
 17 59  1  0
 19 60  1  1
 20 61  1  0
 20 62  1  0
 21 63  1  0
 21 64  1  0
 22 65  1  1
 23 66  1  0
 25 67  1  0
 25 68  1  0
 25 69  1  0
 26 70  1  0
 26 71  1  0
 26 72  1  0
 28 73  1  0
 28 74  1  0
 28 75  1  0
 29 76  1  0
 29 77  1  0
 30 78  1  0
 30 79  1  0
 32 80  1  0
 32 81  1  0
 32 82  1  0
M  END
>  <meeko>  (4) 
{"is_sidechain": [false], "intermolecular_energy": 2.731, "internal_energy": -0.839}

$$$$
EPH_relaxed_0001_pdb2pqr_Repair_181_r2_0001_out
     RDKit          3D

 82 86  0  0  0  0  0  0  0  0999 V2000
   -5.1830    5.8040   -1.7760 C   0  0  0  0  0  0  0  0  0  0  0  0
   -5.4730    7.3070   -1.8330 C   0  0  2  0  0  0  0  0  0  0  0  0
   -5.2390    7.9950   -0.4730 C   0  0  0  0  0  0  0  0  0  0  0  0
   -4.2110    9.1290   -0.5270 C   0  0  0  0  0  0  0  0  0  0  0  0
   -2.8300    8.6120   -0.7970 C   0  0  2  0  0  0  0  0  0  0  0  0
   -1.8550    8.9620    0.1940 O   0  0  0  0  0  0  0  0  0  0  0  0
   -1.6490    9.5090   -1.1190 C   0  0  0  0  0  0  0  0  0  0  0  0
   -1.7960   10.9970   -1.1870 C   0  0  0  0  0  0  0  0  0  0  0  0
   -0.4790    8.9190   -1.8410 C   0  0  0  0  0  0  0  0  0  0  0  0
   -6.9070    7.5410   -2.2950 C   0  0  1  0  0  0  0  0  0  0  0  0
   -7.2220    6.8400   -3.6430 C   0  0  0  0  0  0  0  0  0  0  0  0
   -8.7000    6.3790   -3.5730 C   0  0  0  0  0  0  0  0  0  0  0  0
   -9.2790    7.1120   -2.3400 C   0  0  1  0  0  0  0  0  0  0  0  0
   -9.6200    8.5470   -2.8510 C   0  0  0  0  0  0  0  0  0  0  0  0
  -10.5090    6.4370   -1.6500 C   0  0  2  0  0  0  0  0  0  0  0  0
  -11.7660    6.3160   -2.5300 C   0  0  0  0  0  0  0  0  0  0  0  0
  -12.7110    7.4690   -2.4540 C   0  0  0  0  0  0  0  0  0  0  0  0
  -12.7060    8.4240   -1.5050 C   0  0  0  0  0  0  0  0  0  0  0  0
  -11.7400    8.3460   -0.3150 C   0  0  1  0  0  0  0  0  0  0  0  0
  -12.5110    8.6390    0.9980 C   0  0  0  0  0  0  0  0  0  0  0  0
  -13.2710    9.9610    0.9480 C   0  0  0  0  0  0  0  0  0  0  0  0
  -14.2630    9.9770   -0.2120 C   0  0  2  0  0  0  0  0  0  0  0  0
  -15.2870    9.0110    0.0440 O   0  0  0  0  0  0  0  0  0  0  0  0
  -13.6010    9.6840   -1.5880 C   0  0  0  0  0  0  0  0  0  0  0  0
  -12.7140   10.8840   -2.0040 C   0  0  0  0  0  0  0  0  0  0  0  0
  -14.7290    9.5900   -2.6500 C   0  0  0  0  0  0  0  0  0  0  0  0
  -10.8570    7.0280   -0.2240 C   0  0  1  0  0  0  0  0  0  0  0  0
  -11.6390    5.9160    0.5400 C   0  0  0  0  0  0  0  0  0  0  0  0
   -9.5680    7.3300    0.6290 C   0  0  0  0  0  0  0  0  0  0  0  0
   -8.3470    7.8830   -0.1300 C   0  0  0  0  0  0  0  0  0  0  0  0
   -8.0440    7.0370   -1.3710 C   0  0  2  0  0  0  0  0  0  0  0  0
   -7.6750    5.5930   -0.8880 C   0  0  0  0  0  0  0  0  0  0  0  0
   -5.1209    5.4821   -0.7260 H   0  0  0  0  0  0  0  0  0  0  0  0
   -5.9918    5.2551   -2.2805 H   0  0  0  0  0  0  0  0  0  0  0  0
   -4.2280    5.5954   -2.2805 H   0  0  0  0  0  0  0  0  0  0  0  0
   -4.7719    7.7532   -2.5536 H   0  0  0  0  0  0  0  0  0  0  0  0
   -6.1962    8.4099   -0.1242 H   0  0  0  0  0  0  0  0  0  0  0  0
   -4.8399    7.2307    0.2101 H   0  0  0  0  0  0  0  0  0  0  0  0
   -4.4930    9.8282   -1.3280 H   0  0  0  0  0  0  0  0  0  0  0  0
   -4.2039    9.6327    0.4509 H   0  0  0  0  0  0  0  0  0  0  0  0
   -3.2362    7.7195   -1.2955 H   0  0  0  0  0  0  0  0  0  0  0  0
   -1.8366   11.4084   -0.1676 H   0  0  0  0  0  0  0  0  0  0  0  0
   -0.9359   11.4264   -1.7217 H   0  0  0  0  0  0  0  0  0  0  0  0
   -2.7235   11.2498   -1.7217 H   0  0  0  0  0  0  0  0  0  0  0  0
    0.2546    8.5490   -1.1096 H   0  0  0  0  0  0  0  0  0  0  0  0
   -0.8201    8.0851   -2.4721 H   0  0  0  0  0  0  0  0  0  0  0  0
   -0.0113    9.6890   -2.4721 H   0  0  0  0  0  0  0  0  0  0  0  0
   -6.9114    8.6404   -2.3312 H   0  0  0  0  0  0  0  0  0  0  0  0
   -7.0838    7.5436   -4.4772 H   0  0  0  0  0  0  0  0  0  0  0  0
   -6.5495    5.9858   -3.8104 H   0  0  0  0  0  0  0  0  0  0  0  0
   -9.2407    6.6683   -4.4862 H   0  0  0  0  0  0  0  0  0  0  0  0
   -8.7928    5.2860   -3.4903 H   0  0  0  0  0  0  0  0  0  0  0  0
   -9.7786    9.2144   -1.9911 H   0  0  0  0  0  0  0  0  0  0  0  0
   -8.7870    8.9266   -3.4610 H   0  0  0  0  0  0  0  0  0  0  0  0
  -10.5347    8.5113   -3.4610 H   0  0  0  0  0  0  0  0  0  0  0  0
  -10.1550    5.4077   -1.4915 H   0  0  0  0  0  0  0  0  0  0  0  0
  -11.4402    6.2119   -3.5755 H   0  0  0  0  0  0  0  0  0  0  0  0
  -12.3193    5.4437   -2.1520 H   0  0  0  0  0  0  0  0  0  0  0  0
  -13.4766    7.5448   -3.2402 H   0  0  0  0  0  0  0  0  0  0  0  0
  -10.9840    9.1267   -0.4854 H   0  0  0  0  0  0  0  0  0  0  0  0
  -13.2301    7.8254    1.1736 H   0  0  0  0  0  0  0  0  0  0  0  0
  -11.7724    8.7091    1.8102 H   0  0  0  0  0  0  0  0  0  0  0  0
  -13.8190   10.0971    1.8921 H   0  0  0  0  0  0  0  0  0  0  0  0
  -12.5473   10.7765    0.8021 H   0  0  0  0  0  0  0  0  0  0  0  0
  -14.6812   10.9925   -0.2746 H   0  0  0  0  0  0  0  0  0  0  0  0
  -16.1080    9.3390   -0.3600 H   0  0  0  0  0  0  0  0  0  0  0  0
  -12.3385   11.3920   -1.1035 H   0  0  0  0  0  0  0  0  0  0  0  0
  -11.8646   10.5222   -2.6020 H   0  0  0  0  0  0  0  0  0  0  0  0
  -13.3091   11.5899   -2.6020 H   0  0  0  0  0  0  0  0  0  0  0  0
  -15.7026    9.5089   -2.1446 H   0  0  0  0  0  0  0  0  0  0  0  0
  -14.7165   10.4923   -3.2790 H   0  0  0  0  0  0  0  0  0  0  0  0
  -14.5673    8.7022   -3.2790 H   0  0  0  0  0  0  0  0  0  0  0  0
  -11.5306    6.0702    1.6237 H   0  0  0  0  0  0  0  0  0  0  0  0
  -12.7037    5.9634    0.2676 H   0  0  0  0  0  0  0  0  0  0  0  0
  -11.2343    4.9301    0.2676 H   0  0  0  0  0  0  0  0  0  0  0  0
   -9.8431    8.0664    1.3985 H   0  0  0  0  0  0  0  0  0  0  0  0
   -9.2460    6.3535    1.0198 H   0  0  0  0  0  0  0  0  0  0  0  0
   -8.5550    8.9173   -0.4415 H   0  0  0  0  0  0  0  0  0  0  0  0
   -7.4740    7.8506    0.5385 H   0  0  0  0  0  0  0  0  0  0  0  0
   -7.6678    5.5648    0.2116 H   0  0  0  0  0  0  0  0  0  0  0  0
   -8.4192    4.8778   -1.2682 H   0  0  0  0  0  0  0  0  0  0  0  0
   -6.6789    5.3225   -1.2682 H   0  0  0  0  0  0  0  0  0  0  0  0
  1  2  1  0
  2  3  1  0
  3  4  1  0
  4  5  1  0
  5  6  1  0
  6  7  1  0
  7  8  1  0
  7  9  1  0
  2 10  1  0
 10 11  1  0
 11 12  1  0
 12 13  1  0
 13 14  1  6
 13 15  1  0
 15 16  1  0
 16 17  1  0
 17 18  2  0
 18 19  1  0
 19 20  1  0
 20 21  1  0
 21 22  1  0
 22 23  1  0
 22 24  1  0
 24 25  1  0
 24 26  1  0
 19 27  1  0
 27 28  1  1
 27 29  1  0
 29 30  1  0
 30 31  1  0
 31 32  1  1
  7  5  1  0
 31 10  1  0
 31 13  1  0
 27 15  1  0
 24 18  1  0
  1 33  1  0
  1 34  1  0
  1 35  1  0
  2 36  1  6
  3 37  1  0
  3 38  1  0
  4 39  1  0
  4 40  1  0
  5 41  1  6
  8 42  1  0
  8 43  1  0
  8 44  1  0
  9 45  1  0
  9 46  1  0
  9 47  1  0
 10 48  1  6
 11 49  1  0
 11 50  1  0
 12 51  1  0
 12 52  1  0
 14 53  1  0
 14 54  1  0
 14 55  1  0
 15 56  1  1
 16 57  1  0
 16 58  1  0
 17 59  1  0
 19 60  1  6
 20 61  1  0
 20 62  1  0
 21 63  1  0
 21 64  1  0
 22 65  1  6
 23 66  1  0
 25 67  1  0
 25 68  1  0
 25 69  1  0
 26 70  1  0
 26 71  1  0
 26 72  1  0
 28 73  1  0
 28 74  1  0
 28 75  1  0
 29 76  1  0
 29 77  1  0
 30 78  1  0
 30 79  1  0
 32 80  1  0
 32 81  1  0
 32 82  1  0
M  END
>  <meeko>  (5) 
{"is_sidechain": [false], "intermolecular_energy": 2.731, "internal_energy": -0.839}

$$$$
EPH_relaxed_0001_pdb2pqr_Repair_181_r2_0001_out
     RDKit          3D

 82 86  0  0  0  0  0  0  0  0999 V2000
   -4.9510    8.9680   -0.3070 C   0  0  0  0  0  0  0  0  0  0  0  0
   -5.2370    7.7880   -1.2390 C   0  0  2  0  0  0  0  0  0  0  0  0
   -4.1940    7.6740   -2.3690 C   0  0  0  0  0  0  0  0  0  0  0  0
   -2.7450    7.7490   -1.8790 C   0  0  0  0  0  0  0  0  0  0  0  0
   -2.0800    9.0210   -2.3080 C   0  0  2  0  0  0  0  0  0  0  0  0
   -0.6500    9.0140   -2.2050 O   0  0  0  0  0  0  0  0  0  0  0  0
   -1.3420    9.9430   -1.3550 C   0  0  0  0  0  0  0  0  0  0  0  0
   -1.2330    9.6300    0.1050 C   0  0  0  0  0  0  0  0  0  0  0  0
   -1.1520   11.3750   -1.7470 C   0  0  0  0  0  0  0  0  0  0  0  0
   -6.6350    7.9200   -1.8320 C   0  0  1  0  0  0  0  0  0  0  0  0
   -6.7670    7.2220   -3.2120 C   0  0  0  0  0  0  0  0  0  0  0  0
   -8.2050    6.6480   -3.2870 C   0  0  0  0  0  0  0  0  0  0  0  0
   -8.9520    7.3120   -2.1060 C   0  0  1  0  0  0  0  0  0  0  0  0
   -9.3540    8.7260   -2.6310 C   0  0  0  0  0  0  0  0  0  0  0  0
  -10.1850    6.5330   -1.5430 C   0  0  2  0  0  0  0  0  0  0  0  0
  -11.3410    6.3330   -2.5380 C   0  0  0  0  0  0  0  0  0  0  0  0
  -12.3760    7.4090   -2.5390 C   0  0  0  0  0  0  0  0  0  0  0  0
  -12.5330    8.3440   -1.5840 C   0  0  0  0  0  0  0  0  0  0  0  0
  -11.6790    8.3190   -0.3090 C   0  0  1  0  0  0  0  0  0  0  0  0
  -12.5910    8.5280    0.9290 C   0  0  0  0  0  0  0  0  0  0  0  0
  -13.4420    9.7890    0.8210 C   0  0  0  0  0  0  0  0  0  0  0  0
  -14.3200    9.7500   -0.4270 C   0  0  2  0  0  0  0  0  0  0  0  0
  -15.2860    8.7050   -0.2790 O   0  0  0  0  0  0  0  0  0  0  0  0
  -13.5120    9.5340   -1.7370 C   0  0  0  0  0  0  0  0  0  0  0  0
  -12.6860   10.8050   -2.0550 C   0  0  0  0  0  0  0  0  0  0  0  0
  -14.5260    9.3730   -2.9020 C   0  0  0  0  0  0  0  0  0  0  0  0
  -10.7090    7.0700   -0.1490 C   0  0  1  0  0  0  0  0  0  0  0  0
  -11.4700    5.8880    0.5260 C   0  0  0  0  0  0  0  0  0  0  0  0
   -9.5330    7.4550    0.8250 C   0  0  0  0  0  0  0  0  0  0  0  0
   -8.2930    8.1120    0.1900 C   0  0  0  0  0  0  0  0  0  0  0  0
   -7.8110    7.3150   -1.0250 C   0  0  2  0  0  0  0  0  0  0  0  0
   -7.3780    5.8950   -0.5250 C   0  0  0  0  0  0  0  0  0  0  0  0
   -5.0312    8.6370    0.7389 H   0  0  0  0  0  0  0  0  0  0  0  0
   -3.9352    9.3460   -0.4951 H   0  0  0  0  0  0  0  0  0  0  0  0
   -5.6810    9.7691   -0.4951 H   0  0  0  0  0  0  0  0  0  0  0  0
   -5.1738    6.8692   -0.6375 H   0  0  0  0  0  0  0  0  0  0  0  0
   -4.3386    6.7103   -2.8792 H   0  0  0  0  0  0  0  0  0  0  0  0
   -4.3514    8.5316   -3.0396 H   0  0  0  0  0  0  0  0  0  0  0  0
   -2.7370    7.6956   -0.7803 H   0  0  0  0  0  0  0  0  0  0  0  0
   -2.1904    6.9070   -2.3187 H   0  0  0  0  0  0  0  0  0  0  0  0
   -2.8666    9.2074   -3.0540 H   0  0  0  0  0  0  0  0  0  0  0  0
   -1.5389   10.5084    0.6922 H   0  0  0  0  0  0  0  0  0  0  0  0
   -1.8882    8.7804    0.3478 H   0  0  0  0  0  0  0  0  0  0  0  0
   -0.1918    9.3712    0.3478 H   0  0  0  0  0  0  0  0  0  0  0  0
   -1.0697   11.9950   -0.8421 H   0  0  0  0  0  0  0  0  0  0  0  0
   -0.2330   11.4730   -2.3435 H   0  0  0  0  0  0  0  0  0  0  0  0
   -2.0137   11.7093   -2.3435 H   0  0  0  0  0  0  0  0  0  0  0  0
   -6.7214    9.0163   -1.8566 H   0  0  0  0  0  0  0  0  0  0  0  0
   -6.6068    7.9495   -4.0214 H   0  0  0  0  0  0  0  0  0  0  0  0
   -6.0172    6.4251   -3.3249 H   0  0  0  0  0  0  0  0  0  0  0  0
   -8.6790    6.9118   -4.2439 H   0  0  0  0  0  0  0  0  0  0  0  0
   -8.2197    5.5498   -3.2255 H   0  0  0  0  0  0  0  0  0  0  0  0
   -9.5438    9.3936   -1.7776 H   0  0  0  0  0  0  0  0  0  0  0  0
   -8.5368    9.1360   -3.2427 H   0  0  0  0  0  0  0  0  0  0  0  0
  -10.2646    8.6448   -3.2427 H   0  0  0  0  0  0  0  0  0  0  0  0
   -9.7688    5.5307   -1.3639 H   0  0  0  0  0  0  0  0  0  0  0  0
  -10.9123    6.2730   -3.5492 H   0  0  0  0  0  0  0  0  0  0  0  0
  -11.8578    5.4145   -2.2229 H   0  0  0  0  0  0  0  0  0  0  0  0
  -13.0690    7.4401   -3.3927 H   0  0  0  0  0  0  0  0  0  0  0  0
  -10.9733    9.1581   -0.3985 H   0  0  0  0  0  0  0  0  0  0  0  0
  -13.2585    7.6591    1.0262 H   0  0  0  0  0  0  0  0  0  0  0  0
  -11.9402    8.6382    1.8089 H   0  0  0  0  0  0  0  0  0  0  0  0
  -14.0843    9.8670    1.7106 H   0  0  0  0  0  0  0  0  0  0  0  0
  -12.7726   10.6592    0.7520 H   0  0  0  0  0  0  0  0  0  0  0  0
  -14.8084   10.7314   -0.5179 H   0  0  0  0  0  0  0  0  0  0  0  0
  -14.9330    8.0670    0.3640 H   0  0  0  0  0  0  0  0  0  0  0  0
  -12.3744   11.2844   -1.1153 H   0  0  0  0  0  0  0  0  0  0  0  0
  -11.7954   10.5272   -2.6378 H   0  0  0  0  0  0  0  0  0  0  0  0
  -13.3016   11.5060   -2.6378 H   0  0  0  0  0  0  0  0  0  0  0  0
  -15.5339    9.2130   -2.4914 H   0  0  0  0  0  0  0  0  0  0  0  0
  -14.5221   10.2830   -3.5199 H   0  0  0  0  0  0  0  0  0  0  0  0
  -14.2404    8.5090   -3.5199 H   0  0  0  0  0  0  0  0  0  0  0  0
  -11.4059    5.9875    1.6196 H   0  0  0  0  0  0  0  0  0  0  0  0
  -12.5256    5.9076    0.2173 H   0  0  0  0  0  0  0  0  0  0  0  0
  -11.0153    4.9352    0.2173 H   0  0  0  0  0  0  0  0  0  0  0  0
   -9.9351    8.1553    1.5719 H   0  0  0  0  0  0  0  0  0  0  0  0
   -9.1744    6.4995    1.2355 H   0  0  0  0  0  0  0  0  0  0  0  0
   -8.5503    9.1329   -0.1286 H   0  0  0  0  0  0  0  0  0  0  0  0
   -7.4863    8.1332    0.9375 H   0  0  0  0  0  0  0  0  0  0  0  0
   -7.3732    5.8793    0.5749 H   0  0  0  0  0  0  0  0  0  0  0  0
   -8.0875    5.1423   -0.8994 H   0  0  0  0  0  0  0  0  0  0  0  0
   -6.3693    5.6663   -0.8994 H   0  0  0  0  0  0  0  0  0  0  0  0
  1  2  1  0
  2  3  1  0
  3  4  1  0
  4  5  1  0
  5  6  1  0
  6  7  1  0
  7  8  1  0
  7  9  1  0
  2 10  1  0
 10 11  1  0
 11 12  1  0
 12 13  1  0
 13 14  1  6
 13 15  1  0
 15 16  1  0
 16 17  1  0
 17 18  2  0
 18 19  1  0
 19 20  1  0
 20 21  1  0
 21 22  1  0
 22 23  1  0
 22 24  1  0
 24 25  1  0
 24 26  1  0
 19 27  1  0
 27 28  1  1
 27 29  1  0
 29 30  1  0
 30 31  1  0
 31 32  1  1
  7  5  1  0
 31 10  1  0
 31 13  1  0
 27 15  1  0
 24 18  1  0
  1 33  1  0
  1 34  1  0
  1 35  1  0
  2 36  1  1
  3 37  1  0
  3 38  1  0
  4 39  1  0
  4 40  1  0
  5 41  1  6
  8 42  1  0
  8 43  1  0
  8 44  1  0
  9 45  1  0
  9 46  1  0
  9 47  1  0
 10 48  1  6
 11 49  1  0
 11 50  1  0
 12 51  1  0
 12 52  1  0
 14 53  1  0
 14 54  1  0
 14 55  1  0
 15 56  1  1
 16 57  1  0
 16 58  1  0
 17 59  1  0
 19 60  1  6
 20 61  1  0
 20 62  1  0
 21 63  1  0
 21 64  1  0
 22 65  1  6
 23 66  1  0
 25 67  1  0
 25 68  1  0
 25 69  1  0
 26 70  1  0
 26 71  1  0
 26 72  1  0
 28 73  1  0
 28 74  1  0
 28 75  1  0
 29 76  1  0
 29 77  1  0
 30 78  1  0
 30 79  1  0
 32 80  1  0
 32 81  1  0
 32 82  1  0
M  END
>  <meeko>  (6) 
{"is_sidechain": [false], "intermolecular_energy": 2.731, "internal_energy": -0.839}

$$$$
EPH_relaxed_0001_pdb2pqr_Repair_181_r2_0001_out
     RDKit          3D

 82 86  0  0  0  0  0  0  0  0999 V2000
    2.2710   17.2350   -0.9600 C   0  0  0  0  0  0  0  0  0  0  0  0
    1.5800   17.3130   -2.3240 C   0  0  2  0  0  0  0  0  0  0  0  0
    0.4950   18.4080   -2.3630 C   0  0  0  0  0  0  0  0  0  0  0  0
    0.6320   19.4510   -1.2500 C   0  0  0  0  0  0  0  0  0  0  0  0
   -0.7050   19.9400   -0.7810 C   0  0  2  0  0  0  0  0  0  0  0  0
   -0.8060   20.1380    0.6350 O   0  0  0  0  0  0  0  0  0  0  0  0
   -1.6440   19.1130    0.0770 C   0  0  0  0  0  0  0  0  0  0  0  0
   -1.2850   17.7280    0.5150 C   0  0  0  0  0  0  0  0  0  0  0  0
   -3.1010   19.4570    0.0790 C   0  0  0  0  0  0  0  0  0  0  0  0
    0.9700   15.9620   -2.6750 C   0  0  1  0  0  0  0  0  0  0  0  0
    0.9490   15.6950   -4.2040 C   0  0  0  0  0  0  0  0  0  0  0  0
    1.1850   14.1750   -4.3960 C   0  0  0  0  0  0  0  0  0  0  0  0
    1.0030   13.5700   -2.9840 C   0  0  1  0  0  0  0  0  0  0  0  0
   -0.5410   13.4350   -2.8020 C   0  0  0  0  0  0  0  0  0  0  0  0
    1.7380   12.2170   -2.7130 C   0  0  2  0  0  0  0  0  0  0  0  0
    1.2810   11.0390   -3.5910 C   0  0  0  0  0  0  0  0  0  0  0  0
    0.1640   10.2220   -3.0320 C   0  0  0  0  0  0  0  0  0  0  0  0
   -0.2590   10.2460   -1.7550 C   0  0  0  0  0  0  0  0  0  0  0  0
    0.4700   11.0860   -0.6990 C   0  0  1  0  0  0  0  0  0  0  0  0
    0.6880   10.2360    0.5800 C   0  0  0  0  0  0  0  0  0  0  0  0
   -0.6100    9.6320    1.1090 C   0  0  0  0  0  0  0  0  0  0  0  0
   -1.2750    8.7570    0.0510 C   0  0  2  0  0  0  0  0  0  0  0  0
   -0.4480    7.6140   -0.1890 O   0  0  0  0  0  0  0  0  0  0  0  0
   -1.5360    9.5040   -1.2870 C   0  0  0  0  0  0  0  0  0  0  0  0
   -2.6600   10.5500   -1.0890 C   0  0  0  0  0  0  0  0  0  0  0  0
   -2.0780    8.4720   -2.3120 C   0  0  0  0  0  0  0  0  0  0  0  0
    1.8000   11.8090   -1.1850 C   0  0  1  0  0  0  0  0  0  0  0  0
    3.0160   10.8450   -1.0310 C   0  0  0  0  0  0  0  0  0  0  0  0
    2.0880   13.0410   -0.2480 C   0  0  0  0  0  0  0  0  0  0  0  0
    1.4300   14.3780   -0.6360 C   0  0  0  0  0  0  0  0  0  0  0  0
    1.6690   14.6980   -2.1150 C   0  0  2  0  0  0  0  0  0  0  0  0
    3.2130   14.8620   -2.3240 C   0  0  0  0  0  0  0  0  0  0  0  0
    1.5184   17.3200   -0.1623 H   0  0  0  0  0  0  0  0  0  0  0  0
    2.7948   16.2720   -0.8689 H   0  0  0  0  0  0  0  0  0  0  0  0
    2.9963   18.0570   -0.8689 H   0  0  0  0  0  0  0  0  0  0  0  0
    2.3448   17.5798   -3.0682 H   0  0  0  0  0  0  0  0  0  0  0  0
    0.5575   18.9243   -3.3323 H   0  0  0  0  0  0  0  0  0  0  0  0
   -0.4729   17.9065   -2.2160 H   0  0  0  0  0  0  0  0  0  0  0  0
    1.1640   18.9980   -0.4004 H   0  0  0  0  0  0  0  0  0  0  0  0
    1.1897   20.3099   -1.6516 H   0  0  0  0  0  0  0  0  0  0  0  0
   -0.8582   20.4942   -1.7187 H   0  0  0  0  0  0  0  0  0  0  0  0
   -1.2732   17.6825    1.6140 H   0  0  0  0  0  0  0  0  0  0  0  0
   -2.0284   17.0163    0.1265 H   0  0  0  0  0  0  0  0  0  0  0  0
   -0.2895   17.4670    0.1265 H   0  0  0  0  0  0  0  0  0  0  0  0
   -3.4565   19.5409    1.1166 H   0  0  0  0  0  0  0  0  0  0  0  0
   -3.2522   20.4155   -0.4391 H   0  0  0  0  0  0  0  0  0  0  0  0
   -3.6649   18.6673   -0.4391 H   0  0  0  0  0  0  0  0  0  0  0  0
   -0.0200   16.0814   -2.2107 H   0  0  0  0  0  0  0  0  0  0  0  0
   -0.0253   15.9832   -4.6255 H   0  0  0  0  0  0  0  0  0  0  0  0
    1.7235   16.2829   -4.7182 H   0  0  0  0  0  0  0  0  0  0  0  0
    0.4494   13.7534   -5.0968 H   0  0  0  0  0  0  0  0  0  0  0  0
    2.1771   13.9571   -4.8183 H   0  0  0  0  0  0  0  0  0  0  0  0
   -0.7833   13.4138   -1.7292 H   0  0  0  0  0  0  0  0  0  0  0  0
   -1.0423   14.2927   -3.2742 H   0  0  0  0  0  0  0  0  0  0  0  0
   -0.8858   12.5033   -3.2742 H   0  0  0  0  0  0  0  0  0  0  0  0
    2.7684   12.4406   -3.0264 H   0  0  0  0  0  0  0  0  0  0  0  0
    0.9537   11.4443   -4.5598 H   0  0  0  0  0  0  0  0  0  0  0  0
    2.1450   10.3622   -3.6653 H   0  0  0  0  0  0  0  0  0  0  0  0
   -0.3575    9.5428   -3.7225 H   0  0  0  0  0  0  0  0  0  0  0  0
   -0.1938   11.9340   -0.4746 H   0  0  0  0  0  0  0  0  0  0  0  0
    1.3872    9.4197    0.3461 H   0  0  0  0  0  0  0  0  0  0  0  0
    1.0888   10.9013    1.3590 H   0  0  0  0  0  0  0  0  0  0  0  0
   -0.3871    9.0191    1.9948 H   0  0  0  0  0  0  0  0  0  0  0  0
   -1.2971   10.4503    1.3704 H   0  0  0  0  0  0  0  0  0  0  0  0
   -2.2597    8.4597    0.4409 H   0  0  0  0  0  0  0  0  0  0  0  0
   -1.0320    6.8670   -0.3990 H   0  0  0  0  0  0  0  0  0  0  0  0
   -2.8291   10.7074   -0.0135 H   0  0  0  0  0  0  0  0  0  0  0  0
   -2.3629   11.5004   -1.5564 H   0  0  0  0  0  0  0  0  0  0  0  0
   -3.5866   10.1854   -1.5564 H   0  0  0  0  0  0  0  0  0  0  0  0
   -2.5245    7.6219   -1.7753 H   0  0  0  0  0  0  0  0  0  0  0  0
   -2.8420    8.9490   -2.9435 H   0  0  0  0  0  0  0  0  0  0  0  0
   -1.2517    8.1138   -2.9435 H   0  0  0  0  0  0  0  0  0  0  0  0
    3.2217   10.6820    0.0372 H   0  0  0  0  0  0  0  0  0  0  0  0
    2.7841    9.8827   -1.5108 H   0  0  0  0  0  0  0  0  0  0  0  0
    3.9000   11.2903   -1.5108 H   0  0  0  0  0  0  0  0  0  0  0  0
    1.7394   12.7794    0.7620 H   0  0  0  0  0  0  0  0  0  0  0  0
    3.1704   13.2185   -0.3309 H   0  0  0  0  0  0  0  0  0  0  0  0
    0.3474   14.3129   -0.4523 H   0  0  0  0  0  0  0  0  0  0  0  0
    1.8764   15.1782   -0.0274 H   0  0  0  0  0  0  0  0  0  0  0  0
    3.7119   14.9150   -1.3451 H   0  0  0  0  0  0  0  0  0  0  0  0
    3.6004   14.0000   -2.8868 H   0  0  0  0  0  0  0  0  0  0  0  0
    3.4107   15.7862   -2.8868 H   0  0  0  0  0  0  0  0  0  0  0  0
  1  2  1  0
  2  3  1  0
  3  4  1  0
  4  5  1  0
  5  6  1  0
  6  7  1  0
  7  8  1  0
  7  9  1  0
  2 10  1  0
 10 11  1  0
 11 12  1  0
 12 13  1  0
 13 14  1  1
 13 15  1  0
 15 16  1  0
 16 17  1  0
 17 18  2  0
 18 19  1  0
 19 20  1  0
 20 21  1  0
 21 22  1  0
 22 23  1  0
 22 24  1  0
 24 25  1  0
 24 26  1  0
 19 27  1  0
 27 28  1  6
 27 29  1  0
 29 30  1  0
 30 31  1  0
 31 32  1  1
  7  5  1  0
 31 10  1  0
 31 13  1  0
 27 15  1  0
 24 18  1  0
  1 33  1  0
  1 34  1  0
  1 35  1  0
  2 36  1  6
  3 37  1  0
  3 38  1  0
  4 39  1  0
  4 40  1  0
  5 41  1  6
  8 42  1  0
  8 43  1  0
  8 44  1  0
  9 45  1  0
  9 46  1  0
  9 47  1  0
 10 48  1  1
 11 49  1  0
 11 50  1  0
 12 51  1  0
 12 52  1  0
 14 53  1  0
 14 54  1  0
 14 55  1  0
 15 56  1  6
 16 57  1  0
 16 58  1  0
 17 59  1  0
 19 60  1  1
 20 61  1  0
 20 62  1  0
 21 63  1  0
 21 64  1  0
 22 65  1  1
 23 66  1  0
 25 67  1  0
 25 68  1  0
 25 69  1  0
 26 70  1  0
 26 71  1  0
 26 72  1  0
 28 73  1  0
 28 74  1  0
 28 75  1  0
 29 76  1  0
 29 77  1  0
 30 78  1  0
 30 79  1  0
 32 80  1  0
 32 81  1  0
 32 82  1  0
M  END
>  <meeko>  (7) 
{"is_sidechain": [false], "intermolecular_energy": 2.731, "internal_energy": -0.839}

$$$$
EPH_relaxed_0001_pdb2pqr_Repair_181_r2_0001_out
     RDKit          3D

 82 86  0  0  0  0  0  0  0  0999 V2000
    3.3850   18.3550   -2.6700 C   0  0  0  0  0  0  0  0  0  0  0  0
    2.0570   17.6010   -2.7850 C   0  0  2  0  0  0  0  0  0  0  0  0
    0.8610   18.4570   -2.3220 C   0  0  0  0  0  0  0  0  0  0  0  0
    1.1220   19.2300   -1.0270 C   0  0  0  0  0  0  0  0  0  0  0  0
   -0.0890   19.9940   -0.5830 C   0  0  2  0  0  0  0  0  0  0  0  0
   -0.1990   20.1700    0.8360 O   0  0  0  0  0  0  0  0  0  0  0  0
   -1.2220   19.3750    0.2140 C   0  0  0  0  0  0  0  0  0  0  0  0
   -1.1980   17.9320    0.6140 C   0  0  0  0  0  0  0  0  0  0  0  0
   -2.5640   20.0370    0.1830 C   0  0  0  0  0  0  0  0  0  0  0  0
    2.1200   16.3120   -1.9740 C   0  0  1  0  0  0  0  0  0  0  0  0
    2.3870   16.5660   -0.4670 C   0  0  0  0  0  0  0  0  0  0  0  0
    1.5970   15.4860    0.3160 C   0  0  0  0  0  0  0  0  0  0  0  0
    1.1770   14.4550   -0.7580 C   0  0  1  0  0  0  0  0  0  0  0  0
    2.4380   13.5600   -0.9700 C   0  0  0  0  0  0  0  0  0  0  0  0
   -0.0910   13.5990   -0.4350 C   0  0  2  0  0  0  0  0  0  0  0  0
    0.0310   12.6920    0.8020 C   0  0  0  0  0  0  0  0  0  0  0  0
    0.5480   11.3170    0.5360 C   0  0  0  0  0  0  0  0  0  0  0  0
    0.6300   10.7330   -0.6740 C   0  0  0  0  0  0  0  0  0  0  0  0
    0.0870   11.4340   -1.9260 C   0  0  1  0  0  0  0  0  0  0  0  0
   -0.7550   10.4300   -2.7570 C   0  0  0  0  0  0  0  0  0  0  0  0
    0.0150    9.1560   -3.0890 C   0  0  0  0  0  0  0  0  0  0  0  0
    0.4880    8.4570   -1.8180 C   0  0  2  0  0  0  0  0  0  0  0  0
   -0.6550    7.9810   -1.1010 O   0  0  0  0  0  0  0  0  0  0  0  0
    1.3390    9.3740   -0.8950 C   0  0  0  0  0  0  0  0  0  0  0  0
    2.7140    9.6440   -1.5550 C   0  0  0  0  0  0  0  0  0  0  0  0
    1.6320    8.5930    0.4150 C   0  0  0  0  0  0  0  0  0  0  0  0
   -0.6720   12.8080   -1.6760 C   0  0  1  0  0  0  0  0  0  0  0  0
   -2.1760   12.5360   -1.3670 C   0  0  0  0  0  0  0  0  0  0  0  0
   -0.6370   13.6610   -2.9990 C   0  0  0  0  0  0  0  0  0  0  0  0
    0.5840   14.5770   -3.2040 C   0  0  0  0  0  0  0  0  0  0  0  0
    0.8520   15.4220   -1.9540 C   0  0  2  0  0  0  0  0  0  0  0  0
   -0.3910   16.3490   -1.7280 C   0  0  0  0  0  0  0  0  0  0  0  0
    3.6352   18.4971   -1.6083 H   0  0  0  0  0  0  0  0  0  0  0  0
    4.1803   17.7737   -3.1595 H   0  0  0  0  0  0  0  0  0  0  0  0
    3.2934   19.3358   -3.1595 H   0  0  0  0  0  0  0  0  0  0  0  0
    1.9014   17.3646   -3.8480 H   0  0  0  0  0  0  0  0  0  0  0  0
    0.6235   19.1801   -3.1162 H   0  0  0  0  0  0  0  0  0  0  0  0
    0.0294   17.7655   -2.1214 H   0  0  0  0  0  0  0  0  0  0  0  0
    1.4033   18.5178   -0.2373 H   0  0  0  0  0  0  0  0  0  0  0  0
    1.9317   19.9504   -1.2152 H   0  0  0  0  0  0  0  0  0  0  0  0
   -0.0772   20.5949   -1.5043 H   0  0  0  0  0  0  0  0  0  0  0  0
   -1.1967   17.8557    1.7113 H   0  0  0  0  0  0  0  0  0  0  0  0
   -2.0878   17.4253    0.2122 H   0  0  0  0  0  0  0  0  0  0  0  0
   -0.2918   17.4552    0.2122 H   0  0  0  0  0  0  0  0  0  0  0  0
   -2.9120   20.2087    1.2123 H   0  0  0  0  0  0  0  0  0  0  0  0
   -2.4858   20.9999   -0.3430 H   0  0  0  0  0  0  0  0  0  0  0  0
   -3.2805   19.3890   -0.3430 H   0  0  0  0  0  0  0  0  0  0  0  0
    2.9326   15.7980   -2.5084 H   0  0  0  0  0  0  0  0  0  0  0  0
    3.4624   16.4783   -0.2529 H   0  0  0  0  0  0  0  0  0  0  0  0
    2.0686   17.5775   -0.1747 H   0  0  0  0  0  0  0  0  0  0  0  0
    2.2347   15.0147    1.0784 H   0  0  0  0  0  0  0  0  0  0  0  0
    0.7329   15.9069    0.8509 H   0  0  0  0  0  0  0  0  0  0  0  0
    2.8491   13.2682    0.0077 H   0  0  0  0  0  0  0  0  0  0  0  0
    2.1570   12.6581   -1.5335 H   0  0  0  0  0  0  0  0  0  0  0  0
    3.1966   14.1229   -1.5335 H   0  0  0  0  0  0  0  0  0  0  0  0
   -0.8324   14.3672   -0.1699 H   0  0  0  0  0  0  0  0  0  0  0  0
    0.7124   13.1793    1.5149 H   0  0  0  0  0  0  0  0  0  0  0  0
   -0.9913   12.5635    1.1872 H   0  0  0  0  0  0  0  0  0  0  0  0
    0.8909   10.7317    1.4019 H   0  0  0  0  0  0  0  0  0  0  0  0
    0.9674   11.7506   -2.5045 H   0  0  0  0  0  0  0  0  0  0  0  0
   -1.6520   10.1599   -2.1804 H   0  0  0  0  0  0  0  0  0  0  0  0
   -1.0168   10.9193   -3.7068 H   0  0  0  0  0  0  0  0  0  0  0  0
   -0.6410    8.4752   -3.6512 H   0  0  0  0  0  0  0  0  0  0  0  0
    0.8961    9.4252   -3.6899 H   0  0  0  0  0  0  0  0  0  0  0  0
    1.1407    7.6255   -2.1223 H   0  0  0  0  0  0  0  0  0  0  0  0
   -0.9590    8.6990   -0.5210 H   0  0  0  0  0  0  0  0  0  0  0  0
    3.4731    9.7931   -0.7730 H   0  0  0  0  0  0  0  0  0  0  0  0
    2.9957    8.7840   -2.1804 H   0  0  0  0  0  0  0  0  0  0  0  0
    2.6496   10.5467   -2.1804 H   0  0  0  0  0  0  0  0  0  0  0  0
    1.3939    9.2277    1.2813 H   0  0  0  0  0  0  0  0  0  0  0  0
    1.0139    7.6836    0.4458 H   0  0  0  0  0  0  0  0  0  0  0  0
    2.6957    8.3146    0.4458 H   0  0  0  0  0  0  0  0  0  0  0  0
   -2.3274   12.5086   -0.2778 H   0  0  0  0  0  0  0  0  0  0  0  0
   -2.7906   13.3376   -1.8026 H   0  0  0  0  0  0  0  0  0  0  0  0
   -2.4709   11.5699   -1.8026 H   0  0  0  0  0  0  0  0  0  0  0  0
   -0.6738   12.9612   -3.8469 H   0  0  0  0  0  0  0  0  0  0  0  0
   -1.4977   14.3419   -2.9246 H   0  0  0  0  0  0  0  0  0  0  0  0
    1.4676   13.9569   -3.4153 H   0  0  0  0  0  0  0  0  0  0  0  0
    0.3776   15.2532   -4.0467 H   0  0  0  0  0  0  0  0  0  0  0  0
   -0.5619   16.4765   -0.6489 H   0  0  0  0  0  0  0  0  0  0  0  0
   -0.2049   17.3306   -2.1882 H   0  0  0  0  0  0  0  0  0  0  0  0
   -1.2787   15.8907   -2.1882 H   0  0  0  0  0  0  0  0  0  0  0  0
  1  2  1  0
  2  3  1  0
  3  4  1  0
  4  5  1  0
  5  6  1  0
  6  7  1  0
  7  8  1  0
  7  9  1  0
  2 10  1  0
 10 11  1  0
 11 12  1  0
 12 13  1  0
 13 14  1  6
 13 15  1  0
 15 16  1  0
 16 17  1  0
 17 18  2  0
 18 19  1  0
 19 20  1  0
 20 21  1  0
 21 22  1  0
 22 23  1  0
 22 24  1  0
 24 25  1  0
 24 26  1  0
 19 27  1  0
 27 28  1  1
 27 29  1  0
 29 30  1  0
 30 31  1  0
 31 32  1  1
  7  5  1  0
 31 10  1  0
 31 13  1  0
 27 15  1  0
 24 18  1  0
  1 33  1  0
  1 34  1  0
  1 35  1  0
  2 36  1  6
  3 37  1  0
  3 38  1  0
  4 39  1  0
  4 40  1  0
  5 41  1  6
  8 42  1  0
  8 43  1  0
  8 44  1  0
  9 45  1  0
  9 46  1  0
  9 47  1  0
 10 48  1  6
 11 49  1  0
 11 50  1  0
 12 51  1  0
 12 52  1  0
 14 53  1  0
 14 54  1  0
 14 55  1  0
 15 56  1  1
 16 57  1  0
 16 58  1  0
 17 59  1  0
 19 60  1  6
 20 61  1  0
 20 62  1  0
 21 63  1  0
 21 64  1  0
 22 65  1  6
 23 66  1  0
 25 67  1  0
 25 68  1  0
 25 69  1  0
 26 70  1  0
 26 71  1  0
 26 72  1  0
 28 73  1  0
 28 74  1  0
 28 75  1  0
 29 76  1  0
 29 77  1  0
 30 78  1  0
 30 79  1  0
 32 80  1  0
 32 81  1  0
 32 82  1  0
M  END
>  <meeko>  (8) 
{"is_sidechain": [false], "intermolecular_energy": 2.731, "internal_energy": -0.839}

$$$$
EPH_relaxed_0001_pdb2pqr_Repair_181_r2_0001_out
     RDKit          3D

 82 86  0  0  0  0  0  0  0  0999 V2000
   -0.5780   16.0320   -5.7910 C   0  0  0  0  0  0  0  0  0  0  0  0
    0.6740   15.3580   -6.3590 C   0  0  2  0  0  0  0  0  0  0  0  0
    0.6490   15.2890   -7.8990 C   0  0  0  0  0  0  0  0  0  0  0  0
    1.7750   16.0810   -8.5690 C   0  0  0  0  0  0  0  0  0  0  0  0
    1.6320   16.0930  -10.0610 C   0  0  2  0  0  0  0  0  0  0  0  0
    1.0760   14.8960  -10.6190 O   0  0  0  0  0  0  0  0  0  0  0  0
    2.4320   15.1960  -10.9860 C   0  0  0  0  0  0  0  0  0  0  0  0
    3.4360   14.2230  -10.4520 C   0  0  0  0  0  0  0  0  0  0  0  0
    2.5940   15.6040  -12.4170 C   0  0  0  0  0  0  0  0  0  0  0  0
    0.8190   13.9570   -5.7770 C   0  0  1  0  0  0  0  0  0  0  0  0
    2.1930   13.3130   -6.1050 C   0  0  0  0  0  0  0  0  0  0  0  0
    2.5880   12.4520   -4.8780 C   0  0  0  0  0  0  0  0  0  0  0  0
    1.2960   12.3610   -4.0330 C   0  0  1  0  0  0  0  0  0  0  0  0
    0.4530   11.2360   -4.7090 C   0  0  0  0  0  0  0  0  0  0  0  0
    1.4880   12.0990   -2.5030 C   0  0  2  0  0  0  0  0  0  0  0  0
    2.1590   10.7600   -2.1500 C   0  0  0  0  0  0  0  0  0  0  0  0
    1.2240    9.6150   -1.9430 C   0  0  0  0  0  0  0  0  0  0  0  0
   -0.1050    9.7130   -1.7560 C   0  0  0  0  0  0  0  0  0  0  0  0
   -0.7850   11.0840   -1.6420 C   0  0  1  0  0  0  0  0  0  0  0  0
   -1.7600   11.0790   -0.4360 C   0  0  0  0  0  0  0  0  0  0  0  0
   -2.7650    9.9330   -0.5010 C   0  0  0  0  0  0  0  0  0  0  0  0
   -2.0520    8.5850   -0.5540 C   0  0  2  0  0  0  0  0  0  0  0  0
   -1.3790    8.3700    0.6900 O   0  0  0  0  0  0  0  0  0  0  0  0
   -1.0350    8.4760   -1.7250 C   0  0  0  0  0  0  0  0  0  0  0  0
   -1.7970    8.4060   -3.0710 C   0  0  0  0  0  0  0  0  0  0  0  0
   -0.2840    7.1240   -1.5800 C   0  0  0  0  0  0  0  0  0  0  0  0
    0.1870   12.3410   -1.6360 C   0  0  1  0  0  0  0  0  0  0  0  0
    0.6690   12.6340   -0.1820 C   0  0  0  0  0  0  0  0  0  0  0  0
   -0.6150   13.6130   -2.1020 C   0  0  0  0  0  0  0  0  0  0  0  0
   -0.6680   13.8840   -3.6180 C   0  0  0  0  0  0  0  0  0  0  0  0
    0.7320   13.8150   -4.2360 C   0  0  2  0  0  0  0  0  0  0  0  0
    1.5970   14.9500   -3.5910 C   0  0  0  0  0  0  0  0  0  0  0  0
   -0.5391   16.0110   -4.6919 H   0  0  0  0  0  0  0  0  0  0  0  0
   -0.6215   17.0754   -6.1365 H   0  0  0  0  0  0  0  0  0  0  0  0
   -1.4729   15.4938   -6.1365 H   0  0  0  0  0  0  0  0  0  0  0  0
    1.5399   15.9720   -6.0706 H   0  0  0  0  0  0  0  0  0  0  0  0
    0.7385   14.2350   -8.2009 H   0  0  0  0  0  0  0  0  0  0  0  0
   -0.2996   15.7400   -8.2256 H   0  0  0  0  0  0  0  0  0  0  0  0
    1.7506   17.1170   -8.2001 H   0  0  0  0  0  0  0  0  0  0  0  0
    2.7306   15.5965   -8.3198 H   0  0  0  0  0  0  0  0  0  0  0  0
    1.4543   17.1785  -10.0580 H   0  0  0  0  0  0  0  0  0  0  0  0
    3.4162   14.2421   -9.3523 H   0  0  0  0  0  0  0  0  0  0  0  0
    3.1898   13.2109  -10.8056 H   0  0  0  0  0  0  0  0  0  0  0  0
    4.4399   14.5008  -10.8056 H   0  0  0  0  0  0  0  0  0  0  0  0
    2.9996   16.6254  -12.4634 H   0  0  0  0  0  0  0  0  0  0  0  0
    3.2855   14.9117  -12.9196 H   0  0  0  0  0  0  0  0  0  0  0  0
    1.6160   15.5746  -12.9196 H   0  0  0  0  0  0  0  0  0  0  0  0
   -0.0465   13.4700   -6.2500 H   0  0  0  0  0  0  0  0  0  0  0  0
    2.1105   12.6802   -7.0010 H   0  0  0  0  0  0  0  0  0  0  0  0
    2.9518   14.0832   -6.3076 H   0  0  0  0  0  0  0  0  0  0  0  0
    2.9158   11.4511   -5.1953 H   0  0  0  0  0  0  0  0  0  0  0  0
    3.4253   12.8888   -4.3141 H   0  0  0  0  0  0  0  0  0  0  0  0
   -0.0147   10.6119   -3.9333 H   0  0  0  0  0  0  0  0  0  0  0  0
   -0.3291   11.6900   -5.3352 H   0  0  0  0  0  0  0  0  0  0  0  0
    1.1083   10.6128   -5.3352 H   0  0  0  0  0  0  0  0  0  0  0  0
    2.2099   12.8786   -2.2183 H   0  0  0  0  0  0  0  0  0  0  0  0
    2.8437   10.4962   -2.9695 H   0  0  0  0  0  0  0  0  0  0  0  0
    2.6661   10.9176   -1.1867 H   0  0  0  0  0  0  0  0  0  0  0  0
    1.6586    8.6045   -1.9433 H   0  0  0  0  0  0  0  0  0  0  0  0
   -1.3482   11.2235   -2.5766 H   0  0  0  0  0  0  0  0  0  0  0  0
   -1.1746   10.9825    0.4903 H   0  0  0  0  0  0  0  0  0  0  0  0
   -2.3264   12.0216   -0.4606 H   0  0  0  0  0  0  0  0  0  0  0  0
   -3.4068    9.9659    0.3917 H   0  0  0  0  0  0  0  0  0  0  0  0
   -3.3690   10.0469   -1.4133 H   0  0  0  0  0  0  0  0  0  0  0  0
   -2.8164    7.8138   -0.7298 H   0  0  0  0  0  0  0  0  0  0  0  0
   -0.7140    9.0720    0.7900 H   0  0  0  0  0  0  0  0  0  0  0  0
   -2.8753    8.3069   -2.8772 H   0  0  0  0  0  0  0  0  0  0  0  0
   -1.6107    9.3250   -3.6460 H   0  0  0  0  0  0  0  0  0  0  0  0
   -1.4464    7.5363   -3.6460 H   0  0  0  0  0  0  0  0  0  0  0  0
   -0.1537    6.8895   -0.5132 H   0  0  0  0  0  0  0  0  0  0  0  0
   -0.8684    6.3264   -2.0621 H   0  0  0  0  0  0  0  0  0  0  0  0
    0.7019    7.1987   -2.0621 H   0  0  0  0  0  0  0  0  0  0  0  0
   -0.0439   12.2006    0.5349 H   0  0  0  0  0  0  0  0  0  0  0  0
    1.6620   12.1865   -0.0277 H   0  0  0  0  0  0  0  0  0  0  0  0
    0.7289   13.7215   -0.0277 H   0  0  0  0  0  0  0  0  0  0  0  0
   -1.6503   13.5020   -1.7474 H   0  0  0  0  0  0  0  0  0  0  0  0
   -0.0709   14.4686   -1.6755 H   0  0  0  0  0  0  0  0  0  0  0  0
   -1.3101   13.1297   -4.0963 H   0  0  0  0  0  0  0  0  0  0  0  0
   -1.0739   14.8934   -3.7801 H   0  0  0  0  0  0  0  0  0  0  0  0
    1.5406   14.8760   -2.4949 H   0  0  0  0  0  0  0  0  0  0  0  0
    2.6433   14.8412   -3.9125 H   0  0  0  0  0  0  0  0  0  0  0  0
    1.2146   15.9300   -3.9125 H   0  0  0  0  0  0  0  0  0  0  0  0
  1  2  1  0
  2  3  1  0
  3  4  1  0
  4  5  1  0
  5  6  1  0
  6  7  1  0
  7  8  1  0
  7  9  1  0
  2 10  1  0
 10 11  1  0
 11 12  1  0
 12 13  1  0
 13 14  1  6
 13 15  1  0
 15 16  1  0
 16 17  1  0
 17 18  2  0
 18 19  1  0
 19 20  1  0
 20 21  1  0
 21 22  1  0
 22 23  1  0
 22 24  1  0
 24 25  1  0
 24 26  1  0
 19 27  1  0
 27 28  1  1
 27 29  1  0
 29 30  1  0
 30 31  1  0
 31 32  1  1
  7  5  1  0
 31 10  1  0
 31 13  1  0
 27 15  1  0
 24 18  1  0
  1 33  1  0
  1 34  1  0
  1 35  1  0
  2 36  1  6
  3 37  1  0
  3 38  1  0
  4 39  1  0
  4 40  1  0
  5 41  1  6
  8 42  1  0
  8 43  1  0
  8 44  1  0
  9 45  1  0
  9 46  1  0
  9 47  1  0
 10 48  1  6
 11 49  1  0
 11 50  1  0
 12 51  1  0
 12 52  1  0
 14 53  1  0
 14 54  1  0
 14 55  1  0
 15 56  1  1
 16 57  1  0
 16 58  1  0
 17 59  1  0
 19 60  1  6
 20 61  1  0
 20 62  1  0
 21 63  1  0
 21 64  1  0
 22 65  1  6
 23 66  1  0
 25 67  1  0
 25 68  1  0
 25 69  1  0
 26 70  1  0
 26 71  1  0
 26 72  1  0
 28 73  1  0
 28 74  1  0
 28 75  1  0
 29 76  1  0
 29 77  1  0
 30 78  1  0
 30 79  1  0
 32 80  1  0
 32 81  1  0
 32 82  1  0
M  END
>  <meeko>  (9) 
{"is_sidechain": [false], "intermolecular_energy": 2.731, "internal_energy": -0.839}

$$$$
EPH_relaxed_0001_pdb2pqr_Repair_181_r2_0001_out
     RDKit          3D

 82 86  0  0  0  0  0  0  0  0999 V2000
    0.7580   14.8050   -2.6460 C   0  0  0  0  0  0  0  0  0  0  0  0
    1.0590   14.1180   -3.9810 C   0  0  2  0  0  0  0  0  0  0  0  0
    0.3920   14.8390   -5.1690 C   0  0  0  0  0  0  0  0  0  0  0  0
    1.0810   14.5820   -6.5120 C   0  0  0  0  0  0  0  0  0  0  0  0
    0.8510   15.7040   -7.4780 C   0  0  2  0  0  0  0  0  0  0  0  0
    0.3800   15.2950   -8.7690 O   0  0  0  0  0  0  0  0  0  0  0  0
    1.6780   15.9100   -8.7330 C   0  0  0  0  0  0  0  0  0  0  0  0
    2.7990   14.9860   -9.0900 C   0  0  0  0  0  0  0  0  0  0  0  0
    1.7150   17.2740   -9.3490 C   0  0  0  0  0  0  0  0  0  0  0  0
    0.6020   12.6640   -3.9310 C   0  0  1  0  0  0  0  0  0  0  0  0
    1.7310   11.6700   -4.3100 C   0  0  0  0  0  0  0  0  0  0  0  0
    1.5230   10.4040   -3.4400 C   0  0  0  0  0  0  0  0  0  0  0  0
    0.1080   10.5720   -2.8390 C   0  0  1  0  0  0  0  0  0  0  0  0
   -0.8650   10.1090   -3.9680 C   0  0  0  0  0  0  0  0  0  0  0  0
   -0.1660    9.8200   -1.4960 C   0  0  2  0  0  0  0  0  0  0  0  0
   -0.0670    8.2860   -1.5750 C   0  0  0  0  0  0  0  0  0  0  0  0
   -1.3420    7.5810   -1.9050 C   0  0  0  0  0  0  0  0  0  0  0  0
   -2.5720    8.1230   -1.8490 C   0  0  0  0  0  0  0  0  0  0  0  0
   -2.7810    9.5500   -1.3270 C   0  0  1  0  0  0  0  0  0  0  0  0
   -3.9650    9.5670   -0.3250 C   0  0  0  0  0  0  0  0  0  0  0  0
   -5.2390    8.9690   -0.9140 C   0  0  0  0  0  0  0  0  0  0  0  0
   -5.0070    7.5300   -1.3680 C   0  0  2  0  0  0  0  0  0  0  0  0
   -4.7560    6.7180   -0.2170 O   0  0  0  0  0  0  0  0  0  0  0  0
   -3.8300    7.3880   -2.3740 C   0  0  0  0  0  0  0  0  0  0  0  0
   -4.2280    8.0150   -3.7330 C   0  0  0  0  0  0  0  0  0  0  0  0
   -3.6110    5.8740   -2.6420 C   0  0  0  0  0  0  0  0  0  0  0  0
   -1.4880   10.2760   -0.7550 C   0  0  1  0  0  0  0  0  0  0  0  0
   -1.3000    9.9200    0.7510 C   0  0  0  0  0  0  0  0  0  0  0  0
   -1.7020   11.8350   -0.8200 C   0  0  0  0  0  0  0  0  0  0  0  0
   -1.3010   12.5370   -2.1310 C   0  0  0  0  0  0  0  0  0  0  0  0
    0.1070   12.1210   -2.5680 C   0  0  2  0  0  0  0  0  0  0  0  0
    1.1110   12.5930   -1.4610 C   0  0  0  0  0  0  0  0  0  0  0  0
    1.0488   14.1413   -1.8183 H   0  0  0  0  0  0  0  0  0  0  0  0
    1.3272   15.7440   -2.5803 H   0  0  0  0  0  0  0  0  0  0  0  0
   -0.3181   15.0232   -2.5803 H   0  0  0  0  0  0  0  0  0  0  0  0
    2.1469   14.1614   -4.1378 H   0  0  0  0  0  0  0  0  0  0  0  0
   -0.6504   14.4956   -5.2424 H   0  0  0  0  0  0  0  0  0  0  0  0
    0.4660   15.9186   -4.9717 H   0  0  0  0  0  0  0  0  0  0  0  0
    2.1625   14.4738   -6.3426 H   0  0  0  0  0  0  0  0  0  0  0  0
    0.6554   13.6648   -6.9451 H   0  0  0  0  0  0  0  0  0  0  0  0
    0.5711   16.3832   -6.6592 H   0  0  0  0  0  0  0  0  0  0  0  0
    3.2647   14.6021   -8.1704 H   0  0  0  0  0  0  0  0  0  0  0  0
    2.4070   14.1452   -9.6811 H   0  0  0  0  0  0  0  0  0  0  0  0
    3.5495   15.5313   -9.6811 H   0  0  0  0  0  0  0  0  0  0  0  0
    1.7356   18.0346   -8.5546 H   0  0  0  0  0  0  0  0  0  0  0  0
    2.6161   17.3704   -9.9725 H   0  0  0  0  0  0  0  0  0  0  0  0
    0.8205   17.4191   -9.9725 H   0  0  0  0  0  0  0  0  0  0  0  0
   -0.2346   12.7089   -4.6438 H   0  0  0  0  0  0  0  0  0  0  0  0
    1.6654   11.4112   -5.3771 H   0  0  0  0  0  0  0  0  0  0  0  0
    2.7225   12.1123   -4.1330 H   0  0  0  0  0  0  0  0  0  0  0  0
    1.5773    9.4953   -4.0574 H   0  0  0  0  0  0  0  0  0  0  0  0
    2.2960   10.2992   -2.6644 H   0  0  0  0  0  0  0  0  0  0  0  0
   -1.7710    9.6779   -3.5172 H   0  0  0  0  0  0  0  0  0  0  0  0
   -1.1408   10.9724   -4.5913 H   0  0  0  0  0  0  0  0  0  0  0  0
   -0.3690    9.3504   -4.5913 H   0  0  0  0  0  0  0  0  0  0  0  0
    0.6785   10.1425   -0.8692 H   0  0  0  0  0  0  0  0  0  0  0  0
    0.6720    8.0324   -2.3493 H   0  0  0  0  0  0  0  0  0  0  0  0
    0.2167    7.9468   -0.5678 H   0  0  0  0  0  0  0  0  0  0  0  0
   -1.2689    6.5297   -2.2205 H   0  0  0  0  0  0  0  0  0  0  0  0
   -3.0277   10.1619   -2.2072 H   0  0  0  0  0  0  0  0  0  0  0  0
   -3.6818    8.9863    0.5652 H   0  0  0  0  0  0  0  0  0  0  0  0
   -4.1745   10.6172   -0.0737 H   0  0  0  0  0  0  0  0  0  0  0  0
   -6.0298    8.9822   -0.1495 H   0  0  0  0  0  0  0  0  0  0  0  0
   -5.5375    9.5686   -1.7865 H   0  0  0  0  0  0  0  0  0  0  0  0
   -5.9137    7.2004   -1.8964 H   0  0  0  0  0  0  0  0  0  0  0  0
   -3.8810    6.3100   -0.3290 H   0  0  0  0  0  0  0  0  0  0  0  0
   -4.8100    8.9318   -3.5574 H   0  0  0  0  0  0  0  0  0  0  0  0
   -3.3201    8.2606   -4.3034 H   0  0  0  0  0  0  0  0  0  0  0  0
   -4.8366    7.2979   -4.3034 H   0  0  0  0  0  0  0  0  0  0  0  0
   -3.5337    5.3394   -1.6837 H   0  0  0  0  0  0  0  0  0  0  0  0
   -4.4610    5.4765   -3.2160 H   0  0  0  0  0  0  0  0  0  0  0  0
   -2.6832    5.7337   -3.2160 H   0  0  0  0  0  0  0  0  0  0  0  0
   -1.7236   10.7222    1.3731 H   0  0  0  0  0  0  0  0  0  0  0  0
   -1.8161    8.9739    0.9713 H   0  0  0  0  0  0  0  0  0  0  0  0
   -0.2276    9.8127    0.9713 H   0  0  0  0  0  0  0  0  0  0  0  0
   -2.7710   12.0315   -0.6508 H   0  0  0  0  0  0  0  0  0  0  0  0
   -1.0301   12.2499   -0.0542 H   0  0  0  0  0  0  0  0  0  0  0  0
   -2.0178   12.2636   -2.9193 H   0  0  0  0  0  0  0  0  0  0  0  0
   -1.3090   13.6241   -1.9631 H   0  0  0  0  0  0  0  0  0  0  0  0
    0.6830   12.3918   -0.4679 H   0  0  0  0  0  0  0  0  0  0  0  0
    2.0595   12.0465   -1.5691 H   0  0  0  0  0  0  0  0  0  0  0  0
    1.2952   13.6721   -1.5691 H   0  0  0  0  0  0  0  0  0  0  0  0
  1  2  1  0
  2  3  1  0
  3  4  1  0
  4  5  1  0
  5  6  1  0
  6  7  1  0
  7  8  1  0
  7  9  1  0
  2 10  1  0
 10 11  1  0
 11 12  1  0
 12 13  1  0
 13 14  1  6
 13 15  1  0
 15 16  1  0
 16 17  1  0
 17 18  2  0
 18 19  1  0
 19 20  1  0
 20 21  1  0
 21 22  1  0
 22 23  1  0
 22 24  1  0
 24 25  1  0
 24 26  1  0
 19 27  1  0
 27 28  1  1
 27 29  1  0
 29 30  1  0
 30 31  1  0
 31 32  1  1
  7  5  1  0
 31 10  1  0
 31 13  1  0
 27 15  1  0
 24 18  1  0
  1 33  1  0
  1 34  1  0
  1 35  1  0
  2 36  1  6
  3 37  1  0
  3 38  1  0
  4 39  1  0
  4 40  1  0
  5 41  1  1
  8 42  1  0
  8 43  1  0
  8 44  1  0
  9 45  1  0
  9 46  1  0
  9 47  1  0
 10 48  1  6
 11 49  1  0
 11 50  1  0
 12 51  1  0
 12 52  1  0
 14 53  1  0
 14 54  1  0
 14 55  1  0
 15 56  1  1
 16 57  1  0
 16 58  1  0
 17 59  1  0
 19 60  1  6
 20 61  1  0
 20 62  1  0
 21 63  1  0
 21 64  1  0
 22 65  1  6
 23 66  1  0
 25 67  1  0
 25 68  1  0
 25 69  1  0
 26 70  1  0
 26 71  1  0
 26 72  1  0
 28 73  1  0
 28 74  1  0
 28 75  1  0
 29 76  1  0
 29 77  1  0
 30 78  1  0
 30 79  1  0
 32 80  1  0
 32 81  1  0
 32 82  1  0
M  END
>  <meeko>  (10) 
{"is_sidechain": [false], "intermolecular_energy": 2.731, "internal_energy": -0.839}

$$$$
EPH_relaxed_0001_pdb2pqr_Repair_181_r2_0001_out
     RDKit          3D

 82 86  0  0  0  0  0  0  0  0999 V2000
    3.1140   14.7770   -7.5200 C   0  0  0  0  0  0  0  0  0  0  0  0
    1.5910   14.8340   -7.3700 C   0  0  2  0  0  0  0  0  0  0  0  0
    0.9880   16.0860   -8.0380 C   0  0  0  0  0  0  0  0  0  0  0  0
    1.9250   16.7590   -9.0440 C   0  0  0  0  0  0  0  0  0  0  0  0
    1.5960   16.3720  -10.4540 C   0  0  2  0  0  0  0  0  0  0  0  0
    1.0070   15.0720  -10.5960 O   0  0  0  0  0  0  0  0  0  0  0  0
    2.2980   15.2520  -11.1990 C   0  0  0  0  0  0  0  0  0  0  0  0
    3.3870   14.4500  -10.5580 C   0  0  0  0  0  0  0  0  0  0  0  0
    2.2680   15.2600  -12.6960 C   0  0  0  0  0  0  0  0  0  0  0  0
    1.2130   14.7970   -5.8940 C   0  0  1  0  0  0  0  0  0  0  0  0
   -0.0110   15.6950   -5.5690 C   0  0  0  0  0  0  0  0  0  0  0  0
   -0.8080   14.9750   -4.4510 C   0  0  0  0  0  0  0  0  0  0  0  0
    0.1450   13.8690   -3.9410 C   0  0  1  0  0  0  0  0  0  0  0  0
    1.1130   14.5960   -2.9560 C   0  0  0  0  0  0  0  0  0  0  0  0
   -0.5310   12.6270   -3.2750 C   0  0  2  0  0  0  0  0  0  0  0  0
   -1.3320   12.9280   -1.9960 C   0  0  0  0  0  0  0  0  0  0  0  0
   -0.5580   12.8380   -0.7230 C   0  0  0  0  0  0  0  0  0  0  0  0
    0.6470   12.2550   -0.5790 C   0  0  0  0  0  0  0  0  0  0  0  0
    1.3100   11.5190   -1.7500 C   0  0  1  0  0  0  0  0  0  0  0  0
    1.8530   10.1510   -1.2610 C   0  0  0  0  0  0  0  0  0  0  0  0
    2.7800   10.2860   -0.0570 C   0  0  0  0  0  0  0  0  0  0  0  0
    2.0670   10.9700    1.1060 C   0  0  2  0  0  0  0  0  0  0  0  0
    1.0260   10.1090    1.5800 O   0  0  0  0  0  0  0  0  0  0  0  0
    1.4690   12.3550    0.7300 C   0  0  0  0  0  0  0  0  0  0  0  0
    2.6140   13.3740    0.5080 C   0  0  0  0  0  0  0  0  0  0  0  0
    0.6570   12.8720    1.9480 C   0  0  0  0  0  0  0  0  0  0  0  0
    0.4380   11.3920   -3.0730 C   0  0  1  0  0  0  0  0  0  0  0  0
   -0.4670   10.1250   -2.9930 C   0  0  0  0  0  0  0  0  0  0  0  0
    1.3970   11.1760   -4.3030 C   0  0  0  0  0  0  0  0  0  0  0  0
    1.9370   12.4430   -4.9930 C   0  0  0  0  0  0  0  0  0  0  0  0
    0.8030   13.4270   -5.2990 C   0  0  2  0  0  0  0  0  0  0  0  0
   -0.1750   12.7310   -6.3060 C   0  0  0  0  0  0  0  0  0  0  0  0
    3.5802   14.7596   -6.5238 H   0  0  0  0  0  0  0  0  0  0  0  0
    3.3943   13.8677   -8.0720 H   0  0  0  0  0  0  0  0  0  0  0  0
    3.4615   15.6628   -8.0720 H   0  0  0  0  0  0  0  0  0  0  0  0
    1.1744   13.9543   -7.8825 H   0  0  0  0  0  0  0  0  0  0  0  0
    0.0685   15.7899   -8.5642 H   0  0  0  0  0  0  0  0  0  0  0  0
    0.7974   16.8166   -7.2381 H   0  0  0  0  0  0  0  0  0  0  0  0
    1.8316   17.8504   -8.9430 H   0  0  0  0  0  0  0  0  0  0  0  0
    2.9522   16.4292   -8.8291 H   0  0  0  0  0  0  0  0  0  0  0  0
    1.3908   17.4197  -10.7191 H   0  0  0  0  0  0  0  0  0  0  0  0
    3.2961   14.5169   -9.4638 H   0  0  0  0  0  0  0  0  0  0  0  0
    3.3000   13.3986  -10.8695 H   0  0  0  0  0  0  0  0  0  0  0  0
    4.3652   14.8450  -10.8695 H   0  0  0  0  0  0  0  0  0  0  0  0
    1.2588   15.5291  -13.0411 H   0  0  0  0  0  0  0  0  0  0  0  0
    2.9930   15.9962  -13.0733 H   0  0  0  0  0  0  0  0  0  0  0  0
    2.5302   14.2606  -13.0733 H   0  0  0  0  0  0  0  0  0  0  0  0
    2.1635   15.1297   -5.4513 H   0  0  0  0  0  0  0  0  0  0  0  0
    0.3254   16.6821   -5.2191 H   0  0  0  0  0  0  0  0  0  0  0  0
   -0.6348   15.8514   -6.4614 H   0  0  0  0  0  0  0  0  0  0  0  0
   -1.0587   15.6753   -3.6406 H   0  0  0  0  0  0  0  0  0  0  0  0
   -1.7621   14.5670   -4.8162 H   0  0  0  0  0  0  0  0  0  0  0  0
    0.8170   14.3737   -1.9201 H   0  0  0  0  0  0  0  0  0  0  0  0
    2.1415   14.2452   -3.1268 H   0  0  0  0  0  0  0  0  0  0  0  0
    1.0627   15.6815   -3.1268 H   0  0  0  0  0  0  0  0  0  0  0  0
   -1.2738   12.3296   -4.0298 H   0  0  0  0  0  0  0  0  0  0  0  0
   -1.7330   13.9490   -2.0785 H   0  0  0  0  0  0  0  0  0  0  0  0
   -2.1099   12.1527   -1.9346 H   0  0  0  0  0  0  0  0  0  0  0  0
   -1.0106   13.2861    0.1739 H   0  0  0  0  0  0  0  0  0  0  0  0
    2.1446   12.1570   -2.0762 H   0  0  0  0  0  0  0  0  0  0  0  0
    1.0015    9.5135   -0.9807 H   0  0  0  0  0  0  0  0  0  0  0  0
    2.4357    9.7099   -2.0832 H   0  0  0  0  0  0  0  0  0  0  0  0
    3.1068    9.2846    0.2599 H   0  0  0  0  0  0  0  0  0  0  0  0
    3.6459   10.8990   -0.3475 H   0  0  0  0  0  0  0  0  0  0  0  0
    2.8171   11.1548    1.8891 H   0  0  0  0  0  0  0  0  0  0  0  0
    1.3560    9.6590    2.3760 H   0  0  0  0  0  0  0  0  0  0  0  0
    2.9961   13.7141    1.4818 H   0  0  0  0  0  0  0  0  0  0  0  0
    3.4266   12.8949   -0.0577 H   0  0  0  0  0  0  0  0  0  0  0  0
    2.2325   14.2368   -0.0577 H   0  0  0  0  0  0  0  0  0  0  0  0
    1.1516   12.5571    2.8787 H   0  0  0  0  0  0  0  0  0  0  0  0
    0.6044   13.9702    1.9141 H   0  0  0  0  0  0  0  0  0  0  0  0
   -0.3603   12.4550    1.9141 H   0  0  0  0  0  0  0  0  0  0  0  0
   -0.6489    9.8703   -1.9385 H   0  0  0  0  0  0  0  0  0  0  0  0
   -1.4262   10.3274   -3.4920 H   0  0  0  0  0  0  0  0  0  0  0  0
    0.0355    9.2833   -3.4920 H   0  0  0  0  0  0  0  0  0  0  0  0
    2.2618   10.5936   -3.9525 H   0  0  0  0  0  0  0  0  0  0  0  0
    0.7812   10.6740   -5.0637 H   0  0  0  0  0  0  0  0  0  0  0  0
    2.6671   12.9303   -4.3300 H   0  0  0  0  0  0  0  0  0  0  0  0
    2.4125   12.1504   -5.9408 H   0  0  0  0  0  0  0  0  0  0  0  0
   -0.9469   12.1817   -5.7471 H   0  0  0  0  0  0  0  0  0  0  0  0
   -0.6531   13.4931   -6.9389 H   0  0  0  0  0  0  0  0  0  0  0  0
    0.3884   12.0296   -6.9389 H   0  0  0  0  0  0  0  0  0  0  0  0
  1  2  1  0
  2  3  1  0
  3  4  1  0
  4  5  1  0
  5  6  1  0
  6  7  1  0
  7  8  1  0
  7  9  1  0
  2 10  1  0
 10 11  1  0
 11 12  1  0
 12 13  1  0
 13 14  1  1
 13 15  1  0
 15 16  1  0
 16 17  1  0
 17 18  2  0
 18 19  1  0
 19 20  1  0
 20 21  1  0
 21 22  1  0
 22 23  1  0
 22 24  1  0
 24 25  1  0
 24 26  1  0
 19 27  1  0
 27 28  1  1
 27 29  1  0
 29 30  1  0
 30 31  1  0
 31 32  1  6
  7  5  1  0
 31 10  1  0
 31 13  1  0
 27 15  1  0
 24 18  1  0
  1 33  1  0
  1 34  1  0
  1 35  1  0
  2 36  1  6
  3 37  1  0
  3 38  1  0
  4 39  1  0
  4 40  1  0
  5 41  1  6
  8 42  1  0
  8 43  1  0
  8 44  1  0
  9 45  1  0
  9 46  1  0
  9 47  1  0
 10 48  1  1
 11 49  1  0
 11 50  1  0
 12 51  1  0
 12 52  1  0
 14 53  1  0
 14 54  1  0
 14 55  1  0
 15 56  1  6
 16 57  1  0
 16 58  1  0
 17 59  1  0
 19 60  1  6
 20 61  1  0
 20 62  1  0
 21 63  1  0
 21 64  1  0
 22 65  1  1
 23 66  1  0
 25 67  1  0
 25 68  1  0
 25 69  1  0
 26 70  1  0
 26 71  1  0
 26 72  1  0
 28 73  1  0
 28 74  1  0
 28 75  1  0
 29 76  1  0
 29 77  1  0
 30 78  1  0
 30 79  1  0
 32 80  1  0
 32 81  1  0
 32 82  1  0
M  END
>  <meeko>  (11) 
{"is_sidechain": [false], "intermolecular_energy": 2.731, "internal_energy": -0.839}

$$$$
EPH_relaxed_0001_pdb2pqr_Repair_181_r2_0001_out
     RDKit          3D

 82 86  0  0  0  0  0  0  0  0999 V2000
    1.1410   10.8180   -4.7670 C   0  0  0  0  0  0  0  0  0  0  0  0
    0.4840   10.6310   -3.3970 C   0  0  2  0  0  0  0  0  0  0  0  0
   -0.6530    9.5910   -3.4350 C   0  0  0  0  0  0  0  0  0  0  0  0
   -0.4570    8.4290   -2.4580 C   0  0  0  0  0  0  0  0  0  0  0  0
    0.0400    8.9020   -1.1260 C   0  0  2  0  0  0  0  0  0  0  0  0
   -0.2840    8.0420   -0.0250 O   0  0  0  0  0  0  0  0  0  0  0  0
   -0.8760    9.3510   -0.0020 C   0  0  0  0  0  0  0  0  0  0  0  0
   -2.3640    9.3480   -0.1600 C   0  0  0  0  0  0  0  0  0  0  0  0
   -0.3190   10.2460    1.0610 C   0  0  0  0  0  0  0  0  0  0  0  0
   -0.0480   11.9660   -2.8890 C   0  0  1  0  0  0  0  0  0  0  0  0
   -1.3370   11.8110   -2.0390 C   0  0  0  0  0  0  0  0  0  0  0  0
   -1.2760   12.8970   -0.9330 C   0  0  0  0  0  0  0  0  0  0  0  0
   -0.1370   13.8430   -1.3780 C   0  0  1  0  0  0  0  0  0  0  0  0
   -0.7880   14.7830   -2.4410 C   0  0  0  0  0  0  0  0  0  0  0  0
    0.5690   14.6560   -0.2440 C   0  0  2  0  0  0  0  0  0  0  0  0
   -0.3400   15.6370    0.5180 C   0  0  0  0  0  0  0  0  0  0  0  0
   -0.4030   17.0170   -0.0470 C   0  0  0  0  0  0  0  0  0  0  0  0
    0.4550   17.5340   -0.9460 C   0  0  0  0  0  0  0  0  0  0  0  0
    1.6790   16.7380   -1.4150 C   0  0  1  0  0  0  0  0  0  0  0  0
    2.9330   17.6520   -1.3880 C   0  0  0  0  0  0  0  0  0  0  0  0
    2.7360   18.9400   -2.1810 C   0  0  0  0  0  0  0  0  0  0  0  0
    1.5450   19.7320   -1.6480 C   0  0  2  0  0  0  0  0  0  0  0  0
    1.8520   20.1940   -0.3290 O   0  0  0  0  0  0  0  0  0  0  0  0
    0.2260   18.9100   -1.6190 C   0  0  0  0  0  0  0  0  0  0  0  0
   -0.2680   18.6670   -3.0670 C   0  0  0  0  0  0  0  0  0  0  0  0
   -0.8620   19.7770   -0.9300 C   0  0  0  0  0  0  0  0  0  0  0  0
    1.9220   15.3470   -0.6870 C   0  0  1  0  0  0  0  0  0  0  0  0
    2.7570   15.5640    0.6120 C   0  0  0  0  0  0  0  0  0  0  0  0
    2.7880   14.4210   -1.6210 C   0  0  0  0  0  0  0  0  0  0  0  0
    2.0250   13.5530   -2.6400 C   0  0  0  0  0  0  0  0  0  0  0  0
    0.8780   12.7950   -1.9640 C   0  0  2  0  0  0  0  0  0  0  0  0
    1.5040   11.8250   -0.9050 C   0  0  0  0  0  0  0  0  0  0  0  0
    2.1910   11.1169   -4.6324 H   0  0  0  0  0  0  0  0  0  0  0  0
    1.0979    9.8719   -5.3265 H   0  0  0  0  0  0  0  0  0  0  0  0
    0.6062   11.5996   -5.3265 H   0  0  0  0  0  0  0  0  0  0  0  0
    1.2547   10.2521   -2.7097 H   0  0  0  0  0  0  0  0  0  0  0  0
   -1.5965   10.0987   -3.1860 H   0  0  0  0  0  0  0  0  0  0  0  0
   -0.6621    9.1615   -4.4476 H   0  0  0  0  0  0  0  0  0  0  0  0
   -1.4195    7.9154   -2.3174 H   0  0  0  0  0  0  0  0  0  0  0  0
    0.2953    7.7478   -2.8822 H   0  0  0  0  0  0  0  0  0  0  0  0
    0.9181    9.3706   -1.5943 H   0  0  0  0  0  0  0  0  0  0  0  0
   -2.8381    9.3470    0.8326 H   0  0  0  0  0  0  0  0  0  0  0  0
   -2.6757   10.2455   -0.7144 H   0  0  0  0  0  0  0  0  0  0  0  0
   -2.6721    8.4492   -0.7144 H   0  0  0  0  0  0  0  0  0  0  0  0
   -0.5717    9.8400    2.0516 H   0  0  0  0  0  0  0  0  0  0  0  0
    0.7745   10.3032    0.9562 H   0  0  0  0  0  0  0  0  0  0  0  0
   -0.7506   11.2524    0.9562 H   0  0  0  0  0  0  0  0  0  0  0  0
   -0.1852   12.4868   -3.8481 H   0  0  0  0  0  0  0  0  0  0  0  0
   -2.2264   11.9609   -2.6686 H   0  0  0  0  0  0  0  0  0  0  0  0
   -1.4030   10.8041   -1.6011 H   0  0  0  0  0  0  0  0  0  0  0  0
   -2.2301   13.4408   -0.8697 H   0  0  0  0  0  0  0  0  0  0  0  0
   -1.0964   12.4678    0.0638 H   0  0  0  0  0  0  0  0  0  0  0  0
   -1.3429   15.5843   -1.9311 H   0  0  0  0  0  0  0  0  0  0  0  0
   -0.0015   15.2249   -3.0704 H   0  0  0  0  0  0  0  0  0  0  0  0
   -1.4782   14.2022   -3.0704 H   0  0  0  0  0  0  0  0  0  0  0  0
    0.8342   13.8706    0.4790 H   0  0  0  0  0  0  0  0  0  0  0  0
   -1.3594   15.2238    0.5206 H   0  0  0  0  0  0  0  0  0  0  0  0
    0.0964   15.7389    1.5226 H   0  0  0  0  0  0  0  0  0  0  0  0
   -1.2198   17.6666    0.3007 H   0  0  0  0  0  0  0  0  0  0  0  0
    1.4636   16.4305   -2.4489 H   0  0  0  0  0  0  0  0  0  0  0  0
    3.1571   17.9122   -0.3430 H   0  0  0  0  0  0  0  0  0  0  0  0
    3.7606   17.0968   -1.8537 H   0  0  0  0  0  0  0  0  0  0  0  0
    3.6437   19.5558   -2.0987 H   0  0  0  0  0  0  0  0  0  0  0  0
    2.5422   18.6791   -3.2319 H   0  0  0  0  0  0  0  0  0  0  0  0
    1.3750   20.5741   -2.3350 H   0  0  0  0  0  0  0  0  0  0  0  0
    1.3950   19.6120    0.3010 H   0  0  0  0  0  0  0  0  0  0  0  0
   -1.2548   18.1816   -3.0412 H   0  0  0  0  0  0  0  0  0  0  0  0
   -0.3464   19.6293   -3.5940 H   0  0  0  0  0  0  0  0  0  0  0  0
    0.4464   18.0175   -3.5940 H   0  0  0  0  0  0  0  0  0  0  0  0
   -0.7590   19.6949    0.1621 H   0  0  0  0  0  0  0  0  0  0  0  0
   -0.7392   20.8276   -1.2319 H   0  0  0  0  0  0  0  0  0  0  0  0
   -1.8587   19.4228   -1.2319 H   0  0  0  0  0  0  0  0  0  0  0  0
    2.1172   15.3977    1.4912 H   0  0  0  0  0  0  0  0  0  0  0  0
    3.5973   14.8544    0.6306 H   0  0  0  0  0  0  0  0  0  0  0  0
    3.1455   16.5929    0.6306 H   0  0  0  0  0  0  0  0  0  0  0  0
    3.4767   15.0677   -2.1845 H   0  0  0  0  0  0  0  0  0  0  0  0
    3.2772   13.7059   -0.9433 H   0  0  0  0  0  0  0  0  0  0  0  0
    1.6132   14.2009   -3.4278 H   0  0  0  0  0  0  0  0  0  0  0  0
    2.7240   12.8207   -3.0703 H   0  0  0  0  0  0  0  0  0  0  0  0
    1.2704   12.1870    0.1071 H   0  0  0  0  0  0  0  0  0  0  0  0
    1.0859   10.8164   -1.0393 H   0  0  0  0  0  0  0  0  0  0  0  0
    2.5952   11.7905   -1.0393 H   0  0  0  0  0  0  0  0  0  0  0  0
  1  2  1  0
  2  3  1  0
  3  4  1  0
  4  5  1  0
  5  6  1  0
  6  7  1  0
  7  8  1  0
  7  9  1  0
  2 10  1  0
 10 11  1  0
 11 12  1  0
 12 13  1  0
 13 14  1  6
 13 15  1  0
 15 16  1  0
 16 17  1  0
 17 18  2  0
 18 19  1  0
 19 20  1  0
 20 21  1  0
 21 22  1  0
 22 23  1  0
 22 24  1  0
 24 25  1  0
 24 26  1  0
 19 27  1  0
 27 28  1  1
 27 29  1  0
 29 30  1  0
 30 31  1  0
 31 32  1  1
  7  5  1  0
 31 10  1  0
 31 13  1  0
 27 15  1  0
 24 18  1  0
  1 33  1  0
  1 34  1  0
  1 35  1  0
  2 36  1  1
  3 37  1  0
  3 38  1  0
  4 39  1  0
  4 40  1  0
  5 41  1  6
  8 42  1  0
  8 43  1  0
  8 44  1  0
  9 45  1  0
  9 46  1  0
  9 47  1  0
 10 48  1  6
 11 49  1  0
 11 50  1  0
 12 51  1  0
 12 52  1  0
 14 53  1  0
 14 54  1  0
 14 55  1  0
 15 56  1  1
 16 57  1  0
 16 58  1  0
 17 59  1  0
 19 60  1  6
 20 61  1  0
 20 62  1  0
 21 63  1  0
 21 64  1  0
 22 65  1  6
 23 66  1  0
 25 67  1  0
 25 68  1  0
 25 69  1  0
 26 70  1  0
 26 71  1  0
 26 72  1  0
 28 73  1  0
 28 74  1  0
 28 75  1  0
 29 76  1  0
 29 77  1  0
 30 78  1  0
 30 79  1  0
 32 80  1  0
 32 81  1  0
 32 82  1  0
M  END
>  <meeko>  (12) 
{"is_sidechain": [false], "intermolecular_energy": 2.731, "internal_energy": -0.839}

$$$$
EPH_relaxed_0001_pdb2pqr_Repair_181_r2_0001_out
     RDKit          3D

 82 86  0  0  0  0  0  0  0  0999 V2000
   -3.9800    7.2810   -3.4020 C   0  0  0  0  0  0  0  0  0  0  0  0
   -3.7630    7.2380   -1.8870 C   0  0  2  0  0  0  0  0  0  0  0  0
   -5.0410    6.8230   -1.1300 C   0  0  0  0  0  0  0  0  0  0  0  0
   -6.1930    6.4080   -2.0480 C   0  0  0  0  0  0  0  0  0  0  0  0
   -7.5110    6.9230   -1.5520 C   0  0  2  0  0  0  0  0  0  0  0  0
   -8.4560    5.9050   -1.1960 O   0  0  0  0  0  0  0  0  0  0  0  0
   -8.8160    6.7450   -2.3050 C   0  0  0  0  0  0  0  0  0  0  0  0
   -8.8670    6.0290   -3.6190 C   0  0  0  0  0  0  0  0  0  0  0  0
   -9.9450    7.6820   -2.0110 C   0  0  0  0  0  0  0  0  0  0  0  0
   -3.2820    8.5960   -1.3920 C   0  0  1  0  0  0  0  0  0  0  0  0
   -3.7420    8.9010    0.0590 C   0  0  0  0  0  0  0  0  0  0  0  0
   -2.6010    9.7080    0.7300 C   0  0  0  0  0  0  0  0  0  0  0  0
   -1.6780   10.1250   -0.4390 C   0  0  1  0  0  0  0  0  0  0  0  0
   -2.3660   11.3780   -1.0660 C   0  0  0  0  0  0  0  0  0  0  0  0
   -0.1850   10.4080   -0.0730 C   0  0  2  0  0  0  0  0  0  0  0  0
    0.0370   11.5790    0.9010 C   0  0  0  0  0  0  0  0  0  0  0  0
    0.2340   12.9130    0.2600 C   0  0  0  0  0  0  0  0  0  0  0  0
    0.5150   13.1230   -1.0390 C   0  0  0  0  0  0  0  0  0  0  0  0
    0.7610   11.9460   -1.9920 C   0  0  1  0  0  0  0  0  0  0  0  0
    2.0270   12.2250   -2.8440 C   0  0  0  0  0  0  0  0  0  0  0  0
    1.9570   13.5630   -3.5750 C   0  0  0  0  0  0  0  0  0  0  0  0
    1.7710   14.7130   -2.5890 C   0  0  2  0  0  0  0  0  0  0  0  0
    2.9510   14.8300   -1.7880 O   0  0  0  0  0  0  0  0  0  0  0  0
    0.5300   14.5370   -1.6690 C   0  0  0  0  0  0  0  0  0  0  0  0
   -0.7640   14.7130   -2.5020 C   0  0  0  0  0  0  0  0  0  0  0  0
    0.5380   15.6920   -0.6310 C   0  0  0  0  0  0  0  0  0  0  0  0
    0.7810   10.5050   -1.3230 C   0  0  1  0  0  0  0  0  0  0  0  0
    2.2150   10.1800   -0.8030 C   0  0  0  0  0  0  0  0  0  0  0  0
    0.4510    9.4240   -2.4190 C   0  0  0  0  0  0  0  0  0  0  0  0
   -1.0370    9.1010   -2.6500 C   0  0  0  0  0  0  0  0  0  0  0  0
   -1.7510    8.8270   -1.3230 C   0  0  2  0  0  0  0  0  0  0  0  0
   -1.0950    7.5580   -0.6800 C   0  0  0  0  0  0  0  0  0  0  0  0
   -5.0386    7.4908   -3.6150 H   0  0  0  0  0  0  0  0  0  0  0  0
   -3.3541    8.0726   -3.8397 H   0  0  0  0  0  0  0  0  0  0  0  0
   -3.7032    6.3105   -3.8397 H   0  0  0  0  0  0  0  0  0  0  0  0
   -2.9962    6.4761   -1.6835 H   0  0  0  0  0  0  0  0  0  0  0  0
   -4.7962    5.9741   -0.4747 H   0  0  0  0  0  0  0  0  0  0  0  0
   -5.3809    7.7043   -0.5663 H   0  0  0  0  0  0  0  0  0  0  0  0
   -6.0091    6.8107   -3.0550 H   0  0  0  0  0  0  0  0  0  0  0  0
   -6.2389    5.3091   -2.0650 H   0  0  0  0  0  0  0  0  0  0  0  0
   -7.0268    7.8084   -1.1142 H   0  0  0  0  0  0  0  0  0  0  0  0
   -8.9442    4.9458   -3.4436 H   0  0  0  0  0  0  0  0  0  0  0  0
   -9.7430    6.3714   -4.1894 H   0  0  0  0  0  0  0  0  0  0  0  0
   -7.9513    6.2438   -4.1894 H   0  0  0  0  0  0  0  0  0  0  0  0
  -10.0648    7.7815   -0.9221 H   0  0  0  0  0  0  0  0  0  0  0  0
   -9.7265    8.6678   -2.4474 H   0  0  0  0  0  0  0  0  0  0  0  0
  -10.8736    7.2855   -2.4474 H   0  0  0  0  0  0  0  0  0  0  0  0
   -3.7258    9.2409   -2.1648 H   0  0  0  0  0  0  0  0  0  0  0  0
   -4.6683    9.4941    0.0459 H   0  0  0  0  0  0  0  0  0  0  0  0
   -3.9466    7.9722    0.6118 H   0  0  0  0  0  0  0  0  0  0  0  0
   -3.0022   10.5944    1.2432 H   0  0  0  0  0  0  0  0  0  0  0  0
   -2.0684    9.1216    1.4932 H   0  0  0  0  0  0  0  0  0  0  0  0
   -2.7281   12.0375   -0.2635 H   0  0  0  0  0  0  0  0  0  0  0  0
   -1.6401   11.9220   -1.6882 H   0  0  0  0  0  0  0  0  0  0  0  0
   -3.2146   11.0575   -1.6882 H   0  0  0  0  0  0  0  0  0  0  0  0
    0.0989    9.5008    0.4806 H   0  0  0  0  0  0  0  0  0  0  0  0
   -0.8417   11.6447    1.5594 H   0  0  0  0  0  0  0  0  0  0  0  0
    0.9724   11.3571    1.4356 H   0  0  0  0  0  0  0  0  0  0  0  0
    0.1415   13.7996    0.9046 H   0  0  0  0  0  0  0  0  0  0  0  0
   -0.1232   11.8930   -2.6442 H   0  0  0  0  0  0  0  0  0  0  0  0
    2.9043   12.2311   -2.1805 H   0  0  0  0  0  0  0  0  0  0  0  0
    2.0996   11.4328   -3.6037 H   0  0  0  0  0  0  0  0  0  0  0  0
    2.8910   13.7166   -4.1354 H   0  0  0  0  0  0  0  0  0  0  0  0
    1.0966   13.5447   -4.2601 H   0  0  0  0  0  0  0  0  0  0  0  0
    1.5984   15.6264   -3.1771 H   0  0  0  0  0  0  0  0  0  0  0  0
    3.7110   14.8960   -2.3920 H   0  0  0  0  0  0  0  0  0  0  0  0
   -1.6229   14.8298   -1.8248 H   0  0  0  0  0  0  0  0  0  0  0  0
   -0.6730   15.6070   -3.1364 H   0  0  0  0  0  0  0  0  0  0  0  0
   -0.9150   13.8271   -3.1364 H   0  0  0  0  0  0  0  0  0  0  0  0
    0.5351   15.2715    0.3855 H   0  0  0  0  0  0  0  0  0  0  0  0
    1.4404   16.3051   -0.7716 H   0  0  0  0  0  0  0  0  0  0  0  0
   -0.3558   16.3175   -0.7716 H   0  0  0  0  0  0  0  0  0  0  0  0
    2.2149   10.1800    0.2970 H   0  0  0  0  0  0  0  0  0  0  0  0
    2.5222    9.1894   -1.1696 H   0  0  0  0  0  0  0  0  0  0  0  0
    2.9193   10.9413   -1.1696 H   0  0  0  0  0  0  0  0  0  0  0  0
    0.8662    9.7802   -3.3733 H   0  0  0  0  0  0  0  0  0  0  0  0
    0.8935    8.4894   -2.0438 H   0  0  0  0  0  0  0  0  0  0  0  0
   -1.5178    9.9562   -3.1474 H   0  0  0  0  0  0  0  0  0  0  0  0
   -1.1070    8.2008   -3.2783 H   0  0  0  0  0  0  0  0  0  0  0  0
   -1.1369    7.6391    0.4162 H   0  0  0  0  0  0  0  0  0  0  0  0
   -1.6416    6.6595   -1.0024 H   0  0  0  0  0  0  0  0  0  0  0  0
   -0.0459    7.4844   -1.0024 H   0  0  0  0  0  0  0  0  0  0  0  0
  1  2  1  0
  2  3  1  0
  3  4  1  0
  4  5  1  0
  5  6  1  0
  6  7  1  0
  7  8  1  0
  7  9  1  0
  2 10  1  0
 10 11  1  0
 11 12  1  0
 12 13  1  0
 13 14  1  6
 13 15  1  0
 15 16  1  0
 16 17  1  0
 17 18  2  0
 18 19  1  0
 19 20  1  0
 20 21  1  0
 21 22  1  0
 22 23  1  0
 22 24  1  0
 24 25  1  0
 24 26  1  0
 19 27  1  0
 27 28  1  1
 27 29  1  0
 29 30  1  0
 30 31  1  0
 31 32  1  1
  7  5  1  0
 31 10  1  0
 31 13  1  0
 27 15  1  0
 24 18  1  0
  1 33  1  0
  1 34  1  0
  1 35  1  0
  2 36  1  6
  3 37  1  0
  3 38  1  0
  4 39  1  0
  4 40  1  0
  5 41  1  1
  8 42  1  0
  8 43  1  0
  8 44  1  0
  9 45  1  0
  9 46  1  0
  9 47  1  0
 10 48  1  6
 11 49  1  0
 11 50  1  0
 12 51  1  0
 12 52  1  0
 14 53  1  0
 14 54  1  0
 14 55  1  0
 15 56  1  1
 16 57  1  0
 16 58  1  0
 17 59  1  0
 19 60  1  6
 20 61  1  0
 20 62  1  0
 21 63  1  0
 21 64  1  0
 22 65  1  6
 23 66  1  0
 25 67  1  0
 25 68  1  0
 25 69  1  0
 26 70  1  0
 26 71  1  0
 26 72  1  0
 28 73  1  0
 28 74  1  0
 28 75  1  0
 29 76  1  0
 29 77  1  0
 30 78  1  0
 30 79  1  0
 32 80  1  0
 32 81  1  0
 32 82  1  0
M  END
>  <meeko>  (13) 
{"is_sidechain": [false], "intermolecular_energy": 2.731, "internal_energy": -0.839}

$$$$
EPH_relaxed_0001_pdb2pqr_Repair_181_r2_0001_out
     RDKit          3D

 82 86  0  0  0  0  0  0  0  0999 V2000
    0.4790    7.9780   -2.6820 C   0  0  0  0  0  0  0  0  0  0  0  0
   -0.8410    8.2950   -1.9750 C   0  0  2  0  0  0  0  0  0  0  0  0
   -2.0540    7.6880   -2.7090 C   0  0  0  0  0  0  0  0  0  0  0  0
   -3.3690    7.8160   -1.9350 C   0  0  0  0  0  0  0  0  0  0  0  0
   -4.4070    6.8620   -2.4450 C   0  0  2  0  0  0  0  0  0  0  0  0
   -5.2950    7.4130   -3.4270 O   0  0  0  0  0  0  0  0  0  0  0  0
   -5.8920    7.0220   -2.1800 C   0  0  0  0  0  0  0  0  0  0  0  0
   -6.4220    8.1660   -1.3730 C   0  0  0  0  0  0  0  0  0  0  0  0
   -6.7720    5.8160   -2.2840 C   0  0  0  0  0  0  0  0  0  0  0  0
   -1.0130    9.8040   -1.8470 C   0  0  1  0  0  0  0  0  0  0  0  0
   -2.4640   10.2120   -1.4770 C   0  0  0  0  0  0  0  0  0  0  0  0
   -2.3580   11.4560   -0.5590 C   0  0  0  0  0  0  0  0  0  0  0  0
   -0.8900   11.9210   -0.6980 C   0  0  1  0  0  0  0  0  0  0  0  0
   -0.8530   12.7410   -2.0260 C   0  0  0  0  0  0  0  0  0  0  0  0
   -0.3060   12.7370    0.5000 C   0  0  2  0  0  0  0  0  0  0  0  0
   -1.0070   14.0780    0.7800 C   0  0  0  0  0  0  0  0  0  0  0  0
   -0.4360   15.2570    0.0640 C   0  0  0  0  0  0  0  0  0  0  0  0
    0.7640   15.2980   -0.5440 C   0  0  0  0  0  0  0  0  0  0  0  0
    1.7270   14.1060   -0.4650 C   0  0  1  0  0  0  0  0  0  0  0  0
    3.1520   14.6140   -0.1210 C   0  0  0  0  0  0  0  0  0  0  0  0
    3.6370   15.6930   -1.0850 C   0  0  0  0  0  0  0  0  0  0  0  0
    2.6840   16.8860   -1.0920 C   0  0  2  0  0  0  0  0  0  0  0  0
    2.7390   17.5280    0.1850 O   0  0  0  0  0  0  0  0  0  0  0  0
    1.2150   16.4940   -1.4170 C   0  0  0  0  0  0  0  0  0  0  0  0
    1.1040   16.0800   -2.9050 C   0  0  0  0  0  0  0  0  0  0  0  0
    0.3360   17.7630   -1.2530 C   0  0  0  0  0  0  0  0  0  0  0  0
    1.2670   12.9040    0.4670 C   0  0  1  0  0  0  0  0  0  0  0  0
    1.7190   13.1660    1.9360 C   0  0  0  0  0  0  0  0  0  0  0  0
    1.9980   11.5870    0.0060 C   0  0  0  0  0  0  0  0  0  0  0  0
    1.3110   10.7620   -1.0990 C   0  0  0  0  0  0  0  0  0  0  0  0
   -0.1660   10.5270   -0.7690 C   0  0  2  0  0  0  0  0  0  0  0  0
   -0.2340    9.6850    0.5500 C   0  0  0  0  0  0  0  0  0  0  0  0
    1.2610    7.7902   -1.9315 H   0  0  0  0  0  0  0  0  0  0  0  0
    0.3526    7.0847   -3.3113 H   0  0  0  0  0  0  0  0  0  0  0  0
    0.7720    8.8313   -3.3113 H   0  0  0  0  0  0  0  0  0  0  0  0
   -0.7977    7.8390   -0.9749 H   0  0  0  0  0  0  0  0  0  0  0  0
   -2.1681    8.2018   -3.6749 H   0  0  0  0  0  0  0  0  0  0  0  0
   -1.8535    6.6128   -2.8266 H   0  0  0  0  0  0  0  0  0  0  0  0
   -3.1797    7.6025   -0.8726 H   0  0  0  0  0  0  0  0  0  0  0  0
   -3.7482    8.8398   -2.0696 H   0  0  0  0  0  0  0  0  0  0  0  0
   -3.7222    6.0108   -2.3166 H   0  0  0  0  0  0  0  0  0  0  0  0
   -6.3168    7.9389   -0.3018 H   0  0  0  0  0  0  0  0  0  0  0  0
   -5.8544    9.0774   -1.6121 H   0  0  0  0  0  0  0  0  0  0  0  0
   -7.4843    8.3223   -1.6121 H   0  0  0  0  0  0  0  0  0  0  0  0
   -7.0301    5.4623   -1.2749 H   0  0  0  0  0  0  0  0  0  0  0  0
   -7.6919    6.0790   -2.8268 H   0  0  0  0  0  0  0  0  0  0  0  0
   -6.2408    5.0202   -2.8268 H   0  0  0  0  0  0  0  0  0  0  0  0
   -0.6873   10.1121   -2.8515 H   0  0  0  0  0  0  0  0  0  0  0  0
   -3.0315   10.4594   -2.3862 H   0  0  0  0  0  0  0  0  0  0  0  0
   -2.9883    9.3894   -0.9686 H   0  0  0  0  0  0  0  0  0  0  0  0
   -3.0482   12.2447   -0.8930 H   0  0  0  0  0  0  0  0  0  0  0  0
   -2.6261   11.2287    0.4833 H   0  0  0  0  0  0  0  0  0  0  0  0
   -0.8045   13.8149   -1.7926 H   0  0  0  0  0  0  0  0  0  0  0  0
    0.0330   12.4525   -2.6105 H   0  0  0  0  0  0  0  0  0  0  0  0
   -1.7614   12.5334   -2.6105 H   0  0  0  0  0  0  0  0  0  0  0  0
   -0.5401   12.0915    1.3594 H   0  0  0  0  0  0  0  0  0  0  0  0
   -2.0618   13.9786    0.4841 H   0  0  0  0  0  0  0  0  0  0  0  0
   -0.8676   14.2764    1.8529 H   0  0  0  0  0  0  0  0  0  0  0  0
   -1.0483   16.1702    0.0305 H   0  0  0  0  0  0  0  0  0  0  0  0
    1.7251   13.6466   -1.4645 H   0  0  0  0  0  0  0  0  0  0  0  0
    3.1419   15.0297    0.8974 H   0  0  0  0  0  0  0  0  0  0  0  0
    3.8399   13.7595   -0.2026 H   0  0  0  0  0  0  0  0  0  0  0  0
    4.6359   16.0319   -0.7731 H   0  0  0  0  0  0  0  0  0  0  0  0
    3.6746   15.2674   -2.0986 H   0  0  0  0  0  0  0  0  0  0  0  0
    3.0122   17.5656   -1.8922 H   0  0  0  0  0  0  0  0  0  0  0  0
    3.5230   18.1040    0.1910 H   0  0  0  0  0  0  0  0  0  0  0  0
    0.8196   15.0194   -2.9703 H   0  0  0  0  0  0  0  0  0  0  0  0
    0.3393   16.6958   -3.4009 H   0  0  0  0  0  0  0  0  0  0  0  0
    2.0743   16.2307   -3.4009 H   0  0  0  0  0  0  0  0  0  0  0  0
    0.1908   17.9727   -0.1830 H   0  0  0  0  0  0  0  0  0  0  0  0
    0.8355   18.6192   -1.7299 H   0  0  0  0  0  0  0  0  0  0  0  0
   -0.6411   17.5964   -1.7299 H   0  0  0  0  0  0  0  0  0  0  0  0
    0.9799   12.7376    2.6290 H   0  0  0  0  0  0  0  0  0  0  0  0
    2.6984   12.6956    2.1077 H   0  0  0  0  0  0  0  0  0  0  0  0
    1.7976   14.2497    2.1077 H   0  0  0  0  0  0  0  0  0  0  0  0
    2.9950   11.8710   -0.3619 H   0  0  0  0  0  0  0  0  0  0  0  0
    2.0022   10.9348    0.8918 H   0  0  0  0  0  0  0  0  0  0  0  0
    1.3847   11.3056   -2.0525 H   0  0  0  0  0  0  0  0  0  0  0  0
    1.8137    9.7863   -1.1724 H   0  0  0  0  0  0  0  0  0  0  0  0
   -0.1796   10.3584    1.4181 H   0  0  0  0  0  0  0  0  0  0  0  0
   -1.1803    9.1249    0.5791 H   0  0  0  0  0  0  0  0  0  0  0  0
    0.6102    8.9803    0.5791 H   0  0  0  0  0  0  0  0  0  0  0  0
  1  2  1  0
  2  3  1  0
  3  4  1  0
  4  5  1  0
  5  6  1  0
  6  7  1  0
  7  8  1  0
  7  9  1  0
  2 10  1  0
 10 11  1  0
 11 12  1  0
 12 13  1  0
 13 14  1  6
 13 15  1  0
 15 16  1  0
 16 17  1  0
 17 18  2  0
 18 19  1  0
 19 20  1  0
 20 21  1  0
 21 22  1  0
 22 23  1  0
 22 24  1  0
 24 25  1  0
 24 26  1  0
 19 27  1  0
 27 28  1  1
 27 29  1  0
 29 30  1  0
 30 31  1  0
 31 32  1  1
  7  5  1  0
 31 10  1  0
 31 13  1  0
 27 15  1  0
 24 18  1  0
  1 33  1  0
  1 34  1  0
  1 35  1  0
  2 36  1  1
  3 37  1  0
  3 38  1  0
  4 39  1  0
  4 40  1  0
  5 41  1  6
  8 42  1  0
  8 43  1  0
  8 44  1  0
  9 45  1  0
  9 46  1  0
  9 47  1  0
 10 48  1  6
 11 49  1  0
 11 50  1  0
 12 51  1  0
 12 52  1  0
 14 53  1  0
 14 54  1  0
 14 55  1  0
 15 56  1  1
 16 57  1  0
 16 58  1  0
 17 59  1  0
 19 60  1  6
 20 61  1  0
 20 62  1  0
 21 63  1  0
 21 64  1  0
 22 65  1  6
 23 66  1  0
 25 67  1  0
 25 68  1  0
 25 69  1  0
 26 70  1  0
 26 71  1  0
 26 72  1  0
 28 73  1  0
 28 74  1  0
 28 75  1  0
 29 76  1  0
 29 77  1  0
 30 78  1  0
 30 79  1  0
 32 80  1  0
 32 81  1  0
 32 82  1  0
M  END
>  <meeko>  (14) 
{"is_sidechain": [false], "intermolecular_energy": 2.731, "internal_energy": -0.839}

$$$$
EPH_relaxed_0001_pdb2pqr_Repair_181_r2_0001_out
     RDKit          3D

 82 86  0  0  0  0  0  0  0  0999 V2000
   -2.2310    7.7620   -1.9930 C   0  0  0  0  0  0  0  0  0  0  0  0
   -2.4800    8.5040   -0.6770 C   0  0  2  0  0  0  0  0  0  0  0  0
   -3.9780    8.5690   -0.3210 C   0  0  0  0  0  0  0  0  0  0  0  0
   -4.8840    7.8760   -1.3430 C   0  0  0  0  0  0  0  0  0  0  0  0
   -6.0190    7.1560   -0.6790 C   0  0  2  0  0  0  0  0  0  0  0  0
   -6.5420    6.0480   -1.4250 O   0  0  0  0  0  0  0  0  0  0  0  0
   -7.4370    7.1530   -1.2180 C   0  0  0  0  0  0  0  0  0  0  0  0
   -7.7970    7.8870   -2.4710 C   0  0  0  0  0  0  0  0  0  0  0  0
   -8.5600    6.8510   -0.2750 C   0  0  0  0  0  0  0  0  0  0  0  0
   -1.9010    9.9120   -0.7570 C   0  0  1  0  0  0  0  0  0  0  0  0
   -1.3980   10.4300    0.6170 C   0  0  0  0  0  0  0  0  0  0  0  0
   -0.1510   11.3070    0.3350 C   0  0  0  0  0  0  0  0  0  0  0  0
   -0.1730   11.5360   -1.1950 C   0  0  1  0  0  0  0  0  0  0  0  0
   -1.1950   12.6960   -1.4120 C   0  0  0  0  0  0  0  0  0  0  0  0
    1.2040   11.8450   -1.8680 C   0  0  2  0  0  0  0  0  0  0  0  0
    1.8850   13.1400   -1.3930 C   0  0  0  0  0  0  0  0  0  0  0  0
    1.5450   14.3640   -2.1760 C   0  0  0  0  0  0  0  0  0  0  0  0
    0.9540   14.3800   -3.3850 C   0  0  0  0  0  0  0  0  0  0  0  0
    0.6540   13.0740   -4.1320 C   0  0  1  0  0  0  0  0  0  0  0  0
    1.1070   13.2070   -5.6100 C   0  0  0  0  0  0  0  0  0  0  0  0
    0.5020   14.4260   -6.3000 C   0  0  0  0  0  0  0  0  0  0  0  0
    0.8710   15.7100   -5.5610 C   0  0  2  0  0  0  0  0  0  0  0  0
    2.2810   15.9220   -5.6820 O   0  0  0  0  0  0  0  0  0  0  0  0
    0.4720   15.6880   -4.0590 C   0  0  0  0  0  0  0  0  0  0  0  0
   -1.0690   15.7620   -3.9290 C   0  0  0  0  0  0  0  0  0  0  0  0
    1.0260   16.9800   -3.4000 C   0  0  0  0  0  0  0  0  0  0  0  0
    1.1910   11.7440   -3.4470 C   0  0  1  0  0  0  0  0  0  0  0  0
    2.6620   11.4750   -3.8880 C   0  0  0  0  0  0  0  0  0  0  0  0
    0.3420   10.5220   -3.9610 C   0  0  0  0  0  0  0  0  0  0  0  0
   -0.9460   10.1930   -3.1820 C   0  0  0  0  0  0  0  0  0  0  0  0
   -0.6730   10.1250   -1.6770 C   0  0  2  0  0  0  0  0  0  0  0  0
    0.3340    8.9520   -1.4250 C   0  0  0  0  0  0  0  0  0  0  0  0
   -1.8878    6.7393   -1.7780 H   0  0  0  0  0  0  0  0  0  0  0  0
   -3.1646    7.7211   -2.5732 H   0  0  0  0  0  0  0  0  0  0  0  0
   -1.4617    8.2926   -2.5732 H   0  0  0  0  0  0  0  0  0  0  0  0
   -1.9762    7.9397    0.1216 H   0  0  0  0  0  0  0  0  0  0  0  0
   -4.1240    8.0860    0.6564 H   0  0  0  0  0  0  0  0  0  0  0  0
   -4.2601    9.6322   -0.3099 H   0  0  0  0  0  0  0  0  0  0  0  0
   -5.2939    8.6333   -2.0275 H   0  0  0  0  0  0  0  0  0  0  0  0
   -4.2812    7.1359   -1.8896 H   0  0  0  0  0  0  0  0  0  0  0  0
   -5.6092    7.3783    0.3173 H   0  0  0  0  0  0  0  0  0  0  0  0
   -8.2677    8.8467   -2.2114 H   0  0  0  0  0  0  0  0  0  0  0  0
   -6.8876    8.0725   -3.0614 H   0  0  0  0  0  0  0  0  0  0  0  0
   -8.5004    7.2815   -3.0614 H   0  0  0  0  0  0  0  0  0  0  0  0
   -8.2042    6.9467    0.7615 H   0  0  0  0  0  0  0  0  0  0  0  0
   -9.3837    7.5596   -0.4468 H   0  0  0  0  0  0  0  0  0  0  0  0
   -8.9172    5.8249   -0.4468 H   0  0  0  0  0  0  0  0  0  0  0  0
   -2.7722   10.4467   -1.1634 H   0  0  0  0  0  0  0  0  0  0  0  0
   -2.1803   11.0297    1.1053 H   0  0  0  0  0  0  0  0  0  0  0  0
   -1.1496    9.5941    1.2874 H   0  0  0  0  0  0  0  0  0  0  0  0
   -0.2201   12.2645    0.8720 H   0  0  0  0  0  0  0  0  0  0  0  0
    0.7804   10.8285    0.6719 H   0  0  0  0  0  0  0  0  0  0  0  0
   -1.5303   13.0766   -0.4359 H   0  0  0  0  0  0  0  0  0  0  0  0
   -0.7135   13.5081   -1.9765 H   0  0  0  0  0  0  0  0  0  0  0  0
   -2.0613   12.3206   -1.9765 H   0  0  0  0  0  0  0  0  0  0  0  0
    1.8362   11.0228   -1.5015 H   0  0  0  0  0  0  0  0  0  0  0  0
    1.5925   13.3137   -0.3469 H   0  0  0  0  0  0  0  0  0  0  0  0
    2.9652   12.9828   -1.5285 H   0  0  0  0  0  0  0  0  0  0  0  0
    1.7990   15.3355   -1.7269 H   0  0  0  0  0  0  0  0  0  0  0  0
   -0.4370   12.9415   -4.0861 H   0  0  0  0  0  0  0  0  0  0  0  0
    2.2032   13.2948   -5.6363 H   0  0  0  0  0  0  0  0  0  0  0  0
    0.7595   12.3124   -6.1475 H   0  0  0  0  0  0  0  0  0  0  0  0
    0.8821   14.4819   -7.3307 H   0  0  0  0  0  0  0  0  0  0  0  0
   -0.5931   14.3226   -6.2991 H   0  0  0  0  0  0  0  0  0  0  0  0
    0.3049   16.5320   -6.0235 H   0  0  0  0  0  0  0  0  0  0  0  0
    2.4130   16.7940   -6.0900 H   0  0  0  0  0  0  0  0  0  0  0  0
   -1.3470   15.7753   -2.8648 H   0  0  0  0  0  0  0  0  0  0  0  0
   -1.4344   16.6787   -4.4149 H   0  0  0  0  0  0  0  0  0  0  0  0
   -1.5205   14.8845   -4.4149 H   0  0  0  0  0  0  0  0  0  0  0  0
    0.9834   16.8805   -2.3053 H   0  0  0  0  0  0  0  0  0  0  0  0
    2.0690   17.1335   -3.7139 H   0  0  0  0  0  0  0  0  0  0  0  0
    0.4181   17.8414   -3.7139 H   0  0  0  0  0  0  0  0  0  0  0  0
    3.2965   11.3590   -2.9970 H   0  0  0  0  0  0  0  0  0  0  0  0
    2.7021   10.5546   -4.4891 H   0  0  0  0  0  0  0  0  0  0  0  0
    3.0252   12.3216   -4.4891 H   0  0  0  0  0  0  0  0  0  0  0  0
    0.0567   10.7300   -5.0028 H   0  0  0  0  0  0  0  0  0  0  0  0
    0.9912    9.6442   -3.8267 H   0  0  0  0  0  0  0  0  0  0  0  0
   -1.6944   10.9752   -3.3771 H   0  0  0  0  0  0  0  0  0  0  0  0
   -1.3177    9.2131   -3.5160 H   0  0  0  0  0  0  0  0  0  0  0  0
    0.4610    8.8040   -0.3424 H   0  0  0  0  0  0  0  0  0  0  0  0
   -0.0574    8.0291   -1.8778 H   0  0  0  0  0  0  0  0  0  0  0  0
    1.3055    9.1991   -1.8778 H   0  0  0  0  0  0  0  0  0  0  0  0
  1  2  1  0
  2  3  1  0
  3  4  1  0
  4  5  1  0
  5  6  1  0
  6  7  1  0
  7  8  1  0
  7  9  1  0
  2 10  1  0
 10 11  1  0
 11 12  1  0
 12 13  1  0
 13 14  1  1
 13 15  1  0
 15 16  1  0
 16 17  1  0
 17 18  2  0
 18 19  1  0
 19 20  1  0
 20 21  1  0
 21 22  1  0
 22 23  1  0
 22 24  1  0
 24 25  1  0
 24 26  1  0
 19 27  1  0
 27 28  1  6
 27 29  1  0
 29 30  1  0
 30 31  1  0
 31 32  1  6
  7  5  1  0
 31 10  1  0
 31 13  1  0
 27 15  1  0
 24 18  1  0
  1 33  1  0
  1 34  1  0
  1 35  1  0
  2 36  1  1
  3 37  1  0
  3 38  1  0
  4 39  1  0
  4 40  1  0
  5 41  1  1
  8 42  1  0
  8 43  1  0
  8 44  1  0
  9 45  1  0
  9 46  1  0
  9 47  1  0
 10 48  1  6
 11 49  1  0
 11 50  1  0
 12 51  1  0
 12 52  1  0
 14 53  1  0
 14 54  1  0
 14 55  1  0
 15 56  1  1
 16 57  1  0
 16 58  1  0
 17 59  1  0
 19 60  1  6
 20 61  1  0
 20 62  1  0
 21 63  1  0
 21 64  1  0
 22 65  1  6
 23 66  1  0
 25 67  1  0
 25 68  1  0
 25 69  1  0
 26 70  1  0
 26 71  1  0
 26 72  1  0
 28 73  1  0
 28 74  1  0
 28 75  1  0
 29 76  1  0
 29 77  1  0
 30 78  1  0
 30 79  1  0
 32 80  1  0
 32 81  1  0
 32 82  1  0
M  END
>  <meeko>  (15) 
{"is_sidechain": [false], "intermolecular_energy": 2.731, "internal_energy": -0.839}

$$$$
EPH_relaxed_0001_pdb2pqr_Repair_181_r2_0001_out
     RDKit          3D

 82 86  0  0  0  0  0  0  0  0999 V2000
    0.8460   14.8060   -4.8940 C   0  0  0  0  0  0  0  0  0  0  0  0
    0.4710   14.2840   -3.5040 C   0  0  2  0  0  0  0  0  0  0  0  0
    1.5960   14.5090   -2.4750 C   0  0  0  0  0  0  0  0  0  0  0  0
    1.2170   15.4750   -1.3490 C   0  0  0  0  0  0  0  0  0  0  0  0
    0.9980   16.8660   -1.8630 C   0  0  2  0  0  0  0  0  0  0  0  0
    1.9950   17.3280   -2.7840 O   0  0  0  0  0  0  0  0  0  0  0  0
    1.9110   18.0330   -1.5350 C   0  0  0  0  0  0  0  0  0  0  0  0
    3.1120   17.8610   -0.6580 C   0  0  0  0  0  0  0  0  0  0  0  0
    1.3700   19.4230   -1.6610 C   0  0  0  0  0  0  0  0  0  0  0  0
    0.1250   12.8010   -3.5820 C   0  0  1  0  0  0  0  0  0  0  0  0
    1.3440   11.9240   -3.9750 C   0  0  0  0  0  0  0  0  0  0  0  0
    1.1960   10.5840   -3.2090 C   0  0  0  0  0  0  0  0  0  0  0  0
   -0.2540   10.6020   -2.6700 C   0  0  1  0  0  0  0  0  0  0  0  0
   -1.1370   10.1550   -3.8770 C   0  0  0  0  0  0  0  0  0  0  0  0
   -0.5290    9.7320   -1.4000 C   0  0  2  0  0  0  0  0  0  0  0  0
   -0.3090    8.2200   -1.5850 C   0  0  0  0  0  0  0  0  0  0  0  0
   -1.5090    7.4500   -2.0280 C   0  0  0  0  0  0  0  0  0  0  0  0
   -2.7790    7.8940   -1.9950 C   0  0  0  0  0  0  0  0  0  0  0  0
   -3.1210    9.2590   -1.3830 C   0  0  1  0  0  0  0  0  0  0  0  0
   -4.3460    9.1120   -0.4430 C   0  0  0  0  0  0  0  0  0  0  0  0
   -5.5420    8.4680   -1.1370 C   0  0  0  0  0  0  0  0  0  0  0  0
   -5.1790    7.0890   -1.6820 C   0  0  2  0  0  0  0  0  0  0  0  0
   -4.9190    6.2130   -0.5810 O   0  0  0  0  0  0  0  0  0  0  0  0
   -3.9510    7.1100   -2.6340 C   0  0  0  0  0  0  0  0  0  0  0  0
   -4.3350    7.8070   -3.9630 C   0  0  0  0  0  0  0  0  0  0  0  0
   -3.6050    5.6420   -2.9990 C   0  0  0  0  0  0  0  0  0  0  0  0
   -1.9140   10.0320   -0.6960 C   0  0  1  0  0  0  0  0  0  0  0  0
   -1.7670    9.5780    0.7880 C   0  0  0  0  0  0  0  0  0  0  0  0
   -2.2450   11.5710   -0.6590 C   0  0  0  0  0  0  0  0  0  0  0  0
   -1.8400   12.3990   -1.8940 C   0  0  0  0  0  0  0  0  0  0  0  0
   -0.3860   12.1210   -2.2880 C   0  0  2  0  0  0  0  0  0  0  0  0
    0.5270   12.5810   -1.1010 C   0  0  0  0  0  0  0  0  0  0  0  0
    1.4850   15.6955   -4.7915 H   0  0  0  0  0  0  0  0  0  0  0  0
    1.3906   14.0247   -5.4444 H   0  0  0  0  0  0  0  0  0  0  0  0
   -0.0683   15.0727   -5.4444 H   0  0  0  0  0  0  0  0  0  0  0  0
   -0.4060   14.8535   -3.1626 H   0  0  0  0  0  0  0  0  0  0  0  0
    1.8559   13.5385   -2.0270 H   0  0  0  0  0  0  0  0  0  0  0  0
    2.4402   14.9616   -3.0159 H   0  0  0  0  0  0  0  0  0  0  0  0
    0.2911   15.1211   -0.8721 H   0  0  0  0  0  0  0  0  0  0  0  0
    2.0463   15.5026   -0.6268 H   0  0  0  0  0  0  0  0  0  0  0  0
   -0.0932   16.7425   -1.8000 H   0  0  0  0  0  0  0  0  0  0  0  0
    2.8047   17.9050    0.3973 H   0  0  0  0  0  0  0  0  0  0  0  0
    3.5795   16.8867   -0.8634 H   0  0  0  0  0  0  0  0  0  0  0  0
    3.8342   18.6649   -0.8634 H   0  0  0  0  0  0  0  0  0  0  0  0
    1.2058   19.8448   -0.6585 H   0  0  0  0  0  0  0  0  0  0  0  0
    2.0903   20.0486   -2.2086 H   0  0  0  0  0  0  0  0  0  0  0  0
    0.4163   19.3970   -2.2086 H   0  0  0  0  0  0  0  0  0  0  0  0
   -0.6805   12.8382   -4.3301 H   0  0  0  0  0  0  0  0  0  0  0  0
    1.3458   11.7421   -5.0598 H   0  0  0  0  0  0  0  0  0  0  0  0
    2.2896   12.4238   -3.7179 H   0  0  0  0  0  0  0  0  0  0  0  0
    1.3482    9.7306   -3.8861 H   0  0  0  0  0  0  0  0  0  0  0  0
    1.9391   10.4784   -2.4049 H   0  0  0  0  0  0  0  0  0  0  0  0
   -2.0599    9.6878   -3.5030 H   0  0  0  0  0  0  0  0  0  0  0  0
   -1.3923   11.0324   -4.4893 H   0  0  0  0  0  0  0  0  0  0  0  0
   -0.5810    9.4298   -4.4893 H   0  0  0  0  0  0  0  0  0  0  0  0
    0.2592   10.0669   -0.7096 H   0  0  0  0  0  0  0  0  0  0  0  0
    0.4808    8.0812   -2.3379 H   0  0  0  0  0  0  0  0  0  0  0  0
   -0.0453    7.8273   -0.5919 H   0  0  0  0  0  0  0  0  0  0  0  0
   -1.3408    6.4338   -2.4140 H   0  0  0  0  0  0  0  0  0  0  0  0
   -3.3752    9.9166   -2.2274 H   0  0  0  0  0  0  0  0  0  0  0  0
   -4.0585    8.4877    0.4158 H   0  0  0  0  0  0  0  0  0  0  0  0
   -4.6473   10.1216   -0.1269 H   0  0  0  0  0  0  0  0  0  0  0  0
   -6.3647    8.3643   -0.4142 H   0  0  0  0  0  0  0  0  0  0  0  0
   -5.8470    9.1086   -1.9776 H   0  0  0  0  0  0  0  0  0  0  0  0
   -6.0322    6.7350   -2.2792 H   0  0  0  0  0  0  0  0  0  0  0  0
   -4.3150    6.6740    0.0260 H   0  0  0  0  0  0  0  0  0  0  0  0
   -4.8553    8.7513   -3.7448 H   0  0  0  0  0  0  0  0  0  0  0  0
   -3.4246    8.0157   -4.5440 H   0  0  0  0  0  0  0  0  0  0  0  0
   -4.9979    7.1489   -4.5440 H   0  0  0  0  0  0  0  0  0  0  0  0
   -3.4673    5.0577   -2.0773 H   0  0  0  0  0  0  0  0  0  0  0  0
   -4.4254    5.2078   -3.5892 H   0  0  0  0  0  0  0  0  0  0  0  0
   -2.6770    5.6199   -3.5892 H   0  0  0  0  0  0  0  0  0  0  0  0
   -2.0366   10.4105    1.4545 H   0  0  0  0  0  0  0  0  0  0  0  0
   -2.4348    8.7249    0.9783 H   0  0  0  0  0  0  0  0  0  0  0  0
   -0.7259    9.2782    0.9783 H   0  0  0  0  0  0  0  0  0  0  0  0
   -3.3326   11.6744   -0.5312 H   0  0  0  0  0  0  0  0  0  0  0  0
   -1.6430   11.9750    0.1683 H   0  0  0  0  0  0  0  0  0  0  0  0
   -2.4975   12.1352   -2.7355 H   0  0  0  0  0  0  0  0  0  0  0  0
   -1.9387   13.4666   -1.6481 H   0  0  0  0  0  0  0  0  0  0  0  0
    0.0389   12.3351   -0.1464 H   0  0  0  0  0  0  0  0  0  0  0  0
    1.4957   12.0634   -1.1616 H   0  0  0  0  0  0  0  0  0  0  0  0
    0.6875   13.6675   -1.1616 H   0  0  0  0  0  0  0  0  0  0  0  0
  1  2  1  0
  2  3  1  0
  3  4  1  0
  4  5  1  0
  5  6  1  0
  6  7  1  0
  7  8  1  0
  7  9  1  0
  2 10  1  0
 10 11  1  0
 11 12  1  0
 12 13  1  0
 13 14  1  6
 13 15  1  0
 15 16  1  0
 16 17  1  0
 17 18  2  0
 18 19  1  0
 19 20  1  0
 20 21  1  0
 21 22  1  0
 22 23  1  0
 22 24  1  0
 24 25  1  0
 24 26  1  0
 19 27  1  0
 27 28  1  1
 27 29  1  0
 29 30  1  0
 30 31  1  0
 31 32  1  1
  7  5  1  0
 31 10  1  0
 31 13  1  0
 27 15  1  0
 24 18  1  0
  1 33  1  0
  1 34  1  0
  1 35  1  0
  2 36  1  1
  3 37  1  0
  3 38  1  0
  4 39  1  0
  4 40  1  0
  5 41  1  6
  8 42  1  0
  8 43  1  0
  8 44  1  0
  9 45  1  0
  9 46  1  0
  9 47  1  0
 10 48  1  6
 11 49  1  0
 11 50  1  0
 12 51  1  0
 12 52  1  0
 14 53  1  0
 14 54  1  0
 14 55  1  0
 15 56  1  1
 16 57  1  0
 16 58  1  0
 17 59  1  0
 19 60  1  6
 20 61  1  0
 20 62  1  0
 21 63  1  0
 21 64  1  0
 22 65  1  6
 23 66  1  0
 25 67  1  0
 25 68  1  0
 25 69  1  0
 26 70  1  0
 26 71  1  0
 26 72  1  0
 28 73  1  0
 28 74  1  0
 28 75  1  0
 29 76  1  0
 29 77  1  0
 30 78  1  0
 30 79  1  0
 32 80  1  0
 32 81  1  0
 32 82  1  0
M  END
>  <meeko>  (16) 
{"is_sidechain": [false], "intermolecular_energy": 2.731, "internal_energy": -0.839}

$$$$
EPH_relaxed_0001_pdb2pqr_Repair_181_r2_0001_out
     RDKit          3D

 82 86  0  0  0  0  0  0  0  0999 V2000
    3.2840   18.3020   -3.0570 C   0  0  0  0  0  0  0  0  0  0  0  0
    1.9760   17.8740   -2.3850 C   0  0  2  0  0  0  0  0  0  0  0  0
    1.4970   18.9000   -1.3400 C   0  0  0  0  0  0  0  0  0  0  0  0
    1.6680   18.4300    0.1080 C   0  0  0  0  0  0  0  0  0  0  0  0
    2.2800   19.4940    0.9670 C   0  0  2  0  0  0  0  0  0  0  0  0
    3.5120   20.0320    0.4690 O   0  0  0  0  0  0  0  0  0  0  0  0
    3.5890   19.3170    1.7130 C   0  0  0  0  0  0  0  0  0  0  0  0
    4.3660   18.0400    1.6330 C   0  0  0  0  0  0  0  0  0  0  0  0
    3.8640   20.1930    2.8950 C   0  0  0  0  0  0  0  0  0  0  0  0
    2.1500   16.5080   -1.7330 C   0  0  1  0  0  0  0  0  0  0  0  0
    2.6130   16.6060   -0.2550 C   0  0  0  0  0  0  0  0  0  0  0  0
    1.9380   15.4350    0.5050 C   0  0  0  0  0  0  0  0  0  0  0  0
    1.3830   14.5160   -0.6090 C   0  0  1  0  0  0  0  0  0  0  0  0
    2.6090   13.6710   -1.0790 C   0  0  0  0  0  0  0  0  0  0  0  0
    0.1720   13.6080   -0.2170 C   0  0  2  0  0  0  0  0  0  0  0  0
    0.4600   12.5790    0.8890 C   0  0  0  0  0  0  0  0  0  0  0  0
    0.9420   11.2480    0.4120 C   0  0  0  0  0  0  0  0  0  0  0  0
    0.8670   10.7970   -0.8530 C   0  0  0  0  0  0  0  0  0  0  0  0
    0.1600   11.6160   -1.9410 C   0  0  1  0  0  0  0  0  0  0  0  0
   -0.7800   10.6920   -2.7580 C   0  0  0  0  0  0  0  0  0  0  0  0
   -0.0560    9.4730   -3.3230 C   0  0  0  0  0  0  0  0  0  0  0  0
    0.5830    8.6520   -2.2060 C   0  0  2  0  0  0  0  0  0  0  0  0
   -0.4530    8.0830   -1.4010 O   0  0  0  0  0  0  0  0  0  0  0  0
    1.5450    9.4820   -1.3100 C   0  0  0  0  0  0  0  0  0  0  0  0
    2.8200    9.8450   -2.1110 C   0  0  0  0  0  0  0  0  0  0  0  0
    2.0110    8.5730   -0.1410 C   0  0  0  0  0  0  0  0  0  0  0  0
   -0.5640   12.9430   -1.4490 C   0  0  1  0  0  0  0  0  0  0  0  0
   -2.0130   12.6130   -0.9770 C   0  0  0  0  0  0  0  0  0  0  0  0
   -0.7080   13.9310   -2.6660 C   0  0  0  0  0  0  0  0  0  0  0  0
    0.4720   14.8860   -2.9290 C   0  0  0  0  0  0  0  0  0  0  0  0
    0.8990   15.5980   -1.6420 C   0  0  2  0  0  0  0  0  0  0  0  0
   -0.3060   16.4740   -1.1580 C   0  0  0  0  0  0  0  0  0  0  0  0
    4.0296   18.5460   -2.2860 H   0  0  0  0  0  0  0  0  0  0  0  0
    3.6602   17.4801   -3.6838 H   0  0  0  0  0  0  0  0  0  0  0  0
    3.1016   19.1873   -3.6838 H   0  0  0  0  0  0  0  0  0  0  0  0
    1.2051   17.8168   -3.1676 H   0  0  0  0  0  0  0  0  0  0  0  0
    2.0731   19.8274   -1.4744 H   0  0  0  0  0  0  0  0  0  0  0  0
    0.4195   19.0476   -1.5049 H   0  0  0  0  0  0  0  0  0  0  0  0
    0.6812   18.1661    0.5161 H   0  0  0  0  0  0  0  0  0  0  0  0
    2.3404   17.5595    0.1089 H   0  0  0  0  0  0  0  0  0  0  0  0
    1.2861   19.8357    1.2916 H   0  0  0  0  0  0  0  0  0  0  0  0
    4.5851   17.6799    2.6490 H   0  0  0  0  0  0  0  0  0  0  0  0
    3.7746   17.2840    1.0956 H   0  0  0  0  0  0  0  0  0  0  0  0
    5.3092   18.2177    1.0956 H   0  0  0  0  0  0  0  0  0  0  0  0
    3.6861   19.6262    3.8208 H   0  0  0  0  0  0  0  0  0  0  0  0
    4.9109   20.5293    2.8665 H   0  0  0  0  0  0  0  0  0  0  0  0
    3.1971   21.0673    2.8665 H   0  0  0  0  0  0  0  0  0  0  0  0
    2.8861   16.0680   -2.4219 H   0  0  0  0  0  0  0  0  0  0  0  0
    3.7076   16.5157   -0.1944 H   0  0  0  0  0  0  0  0  0  0  0  0
    2.3316   17.5750    0.1831 H   0  0  0  0  0  0  0  0  0  0  0  0
    2.6731   14.8973    1.1219 H   0  0  0  0  0  0  0  0  0  0  0  0
    1.1510   15.7812    1.1911 H   0  0  0  0  0  0  0  0  0  0  0  0
    3.1539   13.2954   -0.2004 H   0  0  0  0  0  0  0  0  0  0  0  0
    2.2587   12.8216   -1.6839 H   0  0  0  0  0  0  0  0  0  0  0  0
    3.2781   14.3007   -1.6839 H   0  0  0  0  0  0  0  0  0  0  0  0
   -0.5320   14.3295    0.2232 H   0  0  0  0  0  0  0  0  0  0  0  0
    1.2284   13.0005    1.5538 H   0  0  0  0  0  0  0  0  0  0  0  0
   -0.5016   12.3930    1.3897 H   0  0  0  0  0  0  0  0  0  0  0  0
    1.3968   10.5802    1.1584 H   0  0  0  0  0  0  0  0  0  0  0  0
    0.9558   12.0065   -2.5923 H   0  0  0  0  0  0  0  0  0  0  0  0
   -1.5926   10.3468   -2.1019 H   0  0  0  0  0  0  0  0  0  0  0  0
   -1.1655   11.2749   -3.6075 H   0  0  0  0  0  0  0  0  0  0  0  0
   -0.7783    8.8441   -3.8641 H   0  0  0  0  0  0  0  0  0  0  0  0
    0.7370    9.8191   -4.0022 H   0  0  0  0  0  0  0  0  0  0  0  0
    1.1926    7.8685   -2.6798 H   0  0  0  0  0  0  0  0  0  0  0  0
   -1.0070    8.8120   -1.0750 H   0  0  0  0  0  0  0  0  0  0  0  0
    3.6377   10.0778   -1.4130 H   0  0  0  0  0  0  0  0  0  0  0  0
    3.1099    8.9937   -2.7444 H   0  0  0  0  0  0  0  0  0  0  0  0
    2.6180   10.7213   -2.7444 H   0  0  0  0  0  0  0  0  0  0  0  0
    1.7648    9.0533    0.8175 H   0  0  0  0  0  0  0  0  0  0  0  0
    1.5000    7.6011   -0.2061 H   0  0  0  0  0  0  0  0  0  0  0  0
    3.0984    8.4206   -0.2061 H   0  0  0  0  0  0  0  0  0  0  0  0
   -2.0476   12.6051    0.1224 H   0  0  0  0  0  0  0  0  0  0  0  0
   -2.7062   13.3763   -1.3602 H   0  0  0  0  0  0  0  0  0  0  0  0
   -2.3074   11.6248   -1.3602 H   0  0  0  0  0  0  0  0  0  0  0  0
   -0.8532   13.3241   -3.5719 H   0  0  0  0  0  0  0  0  0  0  0  0
   -1.5547   14.5840   -2.4079 H   0  0  0  0  0  0  0  0  0  0  0  0
    1.3225   14.3079   -3.3195 H   0  0  0  0  0  0  0  0  0  0  0  0
    0.1534   15.6440   -3.6597 H   0  0  0  0  0  0  0  0  0  0  0  0
   -0.3289   16.4906   -0.0584 H   0  0  0  0  0  0  0  0  0  0  0  0
   -0.1895   17.4997   -1.5379 H   0  0  0  0  0  0  0  0  0  0  0  0
   -1.2458   16.0468   -1.5379 H   0  0  0  0  0  0  0  0  0  0  0  0
  1  2  1  0
  2  3  1  0
  3  4  1  0
  4  5  1  0
  5  6  1  0
  6  7  1  0
  7  8  1  0
  7  9  1  0
  2 10  1  0
 10 11  1  0
 11 12  1  0
 12 13  1  0
 13 14  1  6
 13 15  1  0
 15 16  1  0
 16 17  1  0
 17 18  2  0
 18 19  1  0
 19 20  1  0
 20 21  1  0
 21 22  1  0
 22 23  1  0
 22 24  1  0
 24 25  1  0
 24 26  1  0
 19 27  1  0
 27 28  1  1
 27 29  1  0
 29 30  1  0
 30 31  1  0
 31 32  1  1
  7  5  1  0
 31 10  1  0
 31 13  1  0
 27 15  1  0
 24 18  1  0
  1 33  1  0
  1 34  1  0
  1 35  1  0
  2 36  1  6
  3 37  1  0
  3 38  1  0
  4 39  1  0
  4 40  1  0
  5 41  1  1
  8 42  1  0
  8 43  1  0
  8 44  1  0
  9 45  1  0
  9 46  1  0
  9 47  1  0
 10 48  1  6
 11 49  1  0
 11 50  1  0
 12 51  1  0
 12 52  1  0
 14 53  1  0
 14 54  1  0
 14 55  1  0
 15 56  1  1
 16 57  1  0
 16 58  1  0
 17 59  1  0
 19 60  1  6
 20 61  1  0
 20 62  1  0
 21 63  1  0
 21 64  1  0
 22 65  1  6
 23 66  1  0
 25 67  1  0
 25 68  1  0
 25 69  1  0
 26 70  1  0
 26 71  1  0
 26 72  1  0
 28 73  1  0
 28 74  1  0
 28 75  1  0
 29 76  1  0
 29 77  1  0
 30 78  1  0
 30 79  1  0
 32 80  1  0
 32 81  1  0
 32 82  1  0
M  END
>  <meeko>  (17) 
{"is_sidechain": [false], "intermolecular_energy": 2.731, "internal_energy": -0.839}

$$$$
EPH_relaxed_0001_pdb2pqr_Repair_181_r2_0001_out
     RDKit          3D

 82 86  0  0  0  0  0  0  0  0999 V2000
  -15.1360    8.9610    0.9330 C   0  0  0  0  0  0  0  0  0  0  0  0
  -14.3070    9.1830   -0.3350 C   0  0  2  0  0  0  0  0  0  0  0  0
  -14.7020    8.2100   -1.4640 C   0  0  0  0  0  0  0  0  0  0  0  0
  -14.6530    8.8350   -2.8610 C   0  0  0  0  0  0  0  0  0  0  0  0
  -15.2870   10.1930   -2.8830 C   0  0  2  0  0  0  0  0  0  0  0  0
  -14.9540   10.9900   -4.0270 O   0  0  0  0  0  0  0  0  0  0  0  0
  -14.5010   11.4850   -2.7570 C   0  0  0  0  0  0  0  0  0  0  0  0
  -13.0130   11.4810   -2.5980 C   0  0  0  0  0  0  0  0  0  0  0  0
  -15.2180   12.7170   -2.2990 C   0  0  0  0  0  0  0  0  0  0  0  0
  -12.8240    9.0380   -0.0180 C   0  0  1  0  0  0  0  0  0  0  0  0
  -12.5380    9.0150    1.5070 C   0  0  0  0  0  0  0  0  0  0  0  0
  -11.3450    8.0480    1.7240 C   0  0  0  0  0  0  0  0  0  0  0  0
  -10.7750    7.8080    0.3070 C   0  0  1  0  0  0  0  0  0  0  0  0
   -9.8770    9.0520    0.0190 C   0  0  0  0  0  0  0  0  0  0  0  0
   -9.9940    6.4700    0.0940 C   0  0  2  0  0  0  0  0  0  0  0  0
   -8.7220    6.3150    0.9460 C   0  0  0  0  0  0  0  0  0  0  0  0
   -7.4670    6.8210    0.3170 C   0  0  0  0  0  0  0  0  0  0  0  0
   -7.3100    7.1170   -0.9870 C   0  0  0  0  0  0  0  0  0  0  0  0
   -8.4360    6.8550   -1.9950 C   0  0  1  0  0  0  0  0  0  0  0  0
   -7.8540    6.1550   -3.2510 C   0  0  0  0  0  0  0  0  0  0  0  0
   -6.6900    6.9260   -3.8650 C   0  0  0  0  0  0  0  0  0  0  0  0
   -5.5660    7.1160   -2.8490 C   0  0  2  0  0  0  0  0  0  0  0  0
   -4.9980    5.8380   -2.5460 O   0  0  0  0  0  0  0  0  0  0  0  0
   -6.0350    7.8040   -1.5370 C   0  0  0  0  0  0  0  0  0  0  0  0
   -6.3680    9.2900   -1.8180 C   0  0  0  0  0  0  0  0  0  0  0  0
   -4.8410    7.8070   -0.5450 C   0  0  0  0  0  0  0  0  0  0  0  0
   -9.7200    6.1140   -1.4230 C   0  0  1  0  0  0  0  0  0  0  0  0
   -9.5160    4.5690   -1.4870 C   0  0  0  0  0  0  0  0  0  0  0  0
  -10.9540    6.4370   -2.3460 C   0  0  0  0  0  0  0  0  0  0  0  0
  -11.7570    7.7080   -2.0110 C   0  0  0  0  0  0  0  0  0  0  0  0
  -12.1100    7.7580   -0.5220 C   0  0  2  0  0  0  0  0  0  0  0  0
  -13.0320    6.5310   -0.2070 C   0  0  0  0  0  0  0  0  0  0  0  0
  -14.5049    9.1300    1.8179 H   0  0  0  0  0  0  0  0  0  0  0  0
  -15.9817    9.6643    0.9460 H   0  0  0  0  0  0  0  0  0  0  0  0
  -15.5170    7.9292    0.9460 H   0  0  0  0  0  0  0  0  0  0  0  0
  -14.5129   10.2032   -0.6910 H   0  0  0  0  0  0  0  0  0  0  0  0
  -14.0114    7.3541   -1.4421 H   0  0  0  0  0  0  0  0  0  0  0  0
  -15.7452    7.9126   -1.2815 H   0  0  0  0  0  0  0  0  0  0  0  0
  -13.6024    8.9269   -3.1738 H   0  0  0  0  0  0  0  0  0  0  0  0
  -15.2132    8.1837   -3.5480 H   0  0  0  0  0  0  0  0  0  0  0  0
  -16.1737    9.8141   -2.3537 H   0  0  0  0  0  0  0  0  0  0  0  0
  -12.7586   11.4803   -1.5278 H   0  0  0  0  0  0  0  0  0  0  0  0
  -12.5957   10.5817   -3.0747 H   0  0  0  0  0  0  0  0  0  0  0  0
  -12.5909   12.3780   -3.0747 H   0  0  0  0  0  0  0  0  0  0  0  0
  -15.2340   12.7445   -1.1995 H   0  0  0  0  0  0  0  0  0  0  0  0
  -14.6971   13.6076   -2.6805 H   0  0  0  0  0  0  0  0  0  0  0  0
  -16.2496   12.7040   -2.6805 H   0  0  0  0  0  0  0  0  0  0  0  0
  -12.4356    9.9194   -0.5494 H   0  0  0  0  0  0  0  0  0  0  0  0
  -12.2766   10.0240    1.8586 H   0  0  0  0  0  0  0  0  0  0  0  0
  -13.4229    8.6830    2.0698 H   0  0  0  0  0  0  0  0  0  0  0  0
  -10.5865    8.5070    2.3751 H   0  0  0  0  0  0  0  0  0  0  0  0
  -11.6504    7.1122    2.2149 H   0  0  0  0  0  0  0  0  0  0  0  0
   -9.5541    9.4993    0.9706 H   0  0  0  0  0  0  0  0  0  0  0  0
   -8.9938    8.7409   -0.5583 H   0  0  0  0  0  0  0  0  0  0  0  0
  -10.4503    9.7923   -0.5583 H   0  0  0  0  0  0  0  0  0  0  0  0
  -10.7026    5.7197    0.4748 H   0  0  0  0  0  0  0  0  0  0  0  0
   -8.8749    6.8628    1.8876 H   0  0  0  0  0  0  0  0  0  0  0  0
   -8.5783    5.2331    1.0836 H   0  0  0  0  0  0  0  0  0  0  0  0
   -6.5966    6.9643    0.9742 H   0  0  0  0  0  0  0  0  0  0  0  0
   -8.8345    7.8429   -2.2695 H   0  0  0  0  0  0  0  0  0  0  0  0
   -7.5011    5.1533   -2.9645 H   0  0  0  0  0  0  0  0  0  0  0  0
   -8.6538    6.1029   -4.0044 H   0  0  0  0  0  0  0  0  0  0  0  0
   -6.3033    6.3663   -4.7294 H   0  0  0  0  0  0  0  0  0  0  0  0
   -7.0511    7.9165   -4.1790 H   0  0  0  0  0  0  0  0  0  0  0  0
   -4.8202    7.7847   -3.3036 H   0  0  0  0  0  0  0  0  0  0  0  0
   -4.4410    5.9430   -1.7560 H   0  0  0  0  0  0  0  0  0  0  0  0
   -6.4880    9.8255   -0.8647 H   0  0  0  0  0  0  0  0  0  0  0  0
   -5.5499    9.7464   -2.3945 H   0  0  0  0  0  0  0  0  0  0  0  0
   -7.3027    9.3536   -2.3945 H   0  0  0  0  0  0  0  0  0  0  0  0
   -5.2217    7.8060    0.4870 H   0  0  0  0  0  0  0  0  0  0  0  0
   -4.2253    6.9104   -0.7095 H   0  0  0  0  0  0  0  0  0  0  0  0
   -4.2299    8.7067   -0.7095 H   0  0  0  0  0  0  0  0  0  0  0  0
   -9.4625    4.1636   -0.4658 H   0  0  0  0  0  0  0  0  0  0  0  0
  -10.3612    4.1093   -2.0202 H   0  0  0  0  0  0  0  0  0  0  0  0
   -8.5804    4.3445   -2.0202 H   0  0  0  0  0  0  0  0  0  0  0  0
  -10.5815    6.5403   -3.3758 H   0  0  0  0  0  0  0  0  0  0  0  0
  -11.6554    5.6039   -2.1914 H   0  0  0  0  0  0  0  0  0  0  0  0
  -11.1548    8.5920   -2.2677 H   0  0  0  0  0  0  0  0  0  0  0  0
  -12.6909    7.6956   -2.5921 H   0  0  0  0  0  0  0  0  0  0  0  0
  -13.1225    6.4105    0.8826 H   0  0  0  0  0  0  0  0  0  0  0  0
  -14.0284    6.7000   -0.6412 H   0  0  0  0  0  0  0  0  0  0  0  0
  -12.5924    5.6210   -0.6412 H   0  0  0  0  0  0  0  0  0  0  0  0
  1  2  1  0
  2  3  1  0
  3  4  1  0
  4  5  1  0
  5  6  1  0
  6  7  1  0
  7  8  1  0
  7  9  1  0
  2 10  1  0
 10 11  1  0
 11 12  1  0
 12 13  1  0
 13 14  1  6
 13 15  1  0
 15 16  1  0
 16 17  1  0
 17 18  2  0
 18 19  1  0
 19 20  1  0
 20 21  1  0
 21 22  1  0
 22 23  1  0
 22 24  1  0
 24 25  1  0
 24 26  1  0
 19 27  1  0
 27 28  1  1
 27 29  1  0
 29 30  1  0
 30 31  1  0
 31 32  1  1
  7  5  1  0
 31 10  1  0
 31 13  1  0
 27 15  1  0
 24 18  1  0
  1 33  1  0
  1 34  1  0
  1 35  1  0
  2 36  1  6
  3 37  1  0
  3 38  1  0
  4 39  1  0
  4 40  1  0
  5 41  1  1
  8 42  1  0
  8 43  1  0
  8 44  1  0
  9 45  1  0
  9 46  1  0
  9 47  1  0
 10 48  1  6
 11 49  1  0
 11 50  1  0
 12 51  1  0
 12 52  1  0
 14 53  1  0
 14 54  1  0
 14 55  1  0
 15 56  1  1
 16 57  1  0
 16 58  1  0
 17 59  1  0
 19 60  1  6
 20 61  1  0
 20 62  1  0
 21 63  1  0
 21 64  1  0
 22 65  1  6
 23 66  1  0
 25 67  1  0
 25 68  1  0
 25 69  1  0
 26 70  1  0
 26 71  1  0
 26 72  1  0
 28 73  1  0
 28 74  1  0
 28 75  1  0
 29 76  1  0
 29 77  1  0
 30 78  1  0
 30 79  1  0
 32 80  1  0
 32 81  1  0
 32 82  1  0
M  END
>  <meeko>  (18) 
{"is_sidechain": [false], "intermolecular_energy": 2.731, "internal_energy": -0.839}

$$$$
