EPH_relaxed_0001_pdb2pqr_Repair_142_r2_0001_out
     RDKit          3D

 82 86  0  0  0  0  0  0  0  0999 V2000
    4.5310   17.6870   -0.7510 C   0  0  0  0  0  0  0  0  0  0  0  0
    3.1610   18.2780   -0.4080 C   0  0  2  0  0  0  0  0  0  0  0  0
    3.1290   18.8890    1.0070 C   0  0  0  0  0  0  0  0  0  0  0  0
    4.4220   18.6760    1.7980 C   0  0  0  0  0  0  0  0  0  0  0  0
    4.3260   19.2460    3.1810 C   0  0  2  0  0  0  0  0  0  0  0  0
    5.3490   20.1940    3.5100 O   0  0  0  0  0  0  0  0  0  0  0  0
    5.3470   18.9750    4.2700 C   0  0  0  0  0  0  0  0  0  0  0  0
    6.5380   18.1030    4.0240 C   0  0  0  0  0  0  0  0  0  0  0  0
    4.9350   19.1560    5.6980 C   0  0  0  0  0  0  0  0  0  0  0  0
    2.0860   17.2040   -0.5360 C   0  0  1  0  0  0  0  0  0  0  0  0
    0.7580   17.7550   -1.1210 C   0  0  0  0  0  0  0  0  0  0  0  0
    0.1500   16.6250   -1.9910 C   0  0  0  0  0  0  0  0  0  0  0  0
    0.9630   15.3640   -1.6170 C   0  0  1  0  0  0  0  0  0  0  0  0
    0.3240   14.8560   -0.2860 C   0  0  0  0  0  0  0  0  0  0  0  0
    1.0230   14.2350   -2.6960 C   0  0  2  0  0  0  0  0  0  0  0  0
   -0.3340   13.6060   -3.0590 C   0  0  0  0  0  0  0  0  0  0  0  0
   -0.7240   12.4180   -2.2430 C   0  0  0  0  0  0  0  0  0  0  0  0
    0.1020   11.7040   -1.4560 C   0  0  0  0  0  0  0  0  0  0  0  0
    1.6040   12.0140   -1.4040 C   0  0  1  0  0  0  0  0  0  0  0  0
    2.4090   10.6920   -1.5130 C   0  0  0  0  0  0  0  0  0  0  0  0
    1.9890    9.6630   -0.4670 C   0  0  0  0  0  0  0  0  0  0  0  0
    0.5020    9.3380   -0.5890 C   0  0  2  0  0  0  0  0  0  0  0  0
    0.2770    8.6650   -1.8310 O   0  0  0  0  0  0  0  0  0  0  0  0
   -0.4090   10.5950   -0.5030 C   0  0  0  0  0  0  0  0  0  0  0  0
   -0.3940   11.1510    0.9420 C   0  0  0  0  0  0  0  0  0  0  0  0
   -1.8690   10.1460   -0.7810 C   0  0  0  0  0  0  0  0  0  0  0  0
    2.1170   13.1270   -2.4150 C   0  0  1  0  0  0  0  0  0  0  0  0
    2.4580   12.4780   -3.7920 C   0  0  0  0  0  0  0  0  0  0  0  0
    3.4610   13.7380   -1.8680 C   0  0  0  0  0  0  0  0  0  0  0  0
    3.3380   14.9290   -0.8980 C   0  0  0  0  0  0  0  0  0  0  0  0
    2.3930   15.9960   -1.4570 C   0  0  2  0  0  0  0  0  0  0  0  0
    3.0210   16.5420   -2.7850 C   0  0  0  0  0  0  0  0  0  0  0  0
    5.0725   17.4534    0.1776 H   0  0  0  0  0  0  0  0  0  0  0  0
    4.3967   16.7668   -1.3385 H   0  0  0  0  0  0  0  0  0  0  0  0
    5.1082   18.4162   -1.3385 H   0  0  0  0  0  0  0  0  0  0  0  0
    2.9629   19.0908   -1.1223 H   0  0  0  0  0  0  0  0  0  0  0  0
    2.9527   19.9708    0.9143 H   0  0  0  0  0  0  0  0  0  0  0  0
    2.3261   18.3790    1.5595 H   0  0  0  0  0  0  0  0  0  0  0  0
    4.6220   17.5968    1.8703 H   0  0  0  0  0  0  0  0  0  0  0  0
    5.2364   19.1933    1.2696 H   0  0  0  0  0  0  0  0  0  0  0  0
    3.2289   19.1684    3.1623 H   0  0  0  0  0  0  0  0  0  0  0  0
    6.9674   17.7886    4.9867 H   0  0  0  0  0  0  0  0  0  0  0  0
    6.2305   17.2150    3.4522 H   0  0  0  0  0  0  0  0  0  0  0  0
    7.2916   18.6644    3.4522 H   0  0  0  0  0  0  0  0  0  0  0  0
    5.7397   18.8025    6.3594 H   0  0  0  0  0  0  0  0  0  0  0  0
    4.7425   20.2215    5.8919 H   0  0  0  0  0  0  0  0  0  0  0  0
    4.0201   18.5770    5.8919 H   0  0  0  0  0  0  0  0  0  0  0  0
    2.0299   16.8736    0.5117 H   0  0  0  0  0  0  0  0  0  0  0  0
    0.0668   18.0203   -0.3074 H   0  0  0  0  0  0  0  0  0  0  0  0
    0.9354   18.6615   -1.7183 H   0  0  0  0  0  0  0  0  0  0  0  0
   -0.9152   16.4842   -1.7555 H   0  0  0  0  0  0  0  0  0  0  0  0
    0.2033   16.8519   -3.0660 H   0  0  0  0  0  0  0  0  0  0  0  0
    0.8660   15.2869    0.5688 H   0  0  0  0  0  0  0  0  0  0  0  0
   -0.7310   15.1647   -0.2445 H   0  0  0  0  0  0  0  0  0  0  0  0
    0.3868   13.7586   -0.2445 H   0  0  0  0  0  0  0  0  0  0  0  0
    1.3473   14.7833   -3.5927 H   0  0  0  0  0  0  0  0  0  0  0  0
   -1.1101   14.3752   -2.9323 H   0  0  0  0  0  0  0  0  0  0  0  0
   -0.2359   13.2460   -4.0938 H   0  0  0  0  0  0  0  0  0  0  0  0
   -1.7758   12.0992   -2.2889 H   0  0  0  0  0  0  0  0  0  0  0  0
    1.7853   12.4814   -0.4249 H   0  0  0  0  0  0  0  0  0  0  0  0
    2.2492   10.2633   -2.5134 H   0  0  0  0  0  0  0  0  0  0  0  0
    3.4686   10.9311   -1.3395 H   0  0  0  0  0  0  0  0  0  0  0  0
    2.5722    8.7419   -0.6134 H   0  0  0  0  0  0  0  0  0  0  0  0
    2.1765   10.0815    0.5329 H   0  0  0  0  0  0  0  0  0  0  0  0
    0.2337    8.6972    0.2639 H   0  0  0  0  0  0  0  0  0  0  0  0
   -0.4520    9.1200   -2.2850 H   0  0  0  0  0  0  0  0  0  0  0  0
   -0.4165   10.3152    1.6567 H   0  0  0  0  0  0  0  0  0  0  0  0
    0.5204   11.7422    1.0979 H   0  0  0  0  0  0  0  0  0  0  0  0
   -1.2752   11.7906    1.0979 H   0  0  0  0  0  0  0  0  0  0  0  0
   -2.3913    9.9854    0.1737 H   0  0  0  0  0  0  0  0  0  0  0  0
   -2.3891   10.9257   -1.3568 H   0  0  0  0  0  0  0  0  0  0  0  0
   -1.8611    9.2088   -1.3568 H   0  0  0  0  0  0  0  0  0  0  0  0
    2.9639   11.5151   -3.6283 H   0  0  0  0  0  0  0  0  0  0  0  0
    1.5302   12.3129   -4.3593 H   0  0  0  0  0  0  0  0  0  0  0  0
    3.1203   13.1484   -4.3593 H   0  0  0  0  0  0  0  0  0  0  0  0
    4.0021   12.9364   -1.3440 H   0  0  0  0  0  0  0  0  0  0  0  0
    3.9763   14.1393   -2.7531 H   0  0  0  0  0  0  0  0  0  0  0  0
    2.9458   14.5698    0.0649 H   0  0  0  0  0  0  0  0  0  0  0  0
    4.3337   15.3773   -0.7652 H   0  0  0  0  0  0  0  0  0  0  0  0
    3.8311   17.2463   -2.5450 H   0  0  0  0  0  0  0  0  0  0  0  0
    3.4256   15.7037   -3.3711 H   0  0  0  0  0  0  0  0  0  0  0  0
    2.2470   17.0592   -3.3711 H   0  0  0  0  0  0  0  0  0  0  0  0
  1  2  1  0
  2  3  1  0
  3  4  1  0
  4  5  1  0
  5  6  1  0
  6  7  1  0
  7  8  1  0
  7  9  1  0
  2 10  1  0
 10 11  1  0
 11 12  1  0
 12 13  1  0
 13 14  1  1
 13 15  1  0
 15 16  1  0
 16 17  1  0
 17 18  2  0
 18 19  1  0
 19 20  1  0
 20 21  1  0
 21 22  1  0
 22 23  1  0
 22 24  1  0
 24 25  1  0
 24 26  1  0
 19 27  1  0
 27 28  1  6
 27 29  1  0
 29 30  1  0
 30 31  1  0
 31 32  1  6
  7  5  1  0
 31 10  1  0
 31 13  1  0
 27 15  1  0
 24 18  1  0
  1 33  1  0
  1 34  1  0
  1 35  1  0
  2 36  1  6
  3 37  1  0
  3 38  1  0
  4 39  1  0
  4 40  1  0
  5 41  1  1
  8 42  1  0
  8 43  1  0
  8 44  1  0
  9 45  1  0
  9 46  1  0
  9 47  1  0
 10 48  1  1
 11 49  1  0
 11 50  1  0
 12 51  1  0
 12 52  1  0
 14 53  1  0
 14 54  1  0
 14 55  1  0
 15 56  1  6
 16 57  1  0
 16 58  1  0
 17 59  1  0
 19 60  1  1
 20 61  1  0
 20 62  1  0
 21 63  1  0
 21 64  1  0
 22 65  1  1
 23 66  1  0
 25 67  1  0
 25 68  1  0
 25 69  1  0
 26 70  1  0
 26 71  1  0
 26 72  1  0
 28 73  1  0
 28 74  1  0
 28 75  1  0
 29 76  1  0
 29 77  1  0
 30 78  1  0
 30 79  1  0
 32 80  1  0
 32 81  1  0
 32 82  1  0
M  END
>  <meeko>  (1) 
{"is_sidechain": [false], "intermolecular_energy": 2.731, "internal_energy": -0.839}

$$$$
EPH_relaxed_0001_pdb2pqr_Repair_142_r2_0001_out
     RDKit          3D

 82 86  0  0  0  0  0  0  0  0999 V2000
    3.0290   17.1850    0.2880 C   0  0  0  0  0  0  0  0  0  0  0  0
    2.5150   17.3850   -1.1400 C   0  0  2  0  0  0  0  0  0  0  0  0
    1.7940   18.7360   -1.3140 C   0  0  0  0  0  0  0  0  0  0  0  0
    1.3410   19.3660    0.0060 C   0  0  0  0  0  0  0  0  0  0  0  0
    0.0190   20.0590   -0.1350 C   0  0  2  0  0  0  0  0  0  0  0  0
   -0.7190   20.1940    1.0860 O   0  0  0  0  0  0  0  0  0  0  0  0
   -1.3150   19.3660    0.0750 C   0  0  0  0  0  0  0  0  0  0  0  0
   -1.3920   17.9170    0.4420 C   0  0  0  0  0  0  0  0  0  0  0  0
   -2.5370   19.9630   -0.5500 C   0  0  0  0  0  0  0  0  0  0  0  0
    1.5800   16.2430   -1.5210 C   0  0  1  0  0  0  0  0  0  0  0  0
    0.8090   16.5160   -2.8400 C   0  0  0  0  0  0  0  0  0  0  0  0
    0.6530   15.1510   -3.5580 C   0  0  0  0  0  0  0  0  0  0  0  0
    1.0380   14.1020   -2.4890 C   0  0  1  0  0  0  0  0  0  0  0  0
   -0.2450   13.9310   -1.6160 C   0  0  0  0  0  0  0  0  0  0  0  0
    1.5580   12.7280   -3.0250 C   0  0  2  0  0  0  0  0  0  0  0  0
    0.5460   11.9280   -3.8620 C   0  0  0  0  0  0  0  0  0  0  0  0
   -0.3150   10.9830   -3.0910 C   0  0  0  0  0  0  0  0  0  0  0  0
   -0.0890   10.5730   -1.8290 C   0  0  0  0  0  0  0  0  0  0  0  0
    1.1820   10.9920   -1.0800 C   0  0  1  0  0  0  0  0  0  0  0  0
    1.8080    9.7520   -0.3880 C   0  0  0  0  0  0  0  0  0  0  0  0
    0.8160    9.0200    0.5100 C   0  0  0  0  0  0  0  0  0  0  0  0
   -0.4070    8.5680   -0.2830 C   0  0  2  0  0  0  0  0  0  0  0  0
   -0.0040    7.5670   -1.2230 O   0  0  0  0  0  0  0  0  0  0  0  0
   -1.1160    9.7310   -1.0320 C   0  0  0  0  0  0  0  0  0  0  0  0
   -1.8150   10.6600   -0.0080 C   0  0  0  0  0  0  0  0  0  0  0  0
   -2.2460    9.1200   -1.9040 C   0  0  0  0  0  0  0  0  0  0  0  0
    2.2430   11.8210   -1.9240 C   0  0  1  0  0  0  0  0  0  0  0  0
    3.1980   10.8480   -2.6800 C   0  0  0  0  0  0  0  0  0  0  0  0
    3.1460   12.6530   -0.9390 C   0  0  0  0  0  0  0  0  0  0  0  0
    2.6350   14.0510   -0.5410 C   0  0  0  0  0  0  0  0  0  0  0  0
    2.2200   14.8550   -1.7770 C   0  0  2  0  0  0  0  0  0  0  0  0
    3.4940   15.0620   -2.6640 C   0  0  0  0  0  0  0  0  0  0  0  0
    2.2505   17.4879    1.0037 H   0  0  0  0  0  0  0  0  0  0  0  0
    3.2772   16.1247    0.4432 H   0  0  0  0  0  0  0  0  0  0  0  0
    3.9286   17.7987    0.4432 H   0  0  0  0  0  0  0  0  0  0  0  0
    3.3888   17.3888   -1.8082 H   0  0  0  0  0  0  0  0  0  0  0  0
    2.4809   19.4344   -1.8145 H   0  0  0  0  0  0  0  0  0  0  0  0
    0.8873   18.5428   -1.9060 H   0  0  0  0  0  0  0  0  0  0  0  0
    1.2499   18.5755    0.7655 H   0  0  0  0  0  0  0  0  0  0  0  0
    2.0903   20.1143    0.3037 H   0  0  0  0  0  0  0  0  0  0  0  0
    0.4060   20.6822   -0.9546 H   0  0  0  0  0  0  0  0  0  0  0  0
   -1.3974   17.8160    1.5373 H   0  0  0  0  0  0  0  0  0  0  0  0
   -2.3145   17.4827    0.0292 H   0  0  0  0  0  0  0  0  0  0  0  0
   -0.5207   17.3874    0.0292 H   0  0  0  0  0  0  0  0  0  0  0  0
   -3.2255   20.2993    0.2392 H   0  0  0  0  0  0  0  0  0  0  0  0
   -2.2476   20.8212   -1.1743 H   0  0  0  0  0  0  0  0  0  0  0  0
   -3.0361   19.2072   -1.1743 H   0  0  0  0  0  0  0  0  0  0  0  0
    0.9543   16.2082   -0.6170 H   0  0  0  0  0  0  0  0  0  0  0  0
   -0.1804   16.9429   -2.6189 H   0  0  0  0  0  0  0  0  0  0  0  0
    1.3505   17.2351   -3.4723 H   0  0  0  0  0  0  0  0  0  0  0  0
   -0.3851   15.0035   -3.8906 H   0  0  0  0  0  0  0  0  0  0  0  0
    1.2808   15.0790   -4.4584 H   0  0  0  0  0  0  0  0  0  0  0  0
    0.0285   13.9675   -0.5512 H   0  0  0  0  0  0  0  0  0  0  0  0
   -0.9524   14.7428   -1.8409 H   0  0  0  0  0  0  0  0  0  0  0  0
   -0.7151   12.9623   -1.8409 H   0  0  0  0  0  0  0  0  0  0  0  0
    2.3491   13.0327   -3.7260 H   0  0  0  0  0  0  0  0  0  0  0  0
   -0.1116   12.6446   -4.3759 H   0  0  0  0  0  0  0  0  0  0  0  0
    1.1418   11.3066   -4.5467 H   0  0  0  0  0  0  0  0  0  0  0  0
   -1.2089   10.5888   -3.5965 H   0  0  0  0  0  0  0  0  0  0  0  0
    0.8613   11.7206   -0.3209 H   0  0  0  0  0  0  0  0  0  0  0  0
    2.1614    9.0564   -1.1634 H   0  0  0  0  0  0  0  0  0  0  0  0
    2.6344   10.1054    0.2461 H   0  0  0  0  0  0  0  0  0  0  0  0
    1.3081    8.1383    0.9463 H   0  0  0  0  0  0  0  0  0  0  0  0
    0.4860    9.7079    1.3024 H   0  0  0  0  0  0  0  0  0  0  0  0
   -1.1358    8.1670    0.4367 H   0  0  0  0  0  0  0  0  0  0  0  0
    0.9650    7.6020   -1.2920 H   0  0  0  0  0  0  0  0  0  0  0  0
   -1.5683   10.3321    1.0126 H   0  0  0  0  0  0  0  0  0  0  0  0
   -1.4688   11.6937   -0.1548 H   0  0  0  0  0  0  0  0  0  0  0  0
   -2.9042   10.6137   -0.1548 H   0  0  0  0  0  0  0  0  0  0  0  0
   -3.0252    8.6987   -1.2519 H   0  0  0  0  0  0  0  0  0  0  0  0
   -2.6839    9.9043   -2.5390 H   0  0  0  0  0  0  0  0  0  0  0  0
   -1.8295    8.3242   -2.5390 H   0  0  0  0  0  0  0  0  0  0  0  0
    3.7749   10.2602   -1.9508 H   0  0  0  0  0  0  0  0  0  0  0  0
    2.6055   10.1695   -3.3113 H   0  0  0  0  0  0  0  0  0  0  0  0
    3.8875   11.4277   -3.3113 H   0  0  0  0  0  0  0  0  0  0  0  0
    3.2607   12.0655   -0.0161 H   0  0  0  0  0  0  0  0  0  0  0  0
    4.0810   12.8343   -1.4894 H   0  0  0  0  0  0  0  0  0  0  0  0
    1.7664   13.9406    0.1249 H   0  0  0  0  0  0  0  0  0  0  0  0
    3.4466   14.5886   -0.0289 H   0  0  0  0  0  0  0  0  0  0  0  0
    4.3720   15.2047   -2.0169 H   0  0  0  0  0  0  0  0  0  0  0  0
    3.6464   14.1768   -3.2990 H   0  0  0  0  0  0  0  0  0  0  0  0
    3.3583   15.9499   -3.2990 H   0  0  0  0  0  0  0  0  0  0  0  0
  1  2  1  0
  2  3  1  0
  3  4  1  0
  4  5  1  0
  5  6  1  0
  6  7  1  0
  7  8  1  0
  7  9  1  0
  2 10  1  0
 10 11  1  0
 11 12  1  0
 12 13  1  0
 13 14  1  1
 13 15  1  0
 15 16  1  0
 16 17  1  0
 17 18  2  0
 18 19  1  0
 19 20  1  0
 20 21  1  0
 21 22  1  0
 22 23  1  0
 22 24  1  0
 24 25  1  0
 24 26  1  0
 19 27  1  0
 27 28  1  6
 27 29  1  0
 29 30  1  0
 30 31  1  0
 31 32  1  6
  7  5  1  0
 31 10  1  0
 31 13  1  0
 27 15  1  0
 24 18  1  0
  1 33  1  0
  1 34  1  0
  1 35  1  0
  2 36  1  6
  3 37  1  0
  3 38  1  0
  4 39  1  0
  4 40  1  0
  5 41  1  6
  8 42  1  0
  8 43  1  0
  8 44  1  0
  9 45  1  0
  9 46  1  0
  9 47  1  0
 10 48  1  1
 11 49  1  0
 11 50  1  0
 12 51  1  0
 12 52  1  0
 14 53  1  0
 14 54  1  0
 14 55  1  0
 15 56  1  6
 16 57  1  0
 16 58  1  0
 17 59  1  0
 19 60  1  1
 20 61  1  0
 20 62  1  0
 21 63  1  0
 21 64  1  0
 22 65  1  1
 23 66  1  0
 25 67  1  0
 25 68  1  0
 25 69  1  0
 26 70  1  0
 26 71  1  0
 26 72  1  0
 28 73  1  0
 28 74  1  0
 28 75  1  0
 29 76  1  0
 29 77  1  0
 30 78  1  0
 30 79  1  0
 32 80  1  0
 32 81  1  0
 32 82  1  0
M  END
>  <meeko>  (2) 
{"is_sidechain": [false], "intermolecular_energy": 2.731, "internal_energy": -0.839}

$$$$
EPH_relaxed_0001_pdb2pqr_Repair_142_r2_0001_out
     RDKit          3D

 82 86  0  0  0  0  0  0  0  0999 V2000
    2.3980   18.0980   -2.2950 C   0  0  0  0  0  0  0  0  0  0  0  0
    1.7700   17.3470   -1.1180 C   0  0  2  0  0  0  0  0  0  0  0  0
    2.8200   16.9300   -0.0680 C   0  0  0  0  0  0  0  0  0  0  0  0
    3.8330   18.0300    0.2590 C   0  0  0  0  0  0  0  0  0  0  0  0
    3.5270   18.6950    1.5670 C   0  0  2  0  0  0  0  0  0  0  0  0
    3.9000   20.0770    1.6380 O   0  0  0  0  0  0  0  0  0  0  0  0
    4.5950   19.1870    2.5260 C   0  0  0  0  0  0  0  0  0  0  0  0
    6.0510   19.0330    2.2180 C   0  0  0  0  0  0  0  0  0  0  0  0
    4.2330   19.3690    3.9670 C   0  0  0  0  0  0  0  0  0  0  0  0
    1.0230   16.1180   -1.6240 C   0  0  1  0  0  0  0  0  0  0  0  0
    0.5240   16.2820   -3.0840 C   0  0  0  0  0  0  0  0  0  0  0  0
    0.6230   14.8860   -3.7500 C   0  0  0  0  0  0  0  0  0  0  0  0
    0.8560   13.9080   -2.5740 C   0  0  1  0  0  0  0  0  0  0  0  0
   -0.5630   13.6590   -1.9730 C   0  0  0  0  0  0  0  0  0  0  0  0
    1.5780   12.5670   -2.9240 C   0  0  2  0  0  0  0  0  0  0  0  0
    0.8240   11.6570   -3.9090 C   0  0  0  0  0  0  0  0  0  0  0  0
   -0.1030   10.6690   -3.2830 C   0  0  0  0  0  0  0  0  0  0  0  0
   -0.1130   10.3210   -1.9830 C   0  0  0  0  0  0  0  0  0  0  0  0
    0.9400   10.8700   -1.0120 C   0  0  1  0  0  0  0  0  0  0  0  0
    1.5010    9.7110   -0.1470 C   0  0  0  0  0  0  0  0  0  0  0  0
    0.4030    8.9280    0.5660 C   0  0  0  0  0  0  0  0  0  0  0  0
   -0.5920    8.3490   -0.4360 C   0  0  2  0  0  0  0  0  0  0  0  0
    0.0710    7.3550   -1.2230 O   0  0  0  0  0  0  0  0  0  0  0  0
   -1.2170    9.4230   -1.3700 C   0  0  0  0  0  0  0  0  0  0  0  0
   -2.1800   10.3230   -0.5570 C   0  0  0  0  0  0  0  0  0  0  0  0
   -2.0920    8.6900   -2.4230 C   0  0  0  0  0  0  0  0  0  0  0  0
    2.0870   11.7570   -1.6630 C   0  0  1  0  0  0  0  0  0  0  0  0
    3.2490   10.8430   -2.1590 C   0  0  0  0  0  0  0  0  0  0  0  0
    2.7010   12.6950   -0.5570 C   0  0  0  0  0  0  0  0  0  0  0  0
    2.0150   14.0570   -0.3420 C   0  0  0  0  0  0  0  0  0  0  0  0
    1.8050   14.7820   -1.6750 C   0  0  2  0  0  0  0  0  0  0  0  0
    3.2160   15.0660   -2.2930 C   0  0  0  0  0  0  0  0  0  0  0  0
    3.0599   18.8895   -1.9137 H   0  0  0  0  0  0  0  0  0  0  0  0
    2.9817   17.3959   -2.9085 H   0  0  0  0  0  0  0  0  0  0  0  0
    1.6037   18.5482   -2.9085 H   0  0  0  0  0  0  0  0  0  0  0  0
    1.0656   18.0337   -0.6258 H   0  0  0  0  0  0  0  0  0  0  0  0
    2.2946   16.6551    0.8585 H   0  0  0  0  0  0  0  0  0  0  0  0
    3.3854   16.0886   -0.4951 H   0  0  0  0  0  0  0  0  0  0  0  0
    4.8376   17.5851    0.3118 H   0  0  0  0  0  0  0  0  0  0  0  0
    3.7799   18.7913   -0.5332 H   0  0  0  0  0  0  0  0  0  0  0  0
    2.6434   18.0560    1.7115 H   0  0  0  0  0  0  0  0  0  0  0  0
    6.6201   18.9728    3.1574 H   0  0  0  0  0  0  0  0  0  0  0  0
    6.2072   18.1133    1.6351 H   0  0  0  0  0  0  0  0  0  0  0  0
    6.3961   19.8997    1.6351 H   0  0  0  0  0  0  0  0  0  0  0  0
    5.0363   18.9651    4.6007 H   0  0  0  0  0  0  0  0  0  0  0  0
    4.1018   20.4402    4.1796 H   0  0  0  0  0  0  0  0  0  0  0  0
    3.2949   18.8354    4.1796 H   0  0  0  0  0  0  0  0  0  0  0  0
    0.2280   16.0599   -0.8659 H   0  0  0  0  0  0  0  0  0  0  0  0
   -0.5189   16.6318   -3.0908 H   0  0  0  0  0  0  0  0  0  0  0  0
    1.1292   17.0226   -3.6274 H   0  0  0  0  0  0  0  0  0  0  0  0
   -0.3096   14.6414   -4.2795 H   0  0  0  0  0  0  0  0  0  0  0  0
    1.4274   14.8372   -4.4987 H   0  0  0  0  0  0  0  0  0  0  0  0
   -0.5030   13.6695   -0.8747 H   0  0  0  0  0  0  0  0  0  0  0  0
   -1.2482   14.4506   -2.3104 H   0  0  0  0  0  0  0  0  0  0  0  0
   -0.9377   12.6814   -2.3104 H   0  0  0  0  0  0  0  0  0  0  0  0
    2.4717   12.9144   -3.4631 H   0  0  0  0  0  0  0  0  0  0  0  0
    0.2342   12.2982   -4.5806 H   0  0  0  0  0  0  0  0  0  0  0  0
    1.5936   11.0660   -4.4271 H   0  0  0  0  0  0  0  0  0  0  0  0
   -0.8404   10.1842   -3.9397 H   0  0  0  0  0  0  0  0  0  0  0  0
    0.4152   11.5934   -0.3707 H   0  0  0  0  0  0  0  0  0  0  0  0
    2.0584    9.0224   -0.7990 H   0  0  0  0  0  0  0  0  0  0  0  0
    2.1494   10.1534    0.6236 H   0  0  0  0  0  0  0  0  0  0  0  0
    0.8595    8.1056    1.1363 H   0  0  0  0  0  0  0  0  0  0  0  0
   -0.1345    9.6112    1.2400 H   0  0  0  0  0  0  0  0  0  0  0  0
   -1.4217    7.9122    0.1391 H   0  0  0  0  0  0  0  0  0  0  0  0
    0.7070    6.8990   -0.6450 H   0  0  0  0  0  0  0  0  0  0  0  0
   -2.0102   10.1643    0.5182 H   0  0  0  0  0  0  0  0  0  0  0  0
   -1.9936   11.3781   -0.8059 H   0  0  0  0  0  0  0  0  0  0  0  0
   -3.2201   10.0658   -0.8059 H   0  0  0  0  0  0  0  0  0  0  0  0
   -2.8376    8.0654   -1.9093 H   0  0  0  0  0  0  0  0  0  0  0  0
   -2.6058    9.4312   -3.0528 H   0  0  0  0  0  0  0  0  0  0  0  0
   -1.4523    8.0542   -3.0528 H   0  0  0  0  0  0  0  0  0  0  0  0
    3.7815   10.4241   -1.2924 H   0  0  0  0  0  0  0  0  0  0  0  0
    2.8373   10.0241   -2.7672 H   0  0  0  0  0  0  0  0  0  0  0  0
    3.9479   11.4360   -2.7672 H   0  0  0  0  0  0  0  0  0  0  0  0
    2.6660   12.1504    0.3981 H   0  0  0  0  0  0  0  0  0  0  0  0
    3.7133   12.9359   -0.9137 H   0  0  0  0  0  0  0  0  0  0  0  0
    1.0383   13.8962    0.1378 H   0  0  0  0  0  0  0  0  0  0  0  0
    2.6605   14.6777    0.2968 H   0  0  0  0  0  0  0  0  0  0  0  0
    3.9474   15.2132   -1.4847 H   0  0  0  0  0  0  0  0  0  0  0  0
    3.5230   14.2116   -2.9141 H   0  0  0  0  0  0  0  0  0  0  0  0
    3.1685   15.9726   -2.9141 H   0  0  0  0  0  0  0  0  0  0  0  0
  1  2  1  0
  2  3  1  0
  3  4  1  0
  4  5  1  0
  5  6  1  0
  6  7  1  0
  7  8  1  0
  7  9  1  0
  2 10  1  0
 10 11  1  0
 11 12  1  0
 12 13  1  0
 13 14  1  1
 13 15  1  0
 15 16  1  0
 16 17  1  0
 17 18  2  0
 18 19  1  0
 19 20  1  0
 20 21  1  0
 21 22  1  0
 22 23  1  0
 22 24  1  0
 24 25  1  0
 24 26  1  0
 19 27  1  0
 27 28  1  6
 27 29  1  0
 29 30  1  0
 30 31  1  0
 31 32  1  6
  7  5  1  0
 31 10  1  0
 31 13  1  0
 27 15  1  0
 24 18  1  0
  1 33  1  0
  1 34  1  0
  1 35  1  0
  2 36  1  1
  3 37  1  0
  3 38  1  0
  4 39  1  0
  4 40  1  0
  5 41  1  1
  8 42  1  0
  8 43  1  0
  8 44  1  0
  9 45  1  0
  9 46  1  0
  9 47  1  0
 10 48  1  1
 11 49  1  0
 11 50  1  0
 12 51  1  0
 12 52  1  0
 14 53  1  0
 14 54  1  0
 14 55  1  0
 15 56  1  6
 16 57  1  0
 16 58  1  0
 17 59  1  0
 19 60  1  1
 20 61  1  0
 20 62  1  0
 21 63  1  0
 21 64  1  0
 22 65  1  1
 23 66  1  0
 25 67  1  0
 25 68  1  0
 25 69  1  0
 26 70  1  0
 26 71  1  0
 26 72  1  0
 28 73  1  0
 28 74  1  0
 28 75  1  0
 29 76  1  0
 29 77  1  0
 30 78  1  0
 30 79  1  0
 32 80  1  0
 32 81  1  0
 32 82  1  0
M  END
>  <meeko>  (3) 
{"is_sidechain": [false], "intermolecular_energy": 2.731, "internal_energy": -0.839}

$$$$
EPH_relaxed_0001_pdb2pqr_Repair_142_r2_0001_out
     RDKit          3D

 82 86  0  0  0  0  0  0  0  0999 V2000
   -1.6180    8.7080   -1.8950 C   0  0  0  0  0  0  0  0  0  0  0  0
   -2.0360    9.1740   -0.4980 C   0  0  2  0  0  0  0  0  0  0  0  0
   -3.5450    9.4800   -0.4140 C   0  0  0  0  0  0  0  0  0  0  0  0
   -4.4210    8.2290   -0.3090 C   0  0  0  0  0  0  0  0  0  0  0  0
   -5.1520    7.9550   -1.5890 C   0  0  2  0  0  0  0  0  0  0  0  0
   -6.3420    8.7330   -1.7770 O   0  0  0  0  0  0  0  0  0  0  0  0
   -6.5260    7.3140   -1.6470 C   0  0  0  0  0  0  0  0  0  0  0  0
   -7.2500    6.9060   -0.4020 C   0  0  0  0  0  0  0  0  0  0  0  0
   -6.9490    6.6420   -2.9160 C   0  0  0  0  0  0  0  0  0  0  0  0
   -1.2320   10.4060   -0.0990 C   0  0  1  0  0  0  0  0  0  0  0  0
   -0.2800   10.1370    1.0970 C   0  0  0  0  0  0  0  0  0  0  0  0
    0.9920   10.9900    0.8570 C   0  0  0  0  0  0  0  0  0  0  0  0
    0.6000   11.9640   -0.2790 C   0  0  1  0  0  0  0  0  0  0  0  0
   -0.1880   13.1100    0.4310 C   0  0  0  0  0  0  0  0  0  0  0  0
    1.7740   12.5230   -1.1470 C   0  0  2  0  0  0  0  0  0  0  0  0
    2.8040   13.3720   -0.3820 C   0  0  0  0  0  0  0  0  0  0  0  0
    2.5150   14.8360   -0.3350 C   0  0  0  0  0  0  0  0  0  0  0  0
    1.6320   15.4840   -1.1170 C   0  0  0  0  0  0  0  0  0  0  0  0
    0.8850   14.7500   -2.2380 C   0  0  1  0  0  0  0  0  0  0  0  0
    0.9340   15.5980   -3.5360 C   0  0  0  0  0  0  0  0  0  0  0  0
    0.4200   17.0190   -3.3250 C   0  0  0  0  0  0  0  0  0  0  0  0
    1.2260   17.7360   -2.2450 C   0  0  2  0  0  0  0  0  0  0  0  0
    2.5620   17.9300   -2.7190 O   0  0  0  0  0  0  0  0  0  0  0  0
    1.2560   16.9700   -0.8930 C   0  0  0  0  0  0  0  0  0  0  0  0
   -0.1440   17.0230   -0.2330 C   0  0  0  0  0  0  0  0  0  0  0  0
    2.2160   17.7270    0.0640 C   0  0  0  0  0  0  0  0  0  0  0  0
    1.3110   13.2380   -2.4800 C   0  0  1  0  0  0  0  0  0  0  0  0
    2.5210   13.1770   -3.4620 C   0  0  0  0  0  0  0  0  0  0  0  0
    0.1270   12.4780   -3.1870 C   0  0  0  0  0  0  0  0  0  0  0  0
   -0.9380   11.8450   -2.2710 C   0  0  0  0  0  0  0  0  0  0  0  0
   -0.2850   11.0120   -1.1640 C   0  0  2  0  0  0  0  0  0  0  0  0
    0.4970    9.8390   -1.8470 C   0  0  0  0  0  0  0  0  0  0  0  0
   -0.8859    7.8919   -1.8055 H   0  0  0  0  0  0  0  0  0  0  0  0
   -2.5024    8.3489   -2.4417 H   0  0  0  0  0  0  0  0  0  0  0  0
   -1.1653    9.5484   -2.4417 H   0  0  0  0  0  0  0  0  0  0  0  0
   -1.8272    8.3507    0.2010 H   0  0  0  0  0  0  0  0  0  0  0  0
   -3.7239   10.1049    0.4734 H   0  0  0  0  0  0  0  0  0  0  0  0
   -3.8225    9.9896   -1.3485 H   0  0  0  0  0  0  0  0  0  0  0  0
   -3.7823    7.3655   -0.0713 H   0  0  0  0  0  0  0  0  0  0  0  0
   -5.1663    8.3977    0.4822 H   0  0  0  0  0  0  0  0  0  0  0  0
   -4.2087    7.7261   -2.1064 H   0  0  0  0  0  0  0  0  0  0  0  0
   -6.6759    7.2295    0.4787 H   0  0  0  0  0  0  0  0  0  0  0  0
   -8.2440    7.3768   -0.3849 H   0  0  0  0  0  0  0  0  0  0  0  0
   -7.3621    5.8119   -0.3849 H   0  0  0  0  0  0  0  0  0  0  0  0
   -7.5210    5.7334   -2.6767 H   0  0  0  0  0  0  0  0  0  0  0  0
   -7.5785    7.3279   -3.5019 H   0  0  0  0  0  0  0  0  0  0  0  0
   -6.0583    6.3710   -3.5019 H   0  0  0  0  0  0  0  0  0  0  0  0
   -2.0560   11.1034    0.1124 H   0  0  0  0  0  0  0  0  0  0  0  0
   -0.7629   10.4339    2.0397 H   0  0  0  0  0  0  0  0  0  0  0  0
   -0.0306    9.0682    1.1706 H   0  0  0  0  0  0  0  0  0  0  0  0
    1.2651   11.5445    1.7669 H   0  0  0  0  0  0  0  0  0  0  0  0
    1.8645   10.3734    0.5953 H   0  0  0  0  0  0  0  0  0  0  0  0
   -0.1059   12.9905    1.5214 H   0  0  0  0  0  0  0  0  0  0  0  0
    0.2335   14.0823    0.1359 H   0  0  0  0  0  0  0  0  0  0  0  0
   -1.2467   13.0645    0.1359 H   0  0  0  0  0  0  0  0  0  0  0  0
    2.3046   11.6065   -1.4445 H   0  0  0  0  0  0  0  0  0  0  0  0
    2.8490   13.0011    0.6526 H   0  0  0  0  0  0  0  0  0  0  0  0
    3.7522   13.2664   -0.9296 H   0  0  0  0  0  0  0  0  0  0  0  0
    3.0707   15.4356    0.4010 H   0  0  0  0  0  0  0  0  0  0  0  0
   -0.1560   14.6523   -1.8962 H   0  0  0  0  0  0  0  0  0  0  0  0
    1.9757   15.6479   -3.8857 H   0  0  0  0  0  0  0  0  0  0  0  0
    0.2816   15.1130   -4.2770 H   0  0  0  0  0  0  0  0  0  0  0  0
    0.5067   17.5770   -4.2690 H   0  0  0  0  0  0  0  0  0  0  0  0
   -0.6307   16.9681   -3.0033 H   0  0  0  0  0  0  0  0  0  0  0  0
    0.7313   18.6986   -2.0484 H   0  0  0  0  0  0  0  0  0  0  0  0
    2.6570   18.8670   -2.9570 H   0  0  0  0  0  0  0  0  0  0  0  0
   -0.0338   17.0188    0.8615 H   0  0  0  0  0  0  0  0  0  0  0  0
   -0.6623   17.9414   -0.5458 H   0  0  0  0  0  0  0  0  0  0  0  0
   -0.7303   16.1464   -0.5458 H   0  0  0  0  0  0  0  0  0  0  0  0
    1.9407   17.5100    1.1067 H   0  0  0  0  0  0  0  0  0  0  0  0
    3.2498   17.3984   -0.1183 H   0  0  0  0  0  0  0  0  0  0  0  0
    2.1376   18.8089   -0.1183 H   0  0  0  0  0  0  0  0  0  0  0  0
    3.4577   13.1298   -2.8872 H   0  0  0  0  0  0  0  0  0  0  0  0
    2.4342   12.2821   -4.0957 H   0  0  0  0  0  0  0  0  0  0  0  0
    2.5246   14.0761   -4.0957 H   0  0  0  0  0  0  0  0  0  0  0  0
   -0.3842   13.1967   -3.8444 H   0  0  0  0  0  0  0  0  0  0  0  0
    0.5986   11.6315   -3.7075 H   0  0  0  0  0  0  0  0  0  0  0  0
   -1.5392   12.6441   -1.8127 H   0  0  0  0  0  0  0  0  0  0  0  0
   -1.5741   11.1840   -2.8780 H   0  0  0  0  0  0  0  0  0  0  0  0
    0.9309    9.1882   -1.0735 H   0  0  0  0  0  0  0  0  0  0  0  0
   -0.1927    9.2544   -2.4735 H   0  0  0  0  0  0  0  0  0  0  0  0
    1.3019   10.2508   -2.4735 H   0  0  0  0  0  0  0  0  0  0  0  0
  1  2  1  0
  2  3  1  0
  3  4  1  0
  4  5  1  0
  5  6  1  0
  6  7  1  0
  7  8  1  0
  7  9  1  0
  2 10  1  0
 10 11  1  0
 11 12  1  0
 12 13  1  0
 13 14  1  1
 13 15  1  0
 15 16  1  0
 16 17  1  0
 17 18  2  0
 18 19  1  0
 19 20  1  0
 20 21  1  0
 21 22  1  0
 22 23  1  0
 22 24  1  0
 24 25  1  0
 24 26  1  0
 19 27  1  0
 27 28  1  6
 27 29  1  0
 29 30  1  0
 30 31  1  0
 31 32  1  6
  7  5  1  0
 31 10  1  0
 31 13  1  0
 27 15  1  0
 24 18  1  0
  1 33  1  0
  1 34  1  0
  1 35  1  0
  2 36  1  1
  3 37  1  0
  3 38  1  0
  4 39  1  0
  4 40  1  0
  5 41  1  6
  8 42  1  0
  8 43  1  0
  8 44  1  0
  9 45  1  0
  9 46  1  0
  9 47  1  0
 10 48  1  1
 11 49  1  0
 11 50  1  0
 12 51  1  0
 12 52  1  0
 14 53  1  0
 14 54  1  0
 14 55  1  0
 15 56  1  6
 16 57  1  0
 16 58  1  0
 17 59  1  0
 19 60  1  1
 20 61  1  0
 20 62  1  0
 21 63  1  0
 21 64  1  0
 22 65  1  1
 23 66  1  0
 25 67  1  0
 25 68  1  0
 25 69  1  0
 26 70  1  0
 26 71  1  0
 26 72  1  0
 28 73  1  0
 28 74  1  0
 28 75  1  0
 29 76  1  0
 29 77  1  0
 30 78  1  0
 30 79  1  0
 32 80  1  0
 32 81  1  0
 32 82  1  0
M  END
>  <meeko>  (4) 
{"is_sidechain": [false], "intermolecular_energy": 2.731, "internal_energy": -0.839}

$$$$
EPH_relaxed_0001_pdb2pqr_Repair_142_r2_0001_out
     RDKit          3D

 82 86  0  0  0  0  0  0  0  0999 V2000
   -0.6510    7.8910   -0.4480 C   0  0  0  0  0  0  0  0  0  0  0  0
   -1.0900    9.2700    0.0540 C   0  0  2  0  0  0  0  0  0  0  0  0
   -2.3390    9.7880   -0.6880 C   0  0  0  0  0  0  0  0  0  0  0  0
   -3.6600    9.3240   -0.0680 C   0  0  0  0  0  0  0  0  0  0  0  0
   -4.0490    7.9590   -0.5490 C   0  0  2  0  0  0  0  0  0  0  0  0
   -4.1660    7.8370   -1.9730 O   0  0  0  0  0  0  0  0  0  0  0  0
   -5.3760    7.6560   -1.2190 C   0  0  0  0  0  0  0  0  0  0  0  0
   -6.3990    8.7240   -1.4440 C   0  0  0  0  0  0  0  0  0  0  0  0
   -5.8750    6.2440   -1.2110 C   0  0  0  0  0  0  0  0  0  0  0  0
    0.0540   10.2650   -0.0940 C   0  0  1  0  0  0  0  0  0  0  0  0
    1.4470    9.5810   -0.0780 C   0  0  0  0  0  0  0  0  0  0  0  0
    2.3510   10.3840   -1.0490 C   0  0  0  0  0  0  0  0  0  0  0  0
    1.5620   11.6830   -1.3320 C   0  0  1  0  0  0  0  0  0  0  0  0
    1.8480   12.6030   -0.1040 C   0  0  0  0  0  0  0  0  0  0  0  0
    1.8810   12.4060   -2.6810 C   0  0  2  0  0  0  0  0  0  0  0  0
    3.3280   12.9110   -2.8240 C   0  0  0  0  0  0  0  0  0  0  0  0
    3.5670   14.3050   -2.3450 C   0  0  0  0  0  0  0  0  0  0  0  0
    2.6120   15.2170   -2.0860 C   0  0  0  0  0  0  0  0  0  0  0  0
    1.1350   14.9130   -2.3660 C   0  0  1  0  0  0  0  0  0  0  0  0
    0.4890   16.1150   -3.1040 C   0  0  0  0  0  0  0  0  0  0  0  0
    0.6820   17.4320   -2.3590 C   0  0  0  0  0  0  0  0  0  0  0  0
    2.1650   17.7280   -2.1510 C   0  0  2  0  0  0  0  0  0  0  0  0
    2.7690   17.9730   -3.4250 O   0  0  0  0  0  0  0  0  0  0  0  0
    2.9230   16.5820   -1.4240 C   0  0  0  0  0  0  0  0  0  0  0  0
    2.4740   16.5190    0.0570 C   0  0  0  0  0  0  0  0  0  0  0  0
    4.4330   16.9460   -1.4050 C   0  0  0  0  0  0  0  0  0  0  0  0
    0.8360   13.5250   -3.0810 C   0  0  1  0  0  0  0  0  0  0  0  0
    0.9330   13.6920   -4.6280 C   0  0  0  0  0  0  0  0  0  0  0  0
   -0.6470   13.0960   -2.7720 C   0  0  0  0  0  0  0  0  0  0  0  0
   -0.8810   12.2820   -1.4850 C   0  0  0  0  0  0  0  0  0  0  0  0
    0.1000   11.1090   -1.3930 C   0  0  2  0  0  0  0  0  0  0  0  0
   -0.1800   10.1550   -2.6040 C   0  0  0  0  0  0  0  0  0  0  0  0
   -0.4428    7.2370    0.4117 H   0  0  0  0  0  0  0  0  0  0  0  0
   -1.4533    7.4504   -1.0581 H   0  0  0  0  0  0  0  0  0  0  0  0
    0.2584    7.9953   -1.0581 H   0  0  0  0  0  0  0  0  0  0  0  0
   -1.3570    9.1660    1.1160 H   0  0  0  0  0  0  0  0  0  0  0  0
   -2.3179   10.8877   -0.6776 H   0  0  0  0  0  0  0  0  0  0  0  0
   -2.3006    9.3770   -1.7076 H   0  0  0  0  0  0  0  0  0  0  0  0
   -3.5507    9.2986    1.0263 H   0  0  0  0  0  0  0  0  0  0  0  0
   -4.4471   10.0309   -0.3693 H   0  0  0  0  0  0  0  0  0  0  0  0
   -3.5224    7.4858    0.2928 H   0  0  0  0  0  0  0  0  0  0  0  0
   -6.7576    9.0984   -0.4739 H   0  0  0  0  0  0  0  0  0  0  0  0
   -5.9472    9.5507   -2.0118 H   0  0  0  0  0  0  0  0  0  0  0  0
   -7.2444    8.3082   -2.0118 H   0  0  0  0  0  0  0  0  0  0  0  0
   -5.9953    5.9035   -0.1720 H   0  0  0  0  0  0  0  0  0  0  0  0
   -6.8449    6.1949   -1.7276 H   0  0  0  0  0  0  0  0  0  0  0  0
   -5.1513    5.5964   -1.7276 H   0  0  0  0  0  0  0  0  0  0  0  0
   -0.1543   10.9140    0.7694 H   0  0  0  0  0  0  0  0  0  0  0  0
    1.8684    9.6035    0.9378 H   0  0  0  0  0  0  0  0  0  0  0  0
    1.3734    8.5278   -0.3868 H   0  0  0  0  0  0  0  0  0  0  0  0
    3.3191   10.6122   -0.5792 H   0  0  0  0  0  0  0  0  0  0  0  0
    2.5763    9.8240   -1.9686 H   0  0  0  0  0  0  0  0  0  0  0  0
    1.6730   12.0400    0.8246 H   0  0  0  0  0  0  0  0  0  0  0  0
    2.8940   12.9421   -0.1356 H   0  0  0  0  0  0  0  0  0  0  0  0
    1.1786   13.4753   -0.1356 H   0  0  0  0  0  0  0  0  0  0  0  0
    1.7737   11.5935   -3.4147 H   0  0  0  0  0  0  0  0  0  0  0  0
    3.9814   12.2376   -2.2499 H   0  0  0  0  0  0  0  0  0  0  0  0
    3.5425   12.9188   -3.9029 H   0  0  0  0  0  0  0  0  0  0  0  0
    4.6119   14.6123   -2.1909 H   0  0  0  0  0  0  0  0  0  0  0  0
    0.6604   14.7808   -1.3825 H   0  0  0  0  0  0  0  0  0  0  0  0
    0.9460   16.2036   -4.1007 H   0  0  0  0  0  0  0  0  0  0  0  0
   -0.5923   15.9242   -3.1695 H   0  0  0  0  0  0  0  0  0  0  0  0
    0.2309   18.2465   -2.9447 H   0  0  0  0  0  0  0  0  0  0  0  0
    0.1980   17.3530   -1.3744 H   0  0  0  0  0  0  0  0  0  0  0  0
    2.2369   18.6123   -1.5007 H   0  0  0  0  0  0  0  0  0  0  0  0
    2.2360   18.6470   -3.8790 H   0  0  0  0  0  0  0  0  0  0  0  0
    3.3497   16.6419    0.7112 H   0  0  0  0  0  0  0  0  0  0  0  0
    1.7519   17.3246    0.2558 H   0  0  0  0  0  0  0  0  0  0  0  0
    2.0015   15.5458    0.2558 H   0  0  0  0  0  0  0  0  0  0  0  0
    4.7771   17.0289   -0.3635 H   0  0  0  0  0  0  0  0  0  0  0  0
    5.0061   16.1603   -1.9190 H   0  0  0  0  0  0  0  0  0  0  0  0
    4.5851   17.9065   -1.9190 H   0  0  0  0  0  0  0  0  0  0  0  0
    1.4727   14.6212   -4.8634 H   0  0  0  0  0  0  0  0  0  0  0  0
    1.4740   12.8352   -5.0561 H   0  0  0  0  0  0  0  0  0  0  0  0
   -0.0793   13.7374   -5.0561 H   0  0  0  0  0  0  0  0  0  0  0  0
   -1.2505   14.0128   -2.7002 H   0  0  0  0  0  0  0  0  0  0  0  0
   -0.9288   12.4217   -3.5942 H   0  0  0  0  0  0  0  0  0  0  0  0
   -0.7402   12.9382   -0.6135 H   0  0  0  0  0  0  0  0  0  0  0  0
   -1.9056   11.8821   -1.5040 H   0  0  0  0  0  0  0  0  0  0  0  0
   -0.4713    9.1626   -2.2293 H   0  0  0  0  0  0  0  0  0  0  0  0
   -0.9945   10.5692   -3.2164 H   0  0  0  0  0  0  0  0  0  0  0  0
    0.7291   10.0634   -3.2164 H   0  0  0  0  0  0  0  0  0  0  0  0
  1  2  1  0
  2  3  1  0
  3  4  1  0
  4  5  1  0
  5  6  1  0
  6  7  1  0
  7  8  1  0
  7  9  1  0
  2 10  1  0
 10 11  1  0
 11 12  1  0
 12 13  1  0
 13 14  1  1
 13 15  1  0
 15 16  1  0
 16 17  1  0
 17 18  2  0
 18 19  1  0
 19 20  1  0
 20 21  1  0
 21 22  1  0
 22 23  1  0
 22 24  1  0
 24 25  1  0
 24 26  1  0
 19 27  1  0
 27 28  1  6
 27 29  1  0
 29 30  1  0
 30 31  1  0
 31 32  1  6
  7  5  1  0
 31 10  1  0
 31 13  1  0
 27 15  1  0
 24 18  1  0
  1 33  1  0
  1 34  1  0
  1 35  1  0
  2 36  1  1
  3 37  1  0
  3 38  1  0
  4 39  1  0
  4 40  1  0
  5 41  1  1
  8 42  1  0
  8 43  1  0
  8 44  1  0
  9 45  1  0
  9 46  1  0
  9 47  1  0
 10 48  1  1
 11 49  1  0
 11 50  1  0
 12 51  1  0
 12 52  1  0
 14 53  1  0
 14 54  1  0
 14 55  1  0
 15 56  1  6
 16 57  1  0
 16 58  1  0
 17 59  1  0
 19 60  1  1
 20 61  1  0
 20 62  1  0
 21 63  1  0
 21 64  1  0
 22 65  1  1
 23 66  1  0
 25 67  1  0
 25 68  1  0
 25 69  1  0
 26 70  1  0
 26 71  1  0
 26 72  1  0
 28 73  1  0
 28 74  1  0
 28 75  1  0
 29 76  1  0
 29 77  1  0
 30 78  1  0
 30 79  1  0
 32 80  1  0
 32 81  1  0
 32 82  1  0
M  END
>  <meeko>  (5) 
{"is_sidechain": [false], "intermolecular_energy": 2.731, "internal_energy": -0.839}

$$$$
EPH_relaxed_0001_pdb2pqr_Repair_142_r2_0001_out
     RDKit          3D

 82 86  0  0  0  0  0  0  0  0999 V2000
    3.6800   17.9290   -1.4110 C   0  0  0  0  0  0  0  0  0  0  0  0
    2.6430   17.4600   -2.4350 C   0  0  2  0  0  0  0  0  0  0  0  0
    1.2240   17.9610   -2.0950 C   0  0  0  0  0  0  0  0  0  0  0  0
    1.1630   18.8270   -0.8340 C   0  0  0  0  0  0  0  0  0  0  0  0
   -0.0750   19.6700   -0.8000 C   0  0  2  0  0  0  0  0  0  0  0  0
   -0.4100   20.1910    0.4930 O   0  0  0  0  0  0  0  0  0  0  0  0
   -1.3460   19.2620   -0.0780 C   0  0  0  0  0  0  0  0  0  0  0  0
   -1.4410   17.9640    0.6590 C   0  0  0  0  0  0  0  0  0  0  0  0
   -2.6390   19.8890   -0.4960 C   0  0  0  0  0  0  0  0  0  0  0  0
    2.6500   15.9390   -2.5230 C   0  0  1  0  0  0  0  0  0  0  0  0
    4.0780   15.3580   -2.7030 C   0  0  0  0  0  0  0  0  0  0  0  0
    4.1150   14.0130   -1.9330 C   0  0  0  0  0  0  0  0  0  0  0  0
    2.6320   13.7030   -1.6190 C   0  0  1  0  0  0  0  0  0  0  0  0
    2.0660   13.0800   -2.9320 C   0  0  0  0  0  0  0  0  0  0  0  0
    2.3660   12.7850   -0.3820 C   0  0  2  0  0  0  0  0  0  0  0  0
    2.9410   11.3620   -0.4900 C   0  0  0  0  0  0  0  0  0  0  0  0
    2.0230   10.3470   -1.0880 C   0  0  0  0  0  0  0  0  0  0  0  0
    0.6960   10.4970   -1.2590 C   0  0  0  0  0  0  0  0  0  0  0  0
   -0.0280   11.7460   -0.7420 C   0  0  1  0  0  0  0  0  0  0  0  0
   -1.3200   11.3230    0.0060 C   0  0  0  0  0  0  0  0  0  0  0  0
   -2.2230   10.4340   -0.8430 C   0  0  0  0  0  0  0  0  0  0  0  0
   -1.4850    9.1740   -1.2890 C   0  0  2  0  0  0  0  0  0  0  0  0
   -1.2090    8.3700   -0.1380 O   0  0  0  0  0  0  0  0  0  0  0  0
   -0.1610    9.4750   -2.0460 C   0  0  0  0  0  0  0  0  0  0  0  0
   -0.4820   10.0790   -3.4360 C   0  0  0  0  0  0  0  0  0  0  0  0
    0.5530    8.1230   -2.3140 C   0  0  0  0  0  0  0  0  0  0  0  0
    0.8570   12.7640    0.0970 C   0  0  1  0  0  0  0  0  0  0  0  0
    0.8730   12.3440    1.5990 C   0  0  0  0  0  0  0  0  0  0  0  0
    0.1930   14.1900    0.0420 C   0  0  0  0  0  0  0  0  0  0  0  0
    0.5880   15.0960   -1.1400 C   0  0  0  0  0  0  0  0  0  0  0  0
    2.1100   15.1520   -1.3030 C   0  0  2  0  0  0  0  0  0  0  0  0
    2.7060   15.7960   -0.0050 C   0  0  0  0  0  0  0  0  0  0  0  0
    3.2963   17.7555   -0.3948 H   0  0  0  0  0  0  0  0  0  0  0  0
    4.6145   17.3659   -1.5512 H   0  0  0  0  0  0  0  0  0  0  0  0
    3.8743   19.0026   -1.5512 H   0  0  0  0  0  0  0  0  0  0  0  0
    2.9214   17.8899   -3.4085 H   0  0  0  0  0  0  0  0  0  0  0  0
    0.8531   18.5556   -2.9429 H   0  0  0  0  0  0  0  0  0  0  0  0
    0.6060   17.0713   -1.9042 H   0  0  0  0  0  0  0  0  0  0  0  0
    1.1723   18.1716    0.0494 H   0  0  0  0  0  0  0  0  0  0  0  0
    2.0347   19.4979   -0.8363 H   0  0  0  0  0  0  0  0  0  0  0  0
    0.1102   20.0241   -1.8249 H   0  0  0  0  0  0  0  0  0  0  0  0
   -1.4270   18.1555    1.7421 H   0  0  0  0  0  0  0  0  0  0  0  0
   -2.3787   17.4565    0.3885 H   0  0  0  0  0  0  0  0  0  0  0  0
   -0.5872   17.3254    0.3885 H   0  0  0  0  0  0  0  0  0  0  0  0
   -3.2164   20.1690    0.3974 H   0  0  0  0  0  0  0  0  0  0  0  0
   -2.4336   20.7876   -1.0963 H   0  0  0  0  0  0  0  0  0  0  0  0
   -3.2174   19.1713   -1.0963 H   0  0  0  0  0  0  0  0  0  0  0  0
    1.9803   15.8020   -3.3848 H   0  0  0  0  0  0  0  0  0  0  0  0
    4.2865   15.1894   -3.7698 H   0  0  0  0  0  0  0  0  0  0  0  0
    4.8384   16.0537   -2.3186 H   0  0  0  0  0  0  0  0  0  0  0  0
    4.5539   13.2203   -2.5567 H   0  0  0  0  0  0  0  0  0  0  0  0
    4.7313   14.0694   -1.0236 H   0  0  0  0  0  0  0  0  0  0  0  0
    1.3458   12.2873   -2.6810 H   0  0  0  0  0  0  0  0  0  0  0  0
    1.5617   13.8606   -3.5205 H   0  0  0  0  0  0  0  0  0  0  0  0
    2.8912   12.6527   -3.5205 H   0  0  0  0  0  0  0  0  0  0  0  0
    2.9456   13.2821    0.4098 H   0  0  0  0  0  0  0  0  0  0  0  0
    3.8478   11.4080   -1.1110 H   0  0  0  0  0  0  0  0  0  0  0  0
    3.1302   11.0310    0.5418 H   0  0  0  0  0  0  0  0  0  0  0  0
    2.4687    9.3965   -1.4165 H   0  0  0  0  0  0  0  0  0  0  0  0
   -0.2882   12.3366   -1.6328 H   0  0  0  0  0  0  0  0  0  0  0  0
   -1.0368   10.7722    0.9151 H   0  0  0  0  0  0  0  0  0  0  0  0
   -1.8819   12.2379    0.2454 H   0  0  0  0  0  0  0  0  0  0  0  0
   -3.1035   10.1448   -0.2504 H   0  0  0  0  0  0  0  0  0  0  0  0
   -2.5291   10.9966   -1.7373 H   0  0  0  0  0  0  0  0  0  0  0  0
   -2.1374    8.6428   -1.9976 H   0  0  0  0  0  0  0  0  0  0  0  0
   -1.2070    8.9570    0.6370 H   0  0  0  0  0  0  0  0  0  0  0  0
   -0.9947   11.0437   -3.3071 H   0  0  0  0  0  0  0  0  0  0  0  0
    0.4535   10.2326   -3.9939 H   0  0  0  0  0  0  0  0  0  0  0  0
   -1.1327    9.3896   -3.9939 H   0  0  0  0  0  0  0  0  0  0  0  0
    0.8053    7.6453   -1.3558 H   0  0  0  0  0  0  0  0  0  0  0  0
   -0.1143    7.4634   -2.8881 H   0  0  0  0  0  0  0  0  0  0  0  0
    1.4740    8.3022   -2.8881 H   0  0  0  0  0  0  0  0  0  0  0  0
    0.8387   13.2433    2.2316 H   0  0  0  0  0  0  0  0  0  0  0  0
   -0.0017   11.7121    1.8124 H   0  0  0  0  0  0  0  0  0  0  0  0
    1.7933   11.7805    1.8124 H   0  0  0  0  0  0  0  0  0  0  0  0
   -0.8971   14.0480    0.0025 H   0  0  0  0  0  0  0  0  0  0  0  0
    0.5582   14.7119    0.9388 H   0  0  0  0  0  0  0  0  0  0  0  0
    0.1416   14.6981   -2.0633 H   0  0  0  0  0  0  0  0  0  0  0  0
    0.2189   16.1129   -0.9411 H   0  0  0  0  0  0  0  0  0  0  0  0
    2.2619   15.3161    0.8796 H   0  0  0  0  0  0  0  0  0  0  0  0
    3.7964   15.6520    0.0084 H   0  0  0  0  0  0  0  0  0  0  0  0
    2.4781   16.8720    0.0084 H   0  0  0  0  0  0  0  0  0  0  0  0
  1  2  1  0
  2  3  1  0
  3  4  1  0
  4  5  1  0
  5  6  1  0
  6  7  1  0
  7  8  1  0
  7  9  1  0
  2 10  1  0
 10 11  1  0
 11 12  1  0
 12 13  1  0
 13 14  1  6
 13 15  1  0
 15 16  1  0
 16 17  1  0
 17 18  2  0
 18 19  1  0
 19 20  1  0
 20 21  1  0
 21 22  1  0
 22 23  1  0
 22 24  1  0
 24 25  1  0
 24 26  1  0
 19 27  1  0
 27 28  1  1
 27 29  1  0
 29 30  1  0
 30 31  1  0
 31 32  1  1
  7  5  1  0
 31 10  1  0
 31 13  1  0
 27 15  1  0
 24 18  1  0
  1 33  1  0
  1 34  1  0
  1 35  1  0
  2 36  1  6
  3 37  1  0
  3 38  1  0
  4 39  1  0
  4 40  1  0
  5 41  1  6
  8 42  1  0
  8 43  1  0
  8 44  1  0
  9 45  1  0
  9 46  1  0
  9 47  1  0
 10 48  1  6
 11 49  1  0
 11 50  1  0
 12 51  1  0
 12 52  1  0
 14 53  1  0
 14 54  1  0
 14 55  1  0
 15 56  1  1
 16 57  1  0
 16 58  1  0
 17 59  1  0
 19 60  1  6
 20 61  1  0
 20 62  1  0
 21 63  1  0
 21 64  1  0
 22 65  1  6
 23 66  1  0
 25 67  1  0
 25 68  1  0
 25 69  1  0
 26 70  1  0
 26 71  1  0
 26 72  1  0
 28 73  1  0
 28 74  1  0
 28 75  1  0
 29 76  1  0
 29 77  1  0
 30 78  1  0
 30 79  1  0
 32 80  1  0
 32 81  1  0
 32 82  1  0
M  END
>  <meeko>  (6) 
{"is_sidechain": [false], "intermolecular_energy": 2.731, "internal_energy": -0.839}

$$$$
EPH_relaxed_0001_pdb2pqr_Repair_142_r2_0001_out
     RDKit          3D

 82 86  0  0  0  0  0  0  0  0999 V2000
   -2.6070    7.6000   -3.0540 C   0  0  0  0  0  0  0  0  0  0  0  0
   -2.8900    7.8560   -1.5710 C   0  0  2  0  0  0  0  0  0  0  0  0
   -4.3970    7.8080   -1.2500 C   0  0  0  0  0  0  0  0  0  0  0  0
   -5.1230    6.6170   -1.8810 C   0  0  0  0  0  0  0  0  0  0  0  0
   -6.3200    7.0530   -2.6710 C   0  0  2  0  0  0  0  0  0  0  0  0
   -6.8840    8.3060   -2.2610 O   0  0  0  0  0  0  0  0  0  0  0  0
   -7.7180    7.1480   -2.0890 C   0  0  0  0  0  0  0  0  0  0  0  0
   -7.9920    6.8030   -0.6580 C   0  0  0  0  0  0  0  0  0  0  0  0
   -8.8870    7.1030   -3.0230 C   0  0  0  0  0  0  0  0  0  0  0  0
   -2.3110    9.2040   -1.1580 C   0  0  1  0  0  0  0  0  0  0  0  0
   -2.8290    9.6770    0.2270 C   0  0  0  0  0  0  0  0  0  0  0  0
   -1.6600   10.4340    0.9070 C   0  0  0  0  0  0  0  0  0  0  0  0
   -0.6310   10.6600   -0.2250 C   0  0  1  0  0  0  0  0  0  0  0  0
   -1.1540   11.9100   -1.0000 C   0  0  0  0  0  0  0  0  0  0  0  0
    0.8580   10.8390    0.2200 C   0  0  2  0  0  0  0  0  0  0  0  0
    1.1300   12.0670    1.1070 C   0  0  0  0  0  0  0  0  0  0  0  0
    1.4930   13.3150    0.3730 C   0  0  0  0  0  0  0  0  0  0  0  0
    1.8740   13.3820   -0.9160 C   0  0  0  0  0  0  0  0  0  0  0  0
    2.0640   12.1080   -1.7480 C   0  0  1  0  0  0  0  0  0  0  0  0
    3.4020   12.1940   -2.5290 C   0  0  0  0  0  0  0  0  0  0  0  0
    3.5070   13.4620   -3.3720 C   0  0  0  0  0  0  0  0  0  0  0  0
    3.3710   14.7080   -2.5010 C   0  0  2  0  0  0  0  0  0  0  0  0
    4.5050   14.7890   -1.6310 O   0  0  0  0  0  0  0  0  0  0  0  0
    2.0640   14.7280   -1.6590 C   0  0  0  0  0  0  0  0  0  0  0  0
    0.8470   14.9440   -2.5920 C   0  0  0  0  0  0  0  0  0  0  0  0
    2.1190   15.9650   -0.7220 C   0  0  0  0  0  0  0  0  0  0  0  0
    1.9050   10.7360   -0.9620 C   0  0  1  0  0  0  0  0  0  0  0  0
    3.2650   10.3300   -0.3170 C   0  0  0  0  0  0  0  0  0  0  0  0
    1.5410    9.5960   -1.9850 C   0  0  0  0  0  0  0  0  0  0  0  0
    0.0450    9.3900   -2.2930 C   0  0  0  0  0  0  0  0  0  0  0  0
   -0.7730    9.3010   -1.0010 C   0  0  2  0  0  0  0  0  0  0  0  0
   -0.2830    8.0400   -0.2100 C   0  0  0  0  0  0  0  0  0  0  0  0
   -1.7944    6.8649   -3.1506 H   0  0  0  0  0  0  0  0  0  0  0  0
   -3.5142    7.2095   -3.5383 H   0  0  0  0  0  0  0  0  0  0  0  0
   -2.3091    8.5417   -3.5383 H   0  0  0  0  0  0  0  0  0  0  0  0
   -2.4060    7.0517   -0.9975 H   0  0  0  0  0  0  0  0  0  0  0  0
   -4.5178    7.7496   -0.1582 H   0  0  0  0  0  0  0  0  0  0  0  0
   -4.8451    8.7189   -1.6737 H   0  0  0  0  0  0  0  0  0  0  0  0
   -4.4274    6.0890   -2.5498 H   0  0  0  0  0  0  0  0  0  0  0  0
   -5.4681    5.9574   -1.0712 H   0  0  0  0  0  0  0  0  0  0  0  0
   -5.9296    6.5647   -3.5761 H   0  0  0  0  0  0  0  0  0  0  0  0
   -7.4427    7.4947   -0.0024 H   0  0  0  0  0  0  0  0  0  0  0  0
   -9.0706    6.8890   -0.4601 H   0  0  0  0  0  0  0  0  0  0  0  0
   -7.6640    5.7719   -0.4601 H   0  0  0  0  0  0  0  0  0  0  0  0
   -9.8199    7.0671   -2.4413 H   0  0  0  0  0  0  0  0  0  0  0  0
   -8.8846    8.0019   -3.6570 H   0  0  0  0  0  0  0  0  0  0  0  0
   -8.8155    6.2069   -3.6570 H   0  0  0  0  0  0  0  0  0  0  0  0
   -2.6409    9.8148   -2.0113 H   0  0  0  0  0  0  0  0  0  0  0  0
   -3.6916   10.3477    0.0999 H   0  0  0  0  0  0  0  0  0  0  0  0
   -3.1558    8.8234    0.8390 H   0  0  0  0  0  0  0  0  0  0  0  0
   -2.0052   11.3952    1.3156 H   0  0  0  0  0  0  0  0  0  0  0  0
   -1.2345    9.8723    1.7517 H   0  0  0  0  0  0  0  0  0  0  0  0
   -1.4756   12.6786   -0.2818 H   0  0  0  0  0  0  0  0  0  0  0  0
   -0.3489   12.3128   -1.6322 H   0  0  0  0  0  0  0  0  0  0  0  0
   -2.0060   11.6195   -1.6322 H   0  0  0  0  0  0  0  0  0  0  0  0
    1.0188    9.9626    0.8650 H   0  0  0  0  0  0  0  0  0  0  0  0
    0.2224   12.2698    1.6945 H   0  0  0  0  0  0  0  0  0  0  0  0
    2.0047   11.8103    1.7227 H   0  0  0  0  0  0  0  0  0  0  0  0
    1.4450   14.2604    0.9333 H   0  0  0  0  0  0  0  0  0  0  0  0
    1.2205   12.0777   -2.4534 H   0  0  0  0  0  0  0  0  0  0  0  0
    4.2327   12.1801   -1.8080 H   0  0  0  0  0  0  0  0  0  0  0  0
    3.4453   11.3337   -3.2131 H   0  0  0  0  0  0  0  0  0  0  0  0
    4.4847   13.4797   -3.8757 H   0  0  0  0  0  0  0  0  0  0  0  0
    2.6934   13.4602   -4.1123 H   0  0  0  0  0  0  0  0  0  0  0  0
    3.3237   15.5768   -3.1740 H   0  0  0  0  0  0  0  0  0  0  0  0
    4.2760   14.3290   -0.8060 H   0  0  0  0  0  0  0  0  0  0  0  0
   -0.0563   15.1043   -1.9852 H   0  0  0  0  0  0  0  0  0  0  0  0
    1.0234   15.8249   -3.2268 H   0  0  0  0  0  0  0  0  0  0  0  0
    0.7095   14.0562   -3.2268 H   0  0  0  0  0  0  0  0  0  0  0  0
    2.1042   15.6319    0.3262 H   0  0  0  0  0  0  0  0  0  0  0  0
    3.0431   16.5298   -0.9142 H   0  0  0  0  0  0  0  0  0  0  0  0
    1.2486   16.6096   -0.9142 H   0  0  0  0  0  0  0  0  0  0  0  0
    3.1737   10.3573    0.7789 H   0  0  0  0  0  0  0  0  0  0  0  0
    3.5335    9.3125   -0.6374 H   0  0  0  0  0  0  0  0  0  0  0  0
    4.0474   11.0338   -0.6374 H   0  0  0  0  0  0  0  0  0  0  0  0
    2.0474    9.8263   -2.9339 H   0  0  0  0  0  0  0  0  0  0  0  0
    1.8668    8.6623   -1.5032 H   0  0  0  0  0  0  0  0  0  0  0  0
   -0.3192   10.2377   -2.8920 H   0  0  0  0  0  0  0  0  0  0  0  0
   -0.0725    8.4478   -2.8484 H   0  0  0  0  0  0  0  0  0  0  0  0
   -0.3580    8.2329    0.8704 H   0  0  0  0  0  0  0  0  0  0  0  0
   -0.9107    7.1757   -0.4726 H   0  0  0  0  0  0  0  0  0  0  0  0
    0.7636    7.8263   -0.4726 H   0  0  0  0  0  0  0  0  0  0  0  0
  1  2  1  0
  2  3  1  0
  3  4  1  0
  4  5  1  0
  5  6  1  0
  6  7  1  0
  7  8  1  0
  7  9  1  0
  2 10  1  0
 10 11  1  0
 11 12  1  0
 12 13  1  0
 13 14  1  6
 13 15  1  0
 15 16  1  0
 16 17  1  0
 17 18  2  0
 18 19  1  0
 19 20  1  0
 20 21  1  0
 21 22  1  0
 22 23  1  0
 22 24  1  0
 24 25  1  0
 24 26  1  0
 19 27  1  0
 27 28  1  1
 27 29  1  0
 29 30  1  0
 30 31  1  0
 31 32  1  1
  7  5  1  0
 31 10  1  0
 31 13  1  0
 27 15  1  0
 24 18  1  0
  1 33  1  0
  1 34  1  0
  1 35  1  0
  2 36  1  1
  3 37  1  0
  3 38  1  0
  4 39  1  0
  4 40  1  0
  5 41  1  6
  8 42  1  0
  8 43  1  0
  8 44  1  0
  9 45  1  0
  9 46  1  0
  9 47  1  0
 10 48  1  6
 11 49  1  0
 11 50  1  0
 12 51  1  0
 12 52  1  0
 14 53  1  0
 14 54  1  0
 14 55  1  0
 15 56  1  1
 16 57  1  0
 16 58  1  0
 17 59  1  0
 19 60  1  6
 20 61  1  0
 20 62  1  0
 21 63  1  0
 21 64  1  0
 22 65  1  6
 23 66  1  0
 25 67  1  0
 25 68  1  0
 25 69  1  0
 26 70  1  0
 26 71  1  0
 26 72  1  0
 28 73  1  0
 28 74  1  0
 28 75  1  0
 29 76  1  0
 29 77  1  0
 30 78  1  0
 30 79  1  0
 32 80  1  0
 32 81  1  0
 32 82  1  0
M  END
>  <meeko>  (7) 
{"is_sidechain": [false], "intermolecular_energy": 2.731, "internal_energy": -0.839}

$$$$
EPH_relaxed_0001_pdb2pqr_Repair_142_r2_0001_out
     RDKit          3D

 82 86  0  0  0  0  0  0  0  0999 V2000
    3.4260   18.4450    0.2660 C   0  0  0  0  0  0  0  0  0  0  0  0
    3.6480   17.1920   -0.5850 C   0  0  2  0  0  0  0  0  0  0  0  0
    3.8970   17.5340   -2.0680 C   0  0  0  0  0  0  0  0  0  0  0  0
    5.3120   17.2000   -2.5480 C   0  0  0  0  0  0  0  0  0  0  0  0
    5.3780   15.8380   -3.1720 C   0  0  2  0  0  0  0  0  0  0  0  0
    6.4280   15.0010   -2.6700 O   0  0  0  0  0  0  0  0  0  0  0  0
    6.5240   15.3780   -4.0540 C   0  0  0  0  0  0  0  0  0  0  0  0
    7.6820   16.2750   -4.3620 C   0  0  0  0  0  0  0  0  0  0  0  0
    6.2850   14.2460   -5.0040 C   0  0  0  0  0  0  0  0  0  0  0  0
    2.4500   16.2590   -0.4600 C   0  0  1  0  0  0  0  0  0  0  0  0
    1.0980   17.0220   -0.4400 C   0  0  0  0  0  0  0  0  0  0  0  0
    0.0680   16.1250   -1.1750 C   0  0  0  0  0  0  0  0  0  0  0  0
    0.7660   14.7500   -1.2980 C   0  0  1  0  0  0  0  0  0  0  0  0
    0.5570   14.0690    0.0900 C   0  0  0  0  0  0  0  0  0  0  0  0
    0.2840   13.8340   -2.4690 C   0  0  2  0  0  0  0  0  0  0  0  0
   -1.1920   13.4030   -2.3960 C   0  0  0  0  0  0  0  0  0  0  0  0
   -1.4480   12.1270   -1.6650 C   0  0  0  0  0  0  0  0  0  0  0  0
   -0.5160   11.2120   -1.3370 C   0  0  0  0  0  0  0  0  0  0  0  0
    0.9400   11.3730   -1.7930 C   0  0  1  0  0  0  0  0  0  0  0  0
    1.4550   10.0270   -2.3670 C   0  0  0  0  0  0  0  0  0  0  0  0
    1.2730    8.8680   -1.3920 C   0  0  0  0  0  0  0  0  0  0  0  0
   -0.1950    8.7030   -1.0080 C   0  0  2  0  0  0  0  0  0  0  0  0
   -0.9300    8.2870   -2.1630 O   0  0  0  0  0  0  0  0  0  0  0  0
   -0.8250    9.9990   -0.4260 C   0  0  0  0  0  0  0  0  0  0  0  0
   -0.2320   10.2820    0.9770 C   0  0  0  0  0  0  0  0  0  0  0  0
   -2.3410    9.7390   -0.2120 C   0  0  0  0  0  0  0  0  0  0  0  0
    1.2320   12.6010   -2.7600 C   0  0  1  0  0  0  0  0  0  0  0  0
    0.9790   12.1830   -4.2410 C   0  0  0  0  0  0  0  0  0  0  0  0
    2.7570   12.9820   -2.6600 C   0  0  0  0  0  0  0  0  0  0  0  0
    3.1520   13.9840   -1.5590 C   0  0  0  0  0  0  0  0  0  0  0  0
    2.2400   15.2150   -1.5850 C   0  0  2  0  0  0  0  0  0  0  0  0
    2.4460   15.9330   -2.9620 C   0  0  0  0  0  0  0  0  0  0  0  0
    3.4734   18.1774    1.3319 H   0  0  0  0  0  0  0  0  0  0  0  0
    4.2069   19.1856    0.0388 H   0  0  0  0  0  0  0  0  0  0  0  0
    2.4382   18.8723    0.0388 H   0  0  0  0  0  0  0  0  0  0  0  0
    4.5505   16.6904   -0.2056 H   0  0  0  0  0  0  0  0  0  0  0  0
    3.1799   16.9673   -2.6801 H   0  0  0  0  0  0  0  0  0  0  0  0
    3.7708   18.6217   -2.1724 H   0  0  0  0  0  0  0  0  0  0  0  0
    5.6222   17.9485   -3.2919 H   0  0  0  0  0  0  0  0  0  0  0  0
    5.9819   17.2108   -1.6756 H   0  0  0  0  0  0  0  0  0  0  0  0
    4.2870   15.8219   -3.3119 H   0  0  0  0  0  0  0  0  0  0  0  0
    8.1344   16.6254   -3.4226 H   0  0  0  0  0  0  0  0  0  0  0  0
    8.4313   15.7194   -4.9449 H   0  0  0  0  0  0  0  0  0  0  0  0
    7.3313   17.1394   -4.9449 H   0  0  0  0  0  0  0  0  0  0  0  0
    6.0905   13.3248   -4.4352 H   0  0  0  0  0  0  0  0  0  0  0  0
    5.4157   14.4762   -5.6374 H   0  0  0  0  0  0  0  0  0  0  0  0
    7.1732   14.1052   -5.6374 H   0  0  0  0  0  0  0  0  0  0  0  0
    2.7102   15.7508    0.4803 H   0  0  0  0  0  0  0  0  0  0  0  0
    0.7765   17.1963    0.5974 H   0  0  0  0  0  0  0  0  0  0  0  0
    1.1899   18.0021   -0.9308 H   0  0  0  0  0  0  0  0  0  0  0  0
   -0.8594   16.0388   -0.5897 H   0  0  0  0  0  0  0  0  0  0  0  0
   -0.2196   16.5360   -2.1540 H   0  0  0  0  0  0  0  0  0  0  0  0
    0.7786   14.7910    0.8897 H   0  0  0  0  0  0  0  0  0  0  0  0
   -0.4861   13.7314    0.1794 H   0  0  0  0  0  0  0  0  0  0  0  0
    1.2311   13.2044    0.1794 H   0  0  0  0  0  0  0  0  0  0  0  0
    0.3567   14.5048   -3.3378 H   0  0  0  0  0  0  0  0  0  0  0  0
   -1.7550   14.2024   -1.8920 H   0  0  0  0  0  0  0  0  0  0  0  0
   -1.5097   13.2279   -3.4345 H   0  0  0  0  0  0  0  0  0  0  0  0
   -2.4863   11.9162   -1.3691 H   0  0  0  0  0  0  0  0  0  0  0  0
    1.5132   11.6380   -0.8923 H   0  0  0  0  0  0  0  0  0  0  0  0
    0.9004    9.8019   -3.2899 H   0  0  0  0  0  0  0  0  0  0  0  0
    2.5326   10.1361   -2.5589 H   0  0  0  0  0  0  0  0  0  0  0  0
    1.6277    7.9405   -1.8652 H   0  0  0  0  0  0  0  0  0  0  0  0
    1.8521    9.0813   -0.4814 H   0  0  0  0  0  0  0  0  0  0  0  0
   -0.2447    7.9454   -0.2120 H   0  0  0  0  0  0  0  0  0  0  0  0
   -0.7840    7.3330   -2.2760 H   0  0  0  0  0  0  0  0  0  0  0  0
   -0.9393    9.9445    1.7489 H   0  0  0  0  0  0  0  0  0  0  0  0
    0.7190    9.7407    1.0891 H   0  0  0  0  0  0  0  0  0  0  0  0
   -0.0547   11.3618    1.0891 H   0  0  0  0  0  0  0  0  0  0  0  0
   -2.5581    9.7018    0.8657 H   0  0  0  0  0  0  0  0  0  0  0  0
   -2.9212   10.5508   -0.6751 H   0  0  0  0  0  0  0  0  0  0  0  0
   -2.6176    8.7803   -0.6751 H   0  0  0  0  0  0  0  0  0  0  0  0
    0.4095   11.2422   -4.2643 H   0  0  0  0  0  0  0  0  0  0  0  0
    0.4061   12.9711   -4.7517 H   0  0  0  0  0  0  0  0  0  0  0  0
    1.9429   12.0409   -4.7517 H   0  0  0  0  0  0  0  0  0  0  0  0
    3.3209   12.0542   -2.4833 H   0  0  0  0  0  0  0  0  0  0  0  0
    2.9895   13.4896   -3.6078 H   0  0  0  0  0  0  0  0  0  0  0  0
    3.0663   13.4933   -0.5783 H   0  0  0  0  0  0  0  0  0  0  0  0
    4.1872   14.3106   -1.7369 H   0  0  0  0  0  0  0  0  0  0  0  0
    2.7456   16.9773   -2.7898 H   0  0  0  0  0  0  0  0  0  0  0  0
    3.2318   15.4152   -3.5316 H   0  0  0  0  0  0  0  0  0  0  0  0
    1.5052   15.9106   -3.5316 H   0  0  0  0  0  0  0  0  0  0  0  0
  1  2  1  0
  2  3  1  0
  3  4  1  0
  4  5  1  0
  5  6  1  0
  6  7  1  0
  7  8  1  0
  7  9  1  0
  2 10  1  0
 10 11  1  0
 11 12  1  0
 12 13  1  0
 13 14  1  1
 13 15  1  0
 15 16  1  0
 16 17  1  0
 17 18  2  0
 18 19  1  0
 19 20  1  0
 20 21  1  0
 21 22  1  0
 22 23  1  0
 22 24  1  0
 24 25  1  0
 24 26  1  0
 19 27  1  0
 27 28  1  6
 27 29  1  0
 29 30  1  0
 30 31  1  0
 31 32  1  6
  7  5  1  0
 31 10  1  0
 31 13  1  0
 27 15  1  0
 24 18  1  0
  1 33  1  0
  1 34  1  0
  1 35  1  0
  2 36  1  1
  3 37  1  0
  3 38  1  0
  4 39  1  0
  4 40  1  0
  5 41  1  6
  8 42  1  0
  8 43  1  0
  8 44  1  0
  9 45  1  0
  9 46  1  0
  9 47  1  0
 10 48  1  1
 11 49  1  0
 11 50  1  0
 12 51  1  0
 12 52  1  0
 14 53  1  0
 14 54  1  0
 14 55  1  0
 15 56  1  6
 16 57  1  0
 16 58  1  0
 17 59  1  0
 19 60  1  1
 20 61  1  0
 20 62  1  0
 21 63  1  0
 21 64  1  0
 22 65  1  1
 23 66  1  0
 25 67  1  0
 25 68  1  0
 25 69  1  0
 26 70  1  0
 26 71  1  0
 26 72  1  0
 28 73  1  0
 28 74  1  0
 28 75  1  0
 29 76  1  0
 29 77  1  0
 30 78  1  0
 30 79  1  0
 32 80  1  0
 32 81  1  0
 32 82  1  0
M  END
>  <meeko>  (8) 
{"is_sidechain": [false], "intermolecular_energy": 2.731, "internal_energy": -0.839}

$$$$
EPH_relaxed_0001_pdb2pqr_Repair_142_r2_0001_out
     RDKit          3D

 82 86  0  0  0  0  0  0  0  0999 V2000
    3.9040   17.5500    0.3780 C   0  0  0  0  0  0  0  0  0  0  0  0
    3.7490   16.5710   -0.7890 C   0  0  2  0  0  0  0  0  0  0  0  0
    3.6310   17.2970   -2.1440 C   0  0  0  0  0  0  0  0  0  0  0  0
    3.1330   18.7400   -2.0280 C   0  0  0  0  0  0  0  0  0  0  0  0
    1.6600   18.8410   -2.2870 C   0  0  2  0  0  0  0  0  0  0  0  0
    1.1880   20.1690   -2.5500 O   0  0  0  0  0  0  0  0  0  0  0  0
    0.6920   19.5440   -1.3540 C   0  0  0  0  0  0  0  0  0  0  0  0
    1.1600   20.1940   -0.0900 C   0  0  0  0  0  0  0  0  0  0  0  0
   -0.7580   19.1810   -1.4210 C   0  0  0  0  0  0  0  0  0  0  0  0
    2.5290   15.6840   -0.5650 C   0  0  1  0  0  0  0  0  0  0  0  0
    1.2280   16.5020   -0.3480 C   0  0  0  0  0  0  0  0  0  0  0  0
    0.0770   15.6910   -0.9970 C   0  0  0  0  0  0  0  0  0  0  0  0
    0.6870   14.2960   -1.2680 C   0  0  1  0  0  0  0  0  0  0  0  0
    0.6100   13.5510    0.1020 C   0  0  0  0  0  0  0  0  0  0  0  0
    0.0270   13.4640   -2.4150 C   0  0  2  0  0  0  0  0  0  0  0  0
   -1.4490   13.0930   -2.1870 C   0  0  0  0  0  0  0  0  0  0  0  0
   -1.6790   11.7920   -1.4920 C   0  0  0  0  0  0  0  0  0  0  0  0
   -0.7610   10.8230   -1.3220 C   0  0  0  0  0  0  0  0  0  0  0  0
    0.6380   10.9450   -1.9410 C   0  0  1  0  0  0  0  0  0  0  0  0
    1.0160    9.6110   -2.6360 C   0  0  0  0  0  0  0  0  0  0  0  0
    0.8940    8.4100   -1.7020 C   0  0  0  0  0  0  0  0  0  0  0  0
   -0.5250    8.2880   -1.1530 C   0  0  2  0  0  0  0  0  0  0  0  0
   -1.4100    7.9660   -2.2310 O   0  0  0  0  0  0  0  0  0  0  0  0
   -1.0190    9.5770   -0.4390 C   0  0  0  0  0  0  0  0  0  0  0  0
   -0.2530    9.7590    0.8950 C   0  0  0  0  0  0  0  0  0  0  0  0
   -2.5100    9.3700   -0.0590 C   0  0  0  0  0  0  0  0  0  0  0  0
    0.8740   12.2090   -2.8760 C   0  0  1  0  0  0  0  0  0  0  0  0
    0.4290   11.8820   -4.3340 C   0  0  0  0  0  0  0  0  0  0  0  0
    2.4160   12.5190   -2.9410 C   0  0  0  0  0  0  0  0  0  0  0  0
    2.9860   13.4430   -1.8480 C   0  0  0  0  0  0  0  0  0  0  0  0
    2.1390   14.7110   -1.7060 C   0  0  2  0  0  0  0  0  0  0  0  0
    2.2160   15.4930   -3.0620 C   0  0  0  0  0  0  0  0  0  0  0  0
    3.8175   17.0037    1.3288 H   0  0  0  0  0  0  0  0  0  0  0  0
    4.8900   18.0344    0.3218 H   0  0  0  0  0  0  0  0  0  0  0  0
    3.1158   18.3153    0.3218 H   0  0  0  0  0  0  0  0  0  0  0  0
    4.6574   15.9517   -0.8244 H   0  0  0  0  0  0  0  0  0  0  0  0
    4.6231   17.3092   -2.6190 H   0  0  0  0  0  0  0  0  0  0  0  0
    2.8872   16.7472   -2.7394 H   0  0  0  0  0  0  0  0  0  0  0  0
    3.3426   19.1089   -1.0131 H   0  0  0  0  0  0  0  0  0  0  0  0
    3.6561   19.3449   -2.7833 H   0  0  0  0  0  0  0  0  0  0  0  0
    1.6484   17.8406   -2.7442 H   0  0  0  0  0  0  0  0  0  0  0  0
    0.7628   19.6423    0.7748 H   0  0  0  0  0  0  0  0  0  0  0  0
    2.2595   20.1839   -0.0578 H   0  0  0  0  0  0  0  0  0  0  0  0
    0.8017   21.2335   -0.0578 H   0  0  0  0  0  0  0  0  0  0  0  0
   -1.1584   19.0808   -0.4014 H   0  0  0  0  0  0  0  0  0  0  0  0
   -1.3089   19.9689   -1.9554 H   0  0  0  0  0  0  0  0  0  0  0  0
   -0.8727   18.2264   -1.9554 H   0  0  0  0  0  0  0  0  0  0  0  0
    2.8713   15.1164    0.3128 H   0  0  0  0  0  0  0  0  0  0  0  0
    1.0386   16.6345    0.7275 H   0  0  0  0  0  0  0  0  0  0  0  0
    1.3100   17.5020   -0.7989 H   0  0  0  0  0  0  0  0  0  0  0  0
   -0.7788   15.6138   -0.3103 H   0  0  0  0  0  0  0  0  0  0  0  0
   -0.3022   16.1657   -1.9140 H   0  0  0  0  0  0  0  0  0  0  0  0
    0.6855   14.2812    0.9212 H   0  0  0  0  0  0  0  0  0  0  0  0
   -0.3482   13.0158    0.1750 H   0  0  0  0  0  0  0  0  0  0  0  0
    1.4385   12.8311    0.1750 H   0  0  0  0  0  0  0  0  0  0  0  0
    0.0295   14.1762   -3.2533 H   0  0  0  0  0  0  0  0  0  0  0  0
   -1.9098   13.8878   -1.5820 H   0  0  0  0  0  0  0  0  0  0  0  0
   -1.8943   12.9868   -3.1872 H   0  0  0  0  0  0  0  0  0  0  0  0
   -2.6843   11.6100   -1.0842 H   0  0  0  0  0  0  0  0  0  0  0  0
    1.3252   11.1363   -1.1037 H   0  0  0  0  0  0  0  0  0  0  0  0
    0.3464    9.4589   -3.4954 H   0  0  0  0  0  0  0  0  0  0  0  0
    2.0676    9.6843   -2.9504 H   0  0  0  0  0  0  0  0  0  0  0  0
    1.1449    7.4946   -2.2580 H   0  0  0  0  0  0  0  0  0  0  0  0
    1.5861    8.5494   -0.8585 H   0  0  0  0  0  0  0  0  0  0  0  0
   -0.5175    7.4924   -0.3934 H   0  0  0  0  0  0  0  0  0  0  0  0
   -1.6860    8.8010   -2.6450 H   0  0  0  0  0  0  0  0  0  0  0  0
   -0.9406    9.5956    1.7379 H   0  0  0  0  0  0  0  0  0  0  0  0
    0.5704    9.0315    0.9472 H   0  0  0  0  0  0  0  0  0  0  0  0
    0.1552   10.7791    0.9472 H   0  0  0  0  0  0  0  0  0  0  0  0
   -2.6107    9.3560    1.0363 H   0  0  0  0  0  0  0  0  0  0  0  0
   -3.1114   10.1933   -0.4720 H   0  0  0  0  0  0  0  0  0  0  0  0
   -2.8643    8.4140   -0.4720 H   0  0  0  0  0  0  0  0  0  0  0  0
   -0.4572   11.2308   -4.3096 H   0  0  0  0  0  0  0  0  0  0  0  0
    0.1833   12.8160   -4.8606 H   0  0  0  0  0  0  0  0  0  0  0  0
    1.2469   11.3685   -4.8606 H   0  0  0  0  0  0  0  0  0  0  0  0
    2.9511   11.5600   -2.8782 H   0  0  0  0  0  0  0  0  0  0  0  0
    2.5597   13.0665   -3.8842 H   0  0  0  0  0  0  0  0  0  0  0  0
    2.9917   12.9047   -0.8887 H   0  0  0  0  0  0  0  0  0  0  0  0
    4.0081   13.7338   -2.1323 H   0  0  0  0  0  0  0  0  0  0  0  0
    2.3219   16.5690   -2.8593 H   0  0  0  0  0  0  0  0  0  0  0  0
    3.0839   15.1414   -3.6392 H   0  0  0  0  0  0  0  0  0  0  0  0
    1.2962   15.3175   -3.6392 H   0  0  0  0  0  0  0  0  0  0  0  0
  1  2  1  0
  2  3  1  0
  3  4  1  0
  4  5  1  0
  5  6  1  0
  6  7  1  0
  7  8  1  0
  7  9  1  0
  2 10  1  0
 10 11  1  0
 11 12  1  0
 12 13  1  0
 13 14  1  1
 13 15  1  0
 15 16  1  0
 16 17  1  0
 17 18  2  0
 18 19  1  0
 19 20  1  0
 20 21  1  0
 21 22  1  0
 22 23  1  0
 22 24  1  0
 24 25  1  0
 24 26  1  0
 19 27  1  0
 27 28  1  6
 27 29  1  0
 29 30  1  0
 30 31  1  0
 31 32  1  6
  7  5  1  0
 31 10  1  0
 31 13  1  0
 27 15  1  0
 24 18  1  0
  1 33  1  0
  1 34  1  0
  1 35  1  0
  2 36  1  6
  3 37  1  0
  3 38  1  0
  4 39  1  0
  4 40  1  0
  5 41  1  6
  8 42  1  0
  8 43  1  0
  8 44  1  0
  9 45  1  0
  9 46  1  0
  9 47  1  0
 10 48  1  1
 11 49  1  0
 11 50  1  0
 12 51  1  0
 12 52  1  0
 14 53  1  0
 14 54  1  0
 14 55  1  0
 15 56  1  6
 16 57  1  0
 16 58  1  0
 17 59  1  0
 19 60  1  1
 20 61  1  0
 20 62  1  0
 21 63  1  0
 21 64  1  0
 22 65  1  1
 23 66  1  0
 25 67  1  0
 25 68  1  0
 25 69  1  0
 26 70  1  0
 26 71  1  0
 26 72  1  0
 28 73  1  0
 28 74  1  0
 28 75  1  0
 29 76  1  0
 29 77  1  0
 30 78  1  0
 30 79  1  0
 32 80  1  0
 32 81  1  0
 32 82  1  0
M  END
>  <meeko>  (9) 
{"is_sidechain": [false], "intermolecular_energy": 2.731, "internal_energy": -0.839}

$$$$
EPH_relaxed_0001_pdb2pqr_Repair_142_r2_0001_out
     RDKit          3D

 82 86  0  0  0  0  0  0  0  0999 V2000
    4.3240   17.5850   -2.6220 C   0  0  0  0  0  0  0  0  0  0  0  0
    2.9690   17.0970   -2.1010 C   0  0  2  0  0  0  0  0  0  0  0  0
    2.7410   17.4820   -0.6260 C   0  0  0  0  0  0  0  0  0  0  0  0
    3.8440   18.3700   -0.0440 C   0  0  0  0  0  0  0  0  0  0  0  0
    3.5860   18.7050    1.3940 C   0  0  2  0  0  0  0  0  0  0  0  0
    3.8600   20.0660    1.7500 O   0  0  0  0  0  0  0  0  0  0  0  0
    4.6820   19.0690    2.3780 C   0  0  0  0  0  0  0  0  0  0  0  0
    6.1190   19.1160    1.9630 C   0  0  0  0  0  0  0  0  0  0  0  0
    4.4150   18.9010    3.8410 C   0  0  0  0  0  0  0  0  0  0  0  0
    2.8620   15.5850   -2.2670 C   0  0  1  0  0  0  0  0  0  0  0  0
    4.2380   14.9130   -2.5190 C   0  0  0  0  0  0  0  0  0  0  0  0
    4.1950   13.5300   -1.8200 C   0  0  0  0  0  0  0  0  0  0  0  0
    2.7030   13.3130   -1.4780 C   0  0  1  0  0  0  0  0  0  0  0  0
    2.0580   12.8020   -2.8040 C   0  0  0  0  0  0  0  0  0  0  0  0
    2.4010   12.3520   -0.2820 C   0  0  2  0  0  0  0  0  0  0  0  0
    2.8660   10.8980   -0.4790 C   0  0  0  0  0  0  0  0  0  0  0  0
    1.8610    9.9860   -1.1000 C   0  0  0  0  0  0  0  0  0  0  0  0
    0.5450   10.2400   -1.2240 C   0  0  0  0  0  0  0  0  0  0  0  0
   -0.0720   11.5090   -0.6230 C   0  0  1  0  0  0  0  0  0  0  0  0
   -1.3710   11.1420    0.1400 C   0  0  0  0  0  0  0  0  0  0  0  0
   -2.3590   10.3670   -0.7250 C   0  0  0  0  0  0  0  0  0  0  0  0
   -1.7280    9.0820   -1.2570 C   0  0  2  0  0  0  0  0  0  0  0  0
   -1.4820    8.2000   -0.1570 O   0  0  0  0  0  0  0  0  0  0  0  0
   -0.4060    9.3260   -2.0360 C   0  0  0  0  0  0  0  0  0  0  0  0
   -0.7170   10.0240   -3.3830 C   0  0  0  0  0  0  0  0  0  0  0  0
    0.2000    7.9420   -2.3950 C   0  0  0  0  0  0  0  0  0  0  0  0
    0.9080   12.4150    0.2400 C   0  0  1  0  0  0  0  0  0  0  0  0
    0.9320   11.9150    1.7170 C   0  0  0  0  0  0  0  0  0  0  0  0
    0.3500   13.8860    0.2770 C   0  0  0  0  0  0  0  0  0  0  0  0
    0.7800   14.8220   -0.8680 C   0  0  0  0  0  0  0  0  0  0  0  0
    2.2970   14.7770   -1.0730 C   0  0  2  0  0  0  0  0  0  0  0  0
    2.9730   15.3060    0.2380 C   0  0  0  0  0  0  0  0  0  0  0  0
    4.9803   17.8214   -1.7715 H   0  0  0  0  0  0  0  0  0  0  0  0
    4.7868   16.7970   -3.2344 H   0  0  0  0  0  0  0  0  0  0  0  0
    4.1781   18.4871   -3.2344 H   0  0  0  0  0  0  0  0  0  0  0  0
    2.1879   17.5928   -2.6961 H   0  0  0  0  0  0  0  0  0  0  0  0
    1.7854   18.0217   -0.5517 H   0  0  0  0  0  0  0  0  0  0  0  0
    2.7414   16.5473   -0.0461 H   0  0  0  0  0  0  0  0  0  0  0  0
    4.8050   17.8402   -0.1196 H   0  0  0  0  0  0  0  0  0  0  0  0
    3.8652   19.3093   -0.6161 H   0  0  0  0  0  0  0  0  0  0  0  0
    2.7650   17.9745    1.4412 H   0  0  0  0  0  0  0  0  0  0  0  0
    6.7585   19.1369    2.8577 H   0  0  0  0  0  0  0  0  0  0  0  0
    6.3567   18.2251    1.3631 H   0  0  0  0  0  0  0  0  0  0  0  0
    6.2980   20.0205    1.3631 H   0  0  0  0  0  0  0  0  0  0  0  0
    5.2076   19.3997    4.4180 H   0  0  0  0  0  0  0  0  0  0  0  0
    3.4422   19.3501    4.0901 H   0  0  0  0  0  0  0  0  0  0  0  0
    4.3989   17.8297    4.0901 H   0  0  0  0  0  0  0  0  0  0  0  0
    2.1626   15.5416   -3.1149 H   0  0  0  0  0  0  0  0  0  0  0  0
    4.4058   14.7866   -3.5988 H   0  0  0  0  0  0  0  0  0  0  0  0
    5.0576   15.5305   -2.1228 H   0  0  0  0  0  0  0  0  0  0  0  0
    4.5572   12.7416   -2.4962 H   0  0  0  0  0  0  0  0  0  0  0  0
    4.8374   13.4930   -0.9279 H   0  0  0  0  0  0  0  0  0  0  0  0
    1.2158   12.1347   -2.5687 H   0  0  0  0  0  0  0  0  0  0  0  0
    1.6941   13.6595   -3.3890 H   0  0  0  0  0  0  0  0  0  0  0  0
    2.8095   12.2516   -3.3890 H   0  0  0  0  0  0  0  0  0  0  0  0
    3.0361   12.7635    0.5163 H   0  0  0  0  0  0  0  0  0  0  0  0
    3.7575   10.9106   -1.1233 H   0  0  0  0  0  0  0  0  0  0  0  0
    3.0563   10.5001    0.5287 H   0  0  0  0  0  0  0  0  0  0  0  0
    2.2268    9.0245   -1.4895 H   0  0  0  0  0  0  0  0  0  0  0  0
   -0.3118   12.1629   -1.4744 H   0  0  0  0  0  0  0  0  0  0  0  0
   -1.1057   10.5250    1.0111 H   0  0  0  0  0  0  0  0  0  0  0  0
   -1.8573   12.0814    0.4418 H   0  0  0  0  0  0  0  0  0  0  0  0
   -3.2423   10.1112   -0.1214 H   0  0  0  0  0  0  0  0  0  0  0  0
   -2.6464   10.9969   -1.5798 H   0  0  0  0  0  0  0  0  0  0  0  0
   -2.4362    8.6380   -1.9721 H   0  0  0  0  0  0  0  0  0  0  0  0
   -0.9690    8.6930    0.5060 H   0  0  0  0  0  0  0  0  0  0  0  0
   -1.1578   11.0132   -3.1902 H   0  0  0  0  0  0  0  0  0  0  0  0
    0.2133   10.1428   -3.9578 H   0  0  0  0  0  0  0  0  0  0  0  0
   -1.4275    9.4117   -3.9578 H   0  0  0  0  0  0  0  0  0  0  0  0
    0.4392    7.3956   -1.4708 H   0  0  0  0  0  0  0  0  0  0  0  0
   -0.5277    7.3648   -2.9843 H   0  0  0  0  0  0  0  0  0  0  0  0
    1.1177    8.0853   -2.9843 H   0  0  0  0  0  0  0  0  0  0  0  0
    0.8906   12.7785    2.3971 H   0  0  0  0  0  0  0  0  0  0  0  0
    0.0641   11.2638    1.8978 H   0  0  0  0  0  0  0  0  0  0  0  0
    1.8583   11.3500    1.8978 H   0  0  0  0  0  0  0  0  0  0  0  0
   -0.7482   13.8255    0.2625 H   0  0  0  0  0  0  0  0  0  0  0  0
    0.7758   14.3320    1.1880 H   0  0  0  0  0  0  0  0  0  0  0  0
    0.2820   14.5067   -1.7967 H   0  0  0  0  0  0  0  0  0  0  0  0
    0.4920   15.8509   -0.6066 H   0  0  0  0  0  0  0  0  0  0  0  0
    2.4479   14.8951    1.1129 H   0  0  0  0  0  0  0  0  0  0  0  0
    4.0263   14.9898    0.2607 H   0  0  0  0  0  0  0  0  0  0  0  0
    2.9193   16.4045    0.2607 H   0  0  0  0  0  0  0  0  0  0  0  0
  1  2  1  0
  2  3  1  0
  3  4  1  0
  4  5  1  0
  5  6  1  0
  6  7  1  0
  7  8  1  0
  7  9  1  0
  2 10  1  0
 10 11  1  0
 11 12  1  0
 12 13  1  0
 13 14  1  6
 13 15  1  0
 15 16  1  0
 16 17  1  0
 17 18  2  0
 18 19  1  0
 19 20  1  0
 20 21  1  0
 21 22  1  0
 22 23  1  0
 22 24  1  0
 24 25  1  0
 24 26  1  0
 19 27  1  0
 27 28  1  1
 27 29  1  0
 29 30  1  0
 30 31  1  0
 31 32  1  1
  7  5  1  0
 31 10  1  0
 31 13  1  0
 27 15  1  0
 24 18  1  0
  1 33  1  0
  1 34  1  0
  1 35  1  0
  2 36  1  6
  3 37  1  0
  3 38  1  0
  4 39  1  0
  4 40  1  0
  5 41  1  1
  8 42  1  0
  8 43  1  0
  8 44  1  0
  9 45  1  0
  9 46  1  0
  9 47  1  0
 10 48  1  6
 11 49  1  0
 11 50  1  0
 12 51  1  0
 12 52  1  0
 14 53  1  0
 14 54  1  0
 14 55  1  0
 15 56  1  1
 16 57  1  0
 16 58  1  0
 17 59  1  0
 19 60  1  6
 20 61  1  0
 20 62  1  0
 21 63  1  0
 21 64  1  0
 22 65  1  6
 23 66  1  0
 25 67  1  0
 25 68  1  0
 25 69  1  0
 26 70  1  0
 26 71  1  0
 26 72  1  0
 28 73  1  0
 28 74  1  0
 28 75  1  0
 29 76  1  0
 29 77  1  0
 30 78  1  0
 30 79  1  0
 32 80  1  0
 32 81  1  0
 32 82  1  0
M  END
>  <meeko>  (10) 
{"is_sidechain": [false], "intermolecular_energy": 2.731, "internal_energy": -0.839}

$$$$
EPH_relaxed_0001_pdb2pqr_Repair_142_r2_0001_out
     RDKit          3D

 82 86  0  0  0  0  0  0  0  0999 V2000
    0.2680   17.8710   -0.2810 C   0  0  0  0  0  0  0  0  0  0  0  0
    1.2510   17.0900   -1.1580 C   0  0  2  0  0  0  0  0  0  0  0  0
    1.7710   17.9330   -2.3400 C   0  0  0  0  0  0  0  0  0  0  0  0
    3.2690   18.2390   -2.2650 C   0  0  0  0  0  0  0  0  0  0  0  0
    4.0800   16.9940   -2.0680 C   0  0  2  0  0  0  0  0  0  0  0  0
    5.3150   17.1890   -1.3670 O   0  0  0  0  0  0  0  0  0  0  0  0
    5.4230   16.7570   -2.7330 C   0  0  0  0  0  0  0  0  0  0  0  0
    6.0330   17.7740   -3.6460 C   0  0  0  0  0  0  0  0  0  0  0  0
    5.9090   15.3490   -2.8830 C   0  0  0  0  0  0  0  0  0  0  0  0
    0.5890   15.8190   -1.6760 C   0  0  1  0  0  0  0  0  0  0  0  0
    0.1570   15.9330   -3.1620 C   0  0  0  0  0  0  0  0  0  0  0  0
    0.3560   14.5320   -3.7950 C   0  0  0  0  0  0  0  0  0  0  0  0
    0.5750   13.5870   -2.5900 C   0  0  1  0  0  0  0  0  0  0  0  0
   -0.8590   13.2810   -2.0550 C   0  0  0  0  0  0  0  0  0  0  0  0
    1.3760   12.2760   -2.8770 C   0  0  2  0  0  0  0  0  0  0  0  0
    0.7160   11.3140   -3.8810 C   0  0  0  0  0  0  0  0  0  0  0  0
   -0.1940   10.2940   -3.2820 C   0  0  0  0  0  0  0  0  0  0  0  0
   -0.2540    9.9680   -1.9770 C   0  0  0  0  0  0  0  0  0  0  0  0
    0.7220   10.5840   -0.9660 C   0  0  1  0  0  0  0  0  0  0  0  0
    1.2930    9.4680   -0.0520 C   0  0  0  0  0  0  0  0  0  0  0  0
    0.1980    8.6460    0.6200 C   0  0  0  0  0  0  0  0  0  0  0  0
   -0.7170    8.0020   -0.4190 C   0  0  2  0  0  0  0  0  0  0  0  0
    0.0310    7.0280   -1.1510 O   0  0  0  0  0  0  0  0  0  0  0  0
   -1.3430    9.0290   -1.4030 C   0  0  0  0  0  0  0  0  0  0  0  0
   -2.3880    9.8960   -0.6570 C   0  0  0  0  0  0  0  0  0  0  0  0
   -2.1290    8.2370   -2.4830 C   0  0  0  0  0  0  0  0  0  0  0  0
    1.8580   11.5130   -1.5770 C   0  0  1  0  0  0  0  0  0  0  0  0
    3.0850   10.6470   -1.9970 C   0  0  0  0  0  0  0  0  0  0  0  0
    2.3710   12.4980   -0.4610 C   0  0  0  0  0  0  0  0  0  0  0  0
    1.6110   13.8290   -0.3060 C   0  0  0  0  0  0  0  0  0  0  0  0
    1.4350   14.5200   -1.6620 C   0  0  2  0  0  0  0  0  0  0  0  0
    2.8600   14.8610   -2.2150 C   0  0  0  0  0  0  0  0  0  0  0  0
    0.4976   17.6885    0.7792 H   0  0  0  0  0  0  0  0  0  0  0  0
    0.3589   18.9459   -0.4961 H   0  0  0  0  0  0  0  0  0  0  0  0
   -0.7586   17.5395   -0.4961 H   0  0  0  0  0  0  0  0  0  0  0  0
    2.1173   16.8292   -0.5324 H   0  0  0  0  0  0  0  0  0  0  0  0
    1.5752   17.3825   -3.2720 H   0  0  0  0  0  0  0  0  0  0  0  0
    1.2435   18.8976   -2.3038 H   0  0  0  0  0  0  0  0  0  0  0  0
    3.5813   18.7233   -3.2020 H   0  0  0  0  0  0  0  0  0  0  0  0
    3.4411   18.9003   -1.4030 H   0  0  0  0  0  0  0  0  0  0  0  0
    3.1685   16.3813   -2.0070 H   0  0  0  0  0  0  0  0  0  0  0  0
    6.5079   18.5657   -3.0479 H   0  0  0  0  0  0  0  0  0  0  0  0
    6.7900   17.2899   -4.2806 H   0  0  0  0  0  0  0  0  0  0  0  0
    5.2495   18.2139   -4.2806 H   0  0  0  0  0  0  0  0  0  0  0  0
    6.0619   14.9059   -1.8879 H   0  0  0  0  0  0  0  0  0  0  0  0
    5.1621   14.7602   -3.4357 H   0  0  0  0  0  0  0  0  0  0  0  0
    6.8601   15.3463   -3.4357 H   0  0  0  0  0  0  0  0  0  0  0  0
   -0.2396   15.7368   -0.9573 H   0  0  0  0  0  0  0  0  0  0  0  0
   -0.8997   16.2314   -3.2273 H   0  0  0  0  0  0  0  0  0  0  0  0
    0.7530   16.6926   -3.6891 H   0  0  0  0  0  0  0  0  0  0  0  0
   -0.5358   14.2334   -4.3656 H   0  0  0  0  0  0  0  0  0  0  0  0
    1.1988   14.5093   -4.5015 H   0  0  0  0  0  0  0  0  0  0  0  0
   -0.8482   13.2833   -0.9551 H   0  0  0  0  0  0  0  0  0  0  0  0
   -1.5571   14.0504   -2.4165 H   0  0  0  0  0  0  0  0  0  0  0  0
   -1.1823   12.2937   -2.4165 H   0  0  0  0  0  0  0  0  0  0  0  0
    2.2788   12.6564   -3.3772 H   0  0  0  0  0  0  0  0  0  0  0  0
    0.1314   11.9146   -4.5934 H   0  0  0  0  0  0  0  0  0  0  0  0
    1.5374   10.7518   -4.3492 H   0  0  0  0  0  0  0  0  0  0  0  0
   -0.8737    9.7633   -3.9649 H   0  0  0  0  0  0  0  0  0  0  0  0
    0.1321   11.2926   -0.3661 H   0  0  0  0  0  0  0  0  0  0  0  0
    1.9144    8.7960   -0.6621 H   0  0  0  0  0  0  0  0  0  0  0  0
    1.8806    9.9536    0.7410 H   0  0  0  0  0  0  0  0  0  0  0  0
    0.6629    7.8566    1.2288 H   0  0  0  0  0  0  0  0  0  0  0  0
   -0.4048    9.3147    1.2521 H   0  0  0  0  0  0  0  0  0  0  0  0
   -1.5537    7.5353    0.1214 H   0  0  0  0  0  0  0  0  0  0  0  0
    0.7650    6.7340   -0.5860 H   0  0  0  0  0  0  0  0  0  0  0  0
   -2.2510    9.7823    0.4285 H   0  0  0  0  0  0  0  0  0  0  0  0
   -2.2540   10.9518   -0.9349 H   0  0  0  0  0  0  0  0  0  0  0  0
   -3.4010    9.5694   -0.9349 H   0  0  0  0  0  0  0  0  0  0  0  0
   -2.8227    7.5380   -1.9928 H   0  0  0  0  0  0  0  0  0  0  0  0
   -2.6980    8.9386   -3.1106 H   0  0  0  0  0  0  0  0  0  0  0  0
   -1.4231    7.6733   -3.1106 H   0  0  0  0  0  0  0  0  0  0  0  0
    3.6017   10.2823   -1.0970 H   0  0  0  0  0  0  0  0  0  0  0  0
    2.7415    9.7901   -2.5951 H   0  0  0  0  0  0  0  0  0  0  0  0
    3.7773   11.2577   -2.5951 H   0  0  0  0  0  0  0  0  0  0  0  0
    2.3146   11.9686    0.5016 H   0  0  0  0  0  0  0  0  0  0  0  0
    3.3871   12.7815   -0.7725 H   0  0  0  0  0  0  0  0  0  0  0  0
    0.6200   13.6293    0.1276 H   0  0  0  0  0  0  0  0  0  0  0  0
    2.1926   14.4909    0.3525 H   0  0  0  0  0  0  0  0  0  0  0  0
    3.5498   15.0261   -1.3742 H   0  0  0  0  0  0  0  0  0  0  0  0
    3.2246   14.0247   -2.8296 H   0  0  0  0  0  0  0  0  0  0  0  0
    2.8065   15.7717   -2.8296 H   0  0  0  0  0  0  0  0  0  0  0  0
  1  2  1  0
  2  3  1  0
  3  4  1  0
  4  5  1  0
  5  6  1  0
  6  7  1  0
  7  8  1  0
  7  9  1  0
  2 10  1  0
 10 11  1  0
 11 12  1  0
 12 13  1  0
 13 14  1  1
 13 15  1  0
 15 16  1  0
 16 17  1  0
 17 18  2  0
 18 19  1  0
 19 20  1  0
 20 21  1  0
 21 22  1  0
 22 23  1  0
 22 24  1  0
 24 25  1  0
 24 26  1  0
 19 27  1  0
 27 28  1  6
 27 29  1  0
 29 30  1  0
 30 31  1  0
 31 32  1  6
  7  5  1  0
 31 10  1  0
 31 13  1  0
 27 15  1  0
 24 18  1  0
  1 33  1  0
  1 34  1  0
  1 35  1  0
  2 36  1  1
  3 37  1  0
  3 38  1  0
  4 39  1  0
  4 40  1  0
  5 41  1  1
  8 42  1  0
  8 43  1  0
  8 44  1  0
  9 45  1  0
  9 46  1  0
  9 47  1  0
 10 48  1  1
 11 49  1  0
 11 50  1  0
 12 51  1  0
 12 52  1  0
 14 53  1  0
 14 54  1  0
 14 55  1  0
 15 56  1  6
 16 57  1  0
 16 58  1  0
 17 59  1  0
 19 60  1  1
 20 61  1  0
 20 62  1  0
 21 63  1  0
 21 64  1  0
 22 65  1  1
 23 66  1  0
 25 67  1  0
 25 68  1  0
 25 69  1  0
 26 70  1  0
 26 71  1  0
 26 72  1  0
 28 73  1  0
 28 74  1  0
 28 75  1  0
 29 76  1  0
 29 77  1  0
 30 78  1  0
 30 79  1  0
 32 80  1  0
 32 81  1  0
 32 82  1  0
M  END
>  <meeko>  (11) 
{"is_sidechain": [false], "intermolecular_energy": 2.731, "internal_energy": -0.839}

$$$$
EPH_relaxed_0001_pdb2pqr_Repair_142_r2_0001_out
     RDKit          3D

 82 86  0  0  0  0  0  0  0  0999 V2000
    0.9290    8.7210   -0.2450 C   0  0  0  0  0  0  0  0  0  0  0  0
   -0.1300    9.4710   -1.0580 C   0  0  2  0  0  0  0  0  0  0  0  0
   -0.8300    8.5580   -2.0840 C   0  0  0  0  0  0  0  0  0  0  0  0
   -2.3290    8.3800   -1.8280 C   0  0  0  0  0  0  0  0  0  0  0  0
   -2.8870    7.2170   -2.5910 C   0  0  2  0  0  0  0  0  0  0  0  0
   -3.8980    7.5590   -3.5480 O   0  0  0  0  0  0  0  0  0  0  0  0
   -4.3180    6.7330   -2.4500 C   0  0  0  0  0  0  0  0  0  0  0  0
   -5.2800    7.4020   -1.5180 C   0  0  0  0  0  0  0  0  0  0  0  0
   -4.6400    5.3250   -2.8430 C   0  0  0  0  0  0  0  0  0  0  0  0
    0.5060   10.6610   -1.7670 C   0  0  1  0  0  0  0  0  0  0  0  0
    0.1590   10.7100   -3.2790 C   0  0  0  0  0  0  0  0  0  0  0  0
    0.0410   12.2070   -3.6630 C   0  0  0  0  0  0  0  0  0  0  0  0
    0.6440   12.9670   -2.4580 C   0  0  1  0  0  0  0  0  0  0  0  0
    2.1880   12.9030   -2.6750 C   0  0  0  0  0  0  0  0  0  0  0  0
    0.1500   14.4360   -2.2500 C   0  0  2  0  0  0  0  0  0  0  0  0
    0.4840   15.4050   -3.3980 C   0  0  0  0  0  0  0  0  0  0  0  0
    1.7870   16.1220   -3.2690 C   0  0  0  0  0  0  0  0  0  0  0  0
    2.5220   16.2130   -2.1440 C   0  0  0  0  0  0  0  0  0  0  0  0
    2.0060   15.6380   -0.8180 C   0  0  1  0  0  0  0  0  0  0  0  0
    2.2170   16.6780    0.3140 C   0  0  0  0  0  0  0  0  0  0  0  0
    3.6630   17.1560    0.4080 C   0  0  0  0  0  0  0  0  0  0  0  0
    4.1200   17.7740   -0.9110 C   0  0  2  0  0  0  0  0  0  0  0  0
    3.3820   18.9790   -1.1360 O   0  0  0  0  0  0  0  0  0  0  0  0
    3.9460   16.8210   -2.1270 C   0  0  0  0  0  0  0  0  0  0  0  0
    4.9680   15.6620   -2.0300 C   0  0  0  0  0  0  0  0  0  0  0  0
    4.3100   17.6140   -3.4110 C   0  0  0  0  0  0  0  0  0  0  0  0
    0.5280   15.0540   -0.8440 C   0  0  1  0  0  0  0  0  0  0  0  0
   -0.4990   16.1940   -0.5680 C   0  0  0  0  0  0  0  0  0  0  0  0
    0.3660   14.0160    0.3290 C   0  0  0  0  0  0  0  0  0  0  0  0
    0.7570   12.5580    0.0260 C   0  0  0  0  0  0  0  0  0  0  0  0
    0.1110   12.0760   -1.2770 C   0  0  2  0  0  0  0  0  0  0  0  0
   -1.4430   12.1080   -1.0810 C   0  0  0  0  0  0  0  0  0  0  0  0
    0.7332    8.8596    0.8285 H   0  0  0  0  0  0  0  0  0  0  0  0
    0.8882    7.6494   -0.4898 H   0  0  0  0  0  0  0  0  0  0  0  0
    1.9263    9.1153   -0.4898 H   0  0  0  0  0  0  0  0  0  0  0  0
   -0.8981    9.8245   -0.3543 H   0  0  0  0  0  0  0  0  0  0  0  0
   -0.6982    8.9952   -3.0847 H   0  0  0  0  0  0  0  0  0  0  0  0
   -0.3687    7.5633   -1.9964 H   0  0  0  0  0  0  0  0  0  0  0  0
   -2.4895    8.2112   -0.7530 H   0  0  0  0  0  0  0  0  0  0  0  0
   -2.8452    9.2910   -2.1652 H   0  0  0  0  0  0  0  0  0  0  0  0
   -1.9221    6.6911   -2.5414 H   0  0  0  0  0  0  0  0  0  0  0  0
   -4.9856    7.1972   -0.4781 H   0  0  0  0  0  0  0  0  0  0  0  0
   -5.2678    8.4875   -1.6956 H   0  0  0  0  0  0  0  0  0  0  0  0
   -6.2934    7.0128   -1.6956 H   0  0  0  0  0  0  0  0  0  0  0  0
   -4.7796    4.7147   -1.9386 H   0  0  0  0  0  0  0  0  0  0  0  0
   -5.5641    5.3130   -3.4396 H   0  0  0  0  0  0  0  0  0  0  0  0
   -3.8130    4.9126   -3.4396 H   0  0  0  0  0  0  0  0  0  0  0  0
    1.5645   10.4666   -1.5394 H   0  0  0  0  0  0  0  0  0  0  0  0
    0.9558   10.2301   -3.8662 H   0  0  0  0  0  0  0  0  0  0  0  0
   -0.7791   10.1742   -3.4863 H   0  0  0  0  0  0  0  0  0  0  0  0
    0.6102   12.4188   -4.5801 H   0  0  0  0  0  0  0  0  0  0  0  0
   -0.9981   12.5050   -3.8668 H   0  0  0  0  0  0  0  0  0  0  0  0
    2.6949   12.8820   -1.6990 H   0  0  0  0  0  0  0  0  0  0  0  0
    2.4416   11.9936   -3.2395 H   0  0  0  0  0  0  0  0  0  0  0  0
    2.5159   13.7883   -3.2395 H   0  0  0  0  0  0  0  0  0  0  0  0
   -0.9439   14.3213   -2.2641 H   0  0  0  0  0  0  0  0  0  0  0  0
    0.5048   14.8282   -4.3344 H   0  0  0  0  0  0  0  0  0  0  0  0
   -0.2942   16.1821   -3.3762 H   0  0  0  0  0  0  0  0  0  0  0  0
    2.1801   16.6179   -4.1688 H   0  0  0  0  0  0  0  0  0  0  0  0
    2.6115   14.7416   -0.6184 H   0  0  0  0  0  0  0  0  0  0  0  0
    1.5705   17.5465    0.1198 H   0  0  0  0  0  0  0  0  0  0  0  0
    1.9643   16.1899    1.2669 H   0  0  0  0  0  0  0  0  0  0  0  0
    3.7419   17.9098    1.2052 H   0  0  0  0  0  0  0  0  0  0  0  0
    4.3049   16.2912    0.6316 H   0  0  0  0  0  0  0  0  0  0  0  0
    5.1973   17.9781   -0.8234 H   0  0  0  0  0  0  0  0  0  0  0  0
    3.2100   19.3840   -0.2690 H   0  0  0  0  0  0  0  0  0  0  0  0
    5.1671   15.4363   -0.9720 H   0  0  0  0  0  0  0  0  0  0  0  0
    4.5579   14.7691   -2.5246 H   0  0  0  0  0  0  0  0  0  0  0  0
    5.9052   15.9572   -2.5246 H   0  0  0  0  0  0  0  0  0  0  0  0
    4.7538   18.5809   -3.1314 H   0  0  0  0  0  0  0  0  0  0  0  0
    5.0333   17.0368   -4.0057 H   0  0  0  0  0  0  0  0  0  0  0  0
    3.4008   17.7862   -4.0057 H   0  0  0  0  0  0  0  0  0  0  0  0
   -0.6177   16.3257    0.5176 H   0  0  0  0  0  0  0  0  0  0  0  0
   -0.1347   17.1315   -1.0134 H   0  0  0  0  0  0  0  0  0  0  0  0
   -1.4693   15.9292   -1.0134 H   0  0  0  0  0  0  0  0  0  0  0  0
    0.9903   14.3606    1.1666 H   0  0  0  0  0  0  0  0  0  0  0  0
   -0.7133   13.9863    0.5395 H   0  0  0  0  0  0  0  0  0  0  0  0
    1.8509   12.4911   -0.0685 H   0  0  0  0  0  0  0  0  0  0  0  0
    0.4019   11.9214    0.8498 H   0  0  0  0  0  0  0  0  0  0  0  0
   -1.6770   12.1128   -0.0062 H   0  0  0  0  0  0  0  0  0  0  0  0
   -1.8531   13.0148   -1.5496 H   0  0  0  0  0  0  0  0  0  0  0  0
   -1.8901   11.2189   -1.5496 H   0  0  0  0  0  0  0  0  0  0  0  0
  1  2  1  0
  2  3  1  0
  3  4  1  0
  4  5  1  0
  5  6  1  0
  6  7  1  0
  7  8  1  0
  7  9  1  0
  2 10  1  0
 10 11  1  0
 11 12  1  0
 12 13  1  0
 13 14  1  6
 13 15  1  0
 15 16  1  0
 16 17  1  0
 17 18  2  0
 18 19  1  0
 19 20  1  0
 20 21  1  0
 21 22  1  0
 22 23  1  0
 22 24  1  0
 24 25  1  0
 24 26  1  0
 19 27  1  0
 27 28  1  1
 27 29  1  0
 29 30  1  0
 30 31  1  0
 31 32  1  1
  7  5  1  0
 31 10  1  0
 31 13  1  0
 27 15  1  0
 24 18  1  0
  1 33  1  0
  1 34  1  0
  1 35  1  0
  2 36  1  1
  3 37  1  0
  3 38  1  0
  4 39  1  0
  4 40  1  0
  5 41  1  6
  8 42  1  0
  8 43  1  0
  8 44  1  0
  9 45  1  0
  9 46  1  0
  9 47  1  0
 10 48  1  6
 11 49  1  0
 11 50  1  0
 12 51  1  0
 12 52  1  0
 14 53  1  0
 14 54  1  0
 14 55  1  0
 15 56  1  1
 16 57  1  0
 16 58  1  0
 17 59  1  0
 19 60  1  1
 20 61  1  0
 20 62  1  0
 21 63  1  0
 21 64  1  0
 22 65  1  1
 23 66  1  0
 25 67  1  0
 25 68  1  0
 25 69  1  0
 26 70  1  0
 26 71  1  0
 26 72  1  0
 28 73  1  0
 28 74  1  0
 28 75  1  0
 29 76  1  0
 29 77  1  0
 30 78  1  0
 30 79  1  0
 32 80  1  0
 32 81  1  0
 32 82  1  0
M  END
>  <meeko>  (12) 
{"is_sidechain": [false], "intermolecular_energy": 2.731, "internal_energy": -0.839}

$$$$
EPH_relaxed_0001_pdb2pqr_Repair_142_r2_0001_out
     RDKit          3D

 82 86  0  0  0  0  0  0  0  0999 V2000
    0.2850   10.3930   -3.6930 C   0  0  0  0  0  0  0  0  0  0  0  0
    1.1540   10.1500   -2.4560 C   0  0  2  0  0  0  0  0  0  0  0  0
    0.6850    8.9220   -1.6500 C   0  0  0  0  0  0  0  0  0  0  0  0
   -0.7290    8.4550   -2.0060 C   0  0  0  0  0  0  0  0  0  0  0  0
   -1.6520    8.5370   -0.8280 C   0  0  2  0  0  0  0  0  0  0  0  0
   -3.0160    8.8310   -1.1560 O   0  0  0  0  0  0  0  0  0  0  0  0
   -2.3240    9.8210   -0.3790 C   0  0  0  0  0  0  0  0  0  0  0  0
   -2.0980   11.1130   -1.1000 C   0  0  0  0  0  0  0  0  0  0  0  0
   -2.8040    9.9210    1.0360 C   0  0  0  0  0  0  0  0  0  0  0  0
    1.1520   11.3880   -1.5670 C   0  0  1  0  0  0  0  0  0  0  0  0
    1.9710   11.1900   -0.2640 C   0  0  0  0  0  0  0  0  0  0  0  0
    2.6310   12.5550    0.0610 C   0  0  0  0  0  0  0  0  0  0  0  0
    1.9120   13.5650   -0.8630 C   0  0  1  0  0  0  0  0  0  0  0  0
    0.5730   13.8960   -0.1320 C   0  0  0  0  0  0  0  0  0  0  0  0
    2.7100   14.8620   -1.2210 C   0  0  2  0  0  0  0  0  0  0  0  0
    3.0600   15.7640   -0.0250 C   0  0  0  0  0  0  0  0  0  0  0  0
    2.0480   16.8130    0.3000 C   0  0  0  0  0  0  0  0  0  0  0  0
    1.0460   17.2100   -0.5060 C   0  0  0  0  0  0  0  0  0  0  0  0
    0.9140   16.6550   -1.9300 C   0  0  1  0  0  0  0  0  0  0  0  0
    0.6530   17.8220   -2.9190 C   0  0  0  0  0  0  0  0  0  0  0  0
   -0.5430   18.6760   -2.5120 C   0  0  0  0  0  0  0  0  0  0  0  0
   -0.3490   19.2570   -1.1140 C   0  0  2  0  0  0  0  0  0  0  0  0
    0.7340   20.1930   -1.1500 O   0  0  0  0  0  0  0  0  0  0  0  0
   -0.0690   18.1750   -0.0340 C   0  0  0  0  0  0  0  0  0  0  0  0
   -1.3530   17.3480    0.2190 C   0  0  0  0  0  0  0  0  0  0  0  0
    0.2490   18.9030    1.3000 C   0  0  0  0  0  0  0  0  0  0  0  0
    2.0870   15.6970   -2.4120 C   0  0  1  0  0  0  0  0  0  0  0  0
    3.2490   16.5420   -3.0180 C   0  0  0  0  0  0  0  0  0  0  0  0
    1.5550   14.7770   -3.5740 C   0  0  0  0  0  0  0  0  0  0  0  0
    0.8840   13.4540   -3.1600 C   0  0  0  0  0  0  0  0  0  0  0  0
    1.7530   12.6880   -2.1580 C   0  0  2  0  0  0  0  0  0  0  0  0
    3.0980   12.3230   -2.8720 C   0  0  0  0  0  0  0  0  0  0  0  0
   -0.7300   10.6768   -3.3780 H   0  0  0  0  0  0  0  0  0  0  0  0
    0.7222   11.2033   -4.2948 H   0  0  0  0  0  0  0  0  0  0  0  0
    0.2385    9.4734   -4.2948 H   0  0  0  0  0  0  0  0  0  0  0  0
    2.1768    9.9455   -2.8053 H   0  0  0  0  0  0  0  0  0  0  0  0
    1.3828    8.0936   -1.8418 H   0  0  0  0  0  0  0  0  0  0  0  0
    0.6679    9.2200   -0.5913 H   0  0  0  0  0  0  0  0  0  0  0  0
   -1.1224    9.0915   -2.8123 H   0  0  0  0  0  0  0  0  0  0  0  0
   -0.6731    7.4040   -2.3258 H   0  0  0  0  0  0  0  0  0  0  0  0
   -1.0632    7.7834   -0.2845 H   0  0  0  0  0  0  0  0  0  0  0  0
   -1.9566   11.9216   -0.3678 H   0  0  0  0  0  0  0  0  0  0  0  0
   -1.2010   11.0287   -1.7310 H   0  0  0  0  0  0  0  0  0  0  0  0
   -2.9704   11.3382   -1.7310 H   0  0  0  0  0  0  0  0  0  0  0  0
   -1.9622    9.7456    1.7220 H   0  0  0  0  0  0  0  0  0  0  0  0
   -3.2180   10.9247    1.2127 H   0  0  0  0  0  0  0  0  0  0  0  0
   -3.5844    9.1661    1.2127 H   0  0  0  0  0  0  0  0  0  0  0  0
    0.0685   11.5071   -1.4193 H   0  0  0  0  0  0  0  0  0  0  0  0
    1.3070   10.8850    0.5582 H   0  0  0  0  0  0  0  0  0  0  0  0
    2.7303   10.4041   -0.3902 H   0  0  0  0  0  0  0  0  0  0  0  0
    2.4781   12.8185    1.1180 H   0  0  0  0  0  0  0  0  0  0  0  0
    3.7189   12.5418   -0.1014 H   0  0  0  0  0  0  0  0  0  0  0  0
    0.7299   13.8572    0.9561 H   0  0  0  0  0  0  0  0  0  0  0  0
    0.2383   14.9039   -0.4185 H   0  0  0  0  0  0  0  0  0  0  0  0
   -0.1928   13.1601   -0.4185 H   0  0  0  0  0  0  0  0  0  0  0  0
    3.6681   14.4583   -1.5803 H   0  0  0  0  0  0  0  0  0  0  0  0
    3.1813   15.1227    0.8604 H   0  0  0  0  0  0  0  0  0  0  0  0
    3.9766   16.3024   -0.3077 H   0  0  0  0  0  0  0  0  0  0  0  0
    2.1284   17.3028    1.2816 H   0  0  0  0  0  0  0  0  0  0  0  0
    0.0464   15.9790   -1.9137 H   0  0  0  0  0  0  0  0  0  0  0  0
    1.5474   18.4614   -2.9541 H   0  0  0  0  0  0  0  0  0  0  0  0
    0.4309   17.3830   -3.9028 H   0  0  0  0  0  0  0  0  0  0  0  0
   -0.6581   19.5001   -3.2314 H   0  0  0  0  0  0  0  0  0  0  0  0
   -1.4415   18.0414   -2.5065 H   0  0  0  0  0  0  0  0  0  0  0  0
   -1.2902   19.7491   -0.8277 H   0  0  0  0  0  0  0  0  0  0  0  0
    1.0250   20.3420   -0.2350 H   0  0  0  0  0  0  0  0  0  0  0  0
   -1.5146   17.2439    1.3021 H   0  0  0  0  0  0  0  0  0  0  0  0
   -2.2147   17.8613   -0.2327 H   0  0  0  0  0  0  0  0  0  0  0  0
   -1.2420   16.3512   -0.2327 H   0  0  0  0  0  0  0  0  0  0  0  0
   -0.0326   18.2584    2.1457 H   0  0  0  0  0  0  0  0  0  0  0  0
    1.3255   19.1237    1.3497 H   0  0  0  0  0  0  0  0  0  0  0  0
   -0.3206   19.8427    1.3497 H   0  0  0  0  0  0  0  0  0  0  0  0
    3.8482   16.9777   -2.2049 H   0  0  0  0  0  0  0  0  0  0  0  0
    3.8875   15.8958   -3.6383 H   0  0  0  0  0  0  0  0  0  0  0  0
    2.8310   17.3486   -3.6383 H   0  0  0  0  0  0  0  0  0  0  0  0
    0.8185   15.3583   -4.1481 H   0  0  0  0  0  0  0  0  0  0  0  0
    2.4506   14.4809   -4.1398 H   0  0  0  0  0  0  0  0  0  0  0  0
   -0.0896   13.6737   -2.6976 H   0  0  0  0  0  0  0  0  0  0  0  0
    0.7526   12.8318   -4.0575 H   0  0  0  0  0  0  0  0  0  0  0  0
    3.8693   12.1137   -2.1162 H   0  0  0  0  0  0  0  0  0  0  0  0
    2.9495   11.4327   -3.5007 H   0  0  0  0  0  0  0  0  0  0  0  0
    3.4200   13.1663   -3.5007 H   0  0  0  0  0  0  0  0  0  0  0  0
  1  2  1  0
  2  3  1  0
  3  4  1  0
  4  5  1  0
  5  6  1  0
  6  7  1  0
  7  8  1  0
  7  9  1  0
  2 10  1  0
 10 11  1  0
 11 12  1  0
 12 13  1  0
 13 14  1  1
 13 15  1  0
 15 16  1  0
 16 17  1  0
 17 18  2  0
 18 19  1  0
 19 20  1  0
 20 21  1  0
 21 22  1  0
 22 23  1  0
 22 24  1  0
 24 25  1  0
 24 26  1  0
 19 27  1  0
 27 28  1  6
 27 29  1  0
 29 30  1  0
 30 31  1  0
 31 32  1  6
  7  5  1  0
 31 10  1  0
 31 13  1  0
 27 15  1  0
 24 18  1  0
  1 33  1  0
  1 34  1  0
  1 35  1  0
  2 36  1  6
  3 37  1  0
  3 38  1  0
  4 39  1  0
  4 40  1  0
  5 41  1  1
  8 42  1  0
  8 43  1  0
  8 44  1  0
  9 45  1  0
  9 46  1  0
  9 47  1  0
 10 48  1  1
 11 49  1  0
 11 50  1  0
 12 51  1  0
 12 52  1  0
 14 53  1  0
 14 54  1  0
 14 55  1  0
 15 56  1  6
 16 57  1  0
 16 58  1  0
 17 59  1  0
 19 60  1  1
 20 61  1  0
 20 62  1  0
 21 63  1  0
 21 64  1  0
 22 65  1  1
 23 66  1  0
 25 67  1  0
 25 68  1  0
 25 69  1  0
 26 70  1  0
 26 71  1  0
 26 72  1  0
 28 73  1  0
 28 74  1  0
 28 75  1  0
 29 76  1  0
 29 77  1  0
 30 78  1  0
 30 79  1  0
 32 80  1  0
 32 81  1  0
 32 82  1  0
M  END
>  <meeko>  (13) 
{"is_sidechain": [false], "intermolecular_energy": 2.731, "internal_energy": -0.839}

$$$$
EPH_relaxed_0001_pdb2pqr_Repair_142_r2_0001_out
     RDKit          3D

 82 86  0  0  0  0  0  0  0  0999 V2000
   -5.1670    5.8600   -1.6690 C   0  0  0  0  0  0  0  0  0  0  0  0
   -5.4510    7.3610   -1.7630 C   0  0  2  0  0  0  0  0  0  0  0  0
   -5.2180    8.0820   -0.4200 C   0  0  0  0  0  0  0  0  0  0  0  0
   -4.1690    9.1950   -0.4930 C   0  0  0  0  0  0  0  0  0  0  0  0
   -2.8040    8.6520   -0.7900 C   0  0  2  0  0  0  0  0  0  0  0  0
   -1.8090    8.9620    0.1940 O   0  0  0  0  0  0  0  0  0  0  0  0
   -1.6070    9.5270   -1.1110 C   0  0  0  0  0  0  0  0  0  0  0  0
   -1.7200   11.0190   -1.1530 C   0  0  0  0  0  0  0  0  0  0  0  0
   -0.4590    8.9230   -1.8580 C   0  0  0  0  0  0  0  0  0  0  0  0
   -6.8810    7.5910   -2.2360 C   0  0  1  0  0  0  0  0  0  0  0  0
   -7.1820    6.8940   -3.5900 C   0  0  0  0  0  0  0  0  0  0  0  0
   -8.6590    6.4250   -3.5330 C   0  0  0  0  0  0  0  0  0  0  0  0
   -9.2510    7.1500   -2.3020 C   0  0  1  0  0  0  0  0  0  0  0  0
   -9.5950    8.5860   -2.8100 C   0  0  0  0  0  0  0  0  0  0  0  0
  -10.4830    6.4670   -1.6250 C   0  0  2  0  0  0  0  0  0  0  0  0
  -11.7320    6.3430   -2.5150 C   0  0  0  0  0  0  0  0  0  0  0  0
  -12.6840    7.4910   -2.4420 C   0  0  0  0  0  0  0  0  0  0  0  0
  -12.6910    8.4420   -1.4890 C   0  0  0  0  0  0  0  0  0  0  0  0
  -11.7340    8.3640   -0.2920 C   0  0  1  0  0  0  0  0  0  0  0  0
  -12.5170    8.6480    1.0160 C   0  0  0  0  0  0  0  0  0  0  0  0
  -13.2830    9.9660    0.9660 C   0  0  0  0  0  0  0  0  0  0  0  0
  -14.2650    9.9820   -0.2020 C   0  0  2  0  0  0  0  0  0  0  0  0
  -15.2870    9.0110    0.0420 O   0  0  0  0  0  0  0  0  0  0  0  0
  -13.5910    9.6990   -1.5740 C   0  0  0  0  0  0  0  0  0  0  0  0
  -12.7070   10.9040   -1.9780 C   0  0  0  0  0  0  0  0  0  0  0  0
  -14.7110    9.6030   -2.6450 C   0  0  0  0  0  0  0  0  0  0  0  0
  -10.8450    7.0500   -0.1990 C   0  0  1  0  0  0  0  0  0  0  0  0
  -11.6280    5.9310    0.5540 C   0  0  0  0  0  0  0  0  0  0  0  0
   -9.5650    7.3550    0.6650 C   0  0  0  0  0  0  0  0  0  0  0  0
   -8.3400    7.9170   -0.0820 C   0  0  0  0  0  0  0  0  0  0  0  0
   -8.0230    7.0780   -1.3240 C   0  0  2  0  0  0  0  0  0  0  0  0
   -7.6520    5.6340   -0.8430 C   0  0  0  0  0  0  0  0  0  0  0  0
   -5.1108    5.5630   -0.6113 H   0  0  0  0  0  0  0  0  0  0  0  0
   -5.9755    5.3021   -2.1640 H   0  0  0  0  0  0  0  0  0  0  0  0
   -4.2106    5.6361   -2.1640 H   0  0  0  0  0  0  0  0  0  0  0  0
   -4.7453    7.7856   -2.4922 H   0  0  0  0  0  0  0  0  0  0  0  0
   -6.1709    8.5237   -0.0931 H   0  0  0  0  0  0  0  0  0  0  0  0
   -4.8397    7.3295    0.2875 H   0  0  0  0  0  0  0  0  0  0  0  0
   -4.4526    9.9005   -1.2878 H   0  0  0  0  0  0  0  0  0  0  0  0
   -4.1329    9.6967    0.4852 H   0  0  0  0  0  0  0  0  0  0  0  0
   -3.2369    7.7782   -1.2990 H   0  0  0  0  0  0  0  0  0  0  0  0
   -1.7499   11.4135   -0.1266 H   0  0  0  0  0  0  0  0  0  0  0  0
   -0.8510   11.4378   -1.6816 H   0  0  0  0  0  0  0  0  0  0  0  0
   -2.6422   11.3021   -1.6816 H   0  0  0  0  0  0  0  0  0  0  0  0
    0.2802    8.5341   -1.1422 H   0  0  0  0  0  0  0  0  0  0  0  0
   -0.8250    8.1007   -2.4903 H   0  0  0  0  0  0  0  0  0  0  0  0
    0.0114    9.6904   -2.4903 H   0  0  0  0  0  0  0  0  0  0  0  0
   -6.8897    8.6905   -2.2679 H   0  0  0  0  0  0  0  0  0  0  0  0
   -7.0411    7.6019   -4.4200 H   0  0  0  0  0  0  0  0  0  0  0  0
   -6.5038    6.0440   -3.7561 H   0  0  0  0  0  0  0  0  0  0  0  0
   -9.1942    6.7151   -4.4492 H   0  0  0  0  0  0  0  0  0  0  0  0
   -8.7468    5.3313   -3.4552 H   0  0  0  0  0  0  0  0  0  0  0  0
   -9.7544    9.2513   -1.9486 H   0  0  0  0  0  0  0  0  0  0  0  0
   -8.7630    8.9684   -3.4196 H   0  0  0  0  0  0  0  0  0  0  0  0
  -10.5099    8.5499   -3.4196 H   0  0  0  0  0  0  0  0  0  0  0  0
  -10.1252    5.4387   -1.4682 H   0  0  0  0  0  0  0  0  0  0  0  0
  -11.3975    6.2447   -3.5583 H   0  0  0  0  0  0  0  0  0  0  0  0
  -12.2836    5.4663   -2.1446 H   0  0  0  0  0  0  0  0  0  0  0  0
  -13.4439    7.5661   -3.2338 H   0  0  0  0  0  0  0  0  0  0  0  0
  -10.9804    9.1489   -0.4535 H   0  0  0  0  0  0  0  0  0  0  0  0
  -13.2335    7.8301    1.1825 H   0  0  0  0  0  0  0  0  0  0  0  0
  -11.7851    8.7186    1.8341 H   0  0  0  0  0  0  0  0  0  0  0  0
  -13.8395   10.0948    1.9060 H   0  0  0  0  0  0  0  0  0  0  0  0
  -12.5624   10.7860    0.8302 H   0  0  0  0  0  0  0  0  0  0  0  0
  -14.6871   10.9959   -0.2641 H   0  0  0  0  0  0  0  0  0  0  0  0
  -15.9460    9.0920   -0.6680 H   0  0  0  0  0  0  0  0  0  0  0  0
  -12.3375   11.4076   -1.0725 H   0  0  0  0  0  0  0  0  0  0  0  0
  -11.8535   10.5490   -2.5743 H   0  0  0  0  0  0  0  0  0  0  0  0
  -13.3018   11.6116   -2.5743 H   0  0  0  0  0  0  0  0  0  0  0  0
  -15.6883    9.5192   -2.1471 H   0  0  0  0  0  0  0  0  0  0  0  0
  -14.6958   10.5057   -3.2734 H   0  0  0  0  0  0  0  0  0  0  0  0
  -14.5424    8.7160   -3.2734 H   0  0  0  0  0  0  0  0  0  0  0  0
  -11.5250    6.0782    1.6392 H   0  0  0  0  0  0  0  0  0  0  0  0
  -12.6915    5.9777    0.2769 H   0  0  0  0  0  0  0  0  0  0  0  0
  -11.2197    4.9479    0.2769 H   0  0  0  0  0  0  0  0  0  0  0  0
   -9.8499    8.0871    1.4349 H   0  0  0  0  0  0  0  0  0  0  0  0
   -9.2414    6.3785    1.0546 H   0  0  0  0  0  0  0  0  0  0  0  0
   -8.5502    8.9517   -0.3907 H   0  0  0  0  0  0  0  0  0  0  0  0
   -7.4724    7.8856    0.5934 H   0  0  0  0  0  0  0  0  0  0  0  0
   -7.6444    5.6044    0.2566 H   0  0  0  0  0  0  0  0  0  0  0  0
   -8.3954    4.9183   -1.2239 H   0  0  0  0  0  0  0  0  0  0  0  0
   -6.6557    5.3653   -1.2239 H   0  0  0  0  0  0  0  0  0  0  0  0
  1  2  1  0
  2  3  1  0
  3  4  1  0
  4  5  1  0
  5  6  1  0
  6  7  1  0
  7  8  1  0
  7  9  1  0
  2 10  1  0
 10 11  1  0
 11 12  1  0
 12 13  1  0
 13 14  1  6
 13 15  1  0
 15 16  1  0
 16 17  1  0
 17 18  2  0
 18 19  1  0
 19 20  1  0
 20 21  1  0
 21 22  1  0
 22 23  1  0
 22 24  1  0
 24 25  1  0
 24 26  1  0
 19 27  1  0
 27 28  1  1
 27 29  1  0
 29 30  1  0
 30 31  1  0
 31 32  1  1
  7  5  1  0
 31 10  1  0
 31 13  1  0
 27 15  1  0
 24 18  1  0
  1 33  1  0
  1 34  1  0
  1 35  1  0
  2 36  1  6
  3 37  1  0
  3 38  1  0
  4 39  1  0
  4 40  1  0
  5 41  1  6
  8 42  1  0
  8 43  1  0
  8 44  1  0
  9 45  1  0
  9 46  1  0
  9 47  1  0
 10 48  1  6
 11 49  1  0
 11 50  1  0
 12 51  1  0
 12 52  1  0
 14 53  1  0
 14 54  1  0
 14 55  1  0
 15 56  1  1
 16 57  1  0
 16 58  1  0
 17 59  1  0
 19 60  1  6
 20 61  1  0
 20 62  1  0
 21 63  1  0
 21 64  1  0
 22 65  1  6
 23 66  1  0
 25 67  1  0
 25 68  1  0
 25 69  1  0
 26 70  1  0
 26 71  1  0
 26 72  1  0
 28 73  1  0
 28 74  1  0
 28 75  1  0
 29 76  1  0
 29 77  1  0
 30 78  1  0
 30 79  1  0
 32 80  1  0
 32 81  1  0
 32 82  1  0
M  END
>  <meeko>  (14) 
{"is_sidechain": [false], "intermolecular_energy": 2.731, "internal_energy": -0.839}

$$$$
EPH_relaxed_0001_pdb2pqr_Repair_142_r2_0001_out
     RDKit          3D

 82 86  0  0  0  0  0  0  0  0999 V2000
    4.7380   17.4770   -2.9030 C   0  0  0  0  0  0  0  0  0  0  0  0
    3.2660   17.1250   -2.6710 C   0  0  2  0  0  0  0  0  0  0  0  0
    2.5170   18.2360   -1.9060 C   0  0  0  0  0  0  0  0  0  0  0  0
    1.4000   18.8970   -2.7190 C   0  0  0  0  0  0  0  0  0  0  0  0
    0.0990   18.8980   -1.9740 C   0  0  2  0  0  0  0  0  0  0  0  0
   -0.4880   20.1940   -1.7970 O   0  0  0  0  0  0  0  0  0  0  0  0
   -0.0770   19.5150   -0.5990 C   0  0  0  0  0  0  0  0  0  0  0  0
    1.0630   20.1740    0.1120 C   0  0  0  0  0  0  0  0  0  0  0  0
   -1.2180   19.0520    0.2520 C   0  0  0  0  0  0  0  0  0  0  0  0
    3.1600   15.8080   -1.9120 C   0  0  1  0  0  0  0  0  0  0  0  0
    3.6990   15.9100   -0.4600 C   0  0  0  0  0  0  0  0  0  0  0  0
    2.8150   14.9820    0.4120 C   0  0  0  0  0  0  0  0  0  0  0  0
    2.0200   14.1310   -0.6060 C   0  0  1  0  0  0  0  0  0  0  0  0
    3.0030   12.9980   -1.0370 C   0  0  0  0  0  0  0  0  0  0  0  0
    0.6560   13.5520   -0.1070 C   0  0  2  0  0  0  0  0  0  0  0  0
    0.7570   12.5700    1.0730 C   0  0  0  0  0  0  0  0  0  0  0  0
    0.9070   11.1330    0.6950 C   0  0  0  0  0  0  0  0  0  0  0  0
    0.6760   10.6170   -0.5260 C   0  0  0  0  0  0  0  0  0  0  0  0
    0.1220   11.4910   -1.6590 C   0  0  1  0  0  0  0  0  0  0  0  0
   -1.0370   10.7450   -2.3700 C   0  0  0  0  0  0  0  0  0  0  0  0
   -0.6300    9.3550   -2.8510 C   0  0  0  0  0  0  0  0  0  0  0  0
   -0.1390    8.4970   -1.6880 C   0  0  2  0  0  0  0  0  0  0  0  0
   -1.2390    8.2380   -0.8100 O   0  0  0  0  0  0  0  0  0  0  0  0
    1.0230    9.1520   -0.8900 C   0  0  0  0  0  0  0  0  0  0  0  0
    2.3090    9.1570   -1.7530 C   0  0  0  0  0  0  0  0  0  0  0  0
    1.3270    8.2510    0.3370 C   0  0  0  0  0  0  0  0  0  0  0  0
   -0.2660   12.9800   -1.2590 C   0  0  1  0  0  0  0  0  0  0  0  0
   -1.7290   13.0230   -0.7220 C   0  0  0  0  0  0  0  0  0  0  0  0
   -0.2400   13.8820   -2.5500 C   0  0  0  0  0  0  0  0  0  0  0  0
    1.1100   14.5220   -2.9230 C   0  0  0  0  0  0  0  0  0  0  0  0
    1.7430   15.2140   -1.7120 C   0  0  2  0  0  0  0  0  0  0  0  0
    0.7860   16.3730   -1.2690 C   0  0  0  0  0  0  0  0  0  0  0  0
    5.2433   17.5978   -1.9334 H   0  0  0  0  0  0  0  0  0  0  0  0
    5.2230   16.6695   -3.4711 H   0  0  0  0  0  0  0  0  0  0  0  0
    4.8052   18.4165   -3.4711 H   0  0  0  0  0  0  0  0  0  0  0  0
    2.7901   17.0247   -3.6576 H   0  0  0  0  0  0  0  0  0  0  0  0
    2.0738   17.7961   -1.0004 H   0  0  0  0  0  0  0  0  0  0  0  0
    3.2533   19.0197   -1.6744 H   0  0  0  0  0  0  0  0  0  0  0  0
    1.6859   19.9362   -2.9387 H   0  0  0  0  0  0  0  0  0  0  0  0
    1.2639   18.3215   -3.6465 H   0  0  0  0  0  0  0  0  0  0  0  0
   -0.1598   17.9077   -2.3768 H   0  0  0  0  0  0  0  0  0  0  0  0
    0.9157   20.0889    1.1988 H   0  0  0  0  0  0  0  0  0  0  0  0
    2.0051   19.6812   -0.1701 H   0  0  0  0  0  0  0  0  0  0  0  0
    1.1061   21.2363   -0.1701 H   0  0  0  0  0  0  0  0  0  0  0  0
   -0.9511   19.1603    1.3136 H   0  0  0  0  0  0  0  0  0  0  0  0
   -2.1084   19.6600    0.0339 H   0  0  0  0  0  0  0  0  0  0  0  0
   -1.4330   17.9955    0.0339 H   0  0  0  0  0  0  0  0  0  0  0  0
    3.7478   15.1623   -2.5810 H   0  0  0  0  0  0  0  0  0  0  0  0
    4.7476   15.5801   -0.4213 H   0  0  0  0  0  0  0  0  0  0  0  0
    3.6605   16.9475   -0.0966 H   0  0  0  0  0  0  0  0  0  0  0  0
    3.4387   14.3401    1.0515 H   0  0  0  0  0  0  0  0  0  0  0  0
    2.1563   15.5474    1.0876 H   0  0  0  0  0  0  0  0  0  0  0  0
    3.4216   12.5155   -0.1415 H   0  0  0  0  0  0  0  0  0  0  0  0
    2.4617   12.2514   -1.6366 H   0  0  0  0  0  0  0  0  0  0  0  0
    3.8185   13.4286   -1.6366 H   0  0  0  0  0  0  0  0  0  0  0  0
    0.1517   14.4451    0.2905 H   0  0  0  0  0  0  0  0  0  0  0  0
    1.6297   12.8551    1.6789 H   0  0  0  0  0  0  0  0  0  0  0  0
   -0.1978   12.6446    1.6140 H   0  0  0  0  0  0  0  0  0  0  0  0
    1.2342   10.4372    1.4817 H   0  0  0  0  0  0  0  0  0  0  0  0
    0.9550   11.6417   -2.3615 H   0  0  0  0  0  0  0  0  0  0  0  0
   -1.8755   10.6429   -1.6653 H   0  0  0  0  0  0  0  0  0  0  0  0
   -1.3210   11.3345   -3.2542 H   0  0  0  0  0  0  0  0  0  0  0  0
   -1.4986    8.8667   -3.3169 H   0  0  0  0  0  0  0  0  0  0  0  0
    0.1880    9.4610   -3.5787 H   0  0  0  0  0  0  0  0  0  0  0  0
    0.2596    7.5637   -2.1124 H   0  0  0  0  0  0  0  0  0  0  0  0
   -0.9820    8.5330    0.0790 H   0  0  0  0  0  0  0  0  0  0  0  0
    3.1914    9.1604   -1.0962 H   0  0  0  0  0  0  0  0  0  0  0  0
    2.3280    8.2589   -2.3879 H   0  0  0  0  0  0  0  0  0  0  0  0
    2.3210   10.0552   -2.3879 H   0  0  0  0  0  0  0  0  0  0  0  0
    1.1367    8.8149    1.2621 H   0  0  0  0  0  0  0  0  0  0  0  0
    0.6788    7.3627    0.3092 H   0  0  0  0  0  0  0  0  0  0  0  0
    2.3809    7.9370    0.3092 H   0  0  0  0  0  0  0  0  0  0  0  0
   -1.7160   13.0226    0.3779 H   0  0  0  0  0  0  0  0  0  0  0  0
   -2.2252   13.9361   -1.0825 H   0  0  0  0  0  0  0  0  0  0  0  0
   -2.2780   12.1406   -1.0825 H   0  0  0  0  0  0  0  0  0  0  0  0
   -0.5581   13.2581   -3.3983 H   0  0  0  0  0  0  0  0  0  0  0  0
   -0.9065   14.7274   -2.3238 H   0  0  0  0  0  0  0  0  0  0  0  0
    1.7913   13.7385   -3.2863 H   0  0  0  0  0  0  0  0  0  0  0  0
    0.9363   15.2752   -3.7057 H   0  0  0  0  0  0  0  0  0  0  0  0
    0.7487   16.4181   -0.1706 H   0  0  0  0  0  0  0  0  0  0  0  0
    1.1613   17.3291   -1.6627 H   0  0  0  0  0  0  0  0  0  0  0  0
   -0.2238   16.1854   -1.6627 H   0  0  0  0  0  0  0  0  0  0  0  0
  1  2  1  0
  2  3  1  0
  3  4  1  0
  4  5  1  0
  5  6  1  0
  6  7  1  0
  7  8  1  0
  7  9  1  0
  2 10  1  0
 10 11  1  0
 11 12  1  0
 12 13  1  0
 13 14  1  6
 13 15  1  0
 15 16  1  0
 16 17  1  0
 17 18  2  0
 18 19  1  0
 19 20  1  0
 20 21  1  0
 21 22  1  0
 22 23  1  0
 22 24  1  0
 24 25  1  0
 24 26  1  0
 19 27  1  0
 27 28  1  1
 27 29  1  0
 29 30  1  0
 30 31  1  0
 31 32  1  1
  7  5  1  0
 31 10  1  0
 31 13  1  0
 27 15  1  0
 24 18  1  0
  1 33  1  0
  1 34  1  0
  1 35  1  0
  2 36  1  6
  3 37  1  0
  3 38  1  0
  4 39  1  0
  4 40  1  0
  5 41  1  1
  8 42  1  0
  8 43  1  0
  8 44  1  0
  9 45  1  0
  9 46  1  0
  9 47  1  0
 10 48  1  6
 11 49  1  0
 11 50  1  0
 12 51  1  0
 12 52  1  0
 14 53  1  0
 14 54  1  0
 14 55  1  0
 15 56  1  1
 16 57  1  0
 16 58  1  0
 17 59  1  0
 19 60  1  6
 20 61  1  0
 20 62  1  0
 21 63  1  0
 21 64  1  0
 22 65  1  6
 23 66  1  0
 25 67  1  0
 25 68  1  0
 25 69  1  0
 26 70  1  0
 26 71  1  0
 26 72  1  0
 28 73  1  0
 28 74  1  0
 28 75  1  0
 29 76  1  0
 29 77  1  0
 30 78  1  0
 30 79  1  0
 32 80  1  0
 32 81  1  0
 32 82  1  0
M  END
>  <meeko>  (15) 
{"is_sidechain": [false], "intermolecular_energy": 2.731, "internal_energy": -0.839}

$$$$
EPH_relaxed_0001_pdb2pqr_Repair_142_r2_0001_out
     RDKit          3D

 82 86  0  0  0  0  0  0  0  0999 V2000
    2.6210   17.6660   -3.3480 C   0  0  0  0  0  0  0  0  0  0  0  0
    3.2430   16.9350   -2.1550 C   0  0  2  0  0  0  0  0  0  0  0  0
    4.7400   17.2650   -1.9870 C   0  0  0  0  0  0  0  0  0  0  0  0
    5.4220   17.7030   -3.2860 C   0  0  0  0  0  0  0  0  0  0  0  0
    6.0120   16.5380   -4.0220 C   0  0  2  0  0  0  0  0  0  0  0  0
    7.0370   15.8350   -3.3080 O   0  0  0  0  0  0  0  0  0  0  0  0
    7.4460   16.4980   -4.5150 C   0  0  0  0  0  0  0  0  0  0  0  0
    8.3800   17.6470   -4.2920 C   0  0  0  0  0  0  0  0  0  0  0  0
    7.7940   15.5620   -5.6300 C   0  0  0  0  0  0  0  0  0  0  0  0
    3.0560   15.4300   -2.3120 C   0  0  1  0  0  0  0  0  0  0  0  0
    4.3950   14.6840   -2.5560 C   0  0  0  0  0  0  0  0  0  0  0  0
    4.2770   13.3100   -1.8480 C   0  0  0  0  0  0  0  0  0  0  0  0
    2.7740   13.1740   -1.5090 C   0  0  1  0  0  0  0  0  0  0  0  0
    2.1060   12.6900   -2.8350 C   0  0  0  0  0  0  0  0  0  0  0  0
    2.4180   12.2380   -0.3090 C   0  0  2  0  0  0  0  0  0  0  0  0
    2.8060   10.7610   -0.4960 C   0  0  0  0  0  0  0  0  0  0  0  0
    1.7560    9.8990   -1.1150 C   0  0  0  0  0  0  0  0  0  0  0  0
    0.4550   10.2220   -1.2440 C   0  0  0  0  0  0  0  0  0  0  0  0
   -0.0950   11.5260   -0.6530 C   0  0  1  0  0  0  0  0  0  0  0  0
   -1.4140   11.2330    0.1090 C   0  0  0  0  0  0  0  0  0  0  0  0
   -2.4400   10.5060   -0.7550 C   0  0  0  0  0  0  0  0  0  0  0  0
   -1.8760    9.1870   -1.2760 C   0  0  2  0  0  0  0  0  0  0  0  0
   -1.6800    8.3000   -0.1710 O   0  0  0  0  0  0  0  0  0  0  0  0
   -0.5400    9.3550   -2.0540 C   0  0  0  0  0  0  0  0  0  0  0  0
   -0.8110   10.0600   -3.4060 C   0  0  0  0  0  0  0  0  0  0  0  0
   -0.0080    7.9390   -2.4010 C   0  0  0  0  0  0  0  0  0  0  0  0
    0.9300   12.3830    0.2080 C   0  0  1  0  0  0  0  0  0  0  0  0
    0.9220   11.8930    1.6880 C   0  0  0  0  0  0  0  0  0  0  0  0
    0.4500   13.8830    0.2350 C   0  0  0  0  0  0  0  0  0  0  0  0
    0.9320   14.7880   -0.9150 C   0  0  0  0  0  0  0  0  0  0  0  0
    2.4460   14.6600   -1.1150 C   0  0  2  0  0  0  0  0  0  0  0  0
    3.1450   15.1600    0.1950 C   0  0  0  0  0  0  0  0  0  0  0  0
    1.9484   18.4565   -2.9836 H   0  0  0  0  0  0  0  0  0  0  0  0
    3.4179   18.1154   -3.9587 H   0  0  0  0  0  0  0  0  0  0  0  0
    2.0498   16.9513   -3.9587 H   0  0  0  0  0  0  0  0  0  0  0  0
    2.7250   17.2816   -1.2486 H   0  0  0  0  0  0  0  0  0  0  0  0
    4.8363   18.0783   -1.2526 H   0  0  0  0  0  0  0  0  0  0  0  0
    5.2383   16.3414   -1.6572 H   0  0  0  0  0  0  0  0  0  0  0  0
    4.6782   18.1930   -3.9316 H   0  0  0  0  0  0  0  0  0  0  0  0
    6.2375   18.3951   -3.0289 H   0  0  0  0  0  0  0  0  0  0  0  0
    5.0535   16.3410   -4.5245 H   0  0  0  0  0  0  0  0  0  0  0  0
    8.5113   17.8085   -3.2119 H   0  0  0  0  0  0  0  0  0  0  0  0
    9.3543   17.4217   -4.7502 H   0  0  0  0  0  0  0  0  0  0  0  0
    7.9605   18.5548   -4.7502 H   0  0  0  0  0  0  0  0  0  0  0  0
    8.1485   14.6086   -5.2112 H   0  0  0  0  0  0  0  0  0  0  0  0
    6.9028   15.3818   -6.2491 H   0  0  0  0  0  0  0  0  0  0  0  0
    8.5865   16.0078   -6.2491 H   0  0  0  0  0  0  0  0  0  0  0  0
    2.3571   15.4191   -3.1614 H   0  0  0  0  0  0  0  0  0  0  0  0
    4.5582   14.5416   -3.6345 H   0  0  0  0  0  0  0  0  0  0  0  0
    5.2454   15.2597   -2.1617 H   0  0  0  0  0  0  0  0  0  0  0  0
    4.5990   12.4990   -2.5178 H   0  0  0  0  0  0  0  0  0  0  0  0
    4.9140   13.2454   -0.9536 H   0  0  0  0  0  0  0  0  0  0  0  0
    1.2361   12.0597   -2.5985 H   0  0  0  0  0  0  0  0  0  0  0  0
    1.7787   13.5620   -3.4203 H   0  0  0  0  0  0  0  0  0  0  0  0
    2.8327   12.1074   -3.4203 H   0  0  0  0  0  0  0  0  0  0  0  0
    3.0715   12.6203    0.4890 H   0  0  0  0  0  0  0  0  0  0  0  0
    3.6988   10.7228   -1.1375 H   0  0  0  0  0  0  0  0  0  0  0  0
    2.9720   10.3598    0.5147 H   0  0  0  0  0  0  0  0  0  0  0  0
    2.0716    8.9173   -1.4980 H   0  0  0  0  0  0  0  0  0  0  0  0
   -0.2974   12.1867   -1.5088 H   0  0  0  0  0  0  0  0  0  0  0  0
   -1.1840   10.6079    0.9844 H   0  0  0  0  0  0  0  0  0  0  0  0
   -1.8505   12.1986    0.4042 H   0  0  0  0  0  0  0  0  0  0  0  0
   -3.3375   10.3012   -0.1529 H   0  0  0  0  0  0  0  0  0  0  0  0
   -2.6916   11.1447   -1.6145 H   0  0  0  0  0  0  0  0  0  0  0  0
   -2.6053    8.7771   -1.9902 H   0  0  0  0  0  0  0  0  0  0  0  0
   -0.8010    7.8960   -0.2690 H   0  0  0  0  0  0  0  0  0  0  0  0
   -1.2000   11.0720   -3.2203 H   0  0  0  0  0  0  0  0  0  0  0  0
    0.1256   10.1266   -3.9790 H   0  0  0  0  0  0  0  0  0  0  0  0
   -1.5511    9.4821   -3.9790 H   0  0  0  0  0  0  0  0  0  0  0  0
    0.1992    7.3874   -1.4721 H   0  0  0  0  0  0  0  0  0  0  0  0
   -0.7638    7.3971   -2.9884 H   0  0  0  0  0  0  0  0  0  0  0  0
    0.9177    8.0289   -2.9884 H   0  0  0  0  0  0  0  0  0  0  0  0
    0.9362   12.7621    2.3621 H   0  0  0  0  0  0  0  0  0  0  0  0
    0.0141   11.3002    1.8731 H   0  0  0  0  0  0  0  0  0  0  0  0
    1.8101   11.2709    1.8731 H   0  0  0  0  0  0  0  0  0  0  0  0
   -0.6499   13.8807    0.2179 H   0  0  0  0  0  0  0  0  0  0  0  0
    0.8963   14.3114    1.1445 H   0  0  0  0  0  0  0  0  0  0  0  0
    0.4201   14.4940   -1.8432 H   0  0  0  0  0  0  0  0  0  0  0  0
    0.6985   15.8325   -0.6612 H   0  0  0  0  0  0  0  0  0  0  0  0
    2.6033   14.7725    1.0705 H   0  0  0  0  0  0  0  0  0  0  0  0
    4.1838   14.7988    0.2171 H   0  0  0  0  0  0  0  0  0  0  0  0
    3.1387   16.2598    0.2171 H   0  0  0  0  0  0  0  0  0  0  0  0
  1  2  1  0
  2  3  1  0
  3  4  1  0
  4  5  1  0
  5  6  1  0
  6  7  1  0
  7  8  1  0
  7  9  1  0
  2 10  1  0
 10 11  1  0
 11 12  1  0
 12 13  1  0
 13 14  1  6
 13 15  1  0
 15 16  1  0
 16 17  1  0
 17 18  2  0
 18 19  1  0
 19 20  1  0
 20 21  1  0
 21 22  1  0
 22 23  1  0
 22 24  1  0
 24 25  1  0
 24 26  1  0
 19 27  1  0
 27 28  1  1
 27 29  1  0
 29 30  1  0
 30 31  1  0
 31 32  1  1
  7  5  1  0
 31 10  1  0
 31 13  1  0
 27 15  1  0
 24 18  1  0
  1 33  1  0
  1 34  1  0
  1 35  1  0
  2 36  1  1
  3 37  1  0
  3 38  1  0
  4 39  1  0
  4 40  1  0
  5 41  1  6
  8 42  1  0
  8 43  1  0
  8 44  1  0
  9 45  1  0
  9 46  1  0
  9 47  1  0
 10 48  1  6
 11 49  1  0
 11 50  1  0
 12 51  1  0
 12 52  1  0
 14 53  1  0
 14 54  1  0
 14 55  1  0
 15 56  1  1
 16 57  1  0
 16 58  1  0
 17 59  1  0
 19 60  1  6
 20 61  1  0
 20 62  1  0
 21 63  1  0
 21 64  1  0
 22 65  1  6
 23 66  1  0
 25 67  1  0
 25 68  1  0
 25 69  1  0
 26 70  1  0
 26 71  1  0
 26 72  1  0
 28 73  1  0
 28 74  1  0
 28 75  1  0
 29 76  1  0
 29 77  1  0
 30 78  1  0
 30 79  1  0
 32 80  1  0
 32 81  1  0
 32 82  1  0
M  END
>  <meeko>  (16) 
{"is_sidechain": [false], "intermolecular_energy": 2.731, "internal_energy": -0.839}

$$$$
EPH_relaxed_0001_pdb2pqr_Repair_142_r2_0001_out
     RDKit          3D

 82 86  0  0  0  0  0  0  0  0999 V2000
   -0.2680   10.3580   -2.2040 C   0  0  0  0  0  0  0  0  0  0  0  0
    0.6550   10.2320   -0.9890 C   0  0  2  0  0  0  0  0  0  0  0  0
   -0.1340   10.1320    0.3320 C   0  0  0  0  0  0  0  0  0  0  0  0
    0.6280   10.6680    1.5460 C   0  0  0  0  0  0  0  0  0  0  0  0
   -0.1320   11.7560    2.2430 C   0  0  2  0  0  0  0  0  0  0  0  0
    0.4810   13.0500    2.1800 O   0  0  0  0  0  0  0  0  0  0  0  0
    0.3710   12.4640    3.4870 C   0  0  0  0  0  0  0  0  0  0  0  0
    1.6850   12.1100    4.1090 C   0  0  0  0  0  0  0  0  0  0  0  0
   -0.6240   13.1480    4.3720 C   0  0  0  0  0  0  0  0  0  0  0  0
    1.6100   11.4190   -0.9370 C   0  0  1  0  0  0  0  0  0  0  0  0
    2.9590   11.1330   -1.6480 C   0  0  0  0  0  0  0  0  0  0  0  0
    3.4120   12.4640   -2.3020 C   0  0  0  0  0  0  0  0  0  0  0  0
    2.4930   13.5390   -1.6740 C   0  0  1  0  0  0  0  0  0  0  0  0
    3.1360   13.8550   -0.2870 C   0  0  0  0  0  0  0  0  0  0  0  0
    2.2720   14.8360   -2.5170 C   0  0  2  0  0  0  0  0  0  0  0  0
    3.5410   15.6640   -2.7870 C   0  0  0  0  0  0  0  0  0  0  0  0
    3.8460   16.7130   -1.7700 C   0  0  0  0  0  0  0  0  0  0  0  0
    2.9880   17.1740   -0.8400 C   0  0  0  0  0  0  0  0  0  0  0  0
    1.5290   16.7020   -0.8120 C   0  0  1  0  0  0  0  0  0  0  0  0
    0.5910   17.9260   -0.6470 C   0  0  0  0  0  0  0  0  0  0  0  0
    0.9520   18.7810    0.5640 C   0  0  0  0  0  0  0  0  0  0  0  0
    2.3910   19.2800    0.4700 C   0  0  2  0  0  0  0  0  0  0  0  0
    2.4920   20.1940   -0.6260 O   0  0  0  0  0  0  0  0  0  0  0  0
    3.4270   18.1340    0.2930 C   0  0  0  0  0  0  0  0  0  0  0  0
    3.5320   17.3200    1.6060 C   0  0  0  0  0  0  0  0  0  0  0  0
    4.8200   18.7810    0.0700 C   0  0  0  0  0  0  0  0  0  0  0  0
    1.0860   15.7490   -2.0040 C   0  0  1  0  0  0  0  0  0  0  0  0
    0.6210   16.6030   -3.2230 C   0  0  0  0  0  0  0  0  0  0  0  0
   -0.1640   14.9060   -1.5500 C   0  0  0  0  0  0  0  0  0  0  0  0
    0.1200   13.5750   -0.8270 C   0  0  0  0  0  0  0  0  0  0  0  0
    1.1420   12.7380   -1.6030 C   0  0  2  0  0  0  0  0  0  0  0  0
    0.5150   12.3850   -2.9940 C   0  0  0  0  0  0  0  0  0  0  0  0
   -1.3045   10.4995   -1.8640 H   0  0  0  0  0  0  0  0  0  0  0  0
    0.0402   11.2224   -2.8105 H   0  0  0  0  0  0  0  0  0  0  0  0
   -0.2028    9.4426   -2.8105 H   0  0  0  0  0  0  0  0  0  0  0  0
    1.2268    9.2992   -1.1029 H   0  0  0  0  0  0  0  0  0  0  0  0
   -1.0652   10.7076    0.2247 H   0  0  0  0  0  0  0  0  0  0  0  0
   -0.3197    9.0634    0.5153 H   0  0  0  0  0  0  0  0  0  0  0  0
    0.7976    9.8426    2.2531 H   0  0  0  0  0  0  0  0  0  0  0  0
    1.5816   11.0881    1.1936 H   0  0  0  0  0  0  0  0  0  0  0  0
   -1.0899   11.2690    2.0077 H   0  0  0  0  0  0  0  0  0  0  0  0
    1.5907   12.1354    5.2047 H   0  0  0  0  0  0  0  0  0  0  0  0
    1.9815   11.1000    3.7898 H   0  0  0  0  0  0  0  0  0  0  0  0
    2.4488   12.8344    3.7898 H   0  0  0  0  0  0  0  0  0  0  0  0
   -0.3625   12.9682    5.4252 H   0  0  0  0  0  0  0  0  0  0  0  0
   -0.6115   14.2293    4.1705 H   0  0  0  0  0  0  0  0  0  0  0  0
   -1.6291   12.7491    4.1705 H   0  0  0  0  0  0  0  0  0  0  0  0
    1.6797   11.5514    0.1528 H   0  0  0  0  0  0  0  0  0  0  0  0
    3.7085   10.7961   -0.9167 H   0  0  0  0  0  0  0  0  0  0  0  0
    2.8471   10.3406   -2.4027 H   0  0  0  0  0  0  0  0  0  0  0  0
    4.4671   12.6714   -2.0702 H   0  0  0  0  0  0  0  0  0  0  0  0
    3.3347   12.4377   -3.3990 H   0  0  0  0  0  0  0  0  0  0  0  0
    2.4601   13.5228    0.5147 H   0  0  0  0  0  0  0  0  0  0  0  0
    4.0966   13.3264   -0.1992 H   0  0  0  0  0  0  0  0  0  0  0  0
    3.3044   14.9385   -0.1992 H   0  0  0  0  0  0  0  0  0  0  0  0
    1.9652   14.4319   -3.4930 H   0  0  0  0  0  0  0  0  0  0  0  0
    4.3955   14.9726   -2.8289 H   0  0  0  0  0  0  0  0  0  0  0  0
    3.3603   16.1988   -3.7311 H   0  0  0  0  0  0  0  0  0  0  0  0
    4.8571   17.1462   -1.7811 H   0  0  0  0  0  0  0  0  0  0  0  0
    1.4393   16.0435    0.0646 H   0  0  0  0  0  0  0  0  0  0  0  0
    0.6610   18.5483   -1.5514 H   0  0  0  0  0  0  0  0  0  0  0  0
   -0.4300   17.5460   -0.4949 H   0  0  0  0  0  0  0  0  0  0  0  0
    0.2734   19.6456    0.6094 H   0  0  0  0  0  0  0  0  0  0  0  0
    0.8523   18.1657    1.4704 H   0  0  0  0  0  0  0  0  0  0  0  0
    2.6310   19.7749    1.4226 H   0  0  0  0  0  0  0  0  0  0  0  0
    2.1620   19.7390   -1.4200 H   0  0  0  0  0  0  0  0  0  0  0  0
    3.4444   17.9994    2.4666 H   0  0  0  0  0  0  0  0  0  0  0  0
    2.7224   16.5762    1.6421 H   0  0  0  0  0  0  0  0  0  0  0  0
    4.5039   16.8060    1.6421 H   0  0  0  0  0  0  0  0  0  0  0  0
    5.2842   18.9966    1.0436 H   0  0  0  0  0  0  0  0  0  0  0  0
    5.4599   18.0879   -0.4958 H   0  0  0  0  0  0  0  0  0  0  0  0
    4.7032   19.7170   -0.4958 H   0  0  0  0  0  0  0  0  0  0  0  0
    0.1240   17.5158   -2.8629 H   0  0  0  0  0  0  0  0  0  0  0  0
    1.4943   16.8773   -3.8330 H   0  0  0  0  0  0  0  0  0  0  0  0
   -0.0833   16.0183   -3.8330 H   0  0  0  0  0  0  0  0  0  0  0  0
   -0.7592   15.5334   -0.8702 H   0  0  0  0  0  0  0  0  0  0  0  0
   -0.6743   14.6234   -2.4826 H   0  0  0  0  0  0  0  0  0  0  0  0
    0.5167   13.7879    0.1766 H   0  0  0  0  0  0  0  0  0  0  0  0
   -0.8189   13.0062   -0.7566 H   0  0  0  0  0  0  0  0  0  0  0  0
   -0.4345   11.8504   -2.8432 H   0  0  0  0  0  0  0  0  0  0  0  0
    0.3289   13.3109   -3.5579 H   0  0  0  0  0  0  0  0  0  0  0  0
    1.2102   11.7457   -3.5579 H   0  0  0  0  0  0  0  0  0  0  0  0
  1  2  1  0
  2  3  1  0
  3  4  1  0
  4  5  1  0
  5  6  1  0
  6  7  1  0
  7  8  1  0
  7  9  1  0
  2 10  1  0
 10 11  1  0
 11 12  1  0
 12 13  1  0
 13 14  1  1
 13 15  1  0
 15 16  1  0
 16 17  1  0
 17 18  2  0
 18 19  1  0
 19 20  1  0
 20 21  1  0
 21 22  1  0
 22 23  1  0
 22 24  1  0
 24 25  1  0
 24 26  1  0
 19 27  1  0
 27 28  1  6
 27 29  1  0
 29 30  1  0
 30 31  1  0
 31 32  1  6
  7  5  1  0
 31 10  1  0
 31 13  1  0
 27 15  1  0
 24 18  1  0
  1 33  1  0
  1 34  1  0
  1 35  1  0
  2 36  1  6
  3 37  1  0
  3 38  1  0
  4 39  1  0
  4 40  1  0
  5 41  1  1
  8 42  1  0
  8 43  1  0
  8 44  1  0
  9 45  1  0
  9 46  1  0
  9 47  1  0
 10 48  1  1
 11 49  1  0
 11 50  1  0
 12 51  1  0
 12 52  1  0
 14 53  1  0
 14 54  1  0
 14 55  1  0
 15 56  1  6
 16 57  1  0
 16 58  1  0
 17 59  1  0
 19 60  1  1
 20 61  1  0
 20 62  1  0
 21 63  1  0
 21 64  1  0
 22 65  1  1
 23 66  1  0
 25 67  1  0
 25 68  1  0
 25 69  1  0
 26 70  1  0
 26 71  1  0
 26 72  1  0
 28 73  1  0
 28 74  1  0
 28 75  1  0
 29 76  1  0
 29 77  1  0
 30 78  1  0
 30 79  1  0
 32 80  1  0
 32 81  1  0
 32 82  1  0
M  END
>  <meeko>  (17) 
{"is_sidechain": [false], "intermolecular_energy": 2.731, "internal_energy": -0.839}

$$$$
EPH_relaxed_0001_pdb2pqr_Repair_142_r2_0001_out
     RDKit          3D

 82 86  0  0  0  0  0  0  0  0999 V2000
    3.8270   18.0180    0.6390 C   0  0  0  0  0  0  0  0  0  0  0  0
    2.9460   18.4030   -0.5530 C   0  0  2  0  0  0  0  0  0  0  0  0
    2.1940   19.7280   -0.3160 C   0  0  0  0  0  0  0  0  0  0  0  0
    1.1730   19.6600    0.8230 C   0  0  0  0  0  0  0  0  0  0  0  0
   -0.1630   20.1940    0.4020 C   0  0  2  0  0  0  0  0  0  0  0  0
   -1.1590   20.1950    1.4320 O   0  0  0  0  0  0  0  0  0  0  0  0
   -1.4130   19.3390    0.3060 C   0  0  0  0  0  0  0  0  0  0  0  0
   -1.3860   17.8790    0.6320 C   0  0  0  0  0  0  0  0  0  0  0  0
   -2.5350   19.8090   -0.5670 C   0  0  0  0  0  0  0  0  0  0  0  0
    1.9520   17.2850   -0.8470 C   0  0  1  0  0  0  0  0  0  0  0  0
    0.8110   17.7350   -1.7980 C   0  0  0  0  0  0  0  0  0  0  0  0
    0.4580   16.5120   -2.6820 C   0  0  0  0  0  0  0  0  0  0  0  0
    1.1630   15.3180   -1.9970 C   0  0  1  0  0  0  0  0  0  0  0  0
    0.2120   14.9070   -0.8290 C   0  0  0  0  0  0  0  0  0  0  0  0
    1.5100   14.1010   -2.9140 C   0  0  2  0  0  0  0  0  0  0  0  0
    0.2980   13.3940   -3.5470 C   0  0  0  0  0  0  0  0  0  0  0  0
   -0.2740   12.2700   -2.7480 C   0  0  0  0  0  0  0  0  0  0  0  0
    0.3320   11.6590   -1.7140 C   0  0  0  0  0  0  0  0  0  0  0  0
    1.7670   12.0250   -1.3130 C   0  0  1  0  0  0  0  0  0  0  0  0
    2.5890   10.7280   -1.0890 C   0  0  0  0  0  0  0  0  0  0  0  0
    1.9280    9.7810   -0.0920 C   0  0  0  0  0  0  0  0  0  0  0  0
    0.5250    9.3950   -0.5540 C   0  0  2  0  0  0  0  0  0  0  0  0
    0.6330    8.6060   -1.7430 O   0  0  0  0  0  0  0  0  0  0  0  0
   -0.3920   10.6210   -0.8210 C   0  0  0  0  0  0  0  0  0  0  0  0
   -0.7530   11.3030    0.5220 C   0  0  0  0  0  0  0  0  0  0  0  0
   -1.7270   10.0980   -1.4150 C   0  0  0  0  0  0  0  0  0  0  0  0
    2.5090   13.0610   -2.2620 C   0  0  1  0  0  0  0  0  0  0  0  0
    3.1970   12.3060   -3.4400 C   0  0  0  0  0  0  0  0  0  0  0  0
    3.6620   13.7660   -1.4530 C   0  0  0  0  0  0  0  0  0  0  0  0
    3.2810   15.0320   -0.6620 C   0  0  0  0  0  0  0  0  0  0  0  0
    2.4980   16.0120   -1.5410 C   0  0  2  0  0  0  0  0  0  0  0  0
    3.4370   16.4600   -2.7120 C   0  0  0  0  0  0  0  0  0  0  0  0
    3.2982   18.2491    1.5755 H   0  0  0  0  0  0  0  0  0  0  0  0
    4.0481   16.9412    0.5988 H   0  0  0  0  0  0  0  0  0  0  0  0
    4.7674   18.5872    0.5988 H   0  0  0  0  0  0  0  0  0  0  0  0
    3.6076   18.5499   -1.4195 H   0  0  0  0  0  0  0  0  0  0  0  0
    2.9315   20.5078   -0.0754 H   0  0  0  0  0  0  0  0  0  0  0  0
    1.6346   19.9498   -1.2368 H   0  0  0  0  0  0  0  0  0  0  0  0
    1.0558   18.6116    1.1347 H   0  0  0  0  0  0  0  0  0  0  0  0
    1.5437   20.2788    1.6534 H   0  0  0  0  0  0  0  0  0  0  0  0
    0.3117   20.8890   -0.3062 H   0  0  0  0  0  0  0  0  0  0  0  0
   -1.3836   17.7471    1.7241 H   0  0  0  0  0  0  0  0  0  0  0  0
   -2.2753   17.3916    0.2058 H   0  0  0  0  0  0  0  0  0  0  0  0
   -0.4793   17.4248    0.2058 H   0  0  0  0  0  0  0  0  0  0  0  0
   -3.3675   20.1577    0.0618 H   0  0  0  0  0  0  0  0  0  0  0  0
   -2.1839   20.6357   -1.2021 H   0  0  0  0  0  0  0  0  0  0  0  0
   -2.8779   18.9789   -1.2021 H   0  0  0  0  0  0  0  0  0  0  0  0
    1.6338   17.0468    0.1787 H   0  0  0  0  0  0  0  0  0  0  0  0
   -0.0677   18.0470   -1.2144 H   0  0  0  0  0  0  0  0  0  0  0  0
    1.1245   18.5906   -2.4141 H   0  0  0  0  0  0  0  0  0  0  0  0
   -0.6304   16.3554   -2.7113 H   0  0  0  0  0  0  0  0  0  0  0  0
    0.7813   16.6444   -3.7250 H   0  0  0  0  0  0  0  0  0  0  0  0
    0.7009   15.1183    0.1335 H   0  0  0  0  0  0  0  0  0  0  0  0
   -0.7237   15.4810   -0.8988 H   0  0  0  0  0  0  0  0  0  0  0  0
   -0.0111   13.8321   -0.8988 H   0  0  0  0  0  0  0  0  0  0  0  0
    2.0460   14.5797   -3.7468 H   0  0  0  0  0  0  0  0  0  0  0  0
   -0.4936   14.1433   -3.6946 H   0  0  0  0  0  0  0  0  0  0  0  0
    0.6618   12.9469   -4.4839 H   0  0  0  0  0  0  0  0  0  0  0  0
   -1.2753   11.9112   -3.0284 H   0  0  0  0  0  0  0  0  0  0  0  0
    1.6858   12.5833   -0.3687 H   0  0  0  0  0  0  0  0  0  0  0  0
    2.6958   10.2075   -2.0522 H   0  0  0  0  0  0  0  0  0  0  0  0
    3.5659   11.0192   -0.6756 H   0  0  0  0  0  0  0  0  0  0  0  0
    2.5396    8.8714    0.0004 H   0  0  0  0  0  0  0  0  0  0  0  0
    1.8498   10.2921    0.8789 H   0  0  0  0  0  0  0  0  0  0  0  0
    0.0546    8.8245    0.2604 H   0  0  0  0  0  0  0  0  0  0  0  0
    1.1190    7.7960   -1.5160 H   0  0  0  0  0  0  0  0  0  0  0  0
   -0.4178   10.6697    1.3566 H   0  0  0  0  0  0  0  0  0  0  0  0
   -0.2550   12.2820    0.5816 H   0  0  0  0  0  0  0  0  0  0  0  0
   -1.8426   11.4416    0.5816 H   0  0  0  0  0  0  0  0  0  0  0  0
   -2.4120    9.8296   -0.5972 H   0  0  0  0  0  0  0  0  0  0  0  0
   -2.1852   10.8831   -2.0344 H   0  0  0  0  0  0  0  0  0  0  0  0
   -1.5300    9.2106   -2.0344 H   0  0  0  0  0  0  0  0  0  0  0  0
    3.8865   11.5493   -3.0376 H   0  0  0  0  0  0  0  0  0  0  0  0
    2.4311   11.8131   -4.0567 H   0  0  0  0  0  0  0  0  0  0  0  0
    3.7588   13.0230   -4.0567 H   0  0  0  0  0  0  0  0  0  0  0  0
    4.0619   13.0335   -0.7364 H   0  0  0  0  0  0  0  0  0  0  0  0
    4.3806   14.1065   -2.2130 H   0  0  0  0  0  0  0  0  0  0  0  0
    2.6594   14.7450    0.1990 H   0  0  0  0  0  0  0  0  0  0  0  0
    4.2040   15.5250   -0.3229 H   0  0  0  0  0  0  0  0  0  0  0  0
    4.3565   16.8987   -2.2973 H   0  0  0  0  0  0  0  0  0  0  0  0
    3.6937   15.5873   -3.3305 H   0  0  0  0  0  0  0  0  0  0  0  0
    2.9202   17.2086   -3.3305 H   0  0  0  0  0  0  0  0  0  0  0  0
  1  2  1  0
  2  3  1  0
  3  4  1  0
  4  5  1  0
  5  6  1  0
  6  7  1  0
  7  8  1  0
  7  9  1  0
  2 10  1  0
 10 11  1  0
 11 12  1  0
 12 13  1  0
 13 14  1  1
 13 15  1  0
 15 16  1  0
 16 17  1  0
 17 18  2  0
 18 19  1  0
 19 20  1  0
 20 21  1  0
 21 22  1  0
 22 23  1  0
 22 24  1  0
 24 25  1  0
 24 26  1  0
 19 27  1  0
 27 28  1  6
 27 29  1  0
 29 30  1  0
 30 31  1  0
 31 32  1  6
  7  5  1  0
 31 10  1  0
 31 13  1  0
 27 15  1  0
 24 18  1  0
  1 33  1  0
  1 34  1  0
  1 35  1  0
  2 36  1  6
  3 37  1  0
  3 38  1  0
  4 39  1  0
  4 40  1  0
  5 41  1  6
  8 42  1  0
  8 43  1  0
  8 44  1  0
  9 45  1  0
  9 46  1  0
  9 47  1  0
 10 48  1  1
 11 49  1  0
 11 50  1  0
 12 51  1  0
 12 52  1  0
 14 53  1  0
 14 54  1  0
 14 55  1  0
 15 56  1  6
 16 57  1  0
 16 58  1  0
 17 59  1  0
 19 60  1  1
 20 61  1  0
 20 62  1  0
 21 63  1  0
 21 64  1  0
 22 65  1  1
 23 66  1  0
 25 67  1  0
 25 68  1  0
 25 69  1  0
 26 70  1  0
 26 71  1  0
 26 72  1  0
 28 73  1  0
 28 74  1  0
 28 75  1  0
 29 76  1  0
 29 77  1  0
 30 78  1  0
 30 79  1  0
 32 80  1  0
 32 81  1  0
 32 82  1  0
M  END
>  <meeko>  (18) 
{"is_sidechain": [false], "intermolecular_energy": 2.731, "internal_energy": -0.839}

$$$$
EPH_relaxed_0001_pdb2pqr_Repair_142_r2_0001_out
     RDKit          3D

 82 86  0  0  0  0  0  0  0  0999 V2000
   -0.1500    8.4350   -3.3790 C   0  0  0  0  0  0  0  0  0  0  0  0
   -0.6340    8.8540   -1.9880 C   0  0  2  0  0  0  0  0  0  0  0  0
   -1.9690    8.1810   -1.6110 C   0  0  0  0  0  0  0  0  0  0  0  0
   -2.5940    7.3710   -2.7500 C   0  0  0  0  0  0  0  0  0  0  0  0
   -4.0810    7.5480   -2.8040 C   0  0  2  0  0  0  0  0  0  0  0  0
   -4.7670    7.2270   -1.5870 O   0  0  0  0  0  0  0  0  0  0  0  0
   -5.0640    6.3950   -2.7200 C   0  0  0  0  0  0  0  0  0  0  0  0
   -4.5970    4.9800   -2.5760 C   0  0  0  0  0  0  0  0  0  0  0  0
   -6.4440    6.5900   -3.2660 C   0  0  0  0  0  0  0  0  0  0  0  0
   -0.7790   10.3700   -1.9230 C   0  0  1  0  0  0  0  0  0  0  0  0
   -2.1110   10.8150   -1.2640 C   0  0  0  0  0  0  0  0  0  0  0  0
   -1.8070   12.1150   -0.4760 C   0  0  0  0  0  0  0  0  0  0  0  0
   -0.4100   12.5550   -0.9720 C   0  0  1  0  0  0  0  0  0  0  0  0
   -0.6760   13.2870   -2.3240 C   0  0  0  0  0  0  0  0  0  0  0  0
    0.4250   13.4400    0.0100 C   0  0  2  0  0  0  0  0  0  0  0  0
   -0.2010   14.8040    0.3520 C   0  0  0  0  0  0  0  0  0  0  0  0
    0.1890   15.9280   -0.5490 C   0  0  0  0  0  0  0  0  0  0  0  0
    1.2220   15.9170   -1.4120 C   0  0  0  0  0  0  0  0  0  0  0  0
    2.1840   14.7230   -1.4740 C   0  0  1  0  0  0  0  0  0  0  0  0
    3.6470   15.2370   -1.4930 C   0  0  0  0  0  0  0  0  0  0  0  0
    3.8980   16.2470   -2.6090 C   0  0  0  0  0  0  0  0  0  0  0  0
    2.9620   17.4460   -2.4800 C   0  0  2  0  0  0  0  0  0  0  0  0
    3.3010   18.1690   -1.2920 O   0  0  0  0  0  0  0  0  0  0  0  0
    1.4600   17.0500   -2.4400 C   0  0  0  0  0  0  0  0  0  0  0  0
    1.0190   16.5420   -3.8350 C   0  0  0  0  0  0  0  0  0  0  0  0
    0.6340   18.3360   -2.1660 C   0  0  0  0  0  0  0  0  0  0  0  0
    1.9500   13.5870   -0.3870 C   0  0  1  0  0  0  0  0  0  0  0  0
    2.7190   13.9390    0.9230 C   0  0  0  0  0  0  0  0  0  0  0  0
    2.5640   12.2370   -0.9140 C   0  0  0  0  0  0  0  0  0  0  0  0
    1.6500   11.3490   -1.7800 C   0  0  0  0  0  0  0  0  0  0  0  0
    0.2850   11.1520   -1.1130 C   0  0  2  0  0  0  0  0  0  0  0  0
    0.5190   10.3970    0.2400 C   0  0  0  0  0  0  0  0  0  0  0  0
    0.6782    7.7180   -3.2785 H   0  0  0  0  0  0  0  0  0  0  0  0
   -0.9781    7.9639   -3.9289 H   0  0  0  0  0  0  0  0  0  0  0  0
    0.1976    9.3220   -3.9289 H   0  0  0  0  0  0  0  0  0  0  0  0
    0.1210    8.5210   -1.2606 H   0  0  0  0  0  0  0  0  0  0  0  0
   -1.7893    7.5049   -0.7621 H   0  0  0  0  0  0  0  0  0  0  0  0
   -2.6762    8.9865   -1.3641 H   0  0  0  0  0  0  0  0  0  0  0  0
   -2.1603    7.7043   -3.7044 H   0  0  0  0  0  0  0  0  0  0  0  0
   -2.3813    6.3067   -2.5711 H   0  0  0  0  0  0  0  0  0  0  0  0
   -3.9797    8.3811   -3.5151 H   0  0  0  0  0  0  0  0  0  0  0  0
   -4.5139    4.7282   -1.5084 H   0  0  0  0  0  0  0  0  0  0  0  0
   -5.3199    4.3046   -3.0569 H   0  0  0  0  0  0  0  0  0  0  0  0
   -3.6141    4.8675   -3.0569 H   0  0  0  0  0  0  0  0  0  0  0  0
   -7.1566    6.6907   -2.4341 H   0  0  0  0  0  0  0  0  0  0  0  0
   -6.4691    7.5006   -3.8826 H   0  0  0  0  0  0  0  0  0  0  0  0
   -6.7204    5.7220   -3.8826 H   0  0  0  0  0  0  0  0  0  0  0  0
   -0.6884   10.6098   -2.9927 H   0  0  0  0  0  0  0  0  0  0  0  0
   -2.8697   11.0088   -2.0365 H   0  0  0  0  0  0  0  0  0  0  0  0
   -2.5036   10.0321   -0.5985 H   0  0  0  0  0  0  0  0  0  0  0  0
   -2.5584   12.8875   -0.6968 H   0  0  0  0  0  0  0  0  0  0  0  0
   -1.8326   11.9583    0.6125 H   0  0  0  0  0  0  0  0  0  0  0  0
   -1.0454   14.3036   -2.1240 H   0  0  0  0  0  0  0  0  0  0  0  0
    0.2591   13.3435   -2.9006 H   0  0  0  0  0  0  0  0  0  0  0  0
   -1.4292   12.7300   -2.9006 H   0  0  0  0  0  0  0  0  0  0  0  0
    0.3926   12.8546    0.9408 H   0  0  0  0  0  0  0  0  0  0  0  0
   -1.2949   14.6967    0.3077 H   0  0  0  0  0  0  0  0  0  0  0  0
    0.1754   15.0699    1.3508 H   0  0  0  0  0  0  0  0  0  0  0  0
   -0.4194   16.8433   -0.5040 H   0  0  0  0  0  0  0  0  0  0  0  0
    1.9600   14.2007   -2.4158 H   0  0  0  0  0  0  0  0  0  0  0  0
    3.8646   15.7170   -0.5275 H   0  0  0  0  0  0  0  0  0  0  0  0
    4.3025   14.3719   -1.6720 H   0  0  0  0  0  0  0  0  0  0  0  0
    4.9397   16.5956   -2.5515 H   0  0  0  0  0  0  0  0  0  0  0  0
    3.7094   15.7566   -3.5754 H   0  0  0  0  0  0  0  0  0  0  0  0
    3.0977   18.0684   -3.3768 H   0  0  0  0  0  0  0  0  0  0  0  0
    4.1650   18.5900   -1.4400 H   0  0  0  0  0  0  0  0  0  0  0  0
    0.3022   15.7163   -3.7148 H   0  0  0  0  0  0  0  0  0  0  0  0
    0.5425   17.3632   -4.3905 H   0  0  0  0  0  0  0  0  0  0  0  0
    1.8990   16.1857   -4.3905 H   0  0  0  0  0  0  0  0  0  0  0  0
    0.5379   18.4857   -1.0805 H   0  0  0  0  0  0  0  0  0  0  0  0
    1.1452   19.2020   -2.6117 H   0  0  0  0  0  0  0  0  0  0  0  0
   -0.3662   18.2313   -2.6117 H   0  0  0  0  0  0  0  0  0  0  0  0
    2.1076   13.6591    1.7935 H   0  0  0  0  0  0  0  0  0  0  0  0
    3.6698   13.3864    0.9498 H   0  0  0  0  0  0  0  0  0  0  0  0
    2.9221   15.0197    0.9498 H   0  0  0  0  0  0  0  0  0  0  0  0
    3.4510   12.4870   -1.5146 H   0  0  0  0  0  0  0  0  0  0  0  0
    2.7706   11.6432   -0.0114 H   0  0  0  0  0  0  0  0  0  0  0  0
    1.5060   11.8282   -2.7596 H   0  0  0  0  0  0  0  0  0  0  0  0
    2.1274   10.3652   -1.8991 H   0  0  0  0  0  0  0  0  0  0  0  0
    0.3087   11.0757    1.0797 H   0  0  0  0  0  0  0  0  0  0  0  0
   -0.1516    9.5268    0.2950 H   0  0  0  0  0  0  0  0  0  0  0  0
    1.5642   10.0586    0.2950 H   0  0  0  0  0  0  0  0  0  0  0  0
  1  2  1  0
  2  3  1  0
  3  4  1  0
  4  5  1  0
  5  6  1  0
  6  7  1  0
  7  8  1  0
  7  9  1  0
  2 10  1  0
 10 11  1  0
 11 12  1  0
 12 13  1  0
 13 14  1  6
 13 15  1  0
 15 16  1  0
 16 17  1  0
 17 18  2  0
 18 19  1  0
 19 20  1  0
 20 21  1  0
 21 22  1  0
 22 23  1  0
 22 24  1  0
 24 25  1  0
 24 26  1  0
 19 27  1  0
 27 28  1  1
 27 29  1  0
 29 30  1  0
 30 31  1  0
 31 32  1  1
  7  5  1  0
 31 10  1  0
 31 13  1  0
 27 15  1  0
 24 18  1  0
  1 33  1  0
  1 34  1  0
  1 35  1  0
  2 36  1  1
  3 37  1  0
  3 38  1  0
  4 39  1  0
  4 40  1  0
  5 41  1  6
  8 42  1  0
  8 43  1  0
  8 44  1  0
  9 45  1  0
  9 46  1  0
  9 47  1  0
 10 48  1  6
 11 49  1  0
 11 50  1  0
 12 51  1  0
 12 52  1  0
 14 53  1  0
 14 54  1  0
 14 55  1  0
 15 56  1  1
 16 57  1  0
 16 58  1  0
 17 59  1  0
 19 60  1  6
 20 61  1  0
 20 62  1  0
 21 63  1  0
 21 64  1  0
 22 65  1  6
 23 66  1  0
 25 67  1  0
 25 68  1  0
 25 69  1  0
 26 70  1  0
 26 71  1  0
 26 72  1  0
 28 73  1  0
 28 74  1  0
 28 75  1  0
 29 76  1  0
 29 77  1  0
 30 78  1  0
 30 79  1  0
 32 80  1  0
 32 81  1  0
 32 82  1  0
M  END
>  <meeko>  (19) 
{"is_sidechain": [false], "intermolecular_energy": 2.731, "internal_energy": -0.839}

$$$$
