EPH_relaxed_0001_pdb2pqr_Repair_347_r2_0001_out
     RDKit          3D

 82 86  0  0  0  0  0  0  0  0999 V2000
   -0.6080    7.7980   -2.2180 C   0  0  0  0  0  0  0  0  0  0  0  0
   -1.3230    8.4060   -1.0080 C   0  0  2  0  0  0  0  0  0  0  0  0
   -2.8130    8.6820   -1.2920 C   0  0  0  0  0  0  0  0  0  0  0  0
   -3.4790    7.6210   -2.1710 C   0  0  0  0  0  0  0  0  0  0  0  0
   -4.9440    7.4970   -1.8780 C   0  0  2  0  0  0  0  0  0  0  0  0
   -5.3680    6.1840   -1.4890 O   0  0  0  0  0  0  0  0  0  0  0  0
   -5.9010    6.6820   -2.7270 C   0  0  0  0  0  0  0  0  0  0  0  0
   -5.4300    5.9360   -3.9360 C   0  0  0  0  0  0  0  0  0  0  0  0
   -7.3620    7.0040   -2.6680 C   0  0  0  0  0  0  0  0  0  0  0  0
   -0.6260    9.6930   -0.5850 C   0  0  1  0  0  0  0  0  0  0  0  0
    0.4130    9.4670    0.5460 C   0  0  0  0  0  0  0  0  0  0  0  0
    1.5780   10.4560    0.2890 C   0  0  0  0  0  0  0  0  0  0  0  0
    1.0280   11.4380   -0.7720 C   0  0  1  0  0  0  0  0  0  0  0  0
    0.1700   12.4620    0.0350 C   0  0  0  0  0  0  0  0  0  0  0  0
    2.0920   12.1550   -1.6670 C   0  0  2  0  0  0  0  0  0  0  0  0
    3.0720   13.0680   -0.9110 C   0  0  0  0  0  0  0  0  0  0  0  0
    2.6420   14.4900   -0.7720 C   0  0  0  0  0  0  0  0  0  0  0  0
    1.6570   15.0810   -1.4740 C   0  0  0  0  0  0  0  0  0  0  0  0
    0.9260   14.3280   -2.5930 C   0  0  1  0  0  0  0  0  0  0  0  0
    0.8190   15.2380   -3.8460 C   0  0  0  0  0  0  0  0  0  0  0  0
    0.1780   16.5870   -3.5350 C   0  0  0  0  0  0  0  0  0  0  0  0
    0.9660   17.3310   -2.4600 C   0  0  2  0  0  0  0  0  0  0  0  0
    2.2490   17.6830   -2.9890 O   0  0  0  0  0  0  0  0  0  0  0  0
    1.1470   16.5080   -1.1540 C   0  0  0  0  0  0  0  0  0  0  0  0
   -0.2130   16.3860   -0.4230 C   0  0  0  0  0  0  0  0  0  0  0  0
    2.0770   17.3140   -0.2070 C   0  0  0  0  0  0  0  0  0  0  0  0
    1.4870   12.8810   -2.9360 C   0  0  1  0  0  0  0  0  0  0  0  0
    2.6420   12.9920   -3.9780 C   0  0  0  0  0  0  0  0  0  0  0  0
    0.3480   12.0380   -3.6230 C   0  0  0  0  0  0  0  0  0  0  0  0
   -0.5960   11.2570   -2.6900 C   0  0  0  0  0  0  0  0  0  0  0  0
    0.1970   10.4440   -1.6620 C   0  0  2  0  0  0  0  0  0  0  0  0
    1.0530    9.3900   -2.4440 C   0  0  0  0  0  0  0  0  0  0  0  0
    0.1875    7.1216   -1.8721 H   0  0  0  0  0  0  0  0  0  0  0  0
   -1.3308    7.2336   -2.8255 H   0  0  0  0  0  0  0  0  0  0  0  0
   -0.1671    8.6021   -2.8255 H   0  0  0  0  0  0  0  0  0  0  0  0
   -1.2737    7.6711   -0.1910 H   0  0  0  0  0  0  0  0  0  0  0  0
   -3.3477    8.7228   -0.3316 H   0  0  0  0  0  0  0  0  0  0  0  0
   -2.8644    9.6333   -1.8420 H   0  0  0  0  0  0  0  0  0  0  0  0
   -3.3492    7.9004   -3.2270 H   0  0  0  0  0  0  0  0  0  0  0  0
   -3.0038    6.6521   -1.9579 H   0  0  0  0  0  0  0  0  0  0  0  0
   -4.9822    8.5336   -1.5121 H   0  0  0  0  0  0  0  0  0  0  0  0
   -4.8674    5.0449   -3.6209 H   0  0  0  0  0  0  0  0  0  0  0  0
   -6.2977    5.6279   -4.5379 H   0  0  0  0  0  0  0  0  0  0  0  0
   -4.7788    6.5869   -4.5379 H   0  0  0  0  0  0  0  0  0  0  0  0
   -7.6799    7.0741   -1.6173 H   0  0  0  0  0  0  0  0  0  0  0  0
   -7.5464    7.9644   -3.1717 H   0  0  0  0  0  0  0  0  0  0  0  0
   -7.9331    6.2102   -3.1717 H   0  0  0  0  0  0  0  0  0  0  0  0
   -1.5035   10.2903   -0.2967 H   0  0  0  0  0  0  0  0  0  0  0  0
   -0.0446    9.6675    1.5260 H   0  0  0  0  0  0  0  0  0  0  0  0
    0.7719    8.4272    0.5498 H   0  0  0  0  0  0  0  0  0  0  0  0
    1.8443   10.9910    1.2125 H   0  0  0  0  0  0  0  0  0  0  0  0
    2.4922    9.9457   -0.0485 H   0  0  0  0  0  0  0  0  0  0  0  0
    0.3128   12.2915    1.1123 H   0  0  0  0  0  0  0  0  0  0  0  0
    0.4847   13.4849   -0.2193 H   0  0  0  0  0  0  0  0  0  0  0  0
   -0.8922   12.3313   -0.2193 H   0  0  0  0  0  0  0  0  0  0  0  0
    2.6948   11.3129   -2.0378 H   0  0  0  0  0  0  0  0  0  0  0  0
    3.2109   12.6549    0.0990 H   0  0  0  0  0  0  0  0  0  0  0  0
    3.9940   13.0867   -1.5107 H   0  0  0  0  0  0  0  0  0  0  0  0
    3.1747   15.1074   -0.0337 H   0  0  0  0  0  0  0  0  0  0  0  0
   -0.0794   14.1077   -2.2049 H   0  0  0  0  0  0  0  0  0  0  0  0
    1.8299   15.4110   -4.2437 H   0  0  0  0  0  0  0  0  0  0  0  0
    0.1788   14.7245   -4.5784 H   0  0  0  0  0  0  0  0  0  0  0  0
    0.1567   17.1952   -4.4513 H   0  0  0  0  0  0  0  0  0  0  0  0
   -0.8431   16.4133   -3.1646 H   0  0  0  0  0  0  0  0  0  0  0  0
    0.3890   18.2273   -2.1886 H   0  0  0  0  0  0  0  0  0  0  0  0
    2.6500   16.8740   -3.3500 H   0  0  0  0  0  0  0  0  0  0  0  0
   -0.0474   16.4009    0.6644 H   0  0  0  0  0  0  0  0  0  0  0  0
   -0.8590   17.2298   -0.7071 H   0  0  0  0  0  0  0  0  0  0  0  0
   -0.6985   15.4407   -0.7071 H   0  0  0  0  0  0  0  0  0  0  0  0
    1.8186   17.0901    0.8385 H   0  0  0  0  0  0  0  0  0  0  0  0
    3.1238   17.0327   -0.3943 H   0  0  0  0  0  0  0  0  0  0  0  0
    1.9473   18.3901   -0.3943 H   0  0  0  0  0  0  0  0  0  0  0  0
    3.6033   13.0844   -3.4514 H   0  0  0  0  0  0  0  0  0  0  0  0
    2.6546   12.0909   -4.6088 H   0  0  0  0  0  0  0  0  0  0  0  0
    2.4828   13.8790   -4.6088 H   0  0  0  0  0  0  0  0  0  0  0  0
   -0.2677   12.7308   -4.2154 H   0  0  0  0  0  0  0  0  0  0  0  0
    0.8725   11.2701   -4.2106 H   0  0  0  0  0  0  0  0  0  0  0  0
   -1.2480   11.9677   -2.1610 H   0  0  0  0  0  0  0  0  0  0  0  0
   -1.1952   10.5636   -3.2983 H   0  0  0  0  0  0  0  0  0  0  0  0
    1.5796    8.7416   -1.7283 H   0  0  0  0  0  0  0  0  0  0  0  0
    0.3930    8.7780   -3.0763 H   0  0  0  0  0  0  0  0  0  0  0  0
    1.7873    9.9105   -3.0763 H   0  0  0  0  0  0  0  0  0  0  0  0
  1  2  1  0
  2  3  1  0
  3  4  1  0
  4  5  1  0
  5  6  1  0
  6  7  1  0
  7  8  1  0
  7  9  1  0
  2 10  1  0
 10 11  1  0
 11 12  1  0
 12 13  1  0
 13 14  1  1
 13 15  1  0
 15 16  1  0
 16 17  1  0
 17 18  2  0
 18 19  1  0
 19 20  1  0
 20 21  1  0
 21 22  1  0
 22 23  1  0
 22 24  1  0
 24 25  1  0
 24 26  1  0
 19 27  1  0
 27 28  1  6
 27 29  1  0
 29 30  1  0
 30 31  1  0
 31 32  1  6
  7  5  1  0
 31 10  1  0
 31 13  1  0
 27 15  1  0
 24 18  1  0
  1 33  1  0
  1 34  1  0
  1 35  1  0
  2 36  1  1
  3 37  1  0
  3 38  1  0
  4 39  1  0
  4 40  1  0
  5 41  1  1
  8 42  1  0
  8 43  1  0
  8 44  1  0
  9 45  1  0
  9 46  1  0
  9 47  1  0
 10 48  1  1
 11 49  1  0
 11 50  1  0
 12 51  1  0
 12 52  1  0
 14 53  1  0
 14 54  1  0
 14 55  1  0
 15 56  1  6
 16 57  1  0
 16 58  1  0
 17 59  1  0
 19 60  1  1
 20 61  1  0
 20 62  1  0
 21 63  1  0
 21 64  1  0
 22 65  1  1
 23 66  1  0
 25 67  1  0
 25 68  1  0
 25 69  1  0
 26 70  1  0
 26 71  1  0
 26 72  1  0
 28 73  1  0
 28 74  1  0
 28 75  1  0
 29 76  1  0
 29 77  1  0
 30 78  1  0
 30 79  1  0
 32 80  1  0
 32 81  1  0
 32 82  1  0
M  END
>  <meeko>  (1) 
{"is_sidechain": [false], "intermolecular_energy": 2.731, "internal_energy": -0.839}

$$$$
EPH_relaxed_0001_pdb2pqr_Repair_347_r2_0001_out
     RDKit          3D

 82 86  0  0  0  0  0  0  0  0999 V2000
    2.2860   19.8750   -0.8510 C   0  0  0  0  0  0  0  0  0  0  0  0
    2.0940   18.9220    0.3320 C   0  0  2  0  0  0  0  0  0  0  0  0
    3.4380   18.4740    0.9410 C   0  0  0  0  0  0  0  0  0  0  0  0
    3.7500   19.1270    2.2910 C   0  0  0  0  0  0  0  0  0  0  0  0
    5.2260   19.2160    2.5350 C   0  0  2  0  0  0  0  0  0  0  0  0
    5.7730   18.1300    3.2940 O   0  0  0  0  0  0  0  0  0  0  0  0
    5.8350   19.4270    3.9090 C   0  0  0  0  0  0  0  0  0  0  0  0
    4.9790   19.5630    5.1290 C   0  0  0  0  0  0  0  0  0  0  0  0
    7.2200   19.9860    3.9990 C   0  0  0  0  0  0  0  0  0  0  0  0
    1.2900   17.7040   -0.1070 C   0  0  1  0  0  0  0  0  0  0  0  0
    0.1420   18.0670   -1.0870 C   0  0  0  0  0  0  0  0  0  0  0  0
    0.0150   16.8860   -2.0830 C   0  0  0  0  0  0  0  0  0  0  0  0
    0.8530   15.7510   -1.4520 C   0  0  1  0  0  0  0  0  0  0  0  0
   -0.0820   15.1100   -0.3790 C   0  0  0  0  0  0  0  0  0  0  0  0
    1.4180   14.6780   -2.4400 C   0  0  2  0  0  0  0  0  0  0  0  0
    0.3550   13.8640   -3.1970 C   0  0  0  0  0  0  0  0  0  0  0  0
   -0.0840   12.6060   -2.5240 C   0  0  0  0  0  0  0  0  0  0  0  0
    0.5540   12.0000   -1.5050 C   0  0  0  0  0  0  0  0  0  0  0  0
    1.9000   12.5300   -0.9920 C   0  0  1  0  0  0  0  0  0  0  0  0
    2.8900   11.3480   -0.8220 C   0  0  0  0  0  0  0  0  0  0  0  0
    2.3280   10.2360    0.0580 C   0  0  0  0  0  0  0  0  0  0  0  0
    1.0210    9.6950   -0.5160 C   0  0  2  0  0  0  0  0  0  0  0  0
    1.3000    9.0350   -1.7550 O   0  0  0  0  0  0  0  0  0  0  0  0
   -0.0520   10.7970   -0.7410 C   0  0  0  0  0  0  0  0  0  0  0  0
   -0.5730   11.3030    0.6270 C   0  0  0  0  0  0  0  0  0  0  0  0
   -1.2660   10.1430   -1.4540 C   0  0  0  0  0  0  0  0  0  0  0  0
    2.5260   13.7390   -1.8120 C   0  0  1  0  0  0  0  0  0  0  0  0
    3.3730   13.1930   -3.0020 C   0  0  0  0  0  0  0  0  0  0  0  0
    3.5230   14.5280   -0.8820 C   0  0  0  0  0  0  0  0  0  0  0  0
    2.9240   15.6550   -0.0200 C   0  0  0  0  0  0  0  0  0  0  0  0
    2.0490   16.5860   -0.8640 C   0  0  2  0  0  0  0  0  0  0  0  0
    2.9670   17.2610   -1.9390 C   0  0  0  0  0  0  0  0  0  0  0  0
    2.4902   20.8887   -0.4758 H   0  0  0  0  0  0  0  0  0  0  0  0
    3.1333   19.5331   -1.4635 H   0  0  0  0  0  0  0  0  0  0  0  0
    1.3724   19.8879   -1.4635 H   0  0  0  0  0  0  0  0  0  0  0  0
    1.5442   19.4694    1.1118 H   0  0  0  0  0  0  0  0  0  0  0  0
    3.4095   17.3833    1.0810 H   0  0  0  0  0  0  0  0  0  0  0  0
    4.2279   18.7868    0.2422 H   0  0  0  0  0  0  0  0  0  0  0  0
    3.3247   20.1414    2.3032 H   0  0  0  0  0  0  0  0  0  0  0  0
    3.3080   18.5051    3.0834 H   0  0  0  0  0  0  0  0  0  0  0  0
    5.3786   19.7284    1.5737 H   0  0  0  0  0  0  0  0  0  0  0  0
    5.6043   19.4637    6.0286 H   0  0  0  0  0  0  0  0  0  0  0  0
    4.4927   20.5497    5.1276 H   0  0  0  0  0  0  0  0  0  0  0  0
    4.2109   18.7756    5.1276 H   0  0  0  0  0  0  0  0  0  0  0  0
    7.5015   20.0996    5.0563 H   0  0  0  0  0  0  0  0  0  0  0  0
    7.9245   19.3018    3.5034 H   0  0  0  0  0  0  0  0  0  0  0  0
    7.2522   20.9675    3.5034 H   0  0  0  0  0  0  0  0  0  0  0  0
    0.9613   17.3362    0.8762 H   0  0  0  0  0  0  0  0  0  0  0  0
   -0.7999   18.1998   -0.5346 H   0  0  0  0  0  0  0  0  0  0  0  0
    0.3558   19.0080   -1.6150 H   0  0  0  0  0  0  0  0  0  0  0  0
   -1.0360   16.5794   -2.1896 H   0  0  0  0  0  0  0  0  0  0  0  0
    0.3652   17.1516   -3.0914 H   0  0  0  0  0  0  0  0  0  0  0  0
    0.2864   15.3625    0.6262 H   0  0  0  0  0  0  0  0  0  0  0  0
   -1.1035   15.4986   -0.5035 H   0  0  0  0  0  0  0  0  0  0  0  0
   -0.0878   14.0171   -0.5035 H   0  0  0  0  0  0  0  0  0  0  0  0
    1.9171   15.2969   -3.2002 H   0  0  0  0  0  0  0  0  0  0  0  0
   -0.5297   14.5034   -3.3326 H   0  0  0  0  0  0  0  0  0  0  0  0
    0.8247   13.5552   -4.1425 H   0  0  0  0  0  0  0  0  0  0  0  0
   -1.0070   12.1341   -2.8918 H   0  0  0  0  0  0  0  0  0  0  0  0
    1.6949   12.9881   -0.0132 H   0  0  0  0  0  0  0  0  0  0  0  0
    3.1160   10.9318   -1.8148 H   0  0  0  0  0  0  0  0  0  0  0  0
    3.7939   11.7376   -0.3310 H   0  0  0  0  0  0  0  0  0  0  0  0
    3.0612    9.4181    0.1171 H   0  0  0  0  0  0  0  0  0  0  0  0
    2.1289   10.6466    1.0589 H   0  0  0  0  0  0  0  0  0  0  0  0
    0.6015    8.9949    0.2215 H   0  0  0  0  0  0  0  0  0  0  0  0
    1.8350    8.2480   -1.5550 H   0  0  0  0  0  0  0  0  0  0  0  0
   -0.0392   10.7846    1.4372 H   0  0  0  0  0  0  0  0  0  0  0  0
   -0.3991   12.3862    0.7077 H   0  0  0  0  0  0  0  0  0  0  0  0
   -1.6506   11.0976    0.7077 H   0  0  0  0  0  0  0  0  0  0  0  0
   -1.9721    9.7626   -0.7012 H   0  0  0  0  0  0  0  0  0  0  0  0
   -1.7690   10.8922   -2.0830 H   0  0  0  0  0  0  0  0  0  0  0  0
   -0.9171    9.3108   -2.0830 H   0  0  0  0  0  0  0  0  0  0  0  0
    4.2374   12.6358   -2.6116 H   0  0  0  0  0  0  0  0  0  0  0  0
    2.7529   12.5241   -3.6169 H   0  0  0  0  0  0  0  0  0  0  0  0
    3.7262   14.0339   -3.6169 H   0  0  0  0  0  0  0  0  0  0  0  0
    3.9896   13.8006   -0.2014 H   0  0  0  0  0  0  0  0  0  0  0  0
    4.2206   15.0303   -1.5683 H   0  0  0  0  0  0  0  0  0  0  0  0
    2.3108   15.2104    0.7777 H   0  0  0  0  0  0  0  0  0  0  0  0
    3.7483   16.2431    0.4097 H   0  0  0  0  0  0  0  0  0  0  0  0
    3.7552   17.8406   -1.4363 H   0  0  0  0  0  0  0  0  0  0  0  0
    3.4272   16.4846   -2.5678 H   0  0  0  0  0  0  0  0  0  0  0  0
    2.3631   17.9318   -2.5678 H   0  0  0  0  0  0  0  0  0  0  0  0
  1  2  1  0
  2  3  1  0
  3  4  1  0
  4  5  1  0
  5  6  1  0
  6  7  1  0
  7  8  1  0
  7  9  1  0
  2 10  1  0
 10 11  1  0
 11 12  1  0
 12 13  1  0
 13 14  1  1
 13 15  1  0
 15 16  1  0
 16 17  1  0
 17 18  2  0
 18 19  1  0
 19 20  1  0
 20 21  1  0
 21 22  1  0
 22 23  1  0
 22 24  1  0
 24 25  1  0
 24 26  1  0
 19 27  1  0
 27 28  1  6
 27 29  1  0
 29 30  1  0
 30 31  1  0
 31 32  1  6
  7  5  1  0
 31 10  1  0
 31 13  1  0
 27 15  1  0
 24 18  1  0
  1 33  1  0
  1 34  1  0
  1 35  1  0
  2 36  1  1
  3 37  1  0
  3 38  1  0
  4 39  1  0
  4 40  1  0
  5 41  1  6
  8 42  1  0
  8 43  1  0
  8 44  1  0
  9 45  1  0
  9 46  1  0
  9 47  1  0
 10 48  1  1
 11 49  1  0
 11 50  1  0
 12 51  1  0
 12 52  1  0
 14 53  1  0
 14 54  1  0
 14 55  1  0
 15 56  1  6
 16 57  1  0
 16 58  1  0
 17 59  1  0
 19 60  1  1
 20 61  1  0
 20 62  1  0
 21 63  1  0
 21 64  1  0
 22 65  1  1
 23 66  1  0
 25 67  1  0
 25 68  1  0
 25 69  1  0
 26 70  1  0
 26 71  1  0
 26 72  1  0
 28 73  1  0
 28 74  1  0
 28 75  1  0
 29 76  1  0
 29 77  1  0
 30 78  1  0
 30 79  1  0
 32 80  1  0
 32 81  1  0
 32 82  1  0
M  END
>  <meeko>  (2) 
{"is_sidechain": [false], "intermolecular_energy": 2.731, "internal_energy": -0.839}

$$$$
EPH_relaxed_0001_pdb2pqr_Repair_347_r2_0001_out
     RDKit          3D

 82 86  0  0  0  0  0  0  0  0999 V2000
   -0.3810   18.2380   -0.1040 C   0  0  0  0  0  0  0  0  0  0  0  0
    0.9240   17.5240   -0.4700 C   0  0  2  0  0  0  0  0  0  0  0  0
    1.8790   18.4330   -1.2700 C   0  0  0  0  0  0  0  0  0  0  0  0
    2.2360   19.7360   -0.5500 C   0  0  0  0  0  0  0  0  0  0  0  0
    3.4630   19.5820    0.2970 C   0  0  2  0  0  0  0  0  0  0  0  0
    3.4200   18.4870    1.2210 O   0  0  0  0  0  0  0  0  0  0  0  0
    3.4770   19.8020    1.7980 C   0  0  0  0  0  0  0  0  0  0  0  0
    2.2380   20.1940    2.5410 C   0  0  0  0  0  0  0  0  0  0  0  0
    4.7810   20.1120    2.4640 C   0  0  0  0  0  0  0  0  0  0  0  0
    0.6200   16.2600   -1.2650 C   0  0  1  0  0  0  0  0  0  0  0  0
    0.8500   16.4420   -2.7890 C   0  0  0  0  0  0  0  0  0  0  0  0
    1.3800   15.0890   -3.3270 C   0  0  0  0  0  0  0  0  0  0  0  0
    1.1250   14.0850   -2.1770 C   0  0  1  0  0  0  0  0  0  0  0  0
   -0.3800   13.6940   -2.3140 C   0  0  0  0  0  0  0  0  0  0  0  0
    2.0480   12.8240   -2.1430 C   0  0  2  0  0  0  0  0  0  0  0  0
    1.9330   11.8970   -3.3650 C   0  0  0  0  0  0  0  0  0  0  0  0
    0.9170   10.8100   -3.2470 C   0  0  0  0  0  0  0  0  0  0  0  0
    0.3310   10.4080   -2.1040 C   0  0  0  0  0  0  0  0  0  0  0  0
    0.7500   11.0020   -0.7530 C   0  0  1  0  0  0  0  0  0  0  0  0
    0.9460    9.8580    0.2770 C   0  0  0  0  0  0  0  0  0  0  0  0
   -0.2800    8.9570    0.3910 C   0  0  0  0  0  0  0  0  0  0  0  0
   -0.6300    8.3400   -0.9610 C   0  0  2  0  0  0  0  0  0  0  0  0
    0.4140    7.4380   -1.3400 O   0  0  0  0  0  0  0  0  0  0  0  0
   -0.8410    9.3960   -2.0810 C   0  0  0  0  0  0  0  0  0  0  0  0
   -2.1530   10.1780   -1.8190 C   0  0  0  0  0  0  0  0  0  0  0  0
   -1.0480    8.6380   -3.4200 C   0  0  0  0  0  0  0  0  0  0  0  0
    1.9800   12.0080   -0.7890 C   0  0  1  0  0  0  0  0  0  0  0  0
    3.3180   11.2150   -0.6790 C   0  0  0  0  0  0  0  0  0  0  0  0
    1.9140   12.9460    0.4730 C   0  0  0  0  0  0  0  0  0  0  0  0
    1.0830   14.2360    0.3370 C   0  0  0  0  0  0  0  0  0  0  0  0
    1.4550   14.9960   -0.9390 C   0  0  2  0  0  0  0  0  0  0  0  0
    2.9580   15.4230   -0.8210 C   0  0  0  0  0  0  0  0  0  0  0  0
   -0.4760   18.2900    0.9907 H   0  0  0  0  0  0  0  0  0  0  0  0
   -0.3709   19.2563   -0.5199 H   0  0  0  0  0  0  0  0  0  0  0  0
   -1.2331   17.6804   -0.5199 H   0  0  0  0  0  0  0  0  0  0  0  0
    1.4306   17.2590    0.4697 H   0  0  0  0  0  0  0  0  0  0  0  0
    2.8083   17.8766   -1.4622 H   0  0  0  0  0  0  0  0  0  0  0  0
    1.3566   18.7109   -2.1973 H   0  0  0  0  0  0  0  0  0  0  0  0
    2.4165   20.5201   -1.3001 H   0  0  0  0  0  0  0  0  0  0  0  0
    1.3966   20.0060    0.1076 H   0  0  0  0  0  0  0  0  0  0  0  0
    4.0981   19.9725   -0.5118 H   0  0  0  0  0  0  0  0  0  0  0  0
    2.4253   20.1347    3.6233 H   0  0  0  0  0  0  0  0  0  0  0  0
    1.9600   21.2240    2.2728 H   0  0  0  0  0  0  0  0  0  0  0  0
    1.4182   19.5113    2.2728 H   0  0  0  0  0  0  0  0  0  0  0  0
    4.6515   20.0812    3.5559 H   0  0  0  0  0  0  0  0  0  0  0  0
    5.5327   19.3675    2.1628 H   0  0  0  0  0  0  0  0  0  0  0  0
    5.1172   21.1151    2.1628 H   0  0  0  0  0  0  0  0  0  0  0  0
   -0.4282   16.1051   -0.9695 H   0  0  0  0  0  0  0  0  0  0  0  0
   -0.0960   16.7027   -3.2862 H   0  0  0  0  0  0  0  0  0  0  0  0
    1.5669   17.2528   -2.9857 H   0  0  0  0  0  0  0  0  0  0  0  0
    0.8320   14.7896   -4.2326 H   0  0  0  0  0  0  0  0  0  0  0  0
    2.4420   15.1393   -3.6091 H   0  0  0  0  0  0  0  0  0  0  0  0
   -0.8216   13.5793   -1.3131 H   0  0  0  0  0  0  0  0  0  0  0  0
   -0.9153   14.4829   -2.8627 H   0  0  0  0  0  0  0  0  0  0  0  0
   -0.4636   12.7443   -2.8627 H   0  0  0  0  0  0  0  0  0  0  0  0
    3.0535   13.2664   -2.1990 H   0  0  0  0  0  0  0  0  0  0  0  0
    1.6705   12.5145   -4.2366 H   0  0  0  0  0  0  0  0  0  0  0  0
    2.9070   11.3944   -3.4586 H   0  0  0  0  0  0  0  0  0  0  0  0
    0.6222   10.2938   -4.1725 H   0  0  0  0  0  0  0  0  0  0  0  0
   -0.0791   11.6518   -0.4363 H   0  0  0  0  0  0  0  0  0  0  0  0
    1.8054    9.2463   -0.0347 H   0  0  0  0  0  0  0  0  0  0  0  0
    1.1136   10.3199    1.2612 H   0  0  0  0  0  0  0  0  0  0  0  0
   -0.0698    8.1521    1.1107 H   0  0  0  0  0  0  0  0  0  0  0  0
   -1.1319    9.5639    0.7316 H   0  0  0  0  0  0  0  0  0  0  0  0
   -1.5881    7.8123   -0.8443 H   0  0  0  0  0  0  0  0  0  0  0  0
    1.2580    7.8280   -1.0540 H   0  0  0  0  0  0  0  0  0  0  0  0
   -2.3128   10.2733   -0.7348 H   0  0  0  0  0  0  0  0  0  0  0  0
   -2.0789   11.1794   -2.2681 H   0  0  0  0  0  0  0  0  0  0  0  0
   -2.9986    9.6364   -2.2681 H   0  0  0  0  0  0  0  0  0  0  0  0
   -1.3325    7.5961   -3.2113 H   0  0  0  0  0  0  0  0  0  0  0  0
   -1.8455    9.1270   -3.9987 H   0  0  0  0  0  0  0  0  0  0  0  0
   -0.1127    8.6538   -3.9987 H   0  0  0  0  0  0  0  0  0  0  0  0
    3.5697   11.0658    0.3814 H   0  0  0  0  0  0  0  0  0  0  0  0
    3.2062   10.2372   -1.1704 H   0  0  0  0  0  0  0  0  0  0  0  0
    4.1220   11.7825   -1.1704 H   0  0  0  0  0  0  0  0  0  0  0  0
    1.4869   12.3607    1.3007 H   0  0  0  0  0  0  0  0  0  0  0  0
    2.9479   13.2853    0.6338 H   0  0  0  0  0  0  0  0  0  0  0  0
    0.0152   13.9740    0.3014 H   0  0  0  0  0  0  0  0  0  0  0  0
    1.2927   14.8810    1.2030 H   0  0  0  0  0  0  0  0  0  0  0  0
    3.2346   15.5016    0.2408 H   0  0  0  0  0  0  0  0  0  0  0  0
    3.5927   14.6696   -1.3105 H   0  0  0  0  0  0  0  0  0  0  0  0
    3.1018   16.3975   -1.3105 H   0  0  0  0  0  0  0  0  0  0  0  0
  1  2  1  0
  2  3  1  0
  3  4  1  0
  4  5  1  0
  5  6  1  0
  6  7  1  0
  7  8  1  0
  7  9  1  0
  2 10  1  0
 10 11  1  0
 11 12  1  0
 12 13  1  0
 13 14  1  1
 13 15  1  0
 15 16  1  0
 16 17  1  0
 17 18  2  0
 18 19  1  0
 19 20  1  0
 20 21  1  0
 21 22  1  0
 22 23  1  0
 22 24  1  0
 24 25  1  0
 24 26  1  0
 19 27  1  0
 27 28  1  1
 27 29  1  0
 29 30  1  0
 30 31  1  0
 31 32  1  1
  7  5  1  0
 31 10  1  0
 31 13  1  0
 27 15  1  0
 24 18  1  0
  1 33  1  0
  1 34  1  0
  1 35  1  0
  2 36  1  1
  3 37  1  0
  3 38  1  0
  4 39  1  0
  4 40  1  0
  5 41  1  6
  8 42  1  0
  8 43  1  0
  8 44  1  0
  9 45  1  0
  9 46  1  0
  9 47  1  0
 10 48  1  6
 11 49  1  0
 11 50  1  0
 12 51  1  0
 12 52  1  0
 14 53  1  0
 14 54  1  0
 14 55  1  0
 15 56  1  6
 16 57  1  0
 16 58  1  0
 17 59  1  0
 19 60  1  1
 20 61  1  0
 20 62  1  0
 21 63  1  0
 21 64  1  0
 22 65  1  1
 23 66  1  0
 25 67  1  0
 25 68  1  0
 25 69  1  0
 26 70  1  0
 26 71  1  0
 26 72  1  0
 28 73  1  0
 28 74  1  0
 28 75  1  0
 29 76  1  0
 29 77  1  0
 30 78  1  0
 30 79  1  0
 32 80  1  0
 32 81  1  0
 32 82  1  0
M  END
>  <meeko>  (3) 
{"is_sidechain": [false], "intermolecular_energy": 2.731, "internal_energy": -0.839}

$$$$
EPH_relaxed_0001_pdb2pqr_Repair_347_r2_0001_out
     RDKit          3D

 82 86  0  0  0  0  0  0  0  0999 V2000
    2.0600   17.9620   -2.6830 C   0  0  0  0  0  0  0  0  0  0  0  0
    0.8320   17.3960   -1.9630 C   0  0  2  0  0  0  0  0  0  0  0  0
    1.0000   17.4100   -0.4300 C   0  0  0  0  0  0  0  0  0  0  0  0
    0.7920   18.7910    0.1990 C   0  0  0  0  0  0  0  0  0  0  0  0
   -0.6330   19.0010    0.6150 C   0  0  2  0  0  0  0  0  0  0  0  0
   -1.5820   18.1600   -0.0540 O   0  0  0  0  0  0  0  0  0  0  0  0
   -1.6970   19.5700   -0.3050 C   0  0  0  0  0  0  0  0  0  0  0  0
   -1.3820   19.9660   -1.7130 C   0  0  0  0  0  0  0  0  0  0  0  0
   -2.9120   20.1940    0.3080 C   0  0  0  0  0  0  0  0  0  0  0  0
    0.5570   15.9760   -2.4430 C   0  0  1  0  0  0  0  0  0  0  0  0
    0.8620   15.7860   -3.9530 C   0  0  0  0  0  0  0  0  0  0  0  0
    1.4060   14.3450   -4.1220 C   0  0  0  0  0  0  0  0  0  0  0  0
    1.0890   13.6480   -2.7790 C   0  0  1  0  0  0  0  0  0  0  0  0
   -0.4110   13.2290   -2.8890 C   0  0  0  0  0  0  0  0  0  0  0  0
    2.0000   12.4360   -2.3960 C   0  0  2  0  0  0  0  0  0  0  0  0
    1.9360   11.2410   -3.3630 C   0  0  0  0  0  0  0  0  0  0  0  0
    0.9070   10.2100   -3.0350 C   0  0  0  0  0  0  0  0  0  0  0  0
    0.2640   10.0930   -1.8590 C   0  0  0  0  0  0  0  0  0  0  0  0
    0.6220   10.9970   -0.6720 C   0  0  1  0  0  0  0  0  0  0  0  0
    0.7600   10.1370    0.6110 C   0  0  0  0  0  0  0  0  0  0  0  0
   -0.4770    9.2850    0.8800 C   0  0  0  0  0  0  0  0  0  0  0  0
   -0.7670    8.3580   -0.2980 C   0  0  2  0  0  0  0  0  0  0  0  0
    0.2880    7.3960   -0.3980 O   0  0  0  0  0  0  0  0  0  0  0  0
   -0.9160    9.1120   -1.6490 C   0  0  0  0  0  0  0  0  0  0  0  0
   -2.2320    9.9280   -1.6470 C   0  0  0  0  0  0  0  0  0  0  0  0
   -1.0640    8.0520   -2.7740 C   0  0  0  0  0  0  0  0  0  0  0  0
    1.8600   11.9700   -0.8910 C   0  0  1  0  0  0  0  0  0  0  0  0
    3.1860   11.2330   -0.5280 C   0  0  0  0  0  0  0  0  0  0  0  0
    1.7410   13.1850    0.1030 C   0  0  0  0  0  0  0  0  0  0  0  0
    0.9270   14.4010   -0.3800 C   0  0  0  0  0  0  0  0  0  0  0  0
    1.3660   14.8320   -1.7820 C   0  0  2  0  0  0  0  0  0  0  0  0
    2.8650   15.2800   -1.6980 C   0  0  0  0  0  0  0  0  0  0  0  0
    2.7966   18.3015   -1.9399 H   0  0  0  0  0  0  0  0  0  0  0  0
    2.5085   17.1798   -3.3130 H   0  0  0  0  0  0  0  0  0  0  0  0
    1.7566   18.8111   -3.3130 H   0  0  0  0  0  0  0  0  0  0  0  0
   -0.0228   18.0437   -2.2077 H   0  0  0  0  0  0  0  0  0  0  0  0
    0.2668   16.7156    0.0062 H   0  0  0  0  0  0  0  0  0  0  0  0
    2.0374   17.1125   -0.2173 H   0  0  0  0  0  0  0  0  0  0  0  0
    1.4389   18.8808    1.0842 H   0  0  0  0  0  0  0  0  0  0  0  0
    1.0458   19.5525   -0.5531 H   0  0  0  0  0  0  0  0  0  0  0  0
   -0.3210   19.2668    1.6358 H   0  0  0  0  0  0  0  0  0  0  0  0
   -0.6972   20.8268   -1.7073 H   0  0  0  0  0  0  0  0  0  0  0  0
   -0.9057   19.1220   -2.2334 H   0  0  0  0  0  0  0  0  0  0  0  0
   -2.3115   20.2403   -2.2334 H   0  0  0  0  0  0  0  0  0  0  0  0
   -2.8318   20.1528    1.4043 H   0  0  0  0  0  0  0  0  0  0  0  0
   -2.9881   21.2428   -0.0150 H   0  0  0  0  0  0  0  0  0  0  0  0
   -3.8088   19.6449   -0.0150 H   0  0  0  0  0  0  0  0  0  0  0  0
   -0.5052   15.8922   -2.1699 H   0  0  0  0  0  0  0  0  0  0  0  0
   -0.0566   15.9158   -4.5441 H   0  0  0  0  0  0  0  0  0  0  0  0
    1.5942   16.5280   -4.3042 H   0  0  0  0  0  0  0  0  0  0  0  0
    0.8993   13.8338   -4.9538 H   0  0  0  0  0  0  0  0  0  0  0  0
    2.4807   14.3298   -4.3562 H   0  0  0  0  0  0  0  0  0  0  0  0
   -0.8336   13.1109   -1.8803 H   0  0  0  0  0  0  0  0  0  0  0  0
   -0.9697   14.0055   -3.4321 H   0  0  0  0  0  0  0  0  0  0  0  0
   -0.4865   12.2754   -3.4321 H   0  0  0  0  0  0  0  0  0  0  0  0
    3.0106   12.8561   -2.5067 H   0  0  0  0  0  0  0  0  0  0  0  0
    1.7196   11.6291   -4.3692 H   0  0  0  0  0  0  0  0  0  0  0  0
    2.9095   10.7347   -3.2862 H   0  0  0  0  0  0  0  0  0  0  0  0
    0.6530    9.4844   -3.8218 H   0  0  0  0  0  0  0  0  0  0  0  0
   -0.2168   11.7000   -0.5609 H   0  0  0  0  0  0  0  0  0  0  0  0
    1.6286    9.4717    0.4978 H   0  0  0  0  0  0  0  0  0  0  0  0
    0.8841   10.8235    1.4615 H   0  0  0  0  0  0  0  0  0  0  0  0
   -0.3075    8.6788    1.7821 H   0  0  0  0  0  0  0  0  0  0  0  0
   -1.3395    9.9528    1.0222 H   0  0  0  0  0  0  0  0  0  0  0  0
   -1.7332    7.8696   -0.1033 H   0  0  0  0  0  0  0  0  0  0  0  0
    0.4420    7.0350    0.4910 H   0  0  0  0  0  0  0  0  0  0  0  0
   -2.5425   10.1205   -0.6094 H   0  0  0  0  0  0  0  0  0  0  0  0
   -2.0709   10.8849   -2.1651 H   0  0  0  0  0  0  0  0  0  0  0  0
   -3.0175    9.3583   -2.1651 H   0  0  0  0  0  0  0  0  0  0  0  0
   -1.2028    7.0575   -2.3248 H   0  0  0  0  0  0  0  0  0  0  0  0
   -1.9365    8.2980   -3.3971 H   0  0  0  0  0  0  0  0  0  0  0  0
   -0.1575    8.0496   -3.3971 H   0  0  0  0  0  0  0  0  0  0  0  0
    3.2867   11.1770    0.5659 H   0  0  0  0  0  0  0  0  0  0  0  0
    3.1668   10.2161   -0.9470 H   0  0  0  0  0  0  0  0  0  0  0  0
    4.0395   11.7862   -0.9470 H   0  0  0  0  0  0  0  0  0  0  0  0
    1.2705   12.8150    1.0259 H   0  0  0  0  0  0  0  0  0  0  0  0
    2.7687   13.5574    0.2265 H   0  0  0  0  0  0  0  0  0  0  0  0
   -0.1398   14.1338   -0.4032 H   0  0  0  0  0  0  0  0  0  0  0  0
    1.0994   15.2368    0.3141 H   0  0  0  0  0  0  0  0  0  0  0  0
    3.1625   15.3689   -0.6427 H   0  0  0  0  0  0  0  0  0  0  0  0
    3.4996   14.5323   -2.1961 H   0  0  0  0  0  0  0  0  0  0  0  0
    2.9853   16.2533   -2.1961 H   0  0  0  0  0  0  0  0  0  0  0  0
  1  2  1  0
  2  3  1  0
  3  4  1  0
  4  5  1  0
  5  6  1  0
  6  7  1  0
  7  8  1  0
  7  9  1  0
  2 10  1  0
 10 11  1  0
 11 12  1  0
 12 13  1  0
 13 14  1  6
 13 15  1  0
 15 16  1  0
 16 17  1  0
 17 18  2  0
 18 19  1  0
 19 20  1  0
 20 21  1  0
 21 22  1  0
 22 23  1  0
 22 24  1  0
 24 25  1  0
 24 26  1  0
 19 27  1  0
 27 28  1  1
 27 29  1  0
 29 30  1  0
 30 31  1  0
 31 32  1  1
  7  5  1  0
 31 10  1  0
 31 13  1  0
 27 15  1  0
 24 18  1  0
  1 33  1  0
  1 34  1  0
  1 35  1  0
  2 36  1  1
  3 37  1  0
  3 38  1  0
  4 39  1  0
  4 40  1  0
  5 41  1  1
  8 42  1  0
  8 43  1  0
  8 44  1  0
  9 45  1  0
  9 46  1  0
  9 47  1  0
 10 48  1  6
 11 49  1  0
 11 50  1  0
 12 51  1  0
 12 52  1  0
 14 53  1  0
 14 54  1  0
 14 55  1  0
 15 56  1  1
 16 57  1  0
 16 58  1  0
 17 59  1  0
 19 60  1  1
 20 61  1  0
 20 62  1  0
 21 63  1  0
 21 64  1  0
 22 65  1  1
 23 66  1  0
 25 67  1  0
 25 68  1  0
 25 69  1  0
 26 70  1  0
 26 71  1  0
 26 72  1  0
 28 73  1  0
 28 74  1  0
 28 75  1  0
 29 76  1  0
 29 77  1  0
 30 78  1  0
 30 79  1  0
 32 80  1  0
 32 81  1  0
 32 82  1  0
M  END
>  <meeko>  (4) 
{"is_sidechain": [false], "intermolecular_energy": 2.731, "internal_energy": -0.839}

$$$$
EPH_relaxed_0001_pdb2pqr_Repair_347_r2_0001_out
     RDKit          3D

 82 86  0  0  0  0  0  0  0  0999 V2000
    2.6390   18.8430   -2.1530 C   0  0  0  0  0  0  0  0  0  0  0  0
    1.8290   18.9020   -0.8540 C   0  0  2  0  0  0  0  0  0  0  0  0
    2.6230   19.5560    0.2950 C   0  0  0  0  0  0  0  0  0  0  0  0
    3.6760   18.6360    0.9170 C   0  0  0  0  0  0  0  0  0  0  0  0
    3.8390   18.8940    2.3850 C   0  0  2  0  0  0  0  0  0  0  0  0
    4.3460   20.1940    2.7110 O   0  0  0  0  0  0  0  0  0  0  0  0
    5.1870   19.0820    3.0560 C   0  0  0  0  0  0  0  0  0  0  0  0
    6.4630   19.0180    2.2760 C   0  0  0  0  0  0  0  0  0  0  0  0
    5.2930   18.8400    4.5290 C   0  0  0  0  0  0  0  0  0  0  0  0
    1.3890   17.5000   -0.4520 C   0  0  1  0  0  0  0  0  0  0  0  0
    0.1030   17.5030    0.4160 C   0  0  0  0  0  0  0  0  0  0  0  0
   -0.7000   16.2340    0.0310 C   0  0  0  0  0  0  0  0  0  0  0  0
    0.2920   15.3790   -0.7900 C   0  0  1  0  0  0  0  0  0  0  0  0
    1.1720   14.6520    0.2750 C   0  0  0  0  0  0  0  0  0  0  0  0
   -0.3390   14.3690   -1.8030 C   0  0  2  0  0  0  0  0  0  0  0  0
   -1.2120   13.2710   -1.1710 C   0  0  0  0  0  0  0  0  0  0  0  0
   -0.4900   12.0170   -0.8030 C   0  0  0  0  0  0  0  0  0  0  0  0
    0.7390   11.6680   -1.2270 C   0  0  0  0  0  0  0  0  0  0  0  0
    1.4940   12.5300   -2.2460 C   0  0  1  0  0  0  0  0  0  0  0  0
    2.0940   11.6210   -3.3510 C   0  0  0  0  0  0  0  0  0  0  0  0
    2.9580   10.5000   -2.7800 C   0  0  0  0  0  0  0  0  0  0  0  0
    2.1550    9.6300   -1.8160 C   0  0  2  0  0  0  0  0  0  0  0  0
    1.1470    8.9330   -2.5540 O   0  0  0  0  0  0  0  0  0  0  0  0
    1.4950   10.4390   -0.6650 C   0  0  0  0  0  0  0  0  0  0  0  0
    2.5880   10.9450    0.3090 C   0  0  0  0  0  0  0  0  0  0  0  0
    0.6020    9.4660    0.1520 C   0  0  0  0  0  0  0  0  0  0  0  0
    0.6890   13.7640   -2.8420 C   0  0  1  0  0  0  0  0  0  0  0  0
   -0.1430   13.3090   -4.0800 C   0  0  0  0  0  0  0  0  0  0  0  0
    1.7120   14.8400   -3.3670 C   0  0  0  0  0  0  0  0  0  0  0  0
    2.2080   15.8830   -2.3470 C   0  0  0  0  0  0  0  0  0  0  0  0
    1.0340   16.5110   -1.5900 C   0  0  2  0  0  0  0  0  0  0  0  0
    0.1430   17.2680   -2.6330 C   0  0  0  0  0  0  0  0  0  0  0  0
    3.7099   18.7650   -1.9141 H   0  0  0  0  0  0  0  0  0  0  0  0
    2.3291   17.9650   -2.7388 H   0  0  0  0  0  0  0  0  0  0  0  0
    2.4596   19.7566   -2.7388 H   0  0  0  0  0  0  0  0  0  0  0  0
    0.9447   19.5285   -1.0426 H   0  0  0  0  0  0  0  0  0  0  0  0
    3.1308   20.4490   -0.0982 H   0  0  0  0  0  0  0  0  0  0  0  0
    1.9000   19.7990    1.0876 H   0  0  0  0  0  0  0  0  0  0  0  0
    3.3672   17.5904    0.7708 H   0  0  0  0  0  0  0  0  0  0  0  0
    4.6393   18.8346    0.4245 H   0  0  0  0  0  0  0  0  0  0  0  0
    2.9824   18.2448    2.6188 H   0  0  0  0  0  0  0  0  0  0  0  0
    7.3153   18.9753    2.9701 H   0  0  0  0  0  0  0  0  0  0  0  0
    6.4607   18.1188    1.6424 H   0  0  0  0  0  0  0  0  0  0  0  0
    6.5507   19.9129    1.6424 H   0  0  0  0  0  0  0  0  0  0  0  0
    4.9094   19.7157    5.0730 H   0  0  0  0  0  0  0  0  0  0  0  0
    4.7011   17.9528    4.7984 H   0  0  0  0  0  0  0  0  0  0  0  0
    6.3464   18.6735    4.7984 H   0  0  0  0  0  0  0  0  0  0  0  0
    2.2988   17.1644    0.0674 H   0  0  0  0  0  0  0  0  0  0  0  0
    0.3666   17.4750    1.4836 H   0  0  0  0  0  0  0  0  0  0  0  0
   -0.4893   18.4132    0.2409 H   0  0  0  0  0  0  0  0  0  0  0  0
   -1.0263   15.6929    0.9314 H   0  0  0  0  0  0  0  0  0  0  0  0
   -1.6122   16.4734   -0.5352 H   0  0  0  0  0  0  0  0  0  0  0  0
    0.8332   14.9319    1.2834 H   0  0  0  0  0  0  0  0  0  0  0  0
    1.0794   13.5635    0.1460 H   0  0  0  0  0  0  0  0  0  0  0  0
    2.2234   14.9484    0.1460 H   0  0  0  0  0  0  0  0  0  0  0  0
   -1.0290   15.0080   -2.3735 H   0  0  0  0  0  0  0  0  0  0  0  0
   -1.6672   13.6819   -0.2578 H   0  0  0  0  0  0  0  0  0  0  0  0
   -1.9465   12.9859   -1.9386 H   0  0  0  0  0  0  0  0  0  0  0  0
   -1.0064   11.3188   -0.1278 H   0  0  0  0  0  0  0  0  0  0  0  0
    2.3038   13.0215   -1.6869 H   0  0  0  0  0  0  0  0  0  0  0  0
    1.2698   11.1733   -3.9257 H   0  0  0  0  0  0  0  0  0  0  0  0
    2.7367   12.2476   -3.9869 H   0  0  0  0  0  0  0  0  0  0  0  0
    3.3287    9.8749   -3.6057 H   0  0  0  0  0  0  0  0  0  0  0  0
    3.7985   10.9493   -2.2308 H   0  0  0  0  0  0  0  0  0  0  0  0
    2.8573    8.9279   -1.3428 H   0  0  0  0  0  0  0  0  0  0  0  0
    1.4840    8.7960   -3.4560 H   0  0  0  0  0  0  0  0  0  0  0  0
    2.2549   10.7908    1.3460 H   0  0  0  0  0  0  0  0  0  0  0  0
    3.5199   10.3867    0.1364 H   0  0  0  0  0  0  0  0  0  0  0  0
    2.7653   12.0168    0.1364 H   0  0  0  0  0  0  0  0  0  0  0  0
    0.7601    9.6382    1.2269 H   0  0  0  0  0  0  0  0  0  0  0  0
   -0.4550    9.6426   -0.0961 H   0  0  0  0  0  0  0  0  0  0  0  0
    0.8684    8.4280   -0.0961 H   0  0  0  0  0  0  0  0  0  0  0  0
   -1.0610   12.8070   -3.7404 H   0  0  0  0  0  0  0  0  0  0  0  0
   -0.4084   14.1875   -4.6864 H   0  0  0  0  0  0  0  0  0  0  0  0
    0.4535   12.6115   -4.6864 H   0  0  0  0  0  0  0  0  0  0  0  0
    2.5928   14.3032   -3.7491 H   0  0  0  0  0  0  0  0  0  0  0  0
    1.1599   15.4171   -4.1234 H   0  0  0  0  0  0  0  0  0  0  0  0
    2.8788   15.3914   -1.6270 H   0  0  0  0  0  0  0  0  0  0  0  0
    2.7411   16.6779   -2.8892 H   0  0  0  0  0  0  0  0  0  0  0  0
   -0.5917   17.8922   -2.1032 H   0  0  0  0  0  0  0  0  0  0  0  0
    0.7791   17.9061   -3.2640 H   0  0  0  0  0  0  0  0  0  0  0  0
   -0.3840   16.5372   -3.2640 H   0  0  0  0  0  0  0  0  0  0  0  0
  1  2  1  0
  2  3  1  0
  3  4  1  0
  4  5  1  0
  5  6  1  0
  6  7  1  0
  7  8  1  0
  7  9  1  0
  2 10  1  0
 10 11  1  0
 11 12  1  0
 12 13  1  0
 13 14  1  1
 13 15  1  0
 15 16  1  0
 16 17  1  0
 17 18  2  0
 18 19  1  0
 19 20  1  0
 20 21  1  0
 21 22  1  0
 22 23  1  0
 22 24  1  0
 24 25  1  0
 24 26  1  0
 19 27  1  0
 27 28  1  6
 27 29  1  0
 29 30  1  0
 30 31  1  0
 31 32  1  6
  7  5  1  0
 31 10  1  0
 31 13  1  0
 27 15  1  0
 24 18  1  0
  1 33  1  0
  1 34  1  0
  1 35  1  0
  2 36  1  6
  3 37  1  0
  3 38  1  0
  4 39  1  0
  4 40  1  0
  5 41  1  1
  8 42  1  0
  8 43  1  0
  8 44  1  0
  9 45  1  0
  9 46  1  0
  9 47  1  0
 10 48  1  1
 11 49  1  0
 11 50  1  0
 12 51  1  0
 12 52  1  0
 14 53  1  0
 14 54  1  0
 14 55  1  0
 15 56  1  6
 16 57  1  0
 16 58  1  0
 17 59  1  0
 19 60  1  1
 20 61  1  0
 20 62  1  0
 21 63  1  0
 21 64  1  0
 22 65  1  1
 23 66  1  0
 25 67  1  0
 25 68  1  0
 25 69  1  0
 26 70  1  0
 26 71  1  0
 26 72  1  0
 28 73  1  0
 28 74  1  0
 28 75  1  0
 29 76  1  0
 29 77  1  0
 30 78  1  0
 30 79  1  0
 32 80  1  0
 32 81  1  0
 32 82  1  0
M  END
>  <meeko>  (5) 
{"is_sidechain": [false], "intermolecular_energy": 2.731, "internal_energy": -0.839}

$$$$
EPH_relaxed_0001_pdb2pqr_Repair_347_r2_0001_out
     RDKit          3D

 82 86  0  0  0  0  0  0  0  0999 V2000
    0.3650    8.8920   -2.4740 C   0  0  0  0  0  0  0  0  0  0  0  0
    1.1290   10.0460   -3.1300 C   0  0  2  0  0  0  0  0  0  0  0  0
    2.6230   10.0430   -2.7520 C   0  0  0  0  0  0  0  0  0  0  0  0
    3.5350   10.6200   -3.8390 C   0  0  0  0  0  0  0  0  0  0  0  0
    4.9280   10.8400   -3.3340 C   0  0  2  0  0  0  0  0  0  0  0  0
    5.5410   12.0570   -3.7800 O   0  0  0  0  0  0  0  0  0  0  0  0
    6.1530   10.8370   -4.2300 C   0  0  0  0  0  0  0  0  0  0  0  0
    6.0400   10.6080   -5.7040 C   0  0  0  0  0  0  0  0  0  0  0  0
    7.4900   10.5700   -3.6130 C   0  0  0  0  0  0  0  0  0  0  0  0
    0.4950   11.3760   -2.7410 C   0  0  1  0  0  0  0  0  0  0  0  0
   -0.8660   11.2000   -2.0160 C   0  0  0  0  0  0  0  0  0  0  0  0
   -0.9610   12.3330   -0.9620 C   0  0  0  0  0  0  0  0  0  0  0  0
    0.1780   13.3100   -1.3360 C   0  0  1  0  0  0  0  0  0  0  0  0
   -0.4000   14.1730   -2.5010 C   0  0  0  0  0  0  0  0  0  0  0  0
    0.7320   14.2010   -0.1770 C   0  0  2  0  0  0  0  0  0  0  0  0
   -0.2880   15.1720    0.4440 C   0  0  0  0  0  0  0  0  0  0  0  0
   -0.3490   16.5230   -0.1880 C   0  0  0  0  0  0  0  0  0  0  0  0
    0.5730   17.0390   -1.0220 C   0  0  0  0  0  0  0  0  0  0  0  0
    1.8700   16.2790   -1.3300 C   0  0  1  0  0  0  0  0  0  0  0  0
    3.0760   17.2480   -1.2210 C   0  0  0  0  0  0  0  0  0  0  0  0
    2.9080   18.4910   -2.0900 C   0  0  0  0  0  0  0  0  0  0  0  0
    1.6390   19.2510   -1.7150 C   0  0  2  0  0  0  0  0  0  0  0  0
    1.7920   19.7830   -0.3950 O   0  0  0  0  0  0  0  0  0  0  0  0
    0.3580   18.3730   -1.7780 C   0  0  0  0  0  0  0  0  0  0  0  0
    0.0230   18.0460   -3.2550 C   0  0  0  0  0  0  0  0  0  0  0  0
   -0.8280   19.2190   -1.2420 C   0  0  0  0  0  0  0  0  0  0  0  0
    2.0940   14.9320   -0.5160 C   0  0  1  0  0  0  0  0  0  0  0  0
    2.7840   15.2430    0.8470 C   0  0  0  0  0  0  0  0  0  0  0  0
    3.0860   14.0080   -1.3160 C   0  0  0  0  0  0  0  0  0  0  0  0
    2.4660   13.0640   -2.3630 C   0  0  0  0  0  0  0  0  0  0  0  0
    1.2880   12.2850   -1.7690 C   0  0  2  0  0  0  0  0  0  0  0  0
    1.8430   11.3900   -0.6090 C   0  0  0  0  0  0  0  0  0  0  0  0
    0.4273    8.9861   -1.3798 H   0  0  0  0  0  0  0  0  0  0  0  0
   -0.6894    8.9263   -2.7855 H   0  0  0  0  0  0  0  0  0  0  0  0
    0.8084    7.9347   -2.7855 H   0  0  0  0  0  0  0  0  0  0  0  0
    1.0650    9.9083   -4.2195 H   0  0  0  0  0  0  0  0  0  0  0  0
    2.7510   10.6413   -1.8378 H   0  0  0  0  0  0  0  0  0  0  0  0
    2.9165    8.9923   -2.6109 H   0  0  0  0  0  0  0  0  0  0  0  0
    3.5693    9.9181   -4.6852 H   0  0  0  0  0  0  0  0  0  0  0  0
    3.1253   11.5924   -4.1499 H   0  0  0  0  0  0  0  0  0  0  0  0
    4.6976   10.3108   -2.3976 H   0  0  0  0  0  0  0  0  0  0  0  0
    5.5601    9.6355   -5.8882 H   0  0  0  0  0  0  0  0  0  0  0  0
    5.4330   11.4075   -6.1538 H   0  0  0  0  0  0  0  0  0  0  0  0
    7.0438   10.6126   -6.1538 H   0  0  0  0  0  0  0  0  0  0  0  0
    7.3983   10.5883   -2.5170 H   0  0  0  0  0  0  0  0  0  0  0  0
    7.8514    9.5820   -3.9342 H   0  0  0  0  0  0  0  0  0  0  0  0
    8.2031   11.3435   -3.9342 H   0  0  0  0  0  0  0  0  0  0  0  0
    0.4347   11.8480   -3.7328 H   0  0  0  0  0  0  0  0  0  0  0  0
   -1.6927   11.2829   -2.7369 H   0  0  0  0  0  0  0  0  0  0  0  0
   -0.9349   10.2108   -1.5399 H   0  0  0  0  0  0  0  0  0  0  0  0
   -1.9379   12.8354   -1.0189 H   0  0  0  0  0  0  0  0  0  0  0  0
   -0.8655   11.9550    0.0666 H   0  0  0  0  0  0  0  0  0  0  0  0
   -0.9666   15.0189   -2.0845 H   0  0  0  0  0  0  0  0  0  0  0  0
    0.4258   14.5540   -3.1198 H   0  0  0  0  0  0  0  0  0  0  0  0
   -1.0666   13.5544   -3.1198 H   0  0  0  0  0  0  0  0  0  0  0  0
    0.9536   13.4601    0.6053 H   0  0  0  0  0  0  0  0  0  0  0  0
   -1.2851   14.7142    0.3644 H   0  0  0  0  0  0  0  0  0  0  0  0
    0.0402   15.3358    1.4810 H   0  0  0  0  0  0  0  0  0  0  0  0
   -1.2214   17.1501    0.0478 H   0  0  0  0  0  0  0  0  0  0  0  0
    1.7731   15.9186   -2.3648 H   0  0  0  0  0  0  0  0  0  0  0  0
    3.1820   17.5626   -0.1723 H   0  0  0  0  0  0  0  0  0  0  0  0
    3.9687   16.7113   -1.5747 H   0  0  0  0  0  0  0  0  0  0  0  0
    3.7774   19.1498   -1.9480 H   0  0  0  0  0  0  0  0  0  0  0  0
    2.8313   18.1767   -3.1413 H   0  0  0  0  0  0  0  0  0  0  0  0
    1.5061   20.0546   -2.4543 H   0  0  0  0  0  0  0  0  0  0  0  0
    1.3180   20.6310   -0.3620 H   0  0  0  0  0  0  0  0  0  0  0  0
   -0.7637   17.2781   -3.2912 H   0  0  0  0  0  0  0  0  0  0  0  0
   -0.3299   18.9566   -3.7612 H   0  0  0  0  0  0  0  0  0  0  0  0
    0.9248   17.6712   -3.7612 H   0  0  0  0  0  0  0  0  0  0  0  0
   -0.8166   19.2109   -0.1421 H   0  0  0  0  0  0  0  0  0  0  0  0
   -0.7323   20.2540   -1.6020 H   0  0  0  0  0  0  0  0  0  0  0  0
   -1.7755   18.7916   -1.6020 H   0  0  0  0  0  0  0  0  0  0  0  0
    2.1197   14.9436    1.6710 H   0  0  0  0  0  0  0  0  0  0  0  0
    3.7286   14.6836    0.9158 H   0  0  0  0  0  0  0  0  0  0  0  0
    2.9905   16.3212    0.9158 H   0  0  0  0  0  0  0  0  0  0  0  0
    3.8004   14.6610   -1.8387 H   0  0  0  0  0  0  0  0  0  0  0  0
    3.5336   13.3452   -0.5608 H   0  0  0  0  0  0  0  0  0  0  0  0
    2.1102   13.6583   -3.2176 H   0  0  0  0  0  0  0  0  0  0  0  0
    3.2340   12.3461   -2.6867 H   0  0  0  0  0  0  0  0  0  0  0  0
    1.5682   11.8331    0.3596 H   0  0  0  0  0  0  0  0  0  0  0  0
    1.4119   10.3809   -0.6861 H   0  0  0  0  0  0  0  0  0  0  0  0
    2.9385   11.3276   -0.6861 H   0  0  0  0  0  0  0  0  0  0  0  0
  1  2  1  0
  2  3  1  0
  3  4  1  0
  4  5  1  0
  5  6  1  0
  6  7  1  0
  7  8  1  0
  7  9  1  0
  2 10  1  0
 10 11  1  0
 11 12  1  0
 12 13  1  0
 13 14  1  6
 13 15  1  0
 15 16  1  0
 16 17  1  0
 17 18  2  0
 18 19  1  0
 19 20  1  0
 20 21  1  0
 21 22  1  0
 22 23  1  0
 22 24  1  0
 24 25  1  0
 24 26  1  0
 19 27  1  0
 27 28  1  1
 27 29  1  0
 29 30  1  0
 30 31  1  0
 31 32  1  1
  7  5  1  0
 31 10  1  0
 31 13  1  0
 27 15  1  0
 24 18  1  0
  1 33  1  0
  1 34  1  0
  1 35  1  0
  2 36  1  6
  3 37  1  0
  3 38  1  0
  4 39  1  0
  4 40  1  0
  5 41  1  1
  8 42  1  0
  8 43  1  0
  8 44  1  0
  9 45  1  0
  9 46  1  0
  9 47  1  0
 10 48  1  6
 11 49  1  0
 11 50  1  0
 12 51  1  0
 12 52  1  0
 14 53  1  0
 14 54  1  0
 14 55  1  0
 15 56  1  1
 16 57  1  0
 16 58  1  0
 17 59  1  0
 19 60  1  6
 20 61  1  0
 20 62  1  0
 21 63  1  0
 21 64  1  0
 22 65  1  6
 23 66  1  0
 25 67  1  0
 25 68  1  0
 25 69  1  0
 26 70  1  0
 26 71  1  0
 26 72  1  0
 28 73  1  0
 28 74  1  0
 28 75  1  0
 29 76  1  0
 29 77  1  0
 30 78  1  0
 30 79  1  0
 32 80  1  0
 32 81  1  0
 32 82  1  0
M  END
>  <meeko>  (6) 
{"is_sidechain": [false], "intermolecular_energy": 2.731, "internal_energy": -0.839}

$$$$
EPH_relaxed_0001_pdb2pqr_Repair_347_r2_0001_out
     RDKit          3D

 82 86  0  0  0  0  0  0  0  0999 V2000
    3.1190   18.4660   -3.2320 C   0  0  0  0  0  0  0  0  0  0  0  0
    2.0990   18.0340   -2.1750 C   0  0  2  0  0  0  0  0  0  0  0  0
    2.0390   19.0170   -0.9890 C   0  0  0  0  0  0  0  0  0  0  0  0
    1.0860   20.1940   -1.2140 C   0  0  0  0  0  0  0  0  0  0  0  0
   -0.1600   20.0640   -0.3910 C   0  0  2  0  0  0  0  0  0  0  0  0
   -0.7570   18.7610   -0.4110 O   0  0  0  0  0  0  0  0  0  0  0  0
   -1.5340   19.8230   -0.9860 C   0  0  0  0  0  0  0  0  0  0  0  0
   -1.7340   19.7000   -2.4650 C   0  0  0  0  0  0  0  0  0  0  0  0
   -2.7390   20.1940   -0.1790 C   0  0  0  0  0  0  0  0  0  0  0  0
    2.4310   16.6330   -1.6740 C   0  0  1  0  0  0  0  0  0  0  0  0
    3.3760   16.6480   -0.4430 C   0  0  0  0  0  0  0  0  0  0  0  0
    2.9550   15.4580    0.4580 C   0  0  0  0  0  0  0  0  0  0  0  0
    2.0170   14.6090   -0.4310 C   0  0  1  0  0  0  0  0  0  0  0  0
    2.9720   13.7580   -1.3250 C   0  0  0  0  0  0  0  0  0  0  0  0
    0.9780   13.7130    0.3190 C   0  0  2  0  0  0  0  0  0  0  0  0
    1.5860   12.6230    1.2190 C   0  0  0  0  0  0  0  0  0  0  0  0
    1.8220   11.3060    0.5560 C   0  0  0  0  0  0  0  0  0  0  0  0
    1.3000   10.9190   -0.6220 C   0  0  0  0  0  0  0  0  0  0  0  0
    0.2970   11.8080   -1.3690 C   0  0  1  0  0  0  0  0  0  0  0  0
   -0.9030   10.9480   -1.8460 C   0  0  0  0  0  0  0  0  0  0  0  0
   -0.4660    9.7410   -2.6710 C   0  0  0  0  0  0  0  0  0  0  0  0
    0.4850    8.8510   -1.8750 C   0  0  2  0  0  0  0  0  0  0  0  0
   -0.2350    8.2690   -0.7840 O   0  0  0  0  0  0  0  0  0  0  0  0
    1.7280    9.6120   -1.3330 C   0  0  0  0  0  0  0  0  0  0  0  0
    2.6640    9.9820   -2.5100 C   0  0  0  0  0  0  0  0  0  0  0  0
    2.5290    8.6350   -0.4310 C   0  0  0  0  0  0  0  0  0  0  0  0
   -0.1620   13.1260   -0.6080 C   0  0  1  0  0  0  0  0  0  0  0  0
   -1.3730   12.8100    0.3210 C   0  0  0  0  0  0  0  0  0  0  0  0
   -0.6740   14.1770   -1.6630 C   0  0  0  0  0  0  0  0  0  0  0  0
    0.3820   15.1130   -2.2800 C   0  0  0  0  0  0  0  0  0  0  0  0
    1.2520   15.7510   -1.1930 C   0  0  2  0  0  0  0  0  0  0  0  0
    0.3210   16.6310   -0.2910 C   0  0  0  0  0  0  0  0  0  0  0  0
    4.0225   18.8487   -2.7348 H   0  0  0  0  0  0  0  0  0  0  0  0
    3.3839   17.6028   -3.8603 H   0  0  0  0  0  0  0  0  0  0  0  0
    2.6834   19.2569   -3.8603 H   0  0  0  0  0  0  0  0  0  0  0  0
    1.1082   18.0331   -2.6529 H   0  0  0  0  0  0  0  0  0  0  0  0
    1.7058   18.4657   -0.0973 H   0  0  0  0  0  0  0  0  0  0  0  0
    3.0480   19.4383   -0.8687 H   0  0  0  0  0  0  0  0  0  0  0  0
    1.5999   21.1265   -0.9378 H   0  0  0  0  0  0  0  0  0  0  0  0
    0.7965   20.2026   -2.2752 H   0  0  0  0  0  0  0  0  0  0  0  0
    0.2114   20.8059    0.3313 H   0  0  0  0  0  0  0  0  0  0  0  0
   -2.6554   19.1333   -2.6645 H   0  0  0  0  0  0  0  0  0  0  0  0
   -1.8172   20.7032   -2.9084 H   0  0  0  0  0  0  0  0  0  0  0  0
   -0.8762   19.1731   -2.9084 H   0  0  0  0  0  0  0  0  0  0  0  0
   -2.4998   20.1204    0.8922 H   0  0  0  0  0  0  0  0  0  0  0  0
   -3.0370   21.2255   -0.4181 H   0  0  0  0  0  0  0  0  0  0  0  0
   -3.5656   19.5087   -0.4181 H   0  0  0  0  0  0  0  0  0  0  0  0
    2.8682   16.2085   -2.5898 H   0  0  0  0  0  0  0  0  0  0  0  0
    4.4207   16.5278   -0.7658 H   0  0  0  0  0  0  0  0  0  0  0  0
    3.3014   17.6012    0.1009 H   0  0  0  0  0  0  0  0  0  0  0  0
    3.8345   14.8727    0.7645 H   0  0  0  0  0  0  0  0  0  0  0  0
    2.4643   15.7896    1.3850 H   0  0  0  0  0  0  0  0  0  0  0  0
    3.6399   13.1628   -0.6850 H   0  0  0  0  0  0  0  0  0  0  0  0
    2.3771   13.0851   -1.9601 H   0  0  0  0  0  0  0  0  0  0  0  0
    3.5721   14.4262   -1.9601 H   0  0  0  0  0  0  0  0  0  0  0  0
    0.4974   14.4306    1.0002 H   0  0  0  0  0  0  0  0  0  0  0  0
    2.5517   12.9922    1.5947 H   0  0  0  0  0  0  0  0  0  0  0  0
    0.8468   12.4361    2.0119 H   0  0  0  0  0  0  0  0  0  0  0  0
    2.4783   10.5917    1.0747 H   0  0  0  0  0  0  0  0  0  0  0  0
    0.8369   12.2105   -2.2388 H   0  0  0  0  0  0  0  0  0  0  0  0
   -1.4541   10.5911   -0.9634 H   0  0  0  0  0  0  0  0  0  0  0  0
   -1.5333   11.5809   -2.4879 H   0  0  0  0  0  0  0  0  0  0  0  0
   -1.3545    9.1569   -2.9528 H   0  0  0  0  0  0  0  0  0  0  0  0
    0.0586   10.1007   -3.5685 H   0  0  0  0  0  0  0  0  0  0  0  0
    0.8645    8.0781   -2.5595 H   0  0  0  0  0  0  0  0  0  0  0  0
    0.3030    8.3820    0.0180 H   0  0  0  0  0  0  0  0  0  0  0  0
    3.6186   10.3594   -2.1147 H   0  0  0  0  0  0  0  0  0  0  0  0
    2.8493    9.0895   -3.1257 H   0  0  0  0  0  0  0  0  0  0  0  0
    2.1889   10.7600   -3.1257 H   0  0  0  0  0  0  0  0  0  0  0  0
    2.3361    8.8702    0.6261 H   0  0  0  0  0  0  0  0  0  0  0  0
    2.2147    7.6018   -0.6400 H   0  0  0  0  0  0  0  0  0  0  0  0
    3.6038    8.7407   -0.6400 H   0  0  0  0  0  0  0  0  0  0  0  0
   -1.0598   12.8917    1.3723 H   0  0  0  0  0  0  0  0  0  0  0  0
   -2.1837   13.5267    0.1232 H   0  0  0  0  0  0  0  0  0  0  0  0
   -1.7302   11.7886    0.1232 H   0  0  0  0  0  0  0  0  0  0  0  0
   -1.1460   13.6198   -2.4856 H   0  0  0  0  0  0  0  0  0  0  0  0
   -1.3530   14.8380   -1.1044 H   0  0  0  0  0  0  0  0  0  0  0  0
    1.0235   14.5331   -2.9598 H   0  0  0  0  0  0  0  0  0  0  0  0
   -0.1366   15.9132   -2.8284 H   0  0  0  0  0  0  0  0  0  0  0  0
    0.5370   16.4268    0.7681 H   0  0  0  0  0  0  0  0  0  0  0  0
    0.5031   17.6947   -0.5039 H   0  0  0  0  0  0  0  0  0  0  0  0
   -0.7308   16.3893   -0.5039 H   0  0  0  0  0  0  0  0  0  0  0  0
  1  2  1  0
  2  3  1  0
  3  4  1  0
  4  5  1  0
  5  6  1  0
  6  7  1  0
  7  8  1  0
  7  9  1  0
  2 10  1  0
 10 11  1  0
 11 12  1  0
 12 13  1  0
 13 14  1  6
 13 15  1  0
 15 16  1  0
 16 17  1  0
 17 18  2  0
 18 19  1  0
 19 20  1  0
 20 21  1  0
 21 22  1  0
 22 23  1  0
 22 24  1  0
 24 25  1  0
 24 26  1  0
 19 27  1  0
 27 28  1  1
 27 29  1  0
 29 30  1  0
 30 31  1  0
 31 32  1  1
  7  5  1  0
 31 10  1  0
 31 13  1  0
 27 15  1  0
 24 18  1  0
  1 33  1  0
  1 34  1  0
  1 35  1  0
  2 36  1  6
  3 37  1  0
  3 38  1  0
  4 39  1  0
  4 40  1  0
  5 41  1  1
  8 42  1  0
  8 43  1  0
  8 44  1  0
  9 45  1  0
  9 46  1  0
  9 47  1  0
 10 48  1  6
 11 49  1  0
 11 50  1  0
 12 51  1  0
 12 52  1  0
 14 53  1  0
 14 54  1  0
 14 55  1  0
 15 56  1  1
 16 57  1  0
 16 58  1  0
 17 59  1  0
 19 60  1  6
 20 61  1  0
 20 62  1  0
 21 63  1  0
 21 64  1  0
 22 65  1  6
 23 66  1  0
 25 67  1  0
 25 68  1  0
 25 69  1  0
 26 70  1  0
 26 71  1  0
 26 72  1  0
 28 73  1  0
 28 74  1  0
 28 75  1  0
 29 76  1  0
 29 77  1  0
 30 78  1  0
 30 79  1  0
 32 80  1  0
 32 81  1  0
 32 82  1  0
M  END
>  <meeko>  (7) 
{"is_sidechain": [false], "intermolecular_energy": 2.731, "internal_energy": -0.839}

$$$$
EPH_relaxed_0001_pdb2pqr_Repair_347_r2_0001_out
     RDKit          3D

 82 86  0  0  0  0  0  0  0  0999 V2000
    0.2040   10.3200   -3.5610 C   0  0  0  0  0  0  0  0  0  0  0  0
   -0.1380   10.1170   -2.0820 C   0  0  2  0  0  0  0  0  0  0  0  0
   -1.6150    9.7260   -1.8770 C   0  0  0  0  0  0  0  0  0  0  0  0
   -1.8090    8.2880   -1.3880 C   0  0  0  0  0  0  0  0  0  0  0  0
   -2.4460    7.4270   -2.4370 C   0  0  2  0  0  0  0  0  0  0  0  0
   -3.4150    8.0970   -3.2530 O   0  0  0  0  0  0  0  0  0  0  0  0
   -3.9120    7.0360   -2.4210 C   0  0  0  0  0  0  0  0  0  0  0  0
   -4.8300    7.4970   -1.3320 C   0  0  0  0  0  0  0  0  0  0  0  0
   -4.3370    5.8200   -3.1830 C   0  0  0  0  0  0  0  0  0  0  0  0
    0.1790   11.3850   -1.2970 C   0  0  1  0  0  0  0  0  0  0  0  0
    1.2540   11.1550   -0.2020 C   0  0  0  0  0  0  0  0  0  0  0  0
    2.0940   12.4560   -0.1210 C   0  0  0  0  0  0  0  0  0  0  0  0
    1.2790   13.4970   -0.9220 C   0  0  1  0  0  0  0  0  0  0  0  0
    0.1810   13.9960    0.0680 C   0  0  0  0  0  0  0  0  0  0  0  0
    2.0890   14.6870   -1.5330 C   0  0  2  0  0  0  0  0  0  0  0  0
    2.7870   15.5960   -0.5060 C   0  0  0  0  0  0  0  0  0  0  0  0
    1.9790   16.7580   -0.0290 C   0  0  0  0  0  0  0  0  0  0  0  0
    0.8600   17.2240   -0.6130 C   0  0  0  0  0  0  0  0  0  0  0  0
    0.3520   16.6280   -1.9330 C   0  0  1  0  0  0  0  0  0  0  0  0
   -0.0200   17.7740   -2.9100 C   0  0  0  0  0  0  0  0  0  0  0  0
   -1.0070   18.7650   -2.3000 C   0  0  0  0  0  0  0  0  0  0  0  0
   -0.4430   19.3800   -1.0220 C   0  0  2  0  0  0  0  0  0  0  0  0
    0.6840   20.1940   -1.3600 O   0  0  0  0  0  0  0  0  0  0  0  0
   -0.0230   18.3190    0.0350 C   0  0  0  0  0  0  0  0  0  0  0  0
   -1.2850   17.6420    0.6230 C   0  0  0  0  0  0  0  0  0  0  0  0
    0.6590   19.0650    1.2140 C   0  0  0  0  0  0  0  0  0  0  0  0
    1.2890   15.5340   -2.6040 C   0  0  1  0  0  0  0  0  0  0  0  0
    2.3540   16.2270   -3.5090 C   0  0  0  0  0  0  0  0  0  0  0  0
    0.4210   14.6280   -3.5560 C   0  0  0  0  0  0  0  0  0  0  0  0
   -0.2560   13.4000   -2.9180 C   0  0  0  0  0  0  0  0  0  0  0  0
    0.7450   12.5890   -2.0890 C   0  0  2  0  0  0  0  0  0  0  0  0
    1.8510   12.0560   -3.0630 C   0  0  0  0  0  0  0  0  0  0  0  0
    1.1471   10.8798   -3.6458 H   0  0  0  0  0  0  0  0  0  0  0  0
    0.3137    9.3407   -4.0497 H   0  0  0  0  0  0  0  0  0  0  0  0
   -0.6032   10.8853   -4.0497 H   0  0  0  0  0  0  0  0  0  0  0  0
    0.4786    9.2855   -1.7101 H   0  0  0  0  0  0  0  0  0  0  0  0
   -2.0548   10.4077   -1.1341 H   0  0  0  0  0  0  0  0  0  0  0  0
   -2.1065    9.8009   -2.8582 H   0  0  0  0  0  0  0  0  0  0  0  0
   -0.8278    7.8648   -1.1269 H   0  0  0  0  0  0  0  0  0  0  0  0
   -2.4742    8.3103   -0.5122 H   0  0  0  0  0  0  0  0  0  0  0  0
   -1.5256    6.8341   -2.5435 H   0  0  0  0  0  0  0  0  0  0  0  0
   -4.3807    7.2714   -0.3536 H   0  0  0  0  0  0  0  0  0  0  0  0
   -4.9889    8.5818   -1.4211 H   0  0  0  0  0  0  0  0  0  0  0  0
   -5.7950    6.9766   -1.4211 H   0  0  0  0  0  0  0  0  0  0  0  0
   -4.6153    5.0236   -2.4771 H   0  0  0  0  0  0  0  0  0  0  0  0
   -5.2019    6.0676   -3.8160 H   0  0  0  0  0  0  0  0  0  0  0  0
   -3.5062    5.4750   -3.8160 H   0  0  0  0  0  0  0  0  0  0  0  0
   -0.8257   11.6240   -0.9182 H   0  0  0  0  0  0  0  0  0  0  0  0
    0.7719   10.9543    0.7661 H   0  0  0  0  0  0  0  0  0  0  0  0
    1.8878   10.2896   -0.4457 H   0  0  0  0  0  0  0  0  0  0  0  0
    2.2130   12.7769    0.9244 H   0  0  0  0  0  0  0  0  0  0  0  0
    3.1094   12.3226   -0.5225 H   0  0  0  0  0  0  0  0  0  0  0  0
    0.5220   13.8410    1.1023 H   0  0  0  0  0  0  0  0  0  0  0  0
   -0.0049   15.0670   -0.1002 H   0  0  0  0  0  0  0  0  0  0  0  0
   -0.7481   13.4317   -0.1002 H   0  0  0  0  0  0  0  0  0  0  0  0
    2.8961   14.1702   -2.0730 H   0  0  0  0  0  0  0  0  0  0  0  0
    3.0488   14.9823    0.3685 H   0  0  0  0  0  0  0  0  0  0  0  0
    3.6596   16.0234   -1.0216 H   0  0  0  0  0  0  0  0  0  0  0  0
    2.3282   17.2766    0.8761 H   0  0  0  0  0  0  0  0  0  0  0  0
   -0.5478   16.0483   -1.6792 H   0  0  0  0  0  0  0  0  0  0  0  0
    0.8976   18.3144   -3.1855 H   0  0  0  0  0  0  0  0  0  0  0  0
   -0.5018   17.3206   -3.7888 H   0  0  0  0  0  0  0  0  0  0  0  0
   -1.2083   19.5660   -3.0265 H   0  0  0  0  0  0  0  0  0  0  0  0
   -1.9348   18.2287   -2.0518 H   0  0  0  0  0  0  0  0  0  0  0  0
   -1.2431   19.9800   -0.5639 H   0  0  0  0  0  0  0  0  0  0  0  0
    1.1000   19.8070   -2.1490 H   0  0  0  0  0  0  0  0  0  0  0  0
   -1.2368   17.6679    1.7216 H   0  0  0  0  0  0  0  0  0  0  0  0
   -2.1820   18.1800    0.2826 H   0  0  0  0  0  0  0  0  0  0  0  0
   -1.3329   16.5971    0.2826 H   0  0  0  0  0  0  0  0  0  0  0  0
    0.2888   18.6600    2.1674 H   0  0  0  0  0  0  0  0  0  0  0  0
    1.7485   18.9257    1.1549 H   0  0  0  0  0  0  0  0  0  0  0  0
    0.4228   20.1377    1.1549 H   0  0  0  0  0  0  0  0  0  0  0  0
    3.1086   16.7180   -2.8770 H   0  0  0  0  0  0  0  0  0  0  0  0
    2.8420   15.4730   -4.1441 H   0  0  0  0  0  0  0  0  0  0  0  0
    1.8623   16.9786   -4.1441 H   0  0  0  0  0  0  0  0  0  0  0  0
   -0.3710   15.2592   -3.9854 H   0  0  0  0  0  0  0  0  0  0  0  0
    1.1308   14.2173   -4.2891 H   0  0  0  0  0  0  0  0  0  0  0  0
   -1.0731   13.7390   -2.2642 H   0  0  0  0  0  0  0  0  0  0  0  0
   -0.6461   12.7583   -3.7218 H   0  0  0  0  0  0  0  0  0  0  0  0
    2.6904   11.6515   -2.4784 H   0  0  0  0  0  0  0  0  0  0  0  0
    1.4295   11.2621   -3.6971 H   0  0  0  0  0  0  0  0  0  0  0  0
    2.2094   12.8803   -3.6971 H   0  0  0  0  0  0  0  0  0  0  0  0
  1  2  1  0
  2  3  1  0
  3  4  1  0
  4  5  1  0
  5  6  1  0
  6  7  1  0
  7  8  1  0
  7  9  1  0
  2 10  1  0
 10 11  1  0
 11 12  1  0
 12 13  1  0
 13 14  1  1
 13 15  1  0
 15 16  1  0
 16 17  1  0
 17 18  2  0
 18 19  1  0
 19 20  1  0
 20 21  1  0
 21 22  1  0
 22 23  1  0
 22 24  1  0
 24 25  1  0
 24 26  1  0
 19 27  1  0
 27 28  1  6
 27 29  1  0
 29 30  1  0
 30 31  1  0
 31 32  1  6
  7  5  1  0
 31 10  1  0
 31 13  1  0
 27 15  1  0
 24 18  1  0
  1 33  1  0
  1 34  1  0
  1 35  1  0
  2 36  1  1
  3 37  1  0
  3 38  1  0
  4 39  1  0
  4 40  1  0
  5 41  1  6
  8 42  1  0
  8 43  1  0
  8 44  1  0
  9 45  1  0
  9 46  1  0
  9 47  1  0
 10 48  1  1
 11 49  1  0
 11 50  1  0
 12 51  1  0
 12 52  1  0
 14 53  1  0
 14 54  1  0
 14 55  1  0
 15 56  1  6
 16 57  1  0
 16 58  1  0
 17 59  1  0
 19 60  1  1
 20 61  1  0
 20 62  1  0
 21 63  1  0
 21 64  1  0
 22 65  1  1
 23 66  1  0
 25 67  1  0
 25 68  1  0
 25 69  1  0
 26 70  1  0
 26 71  1  0
 26 72  1  0
 28 73  1  0
 28 74  1  0
 28 75  1  0
 29 76  1  0
 29 77  1  0
 30 78  1  0
 30 79  1  0
 32 80  1  0
 32 81  1  0
 32 82  1  0
M  END
>  <meeko>  (8) 
{"is_sidechain": [false], "intermolecular_energy": 2.731, "internal_energy": -0.839}

$$$$
EPH_relaxed_0001_pdb2pqr_Repair_347_r2_0001_out
     RDKit          3D

 82 86  0  0  0  0  0  0  0  0999 V2000
    4.3290   17.1450    0.0200 C   0  0  0  0  0  0  0  0  0  0  0  0
    2.9700   17.4620   -0.6110 C   0  0  2  0  0  0  0  0  0  0  0  0
    2.3610   18.7640   -0.0550 C   0  0  0  0  0  0  0  0  0  0  0  0
    2.0190   19.7940   -1.1360 C   0  0  0  0  0  0  0  0  0  0  0  0
    0.5740   20.1890   -1.0870 C   0  0  2  0  0  0  0  0  0  0  0  0
   -0.2870   19.2350   -0.4520 O   0  0  0  0  0  0  0  0  0  0  0  0
   -0.5180   19.4650   -1.8520 C   0  0  0  0  0  0  0  0  0  0  0  0
   -0.2120   18.2870   -2.7210 C   0  0  0  0  0  0  0  0  0  0  0  0
   -1.7940   20.1940   -2.1400 C   0  0  0  0  0  0  0  0  0  0  0  0
    2.0100   16.3000   -0.3860 C   0  0  1  0  0  0  0  0  0  0  0  0
    0.5860   16.7700    0.0130 C   0  0  0  0  0  0  0  0  0  0  0  0
   -0.4110   15.7690   -0.6240 C   0  0  0  0  0  0  0  0  0  0  0  0
    0.4670   14.5820   -1.0830 C   0  0  1  0  0  0  0  0  0  0  0  0
    0.6950   13.7300    0.2050 C   0  0  0  0  0  0  0  0  0  0  0  0
   -0.0980   13.7160   -2.2550 C   0  0  2  0  0  0  0  0  0  0  0  0
   -1.4230   12.9930   -1.9530 C   0  0  0  0  0  0  0  0  0  0  0  0
   -1.2850   11.6220   -1.3800 C   0  0  0  0  0  0  0  0  0  0  0  0
   -0.1590   10.8830   -1.3810 C   0  0  0  0  0  0  0  0  0  0  0  0
    1.1080   11.3790   -2.0890 C   0  0  1  0  0  0  0  0  0  0  0  0
    1.7060   10.2310   -2.9440 C   0  0  0  0  0  0  0  0  0  0  0  0
    1.9500    8.9630   -2.1320 C   0  0  0  0  0  0  0  0  0  0  0  0
    0.6560    8.4680   -1.4910 C   0  0  2  0  0  0  0  0  0  0  0  0
   -0.2350    8.0380   -2.5240 O   0  0  0  0  0  0  0  0  0  0  0  0
   -0.0430    9.5440   -0.6130 C   0  0  0  0  0  0  0  0  0  0  0  0
    0.7900    9.7900    0.6700 C   0  0  0  0  0  0  0  0  0  0  0  0
   -1.4040    8.9650   -0.1410 C   0  0  0  0  0  0  0  0  0  0  0  0
    0.9600   12.7350   -2.9050 C   0  0  1  0  0  0  0  0  0  0  0  0
    0.4580   12.4340   -4.3510 C   0  0  0  0  0  0  0  0  0  0  0  0
    2.3790   13.4010   -3.0570 C   0  0  0  0  0  0  0  0  0  0  0  0
    2.8310   14.3400   -1.9230 C   0  0  0  0  0  0  0  0  0  0  0  0
    1.7380   15.3590   -1.5870 C   0  0  2  0  0  0  0  0  0  0  0  0
    1.5030   16.2450   -2.8570 C   0  0  0  0  0  0  0  0  0  0  0  0
    4.2382   17.1662    1.1160 H   0  0  0  0  0  0  0  0  0  0  0  0
    4.6584   16.1459   -0.3014 H   0  0  0  0  0  0  0  0  0  0  0  0
    5.0665   17.8952   -0.3014 H   0  0  0  0  0  0  0  0  0  0  0  0
    3.1313   17.6080   -1.6893 H   0  0  0  0  0  0  0  0  0  0  0  0
    1.4386   18.5116    0.4886 H   0  0  0  0  0  0  0  0  0  0  0  0
    3.1200   19.2215    0.5966 H   0  0  0  0  0  0  0  0  0  0  0  0
    2.6389   20.6898   -0.9839 H   0  0  0  0  0  0  0  0  0  0  0  0
    2.2175   19.3398   -2.1180 H   0  0  0  0  0  0  0  0  0  0  0  0
    0.8436   21.2531   -1.0159 H   0  0  0  0  0  0  0  0  0  0  0  0
    0.0145   17.4149   -2.0900 H   0  0  0  0  0  0  0  0  0  0  0  0
   -1.0820   18.0640   -3.3561 H   0  0  0  0  0  0  0  0  0  0  0  0
    0.6566   18.5156   -3.3561 H   0  0  0  0  0  0  0  0  0  0  0  0
   -2.2796   20.4714   -1.1928 H   0  0  0  0  0  0  0  0  0  0  0  0
   -1.5743   21.1029   -2.7194 H   0  0  0  0  0  0  0  0  0  0  0  0
   -2.4654   19.5432   -2.7194 H   0  0  0  0  0  0  0  0  0  0  0  0
    2.5572   15.7588    0.4000 H   0  0  0  0  0  0  0  0  0  0  0  0
    0.4789   16.7662    1.1078 H   0  0  0  0  0  0  0  0  0  0  0  0
    0.3955   17.7946   -0.3390 H   0  0  0  0  0  0  0  0  0  0  0  0
   -1.1551   15.4383    0.1156 H   0  0  0  0  0  0  0  0  0  0  0  0
   -0.9762   16.2155   -1.4554 H   0  0  0  0  0  0  0  0  0  0  0  0
    0.5273   14.3565    1.0935 H   0  0  0  0  0  0  0  0  0  0  0  0
   -0.0085   12.8844    0.2146 H   0  0  0  0  0  0  0  0  0  0  0  0
    1.7268   13.3487    0.2146 H   0  0  0  0  0  0  0  0  0  0  0  0
   -0.3380   14.4752   -3.0139 H   0  0  0  0  0  0  0  0  0  0  0  0
   -1.9887   13.6058   -1.2357 H   0  0  0  0  0  0  0  0  0  0  0  0
   -1.9292   12.8684   -2.9216 H   0  0  0  0  0  0  0  0  0  0  0  0
   -2.1786   11.1773   -0.9177 H   0  0  0  0  0  0  0  0  0  0  0  0
    1.8134   11.6570   -1.2921 H   0  0  0  0  0  0  0  0  0  0  0  0
    1.0063    9.9979   -3.7602 H   0  0  0  0  0  0  0  0  0  0  0  0
    2.6779   10.5730   -3.3293 H   0  0  0  0  0  0  0  0  0  0  0  0
    2.3448    8.1804   -2.7966 H   0  0  0  0  0  0  0  0  0  0  0  0
    2.6723    9.1906   -1.3342 H   0  0  0  0  0  0  0  0  0  0  0  0
    0.9173    7.6364   -0.8201 H   0  0  0  0  0  0  0  0  0  0  0  0
   -0.1170    7.0800   -2.6350 H   0  0  0  0  0  0  0  0  0  0  0  0
    0.1635    9.6050    1.5550 H   0  0  0  0  0  0  0  0  0  0  0  0
    1.6533    9.1085    0.6829 H   0  0  0  0  0  0  0  0  0  0  0  0
    1.1446   10.8312    0.6829 H   0  0  0  0  0  0  0  0  0  0  0  0
   -1.4353    8.9517    0.9585 H   0  0  0  0  0  0  0  0  0  0  0  0
   -2.2221    9.5930   -0.5235 H   0  0  0  0  0  0  0  0  0  0  0  0
   -1.5189    7.9401   -0.5235 H   0  0  0  0  0  0  0  0  0  0  0  0
   -0.4845   11.8689   -4.3017 H   0  0  0  0  0  0  0  0  0  0  0  0
    0.2904   13.3807   -4.8854 H   0  0  0  0  0  0  0  0  0  0  0  0
    1.2141   11.8401   -4.8854 H   0  0  0  0  0  0  0  0  0  0  0  0
    3.1199   12.5916   -3.1339 H   0  0  0  0  0  0  0  0  0  0  0  0
    2.3020   14.0420   -3.9476 H   0  0  0  0  0  0  0  0  0  0  0  0
    3.0528   13.7416   -1.0271 H   0  0  0  0  0  0  0  0  0  0  0  0
    3.7279   14.8839   -2.2543 H   0  0  0  0  0  0  0  0  0  0  0  0
    1.2324   17.2652   -2.5474 H   0  0  0  0  0  0  0  0  0  0  0  0
    2.4239   16.2763   -3.4578 H   0  0  0  0  0  0  0  0  0  0  0  0
    0.6877   15.8157   -3.4578 H   0  0  0  0  0  0  0  0  0  0  0  0
  1  2  1  0
  2  3  1  0
  3  4  1  0
  4  5  1  0
  5  6  1  0
  6  7  1  0
  7  8  1  0
  7  9  1  0
  2 10  1  0
 10 11  1  0
 11 12  1  0
 12 13  1  0
 13 14  1  1
 13 15  1  0
 15 16  1  0
 16 17  1  0
 17 18  2  0
 18 19  1  0
 19 20  1  0
 20 21  1  0
 21 22  1  0
 22 23  1  0
 22 24  1  0
 24 25  1  0
 24 26  1  0
 19 27  1  0
 27 28  1  6
 27 29  1  0
 29 30  1  0
 30 31  1  0
 31 32  1  6
  7  5  1  0
 31 10  1  0
 31 13  1  0
 27 15  1  0
 24 18  1  0
  1 33  1  0
  1 34  1  0
  1 35  1  0
  2 36  1  6
  3 37  1  0
  3 38  1  0
  4 39  1  0
  4 40  1  0
  5 41  1  1
  8 42  1  0
  8 43  1  0
  8 44  1  0
  9 45  1  0
  9 46  1  0
  9 47  1  0
 10 48  1  1
 11 49  1  0
 11 50  1  0
 12 51  1  0
 12 52  1  0
 14 53  1  0
 14 54  1  0
 14 55  1  0
 15 56  1  6
 16 57  1  0
 16 58  1  0
 17 59  1  0
 19 60  1  1
 20 61  1  0
 20 62  1  0
 21 63  1  0
 21 64  1  0
 22 65  1  1
 23 66  1  0
 25 67  1  0
 25 68  1  0
 25 69  1  0
 26 70  1  0
 26 71  1  0
 26 72  1  0
 28 73  1  0
 28 74  1  0
 28 75  1  0
 29 76  1  0
 29 77  1  0
 30 78  1  0
 30 79  1  0
 32 80  1  0
 32 81  1  0
 32 82  1  0
M  END
>  <meeko>  (9) 
{"is_sidechain": [false], "intermolecular_energy": 2.731, "internal_energy": -0.839}

$$$$
EPH_relaxed_0001_pdb2pqr_Repair_347_r2_0001_out
     RDKit          3D

 82 86  0  0  0  0  0  0  0  0999 V2000
    0.1190   17.7780   -2.5650 C   0  0  0  0  0  0  0  0  0  0  0  0
   -0.1370   16.8680   -1.3610 C   0  0  2  0  0  0  0  0  0  0  0  0
   -0.2200   17.6600   -0.0410 C   0  0  0  0  0  0  0  0  0  0  0  0
    0.3860   19.0630   -0.1260 C   0  0  0  0  0  0  0  0  0  0  0  0
    1.5470   19.2240    0.8080 C   0  0  2  0  0  0  0  0  0  0  0  0
    2.5200   20.1920    0.3930 O   0  0  0  0  0  0  0  0  0  0  0  0
    2.9680   18.8280    0.4520 C   0  0  0  0  0  0  0  0  0  0  0  0
    3.3030   18.2390   -0.8830 C   0  0  0  0  0  0  0  0  0  0  0  0
    3.9350   18.5590    1.5620 C   0  0  0  0  0  0  0  0  0  0  0  0
    0.9570   15.8110   -1.2660 C   0  0  1  0  0  0  0  0  0  0  0  0
    1.1790   15.3080    0.1850 C   0  0  0  0  0  0  0  0  0  0  0  0
    1.5430   13.8050    0.0870 C   0  0  0  0  0  0  0  0  0  0  0  0
    1.8430   13.5730   -1.4120 C   0  0  1  0  0  0  0  0  0  0  0  0
    3.3100   14.0700   -1.6090 C   0  0  0  0  0  0  0  0  0  0  0  0
    1.6530   12.1130   -1.9380 C   0  0  2  0  0  0  0  0  0  0  0  0
    2.5750   11.0620   -1.2940 C   0  0  0  0  0  0  0  0  0  0  0  0
    3.8780   10.8440   -1.9900 C   0  0  0  0  0  0  0  0  0  0  0  0
    4.1740   11.2510   -3.2390 C   0  0  0  0  0  0  0  0  0  0  0  0
    3.1140   11.9220   -4.1210 C   0  0  1  0  0  0  0  0  0  0  0  0
    3.1460   11.2920   -5.5390 C   0  0  0  0  0  0  0  0  0  0  0  0
    4.5370   11.3310   -6.1650 C   0  0  0  0  0  0  0  0  0  0  0  0
    5.5510   10.6030   -5.2860 C   0  0  2  0  0  0  0  0  0  0  0  0
    5.2300    9.2090   -5.2700 O   0  0  0  0  0  0  0  0  0  0  0  0
    5.6020   11.1460   -3.8310 C   0  0  0  0  0  0  0  0  0  0  0  0
    6.2360   12.5580   -3.8230 C   0  0  0  0  0  0  0  0  0  0  0  0
    6.5590   10.2360   -3.0150 C   0  0  0  0  0  0  0  0  0  0  0  0
    1.6470   11.9870   -3.5150 C   0  0  1  0  0  0  0  0  0  0  0  0
    0.8730   10.6760   -3.8540 C   0  0  0  0  0  0  0  0  0  0  0  0
    0.8560   13.1600   -4.2060 C   0  0  0  0  0  0  0  0  0  0  0  0
    0.9890   14.5570   -3.5690 C   0  0  0  0  0  0  0  0  0  0  0  0
    0.7470   14.4960   -2.0580 C   0  0  2  0  0  0  0  0  0  0  0  0
   -0.7290   14.0200   -1.8290 C   0  0  0  0  0  0  0  0  0  0  0  0
    0.4012   18.7812   -2.2129 H   0  0  0  0  0  0  0  0  0  0  0  0
    0.9345   17.3601   -3.1736 H   0  0  0  0  0  0  0  0  0  0  0  0
   -0.7947   17.8466   -3.1736 H   0  0  0  0  0  0  0  0  0  0  0  0
   -1.1115   16.3818   -1.5158 H   0  0  0  0  0  0  0  0  0  0  0  0
   -1.2790   17.7556    0.2406 H   0  0  0  0  0  0  0  0  0  0  0  0
    0.3642   17.1023    0.7058 H   0  0  0  0  0  0  0  0  0  0  0  0
    0.7298   19.2408   -1.1557 H   0  0  0  0  0  0  0  0  0  0  0  0
   -0.3887   19.7887    0.1624 H   0  0  0  0  0  0  0  0  0  0  0  0
    0.9116   18.9921    1.6754 H   0  0  0  0  0  0  0  0  0  0  0  0
    3.8423   17.2909   -0.7406 H   0  0  0  0  0  0  0  0  0  0  0  0
    2.3757   18.0526   -1.4447 H   0  0  0  0  0  0  0  0  0  0  0  0
    3.9371   18.9407   -1.4447 H   0  0  0  0  0  0  0  0  0  0  0  0
    3.4308   18.6992    2.5295 H   0  0  0  0  0  0  0  0  0  0  0  0
    4.3018   17.5247    1.4862 H   0  0  0  0  0  0  0  0  0  0  0  0
    4.7832   19.2553    1.4862 H   0  0  0  0  0  0  0  0  0  0  0  0
    1.7970   16.3780   -1.6937 H   0  0  0  0  0  0  0  0  0  0  0  0
    2.0003   15.8665    0.6579 H   0  0  0  0  0  0  0  0  0  0  0  0
    0.2769   15.4566    0.7966 H   0  0  0  0  0  0  0  0  0  0  0  0
    2.4282   13.5791    0.6996 H   0  0  0  0  0  0  0  0  0  0  0  0
    0.7357   13.1554    0.4561 H   0  0  0  0  0  0  0  0  0  0  0  0
    3.7784   14.2287   -0.6265 H   0  0  0  0  0  0  0  0  0  0  0  0
    3.8807   13.3151   -2.1697 H   0  0  0  0  0  0  0  0  0  0  0  0
    3.3043   15.0164   -2.1697 H   0  0  0  0  0  0  0  0  0  0  0  0
    0.6366   11.8699   -1.5948 H   0  0  0  0  0  0  0  0  0  0  0  0
    2.7895   11.3835   -0.2641 H   0  0  0  0  0  0  0  0  0  0  0  0
    2.0345   10.1058   -1.3537 H   0  0  0  0  0  0  0  0  0  0  0  0
    4.6615   10.3060   -1.4362 H   0  0  0  0  0  0  0  0  0  0  0  0
    3.3941   12.9842   -4.1778 H   0  0  0  0  0  0  0  0  0  0  0  0
    2.8212   10.2436   -5.4665 H   0  0  0  0  0  0  0  0  0  0  0  0
    2.4741   11.8804   -6.1812 H   0  0  0  0  0  0  0  0  0  0  0  0
    4.5016   10.8457   -7.1515 H   0  0  0  0  0  0  0  0  0  0  0  0
    4.8482   12.3814   -6.2643 H   0  0  0  0  0  0  0  0  0  0  0  0
    6.5474   10.7755   -5.7189 H   0  0  0  0  0  0  0  0  0  0  0  0
    4.2670    9.1300   -5.1650 H   0  0  0  0  0  0  0  0  0  0  0  0
    6.3840   12.8876   -2.7840 H   0  0  0  0  0  0  0  0  0  0  0  0
    7.2066   12.5270   -4.3396 H   0  0  0  0  0  0  0  0  0  0  0  0
    5.5679   13.2628   -4.3396 H   0  0  0  0  0  0  0  0  0  0  0  0
    6.3900   10.3967   -1.9400 H   0  0  0  0  0  0  0  0  0  0  0  0
    6.3637    9.1824   -3.2634 H   0  0  0  0  0  0  0  0  0  0  0  0
    7.6015   10.4841   -3.2634 H   0  0  0  0  0  0  0  0  0  0  0  0
    0.5764   10.1737   -2.9214 H   0  0  0  0  0  0  0  0  0  0  0  0
   -0.0251   10.9215   -4.4398 H   0  0  0  0  0  0  0  0  0  0  0  0
    1.5218   10.0082   -4.4398 H   0  0  0  0  0  0  0  0  0  0  0  0
    1.2094   13.2330   -5.2451 H   0  0  0  0  0  0  0  0  0  0  0  0
   -0.2059   12.8941   -4.0981 H   0  0  0  0  0  0  0  0  0  0  0  0
    2.0021   14.9427   -3.7559 H   0  0  0  0  0  0  0  0  0  0  0  0
    0.2354   15.2204   -4.0183 H   0  0  0  0  0  0  0  0  0  0  0  0
   -0.9300   13.9552   -0.7495 H   0  0  0  0  0  0  0  0  0  0  0  0
   -1.4220   14.7402   -2.2884 H   0  0  0  0  0  0  0  0  0  0  0  0
   -0.8707   13.0306   -2.2884 H   0  0  0  0  0  0  0  0  0  0  0  0
  1  2  1  0
  2  3  1  0
  3  4  1  0
  4  5  1  0
  5  6  1  0
  6  7  1  0
  7  8  1  0
  7  9  1  0
  2 10  1  0
 10 11  1  0
 11 12  1  0
 12 13  1  0
 13 14  1  1
 13 15  1  0
 15 16  1  0
 16 17  1  0
 17 18  2  0
 18 19  1  0
 19 20  1  0
 20 21  1  0
 21 22  1  0
 22 23  1  0
 22 24  1  0
 24 25  1  0
 24 26  1  0
 19 27  1  0
 27 28  1  1
 27 29  1  0
 29 30  1  0
 30 31  1  0
 31 32  1  6
  7  5  1  0
 31 10  1  0
 31 13  1  0
 27 15  1  0
 24 18  1  0
  1 33  1  0
  1 34  1  0
  1 35  1  0
  2 36  1  6
  3 37  1  0
  3 38  1  0
  4 39  1  0
  4 40  1  0
  5 41  1  1
  8 42  1  0
  8 43  1  0
  8 44  1  0
  9 45  1  0
  9 46  1  0
  9 47  1  0
 10 48  1  6
 11 49  1  0
 11 50  1  0
 12 51  1  0
 12 52  1  0
 14 53  1  0
 14 54  1  0
 14 55  1  0
 15 56  1  1
 16 57  1  0
 16 58  1  0
 17 59  1  0
 19 60  1  6
 20 61  1  0
 20 62  1  0
 21 63  1  0
 21 64  1  0
 22 65  1  6
 23 66  1  0
 25 67  1  0
 25 68  1  0
 25 69  1  0
 26 70  1  0
 26 71  1  0
 26 72  1  0
 28 73  1  0
 28 74  1  0
 28 75  1  0
 29 76  1  0
 29 77  1  0
 30 78  1  0
 30 79  1  0
 32 80  1  0
 32 81  1  0
 32 82  1  0
M  END
>  <meeko>  (10) 
{"is_sidechain": [false], "intermolecular_energy": 2.731, "internal_energy": -0.839}

$$$$
EPH_relaxed_0001_pdb2pqr_Repair_347_r2_0001_out
     RDKit          3D

 82 86  0  0  0  0  0  0  0  0999 V2000
    0.8930   20.1320   -2.2130 C   0  0  0  0  0  0  0  0  0  0  0  0
    1.3960   19.4090   -0.9600 C   0  0  2  0  0  0  0  0  0  0  0  0
    2.5230   20.1890   -0.2530 C   0  0  0  0  0  0  0  0  0  0  0  0
    2.4040   20.1940    1.2730 C   0  0  0  0  0  0  0  0  0  0  0  0
    3.7340   19.9950    1.9340 C   0  0  2  0  0  0  0  0  0  0  0  0
    3.8920   18.7320    2.5940 O   0  0  0  0  0  0  0  0  0  0  0  0
    3.9150   19.8950    3.4370 C   0  0  0  0  0  0  0  0  0  0  0  0
    2.7500   19.9920    4.3720 C   0  0  0  0  0  0  0  0  0  0  0  0
    5.2620   20.1920    4.0180 C   0  0  0  0  0  0  0  0  0  0  0  0
    1.8810   18.0110   -1.3260 C   0  0  1  0  0  0  0  0  0  0  0  0
    3.4130   17.8430   -1.1470 C   0  0  0  0  0  0  0  0  0  0  0  0
    3.6510   16.3860   -0.6730 C   0  0  0  0  0  0  0  0  0  0  0  0
    2.3000   15.6730   -0.9130 C   0  0  1  0  0  0  0  0  0  0  0  0
    2.3010   15.3120   -2.4310 C   0  0  0  0  0  0  0  0  0  0  0  0
    2.0120   14.4200   -0.0220 C   0  0  2  0  0  0  0  0  0  0  0  0
    2.9930   13.2490   -0.2070 C   0  0  0  0  0  0  0  0  0  0  0  0
    2.6050   12.2500   -1.2460 C   0  0  0  0  0  0  0  0  0  0  0  0
    1.3850   12.1320   -1.8010 C   0  0  0  0  0  0  0  0  0  0  0  0
    0.2130   12.9970   -1.3180 C   0  0  1  0  0  0  0  0  0  0  0  0
   -1.0400   12.1040   -1.1150 C   0  0  0  0  0  0  0  0  0  0  0  0
   -1.3870   11.2930   -2.3600 C   0  0  0  0  0  0  0  0  0  0  0  0
   -0.2180   10.4030   -2.7750 C   0  0  2  0  0  0  0  0  0  0  0  0
   -0.0190    9.4050   -1.7690 O   0  0  0  0  0  0  0  0  0  0  0  0
    1.1020   11.1920   -2.9980 C   0  0  0  0  0  0  0  0  0  0  0  0
    0.9830   12.0560   -4.2780 C   0  0  0  0  0  0  0  0  0  0  0  0
    2.2320   10.1620   -3.2730 C   0  0  0  0  0  0  0  0  0  0  0  0
    0.5090   13.9270   -0.0630 C   0  0  1  0  0  0  0  0  0  0  0  0
    0.2640   13.1340    1.2570 C   0  0  0  0  0  0  0  0  0  0  0  0
   -0.5140   15.1240   -0.0590 C   0  0  0  0  0  0  0  0  0  0  0  0
   -0.1180   16.3790   -0.8600 C   0  0  0  0  0  0  0  0  0  0  0  0
    1.3060   16.8240   -0.5140 C   0  0  2  0  0  0  0  0  0  0  0  0
    1.3300   17.2140    1.0030 C   0  0  0  0  0  0  0  0  0  0  0  0
    0.2880   21.0016   -1.9166 H   0  0  0  0  0  0  0  0  0  0  0  0
    1.7521   20.4698   -2.8112 H   0  0  0  0  0  0  0  0  0  0  0  0
    0.2776   19.4439   -2.8112 H   0  0  0  0  0  0  0  0  0  0  0  0
    0.5523   19.3379   -0.2577 H   0  0  0  0  0  0  0  0  0  0  0  0
    3.4856   19.7312   -0.5248 H   0  0  0  0  0  0  0  0  0  0  0  0
    2.4472   21.2350   -0.5848 H   0  0  0  0  0  0  0  0  0  0  0  0
    1.9871   21.1598    1.5948 H   0  0  0  0  0  0  0  0  0  0  0  0
    1.7470   19.3626    1.5681 H   0  0  0  0  0  0  0  0  0  0  0  0
    4.2317   20.6106    1.1702 H   0  0  0  0  0  0  0  0  0  0  0  0
    3.1102   19.9620    5.4109 H   0  0  0  0  0  0  0  0  0  0  0  0
    2.2164   20.9377    4.1961 H   0  0  0  0  0  0  0  0  0  0  0  0
    2.0673   19.1476    4.1961 H   0  0  0  0  0  0  0  0  0  0  0  0
    5.1988   20.1781    5.1161 H   0  0  0  0  0  0  0  0  0  0  0  0
    5.9819   19.4310    3.6825 H   0  0  0  0  0  0  0  0  0  0  0  0
    5.5952   21.1852    3.6825 H   0  0  0  0  0  0  0  0  0  0  0  0
    1.5285   17.9608   -2.3668 H   0  0  0  0  0  0  0  0  0  0  0  0
    3.9276   18.0191   -2.1031 H   0  0  0  0  0  0  0  0  0  0  0  0
    3.8068   18.5652   -0.4167 H   0  0  0  0  0  0  0  0  0  0  0  0
    4.4504   15.9118   -1.2613 H   0  0  0  0  0  0  0  0  0  0  0  0
    3.9684   16.3358    0.3790 H   0  0  0  0  0  0  0  0  0  0  0  0
    2.3040   14.2182   -2.5478 H   0  0  0  0  0  0  0  0  0  0  0  0
    1.4017   15.7292   -2.9077 H   0  0  0  0  0  0  0  0  0  0  0  0
    3.1980   15.7341   -2.9077 H   0  0  0  0  0  0  0  0  0  0  0  0
    2.1937   14.8048    0.9923 H   0  0  0  0  0  0  0  0  0  0  0  0
    3.9718   13.6664   -0.4857 H   0  0  0  0  0  0  0  0  0  0  0  0
    3.0018   12.7055    0.7493 H   0  0  0  0  0  0  0  0  0  0  0  0
    3.3827   11.5507   -1.5870 H   0  0  0  0  0  0  0  0  0  0  0  0
    0.0248   13.7287   -2.1175 H   0  0  0  0  0  0  0  0  0  0  0  0
   -0.8475   11.4096   -0.2839 H   0  0  0  0  0  0  0  0  0  0  0  0
   -1.8913   12.7664   -0.8994 H   0  0  0  0  0  0  0  0  0  0  0  0
   -2.2619   10.6615   -2.1460 H   0  0  0  0  0  0  0  0  0  0  0  0
   -1.6072   11.9894   -3.1825 H   0  0  0  0  0  0  0  0  0  0  0  0
   -0.4770    9.9459   -3.7414 H   0  0  0  0  0  0  0  0  0  0  0  0
   -0.2920    8.5510   -2.1440 H   0  0  0  0  0  0  0  0  0  0  0  0
    0.8379   13.1096   -3.9970 H   0  0  0  0  0  0  0  0  0  0  0  0
    1.9030   11.9586   -4.8730 H   0  0  0  0  0  0  0  0  0  0  0  0
    0.1236   11.7135   -4.8730 H   0  0  0  0  0  0  0  0  0  0  0  0
    2.6344    9.7952   -2.3172 H   0  0  0  0  0  0  0  0  0  0  0  0
    1.8258    9.3170   -3.8483 H   0  0  0  0  0  0  0  0  0  0  0  0
    3.0359   10.6445   -3.8483 H   0  0  0  0  0  0  0  0  0  0  0  0
    0.4655   13.7864    2.1194 H   0  0  0  0  0  0  0  0  0  0  0  0
   -0.7813   12.7932    1.2914 H   0  0  0  0  0  0  0  0  0  0  0  0
    0.9349   12.2630    1.2914 H   0  0  0  0  0  0  0  0  0  0  0  0
   -1.4633   14.7518   -0.4716 H   0  0  0  0  0  0  0  0  0  0  0  0
   -0.5650   15.4555    0.9886 H   0  0  0  0  0  0  0  0  0  0  0  0
   -0.1728   16.1519   -1.9349 H   0  0  0  0  0  0  0  0  0  0  0  0
   -0.8119   17.1927   -0.6023 H   0  0  0  0  0  0  0  0  0  0  0  0
    1.2739   16.3029    1.6168 H   0  0  0  0  0  0  0  0  0  0  0  0
    2.2629   17.7513    1.2287 H   0  0  0  0  0  0  0  0  0  0  0  0
    0.4700   17.8617    1.2287 H   0  0  0  0  0  0  0  0  0  0  0  0
  1  2  1  0
  2  3  1  0
  3  4  1  0
  4  5  1  0
  5  6  1  0
  6  7  1  0
  7  8  1  0
  7  9  1  0
  2 10  1  0
 10 11  1  0
 11 12  1  0
 12 13  1  0
 13 14  1  6
 13 15  1  0
 15 16  1  0
 16 17  1  0
 17 18  2  0
 18 19  1  0
 19 20  1  0
 20 21  1  0
 21 22  1  0
 22 23  1  0
 22 24  1  0
 24 25  1  0
 24 26  1  0
 19 27  1  0
 27 28  1  1
 27 29  1  0
 29 30  1  0
 30 31  1  0
 31 32  1  1
  7  5  1  0
 31 10  1  0
 31 13  1  0
 27 15  1  0
 24 18  1  0
  1 33  1  0
  1 34  1  0
  1 35  1  0
  2 36  1  1
  3 37  1  0
  3 38  1  0
  4 39  1  0
  4 40  1  0
  5 41  1  6
  8 42  1  0
  8 43  1  0
  8 44  1  0
  9 45  1  0
  9 46  1  0
  9 47  1  0
 10 48  1  6
 11 49  1  0
 11 50  1  0
 12 51  1  0
 12 52  1  0
 14 53  1  0
 14 54  1  0
 14 55  1  0
 15 56  1  1
 16 57  1  0
 16 58  1  0
 17 59  1  0
 19 60  1  6
 20 61  1  0
 20 62  1  0
 21 63  1  0
 21 64  1  0
 22 65  1  6
 23 66  1  0
 25 67  1  0
 25 68  1  0
 25 69  1  0
 26 70  1  0
 26 71  1  0
 26 72  1  0
 28 73  1  0
 28 74  1  0
 28 75  1  0
 29 76  1  0
 29 77  1  0
 30 78  1  0
 30 79  1  0
 32 80  1  0
 32 81  1  0
 32 82  1  0
M  END
>  <meeko>  (11) 
{"is_sidechain": [false], "intermolecular_energy": 2.731, "internal_energy": -0.839}

$$$$
EPH_relaxed_0001_pdb2pqr_Repair_347_r2_0001_out
     RDKit          3D

 82 86  0  0  0  0  0  0  0  0999 V2000
    2.9810   18.4430   -3.5950 C   0  0  0  0  0  0  0  0  0  0  0  0
    2.1320   18.1620   -2.3520 C   0  0  2  0  0  0  0  0  0  0  0  0
    2.3580   19.2120   -1.2450 C   0  0  0  0  0  0  0  0  0  0  0  0
    2.3100   18.6320    0.1710 C   0  0  0  0  0  0  0  0  0  0  0  0
    2.7470   19.6360    1.1950 C   0  0  2  0  0  0  0  0  0  0  0  0
    4.0660   20.1610    0.9940 O   0  0  0  0  0  0  0  0  0  0  0  0
    3.8680   19.3850    2.1870 C   0  0  0  0  0  0  0  0  0  0  0  0
    4.6210   18.0920    2.2030 C   0  0  0  0  0  0  0  0  0  0  0  0
    3.9040   20.1940    3.4460 C   0  0  0  0  0  0  0  0  0  0  0  0
    2.4380   16.7680   -1.8180 C   0  0  1  0  0  0  0  0  0  0  0  0
    3.2700   16.7990   -0.5080 C   0  0  0  0  0  0  0  0  0  0  0  0
    2.7880   15.6060    0.3560 C   0  0  0  0  0  0  0  0  0  0  0  0
    1.9430   14.7410   -0.6080 C   0  0  1  0  0  0  0  0  0  0  0  0
    2.9850   13.9010   -1.4110 C   0  0  0  0  0  0  0  0  0  0  0  0
    0.8540   13.8330    0.0510 C   0  0  2  0  0  0  0  0  0  0  0  0
    1.3950   12.7540    1.0060 C   0  0  0  0  0  0  0  0  0  0  0  0
    1.7060   11.4390    0.3710 C   0  0  0  0  0  0  0  0  0  0  0  0
    1.2950   11.0420   -0.8470 C   0  0  0  0  0  0  0  0  0  0  0  0
    0.3500   11.9150   -1.6830 C   0  0  1  0  0  0  0  0  0  0  0  0
   -0.7910   11.0370   -2.2610 C   0  0  0  0  0  0  0  0  0  0  0  0
   -0.2670    9.8340   -3.0390 C   0  0  0  0  0  0  0  0  0  0  0  0
    0.6210    8.9600   -2.1580 C   0  0  2  0  0  0  0  0  0  0  0  0
   -0.1840    8.3700   -1.1330 O   0  0  0  0  0  0  0  0  0  0  0  0
    1.8010    9.7390   -1.5130 C   0  0  0  0  0  0  0  0  0  0  0  0
    2.8330   10.1190   -2.6040 C   0  0  0  0  0  0  0  0  0  0  0  0
    2.5340    8.7760   -0.5400 C   0  0  0  0  0  0  0  0  0  0  0  0
   -0.1920   13.2290   -0.9710 C   0  0  1  0  0  0  0  0  0  0  0  0
   -1.4760   12.8980   -0.1500 C   0  0  0  0  0  0  0  0  0  0  0  0
   -0.6230   14.2690   -2.0710 C   0  0  0  0  0  0  0  0  0  0  0  0
    0.4700   15.2180   -2.5960 C   0  0  0  0  0  0  0  0  0  0  0  0
    1.2320   15.8710   -1.4390 C   0  0  2  0  0  0  0  0  0  0  0  0
    0.2140   16.7410   -0.6260 C   0  0  0  0  0  0  0  0  0  0  0  0
    3.9835   18.7748   -3.2870 H   0  0  0  0  0  0  0  0  0  0  0  0
    3.0669   17.5254   -4.1955 H   0  0  0  0  0  0  0  0  0  0  0  0
    2.5025   19.2307   -4.1955 H   0  0  0  0  0  0  0  0  0  0  0  0
    1.0755   18.2212   -2.6524 H   0  0  0  0  0  0  0  0  0  0  0  0
    3.3453   19.6720   -1.3988 H   0  0  0  0  0  0  0  0  0  0  0  0
    1.5388   19.9421   -1.3217 H   0  0  0  0  0  0  0  0  0  0  0  0
    1.2789   18.3205    0.3942 H   0  0  0  0  0  0  0  0  0  0  0  0
    2.9981   17.7749    0.2147 H   0  0  0  0  0  0  0  0  0  0  0  0
    1.7136   19.9905    1.3232 H   0  0  0  0  0  0  0  0  0  0  0  0
    4.7999   17.7848    3.2440 H   0  0  0  0  0  0  0  0  0  0  0  0
    4.0322   17.3184    1.6884 H   0  0  0  0  0  0  0  0  0  0  0  0
    5.5844   18.2224    1.6884 H   0  0  0  0  0  0  0  0  0  0  0  0
    3.8740   19.5208    4.3154 H   0  0  0  0  0  0  0  0  0  0  0  0
    4.8295   20.7879    3.4739 H   0  0  0  0  0  0  0  0  0  0  0  0
    3.0349   20.8678    3.4739 H   0  0  0  0  0  0  0  0  0  0  0  0
    2.9610   16.3475   -2.6896 H   0  0  0  0  0  0  0  0  0  0  0  0
    4.3407   16.6929   -0.7367 H   0  0  0  0  0  0  0  0  0  0  0  0
    3.1341   17.7523    0.0238 H   0  0  0  0  0  0  0  0  0  0  0  0
    3.6452   15.0339    0.7406 H   0  0  0  0  0  0  0  0  0  0  0  0
    2.2130   15.9334    1.2348 H   0  0  0  0  0  0  0  0  0  0  0  0
    3.6452   13.3688   -0.7103 H   0  0  0  0  0  0  0  0  0  0  0  0
    2.4584   13.1719   -2.0443 H   0  0  0  0  0  0  0  0  0  0  0  0
    3.5858   14.5703   -2.0443 H   0  0  0  0  0  0  0  0  0  0  0  0
    0.3053   14.5451    0.6849 H   0  0  0  0  0  0  0  0  0  0  0  0
    2.3188   13.1374    1.4639 H   0  0  0  0  0  0  0  0  0  0  0  0
    0.5918   12.5593    1.7319 H   0  0  0  0  0  0  0  0  0  0  0  0
    2.3236   10.7350    0.9480 H   0  0  0  0  0  0  0  0  0  0  0  0
    0.9590   12.3229   -2.5032 H   0  0  0  0  0  0  0  0  0  0  0  0
   -1.4132   10.6751   -1.4292 H   0  0  0  0  0  0  0  0  0  0  0  0
   -1.3701   11.6594   -2.9590 H   0  0  0  0  0  0  0  0  0  0  0  0
   -1.1192    9.2370   -3.3959 H   0  0  0  0  0  0  0  0  0  0  0  0
    0.3300   10.1978   -3.8882 H   0  0  0  0  0  0  0  0  0  0  0  0
    1.0695    8.1900   -2.8029 H   0  0  0  0  0  0  0  0  0  0  0  0
    0.2800    8.4930   -0.2870 H   0  0  0  0  0  0  0  0  0  0  0  0
    3.7627   10.4613   -2.1260 H   0  0  0  0  0  0  0  0  0  0  0  0
    3.0449    9.2399   -3.2304 H   0  0  0  0  0  0  0  0  0  0  0  0
    2.4242   10.9256   -3.2304 H   0  0  0  0  0  0  0  0  0  0  0  0
    2.3135    9.0657    0.4980 H   0  0  0  0  0  0  0  0  0  0  0  0
    2.1892    7.7461   -0.7144 H   0  0  0  0  0  0  0  0  0  0  0  0
    3.6185    8.8341   -0.7144 H   0  0  0  0  0  0  0  0  0  0  0  0
   -1.2492   12.9565    0.9248 H   0  0  0  0  0  0  0  0  0  0  0  0
   -2.2664   13.6217   -0.3979 H   0  0  0  0  0  0  0  0  0  0  0  0
   -1.8180   11.8823   -0.3979 H   0  0  0  0  0  0  0  0  0  0  0  0
   -1.0125   13.7027   -2.9298 H   0  0  0  0  0  0  0  0  0  0  0  0
   -1.3579   14.9218   -1.5774 H   0  0  0  0  0  0  0  0  0  0  0  0
    1.1768   14.6454   -3.2145 H   0  0  0  0  0  0  0  0  0  0  0  0
   -0.0092   16.0094   -3.1909 H   0  0  0  0  0  0  0  0  0  0  0  0
    0.3849   16.5950    0.4508 H   0  0  0  0  0  0  0  0  0  0  0  0
    0.3547   17.8022   -0.8790 H   0  0  0  0  0  0  0  0  0  0  0  0
   -0.8124   16.4367   -0.8790 H   0  0  0  0  0  0  0  0  0  0  0  0
  1  2  1  0
  2  3  1  0
  3  4  1  0
  4  5  1  0
  5  6  1  0
  6  7  1  0
  7  8  1  0
  7  9  1  0
  2 10  1  0
 10 11  1  0
 11 12  1  0
 12 13  1  0
 13 14  1  6
 13 15  1  0
 15 16  1  0
 16 17  1  0
 17 18  2  0
 18 19  1  0
 19 20  1  0
 20 21  1  0
 21 22  1  0
 22 23  1  0
 22 24  1  0
 24 25  1  0
 24 26  1  0
 19 27  1  0
 27 28  1  1
 27 29  1  0
 29 30  1  0
 30 31  1  0
 31 32  1  1
  7  5  1  0
 31 10  1  0
 31 13  1  0
 27 15  1  0
 24 18  1  0
  1 33  1  0
  1 34  1  0
  1 35  1  0
  2 36  1  6
  3 37  1  0
  3 38  1  0
  4 39  1  0
  4 40  1  0
  5 41  1  1
  8 42  1  0
  8 43  1  0
  8 44  1  0
  9 45  1  0
  9 46  1  0
  9 47  1  0
 10 48  1  6
 11 49  1  0
 11 50  1  0
 12 51  1  0
 12 52  1  0
 14 53  1  0
 14 54  1  0
 14 55  1  0
 15 56  1  1
 16 57  1  0
 16 58  1  0
 17 59  1  0
 19 60  1  6
 20 61  1  0
 20 62  1  0
 21 63  1  0
 21 64  1  0
 22 65  1  6
 23 66  1  0
 25 67  1  0
 25 68  1  0
 25 69  1  0
 26 70  1  0
 26 71  1  0
 26 72  1  0
 28 73  1  0
 28 74  1  0
 28 75  1  0
 29 76  1  0
 29 77  1  0
 30 78  1  0
 30 79  1  0
 32 80  1  0
 32 81  1  0
 32 82  1  0
M  END
>  <meeko>  (12) 
{"is_sidechain": [false], "intermolecular_energy": 2.731, "internal_energy": -0.839}

$$$$
EPH_relaxed_0001_pdb2pqr_Repair_347_r2_0001_out
     RDKit          3D

 82 86  0  0  0  0  0  0  0  0999 V2000
    0.0360    9.2950   -2.2380 C   0  0  0  0  0  0  0  0  0  0  0  0
    1.0800   10.3070   -2.7210 C   0  0  2  0  0  0  0  0  0  0  0  0
    2.4870    9.6860   -2.8220 C   0  0  0  0  0  0  0  0  0  0  0  0
    3.3990   10.3880   -3.8320 C   0  0  0  0  0  0  0  0  0  0  0  0
    4.7860   10.5680   -3.2950 C   0  0  2  0  0  0  0  0  0  0  0  0
    5.3650   11.8540   -3.5500 O   0  0  0  0  0  0  0  0  0  0  0  0
    6.0100   10.7340   -4.1770 C   0  0  0  0  0  0  0  0  0  0  0  0
    5.9020   10.7270   -5.6700 C   0  0  0  0  0  0  0  0  0  0  0  0
    7.3540   10.4130   -3.6030 C   0  0  0  0  0  0  0  0  0  0  0  0
    1.1080   11.5110   -1.7870 C   0  0  1  0  0  0  0  0  0  0  0  0
    2.1690   11.3710   -0.6640 C   0  0  0  0  0  0  0  0  0  0  0  0
    2.7270   12.7920   -0.3950 C   0  0  0  0  0  0  0  0  0  0  0  0
    1.7460   13.7400   -1.1250 C   0  0  1  0  0  0  0  0  0  0  0  0
    0.5360   13.8930   -0.1500 C   0  0  0  0  0  0  0  0  0  0  0  0
    2.3190   15.1290   -1.5560 C   0  0  2  0  0  0  0  0  0  0  0  0
    2.7840   16.0310   -0.4000 C   0  0  0  0  0  0  0  0  0  0  0  0
    1.7430   16.9470    0.1530 C   0  0  0  0  0  0  0  0  0  0  0  0
    0.5730   17.2490   -0.4400 C   0  0  0  0  0  0  0  0  0  0  0  0
    0.2410   16.7230   -1.8430 C   0  0  1  0  0  0  0  0  0  0  0  0
   -0.3210   17.8800   -2.7100 C   0  0  0  0  0  0  0  0  0  0  0  0
   -1.5080   18.5800   -2.0540 C   0  0  0  0  0  0  0  0  0  0  0  0
   -1.1230   19.1390   -0.6870 C   0  0  2  0  0  0  0  0  0  0  0  0
   -0.1730   20.1930   -0.8710 O   0  0  0  0  0  0  0  0  0  0  0  0
   -0.5340   18.0660    0.2710 C   0  0  0  0  0  0  0  0  0  0  0  0
   -1.6530   17.0900    0.7100 C   0  0  0  0  0  0  0  0  0  0  0  0
   -0.0570   18.7880    1.5610 C   0  0  0  0  0  0  0  0  0  0  0  0
    1.4020   15.9210   -2.5740 C   0  0  1  0  0  0  0  0  0  0  0  0
    2.3350   16.9110   -3.3370 C   0  0  0  0  0  0  0  0  0  0  0  0
    0.7670   14.9800   -3.6650 C   0  0  0  0  0  0  0  0  0  0  0  0
    0.3300   13.5770   -3.2030 C   0  0  0  0  0  0  0  0  0  0  0  0
    1.4460   12.8880   -2.4110 C   0  0  2  0  0  0  0  0  0  0  0  0
    2.6690   12.7000   -3.3730 C   0  0  0  0  0  0  0  0  0  0  0  0
    0.0209    9.2804   -1.1382 H   0  0  0  0  0  0  0  0  0  0  0  0
   -0.9564    9.5839   -2.6145 H   0  0  0  0  0  0  0  0  0  0  0  0
    0.2939    8.2941   -2.6145 H   0  0  0  0  0  0  0  0  0  0  0  0
    0.7872   10.6274   -3.7317 H   0  0  0  0  0  0  0  0  0  0  0  0
    2.9615    9.7381   -1.8310 H   0  0  0  0  0  0  0  0  0  0  0  0
    2.3571    8.6511   -3.1715 H   0  0  0  0  0  0  0  0  0  0  0  0
    3.4477    9.7827   -4.7492 H   0  0  0  0  0  0  0  0  0  0  0  0
    2.9795   11.3837   -4.0384 H   0  0  0  0  0  0  0  0  0  0  0  0
    4.5707    9.8976   -2.4499 H   0  0  0  0  0  0  0  0  0  0  0  0
    4.8433   10.6584   -5.9607 H   0  0  0  0  0  0  0  0  0  0  0  0
    6.3336   11.6550   -6.0732 H   0  0  0  0  0  0  0  0  0  0  0  0
    6.4497    9.8625   -6.0732 H   0  0  0  0  0  0  0  0  0  0  0  0
    7.2964   10.4268   -2.5046 H   0  0  0  0  0  0  0  0  0  0  0  0
    7.6682    9.4146   -3.9412 H   0  0  0  0  0  0  0  0  0  0  0  0
    8.0855   11.1617   -3.9412 H   0  0  0  0  0  0  0  0  0  0  0  0
    0.0635   11.5008   -1.4422 H   0  0  0  0  0  0  0  0  0  0  0  0
    1.7043   10.9678    0.2479 H   0  0  0  0  0  0  0  0  0  0  0  0
    2.9723   10.6819   -0.9638 H   0  0  0  0  0  0  0  0  0  0  0  0
    2.7429   13.0053    0.6840 H   0  0  0  0  0  0  0  0  0  0  0  0
    3.7618   12.9083   -0.7495 H   0  0  0  0  0  0  0  0  0  0  0  0
    0.8943   13.8477    0.8890 H   0  0  0  0  0  0  0  0  0  0  0  0
    0.0433   14.8606   -0.3261 H   0  0  0  0  0  0  0  0  0  0  0  0
   -0.1820   13.0785   -0.3261 H   0  0  0  0  0  0  0  0  0  0  0  0
    3.2323   14.8477   -2.1008 H   0  0  0  0  0  0  0  0  0  0  0  0
    3.1349   15.3830    0.4167 H   0  0  0  0  0  0  0  0  0  0  0  0
    3.5690   16.6791   -0.8168 H   0  0  0  0  0  0  0  0  0  0  0  0
    1.9495   17.4145    1.1271 H   0  0  0  0  0  0  0  0  0  0  0  0
   -0.5311   15.9518   -1.7047 H   0  0  0  0  0  0  0  0  0  0  0  0
    0.4778   18.6185   -2.8730 H   0  0  0  0  0  0  0  0  0  0  0  0
   -0.6715   17.4466   -3.6583 H   0  0  0  0  0  0  0  0  0  0  0  0
   -1.8411   19.4057   -2.6999 H   0  0  0  0  0  0  0  0  0  0  0  0
   -2.3173   17.8474   -1.9189 H   0  0  0  0  0  0  0  0  0  0  0  0
   -2.0429   19.5112   -0.2124 H   0  0  0  0  0  0  0  0  0  0  0  0
    0.2240   20.3860   -0.0050 H   0  0  0  0  0  0  0  0  0  0  0  0
   -1.6964   17.0522    1.8085 H   0  0  0  0  0  0  0  0  0  0  0  0
   -2.6191   17.4391    0.3167 H   0  0  0  0  0  0  0  0  0  0  0  0
   -1.4384   16.0854    0.3167 H   0  0  0  0  0  0  0  0  0  0  0  0
   -0.4192   18.2398    2.4432 H   0  0  0  0  0  0  0  0  0  0  0  0
    1.0423   18.8226    1.5766 H   0  0  0  0  0  0  0  0  0  0  0  0
   -0.4564   19.8128    1.5766 H   0  0  0  0  0  0  0  0  0  0  0  0
    2.9023   17.5129   -2.6118 H   0  0  0  0  0  0  0  0  0  0  0  0
    3.0340   16.3431   -3.9686 H   0  0  0  0  0  0  0  0  0  0  0  0
    1.7267   17.5751   -3.9686 H   0  0  0  0  0  0  0  0  0  0  0  0
   -0.1209   15.4893   -4.0677 H   0  0  0  0  0  0  0  0  0  0  0  0
    1.5696   14.8051   -4.3966 H   0  0  0  0  0  0  0  0  0  0  0  0
   -0.5604   13.6698   -2.5638 H   0  0  0  0  0  0  0  0  0  0  0  0
    0.1043   12.9696   -4.0919 H   0  0  0  0  0  0  0  0  0  0  0  0
    3.5843   12.5593   -2.7793 H   0  0  0  0  0  0  0  0  0  0  0  0
    2.5041   11.8167   -4.0074 H   0  0  0  0  0  0  0  0  0  0  0  0
    2.7770   13.5921   -4.0074 H   0  0  0  0  0  0  0  0  0  0  0  0
  1  2  1  0
  2  3  1  0
  3  4  1  0
  4  5  1  0
  5  6  1  0
  6  7  1  0
  7  8  1  0
  7  9  1  0
  2 10  1  0
 10 11  1  0
 11 12  1  0
 12 13  1  0
 13 14  1  1
 13 15  1  0
 15 16  1  0
 16 17  1  0
 17 18  2  0
 18 19  1  0
 19 20  1  0
 20 21  1  0
 21 22  1  0
 22 23  1  0
 22 24  1  0
 24 25  1  0
 24 26  1  0
 19 27  1  0
 27 28  1  6
 27 29  1  0
 29 30  1  0
 30 31  1  0
 31 32  1  6
  7  5  1  0
 31 10  1  0
 31 13  1  0
 27 15  1  0
 24 18  1  0
  1 33  1  0
  1 34  1  0
  1 35  1  0
  2 36  1  6
  3 37  1  0
  3 38  1  0
  4 39  1  0
  4 40  1  0
  5 41  1  1
  8 42  1  0
  8 43  1  0
  8 44  1  0
  9 45  1  0
  9 46  1  0
  9 47  1  0
 10 48  1  1
 11 49  1  0
 11 50  1  0
 12 51  1  0
 12 52  1  0
 14 53  1  0
 14 54  1  0
 14 55  1  0
 15 56  1  6
 16 57  1  0
 16 58  1  0
 17 59  1  0
 19 60  1  1
 20 61  1  0
 20 62  1  0
 21 63  1  0
 21 64  1  0
 22 65  1  1
 23 66  1  0
 25 67  1  0
 25 68  1  0
 25 69  1  0
 26 70  1  0
 26 71  1  0
 26 72  1  0
 28 73  1  0
 28 74  1  0
 28 75  1  0
 29 76  1  0
 29 77  1  0
 30 78  1  0
 30 79  1  0
 32 80  1  0
 32 81  1  0
 32 82  1  0
M  END
>  <meeko>  (13) 
{"is_sidechain": [false], "intermolecular_energy": 2.731, "internal_energy": -0.839}

$$$$
EPH_relaxed_0001_pdb2pqr_Repair_347_r2_0001_out
     RDKit          3D

 82 86  0  0  0  0  0  0  0  0999 V2000
   -2.1410   14.1130    0.3540 C   0  0  0  0  0  0  0  0  0  0  0  0
   -0.8230   14.8230    0.6730 C   0  0  2  0  0  0  0  0  0  0  0  0
   -0.6910   16.1660   -0.0740 C   0  0  0  0  0  0  0  0  0  0  0  0
    0.7400   16.4900   -0.5100 C   0  0  0  0  0  0  0  0  0  0  0  0
    0.9790   17.9680   -0.5740 C   0  0  2  0  0  0  0  0  0  0  0  0
    1.7910   18.3960   -1.6750 O   0  0  0  0  0  0  0  0  0  0  0  0
    2.3400   18.6050   -0.3630 C   0  0  0  0  0  0  0  0  0  0  0  0
    3.5520   17.7780   -0.0720 C   0  0  0  0  0  0  0  0  0  0  0  0
    2.4000   20.0450    0.0420 C   0  0  0  0  0  0  0  0  0  0  0  0
    0.3530   13.9170    0.3270 C   0  0  1  0  0  0  0  0  0  0  0  0
    0.6230   12.8460    1.4180 C   0  0  0  0  0  0  0  0  0  0  0  0
    1.1050   11.5700    0.6820 C   0  0  0  0  0  0  0  0  0  0  0  0
    1.4130   12.0430   -0.7580 C   0  0  1  0  0  0  0  0  0  0  0  0
    2.8340   12.6830   -0.6740 C   0  0  0  0  0  0  0  0  0  0  0  0
    1.3370   10.9520   -1.8750 C   0  0  2  0  0  0  0  0  0  0  0  0
    2.3440    9.7980   -1.7300 C   0  0  0  0  0  0  0  0  0  0  0  0
    3.6550   10.0050   -2.4130 C   0  0  0  0  0  0  0  0  0  0  0  0
    3.9110   10.9390   -3.3470 C   0  0  0  0  0  0  0  0  0  0  0  0
    2.7950   11.8490   -3.8780 C   0  0  1  0  0  0  0  0  0  0  0  0
    2.8680   11.9090   -5.4260 C   0  0  0  0  0  0  0  0  0  0  0  0
    4.2480   12.3220   -5.9310 C   0  0  0  0  0  0  0  0  0  0  0  0
    5.3220   11.3610   -5.4300 C   0  0  2  0  0  0  0  0  0  0  0  0
    5.1130   10.0810   -6.0360 O   0  0  0  0  0  0  0  0  0  0  0  0
    5.3380   11.2110   -3.8830 C   0  0  0  0  0  0  0  0  0  0  0  0
    5.8580   12.5200   -3.2390 C   0  0  0  0  0  0  0  0  0  0  0  0
    6.3700   10.1090   -3.5210 C   0  0  0  0  0  0  0  0  0  0  0  0
    1.3310   11.5310   -3.3480 C   0  0  1  0  0  0  0  0  0  0  0  0
    0.6620   10.4490   -4.2500 C   0  0  0  0  0  0  0  0  0  0  0  0
    0.4450   12.8260   -3.4780 C   0  0  0  0  0  0  0  0  0  0  0  0
    0.4700   13.8070   -2.2900 C   0  0  0  0  0  0  0  0  0  0  0  0
    0.2420   13.0720   -0.9660 C   0  0  2  0  0  0  0  0  0  0  0  0
   -1.1890   12.4360   -1.0130 C   0  0  0  0  0  0  0  0  0  0  0  0
   -2.6470   13.8404    1.2919 H   0  0  0  0  0  0  0  0  0  0  0  0
   -2.7875   14.7849   -0.2296 H   0  0  0  0  0  0  0  0  0  0  0  0
   -1.9356   13.2035   -0.2296 H   0  0  0  0  0  0  0  0  0  0  0  0
   -0.8183   15.0427    1.7508 H   0  0  0  0  0  0  0  0  0  0  0  0
   -1.3271   16.1285   -0.9707 H   0  0  0  0  0  0  0  0  0  0  0  0
   -0.9997   16.9553    0.6272 H   0  0  0  0  0  0  0  0  0  0  0  0
    1.4416   16.0464    0.2118 H   0  0  0  0  0  0  0  0  0  0  0  0
    0.8942   16.0739   -1.5165 H   0  0  0  0  0  0  0  0  0  0  0  0
   -0.0071   18.1706   -0.1306 H   0  0  0  0  0  0  0  0  0  0  0  0
    3.6824   17.6890    1.0166 H   0  0  0  0  0  0  0  0  0  0  0  0
    3.4262   16.7765   -0.5093 H   0  0  0  0  0  0  0  0  0  0  0  0
    4.4386   18.2603   -0.5093 H   0  0  0  0  0  0  0  0  0  0  0  0
    2.4030   20.1174    1.1396 H   0  0  0  0  0  0  0  0  0  0  0  0
    3.3179   20.5005   -0.3580 H   0  0  0  0  0  0  0  0  0  0  0  0
    1.5232   20.5752   -0.3580 H   0  0  0  0  0  0  0  0  0  0  0  0
    1.1432   14.6740    0.2151 H   0  0  0  0  0  0  0  0  0  0  0  0
    1.4000   13.1995    2.1118 H   0  0  0  0  0  0  0  0  0  0  0  0
   -0.2842   12.6439    2.0063 H   0  0  0  0  0  0  0  0  0  0  0  0
    2.0093   11.1646    1.1593 H   0  0  0  0  0  0  0  0  0  0  0  0
    0.3544   10.7662    0.7055 H   0  0  0  0  0  0  0  0  0  0  0  0
    3.1169   12.8104    0.3813 H   0  0  0  0  0  0  0  0  0  0  0  0
    3.5621   12.0259   -1.1721 H   0  0  0  0  0  0  0  0  0  0  0  0
    2.8245   13.6637   -1.1721 H   0  0  0  0  0  0  0  0  0  0  0  0
    0.3457   10.5075   -1.7022 H   0  0  0  0  0  0  0  0  0  0  0  0
    2.5392    9.6502   -0.6576 H   0  0  0  0  0  0  0  0  0  0  0  0
    1.8811    8.9276   -2.2181 H   0  0  0  0  0  0  0  0  0  0  0  0
    4.4818    9.3375   -2.1287 H   0  0  0  0  0  0  0  0  0  0  0  0
    2.9894   12.8464   -3.4567 H   0  0  0  0  0  0  0  0  0  0  0  0
    2.6281   10.9141   -5.8292 H   0  0  0  0  0  0  0  0  0  0  0  0
    2.1473   12.6677   -5.7652 H   0  0  0  0  0  0  0  0  0  0  0  0
    4.2452   12.3170   -7.0310 H   0  0  0  0  0  0  0  0  0  0  0  0
    4.4737   13.3295   -5.5516 H   0  0  0  0  0  0  0  0  0  0  0  0
    6.2985   11.7806   -5.7133 H   0  0  0  0  0  0  0  0  0  0  0  0
    4.3380    9.6770   -5.6100 H   0  0  0  0  0  0  0  0  0  0  0  0
    5.8219   12.4291   -2.1434 H   0  0  0  0  0  0  0  0  0  0  0  0
    6.8954   12.6987   -3.5581 H   0  0  0  0  0  0  0  0  0  0  0  0
    5.2260   13.3619   -3.5581 H   0  0  0  0  0  0  0  0  0  0  0  0
    6.4484   10.0252   -2.4270 H   0  0  0  0  0  0  0  0  0  0  0  0
    6.0408    9.1466   -3.9398 H   0  0  0  0  0  0  0  0  0  0  0  0
    7.3519   10.3744   -3.9398 H   0  0  0  0  0  0  0  0  0  0  0  0
    0.1892    9.6844   -3.6161 H   0  0  0  0  0  0  0  0  0  0  0  0
   -0.1015   10.9220   -4.8851 H   0  0  0  0  0  0  0  0  0  0  0  0
    1.4263    9.9774   -4.8851 H   0  0  0  0  0  0  0  0  0  0  0  0
    0.7851   13.3738   -4.3692 H   0  0  0  0  0  0  0  0  0  0  0  0
   -0.5917   12.4616   -3.5287 H   0  0  0  0  0  0  0  0  0  0  0  0
    1.4482   14.3092   -2.2588 H   0  0  0  0  0  0  0  0  0  0  0  0
   -0.3367   14.5423   -2.4259 H   0  0  0  0  0  0  0  0  0  0  0  0
   -1.5523   12.2745    0.0126 H   0  0  0  0  0  0  0  0  0  0  0  0
   -1.8745   13.1142   -1.5423 H   0  0  0  0  0  0  0  0  0  0  0  0
   -1.1449   11.4727   -1.5423 H   0  0  0  0  0  0  0  0  0  0  0  0
  1  2  1  0
  2  3  1  0
  3  4  1  0
  4  5  1  0
  5  6  1  0
  6  7  1  0
  7  8  1  0
  7  9  1  0
  2 10  1  0
 10 11  1  0
 11 12  1  0
 12 13  1  0
 13 14  1  1
 13 15  1  0
 15 16  1  0
 16 17  1  0
 17 18  2  0
 18 19  1  0
 19 20  1  0
 20 21  1  0
 21 22  1  0
 22 23  1  0
 22 24  1  0
 24 25  1  0
 24 26  1  0
 19 27  1  0
 27 28  1  6
 27 29  1  0
 29 30  1  0
 30 31  1  0
 31 32  1  6
  7  5  1  0
 31 10  1  0
 31 13  1  0
 27 15  1  0
 24 18  1  0
  1 33  1  0
  1 34  1  0
  1 35  1  0
  2 36  1  1
  3 37  1  0
  3 38  1  0
  4 39  1  0
  4 40  1  0
  5 41  1  1
  8 42  1  0
  8 43  1  0
  8 44  1  0
  9 45  1  0
  9 46  1  0
  9 47  1  0
 10 48  1  6
 11 49  1  0
 11 50  1  0
 12 51  1  0
 12 52  1  0
 14 53  1  0
 14 54  1  0
 14 55  1  0
 15 56  1  1
 16 57  1  0
 16 58  1  0
 17 59  1  0
 19 60  1  1
 20 61  1  0
 20 62  1  0
 21 63  1  0
 21 64  1  0
 22 65  1  6
 23 66  1  0
 25 67  1  0
 25 68  1  0
 25 69  1  0
 26 70  1  0
 26 71  1  0
 26 72  1  0
 28 73  1  0
 28 74  1  0
 28 75  1  0
 29 76  1  0
 29 77  1  0
 30 78  1  0
 30 79  1  0
 32 80  1  0
 32 81  1  0
 32 82  1  0
M  END
>  <meeko>  (14) 
{"is_sidechain": [false], "intermolecular_energy": 2.731, "internal_energy": -0.839}

$$$$
EPH_relaxed_0001_pdb2pqr_Repair_347_r2_0001_out
     RDKit          3D

 82 86  0  0  0  0  0  0  0  0999 V2000
   -5.2140    7.8280   -0.2890 C   0  0  0  0  0  0  0  0  0  0  0  0
   -5.4410    7.0760   -1.6040 C   0  0  2  0  0  0  0  0  0  0  0  0
   -4.3790    7.4260   -2.6650 C   0  0  0  0  0  0  0  0  0  0  0  0
   -2.9440    7.3950   -2.1330 C   0  0  0  0  0  0  0  0  0  0  0  0
   -2.2050    8.6590   -2.4530 C   0  0  2  0  0  0  0  0  0  0  0  0
   -0.8260    8.4760   -2.7980 O   0  0  0  0  0  0  0  0  0  0  0  0
   -1.0850    9.2150   -1.5940 C   0  0  0  0  0  0  0  0  0  0  0  0
   -0.6410    8.5200   -0.3450 C   0  0  0  0  0  0  0  0  0  0  0  0
   -0.7590   10.6720   -1.6990 C   0  0  0  0  0  0  0  0  0  0  0  0
   -6.8350    7.3800   -2.1410 C   0  0  1  0  0  0  0  0  0  0  0  0
   -7.0900    6.7410   -3.5330 C   0  0  0  0  0  0  0  0  0  0  0  0
   -8.5850    6.3310   -3.5690 C   0  0  0  0  0  0  0  0  0  0  0  0
   -9.2130    7.0390   -2.3450 C   0  0  1  0  0  0  0  0  0  0  0  0
   -9.4730    8.5030   -2.8180 C   0  0  0  0  0  0  0  0  0  0  0  0
  -10.5050    6.3840   -1.7570 C   0  0  2  0  0  0  0  0  0  0  0  0
  -11.7090    6.3420   -2.7150 C   0  0  0  0  0  0  0  0  0  0  0  0
  -12.6170    7.5250   -2.6500 C   0  0  0  0  0  0  0  0  0  0  0  0
  -12.6380    8.4430   -1.6650 C   0  0  0  0  0  0  0  0  0  0  0  0
  -11.7490    8.2860   -0.4240 C   0  0  1  0  0  0  0  0  0  0  0  0
  -12.5890    8.5580    0.8510 C   0  0  0  0  0  0  0  0  0  0  0  0
  -13.2990    9.9080    0.8080 C   0  0  0  0  0  0  0  0  0  0  0  0
  -14.2170   10.0030   -0.4080 C   0  0  2  0  0  0  0  0  0  0  0  0
  -15.2870    9.0660   -0.2520 O   0  0  0  0  0  0  0  0  0  0  0  0
  -13.4820    9.7380   -1.7520 C   0  0  0  0  0  0  0  0  0  0  0  0
  -12.5310   10.9180   -2.0670 C   0  0  0  0  0  0  0  0  0  0  0  0
  -14.5460    9.7240   -2.8830 C   0  0  0  0  0  0  0  0  0  0  0  0
  -10.9190    6.9340   -0.3320 C   0  0  1  0  0  0  0  0  0  0  0  0
  -11.7840    5.8240    0.3400 C   0  0  0  0  0  0  0  0  0  0  0  0
   -9.6760    7.1570    0.6070 C   0  0  0  0  0  0  0  0  0  0  0  0
   -8.3920    7.6930   -0.0550 C   0  0  0  0  0  0  0  0  0  0  0  0
   -8.0420    6.8840   -1.3080 C   0  0  2  0  0  0  0  0  0  0  0  0
   -7.7540    5.4100   -0.8600 C   0  0  0  0  0  0  0  0  0  0  0  0
   -5.4170    7.1557    0.5576 H   0  0  0  0  0  0  0  0  0  0  0  0
   -4.1712    8.1746   -0.2401 H   0  0  0  0  0  0  0  0  0  0  0  0
   -5.8908    8.6937   -0.2401 H   0  0  0  0  0  0  0  0  0  0  0  0
   -5.3504    6.0007   -1.3906 H   0  0  0  0  0  0  0  0  0  0  0  0
   -4.4596    6.7018   -3.4890 H   0  0  0  0  0  0  0  0  0  0  0  0
   -4.5785    8.4573   -2.9915 H   0  0  0  0  0  0  0  0  0  0  0  0
   -2.9717    7.2653   -1.0410 H   0  0  0  0  0  0  0  0  0  0  0  0
   -2.4177    6.5590   -2.6169 H   0  0  0  0  0  0  0  0  0  0  0  0
   -3.1185    9.1164   -2.8608 H   0  0  0  0  0  0  0  0  0  0  0  0
   -0.9982    9.0791    0.5324 H   0  0  0  0  0  0  0  0  0  0  0  0
   -1.0561    7.5015   -0.3247 H   0  0  0  0  0  0  0  0  0  0  0  0
    0.4576    8.4686   -0.3247 H   0  0  0  0  0  0  0  0  0  0  0  0
   -0.6633   11.0999   -0.6902 H   0  0  0  0  0  0  0  0  0  0  0  0
    0.1894   10.7973   -2.2420 H   0  0  0  0  0  0  0  0  0  0  0  0
   -1.5636   11.1895   -2.2420 H   0  0  0  0  0  0  0  0  0  0  0  0
   -6.8002    8.4794   -2.1337 H   0  0  0  0  0  0  0  0  0  0  0  0
   -6.8776    7.4698   -4.3291 H   0  0  0  0  0  0  0  0  0  0  0  0
   -6.4373    5.8703   -3.6938 H   0  0  0  0  0  0  0  0  0  0  0  0
   -9.0591    6.6727   -4.5009 H   0  0  0  0  0  0  0  0  0  0  0  0
   -8.7194    5.2398   -3.5343 H   0  0  0  0  0  0  0  0  0  0  0  0
   -9.5891    9.1566   -1.9409 H   0  0  0  0  0  0  0  0  0  0  0  0
   -8.6223    8.8493   -3.4233 H   0  0  0  0  0  0  0  0  0  0  0  0
  -10.3909    8.5352   -3.4233 H   0  0  0  0  0  0  0  0  0  0  0  0
  -10.1971    5.3371   -1.6181 H   0  0  0  0  0  0  0  0  0  0  0  0
  -11.3234    6.2655   -3.7424 H   0  0  0  0  0  0  0  0  0  0  0  0
  -12.3138    5.4768   -2.4059 H   0  0  0  0  0  0  0  0  0  0  0  0
  -13.3297    7.6583   -3.4772 H   0  0  0  0  0  0  0  0  0  0  0  0
  -10.9574    9.0439   -0.5183 H   0  0  0  0  0  0  0  0  0  0  0  0
  -13.3450    7.7652    0.9508 H   0  0  0  0  0  0  0  0  0  0  0  0
  -11.8996    8.5709    1.7081 H   0  0  0  0  0  0  0  0  0  0  0  0
  -13.8988   10.0286    1.7222 H   0  0  0  0  0  0  0  0  0  0  0  0
  -12.5405   10.7016    0.7382 H   0  0  0  0  0  0  0  0  0  0  0  0
  -14.5962   11.0345   -0.4557 H   0  0  0  0  0  0  0  0  0  0  0  0
  -15.5910    8.8150   -1.1410 H   0  0  0  0  0  0  0  0  0  0  0  0
  -12.1733   11.3618   -1.1262 H   0  0  0  0  0  0  0  0  0  0  0  0
  -11.6726   10.5518   -2.6493 H   0  0  0  0  0  0  0  0  0  0  0  0
  -13.0712   11.6789   -2.6493 H   0  0  0  0  0  0  0  0  0  0  0  0
  -15.5525    9.7108   -2.4394 H   0  0  0  0  0  0  0  0  0  0  0  0
  -14.4314   10.6237   -3.5054 H   0  0  0  0  0  0  0  0  0  0  0  0
  -14.4078    8.8276   -3.5054 H   0  0  0  0  0  0  0  0  0  0  0  0
  -11.7127    5.9155    1.4339 H   0  0  0  0  0  0  0  0  0  0  0  0
  -12.8332    5.9388    0.0301 H   0  0  0  0  0  0  0  0  0  0  0  0
  -11.4163    4.8347    0.0301 H   0  0  0  0  0  0  0  0  0  0  0  0
   -9.9725    7.8739    1.3868 H   0  0  0  0  0  0  0  0  0  0  0  0
   -9.4121    6.1555    0.9775 H   0  0  0  0  0  0  0  0  0  0  0  0
   -8.5449    8.7452   -0.3371 H   0  0  0  0  0  0  0  0  0  0  0  0
   -7.5635    7.6033    0.6631 H   0  0  0  0  0  0  0  0  0  0  0  0
   -7.7435    5.3561    0.2386 H   0  0  0  0  0  0  0  0  0  0  0  0
   -8.5397    4.7474   -1.2521 H   0  0  0  0  0  0  0  0  0  0  0  0
   -6.7767    5.0919   -1.2521 H   0  0  0  0  0  0  0  0  0  0  0  0
  1  2  1  0
  2  3  1  0
  3  4  1  0
  4  5  1  0
  5  6  1  0
  6  7  1  0
  7  8  1  0
  7  9  1  0
  2 10  1  0
 10 11  1  0
 11 12  1  0
 12 13  1  0
 13 14  1  6
 13 15  1  0
 15 16  1  0
 16 17  1  0
 17 18  2  0
 18 19  1  0
 19 20  1  0
 20 21  1  0
 21 22  1  0
 22 23  1  0
 22 24  1  0
 24 25  1  0
 24 26  1  0
 19 27  1  0
 27 28  1  1
 27 29  1  0
 29 30  1  0
 30 31  1  0
 31 32  1  1
  7  5  1  0
 31 10  1  0
 31 13  1  0
 27 15  1  0
 24 18  1  0
  1 33  1  0
  1 34  1  0
  1 35  1  0
  2 36  1  1
  3 37  1  0
  3 38  1  0
  4 39  1  0
  4 40  1  0
  5 41  1  6
  8 42  1  0
  8 43  1  0
  8 44  1  0
  9 45  1  0
  9 46  1  0
  9 47  1  0
 10 48  1  6
 11 49  1  0
 11 50  1  0
 12 51  1  0
 12 52  1  0
 14 53  1  0
 14 54  1  0
 14 55  1  0
 15 56  1  1
 16 57  1  0
 16 58  1  0
 17 59  1  0
 19 60  1  6
 20 61  1  0
 20 62  1  0
 21 63  1  0
 21 64  1  0
 22 65  1  6
 23 66  1  0
 25 67  1  0
 25 68  1  0
 25 69  1  0
 26 70  1  0
 26 71  1  0
 26 72  1  0
 28 73  1  0
 28 74  1  0
 28 75  1  0
 29 76  1  0
 29 77  1  0
 30 78  1  0
 30 79  1  0
 32 80  1  0
 32 81  1  0
 32 82  1  0
M  END
>  <meeko>  (15) 
{"is_sidechain": [false], "intermolecular_energy": 2.731, "internal_energy": -0.839}

$$$$
EPH_relaxed_0001_pdb2pqr_Repair_347_r2_0001_out
     RDKit          3D

 82 86  0  0  0  0  0  0  0  0999 V2000
    1.0880    9.3530   -0.3550 C   0  0  0  0  0  0  0  0  0  0  0  0
   -0.1710   10.2250   -0.3650 C   0  0  2  0  0  0  0  0  0  0  0  0
   -0.8170   10.2970   -1.7630 C   0  0  0  0  0  0  0  0  0  0  0  0
    0.1100    9.8420   -2.8930 C   0  0  0  0  0  0  0  0  0  0  0  0
    0.1590   10.8450   -4.0070 C   0  0  2  0  0  0  0  0  0  0  0  0
    0.7020   10.3470   -5.2370 O   0  0  0  0  0  0  0  0  0  0  0  0
    1.4520   11.3860   -4.5880 C   0  0  0  0  0  0  0  0  0  0  0  0
    2.7850   10.9430   -4.0720 C   0  0  0  0  0  0  0  0  0  0  0  0
    1.4180   12.6960   -5.3120 C   0  0  0  0  0  0  0  0  0  0  0  0
    0.1660   11.6280    0.1270 C   0  0  1  0  0  0  0  0  0  0  0  0
    1.2220   11.6260    1.2640 C   0  0  0  0  0  0  0  0  0  0  0  0
    2.0900   12.8950    1.0710 C   0  0  0  0  0  0  0  0  0  0  0  0
    1.3100   13.7500    0.0450 C   0  0  1  0  0  0  0  0  0  0  0  0
    0.2100   14.4760    0.8810 C   0  0  0  0  0  0  0  0  0  0  0  0
    2.1540   14.7590   -0.7990 C   0  0  2  0  0  0  0  0  0  0  0  0
    2.8600   15.8590    0.0130 C   0  0  0  0  0  0  0  0  0  0  0  0
    2.0730   17.1120    0.2080 C   0  0  0  0  0  0  0  0  0  0  0  0
    0.9720   17.4600   -0.4840 C   0  0  0  0  0  0  0  0  0  0  0  0
    0.4680   16.5970   -1.6480 C   0  0  1  0  0  0  0  0  0  0  0  0
    0.1340   17.5050   -2.8600 C   0  0  0  0  0  0  0  0  0  0  0  0
   -0.8370   18.6260   -2.5010 C   0  0  0  0  0  0  0  0  0  0  0  0
   -0.2750   19.4970   -1.3810 C   0  0  2  0  0  0  0  0  0  0  0  0
    0.8740   20.1940   -1.8710 O   0  0  0  0  0  0  0  0  0  0  0  0
    0.1070   18.6890   -0.1100 C   0  0  0  0  0  0  0  0  0  0  0  0
   -1.1780   18.1830    0.5910 C   0  0  0  0  0  0  0  0  0  0  0  0
    0.7910   19.6620    0.8880 C   0  0  0  0  0  0  0  0  0  0  0  0
    1.3880   15.3630   -2.0450 C   0  0  1  0  0  0  0  0  0  0  0  0
    2.4790   15.8180   -3.0610 C   0  0  0  0  0  0  0  0  0  0  0  0
    0.5110   14.2860   -2.7880 C   0  0  0  0  0  0  0  0  0  0  0  0
   -0.2030   13.2430   -1.9060 C   0  0  0  0  0  0  0  0  0  0  0  0
    0.7700   12.6170   -0.9020 C   0  0  2  0  0  0  0  0  0  0  0  0
    1.8750   11.8590   -1.7150 C   0  0  0  0  0  0  0  0  0  0  0  0
    1.3839    9.1481    0.6845 H   0  0  0  0  0  0  0  0  0  0  0  0
    0.8808    8.4040   -0.8711 H   0  0  0  0  0  0  0  0  0  0  0  0
    1.9036    9.8806   -0.8711 H   0  0  0  0  0  0  0  0  0  0  0  0
   -0.9023    9.7590    0.3118 H   0  0  0  0  0  0  0  0  0  0  0  0
   -1.7100    9.6548   -1.7665 H   0  0  0  0  0  0  0  0  0  0  0  0
   -1.0592   11.3533   -1.9514 H   0  0  0  0  0  0  0  0  0  0  0  0
    1.1245    9.7072   -2.4896 H   0  0  0  0  0  0  0  0  0  0  0  0
   -0.2813    8.8973   -3.2986 H   0  0  0  0  0  0  0  0  0  0  0  0
   -0.7465   11.3434   -3.6306 H   0  0  0  0  0  0  0  0  0  0  0  0
    2.7723   10.9472   -2.9721 H   0  0  0  0  0  0  0  0  0  0  0  0
    2.9980    9.9258   -4.4323 H   0  0  0  0  0  0  0  0  0  0  0  0
    3.5645   11.6304   -4.4323 H   0  0  0  0  0  0  0  0  0  0  0  0
    1.3967   13.5182   -4.5816 H   0  0  0  0  0  0  0  0  0  0  0  0
    2.3140   12.7895   -5.9432 H   0  0  0  0  0  0  0  0  0  0  0  0
    0.5183   12.7429   -5.9432 H   0  0  0  0  0  0  0  0  0  0  0  0
   -0.8378   11.9630    0.4272 H   0  0  0  0  0  0  0  0  0  0  0  0
    0.7233   11.6538    2.2441 H   0  0  0  0  0  0  0  0  0  0  0  0
    1.8393   10.7163    1.2278 H   0  0  0  0  0  0  0  0  0  0  0  0
    2.2026   13.4365    2.0218 H   0  0  0  0  0  0  0  0  0  0  0  0
    3.1071   12.6559    0.7268 H   0  0  0  0  0  0  0  0  0  0  0  0
    0.4152   14.3406    1.9532 H   0  0  0  0  0  0  0  0  0  0  0  0
    0.2145   15.5492    0.6395 H   0  0  0  0  0  0  0  0  0  0  0  0
   -0.7750   14.0500    0.6395 H   0  0  0  0  0  0  0  0  0  0  0  0
    2.9557   14.1194   -1.1966 H   0  0  0  0  0  0  0  0  0  0  0  0
    3.0978   15.4491    1.0057 H   0  0  0  0  0  0  0  0  0  0  0  0
    3.7480   16.1450   -0.5699 H   0  0  0  0  0  0  0  0  0  0  0  0
    2.4222   17.8103    0.9828 H   0  0  0  0  0  0  0  0  0  0  0  0
   -0.4475   16.1052   -1.2874 H   0  0  0  0  0  0  0  0  0  0  0  0
    1.0670   17.9526   -3.2330 H   0  0  0  0  0  0  0  0  0  0  0  0
   -0.3479   16.8778   -3.6244 H   0  0  0  0  0  0  0  0  0  0  0  0
   -1.0105   19.2503   -3.3899 H   0  0  0  0  0  0  0  0  0  0  0  0
   -1.7800   18.1765   -2.1564 H   0  0  0  0  0  0  0  0  0  0  0  0
   -1.0668   20.1989   -1.0804 H   0  0  0  0  0  0  0  0  0  0  0  0
    1.3220   20.5970   -1.1080 H   0  0  0  0  0  0  0  0  0  0  0  0
   -1.0455   18.2352    1.6817 H   0  0  0  0  0  0  0  0  0  0  0  0
   -2.0297   18.8129    0.2946 H   0  0  0  0  0  0  0  0  0  0  0  0
   -1.3715   17.1415    0.2946 H   0  0  0  0  0  0  0  0  0  0  0  0
    0.5692   19.3464    1.9181 H   0  0  0  0  0  0  0  0  0  0  0  0
    1.8790   19.6479    0.7265 H   0  0  0  0  0  0  0  0  0  0  0  0
    0.4095   20.6810    0.7265 H   0  0  0  0  0  0  0  0  0  0  0  0
    3.3596   16.1852   -2.5135 H   0  0  0  0  0  0  0  0  0  0  0  0
    2.7694   14.9660   -3.6933 H   0  0  0  0  0  0  0  0  0  0  0  0
    2.0780   16.6239   -3.6933 H   0  0  0  0  0  0  0  0  0  0  0  0
   -0.2605   14.8222   -3.3601 H   0  0  0  0  0  0  0  0  0  0  0  0
    1.2204   13.7089   -3.3993 H   0  0  0  0  0  0  0  0  0  0  0  0
   -1.0199   13.7343   -1.3572 H   0  0  0  0  0  0  0  0  0  0  0  0
   -0.5991   12.4473   -2.5540 H   0  0  0  0  0  0  0  0  0  0  0  0
    2.5771   11.3774   -1.0185 H   0  0  0  0  0  0  0  0  0  0  0  0
    1.4036   11.0932   -2.3485 H   0  0  0  0  0  0  0  0  0  0  0  0
    2.4198   12.5745   -2.3485 H   0  0  0  0  0  0  0  0  0  0  0  0
  1  2  1  0
  2  3  1  0
  3  4  1  0
  4  5  1  0
  5  6  1  0
  6  7  1  0
  7  8  1  0
  7  9  1  0
  2 10  1  0
 10 11  1  0
 11 12  1  0
 12 13  1  0
 13 14  1  1
 13 15  1  0
 15 16  1  0
 16 17  1  0
 17 18  2  0
 18 19  1  0
 19 20  1  0
 20 21  1  0
 21 22  1  0
 22 23  1  0
 22 24  1  0
 24 25  1  0
 24 26  1  0
 19 27  1  0
 27 28  1  6
 27 29  1  0
 29 30  1  0
 30 31  1  0
 31 32  1  6
  7  5  1  0
 31 10  1  0
 31 13  1  0
 27 15  1  0
 24 18  1  0
  1 33  1  0
  1 34  1  0
  1 35  1  0
  2 36  1  1
  3 37  1  0
  3 38  1  0
  4 39  1  0
  4 40  1  0
  5 41  1  6
  8 42  1  0
  8 43  1  0
  8 44  1  0
  9 45  1  0
  9 46  1  0
  9 47  1  0
 10 48  1  1
 11 49  1  0
 11 50  1  0
 12 51  1  0
 12 52  1  0
 14 53  1  0
 14 54  1  0
 14 55  1  0
 15 56  1  6
 16 57  1  0
 16 58  1  0
 17 59  1  0
 19 60  1  1
 20 61  1  0
 20 62  1  0
 21 63  1  0
 21 64  1  0
 22 65  1  1
 23 66  1  0
 25 67  1  0
 25 68  1  0
 25 69  1  0
 26 70  1  0
 26 71  1  0
 26 72  1  0
 28 73  1  0
 28 74  1  0
 28 75  1  0
 29 76  1  0
 29 77  1  0
 30 78  1  0
 30 79  1  0
 32 80  1  0
 32 81  1  0
 32 82  1  0
M  END
>  <meeko>  (16) 
{"is_sidechain": [false], "intermolecular_energy": 2.731, "internal_energy": -0.839}

$$$$
EPH_relaxed_0001_pdb2pqr_Repair_347_r2_0001_out
     RDKit          3D

 82 86  0  0  0  0  0  0  0  0999 V2000
    3.0790   14.5170   -7.4010 C   0  0  0  0  0  0  0  0  0  0  0  0
    1.6270   14.9800   -7.2540 C   0  0  2  0  0  0  0  0  0  0  0  0
    1.4170   16.4100   -7.7900 C   0  0  0  0  0  0  0  0  0  0  0  0
    2.2390   16.7250   -9.0430 C   0  0  0  0  0  0  0  0  0  0  0  0
    1.5560   16.2460  -10.2890 C   0  0  2  0  0  0  0  0  0  0  0  0
    0.9790   14.9370  -10.1900 O   0  0  0  0  0  0  0  0  0  0  0  0
    2.0600   15.0850  -11.1260 C   0  0  0  0  0  0  0  0  0  0  0  0
    3.2970   14.3320  -10.7500 C   0  0  0  0  0  0  0  0  0  0  0  0
    1.6330   14.9970  -12.5580 C   0  0  0  0  0  0  0  0  0  0  0  0
    1.2030   14.9040   -5.7920 C   0  0  1  0  0  0  0  0  0  0  0  0
   -0.0720   15.7390   -5.4960 C   0  0  0  0  0  0  0  0  0  0  0  0
   -0.8710   14.9670   -4.4150 C   0  0  0  0  0  0  0  0  0  0  0  0
    0.1160   13.8990   -3.8880 C   0  0  1  0  0  0  0  0  0  0  0  0
    1.0160   14.6560   -2.8620 C   0  0  0  0  0  0  0  0  0  0  0  0
   -0.5220   12.6170   -3.2610 C   0  0  2  0  0  0  0  0  0  0  0  0
   -1.3780   12.8620   -2.0060 C   0  0  0  0  0  0  0  0  0  0  0  0
   -0.6430   12.7900   -0.7090 C   0  0  0  0  0  0  0  0  0  0  0  0
    0.5820   12.2620   -0.5320 C   0  0  0  0  0  0  0  0  0  0  0  0
    1.3180   11.5740   -1.6900 C   0  0  1  0  0  0  0  0  0  0  0  0
    1.9090   10.2260   -1.2010 C   0  0  0  0  0  0  0  0  0  0  0  0
    2.7880   10.3870    0.0360 C   0  0  0  0  0  0  0  0  0  0  0  0
    2.0050   11.0200    1.1830 C   0  0  2  0  0  0  0  0  0  0  0  0
    0.9910   10.1050    1.6100 O   0  0  0  0  0  0  0  0  0  0  0  0
    1.3550   12.3800    0.8040 C   0  0  0  0  0  0  0  0  0  0  0  0
    2.4580   13.4550    0.6350 C   0  0  0  0  0  0  0  0  0  0  0  0
    0.4800   12.8410    2.0010 C   0  0  0  0  0  0  0  0  0  0  0  0
    0.4960   11.4260   -3.0420 C   0  0  1  0  0  0  0  0  0  0  0  0
   -0.3500   10.1170   -3.0100 C   0  0  0  0  0  0  0  0  0  0  0  0
    1.5040   11.2730   -4.2420 C   0  0  0  0  0  0  0  0  0  0  0  0
    2.0070   12.5740   -4.8980 C   0  0  0  0  0  0  0  0  0  0  0  0
    0.8390   13.5080   -5.2290 C   0  0  2  0  0  0  0  0  0  0  0  0
   -0.0720   12.7810   -6.2770 C   0  0  0  0  0  0  0  0  0  0  0  0
    3.5216   14.3759   -6.4039 H   0  0  0  0  0  0  0  0  0  0  0  0
    3.1064   13.5656   -7.9524 H   0  0  0  0  0  0  0  0  0  0  0  0
    3.6521   15.2769   -7.9524 H   0  0  0  0  0  0  0  0  0  0  0  0
    1.0016   14.3060   -7.8578 H   0  0  0  0  0  0  0  0  0  0  0  0
    0.3516   16.5369   -8.0327 H   0  0  0  0  0  0  0  0  0  0  0  0
    1.7535   17.1008   -7.0029 H   0  0  0  0  0  0  0  0  0  0  0  0
    2.3824   17.8135   -9.1110 H   0  0  0  0  0  0  0  0  0  0  0  0
    3.2046   16.2048   -8.9595 H   0  0  0  0  0  0  0  0  0  0  0  0
    1.2646   17.2735  -10.5525 H   0  0  0  0  0  0  0  0  0  0  0  0
    3.3775   14.2830   -9.6540 H   0  0  0  0  0  0  0  0  0  0  0  0
    3.2445   13.3125  -11.1598 H   0  0  0  0  0  0  0  0  0  0  0  0
    4.1785   14.8469  -11.1598 H   0  0  0  0  0  0  0  0  0  0  0  0
    0.5567   14.7752  -12.6067 H   0  0  0  0  0  0  0  0  0  0  0  0
    1.8330   15.9552  -13.0598 H   0  0  0  0  0  0  0  0  0  0  0  0
    2.1955   14.1959  -13.0598 H   0  0  0  0  0  0  0  0  0  0  0  0
    2.1217   15.2745   -5.3138 H   0  0  0  0  0  0  0  0  0  0  0  0
    0.2061   16.7354   -5.1221 H   0  0  0  0  0  0  0  0  0  0  0  0
   -0.6729   15.8788   -6.4067 H   0  0  0  0  0  0  0  0  0  0  0  0
   -1.1807   15.6430   -3.6044 H   0  0  0  0  0  0  0  0  0  0  0  0
   -1.7926   14.5208   -4.8169 H   0  0  0  0  0  0  0  0  0  0  0  0
    0.7057   14.3950   -1.8395 H   0  0  0  0  0  0  0  0  0  0  0  0
    2.0665   14.3659   -3.0117 H   0  0  0  0  0  0  0  0  0  0  0  0
    0.9102   15.7406   -3.0117 H   0  0  0  0  0  0  0  0  0  0  0  0
   -1.2240   12.2960   -4.0447 H   0  0  0  0  0  0  0  0  0  0  0  0
   -1.8237   13.8642   -2.0889 H   0  0  0  0  0  0  0  0  0  0  0  0
   -2.1202   12.0505   -1.9807 H   0  0  0  0  0  0  0  0  0  0  0  0
   -1.1455   13.2038    0.1777 H   0  0  0  0  0  0  0  0  0  0  0  0
    2.1326   12.2541   -1.9797 H   0  0  0  0  0  0  0  0  0  0  0  0
    1.0800    9.5449   -0.9583 H   0  0  0  0  0  0  0  0  0  0  0  0
    2.5391    9.8251   -2.0086 H   0  0  0  0  0  0  0  0  0  0  0  0
    3.1510    9.3975    0.3509 H   0  0  0  0  0  0  0  0  0  0  0  0
    3.6331   11.0442   -0.2169 H   0  0  0  0  0  0  0  0  0  0  0  0
    2.7188   11.2284    1.9936 H   0  0  0  0  0  0  0  0  0  0  0  0
    0.3030   10.6190    2.0650 H   0  0  0  0  0  0  0  0  0  0  0  0
    2.8000   13.7883    1.6259 H   0  0  0  0  0  0  0  0  0  0  0  0
    3.3054   13.0267    0.0796 H   0  0  0  0  0  0  0  0  0  0  0  0
    2.0516   14.3131    0.0796 H   0  0  0  0  0  0  0  0  0  0  0  0
    0.9807   12.5772    2.9442 H   0  0  0  0  0  0  0  0  0  0  0  0
    0.3384   13.9308    1.9534 H   0  0  0  0  0  0  0  0  0  0  0  0
   -0.4989   12.3416    1.9534 H   0  0  0  0  0  0  0  0  0  0  0  0
   -0.5374    9.8270   -1.9656 H   0  0  0  0  0  0  0  0  0  0  0  0
   -1.3091   10.2877   -3.5209 H   0  0  0  0  0  0  0  0  0  0  0  0
    0.1996    9.3127   -3.5209 H   0  0  0  0  0  0  0  0  0  0  0  0
    2.3832   10.7263   -3.8703 H   0  0  0  0  0  0  0  0  0  0  0  0
    0.9373   10.7544   -5.0293 H   0  0  0  0  0  0  0  0  0  0  0  0
    2.6914   13.0852   -4.2050 H   0  0  0  0  0  0  0  0  0  0  0  0
    2.5267   12.3173   -5.8329 H   0  0  0  0  0  0  0  0  0  0  0  0
   -0.8271   12.1784   -5.7510 H   0  0  0  0  0  0  0  0  0  0  0  0
   -0.5743   13.5292   -6.9078 H   0  0  0  0  0  0  0  0  0  0  0  0
    0.5461   12.1252   -6.9078 H   0  0  0  0  0  0  0  0  0  0  0  0
  1  2  1  0
  2  3  1  0
  3  4  1  0
  4  5  1  0
  5  6  1  0
  6  7  1  0
  7  8  1  0
  7  9  1  0
  2 10  1  0
 10 11  1  0
 11 12  1  0
 12 13  1  0
 13 14  1  1
 13 15  1  0
 15 16  1  0
 16 17  1  0
 17 18  2  0
 18 19  1  0
 19 20  1  0
 20 21  1  0
 21 22  1  0
 22 23  1  0
 22 24  1  0
 24 25  1  0
 24 26  1  0
 19 27  1  0
 27 28  1  1
 27 29  1  0
 29 30  1  0
 30 31  1  0
 31 32  1  6
  7  5  1  0
 31 10  1  0
 31 13  1  0
 27 15  1  0
 24 18  1  0
  1 33  1  0
  1 34  1  0
  1 35  1  0
  2 36  1  6
  3 37  1  0
  3 38  1  0
  4 39  1  0
  4 40  1  0
  5 41  1  6
  8 42  1  0
  8 43  1  0
  8 44  1  0
  9 45  1  0
  9 46  1  0
  9 47  1  0
 10 48  1  1
 11 49  1  0
 11 50  1  0
 12 51  1  0
 12 52  1  0
 14 53  1  0
 14 54  1  0
 14 55  1  0
 15 56  1  6
 16 57  1  0
 16 58  1  0
 17 59  1  0
 19 60  1  6
 20 61  1  0
 20 62  1  0
 21 63  1  0
 21 64  1  0
 22 65  1  1
 23 66  1  0
 25 67  1  0
 25 68  1  0
 25 69  1  0
 26 70  1  0
 26 71  1  0
 26 72  1  0
 28 73  1  0
 28 74  1  0
 28 75  1  0
 29 76  1  0
 29 77  1  0
 30 78  1  0
 30 79  1  0
 32 80  1  0
 32 81  1  0
 32 82  1  0
M  END
>  <meeko>  (17) 
{"is_sidechain": [false], "intermolecular_energy": 2.731, "internal_energy": -0.839}

$$$$
EPH_relaxed_0001_pdb2pqr_Repair_347_r2_0001_out
     RDKit          3D

 82 86  0  0  0  0  0  0  0  0999 V2000
    1.7570   18.5760   -1.8780 C   0  0  0  0  0  0  0  0  0  0  0  0
    2.2930   17.5230   -2.8520 C   0  0  2  0  0  0  0  0  0  0  0  0
    1.3660   17.3320   -4.0700 C   0  0  0  0  0  0  0  0  0  0  0  0
    1.6750   16.0750   -4.8870 C   0  0  0  0  0  0  0  0  0  0  0  0
    0.6380   15.8310   -5.9410 C   0  0  2  0  0  0  0  0  0  0  0  0
    0.5640   14.4770   -6.4060 O   0  0  0  0  0  0  0  0  0  0  0  0
    0.9720   15.4580   -7.3730 C   0  0  0  0  0  0  0  0  0  0  0  0
    2.3890   15.3100   -7.8310 C   0  0  0  0  0  0  0  0  0  0  0  0
   -0.0500   15.7160   -8.4370 C   0  0  0  0  0  0  0  0  0  0  0  0
    2.4840   16.1950   -2.1290 C   0  0  1  0  0  0  0  0  0  0  0  0
    3.3600   16.3280   -0.8550 C   0  0  0  0  0  0  0  0  0  0  0  0
    2.7970   15.3230    0.1820 C   0  0  0  0  0  0  0  0  0  0  0  0
    1.8410   14.4190   -0.6300 C   0  0  1  0  0  0  0  0  0  0  0  0
    2.7700   13.3750   -1.3250 C   0  0  0  0  0  0  0  0  0  0  0  0
    0.6950   13.7250    0.1760 C   0  0  2  0  0  0  0  0  0  0  0  0
    1.1640   12.7440    1.2640 C   0  0  0  0  0  0  0  0  0  0  0  0
    1.3260   11.3280    0.8200 C   0  0  0  0  0  0  0  0  0  0  0  0
    0.8370   10.8050   -0.3200 C   0  0  0  0  0  0  0  0  0  0  0  0
   -0.0500   11.6410   -1.2530 C   0  0  1  0  0  0  0  0  0  0  0  0
   -1.2880   10.8070   -1.6740 C   0  0  0  0  0  0  0  0  0  0  0  0
   -0.9080    9.4600   -2.2820 C   0  0  0  0  0  0  0  0  0  0  0  0
   -0.0760    8.6350   -1.3030 C   0  0  2  0  0  0  0  0  0  0  0  0
   -0.8980    8.2790   -0.1870 O   0  0  0  0  0  0  0  0  0  0  0  0
    1.1940    9.3770   -0.8010 C   0  0  0  0  0  0  0  0  0  0  0  0
    2.2180    9.4960   -1.9570 C   0  0  0  0  0  0  0  0  0  0  0  0
    1.8650    8.4940    0.2850 C   0  0  0  0  0  0  0  0  0  0  0  0
   -0.4390   13.0890   -0.7270 C   0  0  1  0  0  0  0  0  0  0  0  0
   -1.7190   13.0060    0.1590 C   0  0  0  0  0  0  0  0  0  0  0  0
   -0.8080   14.0010   -1.9560 C   0  0  0  0  0  0  0  0  0  0  0  0
    0.3520   14.7530   -2.6350 C   0  0  0  0  0  0  0  0  0  0  0  0
    1.2130   15.4850   -1.6000 C   0  0  2  0  0  0  0  0  0  0  0  0
    0.3100   16.5570   -0.9000 C   0  0  0  0  0  0  0  0  0  0  0  0
    1.9279   18.2403   -0.8445 H   0  0  0  0  0  0  0  0  0  0  0  0
    2.2794   19.5295   -2.0449 H   0  0  0  0  0  0  0  0  0  0  0  0
    0.6786   18.7147   -2.0449 H   0  0  0  0  0  0  0  0  0  0  0  0
    3.2616   17.8837   -3.2284 H   0  0  0  0  0  0  0  0  0  0  0  0
    0.3287   17.2660   -3.7100 H   0  0  0  0  0  0  0  0  0  0  0  0
    1.5256   18.1944   -4.7340 H   0  0  0  0  0  0  0  0  0  0  0  0
    2.6547   16.1969   -5.3721 H   0  0  0  0  0  0  0  0  0  0  0  0
    1.6786   15.2134   -4.2031 H   0  0  0  0  0  0  0  0  0  0  0  0
   -0.0128   16.6081   -5.5137 H   0  0  0  0  0  0  0  0  0  0  0  0
    3.0519   15.2408   -6.9559 H   0  0  0  0  0  0  0  0  0  0  0  0
    2.4850   14.3969   -8.4369 H   0  0  0  0  0  0  0  0  0  0  0  0
    2.6716   16.1835   -8.4369 H   0  0  0  0  0  0  0  0  0  0  0  0
   -1.0146   15.9595   -7.9676 H   0  0  0  0  0  0  0  0  0  0  0  0
    0.2768   16.5598   -9.0624 H   0  0  0  0  0  0  0  0  0  0  0  0
   -0.1629   14.8182   -9.0624 H   0  0  0  0  0  0  0  0  0  0  0  0
    2.9344   15.6061   -2.9416 H   0  0  0  0  0  0  0  0  0  0  0  0
    4.4071   16.0848   -1.0883 H   0  0  0  0  0  0  0  0  0  0  0  0
    3.3340   17.3556   -0.4634 H   0  0  0  0  0  0  0  0  0  0  0  0
    3.6086   14.7289    0.6272 H   0  0  0  0  0  0  0  0  0  0  0  0
    2.2868   15.8265    1.0164 H   0  0  0  0  0  0  0  0  0  0  0  0
    3.2952   12.7847   -0.5597 H   0  0  0  0  0  0  0  0  0  0  0  0
    2.1638   12.7052   -1.9526 H   0  0  0  0  0  0  0  0  0  0  0  0
    3.5057   13.8993   -1.9526 H   0  0  0  0  0  0  0  0  0  0  0  0
    0.2390   14.5698    0.7130 H   0  0  0  0  0  0  0  0  0  0  0  0
    2.1357   13.0949    1.6418 H   0  0  0  0  0  0  0  0  0  0  0  0
    0.3715   12.7346    2.0268 H   0  0  0  0  0  0  0  0  0  0  0  0
    1.8929   10.6550    1.4801 H   0  0  0  0  0  0  0  0  0  0  0  0
    0.5655   11.8673   -2.1361 H   0  0  0  0  0  0  0  0  0  0  0  0
   -1.9119   10.6293   -0.7857 H   0  0  0  0  0  0  0  0  0  0  0  0
   -1.8297   11.3786   -2.4420 H   0  0  0  0  0  0  0  0  0  0  0  0
   -1.8250    8.9059   -2.5312 H   0  0  0  0  0  0  0  0  0  0  0  0
   -0.3094    9.6396   -3.1872 H   0  0  0  0  0  0  0  0  0  0  0  0
    0.2752    7.7413   -1.8396 H   0  0  0  0  0  0  0  0  0  0  0  0
   -1.3880    7.4740   -0.4270 H   0  0  0  0  0  0  0  0  0  0  0  0
    3.2293    9.6135   -1.5404 H   0  0  0  0  0  0  0  0  0  0  0  0
    2.1797    8.5874   -2.5758 H   0  0  0  0  0  0  0  0  0  0  0  0
    1.9723   10.3716   -2.5758 H   0  0  0  0  0  0  0  0  0  0  0  0
    1.5845    8.8631    1.2825 H   0  0  0  0  0  0  0  0  0  0  0  0
    1.5279    7.4531    0.1710 H   0  0  0  0  0  0  0  0  0  0  0  0
    2.9581    8.5400    0.1710 H   0  0  0  0  0  0  0  0  0  0  0  0
   -1.4319   13.0246    1.2207 H   0  0  0  0  0  0  0  0  0  0  0  0
   -2.3723   13.8637   -0.0593 H   0  0  0  0  0  0  0  0  0  0  0  0
   -2.2560   12.0711   -0.0593 H   0  0  0  0  0  0  0  0  0  0  0  0
   -1.2797   13.3607   -2.7159 H   0  0  0  0  0  0  0  0  0  0  0  0
   -1.4600   14.7865   -1.5464 H   0  0  0  0  0  0  0  0  0  0  0  0
    0.9792   14.0312   -3.1787 H   0  0  0  0  0  0  0  0  0  0  0  0
   -0.0701   15.4958   -3.3279 H   0  0  0  0  0  0  0  0  0  0  0  0
    0.3972   16.4535    0.1916 H   0  0  0  0  0  0  0  0  0  0  0  0
    0.6363   17.5637   -1.2001 H   0  0  0  0  0  0  0  0  0  0  0  0
   -0.7375   16.4065   -1.2001 H   0  0  0  0  0  0  0  0  0  0  0  0
  1  2  1  0
  2  3  1  0
  3  4  1  0
  4  5  1  0
  5  6  1  0
  6  7  1  0
  7  8  1  0
  7  9  1  0
  2 10  1  0
 10 11  1  0
 11 12  1  0
 12 13  1  0
 13 14  1  6
 13 15  1  0
 15 16  1  0
 16 17  1  0
 17 18  2  0
 18 19  1  0
 19 20  1  0
 20 21  1  0
 21 22  1  0
 22 23  1  0
 22 24  1  0
 24 25  1  0
 24 26  1  0
 19 27  1  0
 27 28  1  1
 27 29  1  0
 29 30  1  0
 30 31  1  0
 31 32  1  1
  7  5  1  0
 31 10  1  0
 31 13  1  0
 27 15  1  0
 24 18  1  0
  1 33  1  0
  1 34  1  0
  1 35  1  0
  2 36  1  6
  3 37  1  0
  3 38  1  0
  4 39  1  0
  4 40  1  0
  5 41  1  6
  8 42  1  0
  8 43  1  0
  8 44  1  0
  9 45  1  0
  9 46  1  0
  9 47  1  0
 10 48  1  6
 11 49  1  0
 11 50  1  0
 12 51  1  0
 12 52  1  0
 14 53  1  0
 14 54  1  0
 14 55  1  0
 15 56  1  1
 16 57  1  0
 16 58  1  0
 17 59  1  0
 19 60  1  6
 20 61  1  0
 20 62  1  0
 21 63  1  0
 21 64  1  0
 22 65  1  6
 23 66  1  0
 25 67  1  0
 25 68  1  0
 25 69  1  0
 26 70  1  0
 26 71  1  0
 26 72  1  0
 28 73  1  0
 28 74  1  0
 28 75  1  0
 29 76  1  0
 29 77  1  0
 30 78  1  0
 30 79  1  0
 32 80  1  0
 32 81  1  0
 32 82  1  0
M  END
>  <meeko>  (18) 
{"is_sidechain": [false], "intermolecular_energy": 2.731, "internal_energy": -0.839}

$$$$
EPH_relaxed_0001_pdb2pqr_Repair_347_r2_0001_out
     RDKit          3D

 82 86  0  0  0  0  0  0  0  0999 V2000
    2.7770   11.5790   -5.7220 C   0  0  0  0  0  0  0  0  0  0  0  0
    2.1330   11.3320   -4.3540 C   0  0  2  0  0  0  0  0  0  0  0  0
    1.0850   10.2020   -4.4020 C   0  0  0  0  0  0  0  0  0  0  0  0
    0.9340    9.4460   -3.0790 C   0  0  0  0  0  0  0  0  0  0  0  0
   -0.5050    9.1800   -2.7530 C   0  0  2  0  0  0  0  0  0  0  0  0
   -1.1400   10.2000   -1.9710 O   0  0  0  0  0  0  0  0  0  0  0  0
   -1.0090    8.9120   -1.3480 C   0  0  0  0  0  0  0  0  0  0  0  0
   -0.0790    8.8950   -0.1750 C   0  0  0  0  0  0  0  0  0  0  0  0
   -2.3080    8.1880   -1.1800 C   0  0  0  0  0  0  0  0  0  0  0  0
    1.4920   12.6160   -3.8420 C   0  0  1  0  0  0  0  0  0  0  0  0
   -0.0570   12.5310   -3.7900 C   0  0  0  0  0  0  0  0  0  0  0  0
   -0.5090   13.3520   -2.5550 C   0  0  0  0  0  0  0  0  0  0  0  0
    0.7480   14.1490   -2.1350 C   0  0  1  0  0  0  0  0  0  0  0  0
    0.7850   15.3780   -3.0970 C   0  0  0  0  0  0  0  0  0  0  0  0
    0.8200   14.5870   -0.6360 C   0  0  2  0  0  0  0  0  0  0  0  0
   -0.2940   15.5470   -0.1830 C   0  0  0  0  0  0  0  0  0  0  0  0
    0.0170   17.0000   -0.3310 C   0  0  0  0  0  0  0  0  0  0  0  0
    1.2410   17.5200   -0.5380 C   0  0  0  0  0  0  0  0  0  0  0  0
    2.4870   16.6250   -0.5460 C   0  0  1  0  0  0  0  0  0  0  0  0
    3.5990   17.2780    0.3160 C   0  0  0  0  0  0  0  0  0  0  0  0
    3.9060   18.7100   -0.1120 C   0  0  0  0  0  0  0  0  0  0  0  0
    2.6560   19.5820   -0.0350 C   0  0  2  0  0  0  0  0  0  0  0  0
    2.2720   19.7180    1.3370 O   0  0  0  0  0  0  0  0  0  0  0  0
    1.4640   19.0190   -0.8580 C   0  0  0  0  0  0  0  0  0  0  0  0
    1.7670   19.1540   -2.3710 C   0  0  0  0  0  0  0  0  0  0  0  0
    0.2270   19.9160   -0.5820 C   0  0  0  0  0  0  0  0  0  0  0  0
    2.2450   15.0980   -0.1770 C   0  0  1  0  0  0  0  0  0  0  0  0
    2.3100   14.9080    1.3690 C   0  0  0  0  0  0  0  0  0  0  0  0
    3.4140   14.2330   -0.7810 C   0  0  0  0  0  0  0  0  0  0  0  0
    3.2310   13.7290   -2.2260 C   0  0  0  0  0  0  0  0  0  0  0  0
    1.8600   13.0710   -2.4070 C   0  0  2  0  0  0  0  0  0  0  0  0
    1.8020   11.8180   -1.4680 C   0  0  0  0  0  0  0  0  0  0  0  0
    3.7958   11.9697   -5.5825 H   0  0  0  0  0  0  0  0  0  0  0  0
    2.8204   10.6337   -6.2829 H   0  0  0  0  0  0  0  0  0  0  0  0
    2.1772   12.3109   -6.2829 H   0  0  0  0  0  0  0  0  0  0  0  0
    2.9296   11.0145   -3.6651 H   0  0  0  0  0  0  0  0  0  0  0  0
    0.1114   10.6422   -4.6635 H   0  0  0  0  0  0  0  0  0  0  0  0
    1.4312    9.4741   -5.1505 H   0  0  0  0  0  0  0  0  0  0  0  0
    1.4657    8.4860   -3.1544 H   0  0  0  0  0  0  0  0  0  0  0  0
    1.3574   10.0695   -2.2777 H   0  0  0  0  0  0  0  0  0  0  0  0
   -0.6446    8.6413   -3.7019 H   0  0  0  0  0  0  0  0  0  0  0  0
   -0.6637    8.9057    0.7567 H   0  0  0  0  0  0  0  0  0  0  0  0
    0.5386    7.9854   -0.2099 H   0  0  0  0  0  0  0  0  0  0  0  0
    0.5714    9.7814   -0.2099 H   0  0  0  0  0  0  0  0  0  0  0  0
   -2.5246    8.0673   -0.1083 H   0  0  0  0  0  0  0  0  0  0  0  0
   -3.1144    8.7668   -1.6541 H   0  0  0  0  0  0  0  0  0  0  0  0
   -2.2398    7.1978   -1.6541 H   0  0  0  0  0  0  0  0  0  0  0  0
    1.8930   13.3286   -4.5778 H   0  0  0  0  0  0  0  0  0  0  0  0
   -0.4907   12.9564   -4.7070 H   0  0  0  0  0  0  0  0  0  0  0  0
   -0.3928   11.4863   -3.7141 H   0  0  0  0  0  0  0  0  0  0  0  0
   -1.3301   14.0338   -2.8213 H   0  0  0  0  0  0  0  0  0  0  0  0
   -0.8872   12.7119   -1.7443 H   0  0  0  0  0  0  0  0  0  0  0  0
    0.8129   16.3054   -2.5061 H   0  0  0  0  0  0  0  0  0  0  0  0
    1.6818   15.3202   -3.7313 H   0  0  0  0  0  0  0  0  0  0  0  0
   -0.1137   15.3743   -3.7313 H   0  0  0  0  0  0  0  0  0  0  0  0
    0.6345   13.6415   -0.1052 H   0  0  0  0  0  0  0  0  0  0  0  0
   -1.1930   15.3295   -0.7783 H   0  0  0  0  0  0  0  0  0  0  0  0
   -0.4265   15.3724    0.8949 H   0  0  0  0  0  0  0  0  0  0  0  0
   -0.8251   17.7046   -0.2653 H   0  0  0  0  0  0  0  0  0  0  0  0
    2.8143   16.5672   -1.5946 H   0  0  0  0  0  0  0  0  0  0  0  0
    3.2719   17.2863    1.3662 H   0  0  0  0  0  0  0  0  0  0  0  0
    4.5162   16.6857    0.1823 H   0  0  0  0  0  0  0  0  0  0  0  0
    4.6772   19.1268    0.5524 H   0  0  0  0  0  0  0  0  0  0  0  0
    4.2614   18.6968   -1.1529 H   0  0  0  0  0  0  0  0  0  0  0  0
    2.9076   20.5580   -0.4756 H   0  0  0  0  0  0  0  0  0  0  0  0
    3.0820   19.6840    1.8740 H   0  0  0  0  0  0  0  0  0  0  0  0
    2.7641   19.5982   -2.5071 H   0  0  0  0  0  0  0  0  0  0  0  0
    1.7416   18.1594   -2.8402 H   0  0  0  0  0  0  0  0  0  0  0  0
    1.0105   19.8002   -2.8402 H   0  0  0  0  0  0  0  0  0  0  0  0
    0.0841   20.0196    0.5038 H   0  0  0  0  0  0  0  0  0  0  0  0
    0.3875   20.9090   -1.0271 H   0  0  0  0  0  0  0  0  0  0  0  0
   -0.6670   19.4548   -1.0271 H   0  0  0  0  0  0  0  0  0  0  0  0
    1.9924   15.8364    1.8662 H   0  0  0  0  0  0  0  0  0  0  0  0
    1.6419   14.0861    1.6658 H   0  0  0  0  0  0  0  0  0  0  0  0
    3.3415   14.6675    1.6658 H   0  0  0  0  0  0  0  0  0  0  0  0
    4.3280   14.8445   -0.7552 H   0  0  0  0  0  0  0  0  0  0  0  0
    3.4493   13.3245   -0.1618 H   0  0  0  0  0  0  0  0  0  0  0  0
    3.3158   14.5802   -2.9176 H   0  0  0  0  0  0  0  0  0  0  0  0
    4.0097   12.9817   -2.4383 H   0  0  0  0  0  0  0  0  0  0  0  0
    1.8172   12.1456   -0.4180 H   0  0  0  0  0  0  0  0  0  0  0  0
    0.8769   11.2559   -1.6634 H   0  0  0  0  0  0  0  0  0  0  0  0
    2.6712   11.1728   -1.6634 H   0  0  0  0  0  0  0  0  0  0  0  0
  1  2  1  0
  2  3  1  0
  3  4  1  0
  4  5  1  0
  5  6  1  0
  6  7  1  0
  7  8  1  0
  7  9  1  0
  2 10  1  0
 10 11  1  0
 11 12  1  0
 12 13  1  0
 13 14  1  6
 13 15  1  0
 15 16  1  0
 16 17  1  0
 17 18  2  0
 18 19  1  0
 19 20  1  0
 20 21  1  0
 21 22  1  0
 22 23  1  0
 22 24  1  0
 24 25  1  0
 24 26  1  0
 19 27  1  0
 27 28  1  1
 27 29  1  0
 29 30  1  0
 30 31  1  0
 31 32  1  1
  7  5  1  0
 31 10  1  0
 31 13  1  0
 27 15  1  0
 24 18  1  0
  1 33  1  0
  1 34  1  0
  1 35  1  0
  2 36  1  1
  3 37  1  0
  3 38  1  0
  4 39  1  0
  4 40  1  0
  5 41  1  6
  8 42  1  0
  8 43  1  0
  8 44  1  0
  9 45  1  0
  9 46  1  0
  9 47  1  0
 10 48  1  6
 11 49  1  0
 11 50  1  0
 12 51  1  0
 12 52  1  0
 14 53  1  0
 14 54  1  0
 14 55  1  0
 15 56  1  1
 16 57  1  0
 16 58  1  0
 17 59  1  0
 19 60  1  6
 20 61  1  0
 20 62  1  0
 21 63  1  0
 21 64  1  0
 22 65  1  6
 23 66  1  0
 25 67  1  0
 25 68  1  0
 25 69  1  0
 26 70  1  0
 26 71  1  0
 26 72  1  0
 28 73  1  0
 28 74  1  0
 28 75  1  0
 29 76  1  0
 29 77  1  0
 30 78  1  0
 30 79  1  0
 32 80  1  0
 32 81  1  0
 32 82  1  0
M  END
>  <meeko>  (19) 
{"is_sidechain": [false], "intermolecular_energy": 2.731, "internal_energy": -0.839}

$$$$
