EPH_relaxed_0001_pdb2pqr_Repair_189_r2_0001_out
     RDKit          3D

 82 86  0  0  0  0  0  0  0  0999 V2000
   -5.3410    5.6460   -1.5200 C   0  0  0  0  0  0  0  0  0  0  0  0
   -5.5200    7.1480   -1.7600 C   0  0  2  0  0  0  0  0  0  0  0  0
   -5.2100    7.9780   -0.4990 C   0  0  0  0  0  0  0  0  0  0  0  0
   -4.4530    9.2770   -0.7890 C   0  0  0  0  0  0  0  0  0  0  0  0
   -3.1070    9.2930   -0.1290 C   0  0  2  0  0  0  0  0  0  0  0  0
   -2.1990   10.2760   -0.6440 O   0  0  0  0  0  0  0  0  0  0  0  0
   -1.8230    8.9030   -0.8390 C   0  0  0  0  0  0  0  0  0  0  0  0
   -1.8240    8.4690   -2.2710 C   0  0  0  0  0  0  0  0  0  0  0  0
   -0.6500    8.4770   -0.0130 C   0  0  0  0  0  0  0  0  0  0  0  0
   -6.9410    7.4320   -2.2350 C   0  0  1  0  0  0  0  0  0  0  0  0
   -7.2670    6.7460   -3.5880 C   0  0  0  0  0  0  0  0  0  0  0  0
   -8.7610    6.3350   -3.5320 C   0  0  0  0  0  0  0  0  0  0  0  0
   -9.3260    7.0840   -2.3030 C   0  0  1  0  0  0  0  0  0  0  0  0
   -9.6130    8.5310   -2.8120 C   0  0  0  0  0  0  0  0  0  0  0  0
  -10.5840    6.4500   -1.6260 C   0  0  2  0  0  0  0  0  0  0  0  0
  -11.8360    6.3750   -2.5170 C   0  0  0  0  0  0  0  0  0  0  0  0
  -12.7420    7.5590   -2.4460 C   0  0  0  0  0  0  0  0  0  0  0  0
  -12.7130    8.5100   -1.4940 C   0  0  0  0  0  0  0  0  0  0  0  0
  -11.7610    8.3970   -0.2970 C   0  0  1  0  0  0  0  0  0  0  0  0
  -12.5340    8.7130    1.0110 C   0  0  0  0  0  0  0  0  0  0  0  0
  -13.2480   10.0600    0.9580 C   0  0  0  0  0  0  0  0  0  0  0  0
  -14.2280   10.1130   -0.2110 C   0  0  2  0  0  0  0  0  0  0  0  0
  -15.2870    9.1820    0.0330 O   0  0  0  0  0  0  0  0  0  0  0  0
  -13.5640    9.8010   -1.5820 C   0  0  0  0  0  0  0  0  0  0  0  0
  -12.6330   10.9710   -1.9870 C   0  0  0  0  0  0  0  0  0  0  0  0
  -14.6850    9.7480   -2.6540 C   0  0  0  0  0  0  0  0  0  0  0  0
  -10.9250    7.0490   -0.2010 C   0  0  1  0  0  0  0  0  0  0  0  0
  -11.7510    5.9630    0.5530 C   0  0  0  0  0  0  0  0  0  0  0  0
   -9.6340    7.3050    0.6640 C   0  0  0  0  0  0  0  0  0  0  0  0
   -8.3880    7.8180   -0.0820 C   0  0  0  0  0  0  0  0  0  0  0  0
   -8.1020    6.9650   -1.3230 C   0  0  2  0  0  0  0  0  0  0  0  0
   -7.7880    5.5080   -0.8400 C   0  0  0  0  0  0  0  0  0  0  0  0
   -5.3174    5.4478   -0.4383 H   0  0  0  0  0  0  0  0  0  0  0  0
   -6.1804    5.0994   -1.9747 H   0  0  0  0  0  0  0  0  0  0  0  0
   -4.3967    5.3120   -1.9747 H   0  0  0  0  0  0  0  0  0  0  0  0
   -4.8012    7.4477   -2.5369 H   0  0  0  0  0  0  0  0  0  0  0  0
   -6.1609    8.2322   -0.0079 H   0  0  0  0  0  0  0  0  0  0  0  0
   -4.5598    7.3623    0.1398 H   0  0  0  0  0  0  0  0  0  0  0  0
   -4.3182    9.3760   -1.8762 H   0  0  0  0  0  0  0  0  0  0  0  0
   -5.0422   10.1145   -0.3871 H   0  0  0  0  0  0  0  0  0  0  0  0
   -3.5463    8.9771    0.8287 H   0  0  0  0  0  0  0  0  0  0  0  0
   -1.8265    7.3701   -2.3211 H   0  0  0  0  0  0  0  0  0  0  0  0
   -2.7212    8.8610   -2.7723 H   0  0  0  0  0  0  0  0  0  0  0  0
   -0.9250    8.8568   -2.7723 H   0  0  0  0  0  0  0  0  0  0  0  0
   -0.9006    8.5680    1.0542 H   0  0  0  0  0  0  0  0  0  0  0  0
   -0.4002    7.4307   -0.2430 H   0  0  0  0  0  0  0  0  0  0  0  0
    0.2130    9.1191   -0.2430 H   0  0  0  0  0  0  0  0  0  0  0  0
   -6.9078    8.5310   -2.2686 H   0  0  0  0  0  0  0  0  0  0  0  0
   -7.0977    7.4469   -4.4187 H   0  0  0  0  0  0  0  0  0  0  0  0
   -6.6221    5.8702   -3.7525 H   0  0  0  0  0  0  0  0  0  0  0  0
   -9.2835    6.6444   -4.4492 H   0  0  0  0  0  0  0  0  0  0  0  0
   -8.8912    5.2456   -3.4526 H   0  0  0  0  0  0  0  0  0  0  0  0
   -9.7462    9.2028   -1.9512 H   0  0  0  0  0  0  0  0  0  0  0  0
   -8.7665    8.8798   -3.4218 H   0  0  0  0  0  0  0  0  0  0  0  0
  -10.5285    8.5304   -3.4218 H   0  0  0  0  0  0  0  0  0  0  0  0
  -10.2664    5.4089   -1.4673 H   0  0  0  0  0  0  0  0  0  0  0  0
  -11.5046    6.2629   -3.5599 H   0  0  0  0  0  0  0  0  0  0  0  0
  -12.4221    5.5212   -2.1463 H   0  0  0  0  0  0  0  0  0  0  0  0
  -13.4974    7.6632   -3.2388 H   0  0  0  0  0  0  0  0  0  0  0  0
  -10.9774    9.1517   -0.4593 H   0  0  0  0  0  0  0  0  0  0  0  0
  -13.2819    7.9239    1.1779 H   0  0  0  0  0  0  0  0  0  0  0  0
  -11.8008    8.7559    1.8299 H   0  0  0  0  0  0  0  0  0  0  0  0
  -13.7998   10.2120    1.8974 H   0  0  0  0  0  0  0  0  0  0  0  0
  -12.4956   10.8507    0.8212 H   0  0  0  0  0  0  0  0  0  0  0  0
  -14.6103   11.1425   -0.2745 H   0  0  0  0  0  0  0  0  0  0  0  0
  -15.1150    8.7600    0.8920 H   0  0  0  0  0  0  0  0  0  0  0  0
  -12.2438   11.4601   -1.0818 H   0  0  0  0  0  0  0  0  0  0  0  0
  -11.7943   10.5826   -2.5834 H   0  0  0  0  0  0  0  0  0  0  0  0
  -13.1998   11.7011   -2.5834 H   0  0  0  0  0  0  0  0  0  0  0  0
  -15.6654    9.7016   -2.1573 H   0  0  0  0  0  0  0  0  0  0  0  0
  -14.6345   10.6495   -3.2822 H   0  0  0  0  0  0  0  0  0  0  0  0
  -14.5497    8.8553   -3.2822 H   0  0  0  0  0  0  0  0  0  0  0  0
  -11.6416    6.1068    1.6381 H   0  0  0  0  0  0  0  0  0  0  0  0
  -12.8120    6.0517    0.2765 H   0  0  0  0  0  0  0  0  0  0  0  0
  -11.3823    4.9642    0.2765 H   0  0  0  0  0  0  0  0  0  0  0  0
   -9.8908    8.0484    1.4330 H   0  0  0  0  0  0  0  0  0  0  0  0
   -9.3489    6.3170    1.0545 H   0  0  0  0  0  0  0  0  0  0  0  0
   -8.5578    8.8595   -0.3925 H   0  0  0  0  0  0  0  0  0  0  0  0
   -7.5230    7.7542    0.5945 H   0  0  0  0  0  0  0  0  0  0  0  0
   -7.7819    5.4796    0.2596 H   0  0  0  0  0  0  0  0  0  0  0  0
   -8.5588    4.8215   -1.2203 H   0  0  0  0  0  0  0  0  0  0  0  0
   -6.8028    5.2000   -1.2203 H   0  0  0  0  0  0  0  0  0  0  0  0
  1  2  1  0
  2  3  1  0
  3  4  1  0
  4  5  1  0
  5  6  1  0
  6  7  1  0
  7  8  1  0
  7  9  1  0
  2 10  1  0
 10 11  1  0
 11 12  1  0
 12 13  1  0
 13 14  1  6
 13 15  1  0
 15 16  1  0
 16 17  1  0
 17 18  2  0
 18 19  1  0
 19 20  1  0
 20 21  1  0
 21 22  1  0
 22 23  1  0
 22 24  1  0
 24 25  1  0
 24 26  1  0
 19 27  1  0
 27 28  1  1
 27 29  1  0
 29 30  1  0
 30 31  1  0
 31 32  1  1
  7  5  1  0
 31 10  1  0
 31 13  1  0
 27 15  1  0
 24 18  1  0
  1 33  1  0
  1 34  1  0
  1 35  1  0
  2 36  1  6
  3 37  1  0
  3 38  1  0
  4 39  1  0
  4 40  1  0
  5 41  1  1
  8 42  1  0
  8 43  1  0
  8 44  1  0
  9 45  1  0
  9 46  1  0
  9 47  1  0
 10 48  1  6
 11 49  1  0
 11 50  1  0
 12 51  1  0
 12 52  1  0
 14 53  1  0
 14 54  1  0
 14 55  1  0
 15 56  1  1
 16 57  1  0
 16 58  1  0
 17 59  1  0
 19 60  1  6
 20 61  1  0
 20 62  1  0
 21 63  1  0
 21 64  1  0
 22 65  1  6
 23 66  1  0
 25 67  1  0
 25 68  1  0
 25 69  1  0
 26 70  1  0
 26 71  1  0
 26 72  1  0
 28 73  1  0
 28 74  1  0
 28 75  1  0
 29 76  1  0
 29 77  1  0
 30 78  1  0
 30 79  1  0
 32 80  1  0
 32 81  1  0
 32 82  1  0
M  END
>  <meeko>  (1) 
{"is_sidechain": [false], "intermolecular_energy": 2.731, "internal_energy": -0.839}

$$$$
EPH_relaxed_0001_pdb2pqr_Repair_189_r2_0001_out
     RDKit          3D

 82 86  0  0  0  0  0  0  0  0999 V2000
  -14.9840    6.1970   -0.2480 C   0  0  0  0  0  0  0  0  0  0  0  0
  -13.7010    6.8210    0.3080 C   0  0  2  0  0  0  0  0  0  0  0  0
  -13.9450    8.2260    0.8940 C   0  0  0  0  0  0  0  0  0  0  0  0
  -14.8820    9.0920    0.0470 C   0  0  0  0  0  0  0  0  0  0  0  0
  -14.1760   10.2900   -0.5110 C   0  0  2  0  0  0  0  0  0  0  0  0
  -15.0310   11.3960   -0.8270 O   0  0  0  0  0  0  0  0  0  0  0  0
  -14.3570   10.7800   -1.9360 C   0  0  0  0  0  0  0  0  0  0  0  0
  -15.2720   10.0790   -2.8910 C   0  0  0  0  0  0  0  0  0  0  0  0
  -13.2870   11.6330   -2.5400 C   0  0  0  0  0  0  0  0  0  0  0  0
  -12.6400    6.8890   -0.7840 C   0  0  1  0  0  0  0  0  0  0  0  0
  -13.0120    7.8820   -1.9170 C   0  0  0  0  0  0  0  0  0  0  0  0
  -11.6860    8.5250   -2.4000 C   0  0  0  0  0  0  0  0  0  0  0  0
  -10.5760    7.6500   -1.7720 C   0  0  1  0  0  0  0  0  0  0  0  0
  -10.4640    6.4090   -2.7110 C   0  0  0  0  0  0  0  0  0  0  0  0
   -9.1900    8.3410   -1.5590 C   0  0  2  0  0  0  0  0  0  0  0  0
   -8.4910    8.8120   -2.8460 C   0  0  0  0  0  0  0  0  0  0  0  0
   -7.5810    7.8130   -3.4790 C   0  0  0  0  0  0  0  0  0  0  0  0
   -7.1120    6.6970   -2.8900 C   0  0  0  0  0  0  0  0  0  0  0  0
   -7.4170    6.3980   -1.4160 C   0  0  1  0  0  0  0  0  0  0  0  0
   -6.1140    5.9610   -0.6970 C   0  0  0  0  0  0  0  0  0  0  0  0
   -5.4200    4.7970   -1.3980 C   0  0  0  0  0  0  0  0  0  0  0  0
   -5.0820    5.1540   -2.8430 C   0  0  2  0  0  0  0  0  0  0  0  0
   -4.0880    6.1840   -2.8420 O   0  0  0  0  0  0  0  0  0  0  0  0
   -6.3160    5.6180   -3.6650 C   0  0  0  0  0  0  0  0  0  0  0  0
   -7.2540    4.4130   -3.9210 C   0  0  0  0  0  0  0  0  0  0  0  0
   -5.8140    6.0820   -5.0590 C   0  0  0  0  0  0  0  0  0  0  0  0
   -8.2000    7.5330   -0.6260 C   0  0  1  0  0  0  0  0  0  0  0  0
   -7.1900    8.5690   -0.0440 C   0  0  0  0  0  0  0  0  0  0  0  0
   -8.9340    6.8860    0.6080 C   0  0  0  0  0  0  0  0  0  0  0  0
  -10.3480    6.3290    0.3620 C   0  0  0  0  0  0  0  0  0  0  0  0
  -11.2220    7.3540   -0.3690 C   0  0  2  0  0  0  0  0  0  0  0  0
  -11.3710    8.6050    0.5620 C   0  0  0  0  0  0  0  0  0  0  0  0
  -15.6299    5.8829    0.5852 H   0  0  0  0  0  0  0  0  0  0  0  0
  -15.5147    6.9376   -0.8643 H   0  0  0  0  0  0  0  0  0  0  0  0
  -14.7291    5.3222   -0.8643 H   0  0  0  0  0  0  0  0  0  0  0  0
  -13.3492    6.1780    1.1282 H   0  0  0  0  0  0  0  0  0  0  0  0
  -14.3868    8.1129    1.8950 H   0  0  0  0  0  0  0  0  0  0  0  0
  -12.9712    8.7369    0.9204 H   0  0  0  0  0  0  0  0  0  0  0  0
  -15.2708    8.4874   -0.7857 H   0  0  0  0  0  0  0  0  0  0  0  0
  -15.6994    9.4455    0.6927 H   0  0  0  0  0  0  0  0  0  0  0  0
  -13.2782   10.0669    0.0842 H   0  0  0  0  0  0  0  0  0  0  0  0
  -16.0214    9.5049   -2.3263 H   0  0  0  0  0  0  0  0  0  0  0  0
  -15.7797   10.8214   -3.5242 H   0  0  0  0  0  0  0  0  0  0  0  0
  -14.6873    9.3955   -3.5242 H   0  0  0  0  0  0  0  0  0  0  0  0
  -12.6972   12.1032   -1.7393 H   0  0  0  0  0  0  0  0  0  0  0  0
  -12.6286   11.0093   -3.1625 H   0  0  0  0  0  0  0  0  0  0  0  0
  -13.7483   12.4139   -3.1625 H   0  0  0  0  0  0  0  0  0  0  0  0
  -12.6159    5.8311   -1.0844 H   0  0  0  0  0  0  0  0  0  0  0  0
  -13.4975    7.3464   -2.7461 H   0  0  0  0  0  0  0  0  0  0  0  0
  -13.7146    8.6479   -1.5567 H   0  0  0  0  0  0  0  0  0  0  0  0
  -11.6219    8.5045   -3.4979 H   0  0  0  0  0  0  0  0  0  0  0  0
  -11.6024    9.5809   -2.1034 H   0  0  0  0  0  0  0  0  0  0  0  0
  -10.3816    5.4957   -2.1034 H   0  0  0  0  0  0  0  0  0  0  0  0
  -11.3602    6.3474   -3.3458 H   0  0  0  0  0  0  0  0  0  0  0  0
   -9.5712    6.5089   -3.3458 H   0  0  0  0  0  0  0  0  0  0  0  0
   -9.4642    9.2574   -1.0159 H   0  0  0  0  0  0  0  0  0  0  0  0
   -9.2685    9.0755   -3.5782 H   0  0  0  0  0  0  0  0  0  0  0  0
   -7.8552    9.6608   -2.5539 H   0  0  0  0  0  0  0  0  0  0  0  0
   -7.2665    8.0049   -4.5155 H   0  0  0  0  0  0  0  0  0  0  0  0
   -8.1393    5.5683   -1.4162 H   0  0  0  0  0  0  0  0  0  0  0  0
   -5.4236    6.8169   -0.6676 H   0  0  0  0  0  0  0  0  0  0  0  0
   -6.3875    5.6259    0.3144 H   0  0  0  0  0  0  0  0  0  0  0  0
   -4.4914    4.5549   -0.8603 H   0  0  0  0  0  0  0  0  0  0  0  0
   -6.0999    3.9323   -1.3997 H   0  0  0  0  0  0  0  0  0  0  0  0
   -4.7081    4.2412   -3.3298 H   0  0  0  0  0  0  0  0  0  0  0  0
   -3.3310    5.8620   -2.3240 H   0  0  0  0  0  0  0  0  0  0  0  0
   -7.5815    3.9923   -2.9588 H   0  0  0  0  0  0  0  0  0  0  0  0
   -8.1322    4.7470   -4.4930 H   0  0  0  0  0  0  0  0  0  0  0  0
   -6.7147    3.6436   -4.4930 H   0  0  0  0  0  0  0  0  0  0  0  0
   -5.0116    6.8236   -4.9316 H   0  0  0  0  0  0  0  0  0  0  0  0
   -5.4277    5.2160   -5.6165 H   0  0  0  0  0  0  0  0  0  0  0  0
   -6.6470    6.5351   -5.6165 H   0  0  0  0  0  0  0  0  0  0  0  0
   -7.2227    8.5354    1.0550 H   0  0  0  0  0  0  0  0  0  0  0  0
   -6.1743    8.3242   -0.3882 H   0  0  0  0  0  0  0  0  0  0  0  0
   -7.4605    9.5781   -0.3882 H   0  0  0  0  0  0  0  0  0  0  0  0
   -8.3083    6.0569    0.9699 H   0  0  0  0  0  0  0  0  0  0  0  0
   -9.0700    7.7088    1.3253 H   0  0  0  0  0  0  0  0  0  0  0  0
  -10.2744    5.4176   -0.2496 H   0  0  0  0  0  0  0  0  0  0  0  0
  -10.8103    6.1039    1.3344 H   0  0  0  0  0  0  0  0  0  0  0  0
  -11.3330    8.2858    1.6140 H   0  0  0  0  0  0  0  0  0  0  0  0
  -10.5505    9.3101    0.3629 H   0  0  0  0  0  0  0  0  0  0  0  0
  -12.3342    9.0976    0.3629 H   0  0  0  0  0  0  0  0  0  0  0  0
  1  2  1  0
  2  3  1  0
  3  4  1  0
  4  5  1  0
  5  6  1  0
  6  7  1  0
  7  8  1  0
  7  9  1  0
  2 10  1  0
 10 11  1  0
 11 12  1  0
 12 13  1  0
 13 14  1  6
 13 15  1  0
 15 16  1  0
 16 17  1  0
 17 18  2  0
 18 19  1  0
 19 20  1  0
 20 21  1  0
 21 22  1  0
 22 23  1  0
 22 24  1  0
 24 25  1  0
 24 26  1  0
 19 27  1  0
 27 28  1  1
 27 29  1  0
 29 30  1  0
 30 31  1  0
 31 32  1  1
  7  5  1  0
 31 10  1  0
 31 13  1  0
 27 15  1  0
 24 18  1  0
  1 33  1  0
  1 34  1  0
  1 35  1  0
  2 36  1  1
  3 37  1  0
  3 38  1  0
  4 39  1  0
  4 40  1  0
  5 41  1  1
  8 42  1  0
  8 43  1  0
  8 44  1  0
  9 45  1  0
  9 46  1  0
  9 47  1  0
 10 48  1  6
 11 49  1  0
 11 50  1  0
 12 51  1  0
 12 52  1  0
 14 53  1  0
 14 54  1  0
 14 55  1  0
 15 56  1  1
 16 57  1  0
 16 58  1  0
 17 59  1  0
 19 60  1  6
 20 61  1  0
 20 62  1  0
 21 63  1  0
 21 64  1  0
 22 65  1  6
 23 66  1  0
 25 67  1  0
 25 68  1  0
 25 69  1  0
 26 70  1  0
 26 71  1  0
 26 72  1  0
 28 73  1  0
 28 74  1  0
 28 75  1  0
 29 76  1  0
 29 77  1  0
 30 78  1  0
 30 79  1  0
 32 80  1  0
 32 81  1  0
 32 82  1  0
M  END
>  <meeko>  (2) 
{"is_sidechain": [false], "intermolecular_energy": 2.731, "internal_energy": -0.839}

$$$$
EPH_relaxed_0001_pdb2pqr_Repair_189_r2_0001_out
     RDKit          3D

 82 86  0  0  0  0  0  0  0  0999 V2000
  -15.1980    8.8150    0.6010 C   0  0  0  0  0  0  0  0  0  0  0  0
  -14.3140    9.0960   -0.6180 C   0  0  2  0  0  0  0  0  0  0  0  0
  -14.6370    8.1560   -1.7970 C   0  0  0  0  0  0  0  0  0  0  0  0
  -14.6200    8.8520   -3.1610 C   0  0  0  0  0  0  0  0  0  0  0  0
  -15.2830   10.1960   -3.1050 C   0  0  2  0  0  0  0  0  0  0  0  0
  -14.9450   11.0750   -4.1860 O   0  0  0  0  0  0  0  0  0  0  0  0
  -14.5280   11.4920   -2.8760 C   0  0  0  0  0  0  0  0  0  0  0  0
  -13.0440   11.5080   -2.6850 C   0  0  0  0  0  0  0  0  0  0  0  0
  -15.2810   12.6750   -2.3520 C   0  0  0  0  0  0  0  0  0  0  0  0
  -12.8450    8.9660   -0.2350 C   0  0  1  0  0  0  0  0  0  0  0  0
  -12.6260    8.9550    1.3010 C   0  0  0  0  0  0  0  0  0  0  0  0
  -11.4360    8.0000    1.5770 C   0  0  0  0  0  0  0  0  0  0  0  0
  -10.8020    7.7570    0.1870 C   0  0  1  0  0  0  0  0  0  0  0  0
   -9.9030    9.0070   -0.0680 C   0  0  0  0  0  0  0  0  0  0  0  0
  -10.0000    6.4250    0.0180 C   0  0  2  0  0  0  0  0  0  0  0  0
   -8.7660    6.2860    0.9260 C   0  0  0  0  0  0  0  0  0  0  0  0
   -7.4890    6.8000    0.3490 C   0  0  0  0  0  0  0  0  0  0  0  0
   -7.2770    7.0890   -0.9480 C   0  0  0  0  0  0  0  0  0  0  0  0
   -8.3550    6.8110   -2.0040 C   0  0  1  0  0  0  0  0  0  0  0  0
   -7.7130    6.1090   -3.2280 C   0  0  0  0  0  0  0  0  0  0  0  0
   -6.5290    6.8880   -3.7950 C   0  0  0  0  0  0  0  0  0  0  0  0
   -5.4530    7.0940   -2.7320 C   0  0  2  0  0  0  0  0  0  0  0  0
   -4.8880    5.8230   -2.3960 O   0  0  0  0  0  0  0  0  0  0  0  0
   -5.9860    7.7850   -1.4460 C   0  0  0  0  0  0  0  0  0  0  0  0
   -6.3180    9.2660   -1.7510 C   0  0  0  0  0  0  0  0  0  0  0  0
   -4.8360    7.8040   -0.4030 C   0  0  0  0  0  0  0  0  0  0  0  0
   -9.6570    6.0620   -1.4840 C   0  0  1  0  0  0  0  0  0  0  0  0
   -9.4360    4.5190   -1.5300 C   0  0  0  0  0  0  0  0  0  0  0  0
  -10.8520    6.3690   -2.4620 C   0  0  0  0  0  0  0  0  0  0  0  0
  -11.6800    7.6350   -2.1710 C   0  0  0  0  0  0  0  0  0  0  0  0
  -12.0990    7.6900   -0.6990 C   0  0  2  0  0  0  0  0  0  0  0  0
  -13.0230    6.4560   -0.4170 C   0  0  0  0  0  0  0  0  0  0  0  0
  -14.6231    8.9978    1.5208 H   0  0  0  0  0  0  0  0  0  0  0  0
  -16.0750    9.4787    0.5788 H   0  0  0  0  0  0  0  0  0  0  0  0
  -15.5308    7.7668    0.5788 H   0  0  0  0  0  0  0  0  0  0  0  0
  -14.5219   10.1243   -0.9489 H   0  0  0  0  0  0  0  0  0  0  0  0
  -13.8918    7.3470   -1.8105 H   0  0  0  0  0  0  0  0  0  0  0  0
  -15.6594    7.7819   -1.6394 H   0  0  0  0  0  0  0  0  0  0  0  0
  -13.5760    8.9824   -3.4819 H   0  0  0  0  0  0  0  0  0  0  0  0
  -15.1754    8.2245   -3.8736 H   0  0  0  0  0  0  0  0  0  0  0  0
  -16.1715    9.7643   -2.6209 H   0  0  0  0  0  0  0  0  0  0  0  0
  -12.8127   11.5105   -1.6096 H   0  0  0  0  0  0  0  0  0  0  0  0
  -12.6045   10.6145   -3.1525 H   0  0  0  0  0  0  0  0  0  0  0  0
  -12.6238   12.4107   -3.1525 H   0  0  0  0  0  0  0  0  0  0  0  0
  -15.2705   12.6585   -1.2522 H   0  0  0  0  0  0  0  0  0  0  0  0
  -14.8052   13.6001   -2.7094 H   0  0  0  0  0  0  0  0  0  0  0  0
  -16.3206   12.6356   -2.7094 H   0  0  0  0  0  0  0  0  0  0  0  0
  -12.4412    9.8476   -0.7543 H   0  0  0  0  0  0  0  0  0  0  0  0
  -12.3887    9.9684    1.6570 H   0  0  0  0  0  0  0  0  0  0  0  0
  -13.5320    8.6188    1.8265 H   0  0  0  0  0  0  0  0  0  0  0  0
  -10.7109    8.4694    2.2581 H   0  0  0  0  0  0  0  0  0  0  0  0
  -11.7545    7.0645    2.0601 H   0  0  0  0  0  0  0  0  0  0  0  0
   -9.5929    9.4382    0.8952 H   0  0  0  0  0  0  0  0  0  0  0  0
   -9.0121    8.7075   -0.6395 H   0  0  0  0  0  0  0  0  0  0  0  0
  -10.4704    9.7563   -0.6395 H   0  0  0  0  0  0  0  0  0  0  0  0
  -10.7175    5.6707    0.3733 H   0  0  0  0  0  0  0  0  0  0  0  0
   -8.9649    6.8377    1.8567 H   0  0  0  0  0  0  0  0  0  0  0  0
   -8.6191    5.2063    1.0768 H   0  0  0  0  0  0  0  0  0  0  0  0
   -6.6499    6.9558    1.0430 H   0  0  0  0  0  0  0  0  0  0  0  0
   -8.7487    7.7938   -2.3027 H   0  0  0  0  0  0  0  0  0  0  0  0
   -7.3643    5.1122   -2.9200 H   0  0  0  0  0  0  0  0  0  0  0  0
   -8.4783    6.0447   -4.0155 H   0  0  0  0  0  0  0  0  0  0  0  0
   -6.0995    6.3272   -4.6382 H   0  0  0  0  0  0  0  0  0  0  0  0
   -6.8849    7.8733   -4.1303 H   0  0  0  0  0  0  0  0  0  0  0  0
   -4.6938    7.7667   -3.1575 H   0  0  0  0  0  0  0  0  0  0  0  0
   -4.0860    5.7060   -2.9330 H   0  0  0  0  0  0  0  0  0  0  0  0
   -6.4413    9.8161   -0.8065 H   0  0  0  0  0  0  0  0  0  0  0  0
   -5.4979    9.7136   -2.3316 H   0  0  0  0  0  0  0  0  0  0  0  0
   -7.2507    9.3206   -2.3316 H   0  0  0  0  0  0  0  0  0  0  0  0
   -5.2610    7.7970    0.6116 H   0  0  0  0  0  0  0  0  0  0  0  0
   -4.2013    6.9162   -0.5408 H   0  0  0  0  0  0  0  0  0  0  0  0
   -4.2310    8.7123   -0.5408 H   0  0  0  0  0  0  0  0  0  0  0  0
   -9.3797    4.1259   -0.5042 H   0  0  0  0  0  0  0  0  0  0  0  0
  -10.2753    4.0440   -2.0591 H   0  0  0  0  0  0  0  0  0  0  0  0
   -8.4971    4.2987   -2.0591 H   0  0  0  0  0  0  0  0  0  0  0  0
  -10.4355    6.4694   -3.4751 H   0  0  0  0  0  0  0  0  0  0  0  0
  -11.5525    5.5308   -2.3325 H   0  0  0  0  0  0  0  0  0  0  0  0
  -11.0746    8.5228   -2.4062 H   0  0  0  0  0  0  0  0  0  0  0  0
  -12.5869    7.6114   -2.7930 H   0  0  0  0  0  0  0  0  0  0  0  0
  -13.1273    6.3167    0.6691 H   0  0  0  0  0  0  0  0  0  0  0  0
  -14.0140    6.6309   -0.8611 H   0  0  0  0  0  0  0  0  0  0  0  0
  -12.5762    5.5543   -0.8611 H   0  0  0  0  0  0  0  0  0  0  0  0
  1  2  1  0
  2  3  1  0
  3  4  1  0
  4  5  1  0
  5  6  1  0
  6  7  1  0
  7  8  1  0
  7  9  1  0
  2 10  1  0
 10 11  1  0
 11 12  1  0
 12 13  1  0
 13 14  1  6
 13 15  1  0
 15 16  1  0
 16 17  1  0
 17 18  2  0
 18 19  1  0
 19 20  1  0
 20 21  1  0
 21 22  1  0
 22 23  1  0
 22 24  1  0
 24 25  1  0
 24 26  1  0
 19 27  1  0
 27 28  1  1
 27 29  1  0
 29 30  1  0
 30 31  1  0
 31 32  1  1
  7  5  1  0
 31 10  1  0
 31 13  1  0
 27 15  1  0
 24 18  1  0
  1 33  1  0
  1 34  1  0
  1 35  1  0
  2 36  1  6
  3 37  1  0
  3 38  1  0
  4 39  1  0
  4 40  1  0
  5 41  1  1
  8 42  1  0
  8 43  1  0
  8 44  1  0
  9 45  1  0
  9 46  1  0
  9 47  1  0
 10 48  1  6
 11 49  1  0
 11 50  1  0
 12 51  1  0
 12 52  1  0
 14 53  1  0
 14 54  1  0
 14 55  1  0
 15 56  1  1
 16 57  1  0
 16 58  1  0
 17 59  1  0
 19 60  1  6
 20 61  1  0
 20 62  1  0
 21 63  1  0
 21 64  1  0
 22 65  1  6
 23 66  1  0
 25 67  1  0
 25 68  1  0
 25 69  1  0
 26 70  1  0
 26 71  1  0
 26 72  1  0
 28 73  1  0
 28 74  1  0
 28 75  1  0
 29 76  1  0
 29 77  1  0
 30 78  1  0
 30 79  1  0
 32 80  1  0
 32 81  1  0
 32 82  1  0
M  END
>  <meeko>  (3) 
{"is_sidechain": [false], "intermolecular_energy": 2.731, "internal_energy": -0.839}

$$$$
EPH_relaxed_0001_pdb2pqr_Repair_189_r2_0001_out
     RDKit          3D

 82 86  0  0  0  0  0  0  0  0999 V2000
  -14.1150    9.7100    0.8170 C   0  0  0  0  0  0  0  0  0  0  0  0
  -13.4230    9.2660   -0.4750 C   0  0  2  0  0  0  0  0  0  0  0  0
  -14.3140    8.3330   -1.3190 C   0  0  0  0  0  0  0  0  0  0  0  0
  -14.5360    8.8240   -2.7520 C   0  0  0  0  0  0  0  0  0  0  0  0
  -15.2490   10.1420   -2.7820 C   0  0  2  0  0  0  0  0  0  0  0  0
  -15.0490   10.9040   -3.9800 O   0  0  0  0  0  0  0  0  0  0  0  0
  -14.5340   11.4800   -2.7690 C   0  0  0  0  0  0  0  0  0  0  0  0
  -13.0410   11.5670   -2.7230 C   0  0  0  0  0  0  0  0  0  0  0  0
  -15.2870   12.6890   -2.3090 C   0  0  0  0  0  0  0  0  0  0  0  0
  -12.1060    8.5730   -0.1470 C   0  0  1  0  0  0  0  0  0  0  0  0
  -12.2620    7.4780    0.9420 C   0  0  0  0  0  0  0  0  0  0  0  0
  -11.2670    6.3440    0.5830 C   0  0  0  0  0  0  0  0  0  0  0  0
  -10.3460    6.9610   -0.4960 C   0  0  1  0  0  0  0  0  0  0  0  0
   -9.2990    7.7980    0.3020 C   0  0  0  0  0  0  0  0  0  0  0  0
   -9.6570    5.9540   -1.4730 C   0  0  2  0  0  0  0  0  0  0  0  0
   -8.6930    4.9550   -0.8080 C   0  0  0  0  0  0  0  0  0  0  0  0
   -7.2730    5.4050   -0.7170 C   0  0  0  0  0  0  0  0  0  0  0  0
   -6.7320    6.4320   -1.3980 C   0  0  0  0  0  0  0  0  0  0  0  0
   -7.5490    7.2010   -2.4440 C   0  0  1  0  0  0  0  0  0  0  0  0
   -6.7020    7.3830   -3.7310 C   0  0  0  0  0  0  0  0  0  0  0  0
   -5.3490    8.0320   -3.4540 C   0  0  0  0  0  0  0  0  0  0  0  0
   -4.5430    7.2080   -2.4540 C   0  0  2  0  0  0  0  0  0  0  0  0
   -4.1970    5.9590   -3.0590 O   0  0  0  0  0  0  0  0  0  0  0  0
   -5.2990    6.9510   -1.1210 C   0  0  0  0  0  0  0  0  0  0  0  0
   -5.4080    8.2730   -0.3210 C   0  0  0  0  0  0  0  0  0  0  0  0
   -4.4350    5.9920   -0.2580 C   0  0  0  0  0  0  0  0  0  0  0  0
   -9.0010    6.6310   -2.7450 C   0  0  1  0  0  0  0  0  0  0  0  0
   -8.9230    5.5280   -3.8450 C   0  0  0  0  0  0  0  0  0  0  0  0
   -9.8950    7.7850   -3.3350 C   0  0  0  0  0  0  0  0  0  0  0  0
  -10.6450    8.6710   -2.3220 C   0  0  0  0  0  0  0  0  0  0  0  0
  -11.3950    7.8160   -1.2970 C   0  0  2  0  0  0  0  0  0  0  0  0
  -12.4710    6.9780   -2.0680 C   0  0  0  0  0  0  0  0  0  0  0  0
  -13.5443    9.3438    1.6831 H   0  0  0  0  0  0  0  0  0  0  0  0
  -14.1639   10.8085    0.8479 H   0  0  0  0  0  0  0  0  0  0  0  0
  -15.1339    9.2966    0.8479 H   0  0  0  0  0  0  0  0  0  0  0  0
  -13.2290   10.1679   -1.0741 H   0  0  0  0  0  0  0  0  0  0  0  0
  -13.8375    7.3424   -1.3612 H   0  0  0  0  0  0  0  0  0  0  0  0
  -15.3003    8.3041   -0.8328 H   0  0  0  0  0  0  0  0  0  0  0  0
  -13.5595    8.9356   -3.2459 H   0  0  0  0  0  0  0  0  0  0  0  0
  -15.1600    8.0845   -3.2751 H   0  0  0  0  0  0  0  0  0  0  0  0
  -16.0704    9.7383   -2.1719 H   0  0  0  0  0  0  0  0  0  0  0  0
  -12.7070   11.5865   -1.6751 H   0  0  0  0  0  0  0  0  0  0  0  0
  -12.6070   10.6926   -3.2300 H   0  0  0  0  0  0  0  0  0  0  0  0
  -12.7115   12.4859   -3.2300 H   0  0  0  0  0  0  0  0  0  0  0  0
  -15.3030   12.7146   -1.2094 H   0  0  0  0  0  0  0  0  0  0  0  0
  -14.7933   13.5953   -2.6898 H   0  0  0  0  0  0  0  0  0  0  0  0
  -16.3181   12.6456   -2.6898 H   0  0  0  0  0  0  0  0  0  0  0  0
  -11.5087    9.4459    0.1550 H   0  0  0  0  0  0  0  0  0  0  0  0
  -12.0227    7.8922    1.9325 H   0  0  0  0  0  0  0  0  0  0  0  0
  -13.2946    7.1006    0.9771 H   0  0  0  0  0  0  0  0  0  0  0  0
  -10.6840    6.0447    1.4664 H   0  0  0  0  0  0  0  0  0  0  0  0
  -11.7781    5.4374    0.2268 H   0  0  0  0  0  0  0  0  0  0  0  0
   -9.4673    7.6635    1.3807 H   0  0  0  0  0  0  0  0  0  0  0  0
   -8.2849    7.4588    0.0440 H   0  0  0  0  0  0  0  0  0  0  0  0
   -9.4065    8.8619    0.0440 H   0  0  0  0  0  0  0  0  0  0  0  0
  -10.5067    5.3550   -1.8323 H   0  0  0  0  0  0  0  0  0  0  0  0
   -9.0545    4.7616    0.2127 H   0  0  0  0  0  0  0  0  0  0  0  0
   -8.6891    4.0618   -1.4501 H   0  0  0  0  0  0  0  0  0  0  0  0
   -6.6121    4.8499   -0.0351 H   0  0  0  0  0  0  0  0  0  0  0  0
   -7.7666    8.1829   -1.9984 H   0  0  0  0  0  0  0  0  0  0  0  0
   -6.5330    6.3952   -4.1846 H   0  0  0  0  0  0  0  0  0  0  0  0
   -7.2596    8.0485   -4.4064 H   0  0  0  0  0  0  0  0  0  0  0  0
   -4.7858    8.1062   -4.3960 H   0  0  0  0  0  0  0  0  0  0  0  0
   -5.5199    9.0317   -3.0280 H   0  0  0  0  0  0  0  0  0  0  0  0
   -3.6442    7.7880   -2.1976 H   0  0  0  0  0  0  0  0  0  0  0  0
   -4.9380    5.6920   -3.6290 H   0  0  0  0  0  0  0  0  0  0  0  0
   -5.3898    8.0521    0.7564 H   0  0  0  0  0  0  0  0  0  0  0  0
   -4.5607    8.9266   -0.5757 H   0  0  0  0  0  0  0  0  0  0  0  0
   -6.3509    8.7790   -0.5757 H   0  0  0  0  0  0  0  0  0  0  0  0
   -4.6168    6.1938    0.8079 H   0  0  0  0  0  0  0  0  0  0  0  0
   -4.7053    4.9502   -0.4853 H   0  0  0  0  0  0  0  0  0  0  0  0
   -3.3708    6.1526   -0.4853 H   0  0  0  0  0  0  0  0  0  0  0  0
   -8.8531    4.5391   -3.3683 H   0  0  0  0  0  0  0  0  0  0  0  0
   -9.8264    5.5701   -4.4712 H   0  0  0  0  0  0  0  0  0  0  0  0
   -8.0346    5.6969   -4.4712 H   0  0  0  0  0  0  0  0  0  0  0  0
   -9.2421    8.4401   -3.9304 H   0  0  0  0  0  0  0  0  0  0  0  0
  -10.6826    7.2739   -3.9082 H   0  0  0  0  0  0  0  0  0  0  0  0
   -9.9199    9.3097   -1.7964 H   0  0  0  0  0  0  0  0  0  0  0  0
  -11.3755    9.2866   -2.8674 H   0  0  0  0  0  0  0  0  0  0  0  0
  -13.1255    6.4683   -1.3456 H   0  0  0  0  0  0  0  0  0  0  0  0
  -13.0734    7.6473   -2.6999 H   0  0  0  0  0  0  0  0  0  0  0  0
  -11.9696    6.2301   -2.6999 H   0  0  0  0  0  0  0  0  0  0  0  0
  1  2  1  0
  2  3  1  0
  3  4  1  0
  4  5  1  0
  5  6  1  0
  6  7  1  0
  7  8  1  0
  7  9  1  0
  2 10  1  0
 10 11  1  0
 11 12  1  0
 12 13  1  0
 13 14  1  1
 13 15  1  0
 15 16  1  0
 16 17  1  0
 17 18  2  0
 18 19  1  0
 19 20  1  0
 20 21  1  0
 21 22  1  0
 22 23  1  0
 22 24  1  0
 24 25  1  0
 24 26  1  0
 19 27  1  0
 27 28  1  6
 27 29  1  0
 29 30  1  0
 30 31  1  0
 31 32  1  6
  7  5  1  0
 31 10  1  0
 31 13  1  0
 27 15  1  0
 24 18  1  0
  1 33  1  0
  1 34  1  0
  1 35  1  0
  2 36  1  6
  3 37  1  0
  3 38  1  0
  4 39  1  0
  4 40  1  0
  5 41  1  1
  8 42  1  0
  8 43  1  0
  8 44  1  0
  9 45  1  0
  9 46  1  0
  9 47  1  0
 10 48  1  1
 11 49  1  0
 11 50  1  0
 12 51  1  0
 12 52  1  0
 14 53  1  0
 14 54  1  0
 14 55  1  0
 15 56  1  6
 16 57  1  0
 16 58  1  0
 17 59  1  0
 19 60  1  1
 20 61  1  0
 20 62  1  0
 21 63  1  0
 21 64  1  0
 22 65  1  1
 23 66  1  0
 25 67  1  0
 25 68  1  0
 25 69  1  0
 26 70  1  0
 26 71  1  0
 26 72  1  0
 28 73  1  0
 28 74  1  0
 28 75  1  0
 29 76  1  0
 29 77  1  0
 30 78  1  0
 30 79  1  0
 32 80  1  0
 32 81  1  0
 32 82  1  0
M  END
>  <meeko>  (4) 
{"is_sidechain": [false], "intermolecular_energy": 2.731, "internal_energy": -0.839}

$$$$
EPH_relaxed_0001_pdb2pqr_Repair_189_r2_0001_out
     RDKit          3D

 82 86  0  0  0  0  0  0  0  0999 V2000
   -5.0790    6.2940   -2.8960 C   0  0  0  0  0  0  0  0  0  0  0  0
   -5.9560    7.5320   -2.6930 C   0  0  2  0  0  0  0  0  0  0  0  0
   -5.5130    8.3640   -1.4730 C   0  0  0  0  0  0  0  0  0  0  0  0
   -4.2990    7.7860   -0.7420 C   0  0  0  0  0  0  0  0  0  0  0  0
   -3.5280    8.8500   -0.0200 C   0  0  2  0  0  0  0  0  0  0  0  0
   -3.3240   10.0540   -0.7690 O   0  0  0  0  0  0  0  0  0  0  0  0
   -2.1430    9.3080   -0.4360 C   0  0  0  0  0  0  0  0  0  0  0  0
   -1.4460    8.7110   -1.6190 C   0  0  0  0  0  0  0  0  0  0  0  0
   -1.2740    9.9770    0.5830 C   0  0  0  0  0  0  0  0  0  0  0  0
   -7.4150    7.1170   -2.5390 C   0  0  1  0  0  0  0  0  0  0  0  0
   -7.6550    5.6290   -2.9100 C   0  0  0  0  0  0  0  0  0  0  0  0
   -8.7610    5.1040   -1.9590 C   0  0  0  0  0  0  0  0  0  0  0  0
   -9.3500    6.3750   -1.3050 C   0  0  1  0  0  0  0  0  0  0  0  0
  -10.3510    6.9420   -2.3610 C   0  0  0  0  0  0  0  0  0  0  0  0
  -10.0290    6.1840    0.0900 C   0  0  2  0  0  0  0  0  0  0  0  0
  -11.2600    5.2610    0.0950 C   0  0  0  0  0  0  0  0  0  0  0  0
  -12.5680    5.9420   -0.1350 C   0  0  0  0  0  0  0  0  0  0  0  0
  -12.7850    7.2680   -0.0550 C   0  0  0  0  0  0  0  0  0  0  0  0
  -11.6710    8.2220    0.3930 C   0  0  1  0  0  0  0  0  0  0  0  0
  -12.2310    9.2150    1.4450 C   0  0  0  0  0  0  0  0  0  0  0  0
  -13.4690    9.9560    0.9490 C   0  0  0  0  0  0  0  0  0  0  0  0
  -14.5750    8.9750    0.5690 C   0  0  2  0  0  0  0  0  0  0  0  0
  -15.0320    8.3130    1.7530 O   0  0  0  0  0  0  0  0  0  0  0  0
  -14.1250    7.9190   -0.4790 C   0  0  0  0  0  0  0  0  0  0  0  0
  -13.9190    8.6040   -1.8520 C   0  0  0  0  0  0  0  0  0  0  0  0
  -15.2870    6.9080   -0.6680 C   0  0  0  0  0  0  0  0  0  0  0  0
  -10.3160    7.5350    0.8620 C   0  0  1  0  0  0  0  0  0  0  0  0
  -10.4000    7.1740    2.3760 C   0  0  0  0  0  0  0  0  0  0  0  0
   -9.1380    8.5700    0.7170 C   0  0  0  0  0  0  0  0  0  0  0  0
   -8.4290    8.6270   -0.6500 C   0  0  0  0  0  0  0  0  0  0  0  0
   -8.0390    7.2240   -1.1250 C   0  0  2  0  0  0  0  0  0  0  0  0
   -7.0150    6.6370   -0.0940 C   0  0  0  0  0  0  0  0  0  0  0  0
   -4.7894    5.8852   -1.9167 H   0  0  0  0  0  0  0  0  0  0  0  0
   -5.6416    5.5344   -3.4586 H   0  0  0  0  0  0  0  0  0  0  0  0
   -4.1758    6.5727   -3.4586 H   0  0  0  0  0  0  0  0  0  0  0  0
   -5.8427    8.1669   -3.5841 H   0  0  0  0  0  0  0  0  0  0  0  0
   -5.2608    9.3779   -1.8172 H   0  0  0  0  0  0  0  0  0  0  0  0
   -6.3502    8.3590   -0.7595 H   0  0  0  0  0  0  0  0  0  0  0  0
   -4.6447    7.0390   -0.0123 H   0  0  0  0  0  0  0  0  0  0  0  0
   -3.6343    7.3286   -1.4897 H   0  0  0  0  0  0  0  0  0  0  0  0
   -3.9373    8.5227    0.9471 H   0  0  0  0  0  0  0  0  0  0  0  0
   -0.6530    8.0317   -1.2730 H   0  0  0  0  0  0  0  0  0  0  0  0
   -2.1707    8.1492   -2.2266 H   0  0  0  0  0  0  0  0  0  0  0  0
   -1.0022    9.5135   -2.2266 H   0  0  0  0  0  0  0  0  0  0  0  0
   -1.6205    9.7102    1.5923 H   0  0  0  0  0  0  0  0  0  0  0  0
   -0.2336    9.6445    0.4527 H   0  0  0  0  0  0  0  0  0  0  0  0
   -1.3294   11.0679    0.4527 H   0  0  0  0  0  0  0  0  0  0  0  0
   -7.8865    7.8456   -3.2149 H   0  0  0  0  0  0  0  0  0  0  0  0
   -7.9850    5.5479   -3.9562 H   0  0  0  0  0  0  0  0  0  0  0  0
   -6.7311    5.0414   -2.8039 H   0  0  0  0  0  0  0  0  0  0  0  0
   -9.5349    4.5641   -2.5243 H   0  0  0  0  0  0  0  0  0  0  0  0
   -8.3687    4.3957   -1.2144 H   0  0  0  0  0  0  0  0  0  0  0  0
  -11.1962    7.4208   -1.8449 H   0  0  0  0  0  0  0  0  0  0  0  0
   -9.8383    7.6838   -2.9910 H   0  0  0  0  0  0  0  0  0  0  0  0
  -10.7236    6.1208   -2.9910 H   0  0  0  0  0  0  0  0  0  0  0  0
   -9.2532    5.6506    0.6590 H   0  0  0  0  0  0  0  0  0  0  0  0
  -11.1244    4.5092   -0.6964 H   0  0  0  0  0  0  0  0  0  0  0  0
  -11.3142    4.8312    1.1061 H   0  0  0  0  0  0  0  0  0  0  0  0
  -13.4280    5.3060   -0.3918 H   0  0  0  0  0  0  0  0  0  0  0  0
  -11.3597    8.7701   -0.5085 H   0  0  0  0  0  0  0  0  0  0  0  0
  -12.4961    8.6541    2.3534 H   0  0  0  0  0  0  0  0  0  0  0  0
  -11.4511    9.9644    1.6452 H   0  0  0  0  0  0  0  0  0  0  0  0
  -13.8347   10.6200    1.7460 H   0  0  0  0  0  0  0  0  0  0  0  0
  -13.1956   10.5400    0.0578 H   0  0  0  0  0  0  0  0  0  0  0  0
  -15.3836    9.5559    0.1013 H   0  0  0  0  0  0  0  0  0  0  0  0
  -14.2600    8.1700    2.3260 H   0  0  0  0  0  0  0  0  0  0  0  0
  -13.6053    9.6470   -1.6980 H   0  0  0  0  0  0  0  0  0  0  0  0
  -13.1426    8.0672   -2.4168 H   0  0  0  0  0  0  0  0  0  0  0  0
  -14.8627    8.5845   -2.4168 H   0  0  0  0  0  0  0  0  0  0  0  0
  -15.6569    6.5862    0.3167 H   0  0  0  0  0  0  0  0  0  0  0  0
  -16.1034    7.3882   -1.2273 H   0  0  0  0  0  0  0  0  0  0  0  0
  -14.9244    6.0330   -1.2273 H   0  0  0  0  0  0  0  0  0  0  0  0
  -10.1915    8.0702    2.9788 H   0  0  0  0  0  0  0  0  0  0  0  0
  -11.4087    6.8021    2.6088 H   0  0  0  0  0  0  0  0  0  0  0  0
   -9.6591    6.3950    2.6088 H   0  0  0  0  0  0  0  0  0  0  0  0
   -9.5466    9.5705    0.9222 H   0  0  0  0  0  0  0  0  0  0  0  0
   -8.3686    8.2325    1.4270 H   0  0  0  0  0  0  0  0  0  0  0  0
   -9.1066    9.0812   -1.3880 H   0  0  0  0  0  0  0  0  0  0  0  0
   -7.5140    9.2285   -0.5454 H   0  0  0  0  0  0  0  0  0  0  0  0
   -7.3673    6.8390    0.9283 H   0  0  0  0  0  0  0  0  0  0  0  0
   -6.9261    5.5508   -0.2433 H   0  0  0  0  0  0  0  0  0  0  0  0
   -6.0328    7.1092   -0.2433 H   0  0  0  0  0  0  0  0  0  0  0  0
  1  2  1  0
  2  3  1  0
  3  4  1  0
  4  5  1  0
  5  6  1  0
  6  7  1  0
  7  8  1  0
  7  9  1  0
  2 10  1  0
 10 11  1  0
 11 12  1  0
 12 13  1  0
 13 14  1  6
 13 15  1  0
 15 16  1  0
 16 17  1  0
 17 18  2  0
 18 19  1  0
 19 20  1  0
 20 21  1  0
 21 22  1  0
 22 23  1  0
 22 24  1  0
 24 25  1  0
 24 26  1  0
 19 27  1  0
 27 28  1  1
 27 29  1  0
 29 30  1  0
 30 31  1  0
 31 32  1  1
  7  5  1  0
 31 10  1  0
 31 13  1  0
 27 15  1  0
 24 18  1  0
  1 33  1  0
  1 34  1  0
  1 35  1  0
  2 36  1  6
  3 37  1  0
  3 38  1  0
  4 39  1  0
  4 40  1  0
  5 41  1  1
  8 42  1  0
  8 43  1  0
  8 44  1  0
  9 45  1  0
  9 46  1  0
  9 47  1  0
 10 48  1  6
 11 49  1  0
 11 50  1  0
 12 51  1  0
 12 52  1  0
 14 53  1  0
 14 54  1  0
 14 55  1  0
 15 56  1  1
 16 57  1  0
 16 58  1  0
 17 59  1  0
 19 60  1  6
 20 61  1  0
 20 62  1  0
 21 63  1  0
 21 64  1  0
 22 65  1  6
 23 66  1  0
 25 67  1  0
 25 68  1  0
 25 69  1  0
 26 70  1  0
 26 71  1  0
 26 72  1  0
 28 73  1  0
 28 74  1  0
 28 75  1  0
 29 76  1  0
 29 77  1  0
 30 78  1  0
 30 79  1  0
 32 80  1  0
 32 81  1  0
 32 82  1  0
M  END
>  <meeko>  (5) 
{"is_sidechain": [false], "intermolecular_energy": 2.731, "internal_energy": -0.839}

$$$$
EPH_relaxed_0001_pdb2pqr_Repair_189_r2_0001_out
     RDKit          3D

 82 86  0  0  0  0  0  0  0  0999 V2000
  -12.8270   10.7370   -2.0040 C   0  0  0  0  0  0  0  0  0  0  0  0
  -13.0420    9.5020   -1.1240 C   0  0  2  0  0  0  0  0  0  0  0  0
  -13.9530    9.8010    0.0840 C   0  0  0  0  0  0  0  0  0  0  0  0
  -15.2220    8.9450    0.1250 C   0  0  0  0  0  0  0  0  0  0  0  0
  -14.9980    7.6560    0.8560 C   0  0  2  0  0  0  0  0  0  0  0  0
  -13.7940    6.9650    0.4960 O   0  0  0  0  0  0  0  0  0  0  0  0
  -15.0270    6.2970    0.1820 C   0  0  0  0  0  0  0  0  0  0  0  0
  -15.2870    6.1580   -1.2850 C   0  0  0  0  0  0  0  0  0  0  0  0
  -15.2870    5.0870    1.0240 C   0  0  0  0  0  0  0  0  0  0  0  0
  -11.6990    8.9660   -0.6440 C   0  0  1  0  0  0  0  0  0  0  0  0
  -11.8000    8.2370    0.7220 C   0  0  0  0  0  0  0  0  0  0  0  0
  -10.7800    7.0700    0.6830 C   0  0  0  0  0  0  0  0  0  0  0  0
   -9.8990    7.3630   -0.5540 C   0  0  1  0  0  0  0  0  0  0  0  0
   -8.8610    8.4220   -0.0660 C   0  0  0  0  0  0  0  0  0  0  0  0
   -9.1990    6.1300   -1.2120 C   0  0  2  0  0  0  0  0  0  0  0  0
   -8.1940    5.3920   -0.3110 C   0  0  0  0  0  0  0  0  0  0  0  0
   -6.7850    5.8810   -0.3940 C   0  0  0  0  0  0  0  0  0  0  0  0
   -6.2890    6.6750   -1.3610 C   0  0  0  0  0  0  0  0  0  0  0  0
   -7.1490    7.0840   -2.5640 C   0  0  1  0  0  0  0  0  0  0  0  0
   -6.3340    6.8990   -3.8700 C   0  0  0  0  0  0  0  0  0  0  0  0
   -4.9960    7.6320   -3.8340 C   0  0  0  0  0  0  0  0  0  0  0  0
   -4.1460    7.1560   -2.6590 C   0  0  2  0  0  0  0  0  0  0  0  0
   -3.7750    5.7920   -2.8810 O   0  0  0  0  0  0  0  0  0  0  0  0
   -4.8670    7.2850   -1.2880 C   0  0  0  0  0  0  0  0  0  0  0  0
   -5.0000    8.7810   -0.9080 C   0  0  0  0  0  0  0  0  0  0  0  0
   -3.9580    6.6420   -0.2070 C   0  0  0  0  0  0  0  0  0  0  0  0
   -8.5900    6.4180   -2.6440 C   0  0  1  0  0  0  0  0  0  0  0  0
   -8.5010    5.0430   -3.3750 C   0  0  0  0  0  0  0  0  0  0  0  0
   -9.5280    7.3270   -3.5220 C   0  0  0  0  0  0  0  0  0  0  0  0
  -10.2850    8.4540   -2.7920 C   0  0  0  0  0  0  0  0  0  0  0  0
  -10.9890    7.9210   -1.5410 C   0  0  2  0  0  0  0  0  0  0  0  0
  -12.0550    6.8700   -2.0030 C   0  0  0  0  0  0  0  0  0  0  0  0
  -12.6733   11.6197   -1.3658 H   0  0  0  0  0  0  0  0  0  0  0  0
  -11.9418   10.5851   -2.6391 H   0  0  0  0  0  0  0  0  0  0  0  0
  -13.7115   10.8932   -2.6391 H   0  0  0  0  0  0  0  0  0  0  0  0
  -13.5474    8.7420   -1.7379 H   0  0  0  0  0  0  0  0  0  0  0  0
  -13.3801    9.6170    1.0049 H   0  0  0  0  0  0  0  0  0  0  0  0
  -14.2750   10.8488   -0.0079 H   0  0  0  0  0  0  0  0  0  0  0  0
  -16.0168    9.5100    0.6340 H   0  0  0  0  0  0  0  0  0  0  0  0
  -15.5085    8.7068   -0.9100 H   0  0  0  0  0  0  0  0  0  0  0  0
  -15.5052    8.0472    1.7503 H   0  0  0  0  0  0  0  0  0  0  0  0
  -16.2474    5.6446   -1.4401 H   0  0  0  0  0  0  0  0  0  0  0  0
  -15.3258    7.1557   -1.7467 H   0  0  0  0  0  0  0  0  0  0  0  0
  -14.4789    5.5716   -1.7467 H   0  0  0  0  0  0  0  0  0  0  0  0
  -15.2281    5.3610    2.0877 H   0  0  0  0  0  0  0  0  0  0  0  0
  -16.2901    4.6941    0.8015 H   0  0  0  0  0  0  0  0  0  0  0  0
  -14.5339    4.3167    0.8015 H   0  0  0  0  0  0  0  0  0  0  0  0
  -11.1220    9.9024   -0.6279 H   0  0  0  0  0  0  0  0  0  0  0  0
  -11.5523    8.9294    1.5401 H   0  0  0  0  0  0  0  0  0  0  0  0
  -12.8201    7.8641    0.8961 H   0  0  0  0  0  0  0  0  0  0  0  0
  -10.1710    7.0558    1.5989 H   0  0  0  0  0  0  0  0  0  0  0  0
  -11.2718    6.0880    0.6217 H   0  0  0  0  0  0  0  0  0  0  0  0
   -8.8441    8.4392    1.0337 H   0  0  0  0  0  0  0  0  0  0  0  0
   -7.8623    8.1578   -0.4439 H   0  0  0  0  0  0  0  0  0  0  0  0
   -9.1451    9.4152   -0.4439 H   0  0  0  0  0  0  0  0  0  0  0  0
  -10.0373    5.4326   -1.3566 H   0  0  0  0  0  0  0  0  0  0  0  0
   -8.5299    5.4980    0.7311 H   0  0  0  0  0  0  0  0  0  0  0  0
   -8.1762    4.3503   -0.6639 H   0  0  0  0  0  0  0  0  0  0  0  0
   -6.0947    5.5656    0.4022 H   0  0  0  0  0  0  0  0  0  0  0  0
   -7.3865    8.1484   -2.4204 H   0  0  0  0  0  0  0  0  0  0  0  0
   -6.1441    5.8257   -4.0180 H   0  0  0  0  0  0  0  0  0  0  0  0
   -6.9249    7.3233   -4.6951 H   0  0  0  0  0  0  0  0  0  0  0  0
   -4.4544    7.4393   -4.7718 H   0  0  0  0  0  0  0  0  0  0  0  0
   -5.1880    8.7086   -3.7157 H   0  0  0  0  0  0  0  0  0  0  0  0
   -3.2599    7.8058   -2.6090 H   0  0  0  0  0  0  0  0  0  0  0  0
   -4.5920    5.2830   -3.0150 H   0  0  0  0  0  0  0  0  0  0  0  0
   -5.0090    8.8817    0.1873 H   0  0  0  0  0  0  0  0  0  0  0  0
   -4.1481    9.3413   -1.3208 H   0  0  0  0  0  0  0  0  0  0  0  0
   -5.9374    9.1822   -1.3208 H   0  0  0  0  0  0  0  0  0  0  0  0
   -4.3330    6.9073    0.7925 H   0  0  0  0  0  0  0  0  0  0  0  0
   -3.9670    5.5482   -0.3236 H   0  0  0  0  0  0  0  0  0  0  0  0
   -2.9297    7.0147   -0.3236 H   0  0  0  0  0  0  0  0  0  0  0  0
   -8.4487    4.2347   -2.6307 H   0  0  0  0  0  0  0  0  0  0  0  0
   -9.3920    4.9043   -4.0049 H   0  0  0  0  0  0  0  0  0  0  0  0
   -7.5995    5.0203   -4.0049 H   0  0  0  0  0  0  0  0  0  0  0  0
   -8.9060    7.7936   -4.3001 H   0  0  0  0  0  0  0  0  0  0  0  0
  -10.3104    6.6527   -3.9003 H   0  0  0  0  0  0  0  0  0  0  0  0
   -9.5694    9.2355   -2.4967 H   0  0  0  0  0  0  0  0  0  0  0  0
  -11.0445    8.8648   -3.4735 H   0  0  0  0  0  0  0  0  0  0  0  0
  -12.5223    6.4093   -1.1202 H   0  0  0  0  0  0  0  0  0  0  0  0
  -12.8262    7.3709   -2.6066 H   0  0  0  0  0  0  0  0  0  0  0  0
  -11.5650    6.0918   -2.6066 H   0  0  0  0  0  0  0  0  0  0  0  0
  1  2  1  0
  2  3  1  0
  3  4  1  0
  4  5  1  0
  5  6  1  0
  6  7  1  0
  7  8  1  0
  7  9  1  0
  2 10  1  0
 10 11  1  0
 11 12  1  0
 12 13  1  0
 13 14  1  1
 13 15  1  0
 15 16  1  0
 16 17  1  0
 17 18  2  0
 18 19  1  0
 19 20  1  0
 20 21  1  0
 21 22  1  0
 22 23  1  0
 22 24  1  0
 24 25  1  0
 24 26  1  0
 19 27  1  0
 27 28  1  6
 27 29  1  0
 29 30  1  0
 30 31  1  0
 31 32  1  6
  7  5  1  0
 31 10  1  0
 31 13  1  0
 27 15  1  0
 24 18  1  0
  1 33  1  0
  1 34  1  0
  1 35  1  0
  2 36  1  6
  3 37  1  0
  3 38  1  0
  4 39  1  0
  4 40  1  0
  5 41  1  1
  8 42  1  0
  8 43  1  0
  8 44  1  0
  9 45  1  0
  9 46  1  0
  9 47  1  0
 10 48  1  1
 11 49  1  0
 11 50  1  0
 12 51  1  0
 12 52  1  0
 14 53  1  0
 14 54  1  0
 14 55  1  0
 15 56  1  6
 16 57  1  0
 16 58  1  0
 17 59  1  0
 19 60  1  1
 20 61  1  0
 20 62  1  0
 21 63  1  0
 21 64  1  0
 22 65  1  1
 23 66  1  0
 25 67  1  0
 25 68  1  0
 25 69  1  0
 26 70  1  0
 26 71  1  0
 26 72  1  0
 28 73  1  0
 28 74  1  0
 28 75  1  0
 29 76  1  0
 29 77  1  0
 30 78  1  0
 30 79  1  0
 32 80  1  0
 32 81  1  0
 32 82  1  0
M  END
>  <meeko>  (6) 
{"is_sidechain": [false], "intermolecular_energy": 2.731, "internal_energy": -0.839}

$$$$
EPH_relaxed_0001_pdb2pqr_Repair_189_r2_0001_out
     RDKit          3D

 82 86  0  0  0  0  0  0  0  0999 V2000
  -11.4240    8.8600   -2.6760 C   0  0  0  0  0  0  0  0  0  0  0  0
  -11.0120    7.5910   -1.9240 C   0  0  2  0  0  0  0  0  0  0  0  0
  -12.0930    7.1300   -0.9270 C   0  0  0  0  0  0  0  0  0  0  0  0
  -13.5010    7.6200   -1.2760 C   0  0  0  0  0  0  0  0  0  0  0  0
  -13.7020    9.0540   -0.8880 C   0  0  2  0  0  0  0  0  0  0  0  0
  -15.0580    9.4090   -0.5910 O   0  0  0  0  0  0  0  0  0  0  0  0
  -14.4710   10.0500   -1.7350 C   0  0  0  0  0  0  0  0  0  0  0  0
  -15.0880    9.6540   -3.0390 C   0  0  0  0  0  0  0  0  0  0  0  0
  -14.2060   11.5110   -1.5380 C   0  0  0  0  0  0  0  0  0  0  0  0
   -9.6950    7.8250   -1.1930 C   0  0  1  0  0  0  0  0  0  0  0  0
   -9.8060    7.5710    0.3340 C   0  0  0  0  0  0  0  0  0  0  0  0
   -8.4500    6.9730    0.7880 C   0  0  0  0  0  0  0  0  0  0  0  0
   -7.4990    7.2100   -0.4080 C   0  0  1  0  0  0  0  0  0  0  0  0
   -7.0360    8.6940   -0.2660 C   0  0  0  0  0  0  0  0  0  0  0  0
   -6.2830    6.2350   -0.5280 C   0  0  2  0  0  0  0  0  0  0  0  0
   -5.2880    6.2860    0.6450 C   0  0  0  0  0  0  0  0  0  0  0  0
   -4.1650    7.2570    0.4870 C   0  0  0  0  0  0  0  0  0  0  0  0
   -3.8000    7.8490   -0.6650 C   0  0  0  0  0  0  0  0  0  0  0  0
   -4.4820    7.4830   -1.9900 C   0  0  1  0  0  0  0  0  0  0  0  0
   -3.4050    7.2610   -3.0830 C   0  0  0  0  0  0  0  0  0  0  0  0
   -2.4580    8.4490   -3.2230 C   0  0  0  0  0  0  0  0  0  0  0  0
   -1.7560    8.7450   -1.9010 C   0  0  2  0  0  0  0  0  0  0  0  0
   -0.8810    7.6560   -1.5900 O   0  0  0  0  0  0  0  0  0  0  0  0
   -2.7410    8.9780   -0.7220 C   0  0  0  0  0  0  0  0  0  0  0  0
   -3.4780   10.3260   -0.9170 C   0  0  0  0  0  0  0  0  0  0  0  0
   -1.9040    9.1240    0.5780 C   0  0  0  0  0  0  0  0  0  0  0  0
   -5.5370    6.2970   -1.9220 C   0  0  1  0  0  0  0  0  0  0  0  0
   -4.8110    4.9280   -2.0990 C   0  0  0  0  0  0  0  0  0  0  0  0
   -6.5370    6.4280   -3.1310 C   0  0  0  0  0  0  0  0  0  0  0  0
   -7.7810    7.3100   -2.9100 C   0  0  0  0  0  0  0  0  0  0  0  0
   -8.4880    6.9440   -1.6020 C   0  0  2  0  0  0  0  0  0  0  0  0
   -8.9850    5.4630   -1.7240 C   0  0  0  0  0  0  0  0  0  0  0  0
  -11.6799    9.6481   -1.9526 H   0  0  0  0  0  0  0  0  0  0  0  0
  -10.5898    9.1990   -3.3078 H   0  0  0  0  0  0  0  0  0  0  0  0
  -12.2983    8.6443   -3.3078 H   0  0  0  0  0  0  0  0  0  0  0  0
  -10.8873    6.7909   -2.6685 H   0  0  0  0  0  0  0  0  0  0  0  0
  -12.1025    6.0302   -0.9090 H   0  0  0  0  0  0  0  0  0  0  0  0
  -11.8348    7.5634    0.0505 H   0  0  0  0  0  0  0  0  0  0  0  0
  -13.6547    7.5194   -2.3606 H   0  0  0  0  0  0  0  0  0  0  0  0
  -14.2248    7.0091   -0.7165 H   0  0  0  0  0  0  0  0  0  0  0  0
  -12.7042    9.0935   -0.4267 H   0  0  0  0  0  0  0  0  0  0  0  0
  -16.0000    9.0687   -2.8504 H   0  0  0  0  0  0  0  0  0  0  0  0
  -15.3440   10.5569   -3.6127 H   0  0  0  0  0  0  0  0  0  0  0  0
  -14.3737    9.0452   -3.6127 H   0  0  0  0  0  0  0  0  0  0  0  0
  -14.1655   11.7344   -0.4617 H   0  0  0  0  0  0  0  0  0  0  0  0
  -13.2452   11.7755   -2.0038 H   0  0  0  0  0  0  0  0  0  0  0  0
  -15.0127   12.0960   -2.0038 H   0  0  0  0  0  0  0  0  0  0  0  0
   -9.5102    8.8715   -1.4770 H   0  0  0  0  0  0  0  0  0  0  0  0
   -9.9988    8.5164    0.8622 H   0  0  0  0  0  0  0  0  0  0  0  0
  -10.6356    6.8853    0.5609 H   0  0  0  0  0  0  0  0  0  0  0  0
   -8.0797    7.4883    1.6865 H   0  0  0  0  0  0  0  0  0  0  0  0
   -8.5311    5.9082    1.0517 H   0  0  0  0  0  0  0  0  0  0  0  0
   -6.9553    8.9525    0.8001 H   0  0  0  0  0  0  0  0  0  0  0  0
   -6.0558    8.8201   -0.7490 H   0  0  0  0  0  0  0  0  0  0  0  0
   -7.7706    9.3551   -0.7490 H   0  0  0  0  0  0  0  0  0  0  0  0
   -6.7652    5.2481   -0.4684 H   0  0  0  0  0  0  0  0  0  0  0  0
   -5.8466    6.5572    1.5530 H   0  0  0  0  0  0  0  0  0  0  0  0
   -4.8242    5.2898    0.6941 H   0  0  0  0  0  0  0  0  0  0  0  0
   -3.5872    7.5098    1.3883 H   0  0  0  0  0  0  0  0  0  0  0  0
   -5.1110    8.3452   -2.2565 H   0  0  0  0  0  0  0  0  0  0  0  0
   -2.8159    6.3697   -2.8213 H   0  0  0  0  0  0  0  0  0  0  0  0
   -3.9260    7.1351   -4.0436 H   0  0  0  0  0  0  0  0  0  0  0  0
   -1.7022    8.2188   -3.9884 H   0  0  0  0  0  0  0  0  0  0  0  0
   -3.0441    9.3329   -3.5151 H   0  0  0  0  0  0  0  0  0  0  0  0
   -1.1942    9.6821   -2.0286 H   0  0  0  0  0  0  0  0  0  0  0  0
   -0.1790    7.6420   -2.2610 H   0  0  0  0  0  0  0  0  0  0  0  0
   -3.7151   10.7597    0.0657 H   0  0  0  0  0  0  0  0  0  0  0  0
   -2.8331   11.0187   -1.4776 H   0  0  0  0  0  0  0  0  0  0  0  0
   -4.4092   10.1570   -1.4776 H   0  0  0  0  0  0  0  0  0  0  0  0
   -2.5616    9.0093    1.4523 H   0  0  0  0  0  0  0  0  0  0  0  0
   -1.1244    8.3483    0.6012 H   0  0  0  0  0  0  0  0  0  0  0  0
   -1.4331   10.1178    0.6012 H   0  0  0  0  0  0  0  0  0  0  0  0
   -4.5852    4.5022   -1.1102 H   0  0  0  0  0  0  0  0  0  0  0  0
   -5.4614    4.2374   -2.6558 H   0  0  0  0  0  0  0  0  0  0  0  0
   -3.8744    5.0789   -2.6558 H   0  0  0  0  0  0  0  0  0  0  0  0
   -5.9786    6.8469   -3.9811 H   0  0  0  0  0  0  0  0  0  0  0  0
   -6.9284    5.4128   -3.2926 H   0  0  0  0  0  0  0  0  0  0  0  0
   -7.4714    8.3647   -2.8686 H   0  0  0  0  0  0  0  0  0  0  0  0
   -8.4795    7.1458   -3.7437 H   0  0  0  0  0  0  0  0  0  0  0  0
   -9.1270    5.0399   -0.7186 H   0  0  0  0  0  0  0  0  0  0  0  0
   -9.9399    5.4405   -2.2695 H   0  0  0  0  0  0  0  0  0  0  0  0
   -8.2370    4.8690   -2.2695 H   0  0  0  0  0  0  0  0  0  0  0  0
  1  2  1  0
  2  3  1  0
  3  4  1  0
  4  5  1  0
  5  6  1  0
  6  7  1  0
  7  8  1  0
  7  9  1  0
  2 10  1  0
 10 11  1  0
 11 12  1  0
 12 13  1  0
 13 14  1  6
 13 15  1  0
 15 16  1  0
 16 17  1  0
 17 18  2  0
 18 19  1  0
 19 20  1  0
 20 21  1  0
 21 22  1  0
 22 23  1  0
 22 24  1  0
 24 25  1  0
 24 26  1  0
 19 27  1  0
 27 28  1  6
 27 29  1  0
 29 30  1  0
 30 31  1  0
 31 32  1  6
  7  5  1  0
 31 10  1  0
 31 13  1  0
 27 15  1  0
 24 18  1  0
  1 33  1  0
  1 34  1  0
  1 35  1  0
  2 36  1  6
  3 37  1  0
  3 38  1  0
  4 39  1  0
  4 40  1  0
  5 41  1  1
  8 42  1  0
  8 43  1  0
  8 44  1  0
  9 45  1  0
  9 46  1  0
  9 47  1  0
 10 48  1  1
 11 49  1  0
 11 50  1  0
 12 51  1  0
 12 52  1  0
 14 53  1  0
 14 54  1  0
 14 55  1  0
 15 56  1  6
 16 57  1  0
 16 58  1  0
 17 59  1  0
 19 60  1  6
 20 61  1  0
 20 62  1  0
 21 63  1  0
 21 64  1  0
 22 65  1  6
 23 66  1  0
 25 67  1  0
 25 68  1  0
 25 69  1  0
 26 70  1  0
 26 71  1  0
 26 72  1  0
 28 73  1  0
 28 74  1  0
 28 75  1  0
 29 76  1  0
 29 77  1  0
 30 78  1  0
 30 79  1  0
 32 80  1  0
 32 81  1  0
 32 82  1  0
M  END
>  <meeko>  (7) 
{"is_sidechain": [false], "intermolecular_energy": 2.731, "internal_energy": -0.839}

$$$$
EPH_relaxed_0001_pdb2pqr_Repair_189_r2_0001_out
     RDKit          3D

 82 86  0  0  0  0  0  0  0  0999 V2000
  -10.7520    6.5900   -3.4810 C   0  0  0  0  0  0  0  0  0  0  0  0
  -11.1010    7.1990   -2.1200 C   0  0  2  0  0  0  0  0  0  0  0  0
  -11.9870    8.4540   -2.2550 C   0  0  0  0  0  0  0  0  0  0  0  0
  -13.0520    8.5760   -1.1620 C   0  0  0  0  0  0  0  0  0  0  0  0
  -13.8110    7.2970   -0.9810 C   0  0  2  0  0  0  0  0  0  0  0  0
  -15.2020    7.3730   -1.3200 O   0  0  0  0  0  0  0  0  0  0  0  0
  -14.8990    7.1090    0.0600 C   0  0  0  0  0  0  0  0  0  0  0  0
  -15.2870    8.2150    0.9900 C   0  0  0  0  0  0  0  0  0  0  0  0
  -15.2390    5.7190    0.4970 C   0  0  0  0  0  0  0  0  0  0  0  0
   -9.8250    7.5420   -1.3610 C   0  0  1  0  0  0  0  0  0  0  0  0
   -9.9830    7.3880    0.1750 C   0  0  0  0  0  0  0  0  0  0  0  0
   -8.6200    6.8850    0.7170 C   0  0  0  0  0  0  0  0  0  0  0  0
   -7.6360    7.0830   -0.4600 C   0  0  1  0  0  0  0  0  0  0  0  0
   -7.2430    8.5930   -0.4050 C   0  0  0  0  0  0  0  0  0  0  0  0
   -6.3750    6.1590   -0.4690 C   0  0  2  0  0  0  0  0  0  0  0  0
   -5.4280    6.3350    0.7320 C   0  0  0  0  0  0  0  0  0  0  0  0
   -4.3430    7.3440    0.5460 C   0  0  0  0  0  0  0  0  0  0  0  0
   -3.9600    7.8720   -0.6320 C   0  0  0  0  0  0  0  0  0  0  0  0
   -4.5750    7.3870   -1.9500 C   0  0  1  0  0  0  0  0  0  0  0  0
   -3.4490    7.1400   -2.9880 C   0  0  0  0  0  0  0  0  0  0  0  0
   -2.5500    8.3590   -3.1760 C   0  0  0  0  0  0  0  0  0  0  0  0
   -1.9110    8.7750   -1.8540 C   0  0  2  0  0  0  0  0  0  0  0  0
   -1.0030    7.7510   -1.4380 O   0  0  0  0  0  0  0  0  0  0  0  0
   -2.9500    9.0420   -0.7290 C   0  0  0  0  0  0  0  0  0  0  0  0
   -3.7370   10.3390   -1.0430 C   0  0  0  0  0  0  0  0  0  0  0  0
   -2.1700    9.3150    0.5850 C   0  0  0  0  0  0  0  0  0  0  0  0
   -5.5800    6.1600   -1.8370 C   0  0  1  0  0  0  0  0  0  0  0  0
   -4.7880    4.8180   -1.8930 C   0  0  0  0  0  0  0  0  0  0  0  0
   -6.5380    6.1630   -3.0860 C   0  0  0  0  0  0  0  0  0  0  0  0
   -7.8270    7.0000   -2.9710 C   0  0  0  0  0  0  0  0  0  0  0  0
   -8.5660    6.6920   -1.6650 C   0  0  2  0  0  0  0  0  0  0  0  0
   -8.9930    5.1850   -1.7010 C   0  0  0  0  0  0  0  0  0  0  0  0
  -10.2101    5.6445   -3.3315 H   0  0  0  0  0  0  0  0  0  0  0  0
  -11.6768    6.3975   -4.0446 H   0  0  0  0  0  0  0  0  0  0  0  0
  -10.1183    7.2906   -4.0446 H   0  0  0  0  0  0  0  0  0  0  0  0
  -11.6763    6.4474   -1.5595 H   0  0  0  0  0  0  0  0  0  0  0  0
  -11.3399    9.3424   -2.2100 H   0  0  0  0  0  0  0  0  0  0  0  0
  -12.5189    8.3703   -3.2142 H   0  0  0  0  0  0  0  0  0  0  0  0
  -12.5603    8.8359   -0.2129 H   0  0  0  0  0  0  0  0  0  0  0  0
  -13.7649    9.3573   -1.4642 H   0  0  0  0  0  0  0  0  0  0  0  0
  -12.9180    6.7049   -1.2297 H   0  0  0  0  0  0  0  0  0  0  0  0
  -15.1687    7.8778    2.0303 H   0  0  0  0  0  0  0  0  0  0  0  0
  -14.6413    9.0875    0.8117 H   0  0  0  0  0  0  0  0  0  0  0  0
  -16.3363    8.4929    0.8117 H   0  0  0  0  0  0  0  0  0  0  0  0
  -15.2504    5.6726    1.5960 H   0  0  0  0  0  0  0  0  0  0  0  0
  -16.2307    5.4446    0.1082 H   0  0  0  0  0  0  0  0  0  0  0  0
  -14.4859    5.0178    0.1082 H   0  0  0  0  0  0  0  0  0  0  0  0
   -9.6754    8.5742   -1.7104 H   0  0  0  0  0  0  0  0  0  0  0  0
  -10.2366    8.3574    0.6288 H   0  0  0  0  0  0  0  0  0  0  0  0
  -10.7902    6.6821    0.4201 H   0  0  0  0  0  0  0  0  0  0  0  0
   -8.3064    7.4772    1.5893 H   0  0  0  0  0  0  0  0  0  0  0  0
   -8.6646    5.8383    1.0523 H   0  0  0  0  0  0  0  0  0  0  0  0
   -7.1599    8.9123    0.6444 H   0  0  0  0  0  0  0  0  0  0  0  0
   -6.2769    8.7391   -0.9103 H   0  0  0  0  0  0  0  0  0  0  0  0
   -8.0153    9.1915   -0.9103 H   0  0  0  0  0  0  0  0  0  0  0  0
   -6.8161    5.1575   -0.3573 H   0  0  0  0  0  0  0  0  0  0  0  0
   -6.0318    6.6410    1.5990 H   0  0  0  0  0  0  0  0  0  0  0  0
   -4.9235    5.3668    0.8663 H   0  0  0  0  0  0  0  0  0  0  0  0
   -3.8120    7.6846    1.4471 H   0  0  0  0  0  0  0  0  0  0  0  0
   -5.2299    8.2002   -2.2961 H   0  0  0  0  0  0  0  0  0  0  0  0
   -2.8321    6.2962   -2.6453 H   0  0  0  0  0  0  0  0  0  0  0  0
   -3.9271    6.9248   -3.9550 H   0  0  0  0  0  0  0  0  0  0  0  0
   -1.7569    8.1135   -3.8976 H   0  0  0  0  0  0  0  0  0  0  0  0
   -3.1632    9.1934   -3.5473 H   0  0  0  0  0  0  0  0  0  0  0  0
   -1.3847    9.7254   -2.0266 H   0  0  0  0  0  0  0  0  0  0  0  0
   -1.1060    7.0010   -2.0480 H   0  0  0  0  0  0  0  0  0  0  0  0
   -4.0323   10.8257   -0.1017 H   0  0  0  0  0  0  0  0  0  0  0  0
   -3.1009   11.0220   -1.6251 H   0  0  0  0  0  0  0  0  0  0  0  0
   -4.6366   10.0902   -1.6251 H   0  0  0  0  0  0  0  0  0  0  0  0
   -2.8144    9.0895    1.4475 H   0  0  0  0  0  0  0  0  0  0  0  0
   -1.2747    8.6768    0.6193 H   0  0  0  0  0  0  0  0  0  0  0  0
   -1.8681   10.3722    0.6193 H   0  0  0  0  0  0  0  0  0  0  0  0
   -4.5828    4.4704   -0.8697 H   0  0  0  0  0  0  0  0  0  0  0  0
   -5.3847    4.0620   -2.4244 H   0  0  0  0  0  0  0  0  0  0  0  0
   -3.8377    4.9749   -2.4244 H   0  0  0  0  0  0  0  0  0  0  0  0
   -5.9662    6.5485   -3.9430 H   0  0  0  0  0  0  0  0  0  0  0  0
   -6.8788    5.1223   -3.1899 H   0  0  0  0  0  0  0  0  0  0  0  0
   -7.5656    8.0683   -2.9932 H   0  0  0  0  0  0  0  0  0  0  0  0
   -8.4858    6.7472   -3.8148 H   0  0  0  0  0  0  0  0  0  0  0  0
   -9.0994    4.8094   -0.6726 H   0  0  0  0  0  0  0  0  0  0  0  0
   -9.9538    5.0886   -2.2278 H   0  0  0  0  0  0  0  0  0  0  0  0
   -8.2256    4.5989   -2.2278 H   0  0  0  0  0  0  0  0  0  0  0  0
  1  2  1  0
  2  3  1  0
  3  4  1  0
  4  5  1  0
  5  6  1  0
  6  7  1  0
  7  8  1  0
  7  9  1  0
  2 10  1  0
 10 11  1  0
 11 12  1  0
 12 13  1  0
 13 14  1  6
 13 15  1  0
 15 16  1  0
 16 17  1  0
 17 18  2  0
 18 19  1  0
 19 20  1  0
 20 21  1  0
 21 22  1  0
 22 23  1  0
 22 24  1  0
 24 25  1  0
 24 26  1  0
 19 27  1  0
 27 28  1  6
 27 29  1  0
 29 30  1  0
 30 31  1  0
 31 32  1  1
  7  5  1  0
 31 10  1  0
 31 13  1  0
 27 15  1  0
 24 18  1  0
  1 33  1  0
  1 34  1  0
  1 35  1  0
  2 36  1  1
  3 37  1  0
  3 38  1  0
  4 39  1  0
  4 40  1  0
  5 41  1  6
  8 42  1  0
  8 43  1  0
  8 44  1  0
  9 45  1  0
  9 46  1  0
  9 47  1  0
 10 48  1  1
 11 49  1  0
 11 50  1  0
 12 51  1  0
 12 52  1  0
 14 53  1  0
 14 54  1  0
 14 55  1  0
 15 56  1  1
 16 57  1  0
 16 58  1  0
 17 59  1  0
 19 60  1  6
 20 61  1  0
 20 62  1  0
 21 63  1  0
 21 64  1  0
 22 65  1  6
 23 66  1  0
 25 67  1  0
 25 68  1  0
 25 69  1  0
 26 70  1  0
 26 71  1  0
 26 72  1  0
 28 73  1  0
 28 74  1  0
 28 75  1  0
 29 76  1  0
 29 77  1  0
 30 78  1  0
 30 79  1  0
 32 80  1  0
 32 81  1  0
 32 82  1  0
M  END
>  <meeko>  (8) 
{"is_sidechain": [false], "intermolecular_energy": 2.731, "internal_energy": -0.839}

$$$$
EPH_relaxed_0001_pdb2pqr_Repair_189_r2_0001_out
     RDKit          3D

 82 86  0  0  0  0  0  0  0  0999 V2000
    2.1840   12.4530   -5.6950 C   0  0  0  0  0  0  0  0  0  0  0  0
    1.2310   13.5730   -6.1230 C   0  0  2  0  0  0  0  0  0  0  0  0
    1.9700   14.7250   -6.8320 C   0  0  0  0  0  0  0  0  0  0  0  0
    1.1900   15.3310   -8.0020 C   0  0  0  0  0  0  0  0  0  0  0  0
    2.0910   15.6820   -9.1470 C   0  0  2  0  0  0  0  0  0  0  0  0
    1.5760   16.6910  -10.0260 O   0  0  0  0  0  0  0  0  0  0  0  0
    1.7560   15.3840  -10.5960 C   0  0  0  0  0  0  0  0  0  0  0  0
    0.4770   14.7060  -10.9790 C   0  0  0  0  0  0  0  0  0  0  0  0
    2.8740   15.3080  -11.5880 C   0  0  0  0  0  0  0  0  0  0  0  0
    0.4760   14.1050   -4.9110 C   0  0  1  0  0  0  0  0  0  0  0  0
   -0.4010   13.0220   -4.2300 C   0  0  0  0  0  0  0  0  0  0  0  0
   -0.3710   13.3130   -2.7080 C   0  0  0  0  0  0  0  0  0  0  0  0
    0.2400   14.7290   -2.5930 C   0  0  1  0  0  0  0  0  0  0  0  0
   -0.9460   15.7020   -2.8830 C   0  0  0  0  0  0  0  0  0  0  0  0
    0.9490   15.0690   -1.2420 C   0  0  2  0  0  0  0  0  0  0  0  0
    0.0360   15.0490   -0.0030 C   0  0  0  0  0  0  0  0  0  0  0  0
   -0.6130   16.3510    0.3320 C   0  0  0  0  0  0  0  0  0  0  0  0
   -0.2530   17.5530   -0.1550 C   0  0  0  0  0  0  0  0  0  0  0  0
    0.9720   17.6980   -1.0670 C   0  0  1  0  0  0  0  0  0  0  0  0
    1.8310   18.8990   -0.5930 C   0  0  0  0  0  0  0  0  0  0  0  0
    1.0250   20.1900   -0.4890 C   0  0  0  0  0  0  0  0  0  0  0  0
   -0.1500   20.0240    0.4710 C   0  0  2  0  0  0  0  0  0  0  0  0
    0.3590   19.8400    1.7950 O   0  0  0  0  0  0  0  0  0  0  0  0
   -1.0810   18.8360    0.0990 C   0  0  0  0  0  0  0  0  0  0  0  0
   -1.8640   19.1740   -1.1940 C   0  0  0  0  0  0  0  0  0  0  0  0
   -2.1420   18.6910    1.2240 C   0  0  0  0  0  0  0  0  0  0  0  0
    1.8340   16.3800   -1.2860 C   0  0  1  0  0  0  0  0  0  0  0  0
    2.8920   16.2420   -0.1490 C   0  0  0  0  0  0  0  0  0  0  0  0
    2.6420   16.5120   -2.6310 C   0  0  0  0  0  0  0  0  0  0  0  0
    1.9310   16.0480   -3.9170 C   0  0  0  0  0  0  0  0  0  0  0  0
    1.3200   14.6550   -3.7330 C   0  0  2  0  0  0  0  0  0  0  0  0
    2.4920   13.6510   -3.4620 C   0  0  0  0  0  0  0  0  0  0  0  0
    2.2243   12.4056   -4.5968 H   0  0  0  0  0  0  0  0  0  0  0  0
    1.8220   11.4925   -6.0904 H   0  0  0  0  0  0  0  0  0  0  0  0
    3.1901   12.6565   -6.0904 H   0  0  0  0  0  0  0  0  0  0  0  0
    0.5197   13.1445   -6.8444 H   0  0  0  0  0  0  0  0  0  0  0  0
    2.1629   15.5188   -6.0954 H   0  0  0  0  0  0  0  0  0  0  0  0
    2.8967   14.3034   -7.2484 H   0  0  0  0  0  0  0  0  0  0  0  0
    0.4422   14.6020   -8.3475 H   0  0  0  0  0  0  0  0  0  0  0  0
    0.7073   16.2547   -7.6502 H   0  0  0  0  0  0  0  0  0  0  0  0
    2.9841   15.4756   -8.5389 H   0  0  0  0  0  0  0  0  0  0  0  0
   -0.0706   14.4157  -10.0702 H   0  0  0  0  0  0  0  0  0  0  0  0
   -0.1397   15.3956  -11.5741 H   0  0  0  0  0  0  0  0  0  0  0  0
    0.7017   13.8086  -11.5741 H   0  0  0  0  0  0  0  0  0  0  0  0
    3.8338   15.2428  -11.0545 H   0  0  0  0  0  0  0  0  0  0  0  0
    2.7441   14.4166  -12.2193 H   0  0  0  0  0  0  0  0  0  0  0  0
    2.8659   16.2088  -12.2193 H   0  0  0  0  0  0  0  0  0  0  0  0
   -0.0844   14.9228   -5.3877 H   0  0  0  0  0  0  0  0  0  0  0  0
   -1.4331   13.0790   -4.6061 H   0  0  0  0  0  0  0  0  0  0  0  0
   -0.0206   12.0128   -4.4463 H   0  0  0  0  0  0  0  0  0  0  0  0
   -1.3879   13.2937   -2.2889 H   0  0  0  0  0  0  0  0  0  0  0  0
    0.2090   12.5622   -2.1513 H   0  0  0  0  0  0  0  0  0  0  0  0
   -1.3735   16.0527   -1.9321 H   0  0  0  0  0  0  0  0  0  0  0  0
   -0.5804   16.5638   -3.4606 H   0  0  0  0  0  0  0  0  0  0  0  0
   -1.7197   15.1751   -3.4606 H   0  0  0  0  0  0  0  0  0  0  0  0
    1.6396   14.2218   -1.1186 H   0  0  0  0  0  0  0  0  0  0  0  0
   -0.7583   14.3084   -0.1780 H   0  0  0  0  0  0  0  0  0  0  0  0
    0.6860   14.8046    0.8501 H   0  0  0  0  0  0  0  0  0  0  0  0
   -1.4572   16.3259    1.0368 H   0  0  0  0  0  0  0  0  0  0  0  0
    0.5786   17.8950   -2.0752 H   0  0  0  0  0  0  0  0  0  0  0  0
    2.2498   18.6641    0.3967 H   0  0  0  0  0  0  0  0  0  0  0  0
    2.6224   19.0588   -1.3401 H   0  0  0  0  0  0  0  0  0  0  0  0
    1.6793   20.9942   -0.1214 H   0  0  0  0  0  0  0  0  0  0  0  0
    0.6315   20.4394   -1.4855 H   0  0  0  0  0  0  0  0  0  0  0  0
   -0.7623   20.9354    0.4043 H   0  0  0  0  0  0  0  0  0  0  0  0
    0.9080   19.0370    1.7900 H   0  0  0  0  0  0  0  0  0  0  0  0
   -2.8442   19.5971   -0.9291 H   0  0  0  0  0  0  0  0  0  0  0  0
   -1.2960   19.9071   -1.7856 H   0  0  0  0  0  0  0  0  0  0  0  0
   -2.0079   18.2579   -1.7856 H   0  0  0  0  0  0  0  0  0  0  0  0
   -1.6482   18.7585    2.2046 H   0  0  0  0  0  0  0  0  0  0  0  0
   -2.8862   19.4958    1.1321 H   0  0  0  0  0  0  0  0  0  0  0  0
   -2.6430   17.7160    1.1321 H   0  0  0  0  0  0  0  0  0  0  0  0
    2.3909   16.3074    0.8280 H   0  0  0  0  0  0  0  0  0  0  0  0
    3.3996   15.2700   -0.2365 H   0  0  0  0  0  0  0  0  0  0  0  0
    3.6319   17.0512   -0.2365 H   0  0  0  0  0  0  0  0  0  0  0  0
    2.9034   17.5727   -2.7595 H   0  0  0  0  0  0  0  0  0  0  0  0
    3.5021   15.8358   -2.5176 H   0  0  0  0  0  0  0  0  0  0  0  0
    1.1315   16.7620   -4.1639 H   0  0  0  0  0  0  0  0  0  0  0  0
    2.6706   16.0023   -4.7300 H   0  0  0  0  0  0  0  0  0  0  0  0
    2.6300   13.5327   -2.3771 H   0  0  0  0  0  0  0  0  0  0  0  0
    2.2501   12.6756   -3.9093 H   0  0  0  0  0  0  0  0  0  0  0  0
    3.4187   14.0398   -3.9093 H   0  0  0  0  0  0  0  0  0  0  0  0
  1  2  1  0
  2  3  1  0
  3  4  1  0
  4  5  1  0
  5  6  1  0
  6  7  1  0
  7  8  1  0
  7  9  1  0
  2 10  1  0
 10 11  1  0
 11 12  1  0
 12 13  1  0
 13 14  1  6
 13 15  1  0
 15 16  1  0
 16 17  1  0
 17 18  2  0
 18 19  1  0
 19 20  1  0
 20 21  1  0
 21 22  1  0
 22 23  1  0
 22 24  1  0
 24 25  1  0
 24 26  1  0
 19 27  1  0
 27 28  1  1
 27 29  1  0
 29 30  1  0
 30 31  1  0
 31 32  1  1
  7  5  1  0
 31 10  1  0
 31 13  1  0
 27 15  1  0
 24 18  1  0
  1 33  1  0
  1 34  1  0
  1 35  1  0
  2 36  1  6
  3 37  1  0
  3 38  1  0
  4 39  1  0
  4 40  1  0
  5 41  1  1
  8 42  1  0
  8 43  1  0
  8 44  1  0
  9 45  1  0
  9 46  1  0
  9 47  1  0
 10 48  1  6
 11 49  1  0
 11 50  1  0
 12 51  1  0
 12 52  1  0
 14 53  1  0
 14 54  1  0
 14 55  1  0
 15 56  1  1
 16 57  1  0
 16 58  1  0
 17 59  1  0
 19 60  1  6
 20 61  1  0
 20 62  1  0
 21 63  1  0
 21 64  1  0
 22 65  1  1
 23 66  1  0
 25 67  1  0
 25 68  1  0
 25 69  1  0
 26 70  1  0
 26 71  1  0
 26 72  1  0
 28 73  1  0
 28 74  1  0
 28 75  1  0
 29 76  1  0
 29 77  1  0
 30 78  1  0
 30 79  1  0
 32 80  1  0
 32 81  1  0
 32 82  1  0
M  END
>  <meeko>  (9) 
{"is_sidechain": [false], "intermolecular_energy": 2.731, "internal_energy": -0.839}

$$$$
EPH_relaxed_0001_pdb2pqr_Repair_189_r2_0001_out
     RDKit          3D

 82 86  0  0  0  0  0  0  0  0999 V2000
    2.3210   14.0660   -6.6440 C   0  0  0  0  0  0  0  0  0  0  0  0
    0.8640   14.5360   -6.6000 C   0  0  2  0  0  0  0  0  0  0  0  0
    0.4080   15.1380   -7.9440 C   0  0  0  0  0  0  0  0  0  0  0  0
    1.3570   16.2060   -8.4940 C   0  0  0  0  0  0  0  0  0  0  0  0
    1.4050   16.1870   -9.9920 C   0  0  2  0  0  0  0  0  0  0  0  0
    0.8290   15.0200  -10.5950 O   0  0  0  0  0  0  0  0  0  0  0  0
    2.2400   15.2030  -10.7910 C   0  0  0  0  0  0  0  0  0  0  0  0
    3.0870   14.1710  -10.1150 C   0  0  0  0  0  0  0  0  0  0  0  0
    2.6130   15.5570  -12.1960 C   0  0  0  0  0  0  0  0  0  0  0  0
    0.6800   15.5560   -5.4830 C   0  0  1  0  0  0  0  0  0  0  0  0
   -0.7660   16.1150   -5.4160 C   0  0  0  0  0  0  0  0  0  0  0  0
   -1.0840   16.3560   -3.9180 C   0  0  0  0  0  0  0  0  0  0  0  0
    0.2850   16.2460   -3.2070 C   0  0  1  0  0  0  0  0  0  0  0  0
    0.9580   17.6390   -3.4170 C   0  0  0  0  0  0  0  0  0  0  0  0
    0.2480   15.8450   -1.6960 C   0  0  2  0  0  0  0  0  0  0  0  0
   -0.4770   16.8410   -0.7740 C   0  0  0  0  0  0  0  0  0  0  0  0
    0.3850   17.9060   -0.1810 C   0  0  0  0  0  0  0  0  0  0  0  0
    1.7310   17.8940   -0.1480 C   0  0  0  0  0  0  0  0  0  0  0  0
    2.5210   16.6820   -0.6590 C   0  0  1  0  0  0  0  0  0  0  0  0
    3.6240   16.3130    0.3670 C   0  0  0  0  0  0  0  0  0  0  0  0
    4.5250   17.4960    0.7080 C   0  0  0  0  0  0  0  0  0  0  0  0
    3.7110   18.6590    1.2680 C   0  0  2  0  0  0  0  0  0  0  0  0
    3.1680   18.2750    2.5350 O   0  0  0  0  0  0  0  0  0  0  0  0
    2.5620   19.1130    0.3240 C   0  0  0  0  0  0  0  0  0  0  0  0
    3.1590   19.8070   -0.9260 C   0  0  0  0  0  0  0  0  0  0  0  0
    1.7330   20.1940    1.0670 C   0  0  0  0  0  0  0  0  0  0  0  0
    1.6540   15.4260   -1.1020 C   0  0  1  0  0  0  0  0  0  0  0  0
    1.3630   14.5190    0.1320 C   0  0  0  0  0  0  0  0  0  0  0  0
    2.4920   14.5520   -2.1090 C   0  0  0  0  0  0  0  0  0  0  0  0
    2.3930   14.9240   -3.6010 C   0  0  0  0  0  0  0  0  0  0  0  0
    0.9310   15.0750   -4.0320 C   0  0  2  0  0  0  0  0  0  0  0  0
    0.2330   13.6840   -3.8520 C   0  0  0  0  0  0  0  0  0  0  0  0
    2.6982   13.9443   -5.6179 H   0  0  0  0  0  0  0  0  0  0  0  0
    2.3799   13.1033   -7.1729 H   0  0  0  0  0  0  0  0  0  0  0  0
    2.9314   14.8128   -7.1729 H   0  0  0  0  0  0  0  0  0  0  0  0
    0.2373   13.6536   -6.4037 H   0  0  0  0  0  0  0  0  0  0  0  0
    0.3351   14.3252   -8.6816 H   0  0  0  0  0  0  0  0  0  0  0  0
   -0.5594   15.6297   -7.7641 H   0  0  0  0  0  0  0  0  0  0  0  0
    1.0112   17.1957   -8.1610 H   0  0  0  0  0  0  0  0  0  0  0  0
    2.3679   15.9937   -8.1159 H   0  0  0  0  0  0  0  0  0  0  0  0
    1.3169   17.2827  -10.0318 H   0  0  0  0  0  0  0  0  0  0  0  0
    2.9973   14.2803   -9.0241 H   0  0  0  0  0  0  0  0  0  0  0  0
    2.7489   13.1673  -10.4120 H   0  0  0  0  0  0  0  0  0  0  0  0
    4.1374   14.3069  -10.4120 H   0  0  0  0  0  0  0  0  0  0  0  0
    3.4108   16.3142  -12.1839 H   0  0  0  0  0  0  0  0  0  0  0  0
    2.9695   14.6571  -12.7186 H   0  0  0  0  0  0  0  0  0  0  0  0
    1.7329   15.9600  -12.7186 H   0  0  0  0  0  0  0  0  0  0  0  0
    1.4472   16.2884   -5.7747 H   0  0  0  0  0  0  0  0  0  0  0  0
   -0.8327   17.0605   -5.9742 H   0  0  0  0  0  0  0  0  0  0  0  0
   -1.4827   15.4105   -5.8633 H   0  0  0  0  0  0  0  0  0  0  0  0
   -1.5199   17.3549   -3.7692 H   0  0  0  0  0  0  0  0  0  0  0  0
   -1.8173   15.6360   -3.5257 H   0  0  0  0  0  0  0  0  0  0  0  0
    1.1767   18.0918   -2.4387 H   0  0  0  0  0  0  0  0  0  0  0  0
    1.8944   17.5126   -3.9802 H   0  0  0  0  0  0  0  0  0  0  0  0
    0.2770   18.2941   -3.9802 H   0  0  0  0  0  0  0  0  0  0  0  0
   -0.3766   14.9396   -1.7076 H   0  0  0  0  0  0  0  0  0  0  0  0
   -1.2687   17.3315   -1.3594 H   0  0  0  0  0  0  0  0  0  0  0  0
   -0.8563   16.2504    0.0729 H   0  0  0  0  0  0  0  0  0  0  0  0
   -0.1222   18.7734    0.2666 H   0  0  0  0  0  0  0  0  0  0  0  0
    2.9831   16.9974   -1.6061 H   0  0  0  0  0  0  0  0  0  0  0  0
    3.1424   15.9588    1.2904 H   0  0  0  0  0  0  0  0  0  0  0  0
    4.2539   15.5331   -0.0858 H   0  0  0  0  0  0  0  0  0  0  0  0
    5.2648   17.1803    1.4584 H   0  0  0  0  0  0  0  0  0  0  0  0
    5.0278   17.8304   -0.2115 H   0  0  0  0  0  0  0  0  0  0  0  0
    4.3911   19.5174    1.3711 H   0  0  0  0  0  0  0  0  0  0  0  0
    3.3020   17.3170    2.6330 H   0  0  0  0  0  0  0  0  0  0  0  0
    3.8459   20.6055   -0.6090 H   0  0  0  0  0  0  0  0  0  0  0  0
    3.7083   19.0684   -1.5282 H   0  0  0  0  0  0  0  0  0  0  0  0
    2.3466   20.2398   -1.5282 H   0  0  0  0  0  0  0  0  0  0  0  0
    1.8393   20.0554    2.1530 H   0  0  0  0  0  0  0  0  0  0  0  0
    2.0987   21.1930    0.7873 H   0  0  0  0  0  0  0  0  0  0  0  0
    0.6733   20.0999    0.7873 H   0  0  0  0  0  0  0  0  0  0  0  0
    1.5454   15.0874    1.0560 H   0  0  0  0  0  0  0  0  0  0  0  0
    0.3139   14.1892    0.1054 H   0  0  0  0  0  0  0  0  0  0  0  0
    2.0244   13.6404    0.1054 H   0  0  0  0  0  0  0  0  0  0  0  0
    3.5495   14.6291   -1.8163 H   0  0  0  0  0  0  0  0  0  0  0  0
    2.0659   13.5405   -2.0357 H   0  0  0  0  0  0  0  0  0  0  0  0
    2.9183   15.8755   -3.7703 H   0  0  0  0  0  0  0  0  0  0  0  0
    2.8526   14.1199   -4.1944 H   0  0  0  0  0  0  0  0  0  0  0  0
    0.1231   13.4650   -2.7796 H   0  0  0  0  0  0  0  0  0  0  0  0
   -0.7598   13.7080   -4.3250 H   0  0  0  0  0  0  0  0  0  0  0  0
    0.8457   12.9024   -4.3250 H   0  0  0  0  0  0  0  0  0  0  0  0
  1  2  1  0
  2  3  1  0
  3  4  1  0
  4  5  1  0
  5  6  1  0
  6  7  1  0
  7  8  1  0
  7  9  1  0
  2 10  1  0
 10 11  1  0
 11 12  1  0
 12 13  1  0
 13 14  1  1
 13 15  1  0
 15 16  1  0
 16 17  1  0
 17 18  2  0
 18 19  1  0
 19 20  1  0
 20 21  1  0
 21 22  1  0
 22 23  1  0
 22 24  1  0
 24 25  1  0
 24 26  1  0
 19 27  1  0
 27 28  1  1
 27 29  1  0
 29 30  1  0
 30 31  1  0
 31 32  1  6
  7  5  1  0
 31 10  1  0
 31 13  1  0
 27 15  1  0
 24 18  1  0
  1 33  1  0
  1 34  1  0
  1 35  1  0
  2 36  1  1
  3 37  1  0
  3 38  1  0
  4 39  1  0
  4 40  1  0
  5 41  1  6
  8 42  1  0
  8 43  1  0
  8 44  1  0
  9 45  1  0
  9 46  1  0
  9 47  1  0
 10 48  1  6
 11 49  1  0
 11 50  1  0
 12 51  1  0
 12 52  1  0
 14 53  1  0
 14 54  1  0
 14 55  1  0
 15 56  1  6
 16 57  1  0
 16 58  1  0
 17 59  1  0
 19 60  1  6
 20 61  1  0
 20 62  1  0
 21 63  1  0
 21 64  1  0
 22 65  1  1
 23 66  1  0
 25 67  1  0
 25 68  1  0
 25 69  1  0
 26 70  1  0
 26 71  1  0
 26 72  1  0
 28 73  1  0
 28 74  1  0
 28 75  1  0
 29 76  1  0
 29 77  1  0
 30 78  1  0
 30 79  1  0
 32 80  1  0
 32 81  1  0
 32 82  1  0
M  END
>  <meeko>  (10) 
{"is_sidechain": [false], "intermolecular_energy": 2.731, "internal_energy": -0.839}

$$$$
EPH_relaxed_0001_pdb2pqr_Repair_189_r2_0001_out
     RDKit          3D

 82 86  0  0  0  0  0  0  0  0999 V2000
    5.9510   18.6270    0.2150 C   0  0  0  0  0  0  0  0  0  0  0  0
    4.4520   18.5720    0.5240 C   0  0  2  0  0  0  0  0  0  0  0  0
    4.1670   18.6630    2.0360 C   0  0  0  0  0  0  0  0  0  0  0  0
    4.7210   19.9310    2.6920 C   0  0  0  0  0  0  0  0  0  0  0  0
    5.8160   19.6180    3.6660 C   0  0  2  0  0  0  0  0  0  0  0  0
    5.7930   18.2810    4.1840 O   0  0  0  0  0  0  0  0  0  0  0  0
    5.5720   19.3340    5.1370 C   0  0  0  0  0  0  0  0  0  0  0  0
    4.1920   19.3510    5.7160 C   0  0  0  0  0  0  0  0  0  0  0  0
    6.7030   19.5230    6.0990 C   0  0  0  0  0  0  0  0  0  0  0  0
    3.8510   17.2920   -0.0440 C   0  0  1  0  0  0  0  0  0  0  0  0
    3.3120   16.3440    1.0610 C   0  0  0  0  0  0  0  0  0  0  0  0
    2.0550   15.6470    0.4780 C   0  0  0  0  0  0  0  0  0  0  0  0
    2.1040   15.9580   -1.0360 C   0  0  1  0  0  0  0  0  0  0  0  0
    3.1080   14.9200   -1.6270 C   0  0  0  0  0  0  0  0  0  0  0  0
    0.7350   15.9310   -1.7910 C   0  0  2  0  0  0  0  0  0  0  0  0
    0.0210   14.5680   -1.8000 C   0  0  0  0  0  0  0  0  0  0  0  0
    0.3550   13.6810   -2.9530 C   0  0  0  0  0  0  0  0  0  0  0  0
    0.9690   14.0690   -4.0860 C   0  0  0  0  0  0  0  0  0  0  0  0
    1.3070   15.5450   -4.3340 C   0  0  1  0  0  0  0  0  0  0  0  0
    0.8810   15.9400   -5.7720 C   0  0  0  0  0  0  0  0  0  0  0  0
    1.4780   15.0190   -6.8320 C   0  0  0  0  0  0  0  0  0  0  0  0
    1.0720   13.5680   -6.5860 C   0  0  2  0  0  0  0  0  0  0  0  0
   -0.3390   13.4430   -6.7890 O   0  0  0  0  0  0  0  0  0  0  0  0
    1.4420   13.0620   -5.1630 C   0  0  0  0  0  0  0  0  0  0  0  0
    2.9790   12.9120   -5.0480 C   0  0  0  0  0  0  0  0  0  0  0  0
    0.8520   11.6350   -4.9970 C   0  0  0  0  0  0  0  0  0  0  0  0
    0.7800   16.5690   -3.2390 C   0  0  1  0  0  0  0  0  0  0  0  0
   -0.6770   17.0080   -3.5780 C   0  0  0  0  0  0  0  0  0  0  0  0
    1.6600   17.8740   -3.2900 C   0  0  0  0  0  0  0  0  0  0  0  0
    2.9380   17.8850   -2.4300 C   0  0  0  0  0  0  0  0  0  0  0  0
    2.6370   17.4370   -0.9960 C   0  0  2  0  0  0  0  0  0  0  0  0
    1.6460   18.4750   -0.3680 C   0  0  0  0  0  0  0  0  0  0  0  0
    6.5190   18.6478    1.1568 H   0  0  0  0  0  0  0  0  0  0  0  0
    6.2383   17.7388   -0.3669 H   0  0  0  0  0  0  0  0  0  0  0  0
    6.1724   19.5339   -0.3669 H   0  0  0  0  0  0  0  0  0  0  0  0
    3.9835   19.4457    0.0473 H   0  0  0  0  0  0  0  0  0  0  0  0
    3.0774   18.6422    2.1858 H   0  0  0  0  0  0  0  0  0  0  0  0
    4.6724   17.8088    2.5102 H   0  0  0  0  0  0  0  0  0  0  0  0
    5.1190   20.5929    1.9087 H   0  0  0  0  0  0  0  0  0  0  0  0
    3.9023   20.4186    3.2415 H   0  0  0  0  0  0  0  0  0  0  0  0
    6.5023   20.3066    3.1515 H   0  0  0  0  0  0  0  0  0  0  0  0
    4.2551   19.3502    6.8142 H   0  0  0  0  0  0  0  0  0  0  0  0
    3.6644   20.2557    5.3797 H   0  0  0  0  0  0  0  0  0  0  0  0
    3.6423   18.4596    5.3797 H   0  0  0  0  0  0  0  0  0  0  0  0
    6.3226   19.4594    7.1292 H   0  0  0  0  0  0  0  0  0  0  0  0
    7.4568   18.7384    5.9374 H   0  0  0  0  0  0  0  0  0  0  0  0
    7.1607   20.5101    5.9374 H   0  0  0  0  0  0  0  0  0  0  0  0
    4.7206   16.9106   -0.5993 H   0  0  0  0  0  0  0  0  0  0  0  0
    4.0739   15.5947    1.3221 H   0  0  0  0  0  0  0  0  0  0  0  0
    3.0653   16.9032    1.9756 H   0  0  0  0  0  0  0  0  0  0  0  0
    2.0962   14.5618    0.6531 H   0  0  0  0  0  0  0  0  0  0  0  0
    1.1256   16.0021    0.9471 H   0  0  0  0  0  0  0  0  0  0  0  0
    3.6170   14.3937   -0.8061 H   0  0  0  0  0  0  0  0  0  0  0  0
    2.5618   14.1928   -2.2458 H   0  0  0  0  0  0  0  0  0  0  0  0
    3.8530   15.4417   -2.2458 H   0  0  0  0  0  0  0  0  0  0  0  0
    0.1112   16.5910   -1.1703 H   0  0  0  0  0  0  0  0  0  0  0  0
    0.2892   14.0377   -0.8743 H   0  0  0  0  0  0  0  0  0  0  0  0
   -1.0534   14.7878   -1.8863 H   0  0  0  0  0  0  0  0  0  0  0  0
    0.0756   12.6203   -2.8696 H   0  0  0  0  0  0  0  0  0  0  0  0
    2.3992   15.6281   -4.2329 H   0  0  0  0  0  0  0  0  0  0  0  0
   -0.2158   15.8924   -5.8406 H   0  0  0  0  0  0  0  0  0  0  0  0
    1.2545   16.9567   -5.9639 H   0  0  0  0  0  0  0  0  0  0  0  0
    1.1177   15.3304   -7.8236 H   0  0  0  0  0  0  0  0  0  0  0  0
    2.5745   15.0900   -6.7812 H   0  0  0  0  0  0  0  0  0  0  0  0
    1.6322   12.9433   -7.2973 H   0  0  0  0  0  0  0  0  0  0  0  0
   -0.6620   12.7490   -6.1900 H   0  0  0  0  0  0  0  0  0  0  0  0
    3.2663   12.8840   -3.9865 H   0  0  0  0  0  0  0  0  0  0  0  0
    3.2940   11.9788   -5.5379 H   0  0  0  0  0  0  0  0  0  0  0  0
    3.4685   13.7666   -5.5379 H   0  0  0  0  0  0  0  0  0  0  0  0
    0.7551   11.4005   -3.9267 H   0  0  0  0  0  0  0  0  0  0  0  0
   -0.1385   11.5900   -5.4734 H   0  0  0  0  0  0  0  0  0  0  0  0
    1.5215   10.9037   -5.4734 H   0  0  0  0  0  0  0  0  0  0  0  0
   -1.2356   17.1763   -2.6455 H   0  0  0  0  0  0  0  0  0  0  0  0
   -0.6526   17.9387   -4.1639 H   0  0  0  0  0  0  0  0  0  0  0  0
   -1.1708   16.2188   -4.1639 H   0  0  0  0  0  0  0  0  0  0  0  0
    1.9617   18.0311   -4.3361 H   0  0  0  0  0  0  0  0  0  0  0  0
    1.0236   18.6665   -2.8693 H   0  0  0  0  0  0  0  0  0  0  0  0
    3.6762   17.2006   -2.8735 H   0  0  0  0  0  0  0  0  0  0  0  0
    3.3332   18.9112   -2.4016 H   0  0  0  0  0  0  0  0  0  0  0  0
    1.7011   18.4172    0.7291 H   0  0  0  0  0  0  0  0  0  0  0  0
    1.9201   19.4885   -0.6961 H   0  0  0  0  0  0  0  0  0  0  0  0
    0.6209   18.2481   -0.6961 H   0  0  0  0  0  0  0  0  0  0  0  0
  1  2  1  0
  2  3  1  0
  3  4  1  0
  4  5  1  0
  5  6  1  0
  6  7  1  0
  7  8  1  0
  7  9  1  0
  2 10  1  0
 10 11  1  0
 11 12  1  0
 12 13  1  0
 13 14  1  6
 13 15  1  0
 15 16  1  0
 16 17  1  0
 17 18  2  0
 18 19  1  0
 19 20  1  0
 20 21  1  0
 21 22  1  0
 22 23  1  0
 22 24  1  0
 24 25  1  0
 24 26  1  0
 19 27  1  0
 27 28  1  6
 27 29  1  0
 29 30  1  0
 30 31  1  0
 31 32  1  1
  7  5  1  0
 31 10  1  0
 31 13  1  0
 27 15  1  0
 24 18  1  0
  1 33  1  0
  1 34  1  0
  1 35  1  0
  2 36  1  6
  3 37  1  0
  3 38  1  0
  4 39  1  0
  4 40  1  0
  5 41  1  1
  8 42  1  0
  8 43  1  0
  8 44  1  0
  9 45  1  0
  9 46  1  0
  9 47  1  0
 10 48  1  6
 11 49  1  0
 11 50  1  0
 12 51  1  0
 12 52  1  0
 14 53  1  0
 14 54  1  0
 14 55  1  0
 15 56  1  1
 16 57  1  0
 16 58  1  0
 17 59  1  0
 19 60  1  6
 20 61  1  0
 20 62  1  0
 21 63  1  0
 21 64  1  0
 22 65  1  6
 23 66  1  0
 25 67  1  0
 25 68  1  0
 25 69  1  0
 26 70  1  0
 26 71  1  0
 26 72  1  0
 28 73  1  0
 28 74  1  0
 28 75  1  0
 29 76  1  0
 29 77  1  0
 30 78  1  0
 30 79  1  0
 32 80  1  0
 32 81  1  0
 32 82  1  0
M  END
>  <meeko>  (11) 
{"is_sidechain": [false], "intermolecular_energy": 2.731, "internal_energy": -0.839}

$$$$
EPH_relaxed_0001_pdb2pqr_Repair_189_r2_0001_out
     RDKit          3D

 82 86  0  0  0  0  0  0  0  0999 V2000
   -4.6560    5.7660   -0.3770 C   0  0  0  0  0  0  0  0  0  0  0  0
   -5.4810    5.9460   -1.6540 C   0  0  2  0  0  0  0  0  0  0  0  0
   -4.6160    6.4050   -2.8440 C   0  0  0  0  0  0  0  0  0  0  0  0
   -3.1770    6.7610   -2.4580 C   0  0  0  0  0  0  0  0  0  0  0  0
   -3.0590    8.1890   -2.0170 C   0  0  2  0  0  0  0  0  0  0  0  0
   -1.9910    8.9200   -2.6340 O   0  0  0  0  0  0  0  0  0  0  0  0
   -1.8870    8.7220   -1.2150 C   0  0  0  0  0  0  0  0  0  0  0  0
   -0.7530    7.8350   -0.8050 C   0  0  0  0  0  0  0  0  0  0  0  0
   -2.0770    9.9740   -0.4160 C   0  0  0  0  0  0  0  0  0  0  0  0
   -6.6050    6.9460   -1.4100 C   0  0  1  0  0  0  0  0  0  0  0  0
   -6.2700    8.3640   -1.9460 C   0  0  0  0  0  0  0  0  0  0  0  0
   -7.5990    8.9730   -2.4610 C   0  0  0  0  0  0  0  0  0  0  0  0
   -8.6980    8.0360   -1.9080 C   0  0  1  0  0  0  0  0  0  0  0  0
   -8.9120    8.4960   -0.4320 C   0  0  0  0  0  0  0  0  0  0  0  0
  -10.0430    8.0040   -2.7040 C   0  0  2  0  0  0  0  0  0  0  0  0
  -10.8040    9.3410   -2.7540 C   0  0  0  0  0  0  0  0  0  0  0  0
  -11.7860    9.5580   -1.6510 C   0  0  0  0  0  0  0  0  0  0  0  0
  -12.2560    8.6050   -0.8240 C   0  0  0  0  0  0  0  0  0  0  0  0
  -11.8720    7.1330   -1.0180 C   0  0  1  0  0  0  0  0  0  0  0  0
  -13.1420    6.2490   -0.9180 C   0  0  0  0  0  0  0  0  0  0  0  0
  -13.9180    6.4830    0.3740 C   0  0  0  0  0  0  0  0  0  0  0  0
  -14.3330    7.9460    0.5030 C   0  0  2  0  0  0  0  0  0  0  0  0
  -15.2870    8.2470   -0.5200 O   0  0  0  0  0  0  0  0  0  0  0  0
  -13.1360    8.9330    0.4080 C   0  0  0  0  0  0  0  0  0  0  0  0
  -12.2590    8.8120    1.6780 C   0  0  0  0  0  0  0  0  0  0  0  0
  -13.7060   10.3770    0.4100 C   0  0  0  0  0  0  0  0  0  0  0  0
  -11.0020    6.8080   -2.3080 C   0  0  1  0  0  0  0  0  0  0  0  0
  -11.9360    6.5630   -3.5320 C   0  0  0  0  0  0  0  0  0  0  0  0
  -10.2160    5.4640   -2.0730 C   0  0  0  0  0  0  0  0  0  0  0  0
   -8.8400    5.5740   -1.3900 C   0  0  0  0  0  0  0  0  0  0  0  0
   -7.9780    6.6470   -2.0630 C   0  0  2  0  0  0  0  0  0  0  0  0
   -7.7270    6.2000   -3.5430 C   0  0  0  0  0  0  0  0  0  0  0  0
   -5.3036    5.9073    0.5009 H   0  0  0  0  0  0  0  0  0  0  0  0
   -4.2273    4.7532   -0.3572 H   0  0  0  0  0  0  0  0  0  0  0  0
   -3.8444    6.5082   -0.3572 H   0  0  0  0  0  0  0  0  0  0  0  0
   -5.9062    4.9655   -1.9143 H   0  0  0  0  0  0  0  0  0  0  0  0
   -4.5859    5.5928   -3.5852 H   0  0  0  0  0  0  0  0  0  0  0  0
   -5.0777    7.3203   -3.2429 H   0  0  0  0  0  0  0  0  0  0  0  0
   -2.8562    6.1058   -1.6347 H   0  0  0  0  0  0  0  0  0  0  0  0
   -2.5396    6.6215   -3.3436 H   0  0  0  0  0  0  0  0  0  0  0  0
   -4.1468    8.2580   -1.8690 H   0  0  0  0  0  0  0  0  0  0  0  0
   -0.6990    7.7927    0.2929 H   0  0  0  0  0  0  0  0  0  0  0  0
   -0.9167    6.8228   -1.2033 H   0  0  0  0  0  0  0  0  0  0  0  0
    0.1900    8.2377   -1.2033 H   0  0  0  0  0  0  0  0  0  0  0  0
   -2.0405    9.7334    0.6568 H   0  0  0  0  0  0  0  0  0  0  0  0
   -1.2771   10.6889   -0.6589 H   0  0  0  0  0  0  0  0  0  0  0  0
   -3.0530   10.4194   -0.6589 H   0  0  0  0  0  0  0  0  0  0  0  0
   -6.6843    6.8701   -0.3155 H   0  0  0  0  0  0  0  0  0  0  0  0
   -5.8560    8.9860   -1.1387 H   0  0  0  0  0  0  0  0  0  0  0  0
   -5.5203    8.3155   -2.7495 H   0  0  0  0  0  0  0  0  0  0  0  0
   -7.7317    9.9956   -2.0779 H   0  0  0  0  0  0  0  0  0  0  0  0
   -7.6267    9.0461   -3.5582 H   0  0  0  0  0  0  0  0  0  0  0  0
   -8.5486    7.7148    0.2519 H   0  0  0  0  0  0  0  0  0  0  0  0
   -8.3548    9.4275   -0.2538 H   0  0  0  0  0  0  0  0  0  0  0  0
   -9.9835    8.6699   -0.2538 H   0  0  0  0  0  0  0  0  0  0  0  0
   -9.7036    7.8147   -3.7331 H   0  0  0  0  0  0  0  0  0  0  0  0
  -10.0646   10.1545   -2.7155 H   0  0  0  0  0  0  0  0  0  0  0  0
  -11.3908    9.3222   -3.6842 H   0  0  0  0  0  0  0  0  0  0  0  0
  -12.1569   10.5827   -1.5012 H   0  0  0  0  0  0  0  0  0  0  0  0
  -11.1816    6.8880   -0.1974 H   0  0  0  0  0  0  0  0  0  0  0  0
  -13.7989    6.4780   -1.7701 H   0  0  0  0  0  0  0  0  0  0  0  0
  -12.8183    5.1977   -0.9270 H   0  0  0  0  0  0  0  0  0  0  0  0
  -14.8190    5.8519    0.3722 H   0  0  0  0  0  0  0  0  0  0  0  0
  -13.2699    6.2253    1.2247 H   0  0  0  0  0  0  0  0  0  0  0  0
  -14.7695    8.0777    1.5041 H   0  0  0  0  0  0  0  0  0  0  0  0
  -15.2200    7.5530   -1.1970 H   0  0  0  0  0  0  0  0  0  0  0  0
  -12.8941    8.8996    2.5719 H   0  0  0  0  0  0  0  0  0  0  0  0
  -11.7526    7.8355    1.6823 H   0  0  0  0  0  0  0  0  0  0  0  0
  -11.5071    9.6149    1.6823 H   0  0  0  0  0  0  0  0  0  0  0  0
  -13.8401   10.7168    1.4476 H   0  0  0  0  0  0  0  0  0  0  0  0
  -13.0055   11.0484   -0.1081 H   0  0  0  0  0  0  0  0  0  0  0  0
  -14.6763   10.3889   -0.1081 H   0  0  0  0  0  0  0  0  0  0  0  0
  -12.9432    6.2988   -3.1775 H   0  0  0  0  0  0  0  0  0  0  0  0
  -11.9898    7.4774   -4.1410 H   0  0  0  0  0  0  0  0  0  0  0  0
  -11.5340    5.7399   -4.1410 H   0  0  0  0  0  0  0  0  0  0  0  0
  -10.8467    4.8147   -1.4480 H   0  0  0  0  0  0  0  0  0  0  0  0
  -10.0069    5.0733   -3.0798 H   0  0  0  0  0  0  0  0  0  0  0  0
   -8.9835    5.8390   -0.3321 H   0  0  0  0  0  0  0  0  0  0  0  0
   -8.3263    4.6053   -1.4780 H   0  0  0  0  0  0  0  0  0  0  0  0
   -7.1884    5.2409   -3.5500 H   0  0  0  0  0  0  0  0  0  0  0  0
   -8.6913    6.0828   -4.0592 H   0  0  0  0  0  0  0  0  0  0  0  0
   -7.1250    6.9623   -4.0592 H   0  0  0  0  0  0  0  0  0  0  0  0
  1  2  1  0
  2  3  1  0
  3  4  1  0
  4  5  1  0
  5  6  1  0
  6  7  1  0
  7  8  1  0
  7  9  1  0
  2 10  1  0
 10 11  1  0
 11 12  1  0
 12 13  1  0
 13 14  1  1
 13 15  1  0
 15 16  1  0
 16 17  1  0
 17 18  2  0
 18 19  1  0
 19 20  1  0
 20 21  1  0
 21 22  1  0
 22 23  1  0
 22 24  1  0
 24 25  1  0
 24 26  1  0
 19 27  1  0
 27 28  1  6
 27 29  1  0
 29 30  1  0
 30 31  1  0
 31 32  1  6
  7  5  1  0
 31 10  1  0
 31 13  1  0
 27 15  1  0
 24 18  1  0
  1 33  1  0
  1 34  1  0
  1 35  1  0
  2 36  1  6
  3 37  1  0
  3 38  1  0
  4 39  1  0
  4 40  1  0
  5 41  1  1
  8 42  1  0
  8 43  1  0
  8 44  1  0
  9 45  1  0
  9 46  1  0
  9 47  1  0
 10 48  1  1
 11 49  1  0
 11 50  1  0
 12 51  1  0
 12 52  1  0
 14 53  1  0
 14 54  1  0
 14 55  1  0
 15 56  1  6
 16 57  1  0
 16 58  1  0
 17 59  1  0
 19 60  1  1
 20 61  1  0
 20 62  1  0
 21 63  1  0
 21 64  1  0
 22 65  1  1
 23 66  1  0
 25 67  1  0
 25 68  1  0
 25 69  1  0
 26 70  1  0
 26 71  1  0
 26 72  1  0
 28 73  1  0
 28 74  1  0
 28 75  1  0
 29 76  1  0
 29 77  1  0
 30 78  1  0
 30 79  1  0
 32 80  1  0
 32 81  1  0
 32 82  1  0
M  END
>  <meeko>  (12) 
{"is_sidechain": [false], "intermolecular_energy": 2.731, "internal_energy": -0.839}

$$$$
EPH_relaxed_0001_pdb2pqr_Repair_189_r2_0001_out
     RDKit          3D

 82 86  0  0  0  0  0  0  0  0999 V2000
  -14.6010    6.9940   -1.2840 C   0  0  0  0  0  0  0  0  0  0  0  0
  -13.3710    7.2200   -0.4000 C   0  0  2  0  0  0  0  0  0  0  0  0
  -13.1500    8.7120   -0.0830 C   0  0  0  0  0  0  0  0  0  0  0  0
  -14.3990    9.5750   -0.2830 C   0  0  0  0  0  0  0  0  0  0  0  0
  -14.1050   10.7940   -1.1040 C   0  0  2  0  0  0  0  0  0  0  0  0
  -15.2600   11.5590   -1.4740 O   0  0  0  0  0  0  0  0  0  0  0  0
  -14.5310   10.9490   -2.5520 C   0  0  0  0  0  0  0  0  0  0  0  0
  -15.2860    9.8700   -3.2630 C   0  0  0  0  0  0  0  0  0  0  0  0
  -13.7960   11.9280   -3.4130 C   0  0  0  0  0  0  0  0  0  0  0  0
  -12.1330    6.6420   -1.0760 C   0  0  1  0  0  0  0  0  0  0  0  0
  -12.4620    5.9170   -2.4080 C   0  0  0  0  0  0  0  0  0  0  0  0
  -11.2660    6.1700   -3.3620 C   0  0  0  0  0  0  0  0  0  0  0  0
  -10.1540    6.7410   -2.4510 C   0  0  1  0  0  0  0  0  0  0  0  0
   -9.5110    5.4910   -1.7720 C   0  0  0  0  0  0  0  0  0  0  0  0
   -9.0800    7.6360   -3.1500 C   0  0  2  0  0  0  0  0  0  0  0  0
   -8.2360    6.9250   -4.2230 C   0  0  0  0  0  0  0  0  0  0  0  0
   -6.9790    6.2900   -3.7280 C   0  0  0  0  0  0  0  0  0  0  0  0
   -6.3980    6.5280   -2.5380 C   0  0  0  0  0  0  0  0  0  0  0  0
   -6.9600    7.5930   -1.5870 C   0  0  1  0  0  0  0  0  0  0  0  0
   -5.7990    8.4720   -1.0500 C   0  0  0  0  0  0  0  0  0  0  0  0
   -4.6880    7.6460   -0.4100 C   0  0  0  0  0  0  0  0  0  0  0  0
   -4.1150    6.6390   -1.4040 C   0  0  2  0  0  0  0  0  0  0  0  0
   -3.4450    7.3510   -2.4480 O   0  0  0  0  0  0  0  0  0  0  0  0
   -5.1940    5.7040   -2.0190 C   0  0  0  0  0  0  0  0  0  0  0  0
   -5.7080    4.7210   -0.9380 C   0  0  0  0  0  0  0  0  0  0  0  0
   -4.5090    4.8340   -3.1070 C   0  0  0  0  0  0  0  0  0  0  0  0
   -8.1690    8.4570   -2.1500 C   0  0  1  0  0  0  0  0  0  0  0  0
   -7.6240    9.6810   -2.9470 C   0  0  0  0  0  0  0  0  0  0  0  0
   -8.9880    9.0440   -0.9400 C   0  0  0  0  0  0  0  0  0  0  0  0
  -10.1150    8.1620   -0.3700 C   0  0  0  0  0  0  0  0  0  0  0  0
  -11.0190    7.6360   -1.4900 C   0  0  2  0  0  0  0  0  0  0  0  0
  -11.6980    8.8700   -2.1770 C   0  0  0  0  0  0  0  0  0  0  0  0
  -15.4843    6.8317   -0.6488 H   0  0  0  0  0  0  0  0  0  0  0  0
  -14.7634    7.8773   -1.9191 H   0  0  0  0  0  0  0  0  0  0  0  0
  -14.4388    6.1106   -1.9191 H   0  0  0  0  0  0  0  0  0  0  0  0
  -13.5495    6.7032    0.5545 H   0  0  0  0  0  0  0  0  0  0  0  0
  -12.8309    8.8007    0.9659 H   0  0  0  0  0  0  0  0  0  0  0  0
  -12.3884    9.0807   -0.7858 H   0  0  0  0  0  0  0  0  0  0  0  0
  -15.1672    8.9770   -0.7952 H   0  0  0  0  0  0  0  0  0  0  0  0
  -14.7502    9.9043    0.7061 H   0  0  0  0  0  0  0  0  0  0  0  0
  -13.1357   10.9283   -0.6017 H   0  0  0  0  0  0  0  0  0  0  0  0
  -15.7534    9.2020   -2.5246 H   0  0  0  0  0  0  0  0  0  0  0  0
  -16.0656   10.3224   -3.8935 H   0  0  0  0  0  0  0  0  0  0  0  0
  -14.5939    9.2926   -3.8935 H   0  0  0  0  0  0  0  0  0  0  0  0
  -13.2577   12.6450   -2.7756 H   0  0  0  0  0  0  0  0  0  0  0  0
  -13.0768   11.3900   -4.0481 H   0  0  0  0  0  0  0  0  0  0  0  0
  -14.5133   12.4685   -4.0481 H   0  0  0  0  0  0  0  0  0  0  0  0
  -11.7721    5.9872   -0.2692 H   0  0  0  0  0  0  0  0  0  0  0  0
  -12.5845    4.8381   -2.2319 H   0  0  0  0  0  0  0  0  0  0  0  0
  -13.3999    6.2940   -2.8418 H   0  0  0  0  0  0  0  0  0  0  0  0
  -10.9388    5.2308   -3.8320 H   0  0  0  0  0  0  0  0  0  0  0  0
  -11.5250    6.8546   -4.1831 H   0  0  0  0  0  0  0  0  0  0  0  0
   -9.5663    5.5985   -0.6787 H   0  0  0  0  0  0  0  0  0  0  0  0
  -10.0555    4.5860   -2.0794 H   0  0  0  0  0  0  0  0  0  0  0  0
   -8.4581    5.4077   -2.0794 H   0  0  0  0  0  0  0  0  0  0  0  0
   -9.6990    8.3666   -3.6913 H   0  0  0  0  0  0  0  0  0  0  0  0
   -8.8570    6.1396   -4.6787 H   0  0  0  0  0  0  0  0  0  0  0  0
   -7.9237    7.7062   -4.9316 H   0  0  0  0  0  0  0  0  0  0  0  0
   -6.4856    5.5657   -4.3928 H   0  0  0  0  0  0  0  0  0  0  0  0
   -7.4272    7.0431   -0.7568 H   0  0  0  0  0  0  0  0  0  0  0  0
   -5.3745    9.0454   -1.8872 H   0  0  0  0  0  0  0  0  0  0  0  0
   -6.2122    9.1337   -0.2745 H   0  0  0  0  0  0  0  0  0  0  0  0
   -3.8849    8.3197   -0.0767 H   0  0  0  0  0  0  0  0  0  0  0  0
   -5.1078    7.0955    0.4448 H   0  0  0  0  0  0  0  0  0  0  0  0
   -3.4163    5.9927   -0.8525 H   0  0  0  0  0  0  0  0  0  0  0  0
   -3.4150    8.2890   -2.1930 H   0  0  0  0  0  0  0  0  0  0  0  0
   -5.4943    5.1297    0.0606 H   0  0  0  0  0  0  0  0  0  0  0  0
   -6.7933    4.5838   -1.0535 H   0  0  0  0  0  0  0  0  0  0  0  0
   -5.2015    3.7514   -1.0535 H   0  0  0  0  0  0  0  0  0  0  0  0
   -3.8976    4.0574   -2.6242 H   0  0  0  0  0  0  0  0  0  0  0  0
   -5.2777    4.3584   -3.7339 H   0  0  0  0  0  0  0  0  0  0  0  0
   -3.8664    5.4697   -3.7339 H   0  0  0  0  0  0  0  0  0  0  0  0
   -7.2802   10.4532   -2.2431 H   0  0  0  0  0  0  0  0  0  0  0  0
   -6.7832    9.3614   -3.5801 H   0  0  0  0  0  0  0  0  0  0  0  0
   -8.4241   10.0920   -3.5801 H   0  0  0  0  0  0  0  0  0  0  0  0
   -8.2781    9.2450   -0.1242 H   0  0  0  0  0  0  0  0  0  0  0  0
   -9.4946    9.9344   -1.3408 H   0  0  0  0  0  0  0  0  0  0  0  0
   -9.6698    7.3093    0.1635 H   0  0  0  0  0  0  0  0  0  0  0  0
  -10.7235    8.7698    0.3158 H   0  0  0  0  0  0  0  0  0  0  0  0
  -12.0761    9.5571   -1.4056 H   0  0  0  0  0  0  0  0  0  0  0  0
  -10.9604    9.3925   -2.8038 H   0  0  0  0  0  0  0  0  0  0  0  0
  -12.5342    8.5266   -2.8038 H   0  0  0  0  0  0  0  0  0  0  0  0
  1  2  1  0
  2  3  1  0
  3  4  1  0
  4  5  1  0
  5  6  1  0
  6  7  1  0
  7  8  1  0
  7  9  1  0
  2 10  1  0
 10 11  1  0
 11 12  1  0
 12 13  1  0
 13 14  1  1
 13 15  1  0
 15 16  1  0
 16 17  1  0
 17 18  2  0
 18 19  1  0
 19 20  1  0
 20 21  1  0
 21 22  1  0
 22 23  1  0
 22 24  1  0
 24 25  1  0
 24 26  1  0
 19 27  1  0
 27 28  1  6
 27 29  1  0
 29 30  1  0
 30 31  1  0
 31 32  1  6
  7  5  1  0
 31 10  1  0
 31 13  1  0
 27 15  1  0
 24 18  1  0
  1 33  1  0
  1 34  1  0
  1 35  1  0
  2 36  1  1
  3 37  1  0
  3 38  1  0
  4 39  1  0
  4 40  1  0
  5 41  1  6
  8 42  1  0
  8 43  1  0
  8 44  1  0
  9 45  1  0
  9 46  1  0
  9 47  1  0
 10 48  1  1
 11 49  1  0
 11 50  1  0
 12 51  1  0
 12 52  1  0
 14 53  1  0
 14 54  1  0
 14 55  1  0
 15 56  1  6
 16 57  1  0
 16 58  1  0
 17 59  1  0
 19 60  1  1
 20 61  1  0
 20 62  1  0
 21 63  1  0
 21 64  1  0
 22 65  1  1
 23 66  1  0
 25 67  1  0
 25 68  1  0
 25 69  1  0
 26 70  1  0
 26 71  1  0
 26 72  1  0
 28 73  1  0
 28 74  1  0
 28 75  1  0
 29 76  1  0
 29 77  1  0
 30 78  1  0
 30 79  1  0
 32 80  1  0
 32 81  1  0
 32 82  1  0
M  END
>  <meeko>  (13) 
{"is_sidechain": [false], "intermolecular_energy": 2.731, "internal_energy": -0.839}

$$$$
EPH_relaxed_0001_pdb2pqr_Repair_189_r2_0001_out
     RDKit          3D

 82 86  0  0  0  0  0  0  0  0999 V2000
    0.4630   20.1930   -0.5090 C   0  0  0  0  0  0  0  0  0  0  0  0
    1.5880   19.2510   -0.0710 C   0  0  2  0  0  0  0  0  0  0  0  0
    2.8140   20.0180    0.4630 C   0  0  0  0  0  0  0  0  0  0  0  0
    3.0540   19.8300    1.9630 C   0  0  0  0  0  0  0  0  0  0  0  0
    4.5080   19.6440    2.2730 C   0  0  2  0  0  0  0  0  0  0  0  0
    4.8540   18.3430    2.7670 O   0  0  0  0  0  0  0  0  0  0  0  0
    5.0440   19.4380    3.6780 C   0  0  0  0  0  0  0  0  0  0  0  0
    4.1330   19.4080    4.8640 C   0  0  0  0  0  0  0  0  0  0  0  0
    6.4820   19.7540    3.9480 C   0  0  0  0  0  0  0  0  0  0  0  0
    1.9990   18.3560   -1.2340 C   0  0  1  0  0  0  0  0  0  0  0  0
    3.0600   17.2980   -0.8280 C   0  0  0  0  0  0  0  0  0  0  0  0
    2.7560   16.0210   -1.6540 C   0  0  0  0  0  0  0  0  0  0  0  0
    1.7540   16.4860   -2.7360 C   0  0  1  0  0  0  0  0  0  0  0  0
    2.6360   17.1440   -3.8430 C   0  0  0  0  0  0  0  0  0  0  0  0
    0.8150   15.3840   -3.3260 C   0  0  2  0  0  0  0  0  0  0  0  0
    1.5320   14.2430   -4.0680 C   0  0  0  0  0  0  0  0  0  0  0  0
    1.7310   14.4600   -5.5320 C   0  0  0  0  0  0  0  0  0  0  0  0
    1.1040   15.3900   -6.2770 C   0  0  0  0  0  0  0  0  0  0  0  0
    0.0130   16.2810   -5.6700 C   0  0  1  0  0  0  0  0  0  0  0  0
   -1.2080   16.3290   -6.6250 C   0  0  0  0  0  0  0  0  0  0  0  0
   -0.8280   16.7540   -8.0400 C   0  0  0  0  0  0  0  0  0  0  0  0
    0.2160   15.8100   -8.6310 C   0  0  2  0  0  0  0  0  0  0  0  0
   -0.3800   14.5230   -8.8180 O   0  0  0  0  0  0  0  0  0  0  0  0
    1.4890   15.6740   -7.7500 C   0  0  0  0  0  0  0  0  0  0  0  0
    2.2960   16.9950   -7.7950 C   0  0  0  0  0  0  0  0  0  0  0  0
    2.3970   14.5880   -8.3870 C   0  0  0  0  0  0  0  0  0  0  0  0
   -0.3980   15.9500   -4.1700 C   0  0  1  0  0  0  0  0  0  0  0  0
   -1.5050   14.8520   -4.1520 C   0  0  0  0  0  0  0  0  0  0  0  0
   -1.0350   17.2330   -3.5170 C   0  0  0  0  0  0  0  0  0  0  0  0
   -0.0660   18.2250   -2.8450 C   0  0  0  0  0  0  0  0  0  0  0  0
    0.8930   17.4980   -1.8970 C   0  0  2  0  0  0  0  0  0  0  0  0
    0.0360   16.8440   -0.7600 C   0  0  0  0  0  0  0  0  0  0  0  0
   -0.0338   20.6090    0.3799 H   0  0  0  0  0  0  0  0  0  0  0  0
    0.8839   21.0120   -1.1108 H   0  0  0  0  0  0  0  0  0  0  0  0
   -0.2693   19.6347   -1.1108 H   0  0  0  0  0  0  0  0  0  0  0  0
    1.2005   18.6345    0.7535 H   0  0  0  0  0  0  0  0  0  0  0  0
    3.7053   19.6670   -0.0777 H   0  0  0  0  0  0  0  0  0  0  0  0
    2.6182   21.0883    0.3012 H   0  0  0  0  0  0  0  0  0  0  0  0
    2.6866   20.7188    2.4969 H   0  0  0  0  0  0  0  0  0  0  0  0
    2.5165   18.9260    2.2854 H   0  0  0  0  0  0  0  0  0  0  0  0
    4.7923   20.3388    1.4690 H   0  0  0  0  0  0  0  0  0  0  0  0
    4.7315   19.4277    5.7867 H   0  0  0  0  0  0  0  0  0  0  0  0
    3.4692   20.2848    4.8387 H   0  0  0  0  0  0  0  0  0  0  0  0
    3.5283   18.4895    4.8387 H   0  0  0  0  0  0  0  0  0  0  0  0
    6.6515   19.7913    5.0342 H   0  0  0  0  0  0  0  0  0  0  0  0
    7.1184   18.9743    3.5041 H   0  0  0  0  0  0  0  0  0  0  0  0
    6.7328   20.7287    3.5041 H   0  0  0  0  0  0  0  0  0  0  0  0
    2.3539   19.1221   -1.9391 H   0  0  0  0  0  0  0  0  0  0  0  0
    4.0704   17.6668   -1.0585 H   0  0  0  0  0  0  0  0  0  0  0  0
    3.0180   17.0900    0.2513 H   0  0  0  0  0  0  0  0  0  0  0  0
    3.6741   15.6303   -2.1171 H   0  0  0  0  0  0  0  0  0  0  0  0
    2.3517   15.2085   -1.0325 H   0  0  0  0  0  0  0  0  0  0  0  0
    3.4327   17.7384   -3.3719 H   0  0  0  0  0  0  0  0  0  0  0  0
    3.0855   16.3588   -4.4686 H   0  0  0  0  0  0  0  0  0  0  0  0
    2.0114   17.7985   -4.4686 H   0  0  0  0  0  0  0  0  0  0  0  0
    0.3889   14.9285   -2.4199 H   0  0  0  0  0  0  0  0  0  0  0  0
    2.5214   14.1067   -3.6070 H   0  0  0  0  0  0  0  0  0  0  0  0
    0.8785   13.3629   -3.9769 H   0  0  0  0  0  0  0  0  0  0  0  0
    2.4504   13.8049   -6.0450 H   0  0  0  0  0  0  0  0  0  0  0  0
    0.4555   17.2840   -5.5798 H   0  0  0  0  0  0  0  0  0  0  0  0
   -1.6619   15.3279   -6.6675 H   0  0  0  0  0  0  0  0  0  0  0  0
   -1.9117   17.0764   -6.2297 H   0  0  0  0  0  0  0  0  0  0  0  0
   -1.7268   16.7392   -8.6740 H   0  0  0  0  0  0  0  0  0  0  0  0
   -0.4024   17.7676   -8.0000 H   0  0  0  0  0  0  0  0  0  0  0  0
    0.5435   16.2392   -9.5894 H   0  0  0  0  0  0  0  0  0  0  0  0
    0.3230   13.9090   -9.0900 H   0  0  0  0  0  0  0  0  0  0  0  0
    2.5028   17.3335   -6.7690 H   0  0  0  0  0  0  0  0  0  0  0  0
    3.2457   16.8267   -8.3240 H   0  0  0  0  0  0  0  0  0  0  0  0
    1.7128   17.7631   -8.3240 H   0  0  0  0  0  0  0  0  0  0  0  0
    2.8845   14.0050   -7.5917 H   0  0  0  0  0  0  0  0  0  0  0  0
    1.7860   13.9186   -9.0103 H   0  0  0  0  0  0  0  0  0  0  0  0
    3.1640   15.0708   -9.0103 H   0  0  0  0  0  0  0  0  0  0  0  0
   -1.7568   14.6022   -3.1107 H   0  0  0  0  0  0  0  0  0  0  0  0
   -2.4020   15.2273   -4.6663 H   0  0  0  0  0  0  0  0  0  0  0  0
   -1.1371   13.9519   -4.6663 H   0  0  0  0  0  0  0  0  0  0  0  0
   -1.5725   17.7769   -4.3078 H   0  0  0  0  0  0  0  0  0  0  0  0
   -1.6710   16.8557   -2.7027 H   0  0  0  0  0  0  0  0  0  0  0  0
    0.5178   18.7401   -3.6221 H   0  0  0  0  0  0  0  0  0  0  0  0
   -0.6539   18.9490   -2.2617 H   0  0  0  0  0  0  0  0  0  0  0  0
    0.4337   17.1475    0.2196 H   0  0  0  0  0  0  0  0  0  0  0  0
   -1.0086   17.1767   -0.8507 H   0  0  0  0  0  0  0  0  0  0  0  0
    0.0812   15.7487   -0.8507 H   0  0  0  0  0  0  0  0  0  0  0  0
  1  2  1  0
  2  3  1  0
  3  4  1  0
  4  5  1  0
  5  6  1  0
  6  7  1  0
  7  8  1  0
  7  9  1  0
  2 10  1  0
 10 11  1  0
 11 12  1  0
 12 13  1  0
 13 14  1  6
 13 15  1  0
 15 16  1  0
 16 17  1  0
 17 18  2  0
 18 19  1  0
 19 20  1  0
 20 21  1  0
 21 22  1  0
 22 23  1  0
 22 24  1  0
 24 25  1  0
 24 26  1  0
 19 27  1  0
 27 28  1  6
 27 29  1  0
 29 30  1  0
 30 31  1  0
 31 32  1  1
  7  5  1  0
 31 10  1  0
 31 13  1  0
 27 15  1  0
 24 18  1  0
  1 33  1  0
  1 34  1  0
  1 35  1  0
  2 36  1  1
  3 37  1  0
  3 38  1  0
  4 39  1  0
  4 40  1  0
  5 41  1  6
  8 42  1  0
  8 43  1  0
  8 44  1  0
  9 45  1  0
  9 46  1  0
  9 47  1  0
 10 48  1  6
 11 49  1  0
 11 50  1  0
 12 51  1  0
 12 52  1  0
 14 53  1  0
 14 54  1  0
 14 55  1  0
 15 56  1  1
 16 57  1  0
 16 58  1  0
 17 59  1  0
 19 60  1  1
 20 61  1  0
 20 62  1  0
 21 63  1  0
 21 64  1  0
 22 65  1  6
 23 66  1  0
 25 67  1  0
 25 68  1  0
 25 69  1  0
 26 70  1  0
 26 71  1  0
 26 72  1  0
 28 73  1  0
 28 74  1  0
 28 75  1  0
 29 76  1  0
 29 77  1  0
 30 78  1  0
 30 79  1  0
 32 80  1  0
 32 81  1  0
 32 82  1  0
M  END
>  <meeko>  (14) 
{"is_sidechain": [false], "intermolecular_energy": 2.731, "internal_energy": -0.839}

$$$$
EPH_relaxed_0001_pdb2pqr_Repair_189_r2_0001_out
     RDKit          3D

 82 86  0  0  0  0  0  0  0  0999 V2000
    7.0440   18.9240    1.1980 C   0  0  0  0  0  0  0  0  0  0  0  0
    5.6340   19.5140    1.2860 C   0  0  2  0  0  0  0  0  0  0  0  0
    5.3640   20.1730    2.6540 C   0  0  0  0  0  0  0  0  0  0  0  0
    6.1520   19.5430    3.8060 C   0  0  0  0  0  0  0  0  0  0  0  0
    5.2510   19.1160    4.9250 C   0  0  2  0  0  0  0  0  0  0  0  0
    4.5910   20.1910    5.6060 O   0  0  0  0  0  0  0  0  0  0  0  0
    5.5250   19.4260    6.3850 C   0  0  0  0  0  0  0  0  0  0  0  0
    6.7390   20.1930    6.8050 C   0  0  0  0  0  0  0  0  0  0  0  0
    4.8800   18.5710    7.4310 C   0  0  0  0  0  0  0  0  0  0  0  0
    4.5980   18.4290    1.0180 C   0  0  1  0  0  0  0  0  0  0  0  0
    3.8150   18.0210    2.2950 C   0  0  0  0  0  0  0  0  0  0  0  0
    2.3690   17.6900    1.8460 C   0  0  0  0  0  0  0  0  0  0  0  0
    2.4500   17.5950    0.3050 C   0  0  1  0  0  0  0  0  0  0  0  0
    3.0010   16.1620    0.0200 C   0  0  0  0  0  0  0  0  0  0  0  0
    1.1240   17.8690   -0.4760 C   0  0  2  0  0  0  0  0  0  0  0  0
   -0.0200   16.8810   -0.1870 C   0  0  0  0  0  0  0  0  0  0  0  0
   -0.0710   15.6860   -1.0800 C   0  0  0  0  0  0  0  0  0  0  0  0
    0.5850   15.5540   -2.2480 C   0  0  0  0  0  0  0  0  0  0  0  0
    1.4040   16.7140   -2.8270 C   0  0  1  0  0  0  0  0  0  0  0  0
    1.0750   16.8790   -4.3340 C   0  0  0  0  0  0  0  0  0  0  0  0
    1.2620   15.5840   -5.1190 C   0  0  0  0  0  0  0  0  0  0  0  0
    0.3890   14.4690   -4.5480 C   0  0  2  0  0  0  0  0  0  0  0  0
   -0.9850   14.8000   -4.7720 O   0  0  0  0  0  0  0  0  0  0  0  0
    0.6260   14.2190   -3.0330 C   0  0  0  0  0  0  0  0  0  0  0  0
    2.0180   13.5740   -2.8230 C   0  0  0  0  0  0  0  0  0  0  0  0
   -0.4150   13.1720   -2.5530 C   0  0  0  0  0  0  0  0  0  0  0  0
    1.3200   18.0870   -2.0310 C   0  0  1  0  0  0  0  0  0  0  0  0
    0.0920   18.9130   -2.5230 C   0  0  0  0  0  0  0  0  0  0  0  0
    2.5960   18.9500   -2.3580 C   0  0  0  0  0  0  0  0  0  0  0  0
    3.8370   18.7180   -1.4750 C   0  0  0  0  0  0  0  0  0  0  0  0
    3.4670   18.7580    0.0110 C   0  0  2  0  0  0  0  0  0  0  0  0
    2.9310   20.1940    0.3330 C   0  0  0  0  0  0  0  0  0  0  0  0
    7.4367   18.7597    2.2123 H   0  0  0  0  0  0  0  0  0  0  0  0
    7.0075   17.9657    0.6592 H   0  0  0  0  0  0  0  0  0  0  0  0
    7.7009   19.6227    0.6592 H   0  0  0  0  0  0  0  0  0  0  0  0
    5.5565   20.2994    0.5198 H   0  0  0  0  0  0  0  0  0  0  0  0
    5.6368   21.2365    2.5872 H   0  0  0  0  0  0  0  0  0  0  0  0
    4.2967   20.0271    2.8765 H   0  0  0  0  0  0  0  0  0  0  0  0
    6.6933   18.6630    3.4285 H   0  0  0  0  0  0  0  0  0  0  0  0
    6.8506   20.2975    4.1968 H   0  0  0  0  0  0  0  0  0  0  0  0
    5.0080   18.1789    4.4027 H   0  0  0  0  0  0  0  0  0  0  0  0
    6.7904   20.2255    7.9033 H   0  0  0  0  0  0  0  0  0  0  0  0
    7.6393   19.6994    6.4102 H   0  0  0  0  0  0  0  0  0  0  0  0
    6.6799   21.2180    6.4102 H   0  0  0  0  0  0  0  0  0  0  0  0
    5.1584   18.9401    8.4291 H   0  0  0  0  0  0  0  0  0  0  0  0
    3.7868   18.6132    7.3162 H   0  0  0  0  0  0  0  0  0  0  0  0
    5.2208   17.5315    7.3162 H   0  0  0  0  0  0  0  0  0  0  0  0
    5.2531   17.6473    0.6061 H   0  0  0  0  0  0  0  0  0  0  0  0
    4.2794   17.1379    2.7581 H   0  0  0  0  0  0  0  0  0  0  0  0
    3.8220   18.8316    3.0385 H   0  0  0  0  0  0  0  0  0  0  0  0
    2.0381   16.7336    2.2770 H   0  0  0  0  0  0  0  0  0  0  0  0
    1.6453   18.4484    2.1793 H   0  0  0  0  0  0  0  0  0  0  0  0
    3.1983   15.6488    0.9727 H   0  0  0  0  0  0  0  0  0  0  0  0
    2.2581   15.5915   -0.5568 H   0  0  0  0  0  0  0  0  0  0  0  0
    3.9347   16.2362   -0.5568 H   0  0  0  0  0  0  0  0  0  0  0  0
    0.7994   18.8330   -0.0572 H   0  0  0  0  0  0  0  0  0  0  0  0
    0.0901   16.5270    0.8486 H   0  0  0  0  0  0  0  0  0  0  0  0
   -0.9532   17.4350   -0.3663 H   0  0  0  0  0  0  0  0  0  0  0  0
   -0.6976   14.8419   -0.7563 H   0  0  0  0  0  0  0  0  0  0  0  0
    2.4599   16.4314   -2.7041 H   0  0  0  0  0  0  0  0  0  0  0  0
    0.0286   17.2034   -4.4330 H   0  0  0  0  0  0  0  0  0  0  0  0
    1.7706   17.6238   -4.7480 H   0  0  0  0  0  0  0  0  0  0  0  0
    0.9845   15.7564   -6.1694 H   0  0  0  0  0  0  0  0  0  0  0  0
    2.3159   15.2776   -5.0450 H   0  0  0  0  0  0  0  0  0  0  0  0
    0.6634   13.5377   -5.0651 H   0  0  0  0  0  0  0  0  0  0  0  0
   -1.5220   14.2430   -4.1840 H   0  0  0  0  0  0  0  0  0  0  0  0
    2.2200   13.4804   -1.7458 H   0  0  0  0  0  0  0  0  0  0  0  0
    2.0338   12.5768   -3.2870 H   0  0  0  0  0  0  0  0  0  0  0  0
    2.7890   14.2066   -3.2870 H   0  0  0  0  0  0  0  0  0  0  0  0
   -0.4348   13.1521   -1.4534 H   0  0  0  0  0  0  0  0  0  0  0  0
   -1.4108   13.4443   -2.9328 H   0  0  0  0  0  0  0  0  0  0  0  0
   -0.1370   12.1778   -2.9328 H   0  0  0  0  0  0  0  0  0  0  0  0
   -0.4682   19.2898   -1.6545 H   0  0  0  0  0  0  0  0  0  0  0  0
    0.4403   19.7611   -3.1307 H   0  0  0  0  0  0  0  0  0  0  0  0
   -0.5623   18.2707   -3.1307 H   0  0  0  0  0  0  0  0  0  0  0  0
    2.8835   18.7378   -3.3983 H   0  0  0  0  0  0  0  0  0  0  0  0
    2.2964   19.9908   -2.1654 H   0  0  0  0  0  0  0  0  0  0  0  0
    4.2687   17.7344   -1.7121 H   0  0  0  0  0  0  0  0  0  0  0  0
    4.5658   19.5168   -1.6769 H   0  0  0  0  0  0  0  0  0  0  0  0
    2.8801   20.3304    1.4233 H   0  0  0  0  0  0  0  0  0  0  0  0
    3.6097   20.9441   -0.0991 H   0  0  0  0  0  0  0  0  0  0  0  0
    1.9268   20.3160   -0.0991 H   0  0  0  0  0  0  0  0  0  0  0  0
  1  2  1  0
  2  3  1  0
  3  4  1  0
  4  5  1  0
  5  6  1  0
  6  7  1  0
  7  8  1  0
  7  9  1  0
  2 10  1  0
 10 11  1  0
 11 12  1  0
 12 13  1  0
 13 14  1  1
 13 15  1  0
 15 16  1  0
 16 17  1  0
 17 18  2  0
 18 19  1  0
 19 20  1  0
 20 21  1  0
 21 22  1  0
 22 23  1  0
 22 24  1  0
 24 25  1  0
 24 26  1  0
 19 27  1  0
 27 28  1  6
 27 29  1  0
 29 30  1  0
 30 31  1  0
 31 32  1  1
  7  5  1  0
 31 10  1  0
 31 13  1  0
 27 15  1  0
 24 18  1  0
  1 33  1  0
  1 34  1  0
  1 35  1  0
  2 36  1  6
  3 37  1  0
  3 38  1  0
  4 39  1  0
  4 40  1  0
  5 41  1  1
  8 42  1  0
  8 43  1  0
  8 44  1  0
  9 45  1  0
  9 46  1  0
  9 47  1  0
 10 48  1  6
 11 49  1  0
 11 50  1  0
 12 51  1  0
 12 52  1  0
 14 53  1  0
 14 54  1  0
 14 55  1  0
 15 56  1  1
 16 57  1  0
 16 58  1  0
 17 59  1  0
 19 60  1  6
 20 61  1  0
 20 62  1  0
 21 63  1  0
 21 64  1  0
 22 65  1  6
 23 66  1  0
 25 67  1  0
 25 68  1  0
 25 69  1  0
 26 70  1  0
 26 71  1  0
 26 72  1  0
 28 73  1  0
 28 74  1  0
 28 75  1  0
 29 76  1  0
 29 77  1  0
 30 78  1  0
 30 79  1  0
 32 80  1  0
 32 81  1  0
 32 82  1  0
M  END
>  <meeko>  (15) 
{"is_sidechain": [false], "intermolecular_energy": 2.731, "internal_energy": -0.839}

$$$$
EPH_relaxed_0001_pdb2pqr_Repair_189_r2_0001_out
     RDKit          3D

 82 86  0  0  0  0  0  0  0  0999 V2000
   -4.9820    8.9080   -0.3740 C   0  0  0  0  0  0  0  0  0  0  0  0
   -5.3290    7.8350   -1.4100 C   0  0  2  0  0  0  0  0  0  0  0  0
   -4.3470    7.8350   -2.5980 C   0  0  0  0  0  0  0  0  0  0  0  0
   -3.9240    6.4330   -3.0470 C   0  0  0  0  0  0  0  0  0  0  0  0
   -5.0600    5.4580   -2.9630 C   0  0  2  0  0  0  0  0  0  0  0  0
   -4.8330    4.2160   -3.6410 O   0  0  0  0  0  0  0  0  0  0  0  0
   -5.8910    5.0370   -4.1610 C   0  0  0  0  0  0  0  0  0  0  0  0
   -5.6220    5.5830   -5.5280 C   0  0  0  0  0  0  0  0  0  0  0  0
   -7.2600    4.4800   -3.9210 C   0  0  0  0  0  0  0  0  0  0  0  0
   -6.7540    8.0380   -1.9120 C   0  0  1  0  0  0  0  0  0  0  0  0
   -6.9770    7.4510   -3.3310 C   0  0  0  0  0  0  0  0  0  0  0  0
   -8.4300    6.9110   -3.3680 C   0  0  0  0  0  0  0  0  0  0  0  0
   -9.0960    7.4950   -2.1010 C   0  0  1  0  0  0  0  0  0  0  0  0
   -9.4940    8.9530   -2.4920 C   0  0  0  0  0  0  0  0  0  0  0  0
  -10.3130    6.6980   -1.5300 C   0  0  2  0  0  0  0  0  0  0  0  0
  -11.5260    6.5960   -2.4720 C   0  0  0  0  0  0  0  0  0  0  0  0
  -12.5350    7.6870   -2.3320 C   0  0  0  0  0  0  0  0  0  0  0  0
  -12.6190    8.5480   -1.3010 C   0  0  0  0  0  0  0  0  0  0  0  0
  -11.6980    8.4090   -0.0820 C   0  0  1  0  0  0  0  0  0  0  0  0
  -12.5350    8.5380    1.2170 C   0  0  0  0  0  0  0  0  0  0  0  0
  -13.3630    9.8190    1.2550 C   0  0  0  0  0  0  0  0  0  0  0  0
  -14.3080    9.8930    0.0580 C   0  0  2  0  0  0  0  0  0  0  0  0
  -15.2880    8.8570    0.1800 O   0  0  0  0  0  0  0  0  0  0  0  0
  -13.5780    9.7640   -1.3080 C   0  0  0  0  0  0  0  0  0  0  0  0
  -12.7420   11.0400   -1.5730 C   0  0  0  0  0  0  0  0  0  0  0  0
  -14.6570    9.7120   -2.4230 C   0  0  0  0  0  0  0  0  0  0  0  0
  -10.7480    7.1340   -0.0720 C   0  0  1  0  0  0  0  0  0  0  0  0
  -11.4980    5.9170    0.5520 C   0  0  0  0  0  0  0  0  0  0  0  0
   -9.5130    7.4200    0.8600 C   0  0  0  0  0  0  0  0  0  0  0  0
   -8.2940    8.1030    0.2100 C   0  0  0  0  0  0  0  0  0  0  0  0
   -7.8970    7.3930   -1.0890 C   0  0  2  0  0  0  0  0  0  0  0  0
   -7.4700    5.9310   -0.7230 C   0  0  0  0  0  0  0  0  0  0  0  0
   -5.1148    8.4973    0.6378 H   0  0  0  0  0  0  0  0  0  0  0  0
   -3.9364    9.2223   -0.5078 H   0  0  0  0  0  0  0  0  0  0  0  0
   -5.6455    9.7751   -0.5078 H   0  0  0  0  0  0  0  0  0  0  0  0
   -5.2456    6.8571   -0.9133 H   0  0  0  0  0  0  0  0  0  0  0  0
   -4.8294    8.3409   -3.4473 H   0  0  0  0  0  0  0  0  0  0  0  0
   -3.4367    8.3535   -2.2627 H   0  0  0  0  0  0  0  0  0  0  0  0
   -3.5731    6.4828   -4.0883 H   0  0  0  0  0  0  0  0  0  0  0  0
   -3.1233    6.0854   -2.3777 H   0  0  0  0  0  0  0  0  0  0  0  0
   -5.3385    5.8312   -1.9664 H   0  0  0  0  0  0  0  0  0  0  0  0
   -5.1374    6.5667   -5.4411 H   0  0  0  0  0  0  0  0  0  0  0  0
   -4.9598    4.8949   -6.0739 H   0  0  0  0  0  0  0  0  0  0  0  0
   -6.5711    5.6888   -6.0739 H   0  0  0  0  0  0  0  0  0  0  0  0
   -7.4413    4.4063   -2.8385 H   0  0  0  0  0  0  0  0  0  0  0  0
   -8.0107    5.1442   -4.3741 H   0  0  0  0  0  0  0  0  0  0  0  0
   -7.3337    3.4804   -4.3741 H   0  0  0  0  0  0  0  0  0  0  0  0
   -6.8169    9.1344   -1.8483 H   0  0  0  0  0  0  0  0  0  0  0  0
   -6.8449    8.2356   -4.0906 H   0  0  0  0  0  0  0  0  0  0  0  0
   -6.2528    6.6515   -3.5462 H   0  0  0  0  0  0  0  0  0  0  0  0
   -8.9496    7.2563   -4.2740 H   0  0  0  0  0  0  0  0  0  0  0  0
   -8.4659    5.8118   -3.3889 H   0  0  0  0  0  0  0  0  0  0  0  0
   -9.6559    9.5460   -1.5798 H   0  0  0  0  0  0  0  0  0  0  0  0
   -8.6868    9.4067   -3.0859 H   0  0  0  0  0  0  0  0  0  0  0  0
  -10.4197    8.9336   -3.0859 H   0  0  0  0  0  0  0  0  0  0  0  0
   -9.9098    5.6777   -1.4503 H   0  0  0  0  0  0  0  0  0  0  0  0
  -11.1544    6.6074   -3.5073 H   0  0  0  0  0  0  0  0  0  0  0  0
  -12.0448    5.6648   -2.2006 H   0  0  0  0  0  0  0  0  0  0  0  0
  -13.2729    7.7967   -3.1404 H   0  0  0  0  0  0  0  0  0  0  0  0
  -10.9801    9.2399   -0.1473 H   0  0  0  0  0  0  0  0  0  0  0  0
  -13.2153    7.6763    1.2851 H   0  0  0  0  0  0  0  0  0  0  0  0
  -11.8340    8.5684    2.0641 H   0  0  0  0  0  0  0  0  0  0  0  0
  -13.9543    9.8382    2.1823 H   0  0  0  0  0  0  0  0  0  0  0  0
  -12.6797   10.6802    1.2170 H   0  0  0  0  0  0  0  0  0  0  0  0
  -14.7777   10.8876    0.0693 H   0  0  0  0  0  0  0  0  0  0  0  0
  -14.9760    8.2350    0.8590 H   0  0  0  0  0  0  0  0  0  0  0  0
  -12.4467   11.4906   -0.6140 H   0  0  0  0  0  0  0  0  0  0  0  0
  -11.8414   10.7757   -2.1467 H   0  0  0  0  0  0  0  0  0  0  0  0
  -13.3439   11.7601   -2.1467 H   0  0  0  0  0  0  0  0  0  0  0  0
  -15.6558    9.6639   -1.9647 H   0  0  0  0  0  0  0  0  0  0  0  0
  -14.5831   10.6147   -3.0472 H   0  0  0  0  0  0  0  0  0  0  0  0
  -14.4966    8.8205   -3.0472 H   0  0  0  0  0  0  0  0  0  0  0  0
  -11.4566    5.9841    1.6492 H   0  0  0  0  0  0  0  0  0  0  0  0
  -12.5478    5.9255    0.2234 H   0  0  0  0  0  0  0  0  0  0  0  0
  -11.0185    4.9831    0.2234 H   0  0  0  0  0  0  0  0  0  0  0  0
   -9.8581    8.0664    1.6804 H   0  0  0  0  0  0  0  0  0  0  0  0
   -9.1538    6.4286    1.1733 H   0  0  0  0  0  0  0  0  0  0  0  0
   -8.5451    9.1502   -0.0143 H   0  0  0  0  0  0  0  0  0  0  0  0
   -7.4477    8.0523    0.9109 H   0  0  0  0  0  0  0  0  0  0  0  0
   -7.4380    5.8214    0.3711 H   0  0  0  0  0  0  0  0  0  0  0  0
   -8.1982    5.2207   -1.1415 H   0  0  0  0  0  0  0  0  0  0  0  0
   -6.4740    5.7243   -1.1415 H   0  0  0  0  0  0  0  0  0  0  0  0
  1  2  1  0
  2  3  1  0
  3  4  1  0
  4  5  1  0
  5  6  1  0
  6  7  1  0
  7  8  1  0
  7  9  1  0
  2 10  1  0
 10 11  1  0
 11 12  1  0
 12 13  1  0
 13 14  1  6
 13 15  1  0
 15 16  1  0
 16 17  1  0
 17 18  2  0
 18 19  1  0
 19 20  1  0
 20 21  1  0
 21 22  1  0
 22 23  1  0
 22 24  1  0
 24 25  1  0
 24 26  1  0
 19 27  1  0
 27 28  1  1
 27 29  1  0
 29 30  1  0
 30 31  1  0
 31 32  1  1
  7  5  1  0
 31 10  1  0
 31 13  1  0
 27 15  1  0
 24 18  1  0
  1 33  1  0
  1 34  1  0
  1 35  1  0
  2 36  1  1
  3 37  1  0
  3 38  1  0
  4 39  1  0
  4 40  1  0
  5 41  1  1
  8 42  1  0
  8 43  1  0
  8 44  1  0
  9 45  1  0
  9 46  1  0
  9 47  1  0
 10 48  1  6
 11 49  1  0
 11 50  1  0
 12 51  1  0
 12 52  1  0
 14 53  1  0
 14 54  1  0
 14 55  1  0
 15 56  1  1
 16 57  1  0
 16 58  1  0
 17 59  1  0
 19 60  1  6
 20 61  1  0
 20 62  1  0
 21 63  1  0
 21 64  1  0
 22 65  1  6
 23 66  1  0
 25 67  1  0
 25 68  1  0
 25 69  1  0
 26 70  1  0
 26 71  1  0
 26 72  1  0
 28 73  1  0
 28 74  1  0
 28 75  1  0
 29 76  1  0
 29 77  1  0
 30 78  1  0
 30 79  1  0
 32 80  1  0
 32 81  1  0
 32 82  1  0
M  END
>  <meeko>  (16) 
{"is_sidechain": [false], "intermolecular_energy": 2.731, "internal_energy": -0.839}

$$$$
EPH_relaxed_0001_pdb2pqr_Repair_189_r2_0001_out
     RDKit          3D

 82 86  0  0  0  0  0  0  0  0999 V2000
   -5.2460    4.1600   -1.9630 C   0  0  0  0  0  0  0  0  0  0  0  0
   -5.5800    5.6540   -1.9890 C   0  0  2  0  0  0  0  0  0  0  0  0
   -4.3940    6.5230   -1.5250 C   0  0  0  0  0  0  0  0  0  0  0  0
   -3.6770    7.2460   -2.6680 C   0  0  0  0  0  0  0  0  0  0  0  0
   -2.6380    8.1980   -2.1560 C   0  0  2  0  0  0  0  0  0  0  0  0
   -2.1060    7.8670   -0.8670 O   0  0  0  0  0  0  0  0  0  0  0  0
   -2.8470    9.0950   -0.9500 C   0  0  0  0  0  0  0  0  0  0  0  0
   -4.1320    9.0830   -0.1820 C   0  0  0  0  0  0  0  0  0  0  0  0
   -2.0000   10.3220   -0.8150 C   0  0  0  0  0  0  0  0  0  0  0  0
   -6.8000    5.9290   -1.1180 C   0  0  1  0  0  0  0  0  0  0  0  0
   -6.4200    6.4510    0.2930 C   0  0  0  0  0  0  0  0  0  0  0  0
   -7.5180    7.4650    0.7060 C   0  0  0  0  0  0  0  0  0  0  0  0
   -8.6550    7.2470   -0.3200 C   0  0  1  0  0  0  0  0  0  0  0  0
   -9.4330    5.9990    0.2020 C   0  0  0  0  0  0  0  0  0  0  0  0
   -9.6090    8.4620   -0.5630 C   0  0  2  0  0  0  0  0  0  0  0  0
  -10.4140    8.9150    0.6670 C   0  0  0  0  0  0  0  0  0  0  0  0
  -11.7470    8.2630    0.8330 C   0  0  0  0  0  0  0  0  0  0  0  0
  -12.3990    7.5650   -0.1160 C   0  0  0  0  0  0  0  0  0  0  0  0
  -11.8400    7.4590   -1.5400 C   0  0  1  0  0  0  0  0  0  0  0  0
  -12.9750    7.7290   -2.5630 C   0  0  0  0  0  0  0  0  0  0  0  0
  -14.1870    6.8290   -2.3430 C   0  0  0  0  0  0  0  0  0  0  0  0
  -14.7490    7.0050   -0.9350 C   0  0  2  0  0  0  0  0  0  0  0  0
  -15.2870    8.3260   -0.8160 O   0  0  0  0  0  0  0  0  0  0  0  0
  -13.6930    6.7680    0.1800 C   0  0  0  0  0  0  0  0  0  0  0  0
  -13.3330    5.2630    0.2450 C   0  0  0  0  0  0  0  0  0  0  0  0
  -14.3520    7.1150    1.5430 C   0  0  0  0  0  0  0  0  0  0  0  0
  -10.5340    8.3150   -1.8380 C   0  0  1  0  0  0  0  0  0  0  0  0
  -10.9320    9.7600   -2.2690 C   0  0  0  0  0  0  0  0  0  0  0  0
   -9.7720    7.6810   -3.0610 C   0  0  0  0  0  0  0  0  0  0  0  0
   -8.7550    6.5670   -2.7440 C   0  0  0  0  0  0  0  0  0  0  0  0
   -7.8070    6.9940   -1.6200 C   0  0  2  0  0  0  0  0  0  0  0  0
   -6.9940    8.2340   -2.1240 C   0  0  0  0  0  0  0  0  0  0  0  0
   -5.1699    3.8194   -0.9198 H   0  0  0  0  0  0  0  0  0  0  0  0
   -6.0406    3.5977   -2.4752 H   0  0  0  0  0  0  0  0  0  0  0  0
   -4.2876    3.9896   -2.4752 H   0  0  0  0  0  0  0  0  0  0  0  0
   -5.7992    5.9257   -3.0321 H   0  0  0  0  0  0  0  0  0  0  0  0
   -4.7715    7.2776   -0.8193 H   0  0  0  0  0  0  0  0  0  0  0  0
   -3.6607    5.8459   -1.0626 H   0  0  0  0  0  0  0  0  0  0  0  0
   -3.1899    6.4993   -3.3123 H   0  0  0  0  0  0  0  0  0  0  0  0
   -4.4246    7.8242   -3.2308 H   0  0  0  0  0  0  0  0  0  0  0  0
   -2.2905    8.4058   -3.1788 H   0  0  0  0  0  0  0  0  0  0  0  0
   -3.9147    9.0850    0.8963 H   0  0  0  0  0  0  0  0  0  0  0  0
   -4.7211    9.9757   -0.4390 H   0  0  0  0  0  0  0  0  0  0  0  0
   -4.7043    8.1795   -0.4390 H   0  0  0  0  0  0  0  0  0  0  0  0
   -1.8457   10.5456    0.2509 H   0  0  0  0  0  0  0  0  0  0  0  0
   -1.0268   10.1508   -1.2984 H   0  0  0  0  0  0  0  0  0  0  0  0
   -2.5051   11.1712   -1.2984 H   0  0  0  0  0  0  0  0  0  0  0  0
   -7.2669    4.9331   -1.1343 H   0  0  0  0  0  0  0  0  0  0  0  0
   -6.3863    5.6167    1.0091 H   0  0  0  0  0  0  0  0  0  0  0  0
   -5.4276    6.9254    0.2844 H   0  0  0  0  0  0  0  0  0  0  0  0
   -7.8717    7.2601    1.7272 H   0  0  0  0  0  0  0  0  0  0  0  0
   -7.1499    8.5016    0.7073 H   0  0  0  0  0  0  0  0  0  0  0  0
   -9.4323    6.0002    1.3020 H   0  0  0  0  0  0  0  0  0  0  0  0
  -10.4697    6.0337   -0.1640 H   0  0  0  0  0  0  0  0  0  0  0  0
   -8.9454    5.0834   -0.1640 H   0  0  0  0  0  0  0  0  0  0  0  0
   -8.9026    9.2782   -0.7745 H   0  0  0  0  0  0  0  0  0  0  0  0
   -9.8153    8.6975    1.5638 H   0  0  0  0  0  0  0  0  0  0  0  0
  -10.6157    9.9864    0.5207 H   0  0  0  0  0  0  0  0  0  0  0  0
  -12.2375    8.3611    1.8127 H   0  0  0  0  0  0  0  0  0  0  0  0
  -11.4773    6.4262   -1.6482 H   0  0  0  0  0  0  0  0  0  0  0  0
  -13.2928    8.7778   -2.4684 H   0  0  0  0  0  0  0  0  0  0  0  0
  -12.5780    7.5152   -3.5663 H   0  0  0  0  0  0  0  0  0  0  0  0
  -14.9652    7.0877   -3.0761 H   0  0  0  0  0  0  0  0  0  0  0  0
  -13.8738    5.7819   -2.4676 H   0  0  0  0  0  0  0  0  0  0  0  0
  -15.5301    6.2435   -0.7934 H   0  0  0  0  0  0  0  0  0  0  0  0
  -14.5900    8.9520   -1.0760 H   0  0  0  0  0  0  0  0  0  0  0  0
  -13.2579    4.9490    1.2966 H   0  0  0  0  0  0  0  0  0  0  0  0
  -14.1162    4.6766   -0.2577 H   0  0  0  0  0  0  0  0  0  0  0  0
  -12.3692    5.0945   -0.2577 H   0  0  0  0  0  0  0  0  0  0  0  0
  -13.7023    6.7729    2.3621 H   0  0  0  0  0  0  0  0  0  0  0  0
  -14.4918    8.2036    1.6161 H   0  0  0  0  0  0  0  0  0  0  0  0
  -15.3287    6.6142    1.6161 H   0  0  0  0  0  0  0  0  0  0  0  0
  -11.1017   10.3761   -1.3736 H   0  0  0  0  0  0  0  0  0  0  0  0
  -10.1216   10.2001   -2.8687 H   0  0  0  0  0  0  0  0  0  0  0  0
  -11.8534    9.7231   -2.8687 H   0  0  0  0  0  0  0  0  0  0  0  0
  -10.5267    7.2590   -3.7409 H   0  0  0  0  0  0  0  0  0  0  0  0
   -9.1764    8.5022   -3.4863 H   0  0  0  0  0  0  0  0  0  0  0  0
   -9.2977    5.6622   -2.4327 H   0  0  0  0  0  0  0  0  0  0  0  0
   -8.1603    6.3675   -3.6476 H   0  0  0  0  0  0  0  0  0  0  0  0
   -6.6207    8.8034   -1.2601 H   0  0  0  0  0  0  0  0  0  0  0  0
   -6.1441    7.8923   -2.7330 H   0  0  0  0  0  0  0  0  0  0  0  0
   -7.6463    8.8772   -2.7330 H   0  0  0  0  0  0  0  0  0  0  0  0
  1  2  1  0
  2  3  1  0
  3  4  1  0
  4  5  1  0
  5  6  1  0
  6  7  1  0
  7  8  1  0
  7  9  1  0
  2 10  1  0
 10 11  1  0
 11 12  1  0
 12 13  1  0
 13 14  1  1
 13 15  1  0
 15 16  1  0
 16 17  1  0
 17 18  2  0
 18 19  1  0
 19 20  1  0
 20 21  1  0
 21 22  1  0
 22 23  1  0
 22 24  1  0
 24 25  1  0
 24 26  1  0
 19 27  1  0
 27 28  1  6
 27 29  1  0
 29 30  1  0
 30 31  1  0
 31 32  1  6
  7  5  1  0
 31 10  1  0
 31 13  1  0
 27 15  1  0
 24 18  1  0
  1 33  1  0
  1 34  1  0
  1 35  1  0
  2 36  1  6
  3 37  1  0
  3 38  1  0
  4 39  1  0
  4 40  1  0
  5 41  1  6
  8 42  1  0
  8 43  1  0
  8 44  1  0
  9 45  1  0
  9 46  1  0
  9 47  1  0
 10 48  1  1
 11 49  1  0
 11 50  1  0
 12 51  1  0
 12 52  1  0
 14 53  1  0
 14 54  1  0
 14 55  1  0
 15 56  1  6
 16 57  1  0
 16 58  1  0
 17 59  1  0
 19 60  1  6
 20 61  1  0
 20 62  1  0
 21 63  1  0
 21 64  1  0
 22 65  1  1
 23 66  1  0
 25 67  1  0
 25 68  1  0
 25 69  1  0
 26 70  1  0
 26 71  1  0
 26 72  1  0
 28 73  1  0
 28 74  1  0
 28 75  1  0
 29 76  1  0
 29 77  1  0
 30 78  1  0
 30 79  1  0
 32 80  1  0
 32 81  1  0
 32 82  1  0
M  END
>  <meeko>  (17) 
{"is_sidechain": [false], "intermolecular_energy": 2.731, "internal_energy": -0.839}

$$$$
EPH_relaxed_0001_pdb2pqr_Repair_189_r2_0001_out
     RDKit          3D

 82 86  0  0  0  0  0  0  0  0999 V2000
    1.5660   12.3510   -6.0770 C   0  0  0  0  0  0  0  0  0  0  0  0
    0.6870   13.5930   -5.9050 C   0  0  2  0  0  0  0  0  0  0  0  0
    1.1940   14.7840   -6.7440 C   0  0  0  0  0  0  0  0  0  0  0  0
    0.4810   14.9350   -8.0900 C   0  0  0  0  0  0  0  0  0  0  0  0
    0.8660   16.2080   -8.7820 C   0  0  2  0  0  0  0  0  0  0  0  0
    0.2730   16.3900  -10.0740 O   0  0  0  0  0  0  0  0  0  0  0  0
    1.7030   16.2520  -10.0470 C   0  0  0  0  0  0  0  0  0  0  0  0
    2.2050   14.9990  -10.6950 C   0  0  0  0  0  0  0  0  0  0  0  0
    2.4370   17.5140  -10.3760 C   0  0  0  0  0  0  0  0  0  0  0  0
    0.6220   13.9840   -4.4330 C   0  0  1  0  0  0  0  0  0  0  0  0
    1.7130   13.2830   -3.5800 C   0  0  0  0  0  0  0  0  0  0  0  0
    2.1410   14.2940   -2.4850 C   0  0  0  0  0  0  0  0  0  0  0  0
    1.0640   15.4020   -2.5340 C   0  0  1  0  0  0  0  0  0  0  0  0
   -0.1360   14.8310   -1.7150 C   0  0  0  0  0  0  0  0  0  0  0  0
    1.4980   16.8110   -2.0150 C   0  0  2  0  0  0  0  0  0  0  0  0
    1.8990   16.8650   -0.5300 C   0  0  0  0  0  0  0  0  0  0  0  0
    0.7880   17.1680    0.4200 C   0  0  0  0  0  0  0  0  0  0  0  0
   -0.4150   17.6660    0.0830 C   0  0  0  0  0  0  0  0  0  0  0  0
   -0.7230   18.0700   -1.3650 C   0  0  1  0  0  0  0  0  0  0  0  0
   -1.4070   19.4630   -1.3800 C   0  0  0  0  0  0  0  0  0  0  0  0
   -2.6400   19.5190   -0.4830 C   0  0  0  0  0  0  0  0  0  0  0  0
   -2.2830   19.1680    0.9590 C   0  0  2  0  0  0  0  0  0  0  0  0
   -1.4380   20.1940    1.4870 O   0  0  0  0  0  0  0  0  0  0  0  0
   -1.5790   17.7890    1.0970 C   0  0  0  0  0  0  0  0  0  0  0  0
   -2.5950   16.6550    0.8110 C   0  0  0  0  0  0  0  0  0  0  0  0
   -1.1470   17.6200    2.5790 C   0  0  0  0  0  0  0  0  0  0  0  0
    0.4920   17.9760   -2.3840 C   0  0  1  0  0  0  0  0  0  0  0  0
    1.3150   19.3010   -2.3550 C   0  0  0  0  0  0  0  0  0  0  0  0
   -0.0730   17.8370   -3.8470 C   0  0  0  0  0  0  0  0  0  0  0  0
   -0.3700   16.4100   -4.3440 C   0  0  0  0  0  0  0  0  0  0  0  0
    0.8200   15.4800   -4.0850 C   0  0  2  0  0  0  0  0  0  0  0  0
    2.0360   16.0170   -4.9140 C   0  0  0  0  0  0  0  0  0  0  0  0
    1.8438   11.9585   -5.0877 H   0  0  0  0  0  0  0  0  0  0  0  0
    1.0097   11.5823   -6.6335 H   0  0  0  0  0  0  0  0  0  0  0  0
    2.4759   12.6200   -6.6335 H   0  0  0  0  0  0  0  0  0  0  0  0
   -0.3200   13.3384   -6.2672 H   0  0  0  0  0  0  0  0  0  0  0  0
    1.0420   15.7067   -6.1648 H   0  0  0  0  0  0  0  0  0  0  0  0
    2.2557   14.5957   -6.9615 H   0  0  0  0  0  0  0  0  0  0  0  0
    0.7500   14.0842   -8.7333 H   0  0  0  0  0  0  0  0  0  0  0  0
   -0.6027   14.9608   -7.9029 H   0  0  0  0  0  0  0  0  0  0  0  0
    0.9560   16.7321   -7.8191 H   0  0  0  0  0  0  0  0  0  0  0  0
    2.4949   14.2755   -9.9187 H   0  0  0  0  0  0  0  0  0  0  0  0
    1.4107   14.5665  -11.3212 H   0  0  0  0  0  0  0  0  0  0  0  0
    3.0782   15.2345  -11.3212 H   0  0  0  0  0  0  0  0  0  0  0  0
    2.7315   18.0203   -9.4449 H   0  0  0  0  0  0  0  0  0  0  0  0
    3.3359   17.2731  -10.9625 H   0  0  0  0  0  0  0  0  0  0  0  0
    1.7831   18.1762  -10.9625 H   0  0  0  0  0  0  0  0  0  0  0  0
   -0.4104   13.6791   -4.2068 H   0  0  0  0  0  0  0  0  0  0  0  0
    1.3050   12.3726   -3.1167 H   0  0  0  0  0  0  0  0  0  0  0  0
    2.5708   12.9863   -4.2014 H   0  0  0  0  0  0  0  0  0  0  0  0
    2.1573   13.8118   -1.4964 H   0  0  0  0  0  0  0  0  0  0  0  0
    3.1535   14.6889   -2.6550 H   0  0  0  0  0  0  0  0  0  0  0  0
    0.0735   14.9307   -0.6397 H   0  0  0  0  0  0  0  0  0  0  0  0
   -1.0494   15.3910   -1.9641 H   0  0  0  0  0  0  0  0  0  0  0  0
   -0.2776   13.7690   -1.9641 H   0  0  0  0  0  0  0  0  0  0  0  0
    2.4228   16.9957   -2.5813 H   0  0  0  0  0  0  0  0  0  0  0  0
    2.3228   15.8874   -0.2566 H   0  0  0  0  0  0  0  0  0  0  0  0
    2.6134   17.6963   -0.4378 H   0  0  0  0  0  0  0  0  0  0  0  0
    0.9687   16.9669    1.4863 H   0  0  0  0  0  0  0  0  0  0  0  0
   -1.4171   17.3094   -1.7518 H   0  0  0  0  0  0  0  0  0  0  0  0
   -0.6834   20.2149   -1.0321 H   0  0  0  0  0  0  0  0  0  0  0  0
   -1.7346   19.6630   -2.4108 H   0  0  0  0  0  0  0  0  0  0  0  0
   -3.0606   20.5350   -0.5125 H   0  0  0  0  0  0  0  0  0  0  0  0
   -3.3746   18.7874   -0.8505 H   0  0  0  0  0  0  0  0  0  0  0  0
   -3.2239   19.0981    1.5245 H   0  0  0  0  0  0  0  0  0  0  0  0
   -0.7450   20.3730    0.8290 H   0  0  0  0  0  0  0  0  0  0  0  0
   -2.9632   16.2440    1.7626 H   0  0  0  0  0  0  0  0  0  0  0  0
   -3.4405   17.0572    0.2337 H   0  0  0  0  0  0  0  0  0  0  0  0
   -2.1027   15.8586    0.2337 H   0  0  0  0  0  0  0  0  0  0  0  0
   -1.9667   17.9407    3.2387 H   0  0  0  0  0  0  0  0  0  0  0  0
   -0.9113   16.5634    2.7740 H   0  0  0  0  0  0  0  0  0  0  0  0
   -0.2569   18.2362    2.7740 H   0  0  0  0  0  0  0  0  0  0  0  0
    1.4983   19.5960   -1.3113 H   0  0  0  0  0  0  0  0  0  0  0  0
    2.2765   19.1467   -2.8666 H   0  0  0  0  0  0  0  0  0  0  0  0
    0.7506   20.0945   -2.8666 H   0  0  0  0  0  0  0  0  0  0  0  0
   -1.0113   18.4089   -3.8971 H   0  0  0  0  0  0  0  0  0  0  0  0
    0.7289   18.2087   -4.5018 H   0  0  0  0  0  0  0  0  0  0  0  0
   -1.2524   16.0211   -3.8148 H   0  0  0  0  0  0  0  0  0  0  0  0
   -0.5562   16.4477   -5.4275 H   0  0  0  0  0  0  0  0  0  0  0  0
    2.8226   16.3644   -4.2280 H   0  0  0  0  0  0  0  0  0  0  0  0
    2.4324   15.2102   -5.5480 H   0  0  0  0  0  0  0  0  0  0  0  0
    1.7068   16.8534   -5.5480 H   0  0  0  0  0  0  0  0  0  0  0  0
  1  2  1  0
  2  3  1  0
  3  4  1  0
  4  5  1  0
  5  6  1  0
  6  7  1  0
  7  8  1  0
  7  9  1  0
  2 10  1  0
 10 11  1  0
 11 12  1  0
 12 13  1  0
 13 14  1  1
 13 15  1  0
 15 16  1  0
 16 17  1  0
 17 18  2  0
 18 19  1  0
 19 20  1  0
 20 21  1  0
 21 22  1  0
 22 23  1  0
 22 24  1  0
 24 25  1  0
 24 26  1  0
 19 27  1  0
 27 28  1  6
 27 29  1  0
 29 30  1  0
 30 31  1  0
 31 32  1  6
  7  5  1  0
 31 10  1  0
 31 13  1  0
 27 15  1  0
 24 18  1  0
  1 33  1  0
  1 34  1  0
  1 35  1  0
  2 36  1  6
  3 37  1  0
  3 38  1  0
  4 39  1  0
  4 40  1  0
  5 41  1  1
  8 42  1  0
  8 43  1  0
  8 44  1  0
  9 45  1  0
  9 46  1  0
  9 47  1  0
 10 48  1  1
 11 49  1  0
 11 50  1  0
 12 51  1  0
 12 52  1  0
 14 53  1  0
 14 54  1  0
 14 55  1  0
 15 56  1  6
 16 57  1  0
 16 58  1  0
 17 59  1  0
 19 60  1  6
 20 61  1  0
 20 62  1  0
 21 63  1  0
 21 64  1  0
 22 65  1  1
 23 66  1  0
 25 67  1  0
 25 68  1  0
 25 69  1  0
 26 70  1  0
 26 71  1  0
 26 72  1  0
 28 73  1  0
 28 74  1  0
 28 75  1  0
 29 76  1  0
 29 77  1  0
 30 78  1  0
 30 79  1  0
 32 80  1  0
 32 81  1  0
 32 82  1  0
M  END
>  <meeko>  (18) 
{"is_sidechain": [false], "intermolecular_energy": 2.731, "internal_energy": -0.839}

$$$$
EPH_relaxed_0001_pdb2pqr_Repair_189_r2_0001_out
     RDKit          3D

 82 86  0  0  0  0  0  0  0  0999 V2000
    7.3850   18.0350    3.4140 C   0  0  0  0  0  0  0  0  0  0  0  0
    6.5540   19.3100    3.2450 C   0  0  2  0  0  0  0  0  0  0  0  0
    6.5840   20.1950    4.5070 C   0  0  0  0  0  0  0  0  0  0  0  0
    6.1160   19.4750    5.7750 C   0  0  0  0  0  0  0  0  0  0  0  0
    7.1510   19.5270    6.8570 C   0  0  2  0  0  0  0  0  0  0  0  0
    7.3130   18.3060    7.5900 O   0  0  0  0  0  0  0  0  0  0  0  0
    6.8220   19.4320    8.3350 C   0  0  0  0  0  0  0  0  0  0  0  0
    5.4120   19.2770    8.8120 C   0  0  0  0  0  0  0  0  0  0  0  0
    7.8050   19.9760    9.3240 C   0  0  0  0  0  0  0  0  0  0  0  0
    5.1150   18.9490    2.8960 C   0  0  1  0  0  0  0  0  0  0  0  0
    4.0870   19.9470    3.4940 C   0  0  0  0  0  0  0  0  0  0  0  0
    2.9310   20.0680    2.4670 C   0  0  0  0  0  0  0  0  0  0  0  0
    3.1630   18.9000    1.4800 C   0  0  1  0  0  0  0  0  0  0  0  0
    2.5670   17.6470    2.1940 C   0  0  0  0  0  0  0  0  0  0  0  0
    2.5730   19.0810    0.0440 C   0  0  2  0  0  0  0  0  0  0  0  0
    1.0410   19.2130   -0.0200 C   0  0  0  0  0  0  0  0  0  0  0  0
    0.2970   17.9290   -0.1810 C   0  0  0  0  0  0  0  0  0  0  0  0
    0.8360   16.7540   -0.5550 C   0  0  0  0  0  0  0  0  0  0  0  0
    2.3140   16.6580   -0.9550 C   0  0  1  0  0  0  0  0  0  0  0  0
    2.4430   15.8390   -2.2670 C   0  0  0  0  0  0  0  0  0  0  0  0
    1.7750   14.4710   -2.1700 C   0  0  0  0  0  0  0  0  0  0  0  0
    0.2940   14.6110   -1.8280 C   0  0  2  0  0  0  0  0  0  0  0  0
   -0.3770   15.2340   -2.9280 O   0  0  0  0  0  0  0  0  0  0  0  0
    0.0390   15.4260   -0.5300 C   0  0  0  0  0  0  0  0  0  0  0  0
    0.5010   14.6050    0.7000 C   0  0  0  0  0  0  0  0  0  0  0  0
   -1.4940   15.6130   -0.3760 C   0  0  0  0  0  0  0  0  0  0  0  0
    3.1070   18.0330   -1.0140 C   0  0  1  0  0  0  0  0  0  0  0  0
    2.9320   18.6890   -2.4180 C   0  0  0  0  0  0  0  0  0  0  0  0
    4.6470   17.7470   -0.8480 C   0  0  0  0  0  0  0  0  0  0  0  0
    5.1920   17.6980    0.5920 C   0  0  0  0  0  0  0  0  0  0  0  0
    4.7330   18.9200    1.3950 C   0  0  2  0  0  0  0  0  0  0  0  0
    5.3360   20.1940    0.7130 C   0  0  0  0  0  0  0  0  0  0  0  0
    7.5215   17.8256    4.4852 H   0  0  0  0  0  0  0  0  0  0  0  0
    6.8628   17.1913    2.9391 H   0  0  0  0  0  0  0  0  0  0  0  0
    8.3677   18.1722    2.9391 H   0  0  0  0  0  0  0  0  0  0  0  0
    7.0016   19.8905    2.4249 H   0  0  0  0  0  0  0  0  0  0  0  0
    7.6165   20.5402    4.6646 H   0  0  0  0  0  0  0  0  0  0  0  0
    5.8854   21.0267    4.3331 H   0  0  0  0  0  0  0  0  0  0  0  0
    5.1959   19.9558    6.1387 H   0  0  0  0  0  0  0  0  0  0  0  0
    5.9367   18.4194    5.5230 H   0  0  0  0  0  0  0  0  0  0  0  0
    7.7520   20.2449    6.2796 H   0  0  0  0  0  0  0  0  0  0  0  0
    5.3951   19.2751    9.9119 H   0  0  0  0  0  0  0  0  0  0  0  0
    4.8041   20.1137    8.4374 H   0  0  0  0  0  0  0  0  0  0  0  0
    5.0004   18.3282    8.4374 H   0  0  0  0  0  0  0  0  0  0  0  0
    7.4462   19.7775   10.3447 H   0  0  0  0  0  0  0  0  0  0  0  0
    8.7805   19.4893    9.1771 H   0  0  0  0  0  0  0  0  0  0  0  0
    7.9107   21.0610    9.1771 H   0  0  0  0  0  0  0  0  0  0  0  0
    5.0732   17.9327    3.3148 H   0  0  0  0  0  0  0  0  0  0  0  0
    3.7038   19.5672    4.4526 H   0  0  0  0  0  0  0  0  0  0  0  0
    4.5512   20.9261    3.6832 H   0  0  0  0  0  0  0  0  0  0  0  0
    1.9559   19.9670    2.9660 H   0  0  0  0  0  0  0  0  0  0  0  0
    2.9216   21.0453    1.9623 H   0  0  0  0  0  0  0  0  0  0  0  0
    2.6308   17.7811    3.2839 H   0  0  0  0  0  0  0  0  0  0  0  0
    1.5140   17.5241    1.9007 H   0  0  0  0  0  0  0  0  0  0  0  0
    3.1361   16.7525    1.9007 H   0  0  0  0  0  0  0  0  0  0  0  0
    2.9707   20.0631   -0.2516 H   0  0  0  0  0  0  0  0  0  0  0  0
    0.7015   19.6881    0.9122 H   0  0  0  0  0  0  0  0  0  0  0  0
    0.8238   19.8058   -0.9208 H   0  0  0  0  0  0  0  0  0  0  0  0
   -0.7837   17.9445    0.0234 H   0  0  0  0  0  0  0  0  0  0  0  0
    2.8178   16.1284   -0.1329 H   0  0  0  0  0  0  0  0  0  0  0  0
    1.9712   16.4048   -3.0838 H   0  0  0  0  0  0  0  0  0  0  0  0
    3.5144   15.6751   -2.4546 H   0  0  0  0  0  0  0  0  0  0  0  0
    1.8743   13.9525   -3.1350 H   0  0  0  0  0  0  0  0  0  0  0  0
    2.2670   13.8954   -1.3721 H   0  0  0  0  0  0  0  0  0  0  0  0
   -0.0988   13.6000   -1.6449 H   0  0  0  0  0  0  0  0  0  0  0  0
    0.2920   15.7140   -3.4460 H   0  0  0  0  0  0  0  0  0  0  0  0
    0.2066   15.1282    1.6217 H   0  0  0  0  0  0  0  0  0  0  0  0
    0.0295   13.6115    0.6758 H   0  0  0  0  0  0  0  0  0  0  0  0
    1.5950   14.4924    0.6758 H   0  0  0  0  0  0  0  0  0  0  0  0
   -1.7540   15.6447    0.6924 H   0  0  0  0  0  0  0  0  0  0  0  0
   -1.7985   16.5549   -0.8556 H   0  0  0  0  0  0  0  0  0  0  0  0
   -2.0160   14.7719   -0.8556 H   0  0  0  0  0  0  0  0  0  0  0  0
    2.6502   19.7453   -2.2966 H   0  0  0  0  0  0  0  0  0  0  0  0
    3.8790   18.6237   -2.9738 H   0  0  0  0  0  0  0  0  0  0  0  0
    2.1434   18.1607   -2.9738 H   0  0  0  0  0  0  0  0  0  0  0  0
    4.8575   16.7745   -1.3170 H   0  0  0  0  0  0  0  0  0  0  0  0
    5.1517   18.6038   -1.3183 H   0  0  0  0  0  0  0  0  0  0  0  0
    4.8252   16.7854    1.0846 H   0  0  0  0  0  0  0  0  0  0  0  0
    6.2912   17.6985    0.5508 H   0  0  0  0  0  0  0  0  0  0  0  0
    5.6704   20.9006    1.4869 H   0  0  0  0  0  0  0  0  0  0  0  0
    6.1924   19.9040    0.0865 H   0  0  0  0  0  0  0  0  0  0  0  0
    4.5688   20.6724    0.0865 H   0  0  0  0  0  0  0  0  0  0  0  0
  1  2  1  0
  2  3  1  0
  3  4  1  0
  4  5  1  0
  5  6  1  0
  6  7  1  0
  7  8  1  0
  7  9  1  0
  2 10  1  0
 10 11  1  0
 11 12  1  0
 12 13  1  0
 13 14  1  1
 13 15  1  0
 15 16  1  0
 16 17  1  0
 17 18  2  0
 18 19  1  0
 19 20  1  0
 20 21  1  0
 21 22  1  0
 22 23  1  0
 22 24  1  0
 24 25  1  0
 24 26  1  0
 19 27  1  0
 27 28  1  6
 27 29  1  0
 29 30  1  0
 30 31  1  0
 31 32  1  6
  7  5  1  0
 31 10  1  0
 31 13  1  0
 27 15  1  0
 24 18  1  0
  1 33  1  0
  1 34  1  0
  1 35  1  0
  2 36  1  6
  3 37  1  0
  3 38  1  0
  4 39  1  0
  4 40  1  0
  5 41  1  1
  8 42  1  0
  8 43  1  0
  8 44  1  0
  9 45  1  0
  9 46  1  0
  9 47  1  0
 10 48  1  1
 11 49  1  0
 11 50  1  0
 12 51  1  0
 12 52  1  0
 14 53  1  0
 14 54  1  0
 14 55  1  0
 15 56  1  6
 16 57  1  0
 16 58  1  0
 17 59  1  0
 19 60  1  1
 20 61  1  0
 20 62  1  0
 21 63  1  0
 21 64  1  0
 22 65  1  1
 23 66  1  0
 25 67  1  0
 25 68  1  0
 25 69  1  0
 26 70  1  0
 26 71  1  0
 26 72  1  0
 28 73  1  0
 28 74  1  0
 28 75  1  0
 29 76  1  0
 29 77  1  0
 30 78  1  0
 30 79  1  0
 32 80  1  0
 32 81  1  0
 32 82  1  0
M  END
>  <meeko>  (19) 
{"is_sidechain": [false], "intermolecular_energy": 2.731, "internal_energy": -0.839}

$$$$
