EPH_relaxed_0001_pdb2pqr_Repair_322_r2_0001_out
     RDKit          3D

 82 86  0  0  0  0  0  0  0  0999 V2000
    4.5780   17.6890   -0.9840 C   0  0  0  0  0  0  0  0  0  0  0  0
    3.2030   18.2800   -0.6640 C   0  0  2  0  0  0  0  0  0  0  0  0
    3.1770   18.9820    0.7090 C   0  0  0  0  0  0  0  0  0  0  0  0
    4.3650   18.6240    1.6060 C   0  0  0  0  0  0  0  0  0  0  0  0
    4.2130   19.1970    2.9820 C   0  0  2  0  0  0  0  0  0  0  0  0
    5.1830   20.1950    3.3260 O   0  0  0  0  0  0  0  0  0  0  0  0
    5.2220   18.9810    4.0940 C   0  0  0  0  0  0  0  0  0  0  0  0
    6.4580   18.1640    3.8790 C   0  0  0  0  0  0  0  0  0  0  0  0
    4.7720   19.1510    5.5120 C   0  0  0  0  0  0  0  0  0  0  0  0
    2.1430   17.1850   -0.7090 C   0  0  1  0  0  0  0  0  0  0  0  0
    0.7550   17.7140   -1.1570 C   0  0  0  0  0  0  0  0  0  0  0  0
    0.0910   16.5840   -1.9850 C   0  0  0  0  0  0  0  0  0  0  0  0
    0.9630   15.3360   -1.7100 C   0  0  1  0  0  0  0  0  0  0  0  0
    0.4630   14.7930   -0.3340 C   0  0  0  0  0  0  0  0  0  0  0  0
    0.9450   14.2240   -2.8090 C   0  0  2  0  0  0  0  0  0  0  0  0
   -0.4270   13.5700   -3.0530 C   0  0  0  0  0  0  0  0  0  0  0  0
   -0.7130   12.3620   -2.2250 C   0  0  0  0  0  0  0  0  0  0  0  0
    0.1980   11.6550   -1.5300 C   0  0  0  0  0  0  0  0  0  0  0  0
    1.6910   11.9980   -1.6140 C   0  0  1  0  0  0  0  0  0  0  0  0
    2.5100   10.6970   -1.8210 C   0  0  0  0  0  0  0  0  0  0  0  0
    2.2120    9.6430   -0.7580 C   0  0  0  0  0  0  0  0  0  0  0  0
    0.7280    9.2870   -0.7450 C   0  0  2  0  0  0  0  0  0  0  0  0
    0.4020    8.6270   -1.9720 O   0  0  0  0  0  0  0  0  0  0  0  0
   -0.1970   10.5210   -0.5530 C   0  0  0  0  0  0  0  0  0  0  0  0
   -0.0580   11.0550    0.8940 C   0  0  0  0  0  0  0  0  0  0  0  0
   -1.6670   10.0430   -0.7000 C   0  0  0  0  0  0  0  0  0  0  0  0
    2.0840   13.1370   -2.6510 C   0  0  1  0  0  0  0  0  0  0  0  0
    2.3070   12.5170   -4.0640 C   0  0  0  0  0  0  0  0  0  0  0  0
    3.4600   13.7710   -2.2220 C   0  0  0  0  0  0  0  0  0  0  0  0
    3.4040   14.9430   -1.2240 C   0  0  0  0  0  0  0  0  0  0  0  0
    2.3880   15.9980   -1.6740 C   0  0  2  0  0  0  0  0  0  0  0  0
    2.8760   16.5780   -3.0460 C   0  0  0  0  0  0  0  0  0  0  0  0
    5.1066   17.4618   -0.0465 H   0  0  0  0  0  0  0  0  0  0  0  0
    4.4531   16.7651   -1.5678 H   0  0  0  0  0  0  0  0  0  0  0  0
    5.1625   18.4154   -1.5678 H   0  0  0  0  0  0  0  0  0  0  0  0
    2.9846   19.0409   -1.4278 H   0  0  0  0  0  0  0  0  0  0  0  0
    3.1824   20.0694    0.5432 H   0  0  0  0  0  0  0  0  0  0  0  0
    2.2687   18.6409    1.2272 H   0  0  0  0  0  0  0  0  0  0  0  0
    4.4372   17.5290    1.6818 H   0  0  0  0  0  0  0  0  0  0  0  0
    5.2745   19.0488    1.1562 H   0  0  0  0  0  0  0  0  0  0  0  0
    3.1214   19.0674    2.9407 H   0  0  0  0  0  0  0  0  0  0  0  0
    6.8850   17.8818    4.8527 H   0  0  0  0  0  0  0  0  0  0  0  0
    6.2033   17.2557    3.3132 H   0  0  0  0  0  0  0  0  0  0  0  0
    7.1939   18.7542    3.3132 H   0  0  0  0  0  0  0  0  0  0  0  0
    5.5806   18.8455    6.1924 H   0  0  0  0  0  0  0  0  0  0  0  0
    4.5198   20.2064    5.6926 H   0  0  0  0  0  0  0  0  0  0  0  0
    3.8850   18.5260    5.6926 H   0  0  0  0  0  0  0  0  0  0  0  0
    2.1918   16.8386    0.3339 H   0  0  0  0  0  0  0  0  0  0  0  0
    0.1384   17.9515   -0.2776 H   0  0  0  0  0  0  0  0  0  0  0  0
    0.8564   18.6328   -1.7532 H   0  0  0  0  0  0  0  0  0  0  0  0
   -0.9440   16.4157   -1.6526 H   0  0  0  0  0  0  0  0  0  0  0  0
    0.0371   16.8278   -3.0563 H   0  0  0  0  0  0  0  0  0  0  0  0
    0.9646   15.3378    0.4794 H   0  0  0  0  0  0  0  0  0  0  0  0
   -0.6246   14.9377   -0.2560 H   0  0  0  0  0  0  0  0  0  0  0  0
    0.6968   13.7210   -0.2560 H   0  0  0  0  0  0  0  0  0  0  0  0
    1.1719   14.7924   -3.7230 H   0  0  0  0  0  0  0  0  0  0  0  0
   -1.2035   14.3195   -2.8404 H   0  0  0  0  0  0  0  0  0  0  0  0
   -0.4197   13.2279   -4.0984 H   0  0  0  0  0  0  0  0  0  0  0  0
   -1.7574   12.0199   -2.1785 H   0  0  0  0  0  0  0  0  0  0  0  0
    1.9525   12.4549   -0.6482 H   0  0  0  0  0  0  0  0  0  0  0  0
    2.2660   10.2801   -2.8092 H   0  0  0  0  0  0  0  0  0  0  0  0
    3.5759   10.9574   -1.7437 H   0  0  0  0  0  0  0  0  0  0  0  0
    2.7977    8.7374   -0.9746 H   0  0  0  0  0  0  0  0  0  0  0  0
    2.4843   10.0503    0.2268 H   0  0  0  0  0  0  0  0  0  0  0  0
    0.5543    8.6285    0.1188 H   0  0  0  0  0  0  0  0  0  0  0  0
   -0.0100    9.2830   -2.5590 H   0  0  0  0  0  0  0  0  0  0  0  0
   -0.2692   10.2437    1.6061 H   0  0  0  0  0  0  0  0  0  0  0  0
    0.9661   11.4241    1.0518 H   0  0  0  0  0  0  0  0  0  0  0  0
   -0.7722   11.8766    1.0518 H   0  0  0  0  0  0  0  0  0  0  0  0
   -2.1075    9.8998    0.2977 H   0  0  0  0  0  0  0  0  0  0  0  0
   -2.2452   10.7994   -1.2509 H   0  0  0  0  0  0  0  0  0  0  0  0
   -1.6897    9.0912   -1.2509 H   0  0  0  0  0  0  0  0  0  0  0  0
    2.6776   11.4867   -3.9580 H   0  0  0  0  0  0  0  0  0  0  0  0
    1.3552   12.5094   -4.6155 H   0  0  0  0  0  0  0  0  0  0  0  0
    3.0455   13.1174   -4.6155 H   0  0  0  0  0  0  0  0  0  0  0  0
    4.0656   12.9741   -1.7657 H   0  0  0  0  0  0  0  0  0  0  0  0
    3.8798   14.1985   -3.1445 H   0  0  0  0  0  0  0  0  0  0  0  0
    3.1112   14.5601   -0.2352 H   0  0  0  0  0  0  0  0  0  0  0  0
    4.3983   15.4112   -1.1764 H   0  0  0  0  0  0  0  0  0  0  0  0
    3.5746   17.4083   -2.8654 H   0  0  0  0  0  0  0  0  0  0  0  0
    3.3852   15.7881   -3.6177 H   0  0  0  0  0  0  0  0  0  0  0  0
    2.0107   16.9446   -3.6177 H   0  0  0  0  0  0  0  0  0  0  0  0
  1  2  1  0
  2  3  1  0
  3  4  1  0
  4  5  1  0
  5  6  1  0
  6  7  1  0
  7  8  1  0
  7  9  1  0
  2 10  1  0
 10 11  1  0
 11 12  1  0
 12 13  1  0
 13 14  1  1
 13 15  1  0
 15 16  1  0
 16 17  1  0
 17 18  2  0
 18 19  1  0
 19 20  1  0
 20 21  1  0
 21 22  1  0
 22 23  1  0
 22 24  1  0
 24 25  1  0
 24 26  1  0
 19 27  1  0
 27 28  1  6
 27 29  1  0
 29 30  1  0
 30 31  1  0
 31 32  1  6
  7  5  1  0
 31 10  1  0
 31 13  1  0
 27 15  1  0
 24 18  1  0
  1 33  1  0
  1 34  1  0
  1 35  1  0
  2 36  1  6
  3 37  1  0
  3 38  1  0
  4 39  1  0
  4 40  1  0
  5 41  1  1
  8 42  1  0
  8 43  1  0
  8 44  1  0
  9 45  1  0
  9 46  1  0
  9 47  1  0
 10 48  1  1
 11 49  1  0
 11 50  1  0
 12 51  1  0
 12 52  1  0
 14 53  1  0
 14 54  1  0
 14 55  1  0
 15 56  1  6
 16 57  1  0
 16 58  1  0
 17 59  1  0
 19 60  1  1
 20 61  1  0
 20 62  1  0
 21 63  1  0
 21 64  1  0
 22 65  1  1
 23 66  1  0
 25 67  1  0
 25 68  1  0
 25 69  1  0
 26 70  1  0
 26 71  1  0
 26 72  1  0
 28 73  1  0
 28 74  1  0
 28 75  1  0
 29 76  1  0
 29 77  1  0
 30 78  1  0
 30 79  1  0
 32 80  1  0
 32 81  1  0
 32 82  1  0
M  END
>  <meeko>  (1) 
{"is_sidechain": [false], "intermolecular_energy": 2.731, "internal_energy": -0.839}

$$$$
EPH_relaxed_0001_pdb2pqr_Repair_322_r2_0001_out
     RDKit          3D

 82 86  0  0  0  0  0  0  0  0999 V2000
    3.8530   18.2910    0.5170 C   0  0  0  0  0  0  0  0  0  0  0  0
    2.8970   18.6890   -0.6100 C   0  0  2  0  0  0  0  0  0  0  0  0
    2.0920   19.9590   -0.2690 C   0  0  0  0  0  0  0  0  0  0  0  0
    1.0330   19.7440    0.8160 C   0  0  0  0  0  0  0  0  0  0  0  0
   -0.3240   20.1920    0.3630 C   0  0  2  0  0  0  0  0  0  0  0  0
   -1.3260   20.1940    1.3870 O   0  0  0  0  0  0  0  0  0  0  0  0
   -1.5310   19.2750    0.3020 C   0  0  0  0  0  0  0  0  0  0  0  0
   -1.4370   17.8350    0.6990 C   0  0  0  0  0  0  0  0  0  0  0  0
   -2.6680   19.6470   -0.5980 C   0  0  0  0  0  0  0  0  0  0  0  0
    1.9470   17.5370   -0.9160 C   0  0  1  0  0  0  0  0  0  0  0  0
    0.7930   17.9510   -1.8690 C   0  0  0  0  0  0  0  0  0  0  0  0
    0.4890   16.7220   -2.7640 C   0  0  0  0  0  0  0  0  0  0  0  0
    1.2360   15.5500   -2.0840 C   0  0  1  0  0  0  0  0  0  0  0  0
    0.2970   15.0950   -0.9230 C   0  0  0  0  0  0  0  0  0  0  0  0
    1.6320   14.3540   -3.0090 C   0  0  2  0  0  0  0  0  0  0  0  0
    0.4500   13.6070   -3.6520 C   0  0  0  0  0  0  0  0  0  0  0  0
   -0.0820   12.4560   -2.8630 C   0  0  0  0  0  0  0  0  0  0  0  0
    0.5420   11.8600   -1.8310 C   0  0  0  0  0  0  0  0  0  0  0  0
    1.9610   12.2770   -1.4220 C   0  0  1  0  0  0  0  0  0  0  0  0
    2.8300   11.0100   -1.2040 C   0  0  0  0  0  0  0  0  0  0  0  0
    2.2020   10.0320   -0.2160 C   0  0  0  0  0  0  0  0  0  0  0  0
    0.8160    9.5960   -0.6870 C   0  0  2  0  0  0  0  0  0  0  0  0
    0.9580    8.8220   -1.8820 O   0  0  0  0  0  0  0  0  0  0  0  0
   -0.1450   10.7890   -0.9490 C   0  0  0  0  0  0  0  0  0  0  0  0
   -0.5370   11.4470    0.3980 C   0  0  0  0  0  0  0  0  0  0  0  0
   -1.4580   10.2210   -1.5520 C   0  0  0  0  0  0  0  0  0  0  0  0
    2.6670   13.3470   -2.3600 C   0  0  1  0  0  0  0  0  0  0  0  0
    3.3880   12.6270   -3.5410 C   0  0  0  0  0  0  0  0  0  0  0  0
    3.7890   14.0890   -1.5410 C   0  0  0  0  0  0  0  0  0  0  0  0
    3.3590   15.3340   -0.7430 C   0  0  0  0  0  0  0  0  0  0  0  0
    2.5420   16.2910   -1.6180 C   0  0  2  0  0  0  0  0  0  0  0  0
    3.4680   16.7830   -2.7820 C   0  0  0  0  0  0  0  0  0  0  0  0
    3.3770   18.4892    1.4887 H   0  0  0  0  0  0  0  0  0  0  0  0
    4.0893   17.2197    0.4362 H   0  0  0  0  0  0  0  0  0  0  0  0
    4.7797   18.8781    0.4362 H   0  0  0  0  0  0  0  0  0  0  0  0
    3.5074   18.9142   -1.4970 H   0  0  0  0  0  0  0  0  0  0  0  0
    2.7934   20.7318    0.0786 H   0  0  0  0  0  0  0  0  0  0  0  0
    1.5589   20.2569   -1.1839 H   0  0  0  0  0  0  0  0  0  0  0  0
    0.9902   18.6734    1.0652 H   0  0  0  0  0  0  0  0  0  0  0  0
    1.3160   20.3423    1.6946 H   0  0  0  0  0  0  0  0  0  0  0  0
    0.1221   20.8741   -0.3757 H   0  0  0  0  0  0  0  0  0  0  0  0
   -1.4319   17.7567    1.7962 H   0  0  0  0  0  0  0  0  0  0  0  0
   -2.3012   17.2865    0.2963 H   0  0  0  0  0  0  0  0  0  0  0  0
   -0.5088   17.4035    0.2963 H   0  0  0  0  0  0  0  0  0  0  0  0
   -3.5391   19.9320    0.0103 H   0  0  0  0  0  0  0  0  0  0  0  0
   -2.3709   20.4948   -1.2328 H   0  0  0  0  0  0  0  0  0  0  0  0
   -2.9295   18.7876   -1.2328 H   0  0  0  0  0  0  0  0  0  0  0  0
    1.6349   17.2795    0.1069 H   0  0  0  0  0  0  0  0  0  0  0  0
   -0.0990   18.2255   -1.2868 H   0  0  0  0  0  0  0  0  0  0  0  0
    1.0768   18.8222   -2.4777 H   0  0  0  0  0  0  0  0  0  0  0  0
   -0.5927   16.5250   -2.7989 H   0  0  0  0  0  0  0  0  0  0  0  0
    0.8107   16.8740   -3.8049 H   0  0  0  0  0  0  0  0  0  0  0  0
    0.7706   15.3245    0.0429 H   0  0  0  0  0  0  0  0  0  0  0  0
   -0.6623   15.6282   -0.9969 H   0  0  0  0  0  0  0  0  0  0  0  0
    0.1210   14.0117   -0.9969 H   0  0  0  0  0  0  0  0  0  0  0  0
    2.1528   14.8586   -3.8362 H   0  0  0  0  0  0  0  0  0  0  0  0
   -0.3688   14.3271   -3.7971 H   0  0  0  0  0  0  0  0  0  0  0  0
    0.8335   13.1811   -4.5909 H   0  0  0  0  0  0  0  0  0  0  0  0
   -1.0681   12.0620   -3.1502 H   0  0  0  0  0  0  0  0  0  0  0  0
    1.8555   12.8254   -0.4743 H   0  0  0  0  0  0  0  0  0  0  0  0
    2.9592   10.5006   -2.1704 H   0  0  0  0  0  0  0  0  0  0  0  0
    3.7939   11.3346   -0.7850 H   0  0  0  0  0  0  0  0  0  0  0  0
    2.8474    9.1457   -0.1270 H   0  0  0  0  0  0  0  0  0  0  0  0
    2.1007   10.5329    0.7581 H   0  0  0  0  0  0  0  0  0  0  0  0
    0.3649    9.0011    0.1208 H   0  0  0  0  0  0  0  0  0  0  0  0
    1.9050    8.6410   -2.0050 H   0  0  0  0  0  0  0  0  0  0  0  0
   -0.1683   10.8282    1.2294 H   0  0  0  0  0  0  0  0  0  0  0  0
   -0.0889   12.4496    0.4604 H   0  0  0  0  0  0  0  0  0  0  0  0
   -1.6321   11.5303    0.4604 H   0  0  0  0  0  0  0  0  0  0  0  0
   -2.1378    9.9269   -0.7387 H   0  0  0  0  0  0  0  0  0  0  0  0
   -1.9399   10.9911   -2.1723 H   0  0  0  0  0  0  0  0  0  0  0  0
   -1.2267    9.3425   -2.1723 H   0  0  0  0  0  0  0  0  0  0  0  0
    4.1131   11.9029   -3.1411 H   0  0  0  0  0  0  0  0  0  0  0  0
    2.6450   12.0996   -4.1574 H   0  0  0  0  0  0  0  0  0  0  0  0
    3.9143   13.3707   -4.1574 H   0  0  0  0  0  0  0  0  0  0  0  0
    4.2128   13.3668   -0.8277 H   0  0  0  0  0  0  0  0  0  0  0  0
    4.4969   14.4618   -2.2959 H   0  0  0  0  0  0  0  0  0  0  0  0
    2.7461   15.0181    0.1141 H   0  0  0  0  0  0  0  0  0  0  0  0
    4.2621   15.8587   -0.3979 H   0  0  0  0  0  0  0  0  0  0  0  0
    4.3652   17.2597   -2.3603 H   0  0  0  0  0  0  0  0  0  0  0  0
    3.7659   15.9242   -3.4015 H   0  0  0  0  0  0  0  0  0  0  0  0
    2.9231   17.5105   -3.4015 H   0  0  0  0  0  0  0  0  0  0  0  0
  1  2  1  0
  2  3  1  0
  3  4  1  0
  4  5  1  0
  5  6  1  0
  6  7  1  0
  7  8  1  0
  7  9  1  0
  2 10  1  0
 10 11  1  0
 11 12  1  0
 12 13  1  0
 13 14  1  1
 13 15  1  0
 15 16  1  0
 16 17  1  0
 17 18  2  0
 18 19  1  0
 19 20  1  0
 20 21  1  0
 21 22  1  0
 22 23  1  0
 22 24  1  0
 24 25  1  0
 24 26  1  0
 19 27  1  0
 27 28  1  6
 27 29  1  0
 29 30  1  0
 30 31  1  0
 31 32  1  6
  7  5  1  0
 31 10  1  0
 31 13  1  0
 27 15  1  0
 24 18  1  0
  1 33  1  0
  1 34  1  0
  1 35  1  0
  2 36  1  6
  3 37  1  0
  3 38  1  0
  4 39  1  0
  4 40  1  0
  5 41  1  6
  8 42  1  0
  8 43  1  0
  8 44  1  0
  9 45  1  0
  9 46  1  0
  9 47  1  0
 10 48  1  1
 11 49  1  0
 11 50  1  0
 12 51  1  0
 12 52  1  0
 14 53  1  0
 14 54  1  0
 14 55  1  0
 15 56  1  6
 16 57  1  0
 16 58  1  0
 17 59  1  0
 19 60  1  1
 20 61  1  0
 20 62  1  0
 21 63  1  0
 21 64  1  0
 22 65  1  1
 23 66  1  0
 25 67  1  0
 25 68  1  0
 25 69  1  0
 26 70  1  0
 26 71  1  0
 26 72  1  0
 28 73  1  0
 28 74  1  0
 28 75  1  0
 29 76  1  0
 29 77  1  0
 30 78  1  0
 30 79  1  0
 32 80  1  0
 32 81  1  0
 32 82  1  0
M  END
>  <meeko>  (2) 
{"is_sidechain": [false], "intermolecular_energy": 2.731, "internal_energy": -0.839}

$$$$
EPH_relaxed_0001_pdb2pqr_Repair_322_r2_0001_out
     RDKit          3D

 82 86  0  0  0  0  0  0  0  0999 V2000
    2.7770   17.1940    0.2030 C   0  0  0  0  0  0  0  0  0  0  0  0
    2.3390   17.3840   -1.2520 C   0  0  2  0  0  0  0  0  0  0  0  0
    1.5750   18.7060   -1.4620 C   0  0  0  0  0  0  0  0  0  0  0  0
    1.2460   19.4400   -0.1590 C   0  0  0  0  0  0  0  0  0  0  0  0
   -0.1140   20.0670   -0.2040 C   0  0  2  0  0  0  0  0  0  0  0  0
   -0.7570   20.1940    1.0710 O   0  0  0  0  0  0  0  0  0  0  0  0
   -1.3920   19.3180    0.1260 C   0  0  0  0  0  0  0  0  0  0  0  0
   -1.3700   17.8750    0.5240 C   0  0  0  0  0  0  0  0  0  0  0  0
   -2.6880   19.8430   -0.4080 C   0  0  0  0  0  0  0  0  0  0  0  0
    1.4750   16.2080   -1.6920 C   0  0  1  0  0  0  0  0  0  0  0  0
    0.8610   16.4120   -3.1030 C   0  0  0  0  0  0  0  0  0  0  0  0
    0.8140   15.0160   -3.7760 C   0  0  0  0  0  0  0  0  0  0  0  0
    1.0870   14.0190   -2.6260 C   0  0  1  0  0  0  0  0  0  0  0  0
   -0.2870   13.8550   -1.9030 C   0  0  0  0  0  0  0  0  0  0  0  0
    1.6900   12.6360   -3.0390 C   0  0  2  0  0  0  0  0  0  0  0  0
    0.7970   11.7820   -3.9560 C   0  0  0  0  0  0  0  0  0  0  0  0
   -0.1330   10.8500   -3.2520 C   0  0  0  0  0  0  0  0  0  0  0  0
   -0.0510   10.4950   -1.9560 C   0  0  0  0  0  0  0  0  0  0  0  0
    1.1160   10.9710   -1.0810 C   0  0  1  0  0  0  0  0  0  0  0  0
    1.6760    9.7730   -0.2690 C   0  0  0  0  0  0  0  0  0  0  0  0
    0.5970    9.0560    0.5360 C   0  0  0  0  0  0  0  0  0  0  0  0
   -0.5160    8.5470   -0.3750 C   0  0  2  0  0  0  0  0  0  0  0  0
    0.0120    7.5180   -1.2180 O   0  0  0  0  0  0  0  0  0  0  0  0
   -1.1510    9.6640   -1.2500 C   0  0  0  0  0  0  0  0  0  0  0  0
   -1.9810   10.6170   -0.3550 C   0  0  0  0  0  0  0  0  0  0  0  0
   -2.1590    8.9940   -2.2220 C   0  0  0  0  0  0  0  0  0  0  0  0
    2.2550   11.7880   -1.8290 C   0  0  1  0  0  0  0  0  0  0  0  0
    3.3090   10.8070   -2.4270 C   0  0  0  0  0  0  0  0  0  0  0  0
    3.0220   12.6780   -0.7810 C   0  0  0  0  0  0  0  0  0  0  0  0
    2.4440   14.0800   -0.5040 C   0  0  0  0  0  0  0  0  0  0  0  0
    2.1640   14.8250   -1.8130 C   0  0  2  0  0  0  0  0  0  0  0  0
    3.5310   15.0240   -2.5520 C   0  0  0  0  0  0  0  0  0  0  0  0
    1.9779   17.5407    0.8747 H   0  0  0  0  0  0  0  0  0  0  0  0
    2.9765   16.1285    0.3897 H   0  0  0  0  0  0  0  0  0  0  0  0
    3.6913   17.7764    0.3897 H   0  0  0  0  0  0  0  0  0  0  0  0
    3.2494   17.4284   -1.8678 H   0  0  0  0  0  0  0  0  0  0  0  0
    2.1918   19.3681   -2.0874 H   0  0  0  0  0  0  0  0  0  0  0  0
    0.6168   18.4515   -1.9386 H   0  0  0  0  0  0  0  0  0  0  0  0
    1.2798   18.7214    0.6732 H   0  0  0  0  0  0  0  0  0  0  0  0
    1.9879   20.2401   -0.0196 H   0  0  0  0  0  0  0  0  0  0  0  0
    0.1755   20.6895   -1.0635 H   0  0  0  0  0  0  0  0  0  0  0  0
   -1.3688   17.7973    1.6212 H   0  0  0  0  0  0  0  0  0  0  0  0
   -2.2606   17.3700    0.1216 H   0  0  0  0  0  0  0  0  0  0  0  0
   -0.4645   17.3974    0.1216 H   0  0  0  0  0  0  0  0  0  0  0  0
   -3.3484   20.1105    0.4300 H   0  0  0  0  0  0  0  0  0  0  0  0
   -2.4968   20.7346   -1.0232 H   0  0  0  0  0  0  0  0  0  0  0  0
   -3.1712   19.0697   -1.0232 H   0  0  0  0  0  0  0  0  0  0  0  0
    0.7475   16.1954   -0.8670 H   0  0  0  0  0  0  0  0  0  0  0  0
   -0.1546   16.8260   -3.0180 H   0  0  0  0  0  0  0  0  0  0  0  0
    1.4612   17.1170   -3.6969 H   0  0  0  0  0  0  0  0  0  0  0  0
   -0.1747   14.8330   -4.2220 H   0  0  0  0  0  0  0  0  0  0  0  0
    1.5453   14.9216   -4.5922 H   0  0  0  0  0  0  0  0  0  0  0  0
   -0.1328   13.8734   -0.8140 H   0  0  0  0  0  0  0  0  0  0  0  0
   -0.9546   14.6798   -2.1928 H   0  0  0  0  0  0  0  0  0  0  0  0
   -0.7417   12.8962   -2.1928 H   0  0  0  0  0  0  0  0  0  0  0  0
    2.5538   12.9297   -3.6535 H   0  0  0  0  0  0  0  0  0  0  0  0
    0.1928   12.4636   -4.5728 H   0  0  0  0  0  0  0  0  0  0  0  0
    1.4794   11.1473   -4.5404 H   0  0  0  0  0  0  0  0  0  0  0  0
   -0.9543   10.4170   -3.8419 H   0  0  0  0  0  0  0  0  0  0  0  0
    0.6964   11.7224   -0.3959 H   0  0  0  0  0  0  0  0  0  0  0  0
    2.1301    9.0550   -0.9678 H   0  0  0  0  0  0  0  0  0  0  0  0
    2.4156   10.1688    0.4426 H   0  0  0  0  0  0  0  0  0  0  0  0
    1.0487    8.2029    1.0635 H   0  0  0  0  0  0  0  0  0  0  0  0
    0.1643    9.7676    1.2546 H   0  0  0  0  0  0  0  0  0  0  0  0
   -1.3183    8.1596    0.2701 H   0  0  0  0  0  0  0  0  0  0  0  0
    0.9430    7.7330   -1.3970 H   0  0  0  0  0  0  0  0  0  0  0  0
   -1.7839   10.3907    0.7033 H   0  0  0  0  0  0  0  0  0  0  0  0
   -1.6971   11.6585   -0.5663 H   0  0  0  0  0  0  0  0  0  0  0  0
   -3.0516   10.4788   -0.5663 H   0  0  0  0  0  0  0  0  0  0  0  0
   -2.9379    8.4763   -1.6430 H   0  0  0  0  0  0  0  0  0  0  0  0
   -2.6239    9.7635   -2.8559 H   0  0  0  0  0  0  0  0  0  0  0  0
   -1.6295    8.2675   -2.8559 H   0  0  0  0  0  0  0  0  0  0  0  0
    3.8480   10.3053   -1.6099 H   0  0  0  0  0  0  0  0  0  0  0  0
    2.7994   10.0544   -3.0465 H   0  0  0  0  0  0  0  0  0  0  0  0
    4.0232   11.3692   -3.0465 H   0  0  0  0  0  0  0  0  0  0  0  0
    3.0375   12.1301    0.1727 H   0  0  0  0  0  0  0  0  0  0  0  0
    4.0119   12.8576   -1.2258 H   0  0  0  0  0  0  0  0  0  0  0  0
    1.5051   13.9774    0.0598 H   0  0  0  0  0  0  0  0  0  0  0  0
    3.1803   14.6550    0.0767 H   0  0  0  0  0  0  0  0  0  0  0  0
    4.3350   15.1410   -1.8105 H   0  0  0  0  0  0  0  0  0  0  0  0
    3.7383   14.1466   -3.1822 H   0  0  0  0  0  0  0  0  0  0  0  0
    3.4795   15.9241   -3.1822 H   0  0  0  0  0  0  0  0  0  0  0  0
  1  2  1  0
  2  3  1  0
  3  4  1  0
  4  5  1  0
  5  6  1  0
  6  7  1  0
  7  8  1  0
  7  9  1  0
  2 10  1  0
 10 11  1  0
 11 12  1  0
 12 13  1  0
 13 14  1  1
 13 15  1  0
 15 16  1  0
 16 17  1  0
 17 18  2  0
 18 19  1  0
 19 20  1  0
 20 21  1  0
 21 22  1  0
 22 23  1  0
 22 24  1  0
 24 25  1  0
 24 26  1  0
 19 27  1  0
 27 28  1  6
 27 29  1  0
 29 30  1  0
 30 31  1  0
 31 32  1  6
  7  5  1  0
 31 10  1  0
 31 13  1  0
 27 15  1  0
 24 18  1  0
  1 33  1  0
  1 34  1  0
  1 35  1  0
  2 36  1  6
  3 37  1  0
  3 38  1  0
  4 39  1  0
  4 40  1  0
  5 41  1  6
  8 42  1  0
  8 43  1  0
  8 44  1  0
  9 45  1  0
  9 46  1  0
  9 47  1  0
 10 48  1  1
 11 49  1  0
 11 50  1  0
 12 51  1  0
 12 52  1  0
 14 53  1  0
 14 54  1  0
 14 55  1  0
 15 56  1  6
 16 57  1  0
 16 58  1  0
 17 59  1  0
 19 60  1  1
 20 61  1  0
 20 62  1  0
 21 63  1  0
 21 64  1  0
 22 65  1  1
 23 66  1  0
 25 67  1  0
 25 68  1  0
 25 69  1  0
 26 70  1  0
 26 71  1  0
 26 72  1  0
 28 73  1  0
 28 74  1  0
 28 75  1  0
 29 76  1  0
 29 77  1  0
 30 78  1  0
 30 79  1  0
 32 80  1  0
 32 81  1  0
 32 82  1  0
M  END
>  <meeko>  (3) 
{"is_sidechain": [false], "intermolecular_energy": 2.731, "internal_energy": -0.839}

$$$$
EPH_relaxed_0001_pdb2pqr_Repair_322_r2_0001_out
     RDKit          3D

 82 86  0  0  0  0  0  0  0  0999 V2000
   -1.6300    8.7130   -1.9130 C   0  0  0  0  0  0  0  0  0  0  0  0
   -2.0340    9.1790   -0.5120 C   0  0  2  0  0  0  0  0  0  0  0  0
   -3.5410    9.4900   -0.4150 C   0  0  0  0  0  0  0  0  0  0  0  0
   -4.4220    8.2420   -0.3100 C   0  0  0  0  0  0  0  0  0  0  0  0
   -5.1520    7.9690   -1.5900 C   0  0  2  0  0  0  0  0  0  0  0  0
   -6.3430    8.7440   -1.7770 O   0  0  0  0  0  0  0  0  0  0  0  0
   -6.5240    7.3250   -1.6490 C   0  0  0  0  0  0  0  0  0  0  0  0
   -7.2470    6.9130   -0.4050 C   0  0  0  0  0  0  0  0  0  0  0  0
   -6.9450    6.6540   -2.9190 C   0  0  0  0  0  0  0  0  0  0  0  0
   -1.2220   10.4070   -0.1180 C   0  0  1  0  0  0  0  0  0  0  0  0
   -0.2500   10.1290    1.0600 C   0  0  0  0  0  0  0  0  0  0  0  0
    1.0190   10.9820    0.8040 C   0  0  0  0  0  0  0  0  0  0  0  0
    0.6080   11.9650   -0.3180 C   0  0  1  0  0  0  0  0  0  0  0  0
   -0.1660   13.1060    0.4130 C   0  0  0  0  0  0  0  0  0  0  0  0
    1.7680   12.5280   -1.2020 C   0  0  2  0  0  0  0  0  0  0  0  0
    2.8130   13.3700   -0.4490 C   0  0  0  0  0  0  0  0  0  0  0  0
    2.5260   14.8340   -0.3870 C   0  0  0  0  0  0  0  0  0  0  0  0
    1.6310   15.4890   -1.1490 C   0  0  0  0  0  0  0  0  0  0  0  0
    0.8640   14.7630   -2.2620 C   0  0  1  0  0  0  0  0  0  0  0  0
    0.8930   15.6210   -3.5550 C   0  0  0  0  0  0  0  0  0  0  0  0
    0.3840   17.0410   -3.3260 C   0  0  0  0  0  0  0  0  0  0  0  0
    1.2090   17.7490   -2.2550 C   0  0  2  0  0  0  0  0  0  0  0  0
    2.5370   17.9440   -2.7490 O   0  0  0  0  0  0  0  0  0  0  0  0
    1.2610   16.9730   -0.9090 C   0  0  0  0  0  0  0  0  0  0  0  0
   -0.1280   17.0230   -0.2250 C   0  0  0  0  0  0  0  0  0  0  0  0
    2.2380   17.7230    0.0370 C   0  0  0  0  0  0  0  0  0  0  0  0
    1.2840   13.2530   -2.5220 C   0  0  1  0  0  0  0  0  0  0  0  0
    2.4780   13.1970   -3.5240 C   0  0  0  0  0  0  0  0  0  0  0  0
    0.0880   12.4990   -3.2140 C   0  0  0  0  0  0  0  0  0  0  0  0
   -0.9630   11.8610   -2.2850 C   0  0  0  0  0  0  0  0  0  0  0  0
   -0.2920   11.0200   -1.1950 C   0  0  2  0  0  0  0  0  0  0  0  0
    0.4770    9.8500   -1.8980 C   0  0  0  0  0  0  0  0  0  0  0  0
   -0.9115    7.8842   -1.8307 H   0  0  0  0  0  0  0  0  0  0  0  0
   -2.5227    8.3716   -2.4575 H   0  0  0  0  0  0  0  0  0  0  0  0
   -1.1655    9.5483   -2.4575 H   0  0  0  0  0  0  0  0  0  0  0  0
   -1.8221    8.3544    0.1845 H   0  0  0  0  0  0  0  0  0  0  0  0
   -3.7107   10.1108    0.4771 H   0  0  0  0  0  0  0  0  0  0  0  0
   -3.8232   10.0052   -1.3450 H   0  0  0  0  0  0  0  0  0  0  0  0
   -3.7868    7.3765   -0.0704 H   0  0  0  0  0  0  0  0  0  0  0  0
   -5.1679    8.4145    0.4798 H   0  0  0  0  0  0  0  0  0  0  0  0
   -4.2080    7.7434   -2.1077 H   0  0  0  0  0  0  0  0  0  0  0  0
   -6.6752    7.2388    0.4764 H   0  0  0  0  0  0  0  0  0  0  0  0
   -8.2433    7.3790   -0.3885 H   0  0  0  0  0  0  0  0  0  0  0  0
   -7.3539    5.8183   -0.3885 H   0  0  0  0  0  0  0  0  0  0  0  0
   -7.5158    5.7442   -2.6813 H   0  0  0  0  0  0  0  0  0  0  0  0
   -7.5751    7.3397   -3.5045 H   0  0  0  0  0  0  0  0  0  0  0  0
   -6.0535    6.3850   -3.5045 H   0  0  0  0  0  0  0  0  0  0  0  0
   -2.0418   11.1034    0.1122 H   0  0  0  0  0  0  0  0  0  0  0  0
   -0.7164   10.4204    2.0127 H   0  0  0  0  0  0  0  0  0  0  0  0
   -0.0008    9.0594    1.1223 H   0  0  0  0  0  0  0  0  0  0  0  0
    1.3090   11.5294    1.7130 H   0  0  0  0  0  0  0  0  0  0  0  0
    1.8860   10.3663    0.5226 H   0  0  0  0  0  0  0  0  0  0  0  0
   -0.0751   12.9721    1.5010 H   0  0  0  0  0  0  0  0  0  0  0  0
    0.2591   14.0793    0.1266 H   0  0  0  0  0  0  0  0  0  0  0  0
   -1.2275   13.0709    0.1266 H   0  0  0  0  0  0  0  0  0  0  0  0
    2.2914   11.6124   -1.5146 H   0  0  0  0  0  0  0  0  0  0  0  0
    2.8758   12.9917    0.5820 H   0  0  0  0  0  0  0  0  0  0  0  0
    3.7516   13.2669   -1.0132 H   0  0  0  0  0  0  0  0  0  0  0  0
    3.0947   15.4277    0.3439 H   0  0  0  0  0  0  0  0  0  0  0  0
   -0.1711   14.6631   -1.9033 H   0  0  0  0  0  0  0  0  0  0  0  0
    1.9291   15.6725   -3.9210 H   0  0  0  0  0  0  0  0  0  0  0  0
    0.2280   15.1420   -4.2887 H   0  0  0  0  0  0  0  0  0  0  0  0
    0.4555   17.6054   -4.2674 H   0  0  0  0  0  0  0  0  0  0  0  0
   -0.6613   16.9894   -2.9875 H   0  0  0  0  0  0  0  0  0  0  0  0
    0.7188   18.7109   -2.0440 H   0  0  0  0  0  0  0  0  0  0  0  0
    3.1470   17.8570   -1.9970 H   0  0  0  0  0  0  0  0  0  0  0  0
    0.0009   17.0184    0.8674 H   0  0  0  0  0  0  0  0  0  0  0  0
   -0.6533   17.9406   -0.5284 H   0  0  0  0  0  0  0  0  0  0  0  0
   -0.7179   16.1455   -0.5284 H   0  0  0  0  0  0  0  0  0  0  0  0
    1.9676   17.5154    1.0828 H   0  0  0  0  0  0  0  0  0  0  0  0
    3.2661   17.3800   -0.1509 H   0  0  0  0  0  0  0  0  0  0  0  0
    2.1723   18.8048   -0.1509 H   0  0  0  0  0  0  0  0  0  0  0  0
    3.4242   13.1526   -2.9648 H   0  0  0  0  0  0  0  0  0  0  0  0
    2.3839   12.3023   -4.1569 H   0  0  0  0  0  0  0  0  0  0  0  0
    2.4680   14.0966   -4.1569 H   0  0  0  0  0  0  0  0  0  0  0  0
   -0.4330   13.2225   -3.8583 H   0  0  0  0  0  0  0  0  0  0  0  0
    0.5502   11.6552   -3.7473 H   0  0  0  0  0  0  0  0  0  0  0  0
   -1.5556   12.6575   -1.8114 H   0  0  0  0  0  0  0  0  0  0  0  0
   -1.6104   11.2051   -2.8856 H   0  0  0  0  0  0  0  0  0  0  0  0
    0.9126    9.1873   -1.1357 H   0  0  0  0  0  0  0  0  0  0  0  0
   -0.2214    9.2773   -2.5259 H   0  0  0  0  0  0  0  0  0  0  0  0
    1.2797   10.2639   -2.5259 H   0  0  0  0  0  0  0  0  0  0  0  0
  1  2  1  0
  2  3  1  0
  3  4  1  0
  4  5  1  0
  5  6  1  0
  6  7  1  0
  7  8  1  0
  7  9  1  0
  2 10  1  0
 10 11  1  0
 11 12  1  0
 12 13  1  0
 13 14  1  1
 13 15  1  0
 15 16  1  0
 16 17  1  0
 17 18  2  0
 18 19  1  0
 19 20  1  0
 20 21  1  0
 21 22  1  0
 22 23  1  0
 22 24  1  0
 24 25  1  0
 24 26  1  0
 19 27  1  0
 27 28  1  6
 27 29  1  0
 29 30  1  0
 30 31  1  0
 31 32  1  6
  7  5  1  0
 31 10  1  0
 31 13  1  0
 27 15  1  0
 24 18  1  0
  1 33  1  0
  1 34  1  0
  1 35  1  0
  2 36  1  1
  3 37  1  0
  3 38  1  0
  4 39  1  0
  4 40  1  0
  5 41  1  6
  8 42  1  0
  8 43  1  0
  8 44  1  0
  9 45  1  0
  9 46  1  0
  9 47  1  0
 10 48  1  1
 11 49  1  0
 11 50  1  0
 12 51  1  0
 12 52  1  0
 14 53  1  0
 14 54  1  0
 14 55  1  0
 15 56  1  6
 16 57  1  0
 16 58  1  0
 17 59  1  0
 19 60  1  1
 20 61  1  0
 20 62  1  0
 21 63  1  0
 21 64  1  0
 22 65  1  1
 23 66  1  0
 25 67  1  0
 25 68  1  0
 25 69  1  0
 26 70  1  0
 26 71  1  0
 26 72  1  0
 28 73  1  0
 28 74  1  0
 28 75  1  0
 29 76  1  0
 29 77  1  0
 30 78  1  0
 30 79  1  0
 32 80  1  0
 32 81  1  0
 32 82  1  0
M  END
>  <meeko>  (4) 
{"is_sidechain": [false], "intermolecular_energy": 2.731, "internal_energy": -0.839}

$$$$
EPH_relaxed_0001_pdb2pqr_Repair_322_r2_0001_out
     RDKit          3D

 82 86  0  0  0  0  0  0  0  0999 V2000
    2.5540   18.0680   -2.3850 C   0  0  0  0  0  0  0  0  0  0  0  0
    1.8180   17.3970   -1.2220 C   0  0  2  0  0  0  0  0  0  0  0  0
    2.7740   17.0140   -0.0740 C   0  0  0  0  0  0  0  0  0  0  0  0
    3.8050   18.0970    0.2550 C   0  0  0  0  0  0  0  0  0  0  0  0
    3.5450   18.7220    1.5920 C   0  0  2  0  0  0  0  0  0  0  0  0
    3.9370   20.0970    1.6960 O   0  0  0  0  0  0  0  0  0  0  0  0
    4.6460   19.1710    2.5340 C   0  0  0  0  0  0  0  0  0  0  0  0
    6.0910   19.0120    2.1780 C   0  0  0  0  0  0  0  0  0  0  0  0
    4.3290   19.3110    3.9910 C   0  0  0  0  0  0  0  0  0  0  0  0
    1.0800   16.1590   -1.7190 C   0  0  1  0  0  0  0  0  0  0  0  0
    0.6160   16.2930   -3.1930 C   0  0  0  0  0  0  0  0  0  0  0  0
    0.7260   14.8820   -3.8270 C   0  0  0  0  0  0  0  0  0  0  0  0
    0.9280   13.9300   -2.6250 C   0  0  1  0  0  0  0  0  0  0  0  0
   -0.5060   13.6980   -2.0520 C   0  0  0  0  0  0  0  0  0  0  0  0
    1.6540   12.5790   -2.9270 C   0  0  2  0  0  0  0  0  0  0  0  0
    0.9200   11.6500   -3.9110 C   0  0  0  0  0  0  0  0  0  0  0  0
   -0.0250   10.6780   -3.2860 C   0  0  0  0  0  0  0  0  0  0  0  0
   -0.0680   10.3590   -1.9790 C   0  0  0  0  0  0  0  0  0  0  0  0
    0.9640   10.9260   -0.9950 C   0  0  1  0  0  0  0  0  0  0  0  0
    1.5000    9.7840   -0.0920 C   0  0  0  0  0  0  0  0  0  0  0  0
    0.3830    9.0200    0.6110 C   0  0  0  0  0  0  0  0  0  0  0  0
   -0.5900    8.4220   -0.4020 C   0  0  2  0  0  0  0  0  0  0  0  0
    0.0890    7.4090   -1.1510 O   0  0  0  0  0  0  0  0  0  0  0  0
   -1.1880    9.4780   -1.3740 C   0  0  0  0  0  0  0  0  0  0  0  0
   -2.1680   10.3980   -0.6040 C   0  0  0  0  0  0  0  0  0  0  0  0
   -2.0410    8.7250   -2.4310 C   0  0  0  0  0  0  0  0  0  0  0  0
    2.1290   11.7950   -1.6380 C   0  0  1  0  0  0  0  0  0  0  0  0
    3.2990   10.8670   -2.0860 C   0  0  0  0  0  0  0  0  0  0  0  0
    2.7200   12.7550   -0.5380 C   0  0  0  0  0  0  0  0  0  0  0  0
    2.0340   14.1230   -0.3690 C   0  0  0  0  0  0  0  0  0  0  0  0
    1.8580   14.8200   -1.7220 C   0  0  2  0  0  0  0  0  0  0  0  0
    3.2840   15.0860   -2.3120 C   0  0  0  0  0  0  0  0  0  0  0  0
    3.3124   18.7594   -1.9889 H   0  0  0  0  0  0  0  0  0  0  0  0
    3.0443   17.2996   -3.0008 H   0  0  0  0  0  0  0  0  0  0  0  0
    1.8341   18.6270   -3.0008 H   0  0  0  0  0  0  0  0  0  0  0  0
    1.0966   18.1251   -0.8227 H   0  0  0  0  0  0  0  0  0  0  0  0
    2.1742   16.8201    0.8275 H   0  0  0  0  0  0  0  0  0  0  0  0
    3.3339   16.1266   -0.4042 H   0  0  0  0  0  0  0  0  0  0  0  0
    4.8076   17.6444    0.2620 H   0  0  0  0  0  0  0  0  0  0  0  0
    3.7327   18.8832   -0.5109 H   0  0  0  0  0  0  0  0  0  0  0  0
    2.6584   18.0884    1.7422 H   0  0  0  0  0  0  0  0  0  0  0  0
    6.6902   18.9461    3.0981 H   0  0  0  0  0  0  0  0  0  0  0  0
    6.2242   18.0938    1.5871 H   0  0  0  0  0  0  0  0  0  0  0  0
    6.4206   19.8793    1.5871 H   0  0  0  0  0  0  0  0  0  0  0  0
    5.1743   18.9377    4.5877 H   0  0  0  0  0  0  0  0  0  0  0  0
    4.1528   20.3707    4.2277 H   0  0  0  0  0  0  0  0  0  0  0  0
    3.4271   18.7275    4.2277 H   0  0  0  0  0  0  0  0  0  0  0  0
    0.2674   16.1191   -0.9786 H   0  0  0  0  0  0  0  0  0  0  0  0
   -0.4253   16.6455   -3.2317 H   0  0  0  0  0  0  0  0  0  0  0  0
    1.2363   17.0201   -3.7377 H   0  0  0  0  0  0  0  0  0  0  0  0
   -0.1947   14.6285   -4.3729 H   0  0  0  0  0  0  0  0  0  0  0  0
    1.5472   14.8145   -4.5557 H   0  0  0  0  0  0  0  0  0  0  0  0
   -0.4670   13.7043   -0.9527 H   0  0  0  0  0  0  0  0  0  0  0  0
   -1.1740   14.4998   -2.3998 H   0  0  0  0  0  0  0  0  0  0  0  0
   -0.8871   12.7265   -2.3998 H   0  0  0  0  0  0  0  0  0  0  0  0
    2.5626   12.9119   -3.4501 H   0  0  0  0  0  0  0  0  0  0  0  0
    0.3484   12.2785   -4.6097 H   0  0  0  0  0  0  0  0  0  0  0  0
    1.6995   11.0461   -4.3984 H   0  0  0  0  0  0  0  0  0  0  0  0
   -0.7474   10.1803   -3.9497 H   0  0  0  0  0  0  0  0  0  0  0  0
    0.4272   11.6648   -0.3818 H   0  0  0  0  0  0  0  0  0  0  0  0
    2.0704    9.0798   -0.7156 H   0  0  0  0  0  0  0  0  0  0  0  0
    2.1313   10.2410    0.6843 H   0  0  0  0  0  0  0  0  0  0  0  0
    0.8230    8.2089    1.2097 H   0  0  0  0  0  0  0  0  0  0  0  0
   -0.1682    9.7192    1.2570 H   0  0  0  0  0  0  0  0  0  0  0  0
   -1.4352    8.0000    0.1616 H   0  0  0  0  0  0  0  0  0  0  0  0
    1.0170    7.4020   -0.8610 H   0  0  0  0  0  0  0  0  0  0  0  0
   -2.0241   10.2629    0.4782 H   0  0  0  0  0  0  0  0  0  0  0  0
   -1.9732   11.4470   -0.8717 H   0  0  0  0  0  0  0  0  0  0  0  0
   -3.2026   10.1374   -0.8717 H   0  0  0  0  0  0  0  0  0  0  0  0
   -2.7716    8.0801   -1.9207 H   0  0  0  0  0  0  0  0  0  0  0  0
   -2.5722    9.4541   -3.0605 H   0  0  0  0  0  0  0  0  0  0  0  0
   -1.3834    8.1075   -3.0605 H   0  0  0  0  0  0  0  0  0  0  0  0
    3.8076   10.4636   -1.1980 H   0  0  0  0  0  0  0  0  0  0  0  0
    2.8993   10.0377   -2.6880 H   0  0  0  0  0  0  0  0  0  0  0  0
    4.0155   11.4450   -2.6880 H   0  0  0  0  0  0  0  0  0  0  0  0
    2.6604   12.2313    0.4275 H   0  0  0  0  0  0  0  0  0  0  0  0
    3.7414   12.9850   -0.8755 H   0  0  0  0  0  0  0  0  0  0  0  0
    1.0457   13.9754    0.0908 H   0  0  0  0  0  0  0  0  0  0  0  0
    2.6665   14.7554    0.2713 H   0  0  0  0  0  0  0  0  0  0  0  0
    4.0020   15.2199   -1.4895 H   0  0  0  0  0  0  0  0  0  0  0  0
    3.5905   14.2295   -2.9305 H   0  0  0  0  0  0  0  0  0  0  0  0
    3.2611   15.9954   -2.9305 H   0  0  0  0  0  0  0  0  0  0  0  0
  1  2  1  0
  2  3  1  0
  3  4  1  0
  4  5  1  0
  5  6  1  0
  6  7  1  0
  7  8  1  0
  7  9  1  0
  2 10  1  0
 10 11  1  0
 11 12  1  0
 12 13  1  0
 13 14  1  1
 13 15  1  0
 15 16  1  0
 16 17  1  0
 17 18  2  0
 18 19  1  0
 19 20  1  0
 20 21  1  0
 21 22  1  0
 22 23  1  0
 22 24  1  0
 24 25  1  0
 24 26  1  0
 19 27  1  0
 27 28  1  6
 27 29  1  0
 29 30  1  0
 30 31  1  0
 31 32  1  6
  7  5  1  0
 31 10  1  0
 31 13  1  0
 27 15  1  0
 24 18  1  0
  1 33  1  0
  1 34  1  0
  1 35  1  0
  2 36  1  1
  3 37  1  0
  3 38  1  0
  4 39  1  0
  4 40  1  0
  5 41  1  1
  8 42  1  0
  8 43  1  0
  8 44  1  0
  9 45  1  0
  9 46  1  0
  9 47  1  0
 10 48  1  1
 11 49  1  0
 11 50  1  0
 12 51  1  0
 12 52  1  0
 14 53  1  0
 14 54  1  0
 14 55  1  0
 15 56  1  6
 16 57  1  0
 16 58  1  0
 17 59  1  0
 19 60  1  1
 20 61  1  0
 20 62  1  0
 21 63  1  0
 21 64  1  0
 22 65  1  1
 23 66  1  0
 25 67  1  0
 25 68  1  0
 25 69  1  0
 26 70  1  0
 26 71  1  0
 26 72  1  0
 28 73  1  0
 28 74  1  0
 28 75  1  0
 29 76  1  0
 29 77  1  0
 30 78  1  0
 30 79  1  0
 32 80  1  0
 32 81  1  0
 32 82  1  0
M  END
>  <meeko>  (5) 
{"is_sidechain": [false], "intermolecular_energy": 2.731, "internal_energy": -0.839}

$$$$
EPH_relaxed_0001_pdb2pqr_Repair_322_r2_0001_out
     RDKit          3D

 82 86  0  0  0  0  0  0  0  0999 V2000
   -0.9920    7.8890   -0.6960 C   0  0  0  0  0  0  0  0  0  0  0  0
   -1.3460    9.2200   -0.0260 C   0  0  2  0  0  0  0  0  0  0  0  0
   -2.6130    9.8560   -0.6310 C   0  0  0  0  0  0  0  0  0  0  0  0
   -3.9170    9.3010   -0.0500 C   0  0  0  0  0  0  0  0  0  0  0  0
   -4.2090    7.9230   -0.5610 C   0  0  2  0  0  0  0  0  0  0  0  0
   -4.3100    7.8220   -1.9880 O   0  0  0  0  0  0  0  0  0  0  0  0
   -5.5090    7.5430   -1.2460 C   0  0  0  0  0  0  0  0  0  0  0  0
   -6.6020    8.5430   -1.4560 C   0  0  0  0  0  0  0  0  0  0  0  0
   -5.9090    6.1010   -1.2700 C   0  0  0  0  0  0  0  0  0  0  0  0
   -0.1730   10.1870   -0.1400 C   0  0  1  0  0  0  0  0  0  0  0  0
    1.2000    9.4830    0.0270 C   0  0  0  0  0  0  0  0  0  0  0  0
    2.1940   10.2130   -0.9140 C   0  0  0  0  0  0  0  0  0  0  0  0
    1.4560   11.5050   -1.3350 C   0  0  1  0  0  0  0  0  0  0  0  0
    1.6630   12.4920   -0.1430 C   0  0  0  0  0  0  0  0  0  0  0  0
    1.8960   12.1400   -2.6940 C   0  0  2  0  0  0  0  0  0  0  0  0
    3.3590   12.6130   -2.7500 C   0  0  0  0  0  0  0  0  0  0  0  0
    3.5880   14.0290   -2.3350 C   0  0  0  0  0  0  0  0  0  0  0  0
    2.6340   14.9710   -2.2070 C   0  0  0  0  0  0  0  0  0  0  0  0
    1.1780   14.6730   -2.5860 C   0  0  1  0  0  0  0  0  0  0  0  0
    0.6170   15.8380   -3.4430 C   0  0  0  0  0  0  0  0  0  0  0  0
    0.7770   17.1940   -2.7620 C   0  0  0  0  0  0  0  0  0  0  0  0
    2.2450   17.4800   -2.4540 C   0  0  2  0  0  0  0  0  0  0  0  0
    2.9530   17.6380   -3.6880 O   0  0  0  0  0  0  0  0  0  0  0  0
    2.9200   16.3680   -1.6040 C   0  0  0  0  0  0  0  0  0  0  0  0
    2.3540   16.4000   -0.1620 C   0  0  0  0  0  0  0  0  0  0  0  0
    4.4300   16.7080   -1.4850 C   0  0  0  0  0  0  0  0  0  0  0  0
    0.9080   13.2500   -3.2400 C   0  0  1  0  0  0  0  0  0  0  0  0
    1.1300   13.3230   -4.7820 C   0  0  0  0  0  0  0  0  0  0  0  0
   -0.6030   12.8630   -3.0270 C   0  0  0  0  0  0  0  0  0  0  0  0
   -0.9540   12.1310   -1.7170 C   0  0  0  0  0  0  0  0  0  0  0  0
   -0.0080   10.9510   -1.4790 C   0  0  2  0  0  0  0  0  0  0  0  0
   -0.2110    9.9300   -2.6500 C   0  0  0  0  0  0  0  0  0  0  0  0
   -0.7906    7.1319    0.0762 H   0  0  0  0  0  0  0  0  0  0  0  0
   -1.8335    7.5587   -1.3227 H   0  0  0  0  0  0  0  0  0  0  0  0
   -0.0976    8.0204   -1.3227 H   0  0  0  0  0  0  0  0  0  0  0  0
   -1.5552    9.0116    1.0336 H   0  0  0  0  0  0  0  0  0  0  0  0
   -2.5819   10.9393   -0.4424 H   0  0  0  0  0  0  0  0  0  0  0  0
   -2.6117    9.6171   -1.7048 H   0  0  0  0  0  0  0  0  0  0  0  0
   -3.8317    9.2641    1.0461 H   0  0  0  0  0  0  0  0  0  0  0  0
   -4.7393    9.9629   -0.3593 H   0  0  0  0  0  0  0  0  0  0  0  0
   -3.6554    7.4702    0.2748 H   0  0  0  0  0  0  0  0  0  0  0  0
   -6.9772    8.8863   -0.4806 H   0  0  0  0  0  0  0  0  0  0  0  0
   -6.2099    9.4016   -2.0209 H   0  0  0  0  0  0  0  0  0  0  0  0
   -7.4224    8.0763   -2.0209 H   0  0  0  0  0  0  0  0  0  0  0  0
   -6.0114    5.7317   -0.2389 H   0  0  0  0  0  0  0  0  0  0  0  0
   -6.8702    5.9958   -1.7944 H   0  0  0  0  0  0  0  0  0  0  0  0
   -5.1393    5.5157   -1.7944 H   0  0  0  0  0  0  0  0  0  0  0  0
   -0.4348   10.8899    0.6646 H   0  0  0  0  0  0  0  0  0  0  0  0
    1.5404    9.5591    1.0702 H   0  0  0  0  0  0  0  0  0  0  0  0
    1.1295    8.4146   -0.2249 H   0  0  0  0  0  0  0  0  0  0  0  0
    3.1263   10.4541   -0.3822 H   0  0  0  0  0  0  0  0  0  0  0  0
    2.4799    9.5956   -1.7783 H   0  0  0  0  0  0  0  0  0  0  0  0
    1.5491   11.9489    0.8068 H   0  0  0  0  0  0  0  0  0  0  0  0
    2.6719   12.9269   -0.1980 H   0  0  0  0  0  0  0  0  0  0  0  0
    0.9138   13.2956   -0.1980 H   0  0  0  0  0  0  0  0  0  0  0  0
    1.8318   11.2868   -3.3853 H   0  0  0  0  0  0  0  0  0  0  0  0
    3.9514   11.9647   -2.0876 H   0  0  0  0  0  0  0  0  0  0  0  0
    3.6577   12.5536   -3.8070 H   0  0  0  0  0  0  0  0  0  0  0  0
    4.6235   14.3280   -2.1152 H   0  0  0  0  0  0  0  0  0  0  0  0
    0.6251   14.6070   -1.6373 H   0  0  0  0  0  0  0  0  0  0  0  0
    1.1535   15.8599   -4.4030 H   0  0  0  0  0  0  0  0  0  0  0  0
   -0.4592   15.6603   -3.5851 H   0  0  0  0  0  0  0  0  0  0  0  0
    0.3892   17.9792   -3.4277 H   0  0  0  0  0  0  0  0  0  0  0  0
    0.2159   17.1802   -1.8160 H   0  0  0  0  0  0  0  0  0  0  0  0
    2.2826   18.4009   -1.8535 H   0  0  0  0  0  0  0  0  0  0  0  0
    3.2540   18.5610   -3.7380 H   0  0  0  0  0  0  0  0  0  0  0  0
    3.1837   16.3531    0.5587 H   0  0  0  0  0  0  0  0  0  0  0  0
    1.7889   17.3315   -0.0105 H   0  0  0  0  0  0  0  0  0  0  0  0
    1.6875   15.5381   -0.0105 H   0  0  0  0  0  0  0  0  0  0  0  0
    4.7091   16.7708   -0.4229 H   0  0  0  0  0  0  0  0  0  0  0  0
    5.0227   15.9208   -1.9739 H   0  0  0  0  0  0  0  0  0  0  0  0
    4.6281   17.6732   -1.9739 H   0  0  0  0  0  0  0  0  0  0  0  0
    2.1563   13.6605   -4.9891 H   0  0  0  0  0  0  0  0  0  0  0  0
    0.9757   12.3268   -5.2222 H   0  0  0  0  0  0  0  0  0  0  0  0
    0.4146   14.0332   -5.2222 H   0  0  0  0  0  0  0  0  0  0  0  0
   -1.1920   13.7915   -3.0577 H   0  0  0  0  0  0  0  0  0  0  0  0
   -0.8324   12.1454   -3.8285 H   0  0  0  0  0  0  0  0  0  0  0  0
   -0.8687   12.8359   -0.8768 H   0  0  0  0  0  0  0  0  0  0  0  0
   -1.9819   11.7469   -1.7941 H   0  0  0  0  0  0  0  0  0  0  0  0
   -0.4097    8.9308   -2.2350 H   0  0  0  0  0  0  0  0  0  0  0  0
   -1.0638   10.2463   -3.2686 H   0  0  0  0  0  0  0  0  0  0  0  0
    0.6980    9.8960   -3.2686 H   0  0  0  0  0  0  0  0  0  0  0  0
  1  2  1  0
  2  3  1  0
  3  4  1  0
  4  5  1  0
  5  6  1  0
  6  7  1  0
  7  8  1  0
  7  9  1  0
  2 10  1  0
 10 11  1  0
 11 12  1  0
 12 13  1  0
 13 14  1  1
 13 15  1  0
 15 16  1  0
 16 17  1  0
 17 18  2  0
 18 19  1  0
 19 20  1  0
 20 21  1  0
 21 22  1  0
 22 23  1  0
 22 24  1  0
 24 25  1  0
 24 26  1  0
 19 27  1  0
 27 28  1  6
 27 29  1  0
 29 30  1  0
 30 31  1  0
 31 32  1  6
  7  5  1  0
 31 10  1  0
 31 13  1  0
 27 15  1  0
 24 18  1  0
  1 33  1  0
  1 34  1  0
  1 35  1  0
  2 36  1  1
  3 37  1  0
  3 38  1  0
  4 39  1  0
  4 40  1  0
  5 41  1  1
  8 42  1  0
  8 43  1  0
  8 44  1  0
  9 45  1  0
  9 46  1  0
  9 47  1  0
 10 48  1  1
 11 49  1  0
 11 50  1  0
 12 51  1  0
 12 52  1  0
 14 53  1  0
 14 54  1  0
 14 55  1  0
 15 56  1  6
 16 57  1  0
 16 58  1  0
 17 59  1  0
 19 60  1  1
 20 61  1  0
 20 62  1  0
 21 63  1  0
 21 64  1  0
 22 65  1  1
 23 66  1  0
 25 67  1  0
 25 68  1  0
 25 69  1  0
 26 70  1  0
 26 71  1  0
 26 72  1  0
 28 73  1  0
 28 74  1  0
 28 75  1  0
 29 76  1  0
 29 77  1  0
 30 78  1  0
 30 79  1  0
 32 80  1  0
 32 81  1  0
 32 82  1  0
M  END
>  <meeko>  (6) 
{"is_sidechain": [false], "intermolecular_energy": 2.731, "internal_energy": -0.839}

$$$$
EPH_relaxed_0001_pdb2pqr_Repair_322_r2_0001_out
     RDKit          3D

 82 86  0  0  0  0  0  0  0  0999 V2000
    3.6330   17.9640   -1.4810 C   0  0  0  0  0  0  0  0  0  0  0  0
    2.5720   17.4880   -2.4770 C   0  0  2  0  0  0  0  0  0  0  0  0
    1.1600   17.9790   -2.0990 C   0  0  0  0  0  0  0  0  0  0  0  0
    1.1300   18.8690   -0.8540 C   0  0  0  0  0  0  0  0  0  0  0  0
   -0.1160   19.6990   -0.7950 C   0  0  2  0  0  0  0  0  0  0  0  0
   -0.4450   20.1940    0.5100 O   0  0  0  0  0  0  0  0  0  0  0  0
   -1.3760   19.2660   -0.0690 C   0  0  0  0  0  0  0  0  0  0  0  0
   -1.4530   17.9540    0.6470 C   0  0  0  0  0  0  0  0  0  0  0  0
   -2.6790   19.8870   -0.4650 C   0  0  0  0  0  0  0  0  0  0  0  0
    2.5880   15.9670   -2.5660 C   0  0  1  0  0  0  0  0  0  0  0  0
    4.0160   15.3960   -2.7740 C   0  0  0  0  0  0  0  0  0  0  0  0
    4.0760   14.0510   -2.0040 C   0  0  0  0  0  0  0  0  0  0  0  0
    2.6020   13.7310   -1.6620 C   0  0  1  0  0  0  0  0  0  0  0  0
    2.0150   13.1040   -2.9660 C   0  0  0  0  0  0  0  0  0  0  0  0
    2.3650   12.8110   -0.4210 C   0  0  2  0  0  0  0  0  0  0  0  0
    2.9470   11.3920   -0.5410 C   0  0  0  0  0  0  0  0  0  0  0  0
    2.0250   10.3710   -1.1220 C   0  0  0  0  0  0  0  0  0  0  0  0
    0.6950   10.5120   -1.2680 C   0  0  0  0  0  0  0  0  0  0  0  0
   -0.0290   11.7560   -0.7370 C   0  0  1  0  0  0  0  0  0  0  0  0
   -1.3030   11.3250    0.0350 C   0  0  0  0  0  0  0  0  0  0  0  0
   -2.2160   10.4290   -0.7970 C   0  0  0  0  0  0  0  0  0  0  0  0
   -1.4780    9.1750   -1.2570 C   0  0  2  0  0  0  0  0  0  0  0  0
   -1.1750    8.3720   -0.1120 O   0  0  0  0  0  0  0  0  0  0  0  0
   -0.1710    9.4850   -2.0390 C   0  0  0  0  0  0  0  0  0  0  0  0
   -0.5220   10.0870   -3.4220 C   0  0  0  0  0  0  0  0  0  0  0  0
    0.5480    8.1380   -2.3210 C   0  0  0  0  0  0  0  0  0  0  0  0
    0.8660   12.7800    0.0860 C   0  0  1  0  0  0  0  0  0  0  0  0
    0.9120   12.3590    1.5870 C   0  0  0  0  0  0  0  0  0  0  0  0
    0.1910   14.2020    0.0440 C   0  0  0  0  0  0  0  0  0  0  0  0
    0.5580   15.1100   -1.1450 C   0  0  0  0  0  0  0  0  0  0  0  0
    2.0760   15.1770   -1.3360 C   0  0  2  0  0  0  0  0  0  0  0  0
    2.6920   15.8240   -0.0500 C   0  0  0  0  0  0  0  0  0  0  0  0
    3.2716   17.8018   -0.4548 H   0  0  0  0  0  0  0  0  0  0  0  0
    4.5625   17.3966   -1.6363 H   0  0  0  0  0  0  0  0  0  0  0  0
    3.8272   19.0355   -1.6363 H   0  0  0  0  0  0  0  0  0  0  0  0
    2.8206   17.9201   -3.4576 H   0  0  0  0  0  0  0  0  0  0  0  0
    0.7537   18.5522   -2.9454 H   0  0  0  0  0  0  0  0  0  0  0  0
    0.5601   17.0859   -1.8698 H   0  0  0  0  0  0  0  0  0  0  0  0
    1.1760   18.2313    0.0411 H   0  0  0  0  0  0  0  0  0  0  0  0
    1.9931   19.5495   -0.8985 H   0  0  0  0  0  0  0  0  0  0  0  0
    0.0566   20.0726   -1.8151 H   0  0  0  0  0  0  0  0  0  0  0  0
   -1.4428   18.1279    1.7331 H   0  0  0  0  0  0  0  0  0  0  0  0
   -2.3830   17.4375    0.3671 H   0  0  0  0  0  0  0  0  0  0  0  0
   -0.5898   17.3323    0.3671 H   0  0  0  0  0  0  0  0  0  0  0  0
   -3.2459   20.1572    0.4381 H   0  0  0  0  0  0  0  0  0  0  0  0
   -2.4879   20.7909   -1.0621 H   0  0  0  0  0  0  0  0  0  0  0  0
   -3.2608   19.1693   -1.0621 H   0  0  0  0  0  0  0  0  0  0  0  0
    1.9035   15.8248   -3.4153 H   0  0  0  0  0  0  0  0  0  0  0  0
    4.2048   15.2284   -3.8446 H   0  0  0  0  0  0  0  0  0  0  0  0
    4.7794   16.0969   -2.4053 H   0  0  0  0  0  0  0  0  0  0  0  0
    4.5084   13.2610   -2.6356 H   0  0  0  0  0  0  0  0  0  0  0  0
    4.7087   14.1122   -1.1062 H   0  0  0  0  0  0  0  0  0  0  0  0
    1.2852   12.3245   -2.7017 H   0  0  0  0  0  0  0  0  0  0  0  0
    1.5175   13.8867   -3.5574 H   0  0  0  0  0  0  0  0  0  0  0  0
    2.8288   12.6591   -3.5574 H   0  0  0  0  0  0  0  0  0  0  0  0
    2.9558   13.3114    0.3604 H   0  0  0  0  0  0  0  0  0  0  0  0
    3.8415   11.4444   -1.1791 H   0  0  0  0  0  0  0  0  0  0  0  0
    3.1576   11.0617    0.4869 H   0  0  0  0  0  0  0  0  0  0  0  0
    2.4709    9.4236   -1.4591 H   0  0  0  0  0  0  0  0  0  0  0  0
   -0.3113   12.3442   -1.6226 H   0  0  0  0  0  0  0  0  0  0  0  0
   -0.9991   10.7766    0.9388 H   0  0  0  0  0  0  0  0  0  0  0  0
   -1.8665   12.2361    0.2847 H   0  0  0  0  0  0  0  0  0  0  0  0
   -3.0828   10.1334   -0.1877 H   0  0  0  0  0  0  0  0  0  0  0  0
   -2.5432   10.9894   -1.6852 H   0  0  0  0  0  0  0  0  0  0  0  0
   -2.1401    8.6397   -1.9534 H   0  0  0  0  0  0  0  0  0  0  0  0
   -0.9110    8.9720    0.6060 H   0  0  0  0  0  0  0  0  0  0  0  0
   -1.0716   11.0296   -3.2828 H   0  0  0  0  0  0  0  0  0  0  0  0
    0.4040   10.2819   -3.9828 H   0  0  0  0  0  0  0  0  0  0  0  0
   -1.1477    9.3771   -3.9828 H   0  0  0  0  0  0  0  0  0  0  0  0
    0.8065    7.6537   -1.3677 H   0  0  0  0  0  0  0  0  0  0  0  0
   -0.1189    7.4801   -2.8975 H   0  0  0  0  0  0  0  0  0  0  0  0
    1.4658    8.3259   -2.8975 H   0  0  0  0  0  0  0  0  0  0  0  0
    0.8144   13.2522    2.2215 H   0  0  0  0  0  0  0  0  0  0  0  0
    0.0842   11.6664    1.7991 H   0  0  0  0  0  0  0  0  0  0  0  0
    1.8699   11.8615    1.7991 H   0  0  0  0  0  0  0  0  0  0  0  0
   -0.8987   14.0527    0.0248 H   0  0  0  0  0  0  0  0  0  0  0  0
    0.5688   14.7264    0.9341 H   0  0  0  0  0  0  0  0  0  0  0  0
    0.0977   14.7085   -2.0598 H   0  0  0  0  0  0  0  0  0  0  0  0
    0.1854   16.1244   -0.9395 H   0  0  0  0  0  0  0  0  0  0  0  0
    2.2489   15.3586    0.8428 H   0  0  0  0  0  0  0  0  0  0  0  0
    3.7804   15.6646   -0.0447 H   0  0  0  0  0  0  0  0  0  0  0  0
    2.4794   16.9033   -0.0447 H   0  0  0  0  0  0  0  0  0  0  0  0
  1  2  1  0
  2  3  1  0
  3  4  1  0
  4  5  1  0
  5  6  1  0
  6  7  1  0
  7  8  1  0
  7  9  1  0
  2 10  1  0
 10 11  1  0
 11 12  1  0
 12 13  1  0
 13 14  1  6
 13 15  1  0
 15 16  1  0
 16 17  1  0
 17 18  2  0
 18 19  1  0
 19 20  1  0
 20 21  1  0
 21 22  1  0
 22 23  1  0
 22 24  1  0
 24 25  1  0
 24 26  1  0
 19 27  1  0
 27 28  1  1
 27 29  1  0
 29 30  1  0
 30 31  1  0
 31 32  1  1
  7  5  1  0
 31 10  1  0
 31 13  1  0
 27 15  1  0
 24 18  1  0
  1 33  1  0
  1 34  1  0
  1 35  1  0
  2 36  1  6
  3 37  1  0
  3 38  1  0
  4 39  1  0
  4 40  1  0
  5 41  1  6
  8 42  1  0
  8 43  1  0
  8 44  1  0
  9 45  1  0
  9 46  1  0
  9 47  1  0
 10 48  1  6
 11 49  1  0
 11 50  1  0
 12 51  1  0
 12 52  1  0
 14 53  1  0
 14 54  1  0
 14 55  1  0
 15 56  1  1
 16 57  1  0
 16 58  1  0
 17 59  1  0
 19 60  1  6
 20 61  1  0
 20 62  1  0
 21 63  1  0
 21 64  1  0
 22 65  1  6
 23 66  1  0
 25 67  1  0
 25 68  1  0
 25 69  1  0
 26 70  1  0
 26 71  1  0
 26 72  1  0
 28 73  1  0
 28 74  1  0
 28 75  1  0
 29 76  1  0
 29 77  1  0
 30 78  1  0
 30 79  1  0
 32 80  1  0
 32 81  1  0
 32 82  1  0
M  END
>  <meeko>  (7) 
{"is_sidechain": [false], "intermolecular_energy": 2.731, "internal_energy": -0.839}

$$$$
EPH_relaxed_0001_pdb2pqr_Repair_322_r2_0001_out
     RDKit          3D

 82 86  0  0  0  0  0  0  0  0999 V2000
    0.1190   10.2560   -3.4470 C   0  0  0  0  0  0  0  0  0  0  0  0
    1.1570   10.1170   -2.3300 C   0  0  2  0  0  0  0  0  0  0  0  0
    0.8870    8.8900   -1.4360 C   0  0  0  0  0  0  0  0  0  0  0  0
    0.1110    9.2190   -0.1580 C   0  0  0  0  0  0  0  0  0  0  0  0
   -1.3150    8.7650   -0.2430 C   0  0  2  0  0  0  0  0  0  0  0  0
   -1.8770    8.8010   -1.5610 O   0  0  0  0  0  0  0  0  0  0  0  0
   -2.4660    9.6880   -0.5960 C   0  0  0  0  0  0  0  0  0  0  0  0
   -2.2430   11.1390   -0.8870 C   0  0  0  0  0  0  0  0  0  0  0  0
   -3.8500    9.2950   -0.1840 C   0  0  0  0  0  0  0  0  0  0  0  0
    1.1810   11.3840   -1.4830 C   0  0  1  0  0  0  0  0  0  0  0  0
    2.0540   11.2330   -0.2080 C   0  0  0  0  0  0  0  0  0  0  0  0
    2.7160   12.6120    0.0460 C   0  0  0  0  0  0  0  0  0  0  0  0
    1.9530   13.5880   -0.8810 C   0  0  1  0  0  0  0  0  0  0  0  0
    0.6420   13.9330   -0.1070 C   0  0  0  0  0  0  0  0  0  0  0  0
    2.7250   14.8770   -1.3130 C   0  0  2  0  0  0  0  0  0  0  0  0
    3.1160   15.8200   -0.1620 C   0  0  0  0  0  0  0  0  0  0  0  0
    2.1110   16.8720    0.1700 C   0  0  0  0  0  0  0  0  0  0  0  0
    1.0740   17.2360   -0.6080 C   0  0  0  0  0  0  0  0  0  0  0  0
    0.8890   16.6340   -2.0060 C   0  0  1  0  0  0  0  0  0  0  0  0
    0.5790   17.7660   -3.0210 C   0  0  0  0  0  0  0  0  0  0  0  0
   -0.6070   18.6260   -2.5940 C   0  0  0  0  0  0  0  0  0  0  0  0
   -0.3600   19.2540   -1.2240 C   0  0  2  0  0  0  0  0  0  0  0  0
    0.7130   20.1940   -1.3350 O   0  0  0  0  0  0  0  0  0  0  0  0
   -0.0280   18.2100   -0.1220 C   0  0  0  0  0  0  0  0  0  0  0  0
   -1.2950   17.3830    0.2100 C   0  0  0  0  0  0  0  0  0  0  0  0
    0.3370   18.9830    1.1740 C   0  0  0  0  0  0  0  0  0  0  0  0
    2.0490   15.6690   -2.5050 C   0  0  1  0  0  0  0  0  0  0  0  0
    3.1790   16.5010   -3.1840 C   0  0  0  0  0  0  0  0  0  0  0  0
    1.4770   14.7080   -3.6130 C   0  0  0  0  0  0  0  0  0  0  0  0
    0.8330   13.3940   -3.1300 C   0  0  0  0  0  0  0  0  0  0  0  0
    1.7480   12.6680   -2.1390 C   0  0  2  0  0  0  0  0  0  0  0  0
    3.0660   12.2880   -2.8950 C   0  0  0  0  0  0  0  0  0  0  0  0
   -0.8794   10.3897   -3.0051 H   0  0  0  0  0  0  0  0  0  0  0  0
    0.3646   11.1293   -4.0692 H   0  0  0  0  0  0  0  0  0  0  0  0
    0.1262    9.3489   -4.0692 H   0  0  0  0  0  0  0  0  0  0  0  0
    2.1378    9.9691   -2.8055 H   0  0  0  0  0  0  0  0  0  0  0  0
    0.3059    8.1584   -2.0166 H   0  0  0  0  0  0  0  0  0  0  0  0
    1.8662    8.4966   -1.1254 H   0  0  0  0  0  0  0  0  0  0  0  0
    0.5951    8.7164    0.6924 H   0  0  0  0  0  0  0  0  0  0  0  0
    0.1159   10.3110   -0.0253 H   0  0  0  0  0  0  0  0  0  0  0  0
   -1.1642    8.0570    0.5853 H   0  0  0  0  0  0  0  0  0  0  0  0
   -2.1577   11.6938    0.0590 H   0  0  0  0  0  0  0  0  0  0  0  0
   -1.3160   11.2584   -1.4669 H   0  0  0  0  0  0  0  0  0  0  0  0
   -3.0914   11.5313   -1.4669 H   0  0  0  0  0  0  0  0  0  0  0  0
   -3.9144    9.2767    0.9140 H   0  0  0  0  0  0  0  0  0  0  0  0
   -4.5718   10.0237   -0.5816 H   0  0  0  0  0  0  0  0  0  0  0  0
   -4.0811    8.2957   -0.5816 H   0  0  0  0  0  0  0  0  0  0  0  0
    0.1033   11.5018   -1.2965 H   0  0  0  0  0  0  0  0  0  0  0  0
    1.4261   10.9503    0.6498 H   0  0  0  0  0  0  0  0  0  0  0  0
    2.8135   10.4483   -0.3397 H   0  0  0  0  0  0  0  0  0  0  0  0
    2.6034   12.9087    1.0992 H   0  0  0  0  0  0  0  0  0  0  0  0
    3.7965   12.6002   -0.1596 H   0  0  0  0  0  0  0  0  0  0  0  0
    0.8314   13.8832    0.9754 H   0  0  0  0  0  0  0  0  0  0  0  0
    0.3140   14.9480   -0.3755 H   0  0  0  0  0  0  0  0  0  0  0  0
   -0.1432   13.2109   -0.3755 H   0  0  0  0  0  0  0  0  0  0  0  0
    3.6706   14.4674   -1.6978 H   0  0  0  0  0  0  0  0  0  0  0  0
    3.2780   15.2087    0.7380 H   0  0  0  0  0  0  0  0  0  0  0  0
    4.0160   16.3549   -0.4994 H   0  0  0  0  0  0  0  0  0  0  0  0
    2.2271   17.3941    1.1312 H   0  0  0  0  0  0  0  0  0  0  0  0
    0.0284   15.9530   -1.9315 H   0  0  0  0  0  0  0  0  0  0  0  0
    1.4662   18.4097   -3.1132 H   0  0  0  0  0  0  0  0  0  0  0  0
    0.3205   17.2931   -3.9799 H   0  0  0  0  0  0  0  0  0  0  0  0
   -0.7574   19.4253   -3.3347 H   0  0  0  0  0  0  0  0  0  0  0  0
   -1.5000   17.9868   -2.5316 H   0  0  0  0  0  0  0  0  0  0  0  0
   -1.2923   19.7495   -0.9153 H   0  0  0  0  0  0  0  0  0  0  0  0
    0.9680   20.4570   -0.4350 H   0  0  0  0  0  0  0  0  0  0  0  0
   -1.4088   17.3087    1.3016 H   0  0  0  0  0  0  0  0  0  0  0  0
   -2.1789   17.8786   -0.2179 H   0  0  0  0  0  0  0  0  0  0  0  0
   -1.1971   16.3744   -0.2179 H   0  0  0  0  0  0  0  0  0  0  0  0
    0.0536   18.3827    2.0511 H   0  0  0  0  0  0  0  0  0  0  0  0
    1.4202   19.1735    1.1946 H   0  0  0  0  0  0  0  0  0  0  0  0
   -0.2041   19.9405    1.1946 H   0  0  0  0  0  0  0  0  0  0  0  0
    3.8085   16.9645   -2.4102 H   0  0  0  0  0  0  0  0  0  0  0  0
    3.7954   15.8395   -3.8105 H   0  0  0  0  0  0  0  0  0  0  0  0
    2.7304   17.2860   -3.8105 H   0  0  0  0  0  0  0  0  0  0  0  0
    0.7133   15.2657   -4.1749 H   0  0  0  0  0  0  0  0  0  0  0  0
    2.3515   14.3989   -4.2044 H   0  0  0  0  0  0  0  0  0  0  0  0
   -0.1233   13.6219   -2.6365 H   0  0  0  0  0  0  0  0  0  0  0  0
    0.6706   12.7417   -4.0007 H   0  0  0  0  0  0  0  0  0  0  0  0
    3.8556   12.0604   -2.1637 H   0  0  0  0  0  0  0  0  0  0  0  0
    2.8852   11.4054   -3.5261 H   0  0  0  0  0  0  0  0  0  0  0  0
    3.3829   13.1314   -3.5261 H   0  0  0  0  0  0  0  0  0  0  0  0
  1  2  1  0
  2  3  1  0
  3  4  1  0
  4  5  1  0
  5  6  1  0
  6  7  1  0
  7  8  1  0
  7  9  1  0
  2 10  1  0
 10 11  1  0
 11 12  1  0
 12 13  1  0
 13 14  1  1
 13 15  1  0
 15 16  1  0
 16 17  1  0
 17 18  2  0
 18 19  1  0
 19 20  1  0
 20 21  1  0
 21 22  1  0
 22 23  1  0
 22 24  1  0
 24 25  1  0
 24 26  1  0
 19 27  1  0
 27 28  1  6
 27 29  1  0
 29 30  1  0
 30 31  1  0
 31 32  1  6
  7  5  1  0
 31 10  1  0
 31 13  1  0
 27 15  1  0
 24 18  1  0
  1 33  1  0
  1 34  1  0
  1 35  1  0
  2 36  1  6
  3 37  1  0
  3 38  1  0
  4 39  1  0
  4 40  1  0
  5 41  1  1
  8 42  1  0
  8 43  1  0
  8 44  1  0
  9 45  1  0
  9 46  1  0
  9 47  1  0
 10 48  1  1
 11 49  1  0
 11 50  1  0
 12 51  1  0
 12 52  1  0
 14 53  1  0
 14 54  1  0
 14 55  1  0
 15 56  1  6
 16 57  1  0
 16 58  1  0
 17 59  1  0
 19 60  1  1
 20 61  1  0
 20 62  1  0
 21 63  1  0
 21 64  1  0
 22 65  1  1
 23 66  1  0
 25 67  1  0
 25 68  1  0
 25 69  1  0
 26 70  1  0
 26 71  1  0
 26 72  1  0
 28 73  1  0
 28 74  1  0
 28 75  1  0
 29 76  1  0
 29 77  1  0
 30 78  1  0
 30 79  1  0
 32 80  1  0
 32 81  1  0
 32 82  1  0
M  END
>  <meeko>  (8) 
{"is_sidechain": [false], "intermolecular_energy": 2.731, "internal_energy": -0.839}

$$$$
EPH_relaxed_0001_pdb2pqr_Repair_322_r2_0001_out
     RDKit          3D

 82 86  0  0  0  0  0  0  0  0999 V2000
   -2.5890    7.5840   -3.0520 C   0  0  0  0  0  0  0  0  0  0  0  0
   -2.8860    7.8490   -1.5730 C   0  0  2  0  0  0  0  0  0  0  0  0
   -4.3960    7.7960   -1.2650 C   0  0  0  0  0  0  0  0  0  0  0  0
   -5.1170    6.6160   -1.9230 C   0  0  0  0  0  0  0  0  0  0  0  0
   -6.3160    7.0650   -2.7030 C   0  0  2  0  0  0  0  0  0  0  0  0
   -6.8890    8.3020   -2.2610 O   0  0  0  0  0  0  0  0  0  0  0  0
   -7.7150    7.1350   -2.1200 C   0  0  0  0  0  0  0  0  0  0  0  0
   -7.9890    6.7510   -0.7000 C   0  0  0  0  0  0  0  0  0  0  0  0
   -8.8820    7.1050   -3.0570 C   0  0  0  0  0  0  0  0  0  0  0  0
   -2.3170    9.2020   -1.1630 C   0  0  1  0  0  0  0  0  0  0  0  0
   -2.8420    9.6770    0.2180 C   0  0  0  0  0  0  0  0  0  0  0  0
   -1.6800   10.4430    0.9000 C   0  0  0  0  0  0  0  0  0  0  0  0
   -0.6480   10.6710   -0.2300 C   0  0  1  0  0  0  0  0  0  0  0  0
   -1.1770   11.9150   -1.0110 C   0  0  0  0  0  0  0  0  0  0  0  0
    0.8370   10.8610    0.2190 C   0  0  2  0  0  0  0  0  0  0  0  0
    1.1000   12.0930    1.1020 C   0  0  0  0  0  0  0  0  0  0  0  0
    1.4580   13.3420    0.3650 C   0  0  0  0  0  0  0  0  0  0  0  0
    1.8420   13.4060   -0.9240 C   0  0  0  0  0  0  0  0  0  0  0  0
    2.0430   12.1300   -1.7510 C   0  0  1  0  0  0  0  0  0  0  0  0
    3.3820   12.2220   -2.5280 C   0  0  0  0  0  0  0  0  0  0  0  0
    3.4810   13.4870   -3.3740 C   0  0  0  0  0  0  0  0  0  0  0  0
    3.3350   14.7360   -2.5080 C   0  0  2  0  0  0  0  0  0  0  0  0
    4.4660   14.8260   -1.6360 O   0  0  0  0  0  0  0  0  0  0  0  0
    2.0260   14.7500   -1.6700 C   0  0  0  0  0  0  0  0  0  0  0  0
    0.8110   14.9560   -2.6080 C   0  0  0  0  0  0  0  0  0  0  0  0
    2.0700   15.9910   -0.7380 C   0  0  0  0  0  0  0  0  0  0  0  0
    1.8890   10.7600   -0.9600 C   0  0  1  0  0  0  0  0  0  0  0  0
    3.2500   10.3650   -0.3100 C   0  0  0  0  0  0  0  0  0  0  0  0
    1.5350    9.6140   -1.9800 C   0  0  0  0  0  0  0  0  0  0  0  0
    0.0420    9.3980   -2.2920 C   0  0  0  0  0  0  0  0  0  0  0  0
   -0.7800    9.3080   -1.0020 C   0  0  2  0  0  0  0  0  0  0  0  0
   -0.2850    8.0530   -0.2060 C   0  0  0  0  0  0  0  0  0  0  0  0
   -1.7707    6.8538   -3.1365 H   0  0  0  0  0  0  0  0  0  0  0  0
   -3.4895    7.1838   -3.5408 H   0  0  0  0  0  0  0  0  0  0  0  0
   -2.2936    8.5241   -3.5408 H   0  0  0  0  0  0  0  0  0  0  0  0
   -2.4028    7.0509   -0.9902 H   0  0  0  0  0  0  0  0  0  0  0  0
   -4.5258    7.7185   -0.1754 H   0  0  0  0  0  0  0  0  0  0  0  0
   -4.8406    8.7143   -1.6761 H   0  0  0  0  0  0  0  0  0  0  0  0
   -4.4192    6.1063   -2.6036 H   0  0  0  0  0  0  0  0  0  0  0  0
   -5.4591    5.9365   -1.1285 H   0  0  0  0  0  0  0  0  0  0  0  0
   -5.9211    6.6038   -3.6203 H   0  0  0  0  0  0  0  0  0  0  0  0
   -7.4845    7.4581   -0.0251 H   0  0  0  0  0  0  0  0  0  0  0  0
   -9.0731    6.7780   -0.5155 H   0  0  0  0  0  0  0  0  0  0  0  0
   -7.6109    5.7346   -0.5155 H   0  0  0  0  0  0  0  0  0  0  0  0
   -9.8168    7.0810   -2.4777 H   0  0  0  0  0  0  0  0  0  0  0  0
   -8.8665    8.0038   -3.6909 H   0  0  0  0  0  0  0  0  0  0  0  0
   -8.8203    6.2081   -3.6909 H   0  0  0  0  0  0  0  0  0  0  0  0
   -2.6484    9.8082   -2.0190 H   0  0  0  0  0  0  0  0  0  0  0  0
   -3.7078   10.3424    0.0854 H   0  0  0  0  0  0  0  0  0  0  0  0
   -3.1658    8.8235    0.8318 H   0  0  0  0  0  0  0  0  0  0  0  0
   -2.0322   11.4035    1.3041 H   0  0  0  0  0  0  0  0  0  0  0  0
   -1.2544    9.8869    1.7483 H   0  0  0  0  0  0  0  0  0  0  0  0
   -1.5043   12.6846   -0.2964 H   0  0  0  0  0  0  0  0  0  0  0  0
   -0.3732   12.3199   -1.6434 H   0  0  0  0  0  0  0  0  0  0  0  0
   -2.0262   11.6170   -1.6434 H   0  0  0  0  0  0  0  0  0  0  0  0
    0.9997    9.9882    0.8684 H   0  0  0  0  0  0  0  0  0  0  0  0
    0.1899   12.2925    1.6868 H   0  0  0  0  0  0  0  0  0  0  0  0
    1.9750   11.8431    1.7199 H   0  0  0  0  0  0  0  0  0  0  0  0
    1.4033   14.2889    0.9221 H   0  0  0  0  0  0  0  0  0  0  0  0
    1.2026   12.0912   -2.4597 H   0  0  0  0  0  0  0  0  0  0  0  0
    4.2107   12.2157   -1.8046 H   0  0  0  0  0  0  0  0  0  0  0  0
    3.4329   11.3598   -3.2091 H   0  0  0  0  0  0  0  0  0  0  0  0
    4.4599   13.5090   -3.8753 H   0  0  0  0  0  0  0  0  0  0  0  0
    2.6688   13.4775   -4.1158 H   0  0  0  0  0  0  0  0  0  0  0  0
    3.2841   15.6028   -3.1834 H   0  0  0  0  0  0  0  0  0  0  0  0
    4.6270   13.9400   -1.2700 H   0  0  0  0  0  0  0  0  0  0  0  0
   -0.0959   15.1098   -2.0048 H   0  0  0  0  0  0  0  0  0  0  0  0
    0.9831   15.8378   -3.2427 H   0  0  0  0  0  0  0  0  0  0  0  0
    0.6829   14.0668   -3.2427 H   0  0  0  0  0  0  0  0  0  0  0  0
    2.0583   15.6619    0.3116 H   0  0  0  0  0  0  0  0  0  0  0  0
    2.9890   16.5633   -0.9326 H   0  0  0  0  0  0  0  0  0  0  0  0
    1.1938   16.6270   -0.9326 H   0  0  0  0  0  0  0  0  0  0  0  0
    3.1548   10.3926    0.7855 H   0  0  0  0  0  0  0  0  0  0  0  0
    3.5274    9.3493   -0.6285 H   0  0  0  0  0  0  0  0  0  0  0  0
    4.0280   11.0744   -0.6285 H   0  0  0  0  0  0  0  0  0  0  0  0
    2.0431    9.8438   -2.9281 H   0  0  0  0  0  0  0  0  0  0  0  0
    1.8647    8.6841   -1.4936 H   0  0  0  0  0  0  0  0  0  0  0  0
   -0.3254   10.2416   -2.8948 H   0  0  0  0  0  0  0  0  0  0  0  0
   -0.0679    8.4533   -2.8448 H   0  0  0  0  0  0  0  0  0  0  0  0
   -0.3625    8.2495    0.8735 H   0  0  0  0  0  0  0  0  0  0  0  0
   -0.9079    7.1846   -0.4663 H   0  0  0  0  0  0  0  0  0  0  0  0
    0.7631    7.8436   -0.4663 H   0  0  0  0  0  0  0  0  0  0  0  0
  1  2  1  0
  2  3  1  0
  3  4  1  0
  4  5  1  0
  5  6  1  0
  6  7  1  0
  7  8  1  0
  7  9  1  0
  2 10  1  0
 10 11  1  0
 11 12  1  0
 12 13  1  0
 13 14  1  6
 13 15  1  0
 15 16  1  0
 16 17  1  0
 17 18  2  0
 18 19  1  0
 19 20  1  0
 20 21  1  0
 21 22  1  0
 22 23  1  0
 22 24  1  0
 24 25  1  0
 24 26  1  0
 19 27  1  0
 27 28  1  1
 27 29  1  0
 29 30  1  0
 30 31  1  0
 31 32  1  1
  7  5  1  0
 31 10  1  0
 31 13  1  0
 27 15  1  0
 24 18  1  0
  1 33  1  0
  1 34  1  0
  1 35  1  0
  2 36  1  1
  3 37  1  0
  3 38  1  0
  4 39  1  0
  4 40  1  0
  5 41  1  6
  8 42  1  0
  8 43  1  0
  8 44  1  0
  9 45  1  0
  9 46  1  0
  9 47  1  0
 10 48  1  6
 11 49  1  0
 11 50  1  0
 12 51  1  0
 12 52  1  0
 14 53  1  0
 14 54  1  0
 14 55  1  0
 15 56  1  1
 16 57  1  0
 16 58  1  0
 17 59  1  0
 19 60  1  6
 20 61  1  0
 20 62  1  0
 21 63  1  0
 21 64  1  0
 22 65  1  6
 23 66  1  0
 25 67  1  0
 25 68  1  0
 25 69  1  0
 26 70  1  0
 26 71  1  0
 26 72  1  0
 28 73  1  0
 28 74  1  0
 28 75  1  0
 29 76  1  0
 29 77  1  0
 30 78  1  0
 30 79  1  0
 32 80  1  0
 32 81  1  0
 32 82  1  0
M  END
>  <meeko>  (9) 
{"is_sidechain": [false], "intermolecular_energy": 2.731, "internal_energy": -0.839}

$$$$
EPH_relaxed_0001_pdb2pqr_Repair_322_r2_0001_out
     RDKit          3D

 82 86  0  0  0  0  0  0  0  0999 V2000
    0.3460   17.8030   -0.3080 C   0  0  0  0  0  0  0  0  0  0  0  0
    1.2620   17.1090   -1.3190 C   0  0  2  0  0  0  0  0  0  0  0  0
    1.6110   18.0230   -2.5110 C   0  0  0  0  0  0  0  0  0  0  0  0
    3.1120   18.2830   -2.6680 C   0  0  0  0  0  0  0  0  0  0  0  0
    3.9260   17.0910   -2.2660 C   0  0  2  0  0  0  0  0  0  0  0  0
    5.0380   17.3860   -1.4100 O   0  0  0  0  0  0  0  0  0  0  0  0
    5.3590   16.8680   -2.7110 C   0  0  0  0  0  0  0  0  0  0  0  0
    6.0620   17.8470   -3.6000 C   0  0  0  0  0  0  0  0  0  0  0  0
    5.9080   15.4750   -2.6870 C   0  0  0  0  0  0  0  0  0  0  0  0
    0.6060   15.8270   -1.8210 C   0  0  1  0  0  0  0  0  0  0  0  0
    0.2060   15.9070   -3.3180 C   0  0  0  0  0  0  0  0  0  0  0  0
    0.4130   14.4900   -3.9120 C   0  0  0  0  0  0  0  0  0  0  0  0
    0.6020   13.5740   -2.6810 C   0  0  1  0  0  0  0  0  0  0  0  0
   -0.8440   13.2860   -2.1690 C   0  0  0  0  0  0  0  0  0  0  0  0
    1.4040   12.2540   -2.9190 C   0  0  2  0  0  0  0  0  0  0  0  0
    0.7620   11.2700   -3.9130 C   0  0  0  0  0  0  0  0  0  0  0  0
   -0.1650   10.2680   -3.3090 C   0  0  0  0  0  0  0  0  0  0  0  0
   -0.2530    9.9740   -1.9980 C   0  0  0  0  0  0  0  0  0  0  0  0
    0.7040   10.6110   -0.9820 C   0  0  1  0  0  0  0  0  0  0  0  0
    1.2500    9.5160   -0.0290 C   0  0  0  0  0  0  0  0  0  0  0  0
    0.1380    8.7130    0.6400 C   0  0  0  0  0  0  0  0  0  0  0  0
   -0.7570    8.0480   -0.4030 C   0  0  2  0  0  0  0  0  0  0  0  0
    0.0030    7.0540   -1.0960 O   0  0  0  0  0  0  0  0  0  0  0  0
   -1.3580    9.0530   -1.4250 C   0  0  0  0  0  0  0  0  0  0  0  0
   -2.4150    9.9410   -0.7220 C   0  0  0  0  0  0  0  0  0  0  0  0
   -2.1240    8.2380   -2.5020 C   0  0  0  0  0  0  0  0  0  0  0  0
    1.8550   11.5210   -1.5910 C   0  0  1  0  0  0  0  0  0  0  0  0
    3.0880   10.6410   -1.9640 C   0  0  0  0  0  0  0  0  0  0  0  0
    2.3490   12.5310   -0.4880 C   0  0  0  0  0  0  0  0  0  0  0  0
    1.5910   13.8680   -0.3820 C   0  0  0  0  0  0  0  0  0  0  0  0
    1.4460   14.5270   -1.7570 C   0  0  2  0  0  0  0  0  0  0  0  0
    2.8850   14.8490   -2.2880 C   0  0  0  0  0  0  0  0  0  0  0  0
    0.6726   17.5556    0.7128 H   0  0  0  0  0  0  0  0  0  0  0  0
    0.3959   18.8920   -0.4551 H   0  0  0  0  0  0  0  0  0  0  0  0
   -0.6888   17.4602   -0.4551 H   0  0  0  0  0  0  0  0  0  0  0  0
    2.2023   16.8682   -0.8014 H   0  0  0  0  0  0  0  0  0  0  0  0
    1.2425   17.5483   -3.4323 H   0  0  0  0  0  0  0  0  0  0  0  0
    1.1342   18.9959   -2.3208 H   0  0  0  0  0  0  0  0  0  0  0  0
    3.3243   18.5211   -3.7207 H   0  0  0  0  0  0  0  0  0  0  0  0
    3.3852   19.1221   -2.0112 H   0  0  0  0  0  0  0  0  0  0  0  0
    3.0361   16.4450   -2.2927 H   0  0  0  0  0  0  0  0  0  0  0  0
    6.5932   18.5867   -2.9830 H   0  0  0  0  0  0  0  0  0  0  0  0
    6.7841   17.3128   -4.2350 H   0  0  0  0  0  0  0  0  0  0  0  0
    5.3250   18.3605   -4.2350 H   0  0  0  0  0  0  0  0  0  0  0  0
    6.0363   15.1494   -1.6442 H   0  0  0  0  0  0  0  0  0  0  0  0
    5.2099   14.7969   -3.1996 H   0  0  0  0  0  0  0  0  0  0  0  0
    6.8811   15.4555   -3.1996 H   0  0  0  0  0  0  0  0  0  0  0  0
   -0.2383   15.7644   -1.1187 H   0  0  0  0  0  0  0  0  0  0  0  0
   -0.8479   16.2074   -3.4131 H   0  0  0  0  0  0  0  0  0  0  0  0
    0.8156   16.6517   -3.8507 H   0  0  0  0  0  0  0  0  0  0  0  0
   -0.4675   14.1808   -4.4944 H   0  0  0  0  0  0  0  0  0  0  0  0
    1.2710   14.4473   -4.5990 H   0  0  0  0  0  0  0  0  0  0  0  0
   -0.8500   13.2848   -1.0690 H   0  0  0  0  0  0  0  0  0  0  0  0
   -1.5260   14.0660   -2.5386 H   0  0  0  0  0  0  0  0  0  0  0  0
   -1.1751   12.3043   -2.5386 H   0  0  0  0  0  0  0  0  0  0  0  0
    2.3186   12.6195   -3.4088 H   0  0  0  0  0  0  0  0  0  0  0  0
    0.1954   11.8549   -4.6524 H   0  0  0  0  0  0  0  0  0  0  0  0
    1.5911   10.6936   -4.3492 H   0  0  0  0  0  0  0  0  0  0  0  0
   -0.8328    9.7237   -3.9929 H   0  0  0  0  0  0  0  0  0  0  0  0
    0.1051   11.3364   -0.4118 H   0  0  0  0  0  0  0  0  0  0  0  0
    1.8820    8.8273   -0.6089 H   0  0  0  0  0  0  0  0  0  0  0  0
    1.8213   10.0196    0.7647 H   0  0  0  0  0  0  0  0  0  0  0  0
    0.5874    7.9366    1.2766 H   0  0  0  0  0  0  0  0  0  0  0  0
   -0.4753    9.3977    1.2442 H   0  0  0  0  0  0  0  0  0  0  0  0
   -1.6069    7.5977    0.1307 H   0  0  0  0  0  0  0  0  0  0  0  0
    0.7010    7.5110   -1.5950 H   0  0  0  0  0  0  0  0  0  0  0  0
   -2.3048    9.8485    0.3685 H   0  0  0  0  0  0  0  0  0  0  0  0
   -2.2676   10.9902   -1.0177 H   0  0  0  0  0  0  0  0  0  0  0  0
   -3.4231    9.6149   -1.0177 H   0  0  0  0  0  0  0  0  0  0  0  0
   -2.7975    7.5214   -2.0093 H   0  0  0  0  0  0  0  0  0  0  0  0
   -2.7130    8.9227   -3.1299 H   0  0  0  0  0  0  0  0  0  0  0  0
   -1.4041    7.6925   -3.1299 H   0  0  0  0  0  0  0  0  0  0  0  0
    3.5796   10.2901   -1.0447 H   0  0  0  0  0  0  0  0  0  0  0  0
    2.7551    9.7751   -2.5552 H   0  0  0  0  0  0  0  0  0  0  0  0
    3.7986   11.2372   -2.5552 H   0  0  0  0  0  0  0  0  0  0  0  0
    2.2700   12.0254    0.4857 H   0  0  0  0  0  0  0  0  0  0  0  0
    3.3729   12.8029   -0.7841 H   0  0  0  0  0  0  0  0  0  0  0  0
    0.5903   13.6821    0.0352 H   0  0  0  0  0  0  0  0  0  0  0  0
    2.1617   14.5436    0.2721 H   0  0  0  0  0  0  0  0  0  0  0  0
    3.5645   15.0011   -1.4365 H   0  0  0  0  0  0  0  0  0  0  0  0
    3.2463   14.0095   -2.9001 H   0  0  0  0  0  0  0  0  0  0  0  0
    2.8541   15.7624   -2.9001 H   0  0  0  0  0  0  0  0  0  0  0  0
  1  2  1  0
  2  3  1  0
  3  4  1  0
  4  5  1  0
  5  6  1  0
  6  7  1  0
  7  8  1  0
  7  9  1  0
  2 10  1  0
 10 11  1  0
 11 12  1  0
 12 13  1  0
 13 14  1  1
 13 15  1  0
 15 16  1  0
 16 17  1  0
 17 18  2  0
 18 19  1  0
 19 20  1  0
 20 21  1  0
 21 22  1  0
 22 23  1  0
 22 24  1  0
 24 25  1  0
 24 26  1  0
 19 27  1  0
 27 28  1  6
 27 29  1  0
 29 30  1  0
 30 31  1  0
 31 32  1  6
  7  5  1  0
 31 10  1  0
 31 13  1  0
 27 15  1  0
 24 18  1  0
  1 33  1  0
  1 34  1  0
  1 35  1  0
  2 36  1  1
  3 37  1  0
  3 38  1  0
  4 39  1  0
  4 40  1  0
  5 41  1  1
  8 42  1  0
  8 43  1  0
  8 44  1  0
  9 45  1  0
  9 46  1  0
  9 47  1  0
 10 48  1  1
 11 49  1  0
 11 50  1  0
 12 51  1  0
 12 52  1  0
 14 53  1  0
 14 54  1  0
 14 55  1  0
 15 56  1  6
 16 57  1  0
 16 58  1  0
 17 59  1  0
 19 60  1  1
 20 61  1  0
 20 62  1  0
 21 63  1  0
 21 64  1  0
 22 65  1  1
 23 66  1  0
 25 67  1  0
 25 68  1  0
 25 69  1  0
 26 70  1  0
 26 71  1  0
 26 72  1  0
 28 73  1  0
 28 74  1  0
 28 75  1  0
 29 76  1  0
 29 77  1  0
 30 78  1  0
 30 79  1  0
 32 80  1  0
 32 81  1  0
 32 82  1  0
M  END
>  <meeko>  (10) 
{"is_sidechain": [false], "intermolecular_energy": 2.731, "internal_energy": -0.839}

$$$$
EPH_relaxed_0001_pdb2pqr_Repair_322_r2_0001_out
     RDKit          3D

 82 86  0  0  0  0  0  0  0  0999 V2000
    4.3570   17.5790   -2.7300 C   0  0  0  0  0  0  0  0  0  0  0  0
    2.9620   17.1090   -2.3060 C   0  0  2  0  0  0  0  0  0  0  0  0
    2.6080   17.5580   -0.8740 C   0  0  0  0  0  0  0  0  0  0  0  0
    3.5280   18.6530   -0.3280 C   0  0  0  0  0  0  0  0  0  0  0  0
    3.3170   18.8730    1.1400 C   0  0  2  0  0  0  0  0  0  0  0  0
    3.6610   20.1840    1.6050 O   0  0  0  0  0  0  0  0  0  0  0  0
    4.4500   19.1010    2.1230 C   0  0  0  0  0  0  0  0  0  0  0  0
    5.8780   19.1200    1.6770 C   0  0  0  0  0  0  0  0  0  0  0  0
    4.2070   18.8190    3.5730 C   0  0  0  0  0  0  0  0  0  0  0  0
    2.8710   15.5910   -2.4140 C   0  0  1  0  0  0  0  0  0  0  0  0
    4.2570   14.9210   -2.6050 C   0  0  0  0  0  0  0  0  0  0  0  0
    4.2080   13.5670   -1.8510 C   0  0  0  0  0  0  0  0  0  0  0  0
    2.7090   13.3510   -1.5370 C   0  0  1  0  0  0  0  0  0  0  0  0
    2.1000   12.7820   -2.8570 C   0  0  0  0  0  0  0  0  0  0  0  0
    2.3850   12.4360   -0.3110 C   0  0  2  0  0  0  0  0  0  0  0  0
    2.8660   10.9800   -0.4380 C   0  0  0  0  0  0  0  0  0  0  0  0
    1.8830   10.0350   -1.0460 C   0  0  0  0  0  0  0  0  0  0  0  0
    0.5680   10.2730   -1.2120 C   0  0  0  0  0  0  0  0  0  0  0  0
   -0.0730   11.5600   -0.6780 C   0  0  1  0  0  0  0  0  0  0  0  0
   -1.3870   11.2130    0.0680 C   0  0  0  0  0  0  0  0  0  0  0  0
   -2.3480   10.3950   -0.7890 C   0  0  0  0  0  0  0  0  0  0  0  0
   -1.6950    9.0960   -1.2520 C   0  0  2  0  0  0  0  0  0  0  0  0
   -1.4700    8.2610   -0.1120 O   0  0  0  0  0  0  0  0  0  0  0  0
   -0.3560    9.3200   -2.0090 C   0  0  0  0  0  0  0  0  0  0  0  0
   -0.6390    9.9600   -3.3900 C   0  0  0  0  0  0  0  0  0  0  0  0
    0.2690    7.9280   -2.2960 C   0  0  0  0  0  0  0  0  0  0  0  0
    0.8790   12.5080    0.1720 C   0  0  1  0  0  0  0  0  0  0  0  0
    0.8700   12.0690    1.6680 C   0  0  0  0  0  0  0  0  0  0  0  0
    0.3090   13.9750    0.1360 C   0  0  0  0  0  0  0  0  0  0  0  0
    0.7600   14.8680   -1.0360 C   0  0  0  0  0  0  0  0  0  0  0  0
    2.2820   14.8260   -1.2020 C   0  0  2  0  0  0  0  0  0  0  0  0
    2.9220   15.4140    0.1020 C   0  0  0  0  0  0  0  0  0  0  0  0
    4.9629   17.7831   -1.8349 H   0  0  0  0  0  0  0  0  0  0  0  0
    4.8417   16.7945   -3.3298 H   0  0  0  0  0  0  0  0  0  0  0  0
    4.2681   18.4968   -3.3298 H   0  0  0  0  0  0  0  0  0  0  0  0
    2.2342   17.5748   -2.9866 H   0  0  0  0  0  0  0  0  0  0  0  0
    1.5763   17.9395   -0.8746 H   0  0  0  0  0  0  0  0  0  0  0  0
    2.7303   16.6804   -0.2222 H   0  0  0  0  0  0  0  0  0  0  0  0
    4.5739   18.3573   -0.4975 H   0  0  0  0  0  0  0  0  0  0  0  0
    3.2938   19.5910   -0.8526 H   0  0  0  0  0  0  0  0  0  0  0  0
    2.4641   18.1783    1.1451 H   0  0  0  0  0  0  0  0  0  0  0  0
    6.5371   19.1288    2.5576 H   0  0  0  0  0  0  0  0  0  0  0  0
    6.0854   18.2245    1.0727 H   0  0  0  0  0  0  0  0  0  0  0  0
    6.0615   20.0207    1.0727 H   0  0  0  0  0  0  0  0  0  0  0  0
    4.8032   19.5109    4.1860 H   0  0  0  0  0  0  0  0  0  0  0  0
    3.1392   18.9557    3.7992 H   0  0  0  0  0  0  0  0  0  0  0  0
    4.5000   17.7832    3.7992 H   0  0  0  0  0  0  0  0  0  0  0  0
    2.1936   15.5081   -3.2767 H   0  0  0  0  0  0  0  0  0  0  0  0
    4.4518   14.7521   -3.6744 H   0  0  0  0  0  0  0  0  0  0  0  0
    5.0619   15.5611   -2.2147 H   0  0  0  0  0  0  0  0  0  0  0  0
    4.5931   12.7549   -2.4852 H   0  0  0  0  0  0  0  0  0  0  0  0
    4.8286   13.5719   -0.9428 H   0  0  0  0  0  0  0  0  0  0  0  0
    1.3162   12.0497   -2.6133 H   0  0  0  0  0  0  0  0  0  0  0  0
    1.6642   13.6040   -3.4439 H   0  0  0  0  0  0  0  0  0  0  0  0
    2.8905   12.2914   -3.4439 H   0  0  0  0  0  0  0  0  0  0  0  0
    2.9971   12.8839    0.4857 H   0  0  0  0  0  0  0  0  0  0  0  0
    3.7728   10.9746   -1.0607 H   0  0  0  0  0  0  0  0  0  0  0  0
    3.0351   10.6244    0.5891 H   0  0  0  0  0  0  0  0  0  0  0  0
    2.2654    9.0617   -1.3873 H   0  0  0  0  0  0  0  0  0  0  0  0
   -0.2967   12.1770   -1.5608 H   0  0  0  0  0  0  0  0  0  0  0  0
   -1.1382   10.6338    0.9695 H   0  0  0  0  0  0  0  0  0  0  0  0
   -1.8876   12.1595    0.3201 H   0  0  0  0  0  0  0  0  0  0  0  0
   -3.2441   10.1565   -0.1973 H   0  0  0  0  0  0  0  0  0  0  0  0
   -2.6189   10.9872   -1.6755 H   0  0  0  0  0  0  0  0  0  0  0  0
   -2.3820    8.6170   -1.9651 H   0  0  0  0  0  0  0  0  0  0  0  0
   -1.0620    7.4360   -0.4270 H   0  0  0  0  0  0  0  0  0  0  0  0
   -1.0801   10.9577   -3.2483 H   0  0  0  0  0  0  0  0  0  0  0  0
    0.3025   10.0518   -3.9515 H   0  0  0  0  0  0  0  0  0  0  0  0
   -1.3404    9.3253   -3.9515 H   0  0  0  0  0  0  0  0  0  0  0  0
    0.4951    7.4244   -1.3446 H   0  0  0  0  0  0  0  0  0  0  0  0
   -0.4420    7.3188   -2.8734 H   0  0  0  0  0  0  0  0  0  0  0  0
    1.1967    8.0546   -2.8734 H   0  0  0  0  0  0  0  0  0  0  0  0
    0.8883   12.9607    2.3119 H   0  0  0  0  0  0  0  0  0  0  0  0
   -0.0403   11.4867    1.8738 H   0  0  0  0  0  0  0  0  0  0  0  0
    1.7556   11.4499    1.8738 H   0  0  0  0  0  0  0  0  0  0  0  0
   -0.7881   13.9047    0.0976 H   0  0  0  0  0  0  0  0  0  0  0  0
    0.7090   14.4610    1.0381 H   0  0  0  0  0  0  0  0  0  0  0  0
    0.2868   14.5117   -1.9629 H   0  0  0  0  0  0  0  0  0  0  0  0
    0.4584   15.9044   -0.8240 H   0  0  0  0  0  0  0  0  0  0  0  0
    2.4363   14.9677    0.9823 H   0  0  0  0  0  0  0  0  0  0  0  0
    3.9971   15.1821    0.1195 H   0  0  0  0  0  0  0  0  0  0  0  0
    2.7818   16.5049    0.1195 H   0  0  0  0  0  0  0  0  0  0  0  0
  1  2  1  0
  2  3  1  0
  3  4  1  0
  4  5  1  0
  5  6  1  0
  6  7  1  0
  7  8  1  0
  7  9  1  0
  2 10  1  0
 10 11  1  0
 11 12  1  0
 12 13  1  0
 13 14  1  6
 13 15  1  0
 15 16  1  0
 16 17  1  0
 17 18  2  0
 18 19  1  0
 19 20  1  0
 20 21  1  0
 21 22  1  0
 22 23  1  0
 22 24  1  0
 24 25  1  0
 24 26  1  0
 19 27  1  0
 27 28  1  1
 27 29  1  0
 29 30  1  0
 30 31  1  0
 31 32  1  1
  7  5  1  0
 31 10  1  0
 31 13  1  0
 27 15  1  0
 24 18  1  0
  1 33  1  0
  1 34  1  0
  1 35  1  0
  2 36  1  6
  3 37  1  0
  3 38  1  0
  4 39  1  0
  4 40  1  0
  5 41  1  1
  8 42  1  0
  8 43  1  0
  8 44  1  0
  9 45  1  0
  9 46  1  0
  9 47  1  0
 10 48  1  6
 11 49  1  0
 11 50  1  0
 12 51  1  0
 12 52  1  0
 14 53  1  0
 14 54  1  0
 14 55  1  0
 15 56  1  1
 16 57  1  0
 16 58  1  0
 17 59  1  0
 19 60  1  6
 20 61  1  0
 20 62  1  0
 21 63  1  0
 21 64  1  0
 22 65  1  6
 23 66  1  0
 25 67  1  0
 25 68  1  0
 25 69  1  0
 26 70  1  0
 26 71  1  0
 26 72  1  0
 28 73  1  0
 28 74  1  0
 28 75  1  0
 29 76  1  0
 29 77  1  0
 30 78  1  0
 30 79  1  0
 32 80  1  0
 32 81  1  0
 32 82  1  0
M  END
>  <meeko>  (11) 
{"is_sidechain": [false], "intermolecular_energy": 2.731, "internal_energy": -0.839}

$$$$
EPH_relaxed_0001_pdb2pqr_Repair_322_r2_0001_out
     RDKit          3D

 82 86  0  0  0  0  0  0  0  0999 V2000
    0.9130    8.7210   -0.2670 C   0  0  0  0  0  0  0  0  0  0  0  0
   -0.1340    9.4730   -1.0930 C   0  0  2  0  0  0  0  0  0  0  0  0
   -0.8340    8.5580   -2.1170 C   0  0  0  0  0  0  0  0  0  0  0  0
   -2.3350    8.3880   -1.8660 C   0  0  0  0  0  0  0  0  0  0  0  0
   -2.8930    7.2140   -2.6110 C   0  0  2  0  0  0  0  0  0  0  0  0
   -3.9160    7.5380   -3.5610 O   0  0  0  0  0  0  0  0  0  0  0  0
   -4.3180    6.7210   -2.4500 C   0  0  0  0  0  0  0  0  0  0  0  0
   -5.2750    7.3920   -1.5150 C   0  0  0  0  0  0  0  0  0  0  0  0
   -4.6330    5.3060   -2.8250 C   0  0  0  0  0  0  0  0  0  0  0  0
    0.5170   10.6520   -1.8080 C   0  0  1  0  0  0  0  0  0  0  0  0
    0.1950   10.6820   -3.3260 C   0  0  0  0  0  0  0  0  0  0  0  0
    0.0880   12.1740   -3.7310 C   0  0  0  0  0  0  0  0  0  0  0  0
    0.6720   12.9480   -2.5260 C   0  0  1  0  0  0  0  0  0  0  0  0
    2.2200   12.8780   -2.7170 C   0  0  0  0  0  0  0  0  0  0  0  0
    0.1790   14.4210   -2.3460 C   0  0  2  0  0  0  0  0  0  0  0  0
    0.5350   15.3740   -3.5010 C   0  0  0  0  0  0  0  0  0  0  0  0
    1.8370   16.0900   -3.3590 C   0  0  0  0  0  0  0  0  0  0  0  0
    2.5530   16.1940   -2.2240 C   0  0  0  0  0  0  0  0  0  0  0  0
    2.0140   15.6380   -0.9000 C   0  0  1  0  0  0  0  0  0  0  0  0
    2.2090   16.6920    0.2220 C   0  0  0  0  0  0  0  0  0  0  0  0
    3.6540   17.1670    0.3330 C   0  0  0  0  0  0  0  0  0  0  0  0
    4.1350   17.7670   -0.9860 C   0  0  2  0  0  0  0  0  0  0  0  0
    3.4040   18.9710   -1.2380 O   0  0  0  0  0  0  0  0  0  0  0  0
    3.9780   16.7980   -2.1910 C   0  0  0  0  0  0  0  0  0  0  0  0
    4.9960   15.6380   -2.0620 C   0  0  0  0  0  0  0  0  0  0  0  0
    4.3660   17.5730   -3.4800 C   0  0  0  0  0  0  0  0  0  0  0  0
    0.5360   15.0570   -0.9420 C   0  0  1  0  0  0  0  0  0  0  0  0
   -0.4930   16.2030   -0.6980 C   0  0  0  0  0  0  0  0  0  0  0  0
    0.3500   14.0350    0.2420 C   0  0  0  0  0  0  0  0  0  0  0  0
    0.7430   12.5720   -0.0360 C   0  0  0  0  0  0  0  0  0  0  0  0
    0.1180   12.0750   -1.3430 C   0  0  2  0  0  0  0  0  0  0  0  0
   -1.4390   12.1130   -1.1730 C   0  0  0  0  0  0  0  0  0  0  0  0
    0.7093    8.8673    0.8040 H   0  0  0  0  0  0  0  0  0  0  0  0
    0.8670    7.6482   -0.5058 H   0  0  0  0  0  0  0  0  0  0  0  0
    1.9149    9.1072   -0.5058 H   0  0  0  0  0  0  0  0  0  0  0  0
   -0.9036    9.8382   -0.3971 H   0  0  0  0  0  0  0  0  0  0  0  0
   -0.6963    8.9895   -3.1194 H   0  0  0  0  0  0  0  0  0  0  0  0
   -0.3775    7.5617   -2.0225 H   0  0  0  0  0  0  0  0  0  0  0  0
   -2.5014    8.2383   -0.7890 H   0  0  0  0  0  0  0  0  0  0  0  0
   -2.8466    9.2943   -2.2223 H   0  0  0  0  0  0  0  0  0  0  0  0
   -1.9236    6.6960   -2.5660 H   0  0  0  0  0  0  0  0  0  0  0  0
   -4.9790    7.1844   -0.4761 H   0  0  0  0  0  0  0  0  0  0  0  0
   -5.2590    8.4777   -1.6909 H   0  0  0  0  0  0  0  0  0  0  0  0
   -6.2903    7.0069   -1.6909 H   0  0  0  0  0  0  0  0  0  0  0  0
   -4.7666    4.7060   -1.9128 H   0  0  0  0  0  0  0  0  0  0  0  0
   -5.5586    5.2814   -3.4188 H   0  0  0  0  0  0  0  0  0  0  0  0
   -3.8052    4.8911   -3.4188 H   0  0  0  0  0  0  0  0  0  0  0  0
    1.5711   10.4575   -1.5610 H   0  0  0  0  0  0  0  0  0  0  0  0
    0.9999   10.1922   -3.8937 H   0  0  0  0  0  0  0  0  0  0  0  0
   -0.7411   10.1461   -3.5418 H   0  0  0  0  0  0  0  0  0  0  0  0
    0.6736   12.3724   -4.6408 H   0  0  0  0  0  0  0  0  0  0  0  0
   -0.9466   12.4720   -3.9565 H   0  0  0  0  0  0  0  0  0  0  0  0
    2.7103   12.8558   -1.7326 H   0  0  0  0  0  0  0  0  0  0  0  0
    2.4796   11.9672   -3.2765 H   0  0  0  0  0  0  0  0  0  0  0  0
    2.5607   13.7617   -3.2765 H   0  0  0  0  0  0  0  0  0  0  0  0
   -0.9148   14.3089   -2.3770 H   0  0  0  0  0  0  0  0  0  0  0  0
    0.5707   14.7847   -4.4291 H   0  0  0  0  0  0  0  0  0  0  0  0
   -0.2418   16.1529   -3.5031 H   0  0  0  0  0  0  0  0  0  0  0  0
    2.2461   16.5737   -4.2583 H   0  0  0  0  0  0  0  0  0  0  0  0
    2.6142   14.7429   -0.6795 H   0  0  0  0  0  0  0  0  0  0  0  0
    1.5682   17.5596    0.0061 H   0  0  0  0  0  0  0  0  0  0  0  0
    1.9392   16.2172    1.1769 H   0  0  0  0  0  0  0  0  0  0  0  0
    3.7221   17.9307    1.1218 H   0  0  0  0  0  0  0  0  0  0  0  0
    4.2894   16.3030    0.5776 H   0  0  0  0  0  0  0  0  0  0  0  0
    5.2113   17.9702   -0.8844 H   0  0  0  0  0  0  0  0  0  0  0  0
    3.4790   19.1670   -2.1870 H   0  0  0  0  0  0  0  0  0  0  0  0
    5.1800   15.4283   -0.9980 H   0  0  0  0  0  0  0  0  0  0  0  0
    4.5904   14.7385   -2.5482 H   0  0  0  0  0  0  0  0  0  0  0  0
    5.9406   15.9233   -2.5482 H   0  0  0  0  0  0  0  0  0  0  0  0
    4.8429   18.5255   -3.2056 H   0  0  0  0  0  0  0  0  0  0  0  0
    5.0681   16.9691   -4.0736 H   0  0  0  0  0  0  0  0  0  0  0  0
    3.4618   17.7732   -4.0736 H   0  0  0  0  0  0  0  0  0  0  0  0
   -0.6265   16.3517    0.3837 H   0  0  0  0  0  0  0  0  0  0  0  0
   -0.1209   17.1329   -1.1528 H   0  0  0  0  0  0  0  0  0  0  0  0
   -1.4574   15.9328   -1.1528 H   0  0  0  0  0  0  0  0  0  0  0  0
    0.9600   14.3889    1.0862 H   0  0  0  0  0  0  0  0  0  0  0  0
   -0.7328   14.0109    0.4343 H   0  0  0  0  0  0  0  0  0  0  0  0
    1.8382   12.5018   -0.1114 H   0  0  0  0  0  0  0  0  0  0  0  0
    0.3728   11.9466    0.7897 H   0  0  0  0  0  0  0  0  0  0  0  0
   -1.6909   12.1191   -0.1022 H   0  0  0  0  0  0  0  0  0  0  0  0
   -1.8377   13.0211   -1.6487 H   0  0  0  0  0  0  0  0  0  0  0  0
   -1.8816   11.2254   -1.6487 H   0  0  0  0  0  0  0  0  0  0  0  0
  1  2  1  0
  2  3  1  0
  3  4  1  0
  4  5  1  0
  5  6  1  0
  6  7  1  0
  7  8  1  0
  7  9  1  0
  2 10  1  0
 10 11  1  0
 11 12  1  0
 12 13  1  0
 13 14  1  6
 13 15  1  0
 15 16  1  0
 16 17  1  0
 17 18  2  0
 18 19  1  0
 19 20  1  0
 20 21  1  0
 21 22  1  0
 22 23  1  0
 22 24  1  0
 24 25  1  0
 24 26  1  0
 19 27  1  0
 27 28  1  1
 27 29  1  0
 29 30  1  0
 30 31  1  0
 31 32  1  1
  7  5  1  0
 31 10  1  0
 31 13  1  0
 27 15  1  0
 24 18  1  0
  1 33  1  0
  1 34  1  0
  1 35  1  0
  2 36  1  1
  3 37  1  0
  3 38  1  0
  4 39  1  0
  4 40  1  0
  5 41  1  6
  8 42  1  0
  8 43  1  0
  8 44  1  0
  9 45  1  0
  9 46  1  0
  9 47  1  0
 10 48  1  6
 11 49  1  0
 11 50  1  0
 12 51  1  0
 12 52  1  0
 14 53  1  0
 14 54  1  0
 14 55  1  0
 15 56  1  1
 16 57  1  0
 16 58  1  0
 17 59  1  0
 19 60  1  1
 20 61  1  0
 20 62  1  0
 21 63  1  0
 21 64  1  0
 22 65  1  1
 23 66  1  0
 25 67  1  0
 25 68  1  0
 25 69  1  0
 26 70  1  0
 26 71  1  0
 26 72  1  0
 28 73  1  0
 28 74  1  0
 28 75  1  0
 29 76  1  0
 29 77  1  0
 30 78  1  0
 30 79  1  0
 32 80  1  0
 32 81  1  0
 32 82  1  0
M  END
>  <meeko>  (12) 
{"is_sidechain": [false], "intermolecular_energy": 2.731, "internal_energy": -0.839}

$$$$
EPH_relaxed_0001_pdb2pqr_Repair_322_r2_0001_out
     RDKit          3D

 82 86  0  0  0  0  0  0  0  0999 V2000
    0.4930    9.0690   -2.5550 C   0  0  0  0  0  0  0  0  0  0  0  0
    1.2660   10.2350   -3.1760 C   0  0  2  0  0  0  0  0  0  0  0  0
    2.7510   10.2340   -2.7610 C   0  0  0  0  0  0  0  0  0  0  0  0
    3.7050   10.6450   -3.8860 C   0  0  0  0  0  0  0  0  0  0  0  0
    5.0920   10.8900   -3.3750 C   0  0  2  0  0  0  0  0  0  0  0  0
    5.6970   12.1020   -3.8420 O   0  0  0  0  0  0  0  0  0  0  0  0
    6.3240   10.8790   -4.2600 C   0  0  0  0  0  0  0  0  0  0  0  0
    6.2260   10.6160   -5.7300 C   0  0  0  0  0  0  0  0  0  0  0  0
    7.6590   10.6380   -3.6260 C   0  0  0  0  0  0  0  0  0  0  0  0
    0.6170   11.5570   -2.7830 C   0  0  1  0  0  0  0  0  0  0  0  0
   -0.6470   11.3630   -1.9030 C   0  0  0  0  0  0  0  0  0  0  0  0
   -0.6800   12.5460   -0.9010 C   0  0  0  0  0  0  0  0  0  0  0  0
    0.3650   13.5480   -1.4460 C   0  0  1  0  0  0  0  0  0  0  0  0
   -0.3760   14.3240   -2.5790 C   0  0  0  0  0  0  0  0  0  0  0  0
    0.9990   14.5210   -0.4000 C   0  0  2  0  0  0  0  0  0  0  0  0
    0.0090   15.4800    0.2840 C   0  0  0  0  0  0  0  0  0  0  0  0
   -0.1840   16.7920   -0.4020 C   0  0  0  0  0  0  0  0  0  0  0  0
    0.6170   17.3010   -1.3570 C   0  0  0  0  0  0  0  0  0  0  0  0
    1.9070   16.5800   -1.7700 C   0  0  1  0  0  0  0  0  0  0  0  0
    3.0710   17.6030   -1.8420 C   0  0  0  0  0  0  0  0  0  0  0  0
    2.7520   18.7900   -2.7450 C   0  0  0  0  0  0  0  0  0  0  0  0
    1.4960   19.5160   -2.2680 C   0  0  2  0  0  0  0  0  0  0  0  0
    1.7680   20.1220   -1.0010 O   0  0  0  0  0  0  0  0  0  0  0  0
    0.2580   18.5840   -2.1470 C   0  0  0  0  0  0  0  0  0  0  0  0
   -0.2190   18.1660   -3.5600 C   0  0  0  0  0  0  0  0  0  0  0  0
   -0.9000   19.4070   -1.5230 C   0  0  0  0  0  0  0  0  0  0  0  0
    2.2810   15.2890   -0.9220 C   0  0  1  0  0  0  0  0  0  0  0  0
    3.1000   15.6990    0.3400 C   0  0  0  0  0  0  0  0  0  0  0  0
    3.2220   14.3650   -1.7820 C   0  0  0  0  0  0  0  0  0  0  0  0
    2.5360   13.3420   -2.7070 C   0  0  0  0  0  0  0  0  0  0  0  0
    1.4680   12.5480   -1.9500 C   0  0  2  0  0  0  0  0  0  0  0  0
    2.1870   11.7390   -0.8170 C   0  0  0  0  0  0  0  0  0  0  0  0
    0.5403    9.1404   -1.4583 H   0  0  0  0  0  0  0  0  0  0  0  0
   -0.5570    9.1106   -2.8802 H   0  0  0  0  0  0  0  0  0  0  0  0
    0.9402    8.1180   -2.8802 H   0  0  0  0  0  0  0  0  0  0  0  0
    1.2282   10.1122   -4.2685 H   0  0  0  0  0  0  0  0  0  0  0  0
    2.8781   10.9363   -1.9240 H   0  0  0  0  0  0  0  0  0  0  0  0
    3.0067    9.2005   -2.4843 H   0  0  0  0  0  0  0  0  0  0  0  0
    3.7384    9.8414   -4.6364 H   0  0  0  0  0  0  0  0  0  0  0  0
    3.3318   11.5811   -4.3270 H   0  0  0  0  0  0  0  0  0  0  0  0
    4.8585   10.3793   -2.4291 H   0  0  0  0  0  0  0  0  0  0  0  0
    5.8463    9.5970   -5.8957 H   0  0  0  0  0  0  0  0  0  0  0  0
    5.5382   11.3425   -6.1874 H   0  0  0  0  0  0  0  0  0  0  0  0
    7.2215   10.7152   -6.1874 H   0  0  0  0  0  0  0  0  0  0  0  0
    7.5538   10.6570   -2.5312 H   0  0  0  0  0  0  0  0  0  0  0  0
    8.0424    9.6561   -3.9405 H   0  0  0  0  0  0  0  0  0  0  0  0
    8.3615   11.4238   -3.9405 H   0  0  0  0  0  0  0  0  0  0  0  0
    0.4270   11.9735   -3.7832 H   0  0  0  0  0  0  0  0  0  0  0  0
   -1.5505   11.3726   -2.5304 H   0  0  0  0  0  0  0  0  0  0  0  0
   -0.6165   10.3986   -1.3748 H   0  0  0  0  0  0  0  0  0  0  0  0
   -1.6798   13.0040   -0.8736 H   0  0  0  0  0  0  0  0  0  0  0  0
   -0.4559   12.2277    0.1278 H   0  0  0  0  0  0  0  0  0  0  0  0
   -1.0702   15.0509   -2.1321 H   0  0  0  0  0  0  0  0  0  0  0  0
    0.3595   14.8543   -3.2018 H   0  0  0  0  0  0  0  0  0  0  0  0
   -0.9397   13.6138   -3.2018 H   0  0  0  0  0  0  0  0  0  0  0  0
    1.3384   13.8314    0.3869 H   0  0  0  0  0  0  0  0  0  0  0  0
   -0.9682   14.9779    0.3387 H   0  0  0  0  0  0  0  0  0  0  0  0
    0.4404   15.7117    1.2690 H   0  0  0  0  0  0  0  0  0  0  0  0
   -1.0544   17.3938   -0.1017 H   0  0  0  0  0  0  0  0  0  0  0  0
    1.7155   16.1613   -2.7690 H   0  0  0  0  0  0  0  0  0  0  0  0
    3.2753   17.9765   -0.8277 H   0  0  0  0  0  0  0  0  0  0  0  0
    3.9440   17.0858   -2.2667 H   0  0  0  0  0  0  0  0  0  0  0  0
    3.5999   19.4907   -2.7317 H   0  0  0  0  0  0  0  0  0  0  0  0
    2.5767   18.4181   -3.7653 H   0  0  0  0  0  0  0  0  0  0  0  0
    1.2447   20.2734   -3.0251 H   0  0  0  0  0  0  0  0  0  0  0  0
    2.3250   19.5080   -0.4940 H   0  0  0  0  0  0  0  0  0  0  0  0
   -1.0435   17.4435   -3.4698 H   0  0  0  0  0  0  0  0  0  0  0  0
   -0.5681   19.0543   -4.1069 H   0  0  0  0  0  0  0  0  0  0  0  0
    0.6158   17.7033   -4.1069 H   0  0  0  0  0  0  0  0  0  0  0  0
   -0.8337   19.3599   -0.4260 H   0  0  0  0  0  0  0  0  0  0  0  0
   -0.8233   20.4544   -1.8503 H   0  0  0  0  0  0  0  0  0  0  0  0
   -1.8639   18.9902   -1.8503 H   0  0  0  0  0  0  0  0  0  0  0  0
    2.5420   15.4197    1.2459 H   0  0  0  0  0  0  0  0  0  0  0  0
    4.0699   15.1801    0.3322 H   0  0  0  0  0  0  0  0  0  0  0  0
    3.2658   16.7864    0.3322 H   0  0  0  0  0  0  0  0  0  0  0  0
    3.8441   15.0180   -2.4117 H   0  0  0  0  0  0  0  0  0  0  0  0
    3.7795   13.7620   -1.0502 H   0  0  0  0  0  0  0  0  0  0  0  0
    2.0619   13.8752   -3.5442 H   0  0  0  0  0  0  0  0  0  0  0  0
    3.2969   12.6400   -3.0788 H   0  0  0  0  0  0  0  0  0  0  0  0
    1.8571   12.1102    0.1645 H   0  0  0  0  0  0  0  0  0  0  0  0
    1.9330   10.6728   -0.9101 H   0  0  0  0  0  0  0  0  0  0  0  0
    3.2757   11.8661   -0.9101 H   0  0  0  0  0  0  0  0  0  0  0  0
  1  2  1  0
  2  3  1  0
  3  4  1  0
  4  5  1  0
  5  6  1  0
  6  7  1  0
  7  8  1  0
  7  9  1  0
  2 10  1  0
 10 11  1  0
 11 12  1  0
 12 13  1  0
 13 14  1  6
 13 15  1  0
 15 16  1  0
 16 17  1  0
 17 18  2  0
 18 19  1  0
 19 20  1  0
 20 21  1  0
 21 22  1  0
 22 23  1  0
 22 24  1  0
 24 25  1  0
 24 26  1  0
 19 27  1  0
 27 28  1  1
 27 29  1  0
 29 30  1  0
 30 31  1  0
 31 32  1  1
  7  5  1  0
 31 10  1  0
 31 13  1  0
 27 15  1  0
 24 18  1  0
  1 33  1  0
  1 34  1  0
  1 35  1  0
  2 36  1  6
  3 37  1  0
  3 38  1  0
  4 39  1  0
  4 40  1  0
  5 41  1  1
  8 42  1  0
  8 43  1  0
  8 44  1  0
  9 45  1  0
  9 46  1  0
  9 47  1  0
 10 48  1  6
 11 49  1  0
 11 50  1  0
 12 51  1  0
 12 52  1  0
 14 53  1  0
 14 54  1  0
 14 55  1  0
 15 56  1  1
 16 57  1  0
 16 58  1  0
 17 59  1  0
 19 60  1  6
 20 61  1  0
 20 62  1  0
 21 63  1  0
 21 64  1  0
 22 65  1  6
 23 66  1  0
 25 67  1  0
 25 68  1  0
 25 69  1  0
 26 70  1  0
 26 71  1  0
 26 72  1  0
 28 73  1  0
 28 74  1  0
 28 75  1  0
 29 76  1  0
 29 77  1  0
 30 78  1  0
 30 79  1  0
 32 80  1  0
 32 81  1  0
 32 82  1  0
M  END
>  <meeko>  (13) 
{"is_sidechain": [false], "intermolecular_energy": 2.731, "internal_energy": -0.839}

$$$$
EPH_relaxed_0001_pdb2pqr_Repair_322_r2_0001_out
     RDKit          3D

 82 86  0  0  0  0  0  0  0  0999 V2000
    4.4970   17.4090   -3.5770 C   0  0  0  0  0  0  0  0  0  0  0  0
    3.1380   17.3960   -2.8730 C   0  0  2  0  0  0  0  0  0  0  0  0
    2.9410   18.6290   -1.9680 C   0  0  0  0  0  0  0  0  0  0  0  0
    1.5480   19.2560   -2.0750 C   0  0  0  0  0  0  0  0  0  0  0  0
    1.1260   19.8940   -0.7860 C   0  0  2  0  0  0  0  0  0  0  0  0
    1.5000   19.1670    0.3920 O   0  0  0  0  0  0  0  0  0  0  0  0
    0.0900   19.2920    0.1450 C   0  0  0  0  0  0  0  0  0  0  0  0
   -0.5880   17.9970   -0.1750 C   0  0  0  0  0  0  0  0  0  0  0  0
   -0.6130   20.1940    1.1110 C   0  0  0  0  0  0  0  0  0  0  0  0
    2.9890   16.1200   -2.0540 C   0  0  1  0  0  0  0  0  0  0  0  0
    3.2390   16.3490   -0.5390 C   0  0  0  0  0  0  0  0  0  0  0  0
    2.2780   15.4000    0.2220 C   0  0  0  0  0  0  0  0  0  0  0  0
    1.7510   14.4290   -0.8610 C   0  0  1  0  0  0  0  0  0  0  0  0
    2.8770   13.3610   -1.0250 C   0  0  0  0  0  0  0  0  0  0  0  0
    0.3630   13.7650   -0.5780 C   0  0  2  0  0  0  0  0  0  0  0  0
    0.3140   12.8630    0.6670 C   0  0  0  0  0  0  0  0  0  0  0  0
    0.6370   11.4250    0.4270 C   0  0  0  0  0  0  0  0  0  0  0  0
    0.6750   10.8240   -0.7770 C   0  0  0  0  0  0  0  0  0  0  0  0
    0.2800   11.5820   -2.0500 C   0  0  1  0  0  0  0  0  0  0  0  0
   -0.6680   10.7010   -2.9050 C   0  0  0  0  0  0  0  0  0  0  0  0
   -0.0780    9.3260   -3.2040 C   0  0  0  0  0  0  0  0  0  0  0  0
    0.2480    8.5800   -1.9130 C   0  0  2  0  0  0  0  0  0  0  0  0
   -0.9750    8.2780   -1.2330 O   0  0  0  0  0  0  0  0  0  0  0  0
    1.1900    9.3750   -0.9660 C   0  0  0  0  0  0  0  0  0  0  0  0
    2.6100    9.4400   -1.5800 C   0  0  0  0  0  0  0  0  0  0  0  0
    1.3240    8.5740    0.3570 C   0  0  0  0  0  0  0  0  0  0  0  0
   -0.2830   13.0530   -1.8340 C   0  0  1  0  0  0  0  0  0  0  0  0
   -1.8200   13.0020   -1.5760 C   0  0  0  0  0  0  0  0  0  0  0  0
   -0.0830   13.8790   -3.1590 C   0  0  0  0  0  0  0  0  0  0  0  0
    1.2630   14.6100   -3.3260 C   0  0  0  0  0  0  0  0  0  0  0  0
    1.6070   15.4200   -2.0730 C   0  0  2  0  0  0  0  0  0  0  0  0
    0.5020   16.5170   -1.8950 C   0  0  0  0  0  0  0  0  0  0  0  0
    5.2996   17.4167   -2.8248 H   0  0  0  0  0  0  0  0  0  0  0  0
    4.5927   16.5117   -4.2061 H   0  0  0  0  0  0  0  0  0  0  0  0
    4.5755   18.3079   -4.2061 H   0  0  0  0  0  0  0  0  0  0  0  0
    2.3618   17.4306   -3.6517 H   0  0  0  0  0  0  0  0  0  0  0  0
    3.1047   18.3231   -0.9241 H   0  0  0  0  0  0  0  0  0  0  0  0
    3.6621   19.3901   -2.3009 H   0  0  0  0  0  0  0  0  0  0  0  0
    1.5617   20.0222   -2.8641 H   0  0  0  0  0  0  0  0  0  0  0  0
    0.8301   18.4573   -2.3131 H   0  0  0  0  0  0  0  0  0  0  0  0
    1.2321   20.8989   -1.2207 H   0  0  0  0  0  0  0  0  0  0  0  0
   -0.8570   17.4832    0.7597 H   0  0  0  0  0  0  0  0  0  0  0  0
   -1.4984   18.1945   -0.7600 H   0  0  0  0  0  0  0  0  0  0  0  0
    0.0930   17.3613   -0.7600 H   0  0  0  0  0  0  0  0  0  0  0  0
   -0.3738   19.8871    2.1399 H   0  0  0  0  0  0  0  0  0  0  0  0
   -0.2825   21.2310    0.9515 H   0  0  0  0  0  0  0  0  0  0  0  0
   -1.6993   20.1267    0.9515 H   0  0  0  0  0  0  0  0  0  0  0  0
    3.7371   15.4900   -2.5574 H   0  0  0  0  0  0  0  0  0  0  0  0
    4.2833   16.1119   -0.2874 H   0  0  0  0  0  0  0  0  0  0  0  0
    3.0578   17.3984   -0.2633 H   0  0  0  0  0  0  0  0  0  0  0  0
    2.8166   14.8501    1.0078 H   0  0  0  0  0  0  0  0  0  0  0  0
    1.4656   15.9445    0.7255 H   0  0  0  0  0  0  0  0  0  0  0  0
    3.2206   13.0351   -0.0322 H   0  0  0  0  0  0  0  0  0  0  0  0
    2.4839   12.4959   -1.5792 H   0  0  0  0  0  0  0  0  0  0  0  0
    3.7201   13.7992   -1.5792 H   0  0  0  0  0  0  0  0  0  0  0  0
   -0.2707   14.6329   -0.3432 H   0  0  0  0  0  0  0  0  0  0  0  0
    1.0348   13.2554    1.3994 H   0  0  0  0  0  0  0  0  0  0  0  0
   -0.7282   12.8859    1.0180 H   0  0  0  0  0  0  0  0  0  0  0  0
    0.8627   10.8052    1.3073 H   0  0  0  0  0  0  0  0  0  0  0  0
    1.2160   11.7633   -2.5987 H   0  0  0  0  0  0  0  0  0  0  0  0
   -1.6136   10.5678   -2.3590 H   0  0  0  0  0  0  0  0  0  0  0  0
   -0.8240   11.2135   -3.8658 H   0  0  0  0  0  0  0  0  0  0  0  0
   -0.8061    8.7402   -3.7842 H   0  0  0  0  0  0  0  0  0  0  0  0
    0.8516    9.4598   -3.7766 H   0  0  0  0  0  0  0  0  0  0  0  0
    0.7856    7.6613   -2.1905 H   0  0  0  0  0  0  0  0  0  0  0  0
   -1.5880    7.8980   -1.8850 H   0  0  0  0  0  0  0  0  0  0  0  0
    3.3571    9.4742   -0.7733 H   0  0  0  0  0  0  0  0  0  0  0  0
    2.7819    8.5488   -2.2014 H   0  0  0  0  0  0  0  0  0  0  0  0
    2.6998   10.3432   -2.2014 H   0  0  0  0  0  0  0  0  0  0  0  0
    1.2098    9.2565    1.2120 H   0  0  0  0  0  0  0  0  0  0  0  0
    0.5427    7.8007    0.3982 H   0  0  0  0  0  0  0  0  0  0  0  0
    2.3144    8.0971    0.3982 H   0  0  0  0  0  0  0  0  0  0  0  0
   -2.0099   12.9957   -0.4925 H   0  0  0  0  0  0  0  0  0  0  0  0
   -2.2970   13.8848   -2.0267 H   0  0  0  0  0  0  0  0  0  0  0  0
   -2.2374   12.0895   -2.0267 H   0  0  0  0  0  0  0  0  0  0  0  0
   -0.1909   13.1833   -4.0042 H   0  0  0  0  0  0  0  0  0  0  0  0
   -0.8400   14.6760   -3.1181 H   0  0  0  0  0  0  0  0  0  0  0  0
    2.0556   13.8682   -3.5035 H   0  0  0  0  0  0  0  0  0  0  0  0
    1.1832   15.3005   -4.1786 H   0  0  0  0  0  0  0  0  0  0  0  0
    0.3271   16.6907   -0.8230 H   0  0  0  0  0  0  0  0  0  0  0  0
    0.8344   17.4525   -2.3685 H   0  0  0  0  0  0  0  0  0  0  0  0
   -0.4311   16.1778   -2.3685 H   0  0  0  0  0  0  0  0  0  0  0  0
  1  2  1  0
  2  3  1  0
  3  4  1  0
  4  5  1  0
  5  6  1  0
  6  7  1  0
  7  8  1  0
  7  9  1  0
  2 10  1  0
 10 11  1  0
 11 12  1  0
 12 13  1  0
 13 14  1  6
 13 15  1  0
 15 16  1  0
 16 17  1  0
 17 18  2  0
 18 19  1  0
 19 20  1  0
 20 21  1  0
 21 22  1  0
 22 23  1  0
 22 24  1  0
 24 25  1  0
 24 26  1  0
 19 27  1  0
 27 28  1  1
 27 29  1  0
 29 30  1  0
 30 31  1  0
 31 32  1  1
  7  5  1  0
 31 10  1  0
 31 13  1  0
 27 15  1  0
 24 18  1  0
  1 33  1  0
  1 34  1  0
  1 35  1  0
  2 36  1  6
  3 37  1  0
  3 38  1  0
  4 39  1  0
  4 40  1  0
  5 41  1  1
  8 42  1  0
  8 43  1  0
  8 44  1  0
  9 45  1  0
  9 46  1  0
  9 47  1  0
 10 48  1  6
 11 49  1  0
 11 50  1  0
 12 51  1  0
 12 52  1  0
 14 53  1  0
 14 54  1  0
 14 55  1  0
 15 56  1  1
 16 57  1  0
 16 58  1  0
 17 59  1  0
 19 60  1  6
 20 61  1  0
 20 62  1  0
 21 63  1  0
 21 64  1  0
 22 65  1  6
 23 66  1  0
 25 67  1  0
 25 68  1  0
 25 69  1  0
 26 70  1  0
 26 71  1  0
 26 72  1  0
 28 73  1  0
 28 74  1  0
 28 75  1  0
 29 76  1  0
 29 77  1  0
 30 78  1  0
 30 79  1  0
 32 80  1  0
 32 81  1  0
 32 82  1  0
M  END
>  <meeko>  (14) 
{"is_sidechain": [false], "intermolecular_energy": 2.731, "internal_energy": -0.839}

$$$$
EPH_relaxed_0001_pdb2pqr_Repair_322_r2_0001_out
     RDKit          3D

 82 86  0  0  0  0  0  0  0  0999 V2000
    2.1950   19.3350   -0.0180 C   0  0  0  0  0  0  0  0  0  0  0  0
    2.8680   17.9810   -0.2630 C   0  0  2  0  0  0  0  0  0  0  0  0
    3.7000   17.9730   -1.5600 C   0  0  0  0  0  0  0  0  0  0  0  0
    5.1690   17.5970   -1.3470 C   0  0  0  0  0  0  0  0  0  0  0  0
    5.9980   17.8880   -2.5610 C   0  0  2  0  0  0  0  0  0  0  0  0
    5.3200   17.6940   -3.8090 O   0  0  0  0  0  0  0  0  0  0  0  0
    6.4340   16.8250   -3.5510 C   0  0  0  0  0  0  0  0  0  0  0  0
    6.0560   15.3880   -3.3700 C   0  0  0  0  0  0  0  0  0  0  0  0
    7.6250   17.0970   -4.4160 C   0  0  0  0  0  0  0  0  0  0  0  0
    1.8150   16.8800   -0.3120 C   0  0  1  0  0  0  0  0  0  0  0  0
    0.4070   17.4150   -0.6830 C   0  0  0  0  0  0  0  0  0  0  0  0
   -0.2810   16.3150   -1.5310 C   0  0  0  0  0  0  0  0  0  0  0  0
    0.6090   15.0640   -1.3420 C   0  0  1  0  0  0  0  0  0  0  0  0
    0.1680   14.4610    0.0280 C   0  0  0  0  0  0  0  0  0  0  0  0
    0.5550   13.9990   -2.4860 C   0  0  2  0  0  0  0  0  0  0  0  0
   -0.8200   13.3440   -2.7030 C   0  0  0  0  0  0  0  0  0  0  0  0
   -1.0660   12.1000   -1.9160 C   0  0  0  0  0  0  0  0  0  0  0  0
   -0.1230   11.3730   -1.2870 C   0  0  0  0  0  0  0  0  0  0  0  0
    1.3630   11.7320   -1.4150 C   0  0  1  0  0  0  0  0  0  0  0  0
    2.1820   10.4470   -1.7080 C   0  0  0  0  0  0  0  0  0  0  0  0
    1.9340    9.3480   -0.6790 C   0  0  0  0  0  0  0  0  0  0  0  0
    0.4540    8.9780   -0.6230 C   0  0  2  0  0  0  0  0  0  0  0  0
    0.0840    8.3670   -1.8630 O   0  0  0  0  0  0  0  0  0  0  0  0
   -0.4710   10.1960   -0.3440 C   0  0  0  0  0  0  0  0  0  0  0  0
   -0.2790   10.6710    1.1180 C   0  0  0  0  0  0  0  0  0  0  0  0
   -1.9430    9.7120   -0.4530 C   0  0  0  0  0  0  0  0  0  0  0  0
    1.7070   12.9160   -2.4180 C   0  0  1  0  0  0  0  0  0  0  0  0
    1.8780   12.3570   -3.8630 C   0  0  0  0  0  0  0  0  0  0  0  0
    3.0940   13.5430   -2.0160 C   0  0  0  0  0  0  0  0  0  0  0  0
    3.0700   14.6730   -0.9690 C   0  0  0  0  0  0  0  0  0  0  0  0
    2.0300   15.7360   -1.3350 C   0  0  2  0  0  0  0  0  0  0  0  0
    2.4590   16.3760   -2.6990 C   0  0  0  0  0  0  0  0  0  0  0  0
    2.1077   19.5106    1.0644 H   0  0  0  0  0  0  0  0  0  0  0  0
    2.8013   20.1331   -0.4712 H   0  0  0  0  0  0  0  0  0  0  0  0
    1.1927   19.3336   -0.4712 H   0  0  0  0  0  0  0  0  0  0  0  0
    3.5591   17.7978    0.5729 H   0  0  0  0  0  0  0  0  0  0  0  0
    3.2529   17.2468   -2.2548 H   0  0  0  0  0  0  0  0  0  0  0  0
    3.6852   18.9985   -1.9576 H   0  0  0  0  0  0  0  0  0  0  0  0
    5.5651   18.1740   -0.4983 H   0  0  0  0  0  0  0  0  0  0  0  0
    5.2206   16.5164   -1.1479 H   0  0  0  0  0  0  0  0  0  0  0  0
    6.5566   18.6672   -2.0216 H   0  0  0  0  0  0  0  0  0  0  0  0
    5.9953   15.1573   -2.2962 H   0  0  0  0  0  0  0  0  0  0  0  0
    5.0789   15.2038   -3.8404 H   0  0  0  0  0  0  0  0  0  0  0  0
    6.8161   14.7469   -3.8404 H   0  0  0  0  0  0  0  0  0  0  0  0
    8.5010   17.2971   -3.7815 H   0  0  0  0  0  0  0  0  0  0  0  0
    7.8246   16.2213   -5.0511 H   0  0  0  0  0  0  0  0  0  0  0  0
    7.4246   17.9725   -5.0511 H   0  0  0  0  0  0  0  0  0  0  0  0
    1.9073   16.4912    0.7128 H   0  0  0  0  0  0  0  0  0  0  0  0
   -0.1763   17.6103    0.2289 H   0  0  0  0  0  0  0  0  0  0  0  0
    0.4785   18.3587   -1.2437 H   0  0  0  0  0  0  0  0  0  0  0  0
   -1.3012   16.1246   -1.1664 H   0  0  0  0  0  0  0  0  0  0  0  0
   -0.3780   16.6025   -2.5883 H   0  0  0  0  0  0  0  0  0  0  0  0
    0.6019   15.0543    0.8464 H   0  0  0  0  0  0  0  0  0  0  0  0
   -0.9293   14.4820    0.1017 H   0  0  0  0  0  0  0  0  0  0  0  0
    0.5206   13.4216    0.1017 H   0  0  0  0  0  0  0  0  0  0  0  0
    0.7411   14.6071   -3.3836 H   0  0  0  0  0  0  0  0  0  0  0  0
   -1.5927   14.0775   -2.4293 H   0  0  0  0  0  0  0  0  0  0  0  0
   -0.8506   13.0451   -3.7612 H   0  0  0  0  0  0  0  0  0  0  0  0
   -2.1054   11.7472   -1.8436 H   0  0  0  0  0  0  0  0  0  0  0  0
    1.6595   12.1510   -0.4421 H   0  0  0  0  0  0  0  0  0  0  0  0
    1.9015   10.0690   -2.7022 H   0  0  0  0  0  0  0  0  0  0  0  0
    3.2484   10.7129   -1.6622 H   0  0  0  0  0  0  0  0  0  0  0  0
    2.5176    8.4575   -0.9554 H   0  0  0  0  0  0  0  0  0  0  0  0
    2.2416    9.7171    0.3105 H   0  0  0  0  0  0  0  0  0  0  0  0
    0.3192    8.2820    0.2181 H   0  0  0  0  0  0  0  0  0  0  0  0
    0.7980    8.5390   -2.5000 H   0  0  0  0  0  0  0  0  0  0  0  0
   -0.6003    9.8760    1.8070 H   0  0  0  0  0  0  0  0  0  0  0  0
    0.7825   10.9005    1.2925 H   0  0  0  0  0  0  0  0  0  0  0  0
   -0.8829   11.5737    1.2925 H   0  0  0  0  0  0  0  0  0  0  0  0
   -2.3596    9.5750    0.5558 H   0  0  0  0  0  0  0  0  0  0  0  0
   -2.5364   10.4623   -0.9960 H   0  0  0  0  0  0  0  0  0  0  0  0
   -1.9754    8.7559   -0.9960 H   0  0  0  0  0  0  0  0  0  0  0  0
    2.1995   11.3062   -3.8140 H   0  0  0  0  0  0  0  0  0  0  0  0
    0.9187   12.4225   -4.3974 H   0  0  0  0  0  0  0  0  0  0  0  0
    2.6365   12.9479   -4.3974 H   0  0  0  0  0  0  0  0  0  0  0  0
    3.7218   12.7329   -1.6165 H   0  0  0  0  0  0  0  0  0  0  0  0
    3.4746   14.0116   -2.9355 H   0  0  0  0  0  0  0  0  0  0  0  0
    2.8195   14.2477    0.0141 H   0  0  0  0  0  0  0  0  0  0  0  0
    4.0621   15.1472   -0.9413 H   0  0  0  0  0  0  0  0  0  0  0  0
    3.0622   17.2759   -2.5082 H   0  0  0  0  0  0  0  0  0  0  0  0
    3.0541   15.6507   -3.2733 H   0  0  0  0  0  0  0  0  0  0  0  0
    1.5620   16.6508   -3.2733 H   0  0  0  0  0  0  0  0  0  0  0  0
  1  2  1  0
  2  3  1  0
  3  4  1  0
  4  5  1  0
  5  6  1  0
  6  7  1  0
  7  8  1  0
  7  9  1  0
  2 10  1  0
 10 11  1  0
 11 12  1  0
 12 13  1  0
 13 14  1  1
 13 15  1  0
 15 16  1  0
 16 17  1  0
 17 18  2  0
 18 19  1  0
 19 20  1  0
 20 21  1  0
 21 22  1  0
 22 23  1  0
 22 24  1  0
 24 25  1  0
 24 26  1  0
 19 27  1  0
 27 28  1  6
 27 29  1  0
 29 30  1  0
 30 31  1  0
 31 32  1  6
  7  5  1  0
 31 10  1  0
 31 13  1  0
 27 15  1  0
 24 18  1  0
  1 33  1  0
  1 34  1  0
  1 35  1  0
  2 36  1  1
  3 37  1  0
  3 38  1  0
  4 39  1  0
  4 40  1  0
  5 41  1  1
  8 42  1  0
  8 43  1  0
  8 44  1  0
  9 45  1  0
  9 46  1  0
  9 47  1  0
 10 48  1  1
 11 49  1  0
 11 50  1  0
 12 51  1  0
 12 52  1  0
 14 53  1  0
 14 54  1  0
 14 55  1  0
 15 56  1  6
 16 57  1  0
 16 58  1  0
 17 59  1  0
 19 60  1  1
 20 61  1  0
 20 62  1  0
 21 63  1  0
 21 64  1  0
 22 65  1  1
 23 66  1  0
 25 67  1  0
 25 68  1  0
 25 69  1  0
 26 70  1  0
 26 71  1  0
 26 72  1  0
 28 73  1  0
 28 74  1  0
 28 75  1  0
 29 76  1  0
 29 77  1  0
 30 78  1  0
 30 79  1  0
 32 80  1  0
 32 81  1  0
 32 82  1  0
M  END
>  <meeko>  (15) 
{"is_sidechain": [false], "intermolecular_energy": 2.731, "internal_energy": -0.839}

$$$$
EPH_relaxed_0001_pdb2pqr_Repair_322_r2_0001_out
     RDKit          3D

 82 86  0  0  0  0  0  0  0  0999 V2000
   -5.1360    5.8980   -1.6320 C   0  0  0  0  0  0  0  0  0  0  0  0
   -5.4270    7.3970   -1.7440 C   0  0  2  0  0  0  0  0  0  0  0  0
   -5.2040    8.1330   -0.4070 C   0  0  0  0  0  0  0  0  0  0  0  0
   -4.1130    9.2050   -0.4700 C   0  0  0  0  0  0  0  0  0  0  0  0
   -2.7760    8.6160   -0.8050 C   0  0  2  0  0  0  0  0  0  0  0  0
   -1.7400    8.9020    0.1430 O   0  0  0  0  0  0  0  0  0  0  0  0
   -1.5630    9.4490   -1.1740 C   0  0  0  0  0  0  0  0  0  0  0  0
   -1.6300   10.9430   -1.2260 C   0  0  0  0  0  0  0  0  0  0  0  0
   -0.4600    8.8020   -1.9520 C   0  0  0  0  0  0  0  0  0  0  0  0
   -6.8560    7.6150   -2.2260 C   0  0  1  0  0  0  0  0  0  0  0  0
   -7.1440    6.9120   -3.5800 C   0  0  0  0  0  0  0  0  0  0  0  0
   -8.6170    6.4320   -3.5310 C   0  0  0  0  0  0  0  0  0  0  0  0
   -9.2230    7.1560   -2.3060 C   0  0  1  0  0  0  0  0  0  0  0  0
   -9.5740    8.5880   -2.8190 C   0  0  0  0  0  0  0  0  0  0  0  0
  -10.4540    6.4660   -1.6340 C   0  0  2  0  0  0  0  0  0  0  0  0
  -11.6960    6.3300   -2.5320 C   0  0  0  0  0  0  0  0  0  0  0  0
  -12.6570    7.4720   -2.4680 C   0  0  0  0  0  0  0  0  0  0  0  0
  -12.6760    8.4250   -1.5170 C   0  0  0  0  0  0  0  0  0  0  0  0
  -11.7270    8.3570   -0.3150 C   0  0  1  0  0  0  0  0  0  0  0  0
  -12.5200    8.6390    0.9880 C   0  0  0  0  0  0  0  0  0  0  0  0
  -13.2950    9.9510    0.9290 C   0  0  0  0  0  0  0  0  0  0  0  0
  -14.2710    9.9570   -0.2450 C   0  0  2  0  0  0  0  0  0  0  0  0
  -15.2870    8.9790   -0.0050 O   0  0  0  0  0  0  0  0  0  0  0  0
  -13.5860    9.6750   -1.6110 C   0  0  0  0  0  0  0  0  0  0  0  0
  -12.7080   10.8850   -2.0140 C   0  0  0  0  0  0  0  0  0  0  0  0
  -14.6980    9.5680   -2.6890 C   0  0  0  0  0  0  0  0  0  0  0  0
  -10.8290    7.0500   -0.2120 C   0  0  1  0  0  0  0  0  0  0  0  0
  -11.6080    5.9270    0.5390 C   0  0  0  0  0  0  0  0  0  0  0  0
   -9.5560    7.3670    0.6590 C   0  0  0  0  0  0  0  0  0  0  0  0
   -8.3310    7.9360   -0.0820 C   0  0  0  0  0  0  0  0  0  0  0  0
   -8.0000    7.0960   -1.3190 C   0  0  2  0  0  0  0  0  0  0  0  0
   -7.6210    5.6550   -0.8320 C   0  0  0  0  0  0  0  0  0  0  0  0
   -5.0808    5.6135   -0.5709 H   0  0  0  0  0  0  0  0  0  0  0  0
   -5.9408    5.3306   -2.1223 H   0  0  0  0  0  0  0  0  0  0  0  0
   -4.1774    5.6729   -2.1223 H   0  0  0  0  0  0  0  0  0  0  0  0
   -4.7203    7.8174   -2.4747 H   0  0  0  0  0  0  0  0  0  0  0  0
   -6.1483    8.6152   -0.1141 H   0  0  0  0  0  0  0  0  0  0  0  0
   -4.8734    7.3800    0.3236 H   0  0  0  0  0  0  0  0  0  0  0  0
   -4.3813    9.9419   -1.2414 H   0  0  0  0  0  0  0  0  0  0  0  0
   -4.0406    9.6793    0.5199 H   0  0  0  0  0  0  0  0  0  0  0  0
   -3.2532    7.7520   -1.2907 H   0  0  0  0  0  0  0  0  0  0  0  0
   -1.6480   11.3451   -0.2023 H   0  0  0  0  0  0  0  0  0  0  0  0
   -0.7484   11.3313   -1.7570 H   0  0  0  0  0  0  0  0  0  0  0  0
   -2.5429   11.2508   -1.7570 H   0  0  0  0  0  0  0  0  0  0  0  0
    0.2751    8.3708   -1.2566 H   0  0  0  0  0  0  0  0  0  0  0  0
   -0.8767    8.0052   -2.5856 H   0  0  0  0  0  0  0  0  0  0  0  0
    0.0321    9.5546   -2.5856 H   0  0  0  0  0  0  0  0  0  0  0  0
   -6.8725    8.7143   -2.2609 H   0  0  0  0  0  0  0  0  0  0  0  0
   -7.0035    7.6188   -4.4111 H   0  0  0  0  0  0  0  0  0  0  0  0
   -6.4585    6.0666   -3.7395 H   0  0  0  0  0  0  0  0  0  0  0  0
   -9.1485    6.7152   -4.4515 H   0  0  0  0  0  0  0  0  0  0  0  0
   -8.6966    5.3379   -3.4503 H   0  0  0  0  0  0  0  0  0  0  0  0
   -9.7376    9.2554   -1.9600 H   0  0  0  0  0  0  0  0  0  0  0  0
   -8.7436    8.9727   -3.4292 H   0  0  0  0  0  0  0  0  0  0  0  0
  -10.4882    8.5450   -3.4292 H   0  0  0  0  0  0  0  0  0  0  0  0
  -10.0897    5.4410   -1.4709 H   0  0  0  0  0  0  0  0  0  0  0  0
  -11.3539    6.2314   -3.5728 H   0  0  0  0  0  0  0  0  0  0  0  0
  -12.2436    5.4501   -2.1634 H   0  0  0  0  0  0  0  0  0  0  0  0
  -13.4125    7.5400   -3.2646 H   0  0  0  0  0  0  0  0  0  0  0  0
  -10.9783    9.1469   -0.4749 H   0  0  0  0  0  0  0  0  0  0  0  0
  -13.2315    7.8164    1.1527 H   0  0  0  0  0  0  0  0  0  0  0  0
  -11.7937    8.7171    1.8104 H   0  0  0  0  0  0  0  0  0  0  0  0
  -13.8578   10.0789    1.8654 H   0  0  0  0  0  0  0  0  0  0  0  0
  -12.5792   10.7753    0.7942 H   0  0  0  0  0  0  0  0  0  0  0  0
  -14.7009   10.9673   -0.3121 H   0  0  0  0  0  0  0  0  0  0  0  0
  -15.9620    9.3880    0.5620 H   0  0  0  0  0  0  0  0  0  0  0  0
  -12.3416   11.3900   -1.1081 H   0  0  0  0  0  0  0  0  0  0  0  0
  -11.8524   10.5348   -2.6101 H   0  0  0  0  0  0  0  0  0  0  0  0
  -13.3063   11.5898   -2.6101 H   0  0  0  0  0  0  0  0  0  0  0  0
  -15.6775    9.4738   -2.1973 H   0  0  0  0  0  0  0  0  0  0  0  0
  -14.6882   10.4712   -3.3168 H   0  0  0  0  0  0  0  0  0  0  0  0
  -14.5162    8.6832   -3.3168 H   0  0  0  0  0  0  0  0  0  0  0  0
  -11.5065    6.0733    1.6245 H   0  0  0  0  0  0  0  0  0  0  0  0
  -12.6715    5.9697    0.2611 H   0  0  0  0  0  0  0  0  0  0  0  0
  -11.1955    4.9459    0.2611 H   0  0  0  0  0  0  0  0  0  0  0  0
   -9.8510    8.0991    1.4252 H   0  0  0  0  0  0  0  0  0  0  0  0
   -9.2275    6.3940    1.0530 H   0  0  0  0  0  0  0  0  0  0  0  0
   -8.5472    8.9681   -0.3952 H   0  0  0  0  0  0  0  0  0  0  0  0
   -7.4674    7.9133    0.5989 H   0  0  0  0  0  0  0  0  0  0  0  0
   -7.6143    5.6295    0.2677 H   0  0  0  0  0  0  0  0  0  0  0  0
   -8.3600    4.9337   -1.2110 H   0  0  0  0  0  0  0  0  0  0  0  0
   -6.6228    5.3906   -1.2110 H   0  0  0  0  0  0  0  0  0  0  0  0
  1  2  1  0
  2  3  1  0
  3  4  1  0
  4  5  1  0
  5  6  1  0
  6  7  1  0
  7  8  1  0
  7  9  1  0
  2 10  1  0
 10 11  1  0
 11 12  1  0
 12 13  1  0
 13 14  1  6
 13 15  1  0
 15 16  1  0
 16 17  1  0
 17 18  2  0
 18 19  1  0
 19 20  1  0
 20 21  1  0
 21 22  1  0
 22 23  1  0
 22 24  1  0
 24 25  1  0
 24 26  1  0
 19 27  1  0
 27 28  1  1
 27 29  1  0
 29 30  1  0
 30 31  1  0
 31 32  1  1
  7  5  1  0
 31 10  1  0
 31 13  1  0
 27 15  1  0
 24 18  1  0
  1 33  1  0
  1 34  1  0
  1 35  1  0
  2 36  1  6
  3 37  1  0
  3 38  1  0
  4 39  1  0
  4 40  1  0
  5 41  1  6
  8 42  1  0
  8 43  1  0
  8 44  1  0
  9 45  1  0
  9 46  1  0
  9 47  1  0
 10 48  1  6
 11 49  1  0
 11 50  1  0
 12 51  1  0
 12 52  1  0
 14 53  1  0
 14 54  1  0
 14 55  1  0
 15 56  1  1
 16 57  1  0
 16 58  1  0
 17 59  1  0
 19 60  1  6
 20 61  1  0
 20 62  1  0
 21 63  1  0
 21 64  1  0
 22 65  1  6
 23 66  1  0
 25 67  1  0
 25 68  1  0
 25 69  1  0
 26 70  1  0
 26 71  1  0
 26 72  1  0
 28 73  1  0
 28 74  1  0
 28 75  1  0
 29 76  1  0
 29 77  1  0
 30 78  1  0
 30 79  1  0
 32 80  1  0
 32 81  1  0
 32 82  1  0
M  END
>  <meeko>  (16) 
{"is_sidechain": [false], "intermolecular_energy": 2.731, "internal_energy": -0.839}

$$$$
EPH_relaxed_0001_pdb2pqr_Repair_322_r2_0001_out
     RDKit          3D

 82 86  0  0  0  0  0  0  0  0999 V2000
    4.2750   17.2100   -1.6260 C   0  0  0  0  0  0  0  0  0  0  0  0
    4.4930   15.6970   -1.5220 C   0  0  2  0  0  0  0  0  0  0  0  0
    4.9750   15.0880   -2.8540 C   0  0  0  0  0  0  0  0  0  0  0  0
    5.7550   13.7810   -2.6860 C   0  0  0  0  0  0  0  0  0  0  0  0
    6.0620   13.1450   -4.0080 C   0  0  2  0  0  0  0  0  0  0  0  0
    4.9110   12.8000   -4.7890 O   0  0  0  0  0  0  0  0  0  0  0  0
    5.7250   11.7040   -4.3420 C   0  0  0  0  0  0  0  0  0  0  0  0
    5.0510   10.8100   -3.3490 C   0  0  0  0  0  0  0  0  0  0  0  0
    6.4830   11.0290   -5.4420 C   0  0  0  0  0  0  0  0  0  0  0  0
    3.2060   15.0160   -1.0730 C   0  0  1  0  0  0  0  0  0  0  0  0
    2.1540   16.0220   -0.5350 C   0  0  0  0  0  0  0  0  0  0  0  0
    0.7620   15.4770   -0.9460 C   0  0  0  0  0  0  0  0  0  0  0  0
    1.0330   14.0260   -1.4090 C   0  0  1  0  0  0  0  0  0  0  0  0
    1.1100   13.1920   -0.0920 C   0  0  0  0  0  0  0  0  0  0  0  0
    0.0040   13.4190   -2.4170 C   0  0  2  0  0  0  0  0  0  0  0  0
   -1.4330   13.2870   -1.8820 C   0  0  0  0  0  0  0  0  0  0  0  0
   -1.7480   11.9900   -1.2140 C   0  0  0  0  0  0  0  0  0  0  0  0
   -1.0100   10.8680   -1.2960 C   0  0  0  0  0  0  0  0  0  0  0  0
    0.2250   10.8020   -2.2050 C   0  0  1  0  0  0  0  0  0  0  0  0
    0.1940    9.4870   -3.0260 C   0  0  0  0  0  0  0  0  0  0  0  0
    0.0520    8.2500   -2.1440 C   0  0  0  0  0  0  0  0  0  0  0  0
   -1.2170    8.3250   -1.2990 C   0  0  2  0  0  0  0  0  0  0  0  0
   -2.3530    8.2510   -2.1660 O   0  0  0  0  0  0  0  0  0  0  0  0
   -1.3020    9.6140   -0.4350 C   0  0  0  0  0  0  0  0  0  0  0  0
   -0.2520    9.5500    0.7010 C   0  0  0  0  0  0  0  0  0  0  0  0
   -2.6910    9.6330    0.2580 C   0  0  0  0  0  0  0  0  0  0  0  0
    0.4870   12.0810   -3.1110 C   0  0  1  0  0  0  0  0  0  0  0  0
   -0.3080   11.9600   -4.4460 C   0  0  0  0  0  0  0  0  0  0  0  0
    2.0110   12.1280   -3.5040 C   0  0  0  0  0  0  0  0  0  0  0  0
    2.9600   12.8460   -2.5250 C   0  0  0  0  0  0  0  0  0  0  0  0
    2.4100   14.2240   -2.1400 C   0  0  2  0  0  0  0  0  0  0  0  0
    2.3430   15.0920   -3.4420 C   0  0  0  0  0  0  0  0  0  0  0  0
    4.2128   17.6418   -0.6162 H   0  0  0  0  0  0  0  0  0  0  0  0
    5.1168   17.6653   -2.1682 H   0  0  0  0  0  0  0  0  0  0  0  0
    3.3389   17.4092   -2.1682 H   0  0  0  0  0  0  0  0  0  0  0  0
    5.2829   15.5264   -0.7757 H   0  0  0  0  0  0  0  0  0  0  0  0
    4.0952   14.8890   -3.4835 H   0  0  0  0  0  0  0  0  0  0  0  0
    5.6616   15.8160   -3.3108 H   0  0  0  0  0  0  0  0  0  0  0  0
    6.7000   13.9942   -2.1649 H   0  0  0  0  0  0  0  0  0  0  0  0
    5.1337   13.0830   -2.1056 H   0  0  0  0  0  0  0  0  0  0  0  0
    6.9927   13.7247   -4.0964 H   0  0  0  0  0  0  0  0  0  0  0  0
    5.3001   11.1404   -2.3298 H   0  0  0  0  0  0  0  0  0  0  0  0
    3.9616   10.8569   -3.4936 H   0  0  0  0  0  0  0  0  0  0  0  0
    5.3959    9.7755   -3.4936 H   0  0  0  0  0  0  0  0  0  0  0  0
    7.2379   10.3568   -5.0082 H   0  0  0  0  0  0  0  0  0  0  0  0
    5.7868   10.4463   -6.0631 H   0  0  0  0  0  0  0  0  0  0  0  0
    6.9814   11.7878   -6.0631 H   0  0  0  0  0  0  0  0  0  0  0  0
    3.6161   14.3262   -0.3207 H   0  0  0  0  0  0  0  0  0  0  0  0
    2.2242   16.0938    0.5604 H   0  0  0  0  0  0  0  0  0  0  0  0
    2.3220   17.0275   -0.9482 H   0  0  0  0  0  0  0  0  0  0  0  0
    0.0718   15.4890   -0.0896 H   0  0  0  0  0  0  0  0  0  0  0  0
    0.2912   16.0851   -1.7325 H   0  0  0  0  0  0  0  0  0  0  0  0
    1.0476   13.8675    0.7739 H   0  0  0  0  0  0  0  0  0  0  0  0
    0.2740   12.4778   -0.0609 H   0  0  0  0  0  0  0  0  0  0  0  0
    2.0627   12.6429   -0.0609 H   0  0  0  0  0  0  0  0  0  0  0  0
   -0.0382   14.1883   -3.2022 H   0  0  0  0  0  0  0  0  0  0  0  0
   -1.5998   14.0939   -1.1533 H   0  0  0  0  0  0  0  0  0  0  0  0
   -2.0915   13.3442   -2.7613 H   0  0  0  0  0  0  0  0  0  0  0  0
   -2.6614   11.9478   -0.6025 H   0  0  0  0  0  0  0  0  0  0  0  0
    1.0970   10.8023   -1.5344 H   0  0  0  0  0  0  0  0  0  0  0  0
   -0.6583    9.5248   -3.7203 H   0  0  0  0  0  0  0  0  0  0  0  0
    1.1504    9.4061   -3.5633 H   0  0  0  0  0  0  0  0  0  0  0  0
    0.0067    7.3557   -2.7829 H   0  0  0  0  0  0  0  0  0  0  0  0
    0.9199    8.1979   -1.4701 H   0  0  0  0  0  0  0  0  0  0  0  0
   -1.1970    7.4780   -0.5974 H   0  0  0  0  0  0  0  0  0  0  0  0
   -2.7030    9.1520   -2.2700 H   0  0  0  0  0  0  0  0  0  0  0  0
   -0.7629    9.5811    1.6747 H   0  0  0  0  0  0  0  0  0  0  0  0
    0.3218    8.6152    0.6177 H   0  0  0  0  0  0  0  0  0  0  0  0
    0.4311   10.4082    0.6177 H   0  0  0  0  0  0  0  0  0  0  0  0
   -2.5561    9.6312    1.3497 H   0  0  0  0  0  0  0  0  0  0  0  0
   -3.2383   10.5387   -0.0423 H   0  0  0  0  0  0  0  0  0  0  0  0
   -3.2628    8.7426   -0.0423 H   0  0  0  0  0  0  0  0  0  0  0  0
   -1.3733   11.7979   -4.2250 H   0  0  0  0  0  0  0  0  0  0  0  0
   -0.1911   12.8863   -5.0276 H   0  0  0  0  0  0  0  0  0  0  0  0
    0.0792   11.1104   -5.0276 H   0  0  0  0  0  0  0  0  0  0  0  0
    2.3606   11.0899   -3.6051 H   0  0  0  0  0  0  0  0  0  0  0  0
    2.0510   12.7206   -4.4298 H   0  0  0  0  0  0  0  0  0  0  0  0
    3.0693   12.2354   -1.6166 H   0  0  0  0  0  0  0  0  0  0  0  0
    3.9345   12.9819   -3.0168 H   0  0  0  0  0  0  0  0  0  0  0  0
    2.2610   16.1548   -3.1703 H   0  0  0  0  0  0  0  0  0  0  0  0
    3.2560   14.9345   -4.0350 H   0  0  0  0  0  0  0  0  0  0  0  0
    1.4650   14.7963   -4.0350 H   0  0  0  0  0  0  0  0  0  0  0  0
  1  2  1  0
  2  3  1  0
  3  4  1  0
  4  5  1  0
  5  6  1  0
  6  7  1  0
  7  8  1  0
  7  9  1  0
  2 10  1  0
 10 11  1  0
 11 12  1  0
 12 13  1  0
 13 14  1  1
 13 15  1  0
 15 16  1  0
 16 17  1  0
 17 18  2  0
 18 19  1  0
 19 20  1  0
 20 21  1  0
 21 22  1  0
 22 23  1  0
 22 24  1  0
 24 25  1  0
 24 26  1  0
 19 27  1  0
 27 28  1  6
 27 29  1  0
 29 30  1  0
 30 31  1  0
 31 32  1  6
  7  5  1  0
 31 10  1  0
 31 13  1  0
 27 15  1  0
 24 18  1  0
  1 33  1  0
  1 34  1  0
  1 35  1  0
  2 36  1  1
  3 37  1  0
  3 38  1  0
  4 39  1  0
  4 40  1  0
  5 41  1  6
  8 42  1  0
  8 43  1  0
  8 44  1  0
  9 45  1  0
  9 46  1  0
  9 47  1  0
 10 48  1  1
 11 49  1  0
 11 50  1  0
 12 51  1  0
 12 52  1  0
 14 53  1  0
 14 54  1  0
 14 55  1  0
 15 56  1  6
 16 57  1  0
 16 58  1  0
 17 59  1  0
 19 60  1  1
 20 61  1  0
 20 62  1  0
 21 63  1  0
 21 64  1  0
 22 65  1  1
 23 66  1  0
 25 67  1  0
 25 68  1  0
 25 69  1  0
 26 70  1  0
 26 71  1  0
 26 72  1  0
 28 73  1  0
 28 74  1  0
 28 75  1  0
 29 76  1  0
 29 77  1  0
 30 78  1  0
 30 79  1  0
 32 80  1  0
 32 81  1  0
 32 82  1  0
M  END
>  <meeko>  (17) 
{"is_sidechain": [false], "intermolecular_energy": 2.731, "internal_energy": -0.839}

$$$$
EPH_relaxed_0001_pdb2pqr_Repair_322_r2_0001_out
     RDKit          3D

 82 86  0  0  0  0  0  0  0  0999 V2000
   -0.1690    8.3560   -3.2160 C   0  0  0  0  0  0  0  0  0  0  0  0
   -0.7800    8.8130   -1.8880 C   0  0  2  0  0  0  0  0  0  0  0  0
   -2.1650    8.1840   -1.6390 C   0  0  0  0  0  0  0  0  0  0  0  0
   -2.6600    7.3080   -2.7930 C   0  0  0  0  0  0  0  0  0  0  0  0
   -4.1420    7.4260   -2.9840 C   0  0  2  0  0  0  0  0  0  0  0  0
   -4.9150    7.2390   -1.7910 O   0  0  0  0  0  0  0  0  0  0  0  0
   -5.1010    6.2600   -2.8270 C   0  0  0  0  0  0  0  0  0  0  0  0
   -4.6140    4.8920   -2.4670 C   0  0  0  0  0  0  0  0  0  0  0  0
   -6.4370    6.3390   -3.4980 C   0  0  0  0  0  0  0  0  0  0  0  0
   -0.8850   10.3330   -1.8610 C   0  0  1  0  0  0  0  0  0  0  0  0
   -2.1990   10.8290   -1.2000 C   0  0  0  0  0  0  0  0  0  0  0  0
   -1.8550   12.1410   -0.4490 C   0  0  0  0  0  0  0  0  0  0  0  0
   -0.4520   12.5320   -0.9690 C   0  0  1  0  0  0  0  0  0  0  0  0
   -0.7140   13.2360   -2.3380 C   0  0  0  0  0  0  0  0  0  0  0  0
    0.4150   13.4200   -0.0190 C   0  0  2  0  0  0  0  0  0  0  0  0
   -0.1730   14.8080    0.2930 C   0  0  0  0  0  0  0  0  0  0  0  0
    0.2360   15.8980   -0.6400 C   0  0  0  0  0  0  0  0  0  0  0  0
    1.2590   15.8390   -1.5120 C   0  0  0  0  0  0  0  0  0  0  0  0
    2.1900   14.6200   -1.5530 C   0  0  1  0  0  0  0  0  0  0  0  0
    3.6650   15.0960   -1.5990 C   0  0  0  0  0  0  0  0  0  0  0  0
    3.9300   16.0700   -2.7430 C   0  0  0  0  0  0  0  0  0  0  0  0
    3.0270   17.2960   -2.6360 C   0  0  2  0  0  0  0  0  0  0  0  0
    3.3950   18.0400   -1.4700 O   0  0  0  0  0  0  0  0  0  0  0  0
    1.5150   16.9390   -2.5720 C   0  0  0  0  0  0  0  0  0  0  0  0
    1.0470   16.4070   -3.9490 C   0  0  0  0  0  0  0  0  0  0  0  0
    0.7250   18.2520   -2.3220 C   0  0  0  0  0  0  0  0  0  0  0  0
    1.9390   13.5190   -0.4340 C   0  0  1  0  0  0  0  0  0  0  0  0
    2.7300   13.8840    0.8590 C   0  0  0  0  0  0  0  0  0  0  0  0
    2.5130   12.1400   -0.9320 C   0  0  0  0  0  0  0  0  0  0  0  0
    1.5680   11.2540   -1.7660 C   0  0  0  0  0  0  0  0  0  0  0  0
    0.2060   11.1080   -1.0810 C   0  0  2  0  0  0  0  0  0  0  0  0
    0.4350   10.3820    0.2890 C   0  0  0  0  0  0  0  0  0  0  0  0
    0.6974    7.7080   -3.0173 H   0  0  0  0  0  0  0  0  0  0  0  0
   -0.9207    7.7967   -3.7923 H   0  0  0  0  0  0  0  0  0  0  0  0
    0.1552    9.2351   -3.7923 H   0  0  0  0  0  0  0  0  0  0  0  0
   -0.1137    8.4720   -1.0819 H   0  0  0  0  0  0  0  0  0  0  0  0
   -2.1067    7.5637   -0.7325 H   0  0  0  0  0  0  0  0  0  0  0  0
   -2.8804    9.0131   -1.5352 H   0  0  0  0  0  0  0  0  0  0  0  0
   -2.1554    7.6204   -3.7192 H   0  0  0  0  0  0  0  0  0  0  0  0
   -2.4283    6.2602   -2.5512 H   0  0  0  0  0  0  0  0  0  0  0  0
   -4.0043    8.1647   -3.7874 H   0  0  0  0  0  0  0  0  0  0  0  0
   -4.5783    4.7918   -1.3722 H   0  0  0  0  0  0  0  0  0  0  0  0
   -5.2989    4.1379   -2.8821 H   0  0  0  0  0  0  0  0  0  0  0  0
   -3.6067    4.7404   -2.8821 H   0  0  0  0  0  0  0  0  0  0  0  0
   -7.2282    6.3858   -2.7352 H   0  0  0  0  0  0  0  0  0  0  0  0
   -6.4792    7.2412   -4.1259 H   0  0  0  0  0  0  0  0  0  0  0  0
   -6.5852    5.4481   -4.1259 H   0  0  0  0  0  0  0  0  0  0  0  0
   -0.7985   10.5427   -2.9374 H   0  0  0  0  0  0  0  0  0  0  0  0
   -2.9608   11.0218   -1.9697 H   0  0  0  0  0  0  0  0  0  0  0  0
   -2.6034   10.0737   -0.5101 H   0  0  0  0  0  0  0  0  0  0  0  0
   -2.5887   12.9263   -0.6833 H   0  0  0  0  0  0  0  0  0  0  0  0
   -1.8743   12.0136    0.6434 H   0  0  0  0  0  0  0  0  0  0  0  0
   -1.0926   14.2534   -2.1606 H   0  0  0  0  0  0  0  0  0  0  0  0
    0.2248   13.2885   -2.9089 H   0  0  0  0  0  0  0  0  0  0  0  0
   -1.4587   12.6620   -2.9089 H   0  0  0  0  0  0  0  0  0  0  0  0
    0.3778   12.8589    0.9264 H   0  0  0  0  0  0  0  0  0  0  0  0
   -1.2696   14.7274    0.2616 H   0  0  0  0  0  0  0  0  0  0  0  0
    0.2201   15.0898    1.2810 H   0  0  0  0  0  0  0  0  0  0  0  0
   -0.3487   16.8294   -0.6127 H   0  0  0  0  0  0  0  0  0  0  0  0
    1.9435   14.0798   -2.4790 H   0  0  0  0  0  0  0  0  0  0  0  0
    3.9043   15.5951   -0.6484 H   0  0  0  0  0  0  0  0  0  0  0  0
    4.2968   14.2103   -1.7615 H   0  0  0  0  0  0  0  0  0  0  0  0
    4.9810   16.3926   -2.7050 H   0  0  0  0  0  0  0  0  0  0  0  0
    3.7183   15.5600   -3.6944 H   0  0  0  0  0  0  0  0  0  0  0  0
    3.1708   17.8922   -3.5492 H   0  0  0  0  0  0  0  0  0  0  0  0
    3.0580   17.5590   -0.6950 H   0  0  0  0  0  0  0  0  0  0  0  0
    0.3271   15.5887   -3.8005 H   0  0  0  0  0  0  0  0  0  0  0  0
    0.5664   17.2205   -4.5123 H   0  0  0  0  0  0  0  0  0  0  0  0
    1.9151   16.0340   -4.5123 H   0  0  0  0  0  0  0  0  0  0  0  0
    0.6245   18.4190   -1.2394 H   0  0  0  0  0  0  0  0  0  0  0  0
    1.2650   19.0967   -2.7747 H   0  0  0  0  0  0  0  0  0  0  0  0
   -0.2742   18.1706   -2.7747 H   0  0  0  0  0  0  0  0  0  0  0  0
    2.1351   13.6095    1.7426 H   0  0  0  0  0  0  0  0  0  0  0  0
    3.6828   13.3345    0.8733 H   0  0  0  0  0  0  0  0  0  0  0  0
    2.9302   14.9655    0.8733 H   0  0  0  0  0  0  0  0  0  0  0  0
    3.4000   12.3516   -1.5473 H   0  0  0  0  0  0  0  0  0  0  0  0
    2.7133   11.5644   -0.0163 H   0  0  0  0  0  0  0  0  0  0  0  0
    1.4256   11.7121   -2.7559 H   0  0  0  0  0  0  0  0  0  0  0  0
    2.0195   10.2558   -1.8648 H   0  0  0  0  0  0  0  0  0  0  0  0
    0.2159   11.0767    1.1132 H   0  0  0  0  0  0  0  0  0  0  0  0
   -0.2316    9.5097    0.3576 H   0  0  0  0  0  0  0  0  0  0  0  0
    1.4815   10.0501    0.3576 H   0  0  0  0  0  0  0  0  0  0  0  0
  1  2  1  0
  2  3  1  0
  3  4  1  0
  4  5  1  0
  5  6  1  0
  6  7  1  0
  7  8  1  0
  7  9  1  0
  2 10  1  0
 10 11  1  0
 11 12  1  0
 12 13  1  0
 13 14  1  6
 13 15  1  0
 15 16  1  0
 16 17  1  0
 17 18  2  0
 18 19  1  0
 19 20  1  0
 20 21  1  0
 21 22  1  0
 22 23  1  0
 22 24  1  0
 24 25  1  0
 24 26  1  0
 19 27  1  0
 27 28  1  1
 27 29  1  0
 29 30  1  0
 30 31  1  0
 31 32  1  1
  7  5  1  0
 31 10  1  0
 31 13  1  0
 27 15  1  0
 24 18  1  0
  1 33  1  0
  1 34  1  0
  1 35  1  0
  2 36  1  1
  3 37  1  0
  3 38  1  0
  4 39  1  0
  4 40  1  0
  5 41  1  6
  8 42  1  0
  8 43  1  0
  8 44  1  0
  9 45  1  0
  9 46  1  0
  9 47  1  0
 10 48  1  6
 11 49  1  0
 11 50  1  0
 12 51  1  0
 12 52  1  0
 14 53  1  0
 14 54  1  0
 14 55  1  0
 15 56  1  1
 16 57  1  0
 16 58  1  0
 17 59  1  0
 19 60  1  6
 20 61  1  0
 20 62  1  0
 21 63  1  0
 21 64  1  0
 22 65  1  6
 23 66  1  0
 25 67  1  0
 25 68  1  0
 25 69  1  0
 26 70  1  0
 26 71  1  0
 26 72  1  0
 28 73  1  0
 28 74  1  0
 28 75  1  0
 29 76  1  0
 29 77  1  0
 30 78  1  0
 30 79  1  0
 32 80  1  0
 32 81  1  0
 32 82  1  0
M  END
>  <meeko>  (18) 
{"is_sidechain": [false], "intermolecular_energy": 2.731, "internal_energy": -0.839}

$$$$
