EPH_relaxed_0001_pdb2pqr_Repair_404_r2_0001_out
     RDKit          3D

 82 86  0  0  0  0  0  0  0  0999 V2000
    2.3280   12.3730   -5.6890 C   0  0  0  0  0  0  0  0  0  0  0  0
    1.3010   13.1030   -4.8190 C   0  0  2  0  0  0  0  0  0  0  0  0
    1.1990   14.6000   -5.1740 C   0  0  0  0  0  0  0  0  0  0  0  0
    0.5030   14.8700   -6.5100 C   0  0  0  0  0  0  0  0  0  0  0  0
    1.4880   14.9880   -7.6340 C   0  0  2  0  0  0  0  0  0  0  0  0
    2.0380   16.2990   -7.8130 O   0  0  0  0  0  0  0  0  0  0  0  0
    1.2310   15.7990   -8.8900 C   0  0  0  0  0  0  0  0  0  0  0  0
   -0.0510   16.5460   -9.0880 C   0  0  0  0  0  0  0  0  0  0  0  0
    2.0100   15.4710  -10.1260 C   0  0  0  0  0  0  0  0  0  0  0  0
    1.6580   12.9400   -3.3460 C   0  0  1  0  0  0  0  0  0  0  0  0
    1.5980   14.2790   -2.5650 C   0  0  0  0  0  0  0  0  0  0  0  0
    1.0950   13.9420   -1.1370 C   0  0  0  0  0  0  0  0  0  0  0  0
    1.2010   12.4020   -1.0400 C   0  0  1  0  0  0  0  0  0  0  0  0
    2.7020   12.1220   -0.7150 C   0  0  0  0  0  0  0  0  0  0  0  0
    0.2480   11.7070   -0.0140 C   0  0  2  0  0  0  0  0  0  0  0  0
    0.4720   12.1040    1.4560 C   0  0  0  0  0  0  0  0  0  0  0  0
    1.4420   11.2520    2.2060 C   0  0  0  0  0  0  0  0  0  0  0  0
    1.8920   10.0470    1.8120 C   0  0  0  0  0  0  0  0  0  0  0  0
    1.3450    9.3770    0.5440 C   0  0  1  0  0  0  0  0  0  0  0  0
    1.0110    7.8930    0.8460 C   0  0  0  0  0  0  0  0  0  0  0  0
    2.1950    7.1360    1.4400 C   0  0  0  0  0  0  0  0  0  0  0  0
    2.6730    7.7980    2.7300 C   0  0  2  0  0  0  0  0  0  0  0  0
    1.6540    7.6600    3.7240 O   0  0  0  0  0  0  0  0  0  0  0  0
    3.0300    9.3010    2.5510 C   0  0  0  0  0  0  0  0  0  0  0  0
    4.3240    9.4330    1.7110 C   0  0  0  0  0  0  0  0  0  0  0  0
    3.3610    9.8820    3.9520 C   0  0  0  0  0  0  0  0  0  0  0  0
    0.1510   10.1360   -0.1800 C   0  0  1  0  0  0  0  0  0  0  0  0
   -1.2110    9.7060    0.4460 C   0  0  0  0  0  0  0  0  0  0  0  0
    0.1040    9.6960   -1.6910 C   0  0  0  0  0  0  0  0  0  0  0  0
    0.9760   10.4980   -2.6760 C   0  0  0  0  0  0  0  0  0  0  0  0
    0.7620   12.0040   -2.4970 C   0  0  2  0  0  0  0  0  0  0  0  0
   -0.7340   12.3190   -2.8390 C   0  0  0  0  0  0  0  0  0  0  0  0
    3.0542   11.8568   -5.0439 H   0  0  0  0  0  0  0  0  0  0  0  0
    1.8134   11.6368   -6.3240 H   0  0  0  0  0  0  0  0  0  0  0  0
    2.8541   13.1009   -6.3240 H   0  0  0  0  0  0  0  0  0  0  0  0
    0.3184   12.6494   -5.0157 H   0  0  0  0  0  0  0  0  0  0  0  0
    0.6331   15.1076   -4.3789 H   0  0  0  0  0  0  0  0  0  0  0  0
    2.2275   14.9793   -5.2652 H   0  0  0  0  0  0  0  0  0  0  0  0
   -0.1873   14.0413   -6.7263 H   0  0  0  0  0  0  0  0  0  0  0  0
   -0.0395   15.8234   -6.4277 H   0  0  0  0  0  0  0  0  0  0  0  0
    1.8227   13.9515   -7.4804 H   0  0  0  0  0  0  0  0  0  0  0  0
   -0.4835   16.7980   -8.1085 H   0  0  0  0  0  0  0  0  0  0  0  0
    0.1464   17.4705   -9.6505 H   0  0  0  0  0  0  0  0  0  0  0  0
   -0.7579   15.9184   -9.6505 H   0  0  0  0  0  0  0  0  0  0  0  0
    2.9897   15.0585   -9.8432 H   0  0  0  0  0  0  0  0  0  0  0  0
    1.4577   14.7290  -10.7214 H   0  0  0  0  0  0  0  0  0  0  0  0
    2.1548   16.3845  -10.7214 H   0  0  0  0  0  0  0  0  0  0  0  0
    2.6644   12.5075   -3.4467 H   0  0  0  0  0  0  0  0  0  0  0  0
    2.5981   14.7345   -2.5167 H   0  0  0  0  0  0  0  0  0  0  0  0
    0.9272   14.9959   -3.0611 H   0  0  0  0  0  0  0  0  0  0  0  0
    1.7291   14.4236   -0.3781 H   0  0  0  0  0  0  0  0  0  0  0  0
    0.0708   14.3019   -0.9595 H   0  0  0  0  0  0  0  0  0  0  0  0
    2.8423   12.0958    0.3757 H   0  0  0  0  0  0  0  0  0  0  0  0
    2.9960   11.1535   -1.1458 H   0  0  0  0  0  0  0  0  0  0  0  0
    3.3254   12.9194   -1.1458 H   0  0  0  0  0  0  0  0  0  0  0  0
   -0.7347   12.1178   -0.2887 H   0  0  0  0  0  0  0  0  0  0  0  0
    0.8430   13.1394    1.4757 H   0  0  0  0  0  0  0  0  0  0  0  0
   -0.4983   11.9741    1.9576 H   0  0  0  0  0  0  0  0  0  0  0  0
    1.8209   11.6428    3.1619 H   0  0  0  0  0  0  0  0  0  0  0  0
    2.1509    9.4336   -0.2025 H   0  0  0  0  0  0  0  0  0  0  0  0
    0.1756    7.8580    1.5608 H   0  0  0  0  0  0  0  0  0  0  0  0
    0.7493    7.4091   -0.1066 H   0  0  0  0  0  0  0  0  0  0  0  0
    1.8888    6.1021    1.6577 H   0  0  0  0  0  0  0  0  0  0  0  0
    3.0200    7.1472    0.7126 H   0  0  0  0  0  0  0  0  0  0  0  0
    3.5989    7.2904    3.0383 H   0  0  0  0  0  0  0  0  0  0  0  0
    2.0820    7.7260    4.5950 H   0  0  0  0  0  0  0  0  0  0  0  0
    5.1901    9.5214    2.3833 H   0  0  0  0  0  0  0  0  0  0  0  0
    4.4417    8.5422    1.0765 H   0  0  0  0  0  0  0  0  0  0  0  0
    4.2594   10.3292    1.0765 H   0  0  0  0  0  0  0  0  0  0  0  0
    2.9759    9.2060    4.7296 H   0  0  0  0  0  0  0  0  0  0  0  0
    4.4512    9.9813    4.0596 H   0  0  0  0  0  0  0  0  0  0  0  0
    2.8904   10.8704    4.0596 H   0  0  0  0  0  0  0  0  0  0  0  0
   -1.1342    9.7302    1.5431 H   0  0  0  0  0  0  0  0  0  0  0  0
   -2.0001   10.3987    0.1183 H   0  0  0  0  0  0  0  0  0  0  0  0
   -1.4593    8.6858    0.1183 H   0  0  0  0  0  0  0  0  0  0  0  0
    0.4254    8.6452   -1.7417 H   0  0  0  0  0  0  0  0  0  0  0  0
   -0.9326    9.8773   -2.0112 H   0  0  0  0  0  0  0  0  0  0  0  0
    2.0347   10.2609   -2.4946 H   0  0  0  0  0  0  0  0  0  0  0  0
    0.6900   10.2227   -3.7019 H   0  0  0  0  0  0  0  0  0  0  0  0
   -1.3057   12.4394   -1.9070 H   0  0  0  0  0  0  0  0  0  0  0  0
   -0.7883   13.2483   -3.4251 H   0  0  0  0  0  0  0  0  0  0  0  0
   -1.1584   11.4905   -3.4251 H   0  0  0  0  0  0  0  0  0  0  0  0
  1  2  1  0
  2  3  1  0
  3  4  1  0
  4  5  1  0
  5  6  1  0
  6  7  1  0
  7  8  1  0
  7  9  1  0
  2 10  1  0
 10 11  1  0
 11 12  1  0
 12 13  1  0
 13 14  1  1
 13 15  1  0
 15 16  1  0
 16 17  1  0
 17 18  2  0
 18 19  1  0
 19 20  1  0
 20 21  1  0
 21 22  1  0
 22 23  1  0
 22 24  1  0
 24 25  1  0
 24 26  1  0
 19 27  1  0
 27 28  1  1
 27 29  1  0
 29 30  1  0
 30 31  1  0
 31 32  1  1
  7  5  1  0
 31 10  1  0
 31 13  1  0
 27 15  1  0
 24 18  1  0
  1 33  1  0
  1 34  1  0
  1 35  1  0
  2 36  1  1
  3 37  1  0
  3 38  1  0
  4 39  1  0
  4 40  1  0
  5 41  1  6
  8 42  1  0
  8 43  1  0
  8 44  1  0
  9 45  1  0
  9 46  1  0
  9 47  1  0
 10 48  1  6
 11 49  1  0
 11 50  1  0
 12 51  1  0
 12 52  1  0
 14 53  1  0
 14 54  1  0
 14 55  1  0
 15 56  1  6
 16 57  1  0
 16 58  1  0
 17 59  1  0
 19 60  1  6
 20 61  1  0
 20 62  1  0
 21 63  1  0
 21 64  1  0
 22 65  1  1
 23 66  1  0
 25 67  1  0
 25 68  1  0
 25 69  1  0
 26 70  1  0
 26 71  1  0
 26 72  1  0
 28 73  1  0
 28 74  1  0
 28 75  1  0
 29 76  1  0
 29 77  1  0
 30 78  1  0
 30 79  1  0
 32 80  1  0
 32 81  1  0
 32 82  1  0
M  END
>  <meeko>  (1) 
{"is_sidechain": [false], "intermolecular_energy": 2.731, "internal_energy": -0.839}

$$$$
EPH_relaxed_0001_pdb2pqr_Repair_404_r2_0001_out
     RDKit          3D

 82 86  0  0  0  0  0  0  0  0999 V2000
   -1.2240    8.4090   -1.8390 C   0  0  0  0  0  0  0  0  0  0  0  0
   -1.7780    9.1770   -0.6370 C   0  0  2  0  0  0  0  0  0  0  0  0
   -3.2180    9.6740   -0.8780 C   0  0  0  0  0  0  0  0  0  0  0  0
   -4.2770    8.8930   -0.0960 C   0  0  0  0  0  0  0  0  0  0  0  0
   -4.5210    7.5390   -0.6920 C   0  0  2  0  0  0  0  0  0  0  0  0
   -4.6260    7.5240   -2.1210 O   0  0  0  0  0  0  0  0  0  0  0  0
   -5.8090    7.1540   -1.3950 C   0  0  0  0  0  0  0  0  0  0  0  0
   -6.9400    8.1240   -1.5390 C   0  0  0  0  0  0  0  0  0  0  0  0
   -6.1560    5.7020   -1.5090 C   0  0  0  0  0  0  0  0  0  0  0  0
   -0.8690   10.3560   -0.3090 C   0  0  1  0  0  0  0  0  0  0  0  0
    0.3140    9.9600    0.6140 C   0  0  0  0  0  0  0  0  0  0  0  0
    1.5270   10.8220    0.1810 C   0  0  0  0  0  0  0  0  0  0  0  0
    0.9250   11.9090   -0.7400 C   0  0  1  0  0  0  0  0  0  0  0  0
    0.3480   12.9840    0.2330 C   0  0  0  0  0  0  0  0  0  0  0  0
    1.8960   12.5420   -1.7890 C   0  0  2  0  0  0  0  0  0  0  0  0
    3.0950   13.3010   -1.1940 C   0  0  0  0  0  0  0  0  0  0  0  0
    2.8680   14.7550   -0.9430 C   0  0  0  0  0  0  0  0  0  0  0  0
    1.8550   15.4870   -1.4440 C   0  0  0  0  0  0  0  0  0  0  0  0
    0.8570   14.8750   -2.4360 C   0  0  1  0  0  0  0  0  0  0  0  0
    0.6460   15.8490   -3.6250 C   0  0  0  0  0  0  0  0  0  0  0  0
    0.2350   17.2470   -3.1700 C   0  0  0  0  0  0  0  0  0  0  0  0
    1.2800   17.8440   -2.2310 C   0  0  2  0  0  0  0  0  0  0  0  0
    2.4850   18.0730   -2.9690 O   0  0  0  0  0  0  0  0  0  0  0  0
    1.5830   16.9450   -1.0000 C   0  0  0  0  0  0  0  0  0  0  0  0
    0.3650   16.9430   -0.0440 C   0  0  0  0  0  0  0  0  0  0  0  0
    2.7520   17.5950   -0.2120 C   0  0  0  0  0  0  0  0  0  0  0  0
    1.1730   13.3920   -2.9110 C   0  0  1  0  0  0  0  0  0  0  0  0
    2.1360   13.4200   -4.1380 C   0  0  0  0  0  0  0  0  0  0  0  0
   -0.1600   12.7170   -3.4080 C   0  0  0  0  0  0  0  0  0  0  0  0
   -1.0160   12.0040   -2.3440 C   0  0  0  0  0  0  0  0  0  0  0  0
   -0.1610   11.0590   -1.4950 C   0  0  2  0  0  0  0  0  0  0  0  0
    0.4150    9.9530   -2.4430 C   0  0  0  0  0  0  0  0  0  0  0  0
   -0.6147    7.5643   -1.4852 H   0  0  0  0  0  0  0  0  0  0  0  0
   -2.0580    8.0299   -2.4479 H   0  0  0  0  0  0  0  0  0  0  0  0
   -0.6011    9.0808   -2.4479 H   0  0  0  0  0  0  0  0  0  0  0  0
   -1.8069    8.4812    0.2145 H   0  0  0  0  0  0  0  0  0  0  0  0
   -3.2751   10.7312   -0.5795 H   0  0  0  0  0  0  0  0  0  0  0  0
   -3.4342    9.5276   -1.9466 H   0  0  0  0  0  0  0  0  0  0  0  0
   -3.9343    8.7690    0.9419 H   0  0  0  0  0  0  0  0  0  0  0  0
   -5.2191    9.4595   -0.1354 H   0  0  0  0  0  0  0  0  0  0  0  0
   -3.9465    7.0559    0.1121 H   0  0  0  0  0  0  0  0  0  0  0  0
   -7.2928    8.4265   -0.5420 H   0  0  0  0  0  0  0  0  0  0  0  0
   -6.5945    9.0109   -2.0904 H   0  0  0  0  0  0  0  0  0  0  0  0
   -7.7639    7.6474   -2.0904 H   0  0  0  0  0  0  0  0  0  0  0  0
   -6.2593    5.2696   -0.5028 H   0  0  0  0  0  0  0  0  0  0  0  0
   -7.1053    5.5936   -2.0540 H   0  0  0  0  0  0  0  0  0  0  0  0
   -5.3583    5.1760   -2.0540 H   0  0  0  0  0  0  0  0  0  0  0  0
   -1.6047   11.0352    0.1465 H   0  0  0  0  0  0  0  0  0  0  0  0
    0.0597   10.1645    1.6645 H   0  0  0  0  0  0  0  0  0  0  0  0
    0.5408    8.8871    0.5270 H   0  0  0  0  0  0  0  0  0  0  0  0
    2.0106   11.2794    1.0567 H   0  0  0  0  0  0  0  0  0  0  0  0
    2.3010   10.2275   -0.3264 H   0  0  0  0  0  0  0  0  0  0  0  0
    0.5182   12.6668    1.2724 H   0  0  0  0  0  0  0  0  0  0  0  0
    0.8509   13.9462    0.0562 H   0  0  0  0  0  0  0  0  0  0  0  0
   -0.7318   13.0967    0.0562 H   0  0  0  0  0  0  0  0  0  0  0  0
    2.3196   11.6553   -2.2833 H   0  0  0  0  0  0  0  0  0  0  0  0
    3.3558   12.8273   -0.2361 H   0  0  0  0  0  0  0  0  0  0  0  0
    3.8955   13.2433   -1.9462 H   0  0  0  0  0  0  0  0  0  0  0  0
    3.5896   15.2723   -0.2936 H   0  0  0  0  0  0  0  0  0  0  0  0
   -0.0856   14.7517   -1.8825 H   0  0  0  0  0  0  0  0  0  0  0  0
    1.5866   15.9244   -4.1904 H   0  0  0  0  0  0  0  0  0  0  0  0
   -0.1681   15.4469   -4.2459 H   0  0  0  0  0  0  0  0  0  0  0  0
    0.1304   17.8964   -4.0517 H   0  0  0  0  0  0  0  0  0  0  0  0
   -0.7209   17.1739   -2.6307 H   0  0  0  0  0  0  0  0  0  0  0  0
    0.8703   18.7858   -1.8371 H   0  0  0  0  0  0  0  0  0  0  0  0
    3.2140   17.6590   -2.4760 H   0  0  0  0  0  0  0  0  0  0  0  0
    0.7169   16.9436    0.9982 H   0  0  0  0  0  0  0  0  0  0  0  0
   -0.2451   17.8401   -0.2255 H   0  0  0  0  0  0  0  0  0  0  0  0
   -0.2421   16.0439   -0.2255 H   0  0  0  0  0  0  0  0  0  0  0  0
    2.5680   17.4927    0.8677 H   0  0  0  0  0  0  0  0  0  0  0  0
    3.6946   17.0915   -0.4727 H   0  0  0  0  0  0  0  0  0  0  0  0
    2.8217   18.6614   -0.4727 H   0  0  0  0  0  0  0  0  0  0  0  0
    3.1777   13.4503   -3.7859 H   0  0  0  0  0  0  0  0  0  0  0  0
    1.9808   12.5170   -4.7466 H   0  0  0  0  0  0  0  0  0  0  0  0
    1.9286   14.3125   -4.7466 H   0  0  0  0  0  0  0  0  0  0  0  0
   -0.7811   13.5025   -3.8632 H   0  0  0  0  0  0  0  0  0  0  0  0
    0.1596   11.9235   -4.0995 H   0  0  0  0  0  0  0  0  0  0  0  0
   -1.4773   12.7579   -1.6891 H   0  0  0  0  0  0  0  0  0  0  0  0
   -1.7897   11.4125   -2.8554 H   0  0  0  0  0  0  0  0  0  0  0  0
    0.8397    9.1374   -1.8393 H   0  0  0  0  0  0  0  0  0  0  0  0
   -0.3917    9.5576   -3.0777 H   0  0  0  0  0  0  0  0  0  0  0  0
    1.2015   10.3873   -3.0777 H   0  0  0  0  0  0  0  0  0  0  0  0
  1  2  1  0
  2  3  1  0
  3  4  1  0
  4  5  1  0
  5  6  1  0
  6  7  1  0
  7  8  1  0
  7  9  1  0
  2 10  1  0
 10 11  1  0
 11 12  1  0
 12 13  1  0
 13 14  1  1
 13 15  1  0
 15 16  1  0
 16 17  1  0
 17 18  2  0
 18 19  1  0
 19 20  1  0
 20 21  1  0
 21 22  1  0
 22 23  1  0
 22 24  1  0
 24 25  1  0
 24 26  1  0
 19 27  1  0
 27 28  1  6
 27 29  1  0
 29 30  1  0
 30 31  1  0
 31 32  1  6
  7  5  1  0
 31 10  1  0
 31 13  1  0
 27 15  1  0
 24 18  1  0
  1 33  1  0
  1 34  1  0
  1 35  1  0
  2 36  1  1
  3 37  1  0
  3 38  1  0
  4 39  1  0
  4 40  1  0
  5 41  1  6
  8 42  1  0
  8 43  1  0
  8 44  1  0
  9 45  1  0
  9 46  1  0
  9 47  1  0
 10 48  1  1
 11 49  1  0
 11 50  1  0
 12 51  1  0
 12 52  1  0
 14 53  1  0
 14 54  1  0
 14 55  1  0
 15 56  1  6
 16 57  1  0
 16 58  1  0
 17 59  1  0
 19 60  1  1
 20 61  1  0
 20 62  1  0
 21 63  1  0
 21 64  1  0
 22 65  1  1
 23 66  1  0
 25 67  1  0
 25 68  1  0
 25 69  1  0
 26 70  1  0
 26 71  1  0
 26 72  1  0
 28 73  1  0
 28 74  1  0
 28 75  1  0
 29 76  1  0
 29 77  1  0
 30 78  1  0
 30 79  1  0
 32 80  1  0
 32 81  1  0
 32 82  1  0
M  END
>  <meeko>  (2) 
{"is_sidechain": [false], "intermolecular_energy": 2.731, "internal_energy": -0.839}

$$$$
EPH_relaxed_0001_pdb2pqr_Repair_404_r2_0001_out
     RDKit          3D

 82 86  0  0  0  0  0  0  0  0999 V2000
    2.3440   19.8010   -0.9210 C   0  0  0  0  0  0  0  0  0  0  0  0
    2.1360   18.8960    0.2960 C   0  0  2  0  0  0  0  0  0  0  0  0
    3.4720   18.4290    0.9080 C   0  0  0  0  0  0  0  0  0  0  0  0
    3.7550   19.0200    2.2920 C   0  0  0  0  0  0  0  0  0  0  0  0
    5.2200   19.0200    2.6060 C   0  0  2  0  0  0  0  0  0  0  0  0
    5.6590   17.9250    3.4200 O   0  0  0  0  0  0  0  0  0  0  0  0
    5.7770   19.2340    4.0010 C   0  0  0  0  0  0  0  0  0  0  0  0
    4.8760   19.4630    5.1740 C   0  0  0  0  0  0  0  0  0  0  0  0
    7.1910   19.7050    4.1430 C   0  0  0  0  0  0  0  0  0  0  0  0
    1.2920   17.6880   -0.0930 C   0  0  1  0  0  0  0  0  0  0  0  0
    0.1570   18.0480   -1.0880 C   0  0  0  0  0  0  0  0  0  0  0  0
   -0.0110   16.8330   -2.0360 C   0  0  0  0  0  0  0  0  0  0  0  0
    0.7900   15.6960   -1.3570 C   0  0  1  0  0  0  0  0  0  0  0  0
   -0.1660   15.1320   -0.2590 C   0  0  0  0  0  0  0  0  0  0  0  0
    1.3180   14.5660   -2.2990 C   0  0  2  0  0  0  0  0  0  0  0  0
    0.2280   13.7570   -3.0230 C   0  0  0  0  0  0  0  0  0  0  0  0
   -0.2520   12.5430   -2.2990 C   0  0  0  0  0  0  0  0  0  0  0  0
    0.3660   11.9590   -1.2550 C   0  0  0  0  0  0  0  0  0  0  0  0
    1.7280   12.4640   -0.7630 C   0  0  1  0  0  0  0  0  0  0  0  0
    2.6790   11.2590   -0.5430 C   0  0  0  0  0  0  0  0  0  0  0  0
    2.0800   10.2020    0.3810 C   0  0  0  0  0  0  0  0  0  0  0  0
    0.7560    9.6820   -0.1720 C   0  0  2  0  0  0  0  0  0  0  0  0
    1.0120    8.9630   -1.3820 O   0  0  0  0  0  0  0  0  0  0  0  0
   -0.2800   10.8090   -0.4430 C   0  0  0  0  0  0  0  0  0  0  0  0
   -0.7830   11.3880    0.9020 C   0  0  0  0  0  0  0  0  0  0  0  0
   -1.5160   10.1670   -1.1290 C   0  0  0  0  0  0  0  0  0  0  0  0
    2.3950   13.6170   -1.6310 C   0  0  1  0  0  0  0  0  0  0  0  0
    3.2230   12.9940   -2.7970 C   0  0  0  0  0  0  0  0  0  0  0  0
    3.4170   14.4100   -0.7340 C   0  0  0  0  0  0  0  0  0  0  0  0
    2.8570   15.5910    0.0800 C   0  0  0  0  0  0  0  0  0  0  0  0
    2.0130   16.5150   -0.8030 C   0  0  2  0  0  0  0  0  0  0  0  0
    2.9530   17.1150   -1.9030 C   0  0  0  0  0  0  0  0  0  0  0  0
    2.5785   20.8213   -0.5834 H   0  0  0  0  0  0  0  0  0  0  0  0
    3.1768   19.4148   -1.5271 H   0  0  0  0  0  0  0  0  0  0  0  0
    1.4262   19.8172   -1.5271 H   0  0  0  0  0  0  0  0  0  0  0  0
    1.6107   19.4865    1.0611 H   0  0  0  0  0  0  0  0  0  0  0  0
    3.4491   17.3328    0.9966 H   0  0  0  0  0  0  0  0  0  0  0  0
    4.2719   18.7794    0.2391 H   0  0  0  0  0  0  0  0  0  0  0  0
    3.3845   20.0554    2.3200 H   0  0  0  0  0  0  0  0  0  0  0  0
    3.2439   18.3978    3.0414 H   0  0  0  0  0  0  0  0  0  0  0  0
    5.4503   19.4913    1.6392 H   0  0  0  0  0  0  0  0  0  0  0  0
    5.4430   19.3189    6.1055 H   0  0  0  0  0  0  0  0  0  0  0  0
    4.4826   20.4897    5.1393 H   0  0  0  0  0  0  0  0  0  0  0  0
    4.0402   18.7487    5.1393 H   0  0  0  0  0  0  0  0  0  0  0  0
    7.4440   19.7893    5.2102 H   0  0  0  0  0  0  0  0  0  0  0  0
    7.8678   18.9838    3.6616 H   0  0  0  0  0  0  0  0  0  0  0  0
    7.3001   20.6880    3.6616 H   0  0  0  0  0  0  0  0  0  0  0  0
    0.9521   17.3721    0.9043 H   0  0  0  0  0  0  0  0  0  0  0  0
   -0.7797   18.2347   -0.5423 H   0  0  0  0  0  0  0  0  0  0  0  0
    0.4029   18.9586   -1.6539 H   0  0  0  0  0  0  0  0  0  0  0  0
   -1.0718   16.5579   -2.1308 H   0  0  0  0  0  0  0  0  0  0  0  0
    0.3466   17.0453   -3.0544 H   0  0  0  0  0  0  0  0  0  0  0  0
    0.2377   15.3701    0.7362 H   0  0  0  0  0  0  0  0  0  0  0  0
   -1.1610   15.5878   -0.3698 H   0  0  0  0  0  0  0  0  0  0  0  0
   -0.2482   14.0407   -0.3698 H   0  0  0  0  0  0  0  0  0  0  0  0
    1.8367   15.1360   -3.0839 H   0  0  0  0  0  0  0  0  0  0  0  0
   -0.6352   14.4192   -3.1856 H   0  0  0  0  0  0  0  0  0  0  0  0
    0.6867   13.3941   -3.9546 H   0  0  0  0  0  0  0  0  0  0  0  0
   -1.1901   12.0868   -2.6480 H   0  0  0  0  0  0  0  0  0  0  0  0
    1.5366   12.9681    0.1958 H   0  0  0  0  0  0  0  0  0  0  0  0
    2.8922   10.7955   -1.5175 H   0  0  0  0  0  0  0  0  0  0  0  0
    3.5948   11.6389   -0.0665 H   0  0  0  0  0  0  0  0  0  0  0  0
    2.7857    9.3633    0.4739 H   0  0  0  0  0  0  0  0  0  0  0  0
    1.8948   10.6592    1.3642 H   0  0  0  0  0  0  0  0  0  0  0  0
    0.3139    9.0270    0.5932 H   0  0  0  0  0  0  0  0  0  0  0  0
    0.5110    8.1300   -1.3410 H   0  0  0  0  0  0  0  0  0  0  0  0
   -0.3113   10.8450    1.7342 H   0  0  0  0  0  0  0  0  0  0  0  0
   -0.5195   12.4542    0.9637 H   0  0  0  0  0  0  0  0  0  0  0  0
   -1.8756   11.2761    0.9637 H   0  0  0  0  0  0  0  0  0  0  0  0
   -2.2146    9.8042   -0.3606 H   0  0  0  0  0  0  0  0  0  0  0  0
   -2.0186   10.9180   -1.7562 H   0  0  0  0  0  0  0  0  0  0  0  0
   -1.1906    9.3240   -1.7562 H   0  0  0  0  0  0  0  0  0  0  0  0
    4.0371   12.3815   -2.3822 H   0  0  0  0  0  0  0  0  0  0  0  0
    2.5679   12.3629   -3.4155 H   0  0  0  0  0  0  0  0  0  0  0  0
    3.6479   13.7983   -3.4155 H   0  0  0  0  0  0  0  0  0  0  0  0
    3.8593   13.6963   -0.0234 H   0  0  0  0  0  0  0  0  0  0  0  0
    4.1302   14.8602   -1.4402 H   0  0  0  0  0  0  0  0  0  0  0  0
    2.2298   15.2008    0.8951 H   0  0  0  0  0  0  0  0  0  0  0  0
    3.7008   16.1685    0.4856 H   0  0  0  0  0  0  0  0  0  0  0  0
    3.7869   17.6473   -1.4221 H   0  0  0  0  0  0  0  0  0  0  0  0
    3.3493   16.3025   -2.5297 H   0  0  0  0  0  0  0  0  0  0  0  0
    2.3829   17.8166   -2.5297 H   0  0  0  0  0  0  0  0  0  0  0  0
  1  2  1  0
  2  3  1  0
  3  4  1  0
  4  5  1  0
  5  6  1  0
  6  7  1  0
  7  8  1  0
  7  9  1  0
  2 10  1  0
 10 11  1  0
 11 12  1  0
 12 13  1  0
 13 14  1  1
 13 15  1  0
 15 16  1  0
 16 17  1  0
 17 18  2  0
 18 19  1  0
 19 20  1  0
 20 21  1  0
 21 22  1  0
 22 23  1  0
 22 24  1  0
 24 25  1  0
 24 26  1  0
 19 27  1  0
 27 28  1  6
 27 29  1  0
 29 30  1  0
 30 31  1  0
 31 32  1  6
  7  5  1  0
 31 10  1  0
 31 13  1  0
 27 15  1  0
 24 18  1  0
  1 33  1  0
  1 34  1  0
  1 35  1  0
  2 36  1  1
  3 37  1  0
  3 38  1  0
  4 39  1  0
  4 40  1  0
  5 41  1  6
  8 42  1  0
  8 43  1  0
  8 44  1  0
  9 45  1  0
  9 46  1  0
  9 47  1  0
 10 48  1  1
 11 49  1  0
 11 50  1  0
 12 51  1  0
 12 52  1  0
 14 53  1  0
 14 54  1  0
 14 55  1  0
 15 56  1  6
 16 57  1  0
 16 58  1  0
 17 59  1  0
 19 60  1  1
 20 61  1  0
 20 62  1  0
 21 63  1  0
 21 64  1  0
 22 65  1  1
 23 66  1  0
 25 67  1  0
 25 68  1  0
 25 69  1  0
 26 70  1  0
 26 71  1  0
 26 72  1  0
 28 73  1  0
 28 74  1  0
 28 75  1  0
 29 76  1  0
 29 77  1  0
 30 78  1  0
 30 79  1  0
 32 80  1  0
 32 81  1  0
 32 82  1  0
M  END
>  <meeko>  (3) 
{"is_sidechain": [false], "intermolecular_energy": 2.731, "internal_energy": -0.839}

$$$$
EPH_relaxed_0001_pdb2pqr_Repair_404_r2_0001_out
     RDKit          3D

 82 86  0  0  0  0  0  0  0  0999 V2000
    2.9990   17.1720   -1.2770 C   0  0  0  0  0  0  0  0  0  0  0  0
    1.6590   16.5710   -1.7130 C   0  0  2  0  0  0  0  0  0  0  0  0
    0.5170   17.6070   -1.6720 C   0  0  0  0  0  0  0  0  0  0  0  0
    0.8050   18.8040   -0.7610 C   0  0  0  0  0  0  0  0  0  0  0  0
   -0.3770   19.7200   -0.6610 C   0  0  2  0  0  0  0  0  0  0  0  0
   -0.6560   20.1940    0.6630 O   0  0  0  0  0  0  0  0  0  0  0  0
   -1.6580   19.3560    0.0660 C   0  0  0  0  0  0  0  0  0  0  0  0
   -1.8240   18.0300    0.7400 C   0  0  0  0  0  0  0  0  0  0  0  0
   -2.9160   20.0840   -0.2940 C   0  0  0  0  0  0  0  0  0  0  0  0
    1.3130   15.3780   -0.8300 C   0  0  1  0  0  0  0  0  0  0  0  0
   -0.2020   15.2950   -0.5050 C   0  0  0  0  0  0  0  0  0  0  0  0
   -0.5640   13.7890   -0.4420 C   0  0  0  0  0  0  0  0  0  0  0  0
    0.8000   13.0610   -0.4010 C   0  0  1  0  0  0  0  0  0  0  0  0
    1.2540   13.1440    1.0910 C   0  0  0  0  0  0  0  0  0  0  0  0
    0.8150   11.5890   -0.9280 C   0  0  2  0  0  0  0  0  0  0  0  0
   -0.0610   10.6040   -0.1350 C   0  0  0  0  0  0  0  0  0  0  0  0
    0.6240    9.9090    0.9960 C   0  0  0  0  0  0  0  0  0  0  0  0
    1.9550    9.8510    1.1860 C   0  0  0  0  0  0  0  0  0  0  0  0
    2.9250   10.4430    0.1560 C   0  0  1  0  0  0  0  0  0  0  0  0
    4.0640    9.4290   -0.1250 C   0  0  0  0  0  0  0  0  0  0  0  0
    4.7710    8.9750    1.1480 C   0  0  0  0  0  0  0  0  0  0  0  0
    3.7840    8.3380    2.1230 C   0  0  2  0  0  0  0  0  0  0  0  0
    3.2980    7.1180    1.5560 O   0  0  0  0  0  0  0  0  0  0  0  0
    2.5860    9.2650    2.4740 C   0  0  0  0  0  0  0  0  0  0  0  0
    3.0780   10.4410    3.3530 C   0  0  0  0  0  0  0  0  0  0  0  0
    1.5950    8.4530    3.3500 C   0  0  0  0  0  0  0  0  0  0  0  0
    2.2640   11.0040   -1.1760 C   0  0  1  0  0  0  0  0  0  0  0  0
    2.1070    9.8540   -2.2170 C   0  0  0  0  0  0  0  0  0  0  0  0
    3.2330   12.0620   -1.8250 C   0  0  0  0  0  0  0  0  0  0  0  0
    3.0890   13.5200   -1.3490 C   0  0  0  0  0  0  0  0  0  0  0  0
    1.6240   13.9670   -1.3870 C   0  0  2  0  0  0  0  0  0  0  0  0
    1.1470   13.9150   -2.8780 C   0  0  0  0  0  0  0  0  0  0  0  0
    3.0504   17.1951   -0.1784 H   0  0  0  0  0  0  0  0  0  0  0  0
    3.8219   16.5567   -1.6697 H   0  0  0  0  0  0  0  0  0  0  0  0
    3.0868   18.1957   -1.6697 H   0  0  0  0  0  0  0  0  0  0  0  0
    1.7677   16.2414   -2.7568 H   0  0  0  0  0  0  0  0  0  0  0  0
    0.3495   17.9800   -2.6932 H   0  0  0  0  0  0  0  0  0  0  0  0
   -0.3666   17.0959   -1.2620 H   0  0  0  0  0  0  0  0  0  0  0  0
    1.0563   18.4349    0.2443 H   0  0  0  0  0  0  0  0  0  0  0  0
    1.6430   19.3706   -1.1931 H   0  0  0  0  0  0  0  0  0  0  0  0
   -0.1879   20.1134   -1.6707 H   0  0  0  0  0  0  0  0  0  0  0  0
   -1.8067   18.1686    1.8311 H   0  0  0  0  0  0  0  0  0  0  0  0
   -2.7849   17.5850    0.4421 H   0  0  0  0  0  0  0  0  0  0  0  0
   -1.0025   17.3619    0.4421 H   0  0  0  0  0  0  0  0  0  0  0  0
   -3.4399   20.3872    0.6245 H   0  0  0  0  0  0  0  0  0  0  0  0
   -2.6663   20.9772   -0.8855 H   0  0  0  0  0  0  0  0  0  0  0  0
   -3.5660   19.4225   -0.8855 H   0  0  0  0  0  0  0  0  0  0  0  0
    1.9612   15.5930    0.0323 H   0  0  0  0  0  0  0  0  0  0  0  0
   -0.4086   15.7751    0.4629 H   0  0  0  0  0  0  0  0  0  0  0  0
   -0.7990   15.8131   -1.2700 H   0  0  0  0  0  0  0  0  0  0  0  0
   -1.1495   13.5679    0.4626 H   0  0  0  0  0  0  0  0  0  0  0  0
   -1.1803   13.4721   -1.2962 H   0  0  0  0  0  0  0  0  0  0  0  0
    0.3860   12.9853    1.7478 H   0  0  0  0  0  0  0  0  0  0  0  0
    2.0094   12.3691    1.2881 H   0  0  0  0  0  0  0  0  0  0  0  0
    1.6864   14.1361    1.2881 H   0  0  0  0  0  0  0  0  0  0  0  0
    0.3376   11.6862   -1.9142 H   0  0  0  0  0  0  0  0  0  0  0  0
   -0.9142   11.1632    0.2765 H   0  0  0  0  0  0  0  0  0  0  0  0
   -0.3520    9.8159   -0.8450 H   0  0  0  0  0  0  0  0  0  0  0  0
   -0.0131    9.4020    1.7357 H   0  0  0  0  0  0  0  0  0  0  0  0
    3.3402   11.3518    0.6161 H   0  0  0  0  0  0  0  0  0  0  0  0
    3.6357    8.5472   -0.6240 H   0  0  0  0  0  0  0  0  0  0  0  0
    4.8091    9.9315   -0.7593 H   0  0  0  0  0  0  0  0  0  0  0  0
    5.5450    8.2384    0.8867 H   0  0  0  0  0  0  0  0  0  0  0  0
    5.2235    9.8538    1.6307 H   0  0  0  0  0  0  0  0  0  0  0  0
    4.3229    8.1514    3.0636 H   0  0  0  0  0  0  0  0  0  0  0  0
    3.7980    6.3870    1.9580 H   0  0  0  0  0  0  0  0  0  0  0  0
    2.9673   10.1764    4.4149 H   0  0  0  0  0  0  0  0  0  0  0  0
    4.1367   10.6444    3.1342 H   0  0  0  0  0  0  0  0  0  0  0  0
    2.4796   11.3377    3.1342 H   0  0  0  0  0  0  0  0  0  0  0  0
    1.8137    8.6322    4.4131 H   0  0  0  0  0  0  0  0  0  0  0  0
    0.5653    8.7704    3.1289 H   0  0  0  0  0  0  0  0  0  0  0  0
    1.7037    7.3809    3.1289 H   0  0  0  0  0  0  0  0  0  0  0  0
    1.9764    8.8975   -1.6898 H   0  0  0  0  0  0  0  0  0  0  0  0
    1.2270   10.0481   -2.8478 H   0  0  0  0  0  0  0  0  0  0  0  0
    3.0068    9.8051   -2.8478 H   0  0  0  0  0  0  0  0  0  0  0  0
    4.2641   11.7430   -1.6128 H   0  0  0  0  0  0  0  0  0  0  0  0
    2.9662   12.0800   -2.8920 H   0  0  0  0  0  0  0  0  0  0  0  0
    3.4632   13.6005   -0.3177 H   0  0  0  0  0  0  0  0  0  0  0  0
    3.6709   14.1676   -2.0213 H   0  0  0  0  0  0  0  0  0  0  0  0
    0.0539   13.7958   -2.9093 H   0  0  0  0  0  0  0  0  0  0  0  0
    1.4287   14.8492   -3.3859 H   0  0  0  0  0  0  0  0  0  0  0  0
    1.6234   13.0635   -3.3859 H   0  0  0  0  0  0  0  0  0  0  0  0
  1  2  1  0
  2  3  1  0
  3  4  1  0
  4  5  1  0
  5  6  1  0
  6  7  1  0
  7  8  1  0
  7  9  1  0
  2 10  1  0
 10 11  1  0
 11 12  1  0
 12 13  1  0
 13 14  1  1
 13 15  1  0
 15 16  1  0
 16 17  1  0
 17 18  2  0
 18 19  1  0
 19 20  1  0
 20 21  1  0
 21 22  1  0
 22 23  1  0
 22 24  1  0
 24 25  1  0
 24 26  1  0
 19 27  1  0
 27 28  1  6
 27 29  1  0
 29 30  1  0
 30 31  1  0
 31 32  1  6
  7  5  1  0
 31 10  1  0
 31 13  1  0
 27 15  1  0
 24 18  1  0
  1 33  1  0
  1 34  1  0
  1 35  1  0
  2 36  1  6
  3 37  1  0
  3 38  1  0
  4 39  1  0
  4 40  1  0
  5 41  1  6
  8 42  1  0
  8 43  1  0
  8 44  1  0
  9 45  1  0
  9 46  1  0
  9 47  1  0
 10 48  1  1
 11 49  1  0
 11 50  1  0
 12 51  1  0
 12 52  1  0
 14 53  1  0
 14 54  1  0
 14 55  1  0
 15 56  1  6
 16 57  1  0
 16 58  1  0
 17 59  1  0
 19 60  1  1
 20 61  1  0
 20 62  1  0
 21 63  1  0
 21 64  1  0
 22 65  1  1
 23 66  1  0
 25 67  1  0
 25 68  1  0
 25 69  1  0
 26 70  1  0
 26 71  1  0
 26 72  1  0
 28 73  1  0
 28 74  1  0
 28 75  1  0
 29 76  1  0
 29 77  1  0
 30 78  1  0
 30 79  1  0
 32 80  1  0
 32 81  1  0
 32 82  1  0
M  END
>  <meeko>  (4) 
{"is_sidechain": [false], "intermolecular_energy": 2.731, "internal_energy": -0.839}

$$$$
EPH_relaxed_0001_pdb2pqr_Repair_404_r2_0001_out
     RDKit          3D

 82 86  0  0  0  0  0  0  0  0999 V2000
    2.8780   12.4510   -5.4000 C   0  0  0  0  0  0  0  0  0  0  0  0
    1.4480   12.9660   -5.2160 C   0  0  2  0  0  0  0  0  0  0  0  0
    1.2530   14.3690   -5.8240 C   0  0  0  0  0  0  0  0  0  0  0  0
    0.8860   14.3500   -7.3100 C   0  0  0  0  0  0  0  0  0  0  0  0
    0.8660   15.7300   -7.8940 C   0  0  2  0  0  0  0  0  0  0  0  0
    0.1570   15.8450   -9.1350 O   0  0  0  0  0  0  0  0  0  0  0  0
    1.5700   16.1030   -9.1860 C   0  0  0  0  0  0  0  0  0  0  0  0
    2.3450   15.0920   -9.9710 C   0  0  0  0  0  0  0  0  0  0  0  0
    1.9120   17.5400   -9.4250 C   0  0  0  0  0  0  0  0  0  0  0  0
    1.0890   12.9860   -3.7340 C   0  0  1  0  0  0  0  0  0  0  0  0
   -0.3010   13.6210   -3.4650 C   0  0  0  0  0  0  0  0  0  0  0  0
   -0.9200   12.8530   -2.2690 C   0  0  0  0  0  0  0  0  0  0  0  0
    0.2540   12.0350   -1.6820 C   0  0  1  0  0  0  0  0  0  0  0  0
    1.0400   13.0450   -0.7890 C   0  0  0  0  0  0  0  0  0  0  0  0
   -0.1320   10.7430   -0.8900 C   0  0  2  0  0  0  0  0  0  0  0  0
   -0.9780   10.9810    0.3730 C   0  0  0  0  0  0  0  0  0  0  0  0
   -0.2010   11.1820    1.6320 C   0  0  0  0  0  0  0  0  0  0  0  0
    1.1030   10.8920    1.8020 C   0  0  0  0  0  0  0  0  0  0  0  0
    1.9100   10.2120    0.6880 C   0  0  1  0  0  0  0  0  0  0  0  0
    2.7410    9.0470    1.2880 C   0  0  0  0  0  0  0  0  0  0  0  0
    3.6170    9.4940    2.4540 C   0  0  0  0  0  0  0  0  0  0  0  0
    2.7730   10.1120    3.5650 C   0  0  2  0  0  0  0  0  0  0  0  0
    1.9470    9.0930    4.1380 O   0  0  0  0  0  0  0  0  0  0  0  0
    1.8850   11.2910    3.0770 C   0  0  0  0  0  0  0  0  0  0  0  0
    2.7780   12.5100    2.7390 C   0  0  0  0  0  0  0  0  0  0  0  0
    0.9810   11.7300    4.2610 C   0  0  0  0  0  0  0  0  0  0  0  0
    1.0840    9.7740   -0.5980 C   0  0  1  0  0  0  0  0  0  0  0  0
    0.4790    8.3530   -0.3830 C   0  0  0  0  0  0  0  0  0  0  0  0
    2.0650    9.6580   -1.8240 C   0  0  0  0  0  0  0  0  0  0  0  0
    2.3130   10.9420   -2.6390 C   0  0  0  0  0  0  0  0  0  0  0  0
    0.9910   11.6210   -3.0080 C   0  0  2  0  0  0  0  0  0  0  0  0
    0.1870   10.6370   -3.9250 C   0  0  0  0  0  0  0  0  0  0  0  0
    3.3377   12.2854   -4.4145 H   0  0  0  0  0  0  0  0  0  0  0  0
    2.8575   11.5038   -5.9589 H   0  0  0  0  0  0  0  0  0  0  0  0
    3.4662   13.1938   -5.9589 H   0  0  0  0  0  0  0  0  0  0  0  0
    0.7774   12.2781   -5.7519 H   0  0  0  0  0  0  0  0  0  0  0  0
    0.4473   14.8770   -5.2738 H   0  0  0  0  0  0  0  0  0  0  0  0
    2.2159   14.8936   -5.7373 H   0  0  0  0  0  0  0  0  0  0  0  0
    1.6268   13.7442   -7.8524 H   0  0  0  0  0  0  0  0  0  0  0  0
   -0.1223   13.9214   -7.4086 H   0  0  0  0  0  0  0  0  0  0  0  0
    0.8791   16.1800   -6.8903 H   0  0  0  0  0  0  0  0  0  0  0  0
    2.8659   14.4125   -9.2804 H   0  0  0  0  0  0  0  0  0  0  0  0
    1.6566   14.5137  -10.6048 H   0  0  0  0  0  0  0  0  0  0  0  0
    3.0822   15.6066  -10.6048 H   0  0  0  0  0  0  0  0  0  0  0  0
    2.0342   18.0533   -8.4598 H   0  0  0  0  0  0  0  0  0  0  0  0
    2.8504   17.6036   -9.9955 H   0  0  0  0  0  0  0  0  0  0  0  0
    1.1029   18.0195   -9.9955 H   0  0  0  0  0  0  0  0  0  0  0  0
    1.9436   13.5587   -3.3445 H   0  0  0  0  0  0  0  0  0  0  0  0
   -0.1887   14.6860   -3.2139 H   0  0  0  0  0  0  0  0  0  0  0  0
   -0.9451   13.5526   -4.3541 H   0  0  0  0  0  0  0  0  0  0  0  0
   -1.3172   13.5545   -1.5206 H   0  0  0  0  0  0  0  0  0  0  0  0
   -1.7624   12.2146   -2.5738 H   0  0  0  0  0  0  0  0  0  0  0  0
    0.8602   12.8140    0.2713 H   0  0  0  0  0  0  0  0  0  0  0  0
    2.1157   12.9649   -1.0044 H   0  0  0  0  0  0  0  0  0  0  0  0
    0.6981   14.0681   -1.0044 H   0  0  0  0  0  0  0  0  0  0  0  0
   -0.7924   10.2205   -1.5977 H   0  0  0  0  0  0  0  0  0  0  0  0
   -1.5930   11.8776    0.2063 H   0  0  0  0  0  0  0  0  0  0  0  0
   -1.5674   10.0642    0.5220 H   0  0  0  0  0  0  0  0  0  0  0  0
   -0.7395   11.6027    2.4940 H   0  0  0  0  0  0  0  0  0  0  0  0
    2.5841   10.9829    0.2864 H   0  0  0  0  0  0  0  0  0  0  0  0
    2.0506    8.2680    1.6439 H   0  0  0  0  0  0  0  0  0  0  0  0
    3.4052    8.6684    0.4971 H   0  0  0  0  0  0  0  0  0  0  0  0
    4.1561    8.6226    2.8539 H   0  0  0  0  0  0  0  0  0  0  0  0
    4.3266   10.2515    2.0897 H   0  0  0  0  0  0  0  0  0  0  0  0
    3.4652   10.5289    4.3113 H   0  0  0  0  0  0  0  0  0  0  0  0
    1.2710    8.8580    3.4800 H   0  0  0  0  0  0  0  0  0  0  0  0
    3.1232   12.9813    3.6710 H   0  0  0  0  0  0  0  0  0  0  0  0
    3.6471   12.1766    2.1529 H   0  0  0  0  0  0  0  0  0  0  0  0
    2.1980   13.2381    2.1529 H   0  0  0  0  0  0  0  0  0  0  0  0
    1.4788   11.4883    5.2117 H   0  0  0  0  0  0  0  0  0  0  0  0
    0.8043   12.8143    4.2050 H   0  0  0  0  0  0  0  0  0  0  0  0
    0.0196   11.1984    4.2050 H   0  0  0  0  0  0  0  0  0  0  0  0
    0.3928    8.1504    0.6947 H   0  0  0  0  0  0  0  0  0  0  0  0
   -0.5176    8.3049   -0.8460 H   0  0  0  0  0  0  0  0  0  0  0  0
    1.1351    7.6012   -0.8460 H   0  0  0  0  0  0  0  0  0  0  0  0
    3.0371    9.3139   -1.4410 H   0  0  0  0  0  0  0  0  0  0  0  0
    1.5730    8.9645   -2.5219 H   0  0  0  0  0  0  0  0  0  0  0  0
    2.9195   11.6370   -2.0398 H   0  0  0  0  0  0  0  0  0  0  0  0
    2.8397   10.6725   -3.5664 H   0  0  0  0  0  0  0  0  0  0  0  0
   -0.3851    9.9368   -3.2986 H   0  0  0  0  0  0  0  0  0  0  0  0
   -0.5046   11.2100   -4.5601 H   0  0  0  0  0  0  0  0  0  0  0  0
    0.8864   10.0735   -4.5601 H   0  0  0  0  0  0  0  0  0  0  0  0
  1  2  1  0
  2  3  1  0
  3  4  1  0
  4  5  1  0
  5  6  1  0
  6  7  1  0
  7  8  1  0
  7  9  1  0
  2 10  1  0
 10 11  1  0
 11 12  1  0
 12 13  1  0
 13 14  1  1
 13 15  1  0
 15 16  1  0
 16 17  1  0
 17 18  2  0
 18 19  1  0
 19 20  1  0
 20 21  1  0
 21 22  1  0
 22 23  1  0
 22 24  1  0
 24 25  1  0
 24 26  1  0
 19 27  1  0
 27 28  1  1
 27 29  1  0
 29 30  1  0
 30 31  1  0
 31 32  1  6
  7  5  1  0
 31 10  1  0
 31 13  1  0
 27 15  1  0
 24 18  1  0
  1 33  1  0
  1 34  1  0
  1 35  1  0
  2 36  1  6
  3 37  1  0
  3 38  1  0
  4 39  1  0
  4 40  1  0
  5 41  1  1
  8 42  1  0
  8 43  1  0
  8 44  1  0
  9 45  1  0
  9 46  1  0
  9 47  1  0
 10 48  1  1
 11 49  1  0
 11 50  1  0
 12 51  1  0
 12 52  1  0
 14 53  1  0
 14 54  1  0
 14 55  1  0
 15 56  1  6
 16 57  1  0
 16 58  1  0
 17 59  1  0
 19 60  1  6
 20 61  1  0
 20 62  1  0
 21 63  1  0
 21 64  1  0
 22 65  1  1
 23 66  1  0
 25 67  1  0
 25 68  1  0
 25 69  1  0
 26 70  1  0
 26 71  1  0
 26 72  1  0
 28 73  1  0
 28 74  1  0
 28 75  1  0
 29 76  1  0
 29 77  1  0
 30 78  1  0
 30 79  1  0
 32 80  1  0
 32 81  1  0
 32 82  1  0
M  END
>  <meeko>  (5) 
{"is_sidechain": [false], "intermolecular_energy": 2.731, "internal_energy": -0.839}

$$$$
EPH_relaxed_0001_pdb2pqr_Repair_404_r2_0001_out
     RDKit          3D

 82 86  0  0  0  0  0  0  0  0999 V2000
   -0.1080   14.7010   -4.4030 C   0  0  0  0  0  0  0  0  0  0  0  0
    1.2650   14.0290   -4.3250 C   0  0  2  0  0  0  0  0  0  0  0  0
    1.3400   12.7570   -5.1930 C   0  0  0  0  0  0  0  0  0  0  0  0
    2.7410   12.4640   -5.7370 C   0  0  0  0  0  0  0  0  0  0  0  0
    3.3600   11.2770   -5.0640 C   0  0  2  0  0  0  0  0  0  0  0  0
    3.8460   11.5260   -3.7380 O   0  0  0  0  0  0  0  0  0  0  0  0
    4.8350   11.1830   -4.7220 C   0  0  0  0  0  0  0  0  0  0  0  0
    5.7830   12.2960   -5.0450 C   0  0  0  0  0  0  0  0  0  0  0  0
    5.4390    9.8280   -4.5240 C   0  0  0  0  0  0  0  0  0  0  0  0
    1.5960   13.6910   -2.8760 C   0  0  1  0  0  0  0  0  0  0  0  0
    1.4860   14.9200   -1.9350 C   0  0  0  0  0  0  0  0  0  0  0  0
    0.9640   14.3950   -0.5730 C   0  0  0  0  0  0  0  0  0  0  0  0
    1.1060   12.8580   -0.6670 C   0  0  1  0  0  0  0  0  0  0  0  0
    2.6070   12.5740   -0.3430 C   0  0  0  0  0  0  0  0  0  0  0  0
    0.1510   12.0190    0.2430 C   0  0  2  0  0  0  0  0  0  0  0  0
    0.3350   12.2340    1.7560 C   0  0  0  0  0  0  0  0  0  0  0  0
    1.3110   11.3170    2.4160 C   0  0  0  0  0  0  0  0  0  0  0  0
    1.7990   10.1810    1.8850 C   0  0  0  0  0  0  0  0  0  0  0  0
    1.2950    9.6630    0.5320 C   0  0  1  0  0  0  0  0  0  0  0  0
    0.9930    8.1450    0.6380 C   0  0  0  0  0  0  0  0  0  0  0  0
    2.1840    7.3470    1.1610 C   0  0  0  0  0  0  0  0  0  0  0  0
    2.6190    7.8540    2.5340 C   0  0  2  0  0  0  0  0  0  0  0  0
    1.5830    7.5690    3.4790 O   0  0  0  0  0  0  0  0  0  0  0  0
    2.9400    9.3740    2.5530 C   0  0  0  0  0  0  0  0  0  0  0  0
    4.2470    9.6400    1.7660 C   0  0  0  0  0  0  0  0  0  0  0  0
    3.2280    9.7830    4.0220 C   0  0  0  0  0  0  0  0  0  0  0  0
    0.0970   10.4800   -0.1200 C   0  0  1  0  0  0  0  0  0  0  0  0
   -1.2660    9.9440    0.4160 C   0  0  0  0  0  0  0  0  0  0  0  0
    0.0910   10.2310   -1.6740 C   0  0  0  0  0  0  0  0  0  0  0  0
    0.9630   11.1690   -2.5310 C   0  0  0  0  0  0  0  0  0  0  0  0
    0.7070   12.6360   -2.1710 C   0  0  2  0  0  0  0  0  0  0  0  0
   -0.7890   12.9570   -2.5060 C   0  0  0  0  0  0  0  0  0  0  0  0
   -0.4844   14.8852   -3.3859 H   0  0  0  0  0  0  0  0  0  0  0  0
   -0.0183   15.6571   -4.9396 H   0  0  0  0  0  0  0  0  0  0  0  0
   -0.8080   14.0437   -4.9396 H   0  0  0  0  0  0  0  0  0  0  0  0
    2.0047   14.7412   -4.7195 H   0  0  0  0  0  0  0  0  0  0  0  0
    1.0186   11.9005   -4.5822 H   0  0  0  0  0  0  0  0  0  0  0  0
    0.6861   12.9221   -6.0620 H   0  0  0  0  0  0  0  0  0  0  0  0
    2.6698   12.2648   -6.8165 H   0  0  0  0  0  0  0  0  0  0  0  0
    3.3759   13.3402   -5.5388 H   0  0  0  0  0  0  0  0  0  0  0  0
    2.6807   10.5933   -5.5942 H   0  0  0  0  0  0  0  0  0  0  0  0
    6.1602   12.7389   -4.1114 H   0  0  0  0  0  0  0  0  0  0  0  0
    6.6264   11.9010   -5.6304 H   0  0  0  0  0  0  0  0  0  0  0  0
    5.2589   13.0658   -5.6304 H   0  0  0  0  0  0  0  0  0  0  0  0
    5.5311    9.6214   -3.4475 H   0  0  0  0  0  0  0  0  0  0  0  0
    4.7946    9.0677   -4.9895 H   0  0  0  0  0  0  0  0  0  0  0  0
    6.4352    9.7991   -4.9895 H   0  0  0  0  0  0  0  0  0  0  0  0
    2.6149   13.2976   -3.0070 H   0  0  0  0  0  0  0  0  0  0  0  0
    2.4729   15.3888   -1.8072 H   0  0  0  0  0  0  0  0  0  0  0  0
    0.8069   15.6778   -2.3528 H   0  0  0  0  0  0  0  0  0  0  0  0
    1.5711   14.7912    0.2544 H   0  0  0  0  0  0  0  0  0  0  0  0
   -0.0721   14.7069   -0.3751 H   0  0  0  0  0  0  0  0  0  0  0  0
    2.7480   12.5473    0.7476 H   0  0  0  0  0  0  0  0  0  0  0  0
    2.8982   11.6048   -0.7742 H   0  0  0  0  0  0  0  0  0  0  0  0
    3.2321   13.3698   -0.7742 H   0  0  0  0  0  0  0  0  0  0  0  0
   -0.8361   12.4392   -0.0000 H   0  0  0  0  0  0  0  0  0  0  0  0
    0.6791   13.2669    1.9132 H   0  0  0  0  0  0  0  0  0  0  0  0
   -0.6417   12.0205    2.2149 H   0  0  0  0  0  0  0  0  0  0  0  0
    1.6608   11.5935    3.4216 H   0  0  0  0  0  0  0  0  0  0  0  0
    2.1144    9.8308   -0.1825 H   0  0  0  0  0  0  0  0  0  0  0  0
    0.1441    8.0012    1.3226 H   0  0  0  0  0  0  0  0  0  0  0  0
    0.7636    7.7786   -0.3735 H   0  0  0  0  0  0  0  0  0  0  0  0
    1.9000    6.2874    1.2418 H   0  0  0  0  0  0  0  0  0  0  0  0
    3.0230    7.4676    0.4599 H   0  0  0  0  0  0  0  0  0  0  0  0
    3.5519    7.3341    2.7975 H   0  0  0  0  0  0  0  0  0  0  0  0
    2.0090    7.3710    4.3310 H   0  0  0  0  0  0  0  0  0  0  0  0
    5.0729    9.8081    2.4729 H   0  0  0  0  0  0  0  0  0  0  0  0
    4.4773    8.7703    1.1331 H   0  0  0  0  0  0  0  0  0  0  0  0
    4.1191   10.5305    1.1331 H   0  0  0  0  0  0  0  0  0  0  0  0
    2.7308    9.0769    4.7034 H   0  0  0  0  0  0  0  0  0  0  0  0
    4.3130    9.7639    4.2019 H   0  0  0  0  0  0  0  0  0  0  0  0
    2.8443   10.7981    4.2019 H   0  0  0  0  0  0  0  0  0  0  0  0
   -1.2547    9.9484    1.5159 H   0  0  0  0  0  0  0  0  0  0  0  0
   -2.0810   10.5886    0.0551 H   0  0  0  0  0  0  0  0  0  0  0  0
   -1.4236    8.9169    0.0551 H   0  0  0  0  0  0  0  0  0  0  0  0
    0.4391    9.2021   -1.8476 H   0  0  0  0  0  0  0  0  0  0  0  0
   -0.9431   10.4277   -1.9932 H   0  0  0  0  0  0  0  0  0  0  0  0
    2.0234   10.9350   -2.3553 H   0  0  0  0  0  0  0  0  0  0  0  0
    0.7058   11.0174   -3.5897 H   0  0  0  0  0  0  0  0  0  0  0  0
   -1.3561   13.0787   -1.5713 H   0  0  0  0  0  0  0  0  0  0  0  0
   -0.8423   13.8870   -3.0910 H   0  0  0  0  0  0  0  0  0  0  0  0
   -1.2192   12.1307   -3.0910 H   0  0  0  0  0  0  0  0  0  0  0  0
  1  2  1  0
  2  3  1  0
  3  4  1  0
  4  5  1  0
  5  6  1  0
  6  7  1  0
  7  8  1  0
  7  9  1  0
  2 10  1  0
 10 11  1  0
 11 12  1  0
 12 13  1  0
 13 14  1  6
 13 15  1  0
 15 16  1  0
 16 17  1  0
 17 18  2  0
 18 19  1  0
 19 20  1  0
 20 21  1  0
 21 22  1  0
 22 23  1  0
 22 24  1  0
 24 25  1  0
 24 26  1  0
 19 27  1  0
 27 28  1  1
 27 29  1  0
 29 30  1  0
 30 31  1  0
 31 32  1  1
  7  5  1  0
 31 10  1  0
 31 13  1  0
 27 15  1  0
 24 18  1  0
  1 33  1  0
  1 34  1  0
  1 35  1  0
  2 36  1  6
  3 37  1  0
  3 38  1  0
  4 39  1  0
  4 40  1  0
  5 41  1  1
  8 42  1  0
  8 43  1  0
  8 44  1  0
  9 45  1  0
  9 46  1  0
  9 47  1  0
 10 48  1  6
 11 49  1  0
 11 50  1  0
 12 51  1  0
 12 52  1  0
 14 53  1  0
 14 54  1  0
 14 55  1  0
 15 56  1  6
 16 57  1  0
 16 58  1  0
 17 59  1  0
 19 60  1  6
 20 61  1  0
 20 62  1  0
 21 63  1  0
 21 64  1  0
 22 65  1  1
 23 66  1  0
 25 67  1  0
 25 68  1  0
 25 69  1  0
 26 70  1  0
 26 71  1  0
 26 72  1  0
 28 73  1  0
 28 74  1  0
 28 75  1  0
 29 76  1  0
 29 77  1  0
 30 78  1  0
 30 79  1  0
 32 80  1  0
 32 81  1  0
 32 82  1  0
M  END
>  <meeko>  (6) 
{"is_sidechain": [false], "intermolecular_energy": 2.731, "internal_energy": -0.839}

$$$$
EPH_relaxed_0001_pdb2pqr_Repair_404_r2_0001_out
     RDKit          3D

 82 86  0  0  0  0  0  0  0  0999 V2000
    1.6320   13.0320   -5.3090 C   0  0  0  0  0  0  0  0  0  0  0  0
    0.8490   13.8440   -4.2740 C   0  0  2  0  0  0  0  0  0  0  0  0
    0.9750   15.3620   -4.5100 C   0  0  0  0  0  0  0  0  0  0  0  0
    0.2550   16.2110   -3.4590 C   0  0  0  0  0  0  0  0  0  0  0  0
    0.9400   17.5260   -3.2440 C   0  0  2  0  0  0  0  0  0  0  0  0
    1.9820   17.5050   -2.2600 O   0  0  0  0  0  0  0  0  0  0  0  0
    0.8390   18.3210   -1.9550 C   0  0  0  0  0  0  0  0  0  0  0  0
    0.0310   17.8290   -0.7960 C   0  0  0  0  0  0  0  0  0  0  0  0
    1.1200   19.7910   -1.9970 C   0  0  0  0  0  0  0  0  0  0  0  0
    1.3250   13.4930   -2.8700 C   0  0  1  0  0  0  0  0  0  0  0  0
    1.3630   14.7260   -1.9270 C   0  0  0  0  0  0  0  0  0  0  0  0
    0.9760   14.2190   -0.5140 C   0  0  0  0  0  0  0  0  0  0  0  0
    1.0530   12.6780   -0.6170 C   0  0  1  0  0  0  0  0  0  0  0  0
    2.5690   12.3410   -0.4600 C   0  0  0  0  0  0  0  0  0  0  0  0
    0.1750   11.8730    0.3960 C   0  0  2  0  0  0  0  0  0  0  0  0
    0.5310   12.0800    1.8780 C   0  0  0  0  0  0  0  0  0  0  0  0
    1.5410   11.1300    2.4300 C   0  0  0  0  0  0  0  0  0  0  0  0
    1.9280    9.9770    1.8530 C   0  0  0  0  0  0  0  0  0  0  0  0
    1.2590    9.4780    0.5650 C   0  0  1  0  0  0  0  0  0  0  0  0
    0.9180    7.9720    0.7090 C   0  0  0  0  0  0  0  0  0  0  0  0
    2.1300    7.1320    1.1000 C   0  0  0  0  0  0  0  0  0  0  0  0
    2.7310    7.6220    2.4150 C   0  0  2  0  0  0  0  0  0  0  0  0
    1.7970    7.3730    3.4700 O   0  0  0  0  0  0  0  0  0  0  0  0
    3.1060    9.1300    2.3930 C   0  0  0  0  0  0  0  0  0  0  0  0
    4.3270    9.3490    1.4660 C   0  0  0  0  0  0  0  0  0  0  0  0
    3.5680    9.5280    3.8210 C   0  0  0  0  0  0  0  0  0  0  0  0
    0.0260   10.3360    0.0460 C   0  0  1  0  0  0  0  0  0  0  0  0
   -1.2870    9.8490    0.7310 C   0  0  0  0  0  0  0  0  0  0  0  0
   -0.1590   10.0890   -1.4970 C   0  0  0  0  0  0  0  0  0  0  0  0
    0.6450   10.9960   -2.4480 C   0  0  0  0  0  0  0  0  0  0  0  0
    0.4830   12.4710   -2.0670 C   0  0  2  0  0  0  0  0  0  0  0  0
   -1.0290   12.8450   -2.2370 C   0  0  0  0  0  0  0  0  0  0  0  0
    2.3062   12.3328   -4.7927 H   0  0  0  0  0  0  0  0  0  0  0  0
    0.9297   12.4664   -5.9390 H   0  0  0  0  0  0  0  0  0  0  0  0
    2.2227   13.7133   -5.9390 H   0  0  0  0  0  0  0  0  0  0  0  0
   -0.2136   13.5811   -4.3824 H   0  0  0  0  0  0  0  0  0  0  0  0
    2.0424   15.6276   -4.4989 H   0  0  0  0  0  0  0  0  0  0  0  0
    0.4985   15.5771   -5.4778 H   0  0  0  0  0  0  0  0  0  0  0  0
   -0.7755   16.3969   -3.7960 H   0  0  0  0  0  0  0  0  0  0  0  0
    0.2654   15.6596   -2.5073 H   0  0  0  0  0  0  0  0  0  0  0  0
    0.7863   17.8047   -4.2969 H   0  0  0  0  0  0  0  0  0  0  0  0
    0.5192   18.1263    0.1438 H   0  0  0  0  0  0  0  0  0  0  0  0
   -0.9773   18.2666   -0.8398 H   0  0  0  0  0  0  0  0  0  0  0  0
   -0.0430   16.7324   -0.8398 H   0  0  0  0  0  0  0  0  0  0  0  0
    1.1943   20.1796   -0.9706 H   0  0  0  0  0  0  0  0  0  0  0  0
    2.0683   19.9681   -2.5256 H   0  0  0  0  0  0  0  0  0  0  0  0
    0.3039   20.3054   -2.5256 H   0  0  0  0  0  0  0  0  0  0  0  0
    2.3079   13.0622   -3.1114 H   0  0  0  0  0  0  0  0  0  0  0  0
    2.3739   15.1595   -1.9104 H   0  0  0  0  0  0  0  0  0  0  0  0
    0.6695   15.5079   -2.2702 H   0  0  0  0  0  0  0  0  0  0  0  0
    1.6838   14.5935    0.2401 H   0  0  0  0  0  0  0  0  0  0  0  0
   -0.0207   14.5668   -0.2048 H   0  0  0  0  0  0  0  0  0  0  0  0
    2.8233   12.2845    0.6087 H   0  0  0  0  0  0  0  0  0  0  0  0
    2.7811   11.3738   -0.9390 H   0  0  0  0  0  0  0  0  0  0  0  0
    3.1709   13.1273   -0.9390 H   0  0  0  0  0  0  0  0  0  0  0  0
   -0.8169   12.3291    0.2617 H   0  0  0  0  0  0  0  0  0  0  0  0
    0.9255   13.1003    1.9934 H   0  0  0  0  0  0  0  0  0  0  0  0
   -0.3962   11.8996    2.4416 H   0  0  0  0  0  0  0  0  0  0  0  0
    2.0089   11.3944    3.3898 H   0  0  0  0  0  0  0  0  0  0  0  0
    1.9996    9.6184   -0.2361 H   0  0  0  0  0  0  0  0  0  0  0  0
    0.1454    7.8580    1.4836 H   0  0  0  0  0  0  0  0  0  0  0  0
    0.5660    7.6145   -0.2699 H   0  0  0  0  0  0  0  0  0  0  0  0
    1.8193    6.0830    1.2147 H   0  0  0  0  0  0  0  0  0  0  0  0
    2.8904    7.2233    0.3104 H   0  0  0  0  0  0  0  0  0  0  0  0
    3.6680    7.0688    2.5759 H   0  0  0  0  0  0  0  0  0  0  0  0
    1.2630    8.1780    3.5850 H   0  0  0  0  0  0  0  0  0  0  0  0
    5.2272    9.5105    2.0773 H   0  0  0  0  0  0  0  0  0  0  0  0
    4.4691    8.4620    0.8311 H   0  0  0  0  0  0  0  0  0  0  0  0
    4.1520   10.2301    0.8311 H   0  0  0  0  0  0  0  0  0  0  0  0
    2.9545    8.9995    4.5655 H   0  0  0  0  0  0  0  0  0  0  0  0
    4.6246    9.2528    3.9546 H   0  0  0  0  0  0  0  0  0  0  0  0
    3.4522   10.6137    3.9546 H   0  0  0  0  0  0  0  0  0  0  0  0
   -1.1686    9.8929    1.8237 H   0  0  0  0  0  0  0  0  0  0  0  0
   -2.1218   10.4973    0.4263 H   0  0  0  0  0  0  0  0  0  0  0  0
   -1.4971    8.8131    0.4263 H   0  0  0  0  0  0  0  0  0  0  0  0
    0.1319    9.0487   -1.7045 H   0  0  0  0  0  0  0  0  0  0  0  0
   -1.2144   10.3226   -1.7009 H   0  0  0  0  0  0  0  0  0  0  0  0
    1.7093   10.7243   -2.3902 H   0  0  0  0  0  0  0  0  0  0  0  0
    0.2664   10.8545   -3.4710 H   0  0  0  0  0  0  0  0  0  0  0  0
   -1.4921   12.9595   -1.2458 H   0  0  0  0  0  0  0  0  0  0  0  0
   -1.1126   13.7909   -2.7923 H   0  0  0  0  0  0  0  0  0  0  0  0
   -1.5439   12.0471   -2.7923 H   0  0  0  0  0  0  0  0  0  0  0  0
  1  2  1  0
  2  3  1  0
  3  4  1  0
  4  5  1  0
  5  6  1  0
  6  7  1  0
  7  8  1  0
  7  9  1  0
  2 10  1  0
 10 11  1  0
 11 12  1  0
 12 13  1  0
 13 14  1  6
 13 15  1  0
 15 16  1  0
 16 17  1  0
 17 18  2  0
 18 19  1  0
 19 20  1  0
 20 21  1  0
 21 22  1  0
 22 23  1  0
 22 24  1  0
 24 25  1  0
 24 26  1  0
 19 27  1  0
 27 28  1  1
 27 29  1  0
 29 30  1  0
 30 31  1  0
 31 32  1  1
  7  5  1  0
 31 10  1  0
 31 13  1  0
 27 15  1  0
 24 18  1  0
  1 33  1  0
  1 34  1  0
  1 35  1  0
  2 36  1  1
  3 37  1  0
  3 38  1  0
  4 39  1  0
  4 40  1  0
  5 41  1  6
  8 42  1  0
  8 43  1  0
  8 44  1  0
  9 45  1  0
  9 46  1  0
  9 47  1  0
 10 48  1  6
 11 49  1  0
 11 50  1  0
 12 51  1  0
 12 52  1  0
 14 53  1  0
 14 54  1  0
 14 55  1  0
 15 56  1  1
 16 57  1  0
 16 58  1  0
 17 59  1  0
 19 60  1  6
 20 61  1  0
 20 62  1  0
 21 63  1  0
 21 64  1  0
 22 65  1  1
 23 66  1  0
 25 67  1  0
 25 68  1  0
 25 69  1  0
 26 70  1  0
 26 71  1  0
 26 72  1  0
 28 73  1  0
 28 74  1  0
 28 75  1  0
 29 76  1  0
 29 77  1  0
 30 78  1  0
 30 79  1  0
 32 80  1  0
 32 81  1  0
 32 82  1  0
M  END
>  <meeko>  (7) 
{"is_sidechain": [false], "intermolecular_energy": 2.731, "internal_energy": -0.839}

$$$$
EPH_relaxed_0001_pdb2pqr_Repair_404_r2_0001_out
     RDKit          3D

 82 86  0  0  0  0  0  0  0  0999 V2000
   -2.1660   10.2600   -1.0200 C   0  0  0  0  0  0  0  0  0  0  0  0
   -0.6360   10.2510   -0.9580 C   0  0  2  0  0  0  0  0  0  0  0  0
   -0.0960    9.0850   -0.1060 C   0  0  0  0  0  0  0  0  0  0  0  0
    1.4290    9.0810    0.0360 C   0  0  0  0  0  0  0  0  0  0  0  0
    1.8800    8.1780    1.1440 C   0  0  2  0  0  0  0  0  0  0  0  0
    2.0340    8.8210    2.4160 O   0  0  0  0  0  0  0  0  0  0  0  0
    3.2330    8.2960    1.8210 C   0  0  0  0  0  0  0  0  0  0  0  0
    4.2200    9.3450    1.4150 C   0  0  0  0  0  0  0  0  0  0  0  0
    3.7840    7.1000    2.5330 C   0  0  0  0  0  0  0  0  0  0  0  0
   -0.1300   11.5780   -0.4060 C   0  0  1  0  0  0  0  0  0  0  0  0
    1.0320   11.4000    0.6070 C   0  0  0  0  0  0  0  0  0  0  0  0
    1.9840   12.6080    0.4130 C   0  0  0  0  0  0  0  0  0  0  0  0
    1.1800   13.6020   -0.4580 C   0  0  1  0  0  0  0  0  0  0  0  0
    0.2400   14.3430    0.5430 C   0  0  0  0  0  0  0  0  0  0  0  0
    2.0200   14.6060   -1.3130 C   0  0  2  0  0  0  0  0  0  0  0  0
    2.8980   15.5770   -0.5040 C   0  0  0  0  0  0  0  0  0  0  0  0
    2.2470   16.8690   -0.1360 C   0  0  0  0  0  0  0  0  0  0  0  0
    1.1160   17.3580   -0.6780 C   0  0  0  0  0  0  0  0  0  0  0  0
    0.4230   16.6340   -1.8390 C   0  0  1  0  0  0  0  0  0  0  0  0
    0.0480   17.6620   -2.9400 C   0  0  0  0  0  0  0  0  0  0  0  0
   -0.7800   18.8230   -2.3980 C   0  0  0  0  0  0  0  0  0  0  0  0
   -0.0330   19.5530   -1.2850 C   0  0  2  0  0  0  0  0  0  0  0  0
    1.1170   20.1940   -1.8450 O   0  0  0  0  0  0  0  0  0  0  0  0
    0.4040   18.6170   -0.1240 C   0  0  0  0  0  0  0  0  0  0  0  0
   -0.8420   18.1590    0.6730 C   0  0  0  0  0  0  0  0  0  0  0  0
    1.2680   19.4490    0.8610 C   0  0  0  0  0  0  0  0  0  0  0  0
    1.1860   15.3680   -2.4220 C   0  0  1  0  0  0  0  0  0  0  0  0
    2.2040   15.8160   -3.5140 C   0  0  0  0  0  0  0  0  0  0  0  0
    0.1480   14.4280   -3.1410 C   0  0  0  0  0  0  0  0  0  0  0  0
   -0.5600   13.3770   -2.2650 C   0  0  0  0  0  0  0  0  0  0  0  0
    0.4500   12.5960   -1.4200 C   0  0  2  0  0  0  0  0  0  0  0  0
    1.3970   11.8220   -2.4000 C   0  0  0  0  0  0  0  0  0  0  0  0
   -2.5743   10.2624    0.0014 H   0  0  0  0  0  0  0  0  0  0  0  0
   -2.5061   11.1602   -1.5530 H   0  0  0  0  0  0  0  0  0  0  0  0
   -2.5166    9.3639   -1.5530 H   0  0  0  0  0  0  0  0  0  0  0  0
   -0.2644   10.1096   -1.9836 H   0  0  0  0  0  0  0  0  0  0  0  0
   -0.5382    9.1552    0.8988 H   0  0  0  0  0  0  0  0  0  0  0  0
   -0.3732    8.1542   -0.6224 H   0  0  0  0  0  0  0  0  0  0  0  0
    1.8741    8.7358   -0.9088 H   0  0  0  0  0  0  0  0  0  0  0  0
    1.7540   10.1046    0.2739 H   0  0  0  0  0  0  0  0  0  0  0  0
    1.3519    7.3241    0.6945 H   0  0  0  0  0  0  0  0  0  0  0  0
    4.6546    9.8069    2.3137 H   0  0  0  0  0  0  0  0  0  0  0  0
    5.0196    8.8841    0.8164 H   0  0  0  0  0  0  0  0  0  0  0  0
    3.7113   10.1150    0.8164 H   0  0  0  0  0  0  0  0  0  0  0  0
    3.7126    7.2551    3.6197 H   0  0  0  0  0  0  0  0  0  0  0  0
    3.2064    6.2072    2.2513 H   0  0  0  0  0  0  0  0  0  0  0  0
    4.8379    6.9589    2.2513 H   0  0  0  0  0  0  0  0  0  0  0  0
   -1.0650   11.9664    0.0241 H   0  0  0  0  0  0  0  0  0  0  0  0
    0.6400   11.3880    1.6347 H   0  0  0  0  0  0  0  0  0  0  0  0
    1.5603   10.4500    0.4388 H   0  0  0  0  0  0  0  0  0  0  0  0
    2.2402   13.0602    1.3825 H   0  0  0  0  0  0  0  0  0  0  0  0
    2.9360   12.3180   -0.0556 H   0  0  0  0  0  0  0  0  0  0  0  0
    0.5416   14.1052    1.5738 H   0  0  0  0  0  0  0  0  0  0  0  0
    0.3139   15.4284    0.3804 H   0  0  0  0  0  0  0  0  0  0  0  0
   -0.7982   14.0177    0.3804 H   0  0  0  0  0  0  0  0  0  0  0  0
    2.7191   13.9400   -1.8399 H   0  0  0  0  0  0  0  0  0  0  0  0
    3.1977   15.0705    0.4253 H   0  0  0  0  0  0  0  0  0  0  0  0
    3.7446   15.8375   -1.1563 H   0  0  0  0  0  0  0  0  0  0  0  0
    2.7329   17.4729    0.6445 H   0  0  0  0  0  0  0  0  0  0  0  0
   -0.4896   16.1878   -1.4171 H   0  0  0  0  0  0  0  0  0  0  0  0
    0.9738   18.0633   -3.3779 H   0  0  0  0  0  0  0  0  0  0  0  0
   -0.5616   17.1391   -3.6916 H   0  0  0  0  0  0  0  0  0  0  0  0
   -0.9880   19.5292   -3.2153 H   0  0  0  0  0  0  0  0  0  0  0  0
   -1.7187   18.4230   -1.9871 H   0  0  0  0  0  0  0  0  0  0  0  0
   -0.7258   20.2888   -0.8505 H   0  0  0  0  0  0  0  0  0  0  0  0
    0.9060   21.1380   -1.9500 H   0  0  0  0  0  0  0  0  0  0  0  0
   -0.6360   18.2347    1.7509 H   0  0  0  0  0  0  0  0  0  0  0  0
   -1.6975   18.8015    0.4172 H   0  0  0  0  0  0  0  0  0  0  0  0
   -1.0777   17.1155    0.4172 H   0  0  0  0  0  0  0  0  0  0  0  0
    0.9980   19.1890    1.8952 H   0  0  0  0  0  0  0  0  0  0  0  0
    2.3322   19.2269    0.6930 H   0  0  0  0  0  0  0  0  0  0  0  0
    1.0862   20.5208    0.6930 H   0  0  0  0  0  0  0  0  0  0  0  0
    3.1085   16.2141   -3.0309 H   0  0  0  0  0  0  0  0  0  0  0  0
    2.4727   14.9530   -4.1409 H   0  0  0  0  0  0  0  0  0  0  0  0
    1.7492   16.5971   -4.1409 H   0  0  0  0  0  0  0  0  0  0  0  0
   -0.6282   15.0680   -3.5858 H   0  0  0  0  0  0  0  0  0  0  0  0
    0.7384   13.8482   -3.8658 H   0  0  0  0  0  0  0  0  0  0  0  0
   -1.2708   13.8855   -1.5970 H   0  0  0  0  0  0  0  0  0  0  0  0
   -1.0870   12.6703   -2.9229 H   0  0  0  0  0  0  0  0  0  0  0  0
    2.1207   11.2305   -1.8199 H   0  0  0  0  0  0  0  0  0  0  0  0
    0.7991   11.1507   -3.0339 H   0  0  0  0  0  0  0  0  0  0  0  0
    1.9359   12.5415   -3.0339 H   0  0  0  0  0  0  0  0  0  0  0  0
  1  2  1  0
  2  3  1  0
  3  4  1  0
  4  5  1  0
  5  6  1  0
  6  7  1  0
  7  8  1  0
  7  9  1  0
  2 10  1  0
 10 11  1  0
 11 12  1  0
 12 13  1  0
 13 14  1  1
 13 15  1  0
 15 16  1  0
 16 17  1  0
 17 18  2  0
 18 19  1  0
 19 20  1  0
 20 21  1  0
 21 22  1  0
 22 23  1  0
 22 24  1  0
 24 25  1  0
 24 26  1  0
 19 27  1  0
 27 28  1  6
 27 29  1  0
 29 30  1  0
 30 31  1  0
 31 32  1  6
  7  5  1  0
 31 10  1  0
 31 13  1  0
 27 15  1  0
 24 18  1  0
  1 33  1  0
  1 34  1  0
  1 35  1  0
  2 36  1  6
  3 37  1  0
  3 38  1  0
  4 39  1  0
  4 40  1  0
  5 41  1  1
  8 42  1  0
  8 43  1  0
  8 44  1  0
  9 45  1  0
  9 46  1  0
  9 47  1  0
 10 48  1  1
 11 49  1  0
 11 50  1  0
 12 51  1  0
 12 52  1  0
 14 53  1  0
 14 54  1  0
 14 55  1  0
 15 56  1  6
 16 57  1  0
 16 58  1  0
 17 59  1  0
 19 60  1  1
 20 61  1  0
 20 62  1  0
 21 63  1  0
 21 64  1  0
 22 65  1  1
 23 66  1  0
 25 67  1  0
 25 68  1  0
 25 69  1  0
 26 70  1  0
 26 71  1  0
 26 72  1  0
 28 73  1  0
 28 74  1  0
 28 75  1  0
 29 76  1  0
 29 77  1  0
 30 78  1  0
 30 79  1  0
 32 80  1  0
 32 81  1  0
 32 82  1  0
M  END
>  <meeko>  (8) 
{"is_sidechain": [false], "intermolecular_energy": 2.731, "internal_energy": -0.839}

$$$$
EPH_relaxed_0001_pdb2pqr_Repair_404_r2_0001_out
     RDKit          3D

 82 86  0  0  0  0  0  0  0  0999 V2000
    0.7620   16.0440   -3.0100 C   0  0  0  0  0  0  0  0  0  0  0  0
    1.1250   16.2160   -1.5330 C   0  0  2  0  0  0  0  0  0  0  0  0
    2.6010   16.6190   -1.3400 C   0  0  0  0  0  0  0  0  0  0  0  0
    2.7950   17.8290   -0.4230 C   0  0  0  0  0  0  0  0  0  0  0  0
    1.5400   18.6390   -0.3010 C   0  0  2  0  0  0  0  0  0  0  0  0
    1.6680   20.0070   -0.7070 O   0  0  0  0  0  0  0  0  0  0  0  0
    1.3750   19.7830    0.6810 C   0  0  0  0  0  0  0  0  0  0  0  0
    2.4800   20.1810    1.6090 C   0  0  0  0  0  0  0  0  0  0  0  0
   -0.0100   20.1920    1.0780 C   0  0  0  0  0  0  0  0  0  0  0  0
    0.8330   14.9280   -0.7720 C   0  0  1  0  0  0  0  0  0  0  0  0
   -0.6850   14.6180   -0.6850 C   0  0  0  0  0  0  0  0  0  0  0  0
   -0.8300   13.0750   -0.7510 C   0  0  0  0  0  0  0  0  0  0  0  0
    0.6050   12.5390   -0.5400 C   0  0  1  0  0  0  0  0  0  0  0  0
    0.8240   12.5780    1.0050 C   0  0  0  0  0  0  0  0  0  0  0  0
    0.9070   11.1230   -1.1310 C   0  0  2  0  0  0  0  0  0  0  0  0
    0.0790    9.9750   -0.5290 C   0  0  0  0  0  0  0  0  0  0  0  0
    0.6890    9.3020    0.6560 C   0  0  0  0  0  0  0  0  0  0  0  0
    1.9740    9.4110    1.0430 C   0  0  0  0  0  0  0  0  0  0  0  0
    2.9850   10.2010    0.2020 C   0  0  1  0  0  0  0  0  0  0  0  0
    4.2870    9.3730    0.0460 C   0  0  0  0  0  0  0  0  0  0  0  0
    4.8640    8.9310    1.3870 C   0  0  0  0  0  0  0  0  0  0  0  0
    3.8500    8.0990    2.1690 C   0  0  2  0  0  0  0  0  0  0  0  0
    3.6310    6.8670    1.4750 O   0  0  0  0  0  0  0  0  0  0  0  0
    2.4930    8.8280    2.3800 C   0  0  0  0  0  0  0  0  0  0  0  0
    2.6790    9.9950    3.3800 C   0  0  0  0  0  0  0  0  0  0  0  0
    1.5150    7.8290    3.0560 C   0  0  0  0  0  0  0  0  0  0  0  0
    2.4460   10.7590   -1.1860 C   0  0  1  0  0  0  0  0  0  0  0  0
    2.6080    9.6750   -2.2940 C   0  0  0  0  0  0  0  0  0  0  0  0
    3.3350   11.9820   -1.6280 C   0  0  0  0  0  0  0  0  0  0  0  0
    2.9150   13.3700   -1.1080 C   0  0  0  0  0  0  0  0  0  0  0  0
    1.4220   13.6150   -1.3450 C   0  0  2  0  0  0  0  0  0  0  0  0
    1.1740   13.6040   -2.8920 C   0  0  0  0  0  0  0  0  0  0  0  0
   -0.2293   15.5743   -3.0916 H   0  0  0  0  0  0  0  0  0  0  0  0
    0.7426   17.0287   -3.4999 H   0  0  0  0  0  0  0  0  0  0  0  0
    1.5118   15.4054   -3.4999 H   0  0  0  0  0  0  0  0  0  0  0  0
    0.5053   17.0324   -1.1336 H   0  0  0  0  0  0  0  0  0  0  0  0
    3.1401   15.7643   -0.9055 H   0  0  0  0  0  0  0  0  0  0  0  0
    2.9886   16.9013   -2.3300 H   0  0  0  0  0  0  0  0  0  0  0  0
    3.0896   17.4755    0.5761 H   0  0  0  0  0  0  0  0  0  0  0  0
    3.5751   18.4692   -0.8606 H   0  0  0  0  0  0  0  0  0  0  0  0
    0.9213   17.7550   -0.5148 H   0  0  0  0  0  0  0  0  0  0  0  0
    2.1458   20.0606    2.6501 H   0  0  0  0  0  0  0  0  0  0  0  0
    3.3575   19.5424    1.4295 H   0  0  0  0  0  0  0  0  0  0  0  0
    2.7488   21.2324    1.4295 H   0  0  0  0  0  0  0  0  0  0  0  0
   -0.0854   20.2143    2.1752 H   0  0  0  0  0  0  0  0  0  0  0  0
   -0.2265   21.1924    0.6752 H   0  0  0  0  0  0  0  0  0  0  0  0
   -0.7353   19.4697    0.6752 H   0  0  0  0  0  0  0  0  0  0  0  0
    1.3130   15.1671    0.1884 H   0  0  0  0  0  0  0  0  0  0  0  0
   -1.0955   14.9971    0.2625 H   0  0  0  0  0  0  0  0  0  0  0  0
   -1.2351   15.1023   -1.5053 H   0  0  0  0  0  0  0  0  0  0  0  0
   -1.5002   12.7136    0.0429 H   0  0  0  0  0  0  0  0  0  0  0  0
   -1.2657   12.7373   -1.7029 H   0  0  0  0  0  0  0  0  0  0  0  0
   -0.1352   12.4072    1.5157 H   0  0  0  0  0  0  0  0  0  0  0  0
    1.5382   11.7929    1.2940 H   0  0  0  0  0  0  0  0  0  0  0  0
    1.2233   13.5614    1.2940 H   0  0  0  0  0  0  0  0  0  0  0  0
    0.5653   11.2235   -2.1718 H   0  0  0  0  0  0  0  0  0  0  0  0
   -0.8959   10.3828   -0.2238 H   0  0  0  0  0  0  0  0  0  0  0  0
    0.0092    9.2065   -1.3129 H   0  0  0  0  0  0  0  0  0  0  0  0
    0.0327    8.6627    1.2647 H   0  0  0  0  0  0  0  0  0  0  0  0
    3.1943   11.1232    0.7639 H   0  0  0  0  0  0  0  0  0  0  0  0
    4.0660    8.4784   -0.5547 H   0  0  0  0  0  0  0  0  0  0  0  0
    5.0341   10.0152   -0.4433 H   0  0  0  0  0  0  0  0  0  0  0  0
    5.7655    8.3263    1.2094 H   0  0  0  0  0  0  0  0  0  0  0  0
    5.1119    9.8268    1.9753 H   0  0  0  0  0  0  0  0  0  0  0  0
    4.2704    7.9216    3.1699 H   0  0  0  0  0  0  0  0  0  0  0  0
    2.7400    6.9010    1.0880 H   0  0  0  0  0  0  0  0  0  0  0  0
    2.6176    9.6098    4.4085 H   0  0  0  0  0  0  0  0  0  0  0  0
    3.6627   10.4608    3.2210 H   0  0  0  0  0  0  0  0  0  0  0  0
    1.8888   10.7436    3.2210 H   0  0  0  0  0  0  0  0  0  0  0  0
    1.5999    7.9157    4.1493 H   0  0  0  0  0  0  0  0  0  0  0  0
    0.4844    8.0601    2.7488 H   0  0  0  0  0  0  0  0  0  0  0  0
    1.7680    6.8035    2.7488 H   0  0  0  0  0  0  0  0  0  0  0  0
    2.7551    8.6908   -1.8253 H   0  0  0  0  0  0  0  0  0  0  0  0
    1.7033    9.6518   -2.9193 H   0  0  0  0  0  0  0  0  0  0  0  0
    3.4799    9.9173   -2.9193 H   0  0  0  0  0  0  0  0  0  0  0  0
    4.3603   11.7918   -1.2780 H   0  0  0  0  0  0  0  0  0  0  0  0
    3.2240   12.0384   -2.7209 H   0  0  0  0  0  0  0  0  0  0  0  0
    3.1225   13.4281   -0.0293 H   0  0  0  0  0  0  0  0  0  0  0  0
    3.4870   14.1363   -1.6518 H   0  0  0  0  0  0  0  0  0  0  0  0
    0.0930   13.5561   -3.0897 H   0  0  0  0  0  0  0  0  0  0  0  0
    1.5877   14.5214   -3.3362 H   0  0  0  0  0  0  0  0  0  0  0  0
    1.6673   12.7268   -3.3362 H   0  0  0  0  0  0  0  0  0  0  0  0
  1  2  1  0
  2  3  1  0
  3  4  1  0
  4  5  1  0
  5  6  1  0
  6  7  1  0
  7  8  1  0
  7  9  1  0
  2 10  1  0
 10 11  1  0
 11 12  1  0
 12 13  1  0
 13 14  1  1
 13 15  1  0
 15 16  1  0
 16 17  1  0
 17 18  2  0
 18 19  1  0
 19 20  1  0
 20 21  1  0
 21 22  1  0
 22 23  1  0
 22 24  1  0
 24 25  1  0
 24 26  1  0
 19 27  1  0
 27 28  1  6
 27 29  1  0
 29 30  1  0
 30 31  1  0
 31 32  1  6
  7  5  1  0
 31 10  1  0
 31 13  1  0
 27 15  1  0
 24 18  1  0
  1 33  1  0
  1 34  1  0
  1 35  1  0
  2 36  1  1
  3 37  1  0
  3 38  1  0
  4 39  1  0
  4 40  1  0
  5 41  1  6
  8 42  1  0
  8 43  1  0
  8 44  1  0
  9 45  1  0
  9 46  1  0
  9 47  1  0
 10 48  1  1
 11 49  1  0
 11 50  1  0
 12 51  1  0
 12 52  1  0
 14 53  1  0
 14 54  1  0
 14 55  1  0
 15 56  1  6
 16 57  1  0
 16 58  1  0
 17 59  1  0
 19 60  1  1
 20 61  1  0
 20 62  1  0
 21 63  1  0
 21 64  1  0
 22 65  1  1
 23 66  1  0
 25 67  1  0
 25 68  1  0
 25 69  1  0
 26 70  1  0
 26 71  1  0
 26 72  1  0
 28 73  1  0
 28 74  1  0
 28 75  1  0
 29 76  1  0
 29 77  1  0
 30 78  1  0
 30 79  1  0
 32 80  1  0
 32 81  1  0
 32 82  1  0
M  END
>  <meeko>  (9) 
{"is_sidechain": [false], "intermolecular_energy": 2.731, "internal_energy": -0.839}

$$$$
EPH_relaxed_0001_pdb2pqr_Repair_404_r2_0001_out
     RDKit          3D

 82 86  0  0  0  0  0  0  0  0999 V2000
    0.5370   18.8760   -1.8600 C   0  0  0  0  0  0  0  0  0  0  0  0
    1.1560   17.6890   -1.1170 C   0  0  2  0  0  0  0  0  0  0  0  0
    2.6960   17.6930   -1.1960 C   0  0  0  0  0  0  0  0  0  0  0  0
    3.3830   17.6540    0.1710 C   0  0  0  0  0  0  0  0  0  0  0  0
    2.8980   18.7520    1.0670 C   0  0  2  0  0  0  0  0  0  0  0  0
    3.4280   20.0500    0.7650 O   0  0  0  0  0  0  0  0  0  0  0  0
    3.7940   19.4960    2.0400 C   0  0  0  0  0  0  0  0  0  0  0  0
    5.2490   19.1700    2.1670 C   0  0  0  0  0  0  0  0  0  0  0  0
    3.1620   20.1940    3.2040 C   0  0  0  0  0  0  0  0  0  0  0  0
    0.6090   16.3820   -1.6780 C   0  0  1  0  0  0  0  0  0  0  0  0
    0.2600   16.4790   -3.1870 C   0  0  0  0  0  0  0  0  0  0  0  0
    0.5850   15.0980   -3.8120 C   0  0  0  0  0  0  0  0  0  0  0  0
    0.7910   14.1600   -2.5990 C   0  0  1  0  0  0  0  0  0  0  0  0
   -0.6500   13.7600   -2.1520 C   0  0  0  0  0  0  0  0  0  0  0  0
    1.6900   12.9040   -2.8410 C   0  0  2  0  0  0  0  0  0  0  0  0
    1.1540   11.9100   -3.8860 C   0  0  0  0  0  0  0  0  0  0  0  0
    0.2770   10.8300   -3.3470 C   0  0  0  0  0  0  0  0  0  0  0  0
    0.1590   10.4920   -2.0490 C   0  0  0  0  0  0  0  0  0  0  0  0
    1.0320   11.1610   -0.9790 C   0  0  1  0  0  0  0  0  0  0  0  0
    1.6160   10.0770   -0.0350 C   0  0  0  0  0  0  0  0  0  0  0  0
    0.5370    9.1820    0.5670 C   0  0  0  0  0  0  0  0  0  0  0  0
   -0.2710    8.4900   -0.5270 C   0  0  2  0  0  0  0  0  0  0  0  0
    0.5810    7.5700   -1.2170 O   0  0  0  0  0  0  0  0  0  0  0  0
   -0.9010    9.4820   -1.5450 C   0  0  0  0  0  0  0  0  0  0  0  0
   -2.0410   10.2750   -0.8600 C   0  0  0  0  0  0  0  0  0  0  0  0
   -1.5680    8.6490   -2.6730 C   0  0  0  0  0  0  0  0  0  0  0  0
    2.1410   12.1650   -1.5170 C   0  0  1  0  0  0  0  0  0  0  0  0
    3.4430   11.3810   -1.8650 C   0  0  0  0  0  0  0  0  0  0  0  0
    2.5220   13.1720   -0.3680 C   0  0  0  0  0  0  0  0  0  0  0  0
    1.6710   14.4520   -0.2560 C   0  0  0  0  0  0  0  0  0  0  0  0
    1.5330   15.1390   -1.6170 C   0  0  2  0  0  0  0  0  0  0  0  0
    2.9650   15.5730   -2.0820 C   0  0  0  0  0  0  0  0  0  0  0  0
    0.1561   19.6065   -1.1311 H   0  0  0  0  0  0  0  0  0  0  0  0
    1.3015   19.3524   -2.4913 H   0  0  0  0  0  0  0  0  0  0  0  0
   -0.2913   18.5219   -2.4913 H   0  0  0  0  0  0  0  0  0  0  0  0
    0.8800   17.7826   -0.0563 H   0  0  0  0  0  0  0  0  0  0  0  0
    3.0164   16.8115   -1.7708 H   0  0  0  0  0  0  0  0  0  0  0  0
    2.9904   18.6377   -1.6765 H   0  0  0  0  0  0  0  0  0  0  0  0
    3.1725   16.6855    0.6481 H   0  0  0  0  0  0  0  0  0  0  0  0
    4.4634   17.7906    0.0155 H   0  0  0  0  0  0  0  0  0  0  0  0
    1.9269   18.2511    1.1938 H   0  0  0  0  0  0  0  0  0  0  0  0
    5.5196   19.1094    3.2315 H   0  0  0  0  0  0  0  0  0  0  0  0
    5.4521   18.2041    1.6814 H   0  0  0  0  0  0  0  0  0  0  0  0
    5.8448   19.9569    1.6814 H   0  0  0  0  0  0  0  0  0  0  0  0
    3.5484   19.7672    4.1413 H   0  0  0  0  0  0  0  0  0  0  0  0
    3.4024   21.2666    3.1629 H   0  0  0  0  0  0  0  0  0  0  0  0
    2.0708   20.0610    3.1629 H   0  0  0  0  0  0  0  0  0  0  0  0
   -0.2540   16.2422   -1.0104 H   0  0  0  0  0  0  0  0  0  0  0  0
   -0.8078   16.7105   -3.3145 H   0  0  0  0  0  0  0  0  0  0  0  0
    0.8370   17.2784   -3.6748 H   0  0  0  0  0  0  0  0  0  0  0  0
   -0.2503   14.7479   -4.4363 H   0  0  0  0  0  0  0  0  0  0  0  0
    1.4682   15.1336   -4.4668 H   0  0  0  0  0  0  0  0  0  0  0  0
   -0.7023   13.7455   -1.0533 H   0  0  0  0  0  0  0  0  0  0  0  0
   -1.3718   14.4917   -2.5438 H   0  0  0  0  0  0  0  0  0  0  0  0
   -0.8914   12.7609   -2.5438 H   0  0  0  0  0  0  0  0  0  0  0  0
    2.5956   13.3436   -3.2845 H   0  0  0  0  0  0  0  0  0  0  0  0
    0.5759   12.4777   -4.6300 H   0  0  0  0  0  0  0  0  0  0  0  0
    2.0362   11.4046   -4.3059 H   0  0  0  0  0  0  0  0  0  0  0  0
   -0.3244   10.2615   -4.0717 H   0  0  0  0  0  0  0  0  0  0  0  0
    0.3636   11.8269   -0.4135 H   0  0  0  0  0  0  0  0  0  0  0  0
    2.3149    9.4499   -0.6080 H   0  0  0  0  0  0  0  0  0  0  0  0
    2.1217   10.5937    0.7940 H   0  0  0  0  0  0  0  0  0  0  0  0
    1.0140    8.4188    1.1995 H   0  0  0  0  0  0  0  0  0  0  0  0
   -0.1437    9.8063    1.1644 H   0  0  0  0  0  0  0  0  0  0  0  0
   -1.1075    7.9684   -0.0389 H   0  0  0  0  0  0  0  0  0  0  0  0
    0.0440    6.7970   -1.4600 H   0  0  0  0  0  0  0  0  0  0  0  0
   -1.9343   10.2008    0.2323 H   0  0  0  0  0  0  0  0  0  0  0  0
   -1.9864   11.3311   -1.1628 H   0  0  0  0  0  0  0  0  0  0  0  0
   -3.0121    9.8565   -1.1628 H   0  0  0  0  0  0  0  0  0  0  0  0
   -2.1964    7.8642   -2.2266 H   0  0  0  0  0  0  0  0  0  0  0  0
   -2.1911    9.3077   -3.2957 H   0  0  0  0  0  0  0  0  0  0  0  0
   -0.7890    8.1850   -3.2957 H   0  0  0  0  0  0  0  0  0  0  0  0
    3.9475   11.0772   -0.9359 H   0  0  0  0  0  0  0  0  0  0  0  0
    3.1867   10.4869   -2.4523 H   0  0  0  0  0  0  0  0  0  0  0  0
    4.1134   12.0258   -2.4523 H   0  0  0  0  0  0  0  0  0  0  0  0
    2.4402   12.6332    0.5875 H   0  0  0  0  0  0  0  0  0  0  0  0
    3.5356   13.5207   -0.6150 H   0  0  0  0  0  0  0  0  0  0  0  0
    0.6704   14.1874    0.1166 H   0  0  0  0  0  0  0  0  0  0  0  0
    2.1694   15.1450    0.4378 H   0  0  0  0  0  0  0  0  0  0  0  0
    3.5946   15.7638   -1.2004 H   0  0  0  0  0  0  0  0  0  0  0  0
    3.4133   14.7704   -2.6860 H   0  0  0  0  0  0  0  0  0  0  0  0
    2.8923   16.4895   -2.6860 H   0  0  0  0  0  0  0  0  0  0  0  0
  1  2  1  0
  2  3  1  0
  3  4  1  0
  4  5  1  0
  5  6  1  0
  6  7  1  0
  7  8  1  0
  7  9  1  0
  2 10  1  0
 10 11  1  0
 11 12  1  0
 12 13  1  0
 13 14  1  1
 13 15  1  0
 15 16  1  0
 16 17  1  0
 17 18  2  0
 18 19  1  0
 19 20  1  0
 20 21  1  0
 21 22  1  0
 22 23  1  0
 22 24  1  0
 24 25  1  0
 24 26  1  0
 19 27  1  0
 27 28  1  6
 27 29  1  0
 29 30  1  0
 30 31  1  0
 31 32  1  6
  7  5  1  0
 31 10  1  0
 31 13  1  0
 27 15  1  0
 24 18  1  0
  1 33  1  0
  1 34  1  0
  1 35  1  0
  2 36  1  1
  3 37  1  0
  3 38  1  0
  4 39  1  0
  4 40  1  0
  5 41  1  1
  8 42  1  0
  8 43  1  0
  8 44  1  0
  9 45  1  0
  9 46  1  0
  9 47  1  0
 10 48  1  1
 11 49  1  0
 11 50  1  0
 12 51  1  0
 12 52  1  0
 14 53  1  0
 14 54  1  0
 14 55  1  0
 15 56  1  6
 16 57  1  0
 16 58  1  0
 17 59  1  0
 19 60  1  1
 20 61  1  0
 20 62  1  0
 21 63  1  0
 21 64  1  0
 22 65  1  1
 23 66  1  0
 25 67  1  0
 25 68  1  0
 25 69  1  0
 26 70  1  0
 26 71  1  0
 26 72  1  0
 28 73  1  0
 28 74  1  0
 28 75  1  0
 29 76  1  0
 29 77  1  0
 30 78  1  0
 30 79  1  0
 32 80  1  0
 32 81  1  0
 32 82  1  0
M  END
>  <meeko>  (10) 
{"is_sidechain": [false], "intermolecular_energy": 2.731, "internal_energy": -0.839}

$$$$
EPH_relaxed_0001_pdb2pqr_Repair_404_r2_0001_out
     RDKit          3D

 82 86  0  0  0  0  0  0  0  0999 V2000
    1.5730    9.0730    0.8550 C   0  0  0  0  0  0  0  0  0  0  0  0
    2.9740    9.3000    0.2810 C   0  0  2  0  0  0  0  0  0  0  0  0
    4.0450    9.3990    1.3850 C   0  0  0  0  0  0  0  0  0  0  0  0
    3.4640    9.4980    2.7980 C   0  0  0  0  0  0  0  0  0  0  0  0
    3.9790    8.4060    3.6870 C   0  0  2  0  0  0  0  0  0  0  0  0
    3.0060    7.8550    4.5840 O   0  0  0  0  0  0  0  0  0  0  0  0
    4.1100    8.5440    5.1920 C   0  0  0  0  0  0  0  0  0  0  0  0
    3.7260    9.8070    5.8960 C   0  0  0  0  0  0  0  0  0  0  0  0
    5.0610    7.6400    5.9130 C   0  0  0  0  0  0  0  0  0  0  0  0
    2.9880   10.5620   -0.5740 C   0  0  1  0  0  0  0  0  0  0  0  0
    3.3670   10.2780   -2.0520 C   0  0  0  0  0  0  0  0  0  0  0  0
    2.5470   11.2660   -2.9210 C   0  0  0  0  0  0  0  0  0  0  0  0
    1.9830   12.2960   -1.9150 C   0  0  1  0  0  0  0  0  0  0  0  0
    3.1560   13.2940   -1.6630 C   0  0  0  0  0  0  0  0  0  0  0  0
    0.6760   13.0370   -2.3450 C   0  0  2  0  0  0  0  0  0  0  0  0
    0.8050   13.9090   -3.6070 C   0  0  0  0  0  0  0  0  0  0  0  0
    1.1960   15.3290   -3.3640 C   0  0  0  0  0  0  0  0  0  0  0  0
    1.1580   15.9580   -2.1750 C   0  0  0  0  0  0  0  0  0  0  0  0
    0.5930   15.2590   -0.9310 C   0  0  1  0  0  0  0  0  0  0  0  0
   -0.3740   16.2200   -0.1910 C   0  0  0  0  0  0  0  0  0  0  0  0
    0.2740   17.5620    0.1370 C   0  0  0  0  0  0  0  0  0  0  0  0
    0.7700   18.2530   -1.1300 C   0  0  2  0  0  0  0  0  0  0  0  0
   -0.3590   18.6130   -1.9310 O   0  0  0  0  0  0  0  0  0  0  0  0
    1.7450   17.3760   -1.9640 C   0  0  0  0  0  0  0  0  0  0  0  0
    3.0930   17.2370   -1.2140 C   0  0  0  0  0  0  0  0  0  0  0  0
    2.0580   18.1320   -3.2830 C   0  0  0  0  0  0  0  0  0  0  0  0
   -0.0410   13.8220   -1.1720 C   0  0  1  0  0  0  0  0  0  0  0  0
   -1.5390   13.9630   -1.5810 C   0  0  0  0  0  0  0  0  0  0  0  0
   -0.0240   13.0190    0.1820 C   0  0  0  0  0  0  0  0  0  0  0  0
    1.2500   12.2100    0.4940 C   0  0  0  0  0  0  0  0  0  0  0  0
    1.6590   11.3470   -0.7040 C   0  0  2  0  0  0  0  0  0  0  0  0
    0.5070   10.3180   -0.9670 C   0  0  0  0  0  0  0  0  0  0  0  0
    1.6213    9.0808    1.9539 H   0  0  0  0  0  0  0  0  0  0  0  0
    0.9019    9.8741    0.5118 H   0  0  0  0  0  0  0  0  0  0  0  0
    1.1892    8.1010    0.5118 H   0  0  0  0  0  0  0  0  0  0  0  0
    3.2216    8.4273   -0.3412 H   0  0  0  0  0  0  0  0  0  0  0  0
    4.6814    8.5033    1.3330 H   0  0  0  0  0  0  0  0  0  0  0  0
    4.6095   10.3255    1.2035 H   0  0  0  0  0  0  0  0  0  0  0  0
    3.7419   10.4705    3.2304 H   0  0  0  0  0  0  0  0  0  0  0  0
    2.3710    9.3959    2.7273 H   0  0  0  0  0  0  0  0  0  0  0  0
    4.6868    8.0771    2.9119 H   0  0  0  0  0  0  0  0  0  0  0  0
    3.7738    9.6496    6.9836 H   0  0  0  0  0  0  0  0  0  0  0  0
    4.4202   10.6113    5.6110 H   0  0  0  0  0  0  0  0  0  0  0  0
    2.7016   10.0887    5.6110 H   0  0  0  0  0  0  0  0  0  0  0  0
    4.9319    7.7627    6.9985 H   0  0  0  0  0  0  0  0  0  0  0  0
    4.8561    6.5956    5.6351 H   0  0  0  0  0  0  0  0  0  0  0  0
    6.0937    7.8975    5.6351 H   0  0  0  0  0  0  0  0  0  0  0  0
    3.7235   11.1571   -0.0128 H   0  0  0  0  0  0  0  0  0  0  0  0
    4.4438   10.4422   -2.2053 H   0  0  0  0  0  0  0  0  0  0  0  0
    3.1456    9.2353   -2.3235 H   0  0  0  0  0  0  0  0  0  0  0  0
    3.1932   11.7602   -3.6614 H   0  0  0  0  0  0  0  0  0  0  0  0
    1.7525   10.7606   -3.4897 H   0  0  0  0  0  0  0  0  0  0  0  0
    3.3040   13.4200   -0.5803 H   0  0  0  0  0  0  0  0  0  0  0  0
    4.0774   12.8987   -2.1155 H   0  0  0  0  0  0  0  0  0  0  0  0
    2.9134   14.2668   -2.1155 H   0  0  0  0  0  0  0  0  0  0  0  0
    0.0140   12.2037   -2.6231 H   0  0  0  0  0  0  0  0  0  0  0  0
    1.5656   13.4538   -4.2583 H   0  0  0  0  0  0  0  0  0  0  0  0
   -0.1980   13.9425   -4.0574 H   0  0  0  0  0  0  0  0  0  0  0  0
    1.5447   15.9104   -4.2302 H   0  0  0  0  0  0  0  0  0  0  0  0
    1.4578   15.0334   -0.2897 H   0  0  0  0  0  0  0  0  0  0  0  0
   -1.2514   16.3986   -0.8299 H   0  0  0  0  0  0  0  0  0  0  0  0
   -0.6564   15.7438    0.7595 H   0  0  0  0  0  0  0  0  0  0  0  0
   -0.4661   18.2074    0.6327 H   0  0  0  0  0  0  0  0  0  0  0  0
    1.1342   17.3838    0.7991 H   0  0  0  0  0  0  0  0  0  0  0  0
    1.3366   19.1435   -0.8201 H   0  0  0  0  0  0  0  0  0  0  0  0
   -0.2290   18.2250   -2.8140 H   0  0  0  0  0  0  0  0  0  0  0  0
    2.9126   17.2556   -0.1291 H   0  0  0  0  0  0  0  0  0  0  0  0
    3.5698   16.2849   -1.4901 H   0  0  0  0  0  0  0  0  0  0  0  0
    3.7540   18.0717   -1.4901 H   0  0  0  0  0  0  0  0  0  0  0  0
    2.4691   19.1248   -3.0479 H   0  0  0  0  0  0  0  0  0  0  0  0
    2.7932   17.5599   -3.8679 H   0  0  0  0  0  0  0  0  0  0  0  0
    1.1335   18.2470   -3.8679 H   0  0  0  0  0  0  0  0  0  0  0  0
   -2.1621   14.0217   -0.6764 H   0  0  0  0  0  0  0  0  0  0  0  0
   -1.6717   14.8776   -2.1776 H   0  0  0  0  0  0  0  0  0  0  0  0
   -1.8400   13.0892   -2.1776 H   0  0  0  0  0  0  0  0  0  0  0  0
   -0.1680   13.7412    0.9991 H   0  0  0  0  0  0  0  0  0  0  0  0
   -0.8235   12.2700    0.0826 H   0  0  0  0  0  0  0  0  0  0  0  0
    2.0683   12.9053    0.7326 H   0  0  0  0  0  0  0  0  0  0  0  0
    1.0449   11.5487    1.3488 H   0  0  0  0  0  0  0  0  0  0  0  0
    0.1076    9.9612   -0.0062 H   0  0  0  0  0  0  0  0  0  0  0  0
   -0.2960   10.8050   -1.5397 H   0  0  0  0  0  0  0  0  0  0  0  0
    0.9006    9.4653   -1.5397 H   0  0  0  0  0  0  0  0  0  0  0  0
  1  2  1  0
  2  3  1  0
  3  4  1  0
  4  5  1  0
  5  6  1  0
  6  7  1  0
  7  8  1  0
  7  9  1  0
  2 10  1  0
 10 11  1  0
 11 12  1  0
 12 13  1  0
 13 14  1  1
 13 15  1  0
 15 16  1  0
 16 17  1  0
 17 18  2  0
 18 19  1  0
 19 20  1  0
 20 21  1  0
 21 22  1  0
 22 23  1  0
 22 24  1  0
 24 25  1  0
 24 26  1  0
 19 27  1  0
 27 28  1  6
 27 29  1  0
 29 30  1  0
 30 31  1  0
 31 32  1  6
  7  5  1  0
 31 10  1  0
 31 13  1  0
 27 15  1  0
 24 18  1  0
  1 33  1  0
  1 34  1  0
  1 35  1  0
  2 36  1  6
  3 37  1  0
  3 38  1  0
  4 39  1  0
  4 40  1  0
  5 41  1  6
  8 42  1  0
  8 43  1  0
  8 44  1  0
  9 45  1  0
  9 46  1  0
  9 47  1  0
 10 48  1  1
 11 49  1  0
 11 50  1  0
 12 51  1  0
 12 52  1  0
 14 53  1  0
 14 54  1  0
 14 55  1  0
 15 56  1  6
 16 57  1  0
 16 58  1  0
 17 59  1  0
 19 60  1  1
 20 61  1  0
 20 62  1  0
 21 63  1  0
 21 64  1  0
 22 65  1  1
 23 66  1  0
 25 67  1  0
 25 68  1  0
 25 69  1  0
 26 70  1  0
 26 71  1  0
 26 72  1  0
 28 73  1  0
 28 74  1  0
 28 75  1  0
 29 76  1  0
 29 77  1  0
 30 78  1  0
 30 79  1  0
 32 80  1  0
 32 81  1  0
 32 82  1  0
M  END
>  <meeko>  (11) 
{"is_sidechain": [false], "intermolecular_energy": 2.731, "internal_energy": -0.839}

$$$$
EPH_relaxed_0001_pdb2pqr_Repair_404_r2_0001_out
     RDKit          3D

 82 86  0  0  0  0  0  0  0  0999 V2000
   -4.8990    6.0460   -1.8820 C   0  0  0  0  0  0  0  0  0  0  0  0
   -5.2920    7.5250   -1.8560 C   0  0  2  0  0  0  0  0  0  0  0  0
   -5.1000    8.1530   -0.4610 C   0  0  0  0  0  0  0  0  0  0  0  0
   -3.9950    9.2110   -0.4090 C   0  0  0  0  0  0  0  0  0  0  0  0
   -2.7580    8.7570   -1.1230 C   0  0  2  0  0  0  0  0  0  0  0  0
   -1.5650    8.7850   -0.3290 O   0  0  0  0  0  0  0  0  0  0  0  0
   -1.5980    9.6770   -1.4550 C   0  0  0  0  0  0  0  0  0  0  0  0
   -1.6200   11.1260   -1.0820 C   0  0  0  0  0  0  0  0  0  0  0  0
   -0.6690    9.2870   -2.5620 C   0  0  0  0  0  0  0  0  0  0  0  0
   -6.7400    7.6860   -2.3040 C   0  0  1  0  0  0  0  0  0  0  0  0
   -7.0350    6.9620   -3.6450 C   0  0  0  0  0  0  0  0  0  0  0  0
   -8.4880    6.4290   -3.5550 C   0  0  0  0  0  0  0  0  0  0  0  0
   -9.0890    7.1410   -2.3210 C   0  0  1  0  0  0  0  0  0  0  0  0
   -9.5050    8.5550   -2.8360 C   0  0  0  0  0  0  0  0  0  0  0  0
  -10.2770    6.4120   -1.6130 C   0  0  2  0  0  0  0  0  0  0  0  0
  -11.5360    6.2240   -2.4780 C   0  0  0  0  0  0  0  0  0  0  0  0
  -12.5350    7.3300   -2.3990 C   0  0  0  0  0  0  0  0  0  0  0  0
  -12.5670    8.2900   -1.4560 C   0  0  0  0  0  0  0  0  0  0  0  0
  -11.5850    8.2680   -0.2770 C   0  0  1  0  0  0  0  0  0  0  0  0
  -12.3560    8.5320    1.0440 C   0  0  0  0  0  0  0  0  0  0  0  0
  -13.1800    9.8150    0.9940 C   0  0  0  0  0  0  0  0  0  0  0  0
  -14.1840    9.7740   -0.1560 C   0  0  2  0  0  0  0  0  0  0  0  0
  -15.1570    8.7620    0.1180 O   0  0  0  0  0  0  0  0  0  0  0  0
  -13.5230    9.5050   -1.5370 C   0  0  0  0  0  0  0  0  0  0  0  0
  -12.7010   10.7440   -1.9700 C   0  0  0  0  0  0  0  0  0  0  0  0
  -14.6570    9.3480   -2.5860 C   0  0  0  0  0  0  0  0  0  0  0  0
  -10.6380    6.9950   -0.1870 C   0  0  1  0  0  0  0  0  0  0  0  0
  -11.3570    5.8520    0.5930 C   0  0  0  0  0  0  0  0  0  0  0  0
   -9.3570    7.3660    0.6500 C   0  0  0  0  0  0  0  0  0  0  0  0
   -8.1720    7.9720   -0.1260 C   0  0  0  0  0  0  0  0  0  0  0  0
   -7.8410    7.1340   -1.3650 C   0  0  2  0  0  0  0  0  0  0  0  0
   -7.3980    5.7130   -0.8760 C   0  0  0  0  0  0  0  0  0  0  0  0
   -4.8003    5.6747   -0.8513 H   0  0  0  0  0  0  0  0  0  0  0  0
   -5.6751    5.4695   -2.4067 H   0  0  0  0  0  0  0  0  0  0  0  0
   -3.9391    5.9308   -2.4067 H   0  0  0  0  0  0  0  0  0  0  0  0
   -4.6258    8.0562   -2.5517 H   0  0  0  0  0  0  0  0  0  0  0  0
   -6.0468    8.6247   -0.1592 H   0  0  0  0  0  0  0  0  0  0  0  0
   -4.8001    7.3414    0.2182 H   0  0  0  0  0  0  0  0  0  0  0  0
   -4.3620   10.1332   -0.8832 H   0  0  0  0  0  0  0  0  0  0  0  0
   -3.7371    9.3855    0.6460 H   0  0  0  0  0  0  0  0  0  0  0  0
   -3.3413    8.0547   -1.7366 H   0  0  0  0  0  0  0  0  0  0  0  0
   -1.6215   11.2226    0.0138 H   0  0  0  0  0  0  0  0  0  0  0  0
   -0.7293   11.6239   -1.4928 H   0  0  0  0  0  0  0  0  0  0  0  0
   -2.5254   11.5967   -1.4928 H   0  0  0  0  0  0  0  0  0  0  0  0
    0.2658    8.8946   -2.1351 H   0  0  0  0  0  0  0  0  0  0  0  0
   -1.1427    8.5118   -3.1822 H   0  0  0  0  0  0  0  0  0  0  0  0
   -0.4474   10.1680   -3.1822 H   0  0  0  0  0  0  0  0  0  0  0  0
   -6.7980    8.7836   -2.3469 H   0  0  0  0  0  0  0  0  0  0  0  0
   -6.9412    7.6666   -4.4845 H   0  0  0  0  0  0  0  0  0  0  0  0
   -6.3229    6.1411   -3.8158 H   0  0  0  0  0  0  0  0  0  0  0  0
   -9.0524    6.6846   -4.4639 H   0  0  0  0  0  0  0  0  0  0  0  0
   -8.5255    5.3334   -3.4638 H   0  0  0  0  0  0  0  0  0  0  0  0
   -9.6992    9.2152   -1.9779 H   0  0  0  0  0  0  0  0  0  0  0  0
   -8.6928    8.9765   -3.4465 H   0  0  0  0  0  0  0  0  0  0  0  0
  -10.4161    8.4695   -3.4465 H   0  0  0  0  0  0  0  0  0  0  0  0
   -9.8714    5.4023   -1.4519 H   0  0  0  0  0  0  0  0  0  0  0  0
  -11.2169    6.1285   -3.5264 H   0  0  0  0  0  0  0  0  0  0  0  0
  -12.0421    5.3285   -2.0881 H   0  0  0  0  0  0  0  0  0  0  0  0
  -13.3112    7.3635   -3.1777 H   0  0  0  0  0  0  0  0  0  0  0  0
  -10.8700    9.0833   -0.4613 H   0  0  0  0  0  0  0  0  0  0  0  0
  -13.0326    7.6855    1.2326 H   0  0  0  0  0  0  0  0  0  0  0  0
  -11.6132    8.6433    1.8476 H   0  0  0  0  0  0  0  0  0  0  0  0
  -13.7241    9.9307    1.9430 H   0  0  0  0  0  0  0  0  0  0  0  0
  -12.4988   10.6640    0.8354 H   0  0  0  0  0  0  0  0  0  0  0  0
  -14.6522   10.7672   -0.2214 H   0  0  0  0  0  0  0  0  0  0  0  0
  -15.7680    8.7290   -0.6380 H   0  0  0  0  0  0  0  0  0  0  0  0
  -12.3461   11.2790   -1.0768 H   0  0  0  0  0  0  0  0  0  0  0  0
  -11.8381   10.4200   -2.5704 H   0  0  0  0  0  0  0  0  0  0  0  0
  -13.3349   11.4131   -2.5704 H   0  0  0  0  0  0  0  0  0  0  0  0
  -15.6188    9.2148   -2.0691 H   0  0  0  0  0  0  0  0  0  0  0  0
  -14.7009   10.2486   -3.2160 H   0  0  0  0  0  0  0  0  0  0  0  0
  -14.4546    8.4693   -3.2160 H   0  0  0  0  0  0  0  0  0  0  0  0
  -11.2499    6.0223    1.6744 H   0  0  0  0  0  0  0  0  0  0  0  0
  -12.4244    5.8419    0.3274 H   0  0  0  0  0  0  0  0  0  0  0  0
  -10.9039    4.8855    0.3274 H   0  0  0  0  0  0  0  0  0  0  0  0
   -9.6599    8.0941    1.4169 H   0  0  0  0  0  0  0  0  0  0  0  0
   -8.9838    6.4094    1.0446 H   0  0  0  0  0  0  0  0  0  0  0  0
   -8.4330    8.9929   -0.4415 H   0  0  0  0  0  0  0  0  0  0  0  0
   -7.2916    7.9856    0.5333 H   0  0  0  0  0  0  0  0  0  0  0  0
   -7.3907    5.6895    0.2237 H   0  0  0  0  0  0  0  0  0  0  0  0
   -8.1036    4.9586   -1.2542 H   0  0  0  0  0  0  0  0  0  0  0  0
   -6.3887    5.4932   -1.2542 H   0  0  0  0  0  0  0  0  0  0  0  0
  1  2  1  0
  2  3  1  0
  3  4  1  0
  4  5  1  0
  5  6  1  0
  6  7  1  0
  7  8  1  0
  7  9  1  0
  2 10  1  0
 10 11  1  0
 11 12  1  0
 12 13  1  0
 13 14  1  6
 13 15  1  0
 15 16  1  0
 16 17  1  0
 17 18  2  0
 18 19  1  0
 19 20  1  0
 20 21  1  0
 21 22  1  0
 22 23  1  0
 22 24  1  0
 24 25  1  0
 24 26  1  0
 19 27  1  0
 27 28  1  1
 27 29  1  0
 29 30  1  0
 30 31  1  0
 31 32  1  1
  7  5  1  0
 31 10  1  0
 31 13  1  0
 27 15  1  0
 24 18  1  0
  1 33  1  0
  1 34  1  0
  1 35  1  0
  2 36  1  6
  3 37  1  0
  3 38  1  0
  4 39  1  0
  4 40  1  0
  5 41  1  6
  8 42  1  0
  8 43  1  0
  8 44  1  0
  9 45  1  0
  9 46  1  0
  9 47  1  0
 10 48  1  6
 11 49  1  0
 11 50  1  0
 12 51  1  0
 12 52  1  0
 14 53  1  0
 14 54  1  0
 14 55  1  0
 15 56  1  1
 16 57  1  0
 16 58  1  0
 17 59  1  0
 19 60  1  6
 20 61  1  0
 20 62  1  0
 21 63  1  0
 21 64  1  0
 22 65  1  6
 23 66  1  0
 25 67  1  0
 25 68  1  0
 25 69  1  0
 26 70  1  0
 26 71  1  0
 26 72  1  0
 28 73  1  0
 28 74  1  0
 28 75  1  0
 29 76  1  0
 29 77  1  0
 30 78  1  0
 30 79  1  0
 32 80  1  0
 32 81  1  0
 32 82  1  0
M  END
>  <meeko>  (12) 
{"is_sidechain": [false], "intermolecular_energy": 2.731, "internal_energy": -0.839}

$$$$
EPH_relaxed_0001_pdb2pqr_Repair_404_r2_0001_out
     RDKit          3D

 82 86  0  0  0  0  0  0  0  0999 V2000
    2.4510   12.4760   -5.2170 C   0  0  0  0  0  0  0  0  0  0  0  0
    1.0780   13.0950   -4.9400 C   0  0  2  0  0  0  0  0  0  0  0  0
    0.9850   14.5500   -5.4410 C   0  0  0  0  0  0  0  0  0  0  0  0
    0.4500   15.5290   -4.3930 C   0  0  0  0  0  0  0  0  0  0  0  0
    1.5560   16.1310   -3.5800 C   0  0  2  0  0  0  0  0  0  0  0  0
    1.4000   15.9920   -2.1620 O   0  0  0  0  0  0  0  0  0  0  0  0
    1.3690   17.3340   -2.6740 C   0  0  0  0  0  0  0  0  0  0  0  0
    0.0410   18.0080   -2.5360 C   0  0  0  0  0  0  0  0  0  0  0  0
    2.5720   18.1460   -2.3080 C   0  0  0  0  0  0  0  0  0  0  0  0
    0.7730   13.0370   -3.4480 C   0  0  1  0  0  0  0  0  0  0  0  0
   -0.6540   13.5450   -3.1100 C   0  0  0  0  0  0  0  0  0  0  0  0
   -1.1630   12.6890   -1.9210 C   0  0  0  0  0  0  0  0  0  0  0  0
    0.0950   11.9540   -1.4030 C   0  0  1  0  0  0  0  0  0  0  0  0
    0.8270   12.9970   -0.5020 C   0  0  0  0  0  0  0  0  0  0  0  0
   -0.1540   10.6100   -0.6440 C   0  0  2  0  0  0  0  0  0  0  0  0
   -0.9700   10.7350    0.6540 C   0  0  0  0  0  0  0  0  0  0  0  0
   -0.1670   10.9600    1.8930 C   0  0  0  0  0  0  0  0  0  0  0  0
    1.1610   10.7750    2.0080 C   0  0  0  0  0  0  0  0  0  0  0  0
    1.9810   10.2010    0.8440 C   0  0  1  0  0  0  0  0  0  0  0  0
    2.9260    9.0920    1.3750 C   0  0  0  0  0  0  0  0  0  0  0  0
    3.8050    9.5730    2.5260 C   0  0  0  0  0  0  0  0  0  0  0  0
    2.9530   10.0820    3.6860 C   0  0  2  0  0  0  0  0  0  0  0  0
    2.2370    8.9790    4.2500 O   0  0  0  0  0  0  0  0  0  0  0  0
    1.9540   11.1970    3.2700 C   0  0  0  0  0  0  0  0  0  0  0  0
    2.7300   12.4970    2.9440 C   0  0  0  0  0  0  0  0  0  0  0  0
    1.0610   11.5210    4.4980 C   0  0  0  0  0  0  0  0  0  0  0  0
    1.1480    9.7370   -0.4270 C   0  0  1  0  0  0  0  0  0  0  0  0
    0.6710    8.2640   -0.2420 C   0  0  0  0  0  0  0  0  0  0  0  0
    2.0900    9.7440   -1.6890 C   0  0  0  0  0  0  0  0  0  0  0  0
    2.2010   11.0690   -2.4660 C   0  0  0  0  0  0  0  0  0  0  0  0
    0.8140   11.6460   -2.7670 C   0  0  2  0  0  0  0  0  0  0  0  0
    0.0620   10.6280   -3.6900 C   0  0  0  0  0  0  0  0  0  0  0  0
    2.9508   12.2507   -4.2633 H   0  0  0  0  0  0  0  0  0  0  0  0
    2.3251   11.5476   -5.7933 H   0  0  0  0  0  0  0  0  0  0  0  0
    3.0634   13.1851   -5.7933 H   0  0  0  0  0  0  0  0  0  0  0  0
    0.3321   12.5069   -5.4948 H   0  0  0  0  0  0  0  0  0  0  0  0
    1.9908   14.8786   -5.7417 H   0  0  0  0  0  0  0  0  0  0  0  0
    0.2731   14.5562   -6.2795 H   0  0  0  0  0  0  0  0  0  0  0  0
   -0.0959   16.3355   -4.9045 H   0  0  0  0  0  0  0  0  0  0  0  0
   -0.2125   14.9741   -3.7124 H   0  0  0  0  0  0  0  0  0  0  0  0
    2.2893   15.9087   -4.3692 H   0  0  0  0  0  0  0  0  0  0  0  0
   -0.1992   18.1299   -1.4695 H   0  0  0  0  0  0  0  0  0  0  0  0
    0.0792   18.9958   -3.0185 H   0  0  0  0  0  0  0  0  0  0  0  0
   -0.7337   17.3940   -3.0185 H   0  0  0  0  0  0  0  0  0  0  0  0
    2.6565   18.2030   -1.2127 H   0  0  0  0  0  0  0  0  0  0  0  0
    3.4743   17.6714   -2.7211 H   0  0  0  0  0  0  0  0  0  0  0  0
    2.4693   19.1603   -2.7211 H   0  0  0  0  0  0  0  0  0  0  0  0
    1.5915   13.6660   -3.0680 H   0  0  0  0  0  0  0  0  0  0  0  0
   -0.6206   14.6070   -2.8254 H   0  0  0  0  0  0  0  0  0  0  0  0
   -1.3226   13.4522   -3.9786 H   0  0  0  0  0  0  0  0  0  0  0  0
   -1.5893   13.3301   -1.1353 H   0  0  0  0  0  0  0  0  0  0  0  0
   -1.9600   11.9922   -2.2196 H   0  0  0  0  0  0  0  0  0  0  0  0
    0.6550   12.7520    0.5565 H   0  0  0  0  0  0  0  0  0  0  0  0
    1.9061   12.9712   -0.7137 H   0  0  0  0  0  0  0  0  0  0  0  0
    0.4358   14.0031   -0.7137 H   0  0  0  0  0  0  0  0  0  0  0  0
   -0.7947   10.0576   -1.3471 H   0  0  0  0  0  0  0  0  0  0  0  0
   -1.6630   11.5816    0.5397 H   0  0  0  0  0  0  0  0  0  0  0  0
   -1.4753    9.7675    0.7903 H   0  0  0  0  0  0  0  0  0  0  0  0
   -0.7066   11.3061    2.7869 H   0  0  0  0  0  0  0  0  0  0  0  0
    2.5743   11.0377    0.4467 H   0  0  0  0  0  0  0  0  0  0  0  0
    2.3155    8.2473    1.7269 H   0  0  0  0  0  0  0  0  0  0  0  0
    3.5899    8.7959    0.5494 H   0  0  0  0  0  0  0  0  0  0  0  0
    4.4285    8.7373    2.8766 H   0  0  0  0  0  0  0  0  0  0  0  0
    4.4364   10.3983    2.1650 H   0  0  0  0  0  0  0  0  0  0  0  0
    3.6342   10.5321    4.4232 H   0  0  0  0  0  0  0  0  0  0  0  0
    1.9960    8.3820    3.5220 H   0  0  0  0  0  0  0  0  0  0  0  0
    3.0256   12.9922    3.8807 H   0  0  0  0  0  0  0  0  0  0  0  0
    3.6290   12.2507    2.3599 H   0  0  0  0  0  0  0  0  0  0  0  0
    2.0866   13.1714    2.3599 H   0  0  0  0  0  0  0  0  0  0  0  0
    1.6212   11.3177    5.4226 H   0  0  0  0  0  0  0  0  0  0  0  0
    0.7709   12.5817    4.4707 H   0  0  0  0  0  0  0  0  0  0  0  0
    0.1582   10.8931    4.4707 H   0  0  0  0  0  0  0  0  0  0  0  0
    0.5967    8.0347    0.8313 H   0  0  0  0  0  0  0  0  0  0  0  0
   -0.3146    8.1358   -0.7134 H   0  0  0  0  0  0  0  0  0  0  0  0
    1.3943    7.5824   -0.7134 H   0  0  0  0  0  0  0  0  0  0  0  0
    3.1006    9.4707   -1.3513 H   0  0  0  0  0  0  0  0  0  0  0  0
    1.6316    9.0348   -2.3939 H   0  0  0  0  0  0  0  0  0  0  0  0
    2.7689   11.7931   -1.8634 H   0  0  0  0  0  0  0  0  0  0  0  0
    2.7145   10.8747   -3.4192 H   0  0  0  0  0  0  0  0  0  0  0  0
   -0.4771    9.8982   -3.0681 H   0  0  0  0  0  0  0  0  0  0  0  0
   -0.6549   11.1691   -4.3250 H   0  0  0  0  0  0  0  0  0  0  0  0
    0.7899   10.1018   -4.3250 H   0  0  0  0  0  0  0  0  0  0  0  0
  1  2  1  0
  2  3  1  0
  3  4  1  0
  4  5  1  0
  5  6  1  0
  6  7  1  0
  7  8  1  0
  7  9  1  0
  2 10  1  0
 10 11  1  0
 11 12  1  0
 12 13  1  0
 13 14  1  1
 13 15  1  0
 15 16  1  0
 16 17  1  0
 17 18  2  0
 18 19  1  0
 19 20  1  0
 20 21  1  0
 21 22  1  0
 22 23  1  0
 22 24  1  0
 24 25  1  0
 24 26  1  0
 19 27  1  0
 27 28  1  1
 27 29  1  0
 29 30  1  0
 30 31  1  0
 31 32  1  6
  7  5  1  0
 31 10  1  0
 31 13  1  0
 27 15  1  0
 24 18  1  0
  1 33  1  0
  1 34  1  0
  1 35  1  0
  2 36  1  6
  3 37  1  0
  3 38  1  0
  4 39  1  0
  4 40  1  0
  5 41  1  6
  8 42  1  0
  8 43  1  0
  8 44  1  0
  9 45  1  0
  9 46  1  0
  9 47  1  0
 10 48  1  1
 11 49  1  0
 11 50  1  0
 12 51  1  0
 12 52  1  0
 14 53  1  0
 14 54  1  0
 14 55  1  0
 15 56  1  6
 16 57  1  0
 16 58  1  0
 17 59  1  0
 19 60  1  6
 20 61  1  0
 20 62  1  0
 21 63  1  0
 21 64  1  0
 22 65  1  1
 23 66  1  0
 25 67  1  0
 25 68  1  0
 25 69  1  0
 26 70  1  0
 26 71  1  0
 26 72  1  0
 28 73  1  0
 28 74  1  0
 28 75  1  0
 29 76  1  0
 29 77  1  0
 30 78  1  0
 30 79  1  0
 32 80  1  0
 32 81  1  0
 32 82  1  0
M  END
>  <meeko>  (13) 
{"is_sidechain": [false], "intermolecular_energy": 2.731, "internal_energy": -0.839}

$$$$
EPH_relaxed_0001_pdb2pqr_Repair_404_r2_0001_out
     RDKit          3D

 82 86  0  0  0  0  0  0  0  0999 V2000
    0.8840   13.4140   -5.7310 C   0  0  0  0  0  0  0  0  0  0  0  0
    2.0820   13.1000   -4.8310 C   0  0  2  0  0  0  0  0  0  0  0  0
    2.7290   11.7430   -5.1780 C   0  0  0  0  0  0  0  0  0  0  0  0
    4.1270   11.8660   -5.7890 C   0  0  0  0  0  0  0  0  0  0  0  0
    5.0730   10.8540   -5.2170 C   0  0  2  0  0  0  0  0  0  0  0  0
    4.7870   10.4630   -3.8680 O   0  0  0  0  0  0  0  0  0  0  0  0
    6.0300   11.1530   -4.0780 C   0  0  0  0  0  0  0  0  0  0  0  0
    6.0880   12.5070   -3.4430 C   0  0  0  0  0  0  0  0  0  0  0  0
    7.2370   10.2850   -3.9110 C   0  0  0  0  0  0  0  0  0  0  0  0
    1.6520   13.1130   -3.3690 C   0  0  1  0  0  0  0  0  0  0  0  0
    0.2840   13.8150   -3.1550 C   0  0  0  0  0  0  0  0  0  0  0  0
   -0.4310   13.0590   -2.0060 C   0  0  0  0  0  0  0  0  0  0  0  0
    0.6690   12.1710   -1.3780 C   0  0  1  0  0  0  0  0  0  0  0  0
    1.4600   13.1240   -0.4280 C   0  0  0  0  0  0  0  0  0  0  0  0
    0.1790   10.8880   -0.6310 C   0  0  2  0  0  0  0  0  0  0  0  0
   -0.7150   11.1480    0.5940 C   0  0  0  0  0  0  0  0  0  0  0  0
    0.0080   11.2870    1.8930 C   0  0  0  0  0  0  0  0  0  0  0  0
    1.2850   10.9270    2.1190 C   0  0  0  0  0  0  0  0  0  0  0  0
    2.1100   10.2260    1.0330 C   0  0  1  0  0  0  0  0  0  0  0  0
    2.8500    9.0090    1.6500 C   0  0  0  0  0  0  0  0  0  0  0  0
    3.6890    9.3900    2.8660 C   0  0  0  0  0  0  0  0  0  0  0  0
    2.8240   10.0320    3.9470 C   0  0  2  0  0  0  0  0  0  0  0  0
    1.9200    9.0480    4.4590 O   0  0  0  0  0  0  0  0  0  0  0  0
    2.0220   11.2630    3.4390 C   0  0  0  0  0  0  0  0  0  0  0  0
    2.9920   12.4400    3.1680 C   0  0  0  0  0  0  0  0  0  0  0  0
    1.0850   11.7290    4.5860 C   0  0  0  0  0  0  0  0  0  0  0  0
    1.3280    9.8530   -0.2990 C   0  0  1  0  0  0  0  0  0  0  0  0
    0.6420    8.4610   -0.1420 C   0  0  0  0  0  0  0  0  0  0  0  0
    2.3620    9.7070   -1.4780 C   0  0  0  0  0  0  0  0  0  0  0  0
    2.7150   10.9900   -2.2550 C   0  0  0  0  0  0  0  0  0  0  0  0
    1.4490   11.7430   -2.6750 C   0  0  2  0  0  0  0  0  0  0  0  0
    0.6430   10.8180   -3.6490 C   0  0  0  0  0  0  0  0  0  0  0  0
    0.0073   13.6438   -5.1076 H   0  0  0  0  0  0  0  0  0  0  0  0
    1.1197   14.2807   -6.3660 H   0  0  0  0  0  0  0  0  0  0  0  0
    0.6642   12.5431   -6.3660 H   0  0  0  0  0  0  0  0  0  0  0  0
    2.8381   13.8802   -5.0027 H   0  0  0  0  0  0  0  0  0  0  0  0
    2.8042   11.1482   -4.2557 H   0  0  0  0  0  0  0  0  0  0  0  0
    2.0886   11.2657   -5.9343 H   0  0  0  0  0  0  0  0  0  0  0  0
    4.0557   11.7129   -6.8760 H   0  0  0  0  0  0  0  0  0  0  0  0
    4.5157   12.8685   -5.5567 H   0  0  0  0  0  0  0  0  0  0  0  0
    5.2243   10.4007   -6.2078 H   0  0  0  0  0  0  0  0  0  0  0  0
    6.0834   12.3991   -2.3483 H   0  0  0  0  0  0  0  0  0  0  0  0
    7.0089   13.0201   -3.7570 H   0  0  0  0  0  0  0  0  0  0  0  0
    5.2143   13.0970   -3.7570 H   0  0  0  0  0  0  0  0  0  0  0  0
    7.4388   10.1399   -2.8395 H   0  0  0  0  0  0  0  0  0  0  0  0
    7.0554    9.3093   -4.3854 H   0  0  0  0  0  0  0  0  0  0  0  0
    8.1042   10.7676   -4.3854 H   0  0  0  0  0  0  0  0  0  0  0  0
    2.5146   13.6337   -2.9277 H   0  0  0  0  0  0  0  0  0  0  0  0
    0.4379   14.8682   -2.8774 H   0  0  0  0  0  0  0  0  0  0  0  0
   -0.3182   13.7961   -4.0753 H   0  0  0  0  0  0  0  0  0  0  0  0
   -0.8289   13.7670   -1.2641 H   0  0  0  0  0  0  0  0  0  0  0  0
   -1.2879   12.4699   -2.3646 H   0  0  0  0  0  0  0  0  0  0  0  0
    1.2427   12.8622    0.6180 H   0  0  0  0  0  0  0  0  0  0  0  0
    2.5385   13.0171   -0.6163 H   0  0  0  0  0  0  0  0  0  0  0  0
    1.1563   14.1643   -0.6163 H   0  0  0  0  0  0  0  0  0  0  0  0
   -0.4715   10.4127   -1.3799 H   0  0  0  0  0  0  0  0  0  0  0  0
   -1.2746   12.0780    0.4152 H   0  0  0  0  0  0  0  0  0  0  0  0
   -1.3568   10.2605    0.6963 H   0  0  0  0  0  0  0  0  0  0  0  0
   -0.5500   11.7201    2.7362 H   0  0  0  0  0  0  0  0  0  0  0  0
    2.8411   10.9680    0.6797 H   0  0  0  0  0  0  0  0  0  0  0  0
    2.1040    8.2610    1.9566 H   0  0  0  0  0  0  0  0  0  0  0  0
    3.5324    8.6100    0.8850 H   0  0  0  0  0  0  0  0  0  0  0  0
    4.1625    8.4850    3.2744 H   0  0  0  0  0  0  0  0  0  0  0  0
    4.4533   10.1159    2.5513 H   0  0  0  0  0  0  0  0  0  0  0  0
    3.4989   10.3997    4.7340 H   0  0  0  0  0  0  0  0  0  0  0  0
    1.5470    9.3930    5.2870 H   0  0  0  0  0  0  0  0  0  0  0  0
    3.3370   12.8586    4.1250 H   0  0  0  0  0  0  0  0  0  0  0  0
    3.8570   12.0774    2.5933 H   0  0  0  0  0  0  0  0  0  0  0  0
    2.4708   13.2198    2.5933 H   0  0  0  0  0  0  0  0  0  0  0  0
    1.5497   11.4979    5.5559 H   0  0  0  0  0  0  0  0  0  0  0  0
    0.9207   12.8138    4.5074 H   0  0  0  0  0  0  0  0  0  0  0  0
    0.1208   11.2054    4.5074 H   0  0  0  0  0  0  0  0  0  0  0  0
    0.5269    8.2274    0.9267 H   0  0  0  0  0  0  0  0  0  0  0  0
   -0.3480    8.4840   -0.6210 H   0  0  0  0  0  0  0  0  0  0  0  0
    1.2633    7.6899   -0.6210 H   0  0  0  0  0  0  0  0  0  0  0  0
    3.2951    9.3069   -1.0547 H   0  0  0  0  0  0  0  0  0  0  0  0
    1.8708    9.0516   -2.2123 H   0  0  0  0  0  0  0  0  0  0  0  0
    3.3256   11.6425   -1.6136 H   0  0  0  0  0  0  0  0  0  0  0  0
    3.2725   10.7091   -3.1607 H   0  0  0  0  0  0  0  0  0  0  0  0
    0.0307   10.1153   -3.0647 H   0  0  0  0  0  0  0  0  0  0  0  0
   -0.0110   11.4346   -4.2831 H   0  0  0  0  0  0  0  0  0  0  0  0
    1.3433   10.2545   -4.2831 H   0  0  0  0  0  0  0  0  0  0  0  0
  1  2  1  0
  2  3  1  0
  3  4  1  0
  4  5  1  0
  5  6  1  0
  6  7  1  0
  7  8  1  0
  7  9  1  0
  2 10  1  0
 10 11  1  0
 11 12  1  0
 12 13  1  0
 13 14  1  1
 13 15  1  0
 15 16  1  0
 16 17  1  0
 17 18  2  0
 18 19  1  0
 19 20  1  0
 20 21  1  0
 21 22  1  0
 22 23  1  0
 22 24  1  0
 24 25  1  0
 24 26  1  0
 19 27  1  0
 27 28  1  1
 27 29  1  0
 29 30  1  0
 30 31  1  0
 31 32  1  6
  7  5  1  0
 31 10  1  0
 31 13  1  0
 27 15  1  0
 24 18  1  0
  1 33  1  0
  1 34  1  0
  1 35  1  0
  2 36  1  1
  3 37  1  0
  3 38  1  0
  4 39  1  0
  4 40  1  0
  5 41  1  6
  8 42  1  0
  8 43  1  0
  8 44  1  0
  9 45  1  0
  9 46  1  0
  9 47  1  0
 10 48  1  1
 11 49  1  0
 11 50  1  0
 12 51  1  0
 12 52  1  0
 14 53  1  0
 14 54  1  0
 14 55  1  0
 15 56  1  6
 16 57  1  0
 16 58  1  0
 17 59  1  0
 19 60  1  6
 20 61  1  0
 20 62  1  0
 21 63  1  0
 21 64  1  0
 22 65  1  1
 23 66  1  0
 25 67  1  0
 25 68  1  0
 25 69  1  0
 26 70  1  0
 26 71  1  0
 26 72  1  0
 28 73  1  0
 28 74  1  0
 28 75  1  0
 29 76  1  0
 29 77  1  0
 30 78  1  0
 30 79  1  0
 32 80  1  0
 32 81  1  0
 32 82  1  0
M  END
>  <meeko>  (14) 
{"is_sidechain": [false], "intermolecular_energy": 2.731, "internal_energy": -0.839}

$$$$
EPH_relaxed_0001_pdb2pqr_Repair_404_r2_0001_out
     RDKit          3D

 82 86  0  0  0  0  0  0  0  0999 V2000
    0.8060   16.7770   -3.0400 C   0  0  0  0  0  0  0  0  0  0  0  0
    0.9810   15.4010   -3.6890 C   0  0  2  0  0  0  0  0  0  0  0  0
    0.1040   15.2350   -4.9460 C   0  0  0  0  0  0  0  0  0  0  0  0
    0.8920   14.8510   -6.2010 C   0  0  0  0  0  0  0  0  0  0  0  0
    0.6940   15.8450   -7.3050 C   0  0  2  0  0  0  0  0  0  0  0  0
    0.2420   15.2810   -8.5430 O   0  0  0  0  0  0  0  0  0  0  0  0
    1.5470   15.8820   -8.5590 C   0  0  0  0  0  0  0  0  0  0  0  0
    2.6630   14.9080   -8.7740 C   0  0  0  0  0  0  0  0  0  0  0  0
    1.6140   17.1570   -9.3410 C   0  0  0  0  0  0  0  0  0  0  0  0
    0.6580   14.3050   -2.6790 C   0  0  1  0  0  0  0  0  0  0  0  0
   -0.8300   13.8680   -2.7290 C   0  0  0  0  0  0  0  0  0  0  0  0
   -0.8600   12.3470   -2.4290 C   0  0  0  0  0  0  0  0  0  0  0  0
    0.5560   12.0280   -1.8930 C   0  0  1  0  0  0  0  0  0  0  0  0
    0.5220   12.4530   -0.3920 C   0  0  0  0  0  0  0  0  0  0  0  0
    1.0430   10.5520   -2.0640 C   0  0  2  0  0  0  0  0  0  0  0  0
    0.2080    9.4980   -1.3170 C   0  0  0  0  0  0  0  0  0  0  0  0
    0.6630    9.1910    0.0720 C   0  0  0  0  0  0  0  0  0  0  0  0
    1.8590    9.5220    0.5940 C   0  0  0  0  0  0  0  0  0  0  0  0
    2.9370   10.1920   -0.2690 C   0  0  1  0  0  0  0  0  0  0  0  0
    4.3000    9.4910   -0.0310 C   0  0  0  0  0  0  0  0  0  0  0  0
    4.6820    9.4400    1.4450 C   0  0  0  0  0  0  0  0  0  0  0  0
    3.6140    8.7160    2.2610 C   0  0  2  0  0  0  0  0  0  0  0  0
    3.5930    7.3390    1.8730 O   0  0  0  0  0  0  0  0  0  0  0  0
    2.1950    9.3280    2.0930 C   0  0  0  0  0  0  0  0  0  0  0  0
    2.1400   10.7120    2.7860 C   0  0  0  0  0  0  0  0  0  0  0  0
    1.1900    8.4210    2.8530 C   0  0  0  0  0  0  0  0  0  0  0  0
    2.5920   10.3480   -1.8120 C   0  0  1  0  0  0  0  0  0  0  0  0
    3.0010    9.0550   -2.5820 C   0  0  0  0  0  0  0  0  0  0  0  0
    3.4560   11.5170   -2.4170 C   0  0  0  0  0  0  0  0  0  0  0  0
    2.8660   12.9370   -2.3240 C   0  0  0  0  0  0  0  0  0  0  0  0
    1.4170   12.9620   -2.8190 C   0  0  2  0  0  0  0  0  0  0  0  0
    1.4220   12.5600   -4.3330 C   0  0  0  0  0  0  0  0  0  0  0  0
    0.8196   16.6705   -1.9453 H   0  0  0  0  0  0  0  0  0  0  0  0
    1.6273   17.4378   -3.3543 H   0  0  0  0  0  0  0  0  0  0  0  0
   -0.1546   17.2111   -3.3543 H   0  0  0  0  0  0  0  0  0  0  0  0
    2.0308   15.3164   -4.0066 H   0  0  0  0  0  0  0  0  0  0  0  0
   -0.6397   14.4488   -4.7490 H   0  0  0  0  0  0  0  0  0  0  0  0
   -0.3602   16.2122   -5.1449 H   0  0  0  0  0  0  0  0  0  0  0  0
    1.9620   14.8052   -5.9501 H   0  0  0  0  0  0  0  0  0  0  0  0
    0.5270   13.8737   -6.5497 H   0  0  0  0  0  0  0  0  0  0  0  0
    0.4075   16.6251   -6.5844 H   0  0  0  0  0  0  0  0  0  0  0  0
    3.0486   14.5714   -7.8003 H   0  0  0  0  0  0  0  0  0  0  0  0
    2.2897   14.0417   -9.3398 H   0  0  0  0  0  0  0  0  0  0  0  0
    3.4708   15.3950   -9.3398 H   0  0  0  0  0  0  0  0  0  0  0  0
    1.6588   18.0102   -8.6481 H   0  0  0  0  0  0  0  0  0  0  0  0
    2.5131   17.1517   -9.9747 H   0  0  0  0  0  0  0  0  0  0  0  0
    0.7193   17.2459   -9.9747 H   0  0  0  0  0  0  0  0  0  0  0  0
    0.9618   14.8129   -1.7518 H   0  0  0  0  0  0  0  0  0  0  0  0
   -1.4110   14.4149   -1.9719 H   0  0  0  0  0  0  0  0  0  0  0  0
   -1.2726   14.0854   -3.7123 H   0  0  0  0  0  0  0  0  0  0  0  0
   -1.6234   12.1154   -1.6717 H   0  0  0  0  0  0  0  0  0  0  0  0
   -1.1141   11.7510   -3.3179 H   0  0  0  0  0  0  0  0  0  0  0  0
    0.5936   11.5584    0.2441 H   0  0  0  0  0  0  0  0  0  0  0  0
    1.3695   13.1217   -0.1810 H   0  0  0  0  0  0  0  0  0  0  0  0
   -0.4211   12.9785   -0.1810 H   0  0  0  0  0  0  0  0  0  0  0  0
    0.8664   10.3678   -3.1340 H   0  0  0  0  0  0  0  0  0  0  0  0
   -0.8287    9.8618   -1.2625 H   0  0  0  0  0  0  0  0  0  0  0  0
    0.3175    8.5634   -1.8867 H   0  0  0  0  0  0  0  0  0  0  0  0
   -0.0382    8.6488    0.7234 H   0  0  0  0  0  0  0  0  0  0  0  0
    2.9909   11.2374    0.0689 H   0  0  0  0  0  0  0  0  0  0  0  0
    4.2391    8.4621   -0.4152 H   0  0  0  0  0  0  0  0  0  0  0  0
    5.0713   10.0741   -0.5554 H   0  0  0  0  0  0  0  0  0  0  0  0
    5.6385    8.9072    1.5510 H   0  0  0  0  0  0  0  0  0  0  0  0
    4.7715   10.4702    1.8200 H   0  0  0  0  0  0  0  0  0  0  0  0
    3.8789    8.8258    3.3230 H   0  0  0  0  0  0  0  0  0  0  0  0
    2.7680    7.1840    1.3820 H   0  0  0  0  0  0  0  0  0  0  0  0
    2.1454   10.5760    3.8775 H   0  0  0  0  0  0  0  0  0  0  0  0
    3.0152   11.3072    2.4863 H   0  0  0  0  0  0  0  0  0  0  0  0
    1.2203   11.2358    2.4863 H   0  0  0  0  0  0  0  0  0  0  0  0
    1.3295    8.5469    3.9368 H   0  0  0  0  0  0  0  0  0  0  0  0
    0.1624    8.7035    2.5803 H   0  0  0  0  0  0  0  0  0  0  0  0
    1.3659    7.3700    2.5803 H   0  0  0  0  0  0  0  0  0  0  0  0
    3.2516    8.2628   -1.8612 H   0  0  0  0  0  0  0  0  0  0  0  0
    2.1636    8.7242   -3.2140 H   0  0  0  0  0  0  0  0  0  0  0  0
    3.8763    9.2660   -3.2140 H   0  0  0  0  0  0  0  0  0  0  0  0
    4.4222   11.5231   -1.8913 H   0  0  0  0  0  0  0  0  0  0  0  0
    3.5183   11.3012   -3.4938 H   0  0  0  0  0  0  0  0  0  0  0  0
    2.8941   13.2704   -1.2761 H   0  0  0  0  0  0  0  0  0  0  0  0
    3.4647   13.6078   -2.9577 H   0  0  0  0  0  0  0  0  0  0  0  0
    1.4356   11.4636   -4.4212 H   0  0  0  0  0  0  0  0  0  0  0  0
    0.5189   12.9559   -4.8205 H   0  0  0  0  0  0  0  0  0  0  0  0
    2.3150   12.9782   -4.8205 H   0  0  0  0  0  0  0  0  0  0  0  0
  1  2  1  0
  2  3  1  0
  3  4  1  0
  4  5  1  0
  5  6  1  0
  6  7  1  0
  7  8  1  0
  7  9  1  0
  2 10  1  0
 10 11  1  0
 11 12  1  0
 12 13  1  0
 13 14  1  1
 13 15  1  0
 15 16  1  0
 16 17  1  0
 17 18  2  0
 18 19  1  0
 19 20  1  0
 20 21  1  0
 21 22  1  0
 22 23  1  0
 22 24  1  0
 24 25  1  0
 24 26  1  0
 19 27  1  0
 27 28  1  6
 27 29  1  0
 29 30  1  0
 30 31  1  0
 31 32  1  6
  7  5  1  0
 31 10  1  0
 31 13  1  0
 27 15  1  0
 24 18  1  0
  1 33  1  0
  1 34  1  0
  1 35  1  0
  2 36  1  6
  3 37  1  0
  3 38  1  0
  4 39  1  0
  4 40  1  0
  5 41  1  1
  8 42  1  0
  8 43  1  0
  8 44  1  0
  9 45  1  0
  9 46  1  0
  9 47  1  0
 10 48  1  1
 11 49  1  0
 11 50  1  0
 12 51  1  0
 12 52  1  0
 14 53  1  0
 14 54  1  0
 14 55  1  0
 15 56  1  6
 16 57  1  0
 16 58  1  0
 17 59  1  0
 19 60  1  1
 20 61  1  0
 20 62  1  0
 21 63  1  0
 21 64  1  0
 22 65  1  1
 23 66  1  0
 25 67  1  0
 25 68  1  0
 25 69  1  0
 26 70  1  0
 26 71  1  0
 26 72  1  0
 28 73  1  0
 28 74  1  0
 28 75  1  0
 29 76  1  0
 29 77  1  0
 30 78  1  0
 30 79  1  0
 32 80  1  0
 32 81  1  0
 32 82  1  0
M  END
>  <meeko>  (15) 
{"is_sidechain": [false], "intermolecular_energy": 2.731, "internal_energy": -0.839}

$$$$
EPH_relaxed_0001_pdb2pqr_Repair_404_r2_0001_out
     RDKit          3D

 82 86  0  0  0  0  0  0  0  0999 V2000
    0.4450    8.8280   -2.3950 C   0  0  0  0  0  0  0  0  0  0  0  0
    1.1880    9.9730   -3.0890 C   0  0  2  0  0  0  0  0  0  0  0  0
    2.6880    9.9920   -2.7320 C   0  0  0  0  0  0  0  0  0  0  0  0
    3.5730   10.5990   -3.8240 C   0  0  0  0  0  0  0  0  0  0  0  0
    4.9690   10.8430   -3.3350 C   0  0  2  0  0  0  0  0  0  0  0  0
    5.5660   12.0560   -3.8100 O   0  0  0  0  0  0  0  0  0  0  0  0
    6.1860   10.8330   -4.2410 C   0  0  0  0  0  0  0  0  0  0  0  0
    6.0640   10.5740   -5.7100 C   0  0  0  0  0  0  0  0  0  0  0  0
    7.5310   10.5910   -3.6300 C   0  0  0  0  0  0  0  0  0  0  0  0
    0.5480   11.3060   -2.7230 C   0  0  1  0  0  0  0  0  0  0  0  0
   -0.8310   11.1360   -2.0300 C   0  0  0  0  0  0  0  0  0  0  0  0
   -0.9500   12.2750   -0.9850 C   0  0  0  0  0  0  0  0  0  0  0  0
    0.2010   13.2480   -1.3350 C   0  0  1  0  0  0  0  0  0  0  0  0
   -0.3460   14.1060   -2.5190 C   0  0  0  0  0  0  0  0  0  0  0  0
    0.7280   14.1440   -0.1670 C   0  0  2  0  0  0  0  0  0  0  0  0
   -0.3050   15.1200    0.4230 C   0  0  0  0  0  0  0  0  0  0  0  0
   -0.3470   16.4680   -0.2170 C   0  0  0  0  0  0  0  0  0  0  0  0
    0.5960   16.9770   -1.0300 C   0  0  0  0  0  0  0  0  0  0  0  0
    1.8990   16.2130   -1.3010 C   0  0  1  0  0  0  0  0  0  0  0  0
    3.1040   17.1810   -1.1680 C   0  0  0  0  0  0  0  0  0  0  0  0
    2.9610   18.4190   -2.0460 C   0  0  0  0  0  0  0  0  0  0  0  0
    1.6840   19.1840   -1.7070 C   0  0  2  0  0  0  0  0  0  0  0  0
    1.8060   19.7220   -0.3860 O   0  0  0  0  0  0  0  0  0  0  0  0
    0.4030   18.3080   -1.7980 C   0  0  0  0  0  0  0  0  0  0  0  0
    0.1040   17.9750   -3.2800 C   0  0  0  0  0  0  0  0  0  0  0  0
   -0.7940   19.1600   -1.2950 C   0  0  0  0  0  0  0  0  0  0  0  0
    2.0990   14.8700   -0.4760 C   0  0  1  0  0  0  0  0  0  0  0  0
    2.7560   15.1860    0.9030 C   0  0  0  0  0  0  0  0  0  0  0  0
    3.1090   13.9400   -1.2460 C   0  0  0  0  0  0  0  0  0  0  0  0
    2.5130   12.9920   -2.3040 C   0  0  0  0  0  0  0  0  0  0  0  0
    1.3190   12.2180   -1.7360 C   0  0  2  0  0  0  0  0  0  0  0  0
    1.8430   11.3280   -0.5570 C   0  0  0  0  0  0  0  0  0  0  0  0
    0.5229    8.9481   -1.3044 H   0  0  0  0  0  0  0  0  0  0  0  0
   -0.6143    8.8456   -2.6910 H   0  0  0  0  0  0  0  0  0  0  0  0
    0.8926    7.8678   -2.6910 H   0  0  0  0  0  0  0  0  0  0  0  0
    1.1090    9.8092   -4.1739 H   0  0  0  0  0  0  0  0  0  0  0  0
    2.8186   10.5807   -1.8120 H   0  0  0  0  0  0  0  0  0  0  0  0
    3.0023    8.9451   -2.6085 H   0  0  0  0  0  0  0  0  0  0  0  0
    3.6104    9.9068   -4.6781 H   0  0  0  0  0  0  0  0  0  0  0  0
    3.1392   11.5659   -4.1186 H   0  0  0  0  0  0  0  0  0  0  0  0
    4.7515   10.3309   -2.3861 H   0  0  0  0  0  0  0  0  0  0  0  0
    5.6003    9.5897   -5.8715 H   0  0  0  0  0  0  0  0  0  0  0  0
    5.4385   11.3537   -6.1691 H   0  0  0  0  0  0  0  0  0  0  0  0
    7.0635   10.5883   -6.1691 H   0  0  0  0  0  0  0  0  0  0  0  0
    7.4438   10.6067   -2.5336 H   0  0  0  0  0  0  0  0  0  0  0  0
    7.9097    9.6103   -3.9537 H   0  0  0  0  0  0  0  0  0  0  0  0
    8.2278   11.3782   -3.9537 H   0  0  0  0  0  0  0  0  0  0  0  0
    0.5130   11.7733   -3.7182 H   0  0  0  0  0  0  0  0  0  0  0  0
   -1.6398   11.2160   -2.7712 H   0  0  0  0  0  0  0  0  0  0  0  0
   -0.9129   10.1496   -1.5501 H   0  0  0  0  0  0  0  0  0  0  0  0
   -1.9239   12.7793   -1.0695 H   0  0  0  0  0  0  0  0  0  0  0  0
   -0.8816   11.9023    0.0477 H   0  0  0  0  0  0  0  0  0  0  0  0
   -0.8973   14.9707   -2.1211 H   0  0  0  0  0  0  0  0  0  0  0  0
    0.4943   14.4587   -3.1351 H   0  0  0  0  0  0  0  0  0  0  0  0
   -1.0204   13.4931   -3.1351 H   0  0  0  0  0  0  0  0  0  0  0  0
    0.9287   13.4072    0.6247 H   0  0  0  0  0  0  0  0  0  0  0  0
   -1.3007   14.6639    0.3205 H   0  0  0  0  0  0  0  0  0  0  0  0
   -0.0028   15.2883    1.4672 H   0  0  0  0  0  0  0  0  0  0  0  0
   -1.2233   17.0984   -0.0059 H   0  0  0  0  0  0  0  0  0  0  0  0
    1.8281   15.8469   -2.3359 H   0  0  0  0  0  0  0  0  0  0  0  0
    3.1849   17.5007   -0.1186 H   0  0  0  0  0  0  0  0  0  0  0  0
    4.0035   16.6406   -1.4979 H   0  0  0  0  0  0  0  0  0  0  0  0
    3.8280   19.0766   -1.8850 H   0  0  0  0  0  0  0  0  0  0  0  0
    2.9103   18.0997   -3.0974 H   0  0  0  0  0  0  0  0  0  0  0  0
    1.5706   19.9843   -2.4531 H   0  0  0  0  0  0  0  0  0  0  0  0
    2.5960   20.2890   -0.3720 H   0  0  0  0  0  0  0  0  0  0  0  0
   -0.6301   17.1574   -3.3312 H   0  0  0  0  0  0  0  0  0  0  0  0
   -0.3035   18.8655   -3.7809 H   0  0  0  0  0  0  0  0  0  0  0  0
    1.0331   17.6654   -3.7809 H   0  0  0  0  0  0  0  0  0  0  0  0
   -0.8030   19.1664   -0.1951 H   0  0  0  0  0  0  0  0  0  0  0  0
   -0.6926   20.1903   -1.6668 H   0  0  0  0  0  0  0  0  0  0  0  0
   -1.7343   18.7268   -1.6668 H   0  0  0  0  0  0  0  0  0  0  0  0
    2.0842   14.8629    1.7119 H   0  0  0  0  0  0  0  0  0  0  0  0
    3.7129   14.6496    0.9848 H   0  0  0  0  0  0  0  0  0  0  0  0
    2.9343   16.2684    0.9848 H   0  0  0  0  0  0  0  0  0  0  0  0
    3.8379   14.5888   -1.7536 H   0  0  0  0  0  0  0  0  0  0  0  0
    3.5361   13.2801   -0.4766 H   0  0  0  0  0  0  0  0  0  0  0  0
    2.1798   13.5830   -3.1699 H   0  0  0  0  0  0  0  0  0  0  0  0
    3.2873   12.2710   -2.6051 H   0  0  0  0  0  0  0  0  0  0  0  0
    1.5698   11.7920    0.4022 H   0  0  0  0  0  0  0  0  0  0  0  0
    1.3895   10.3280   -0.6229 H   0  0  0  0  0  0  0  0  0  0  0  0
    2.9374   11.2394   -0.6229 H   0  0  0  0  0  0  0  0  0  0  0  0
  1  2  1  0
  2  3  1  0
  3  4  1  0
  4  5  1  0
  5  6  1  0
  6  7  1  0
  7  8  1  0
  7  9  1  0
  2 10  1  0
 10 11  1  0
 11 12  1  0
 12 13  1  0
 13 14  1  6
 13 15  1  0
 15 16  1  0
 16 17  1  0
 17 18  2  0
 18 19  1  0
 19 20  1  0
 20 21  1  0
 21 22  1  0
 22 23  1  0
 22 24  1  0
 24 25  1  0
 24 26  1  0
 19 27  1  0
 27 28  1  1
 27 29  1  0
 29 30  1  0
 30 31  1  0
 31 32  1  1
  7  5  1  0
 31 10  1  0
 31 13  1  0
 27 15  1  0
 24 18  1  0
  1 33  1  0
  1 34  1  0
  1 35  1  0
  2 36  1  6
  3 37  1  0
  3 38  1  0
  4 39  1  0
  4 40  1  0
  5 41  1  1
  8 42  1  0
  8 43  1  0
  8 44  1  0
  9 45  1  0
  9 46  1  0
  9 47  1  0
 10 48  1  6
 11 49  1  0
 11 50  1  0
 12 51  1  0
 12 52  1  0
 14 53  1  0
 14 54  1  0
 14 55  1  0
 15 56  1  1
 16 57  1  0
 16 58  1  0
 17 59  1  0
 19 60  1  6
 20 61  1  0
 20 62  1  0
 21 63  1  0
 21 64  1  0
 22 65  1  6
 23 66  1  0
 25 67  1  0
 25 68  1  0
 25 69  1  0
 26 70  1  0
 26 71  1  0
 26 72  1  0
 28 73  1  0
 28 74  1  0
 28 75  1  0
 29 76  1  0
 29 77  1  0
 30 78  1  0
 30 79  1  0
 32 80  1  0
 32 81  1  0
 32 82  1  0
M  END
>  <meeko>  (16) 
{"is_sidechain": [false], "intermolecular_energy": 2.731, "internal_energy": -0.839}

$$$$
EPH_relaxed_0001_pdb2pqr_Repair_404_r2_0001_out
     RDKit          3D

 82 86  0  0  0  0  0  0  0  0999 V2000
    4.5560    9.2340    1.4320 C   0  0  0  0  0  0  0  0  0  0  0  0
    3.0450    9.0320    1.5750 C   0  0  2  0  0  0  0  0  0  0  0  0
    2.6730    7.5480    1.7620 C   0  0  0  0  0  0  0  0  0  0  0  0
    2.3850    7.1640    3.2160 C   0  0  0  0  0  0  0  0  0  0  0  0
    3.6490    6.9310    3.9880 C   0  0  2  0  0  0  0  0  0  0  0  0
    3.4750    6.8400    5.4080 O   0  0  0  0  0  0  0  0  0  0  0  0
    4.2520    7.9520    4.9340 C   0  0  0  0  0  0  0  0  0  0  0  0
    3.6070    9.2840    5.1580 C   0  0  0  0  0  0  0  0  0  0  0  0
    5.7090    7.8520    5.2600 C   0  0  0  0  0  0  0  0  0  0  0  0
    2.3270    9.6000    0.3560 C   0  0  1  0  0  0  0  0  0  0  0  0
    1.1870    8.6770   -0.1490 C   0  0  0  0  0  0  0  0  0  0  0  0
    0.0620    9.6040   -0.6780 C   0  0  0  0  0  0  0  0  0  0  0  0
    0.7180   11.0010   -0.7680 C   0  0  1  0  0  0  0  0  0  0  0  0
    1.5110   10.9870   -2.1120 C   0  0  0  0  0  0  0  0  0  0  0  0
   -0.2500   12.2260   -0.6820 C   0  0  2  0  0  0  0  0  0  0  0  0
   -1.2850   12.3210   -1.8160 C   0  0  0  0  0  0  0  0  0  0  0  0
   -0.8510   13.1040   -3.0110 C   0  0  0  0  0  0  0  0  0  0  0  0
    0.2000   13.9430   -3.0570 C   0  0  0  0  0  0  0  0  0  0  0  0
    1.0220   14.2460   -1.7970 C   0  0  1  0  0  0  0  0  0  0  0  0
    1.2540   15.7760   -1.6870 C   0  0  0  0  0  0  0  0  0  0  0  0
    1.8790   16.3650   -2.9470 C   0  0  0  0  0  0  0  0  0  0  0  0
    1.0050   16.0930   -4.1680 C   0  0  2  0  0  0  0  0  0  0  0  0
   -0.2190   16.8210   -4.0300 O   0  0  0  0  0  0  0  0  0  0  0  0
    0.6960   14.5850   -4.3770 C   0  0  0  0  0  0  0  0  0  0  0  0
    1.9810   13.8460   -4.8240 C   0  0  0  0  0  0  0  0  0  0  0  0
   -0.3080   14.4610   -5.5550 C   0  0  0  0  0  0  0  0  0  0  0  0
    0.4770   13.6120   -0.4460 C   0  0  1  0  0  0  0  0  0  0  0  0
   -0.5760   14.5620    0.2020 C   0  0  0  0  0  0  0  0  0  0  0  0
    1.6640   13.4970    0.5830 C   0  0  0  0  0  0  0  0  0  0  0  0
    2.5100   12.2110    0.5270 C   0  0  0  0  0  0  0  0  0  0  0  0
    1.6160   10.9670    0.5220 C   0  0  2  0  0  0  0  0  0  0  0  0
    0.8230   10.9420    1.8730 C   0  0  0  0  0  0  0  0  0  0  0  0
    5.0138    9.2952    2.4303 H   0  0  0  0  0  0  0  0  0  0  0  0
    4.9889    8.3857    0.8815 H   0  0  0  0  0  0  0  0  0  0  0  0
    4.7508   10.1662    0.8815 H   0  0  0  0  0  0  0  0  0  0  0  0
    2.7233    9.5691    2.4794 H   0  0  0  0  0  0  0  0  0  0  0  0
    1.7751    7.3369    1.1627 H   0  0  0  0  0  0  0  0  0  0  0  0
    3.5419    6.9557    1.4392 H   0  0  0  0  0  0  0  0  0  0  0  0
    1.8197    7.9774    3.6944 H   0  0  0  0  0  0  0  0  0  0  0  0
    1.8056    6.2289    3.2158 H   0  0  0  0  0  0  0  0  0  0  0  0
    4.0778    6.3524    3.1565 H   0  0  0  0  0  0  0  0  0  0  0  0
    3.5166    9.4706    6.2383 H   0  0  0  0  0  0  0  0  0  0  0  0
    4.2235   10.0716    4.7002 H   0  0  0  0  0  0  0  0  0  0  0  0
    2.6068    9.2887    4.7002 H   0  0  0  0  0  0  0  0  0  0  0  0
    5.8406    7.8430    6.3521 H   0  0  0  0  0  0  0  0  0  0  0  0
    6.1172    6.9237    4.8338 H   0  0  0  0  0  0  0  0  0  0  0  0
    6.2402    8.7158    4.8338 H   0  0  0  0  0  0  0  0  0  0  0  0
    3.1806    9.7010   -0.3305 H   0  0  0  0  0  0  0  0  0  0  0  0
    1.5549    8.0284   -0.9576 H   0  0  0  0  0  0  0  0  0  0  0  0
    0.8171    8.0282    0.6586 H   0  0  0  0  0  0  0  0  0  0  0  0
   -0.2813    9.2716   -1.6688 H   0  0  0  0  0  0  0  0  0  0  0  0
   -0.8233    9.6001   -0.0251 H   0  0  0  0  0  0  0  0  0  0  0  0
    2.5903   10.9679   -1.9007 H   0  0  0  0  0  0  0  0  0  0  0  0
    1.2350   10.0936   -2.6913 H   0  0  0  0  0  0  0  0  0  0  0  0
    1.2667   11.8896   -2.6913 H   0  0  0  0  0  0  0  0  0  0  0  0
   -0.8251   12.0076    0.2299 H   0  0  0  0  0  0  0  0  0  0  0  0
   -1.5217   11.2990   -2.1468 H   0  0  0  0  0  0  0  0  0  0  0  0
   -2.1479   12.8589   -1.3964 H   0  0  0  0  0  0  0  0  0  0  0  0
   -1.4405   12.9848   -3.9320 H   0  0  0  0  0  0  0  0  0  0  0  0
    1.9851   13.7312   -1.9294 H   0  0  0  0  0  0  0  0  0  0  0  0
    0.2859   16.2676   -1.5107 H   0  0  0  0  0  0  0  0  0  0  0  0
    1.9532   15.9486   -0.8556 H   0  0  0  0  0  0  0  0  0  0  0  0
    1.9907   17.4518   -2.8192 H   0  0  0  0  0  0  0  0  0  0  0  0
    2.8601   15.8934   -3.1055 H   0  0  0  0  0  0  0  0  0  0  0  0
    1.5656   16.4232   -5.0550 H   0  0  0  0  0  0  0  0  0  0  0  0
   -0.0040   17.7690   -4.0690 H   0  0  0  0  0  0  0  0  0  0  0  0
    2.5449   13.5217   -3.9369 H   0  0  0  0  0  0  0  0  0  0  0  0
    1.7078   12.9670   -5.4263 H   0  0  0  0  0  0  0  0  0  0  0  0
    2.6033   14.5242   -5.4263 H   0  0  0  0  0  0  0  0  0  0  0  0
   -1.3259   14.3353   -5.1575 H   0  0  0  0  0  0  0  0  0  0  0  0
   -0.2647   15.3713   -6.1710 H   0  0  0  0  0  0  0  0  0  0  0  0
   -0.0446   13.5886   -6.1710 H   0  0  0  0  0  0  0  0  0  0  0  0
   -0.5036   14.4967    1.2977 H   0  0  0  0  0  0  0  0  0  0  0  0
   -0.3820   15.5966   -0.1173 H   0  0  0  0  0  0  0  0  0  0  0  0
   -1.5853   14.2629   -0.1173 H   0  0  0  0  0  0  0  0  0  0  0  0
    2.3394   14.3474    0.4082 H   0  0  0  0  0  0  0  0  0  0  0  0
    1.1858   13.4838    1.5735 H   0  0  0  0  0  0  0  0  0  0  0  0
    3.1189   12.2203   -0.3890 H   0  0  0  0  0  0  0  0  0  0  0  0
    3.1550   12.1761    1.4174 H   0  0  0  0  0  0  0  0  0  0  0  0
    1.5313   10.9643    2.7144 H   0  0  0  0  0  0  0  0  0  0  0  0
    0.1622   11.8198    1.9266 H   0  0  0  0  0  0  0  0  0  0  0  0
    0.2188   10.0244    1.9266 H   0  0  0  0  0  0  0  0  0  0  0  0
  1  2  1  0
  2  3  1  0
  3  4  1  0
  4  5  1  0
  5  6  1  0
  6  7  1  0
  7  8  1  0
  7  9  1  0
  2 10  1  0
 10 11  1  0
 11 12  1  0
 12 13  1  0
 13 14  1  6
 13 15  1  0
 15 16  1  0
 16 17  1  0
 17 18  2  0
 18 19  1  0
 19 20  1  0
 20 21  1  0
 21 22  1  0
 22 23  1  0
 22 24  1  0
 24 25  1  0
 24 26  1  0
 19 27  1  0
 27 28  1  1
 27 29  1  0
 29 30  1  0
 30 31  1  0
 31 32  1  1
  7  5  1  0
 31 10  1  0
 31 13  1  0
 27 15  1  0
 24 18  1  0
  1 33  1  0
  1 34  1  0
  1 35  1  0
  2 36  1  1
  3 37  1  0
  3 38  1  0
  4 39  1  0
  4 40  1  0
  5 41  1  6
  8 42  1  0
  8 43  1  0
  8 44  1  0
  9 45  1  0
  9 46  1  0
  9 47  1  0
 10 48  1  6
 11 49  1  0
 11 50  1  0
 12 51  1  0
 12 52  1  0
 14 53  1  0
 14 54  1  0
 14 55  1  0
 15 56  1  1
 16 57  1  0
 16 58  1  0
 17 59  1  0
 19 60  1  6
 20 61  1  0
 20 62  1  0
 21 63  1  0
 21 64  1  0
 22 65  1  6
 23 66  1  0
 25 67  1  0
 25 68  1  0
 25 69  1  0
 26 70  1  0
 26 71  1  0
 26 72  1  0
 28 73  1  0
 28 74  1  0
 28 75  1  0
 29 76  1  0
 29 77  1  0
 30 78  1  0
 30 79  1  0
 32 80  1  0
 32 81  1  0
 32 82  1  0
M  END
>  <meeko>  (17) 
{"is_sidechain": [false], "intermolecular_energy": 2.731, "internal_energy": -0.839}

$$$$
EPH_relaxed_0001_pdb2pqr_Repair_404_r2_0001_out
     RDKit          3D

 82 86  0  0  0  0  0  0  0  0999 V2000
    3.0690   18.8040   -1.1110 C   0  0  0  0  0  0  0  0  0  0  0  0
    2.7680   17.7200   -2.1500 C   0  0  2  0  0  0  0  0  0  0  0  0
    1.3850   17.9100   -2.8040 C   0  0  0  0  0  0  0  0  0  0  0  0
    0.7030   19.2290   -2.4310 C   0  0  0  0  0  0  0  0  0  0  0  0
   -0.6490   19.0020   -1.8260 C   0  0  2  0  0  0  0  0  0  0  0  0
   -1.4160   20.1940   -1.6110 O   0  0  0  0  0  0  0  0  0  0  0  0
   -1.0320   19.4660   -0.4330 C   0  0  0  0  0  0  0  0  0  0  0  0
   -0.0590   20.1940    0.4410 C   0  0  0  0  0  0  0  0  0  0  0  0
   -2.1740   18.7900    0.2580 C   0  0  0  0  0  0  0  0  0  0  0  0
    2.8540   16.3420   -1.5030 C   0  0  1  0  0  0  0  0  0  0  0  0
    3.4670   16.3890   -0.0780 C   0  0  0  0  0  0  0  0  0  0  0  0
    2.7450   15.2990    0.7550 C   0  0  0  0  0  0  0  0  0  0  0  0
    1.9870   14.4480   -0.2900 C   0  0  1  0  0  0  0  0  0  0  0  0
    3.0600   13.4730   -0.8670 C   0  0  0  0  0  0  0  0  0  0  0  0
    0.7270   13.6790    0.2280 C   0  0  2  0  0  0  0  0  0  0  0  0
    1.0070   12.6230    1.3120 C   0  0  0  0  0  0  0  0  0  0  0  0
    1.2910   11.2480    0.8040 C   0  0  0  0  0  0  0  0  0  0  0  0
    1.0420   10.8080   -0.4440 C   0  0  0  0  0  0  0  0  0  0  0  0
    0.3280   11.7010   -1.4660 C   0  0  1  0  0  0  0  0  0  0  0  0
   -0.7840   10.8860   -2.1770 C   0  0  0  0  0  0  0  0  0  0  0  0
   -0.2580    9.5950   -2.7980 C   0  0  0  0  0  0  0  0  0  0  0  0
    0.3940    8.7090   -1.7400 C   0  0  2  0  0  0  0  0  0  0  0  0
   -0.6150    8.2570   -0.8320 O   0  0  0  0  0  0  0  0  0  0  0  0
    1.5240    9.4260   -0.9500 C   0  0  0  0  0  0  0  0  0  0  0  0
    2.7470    9.6470   -1.8750 C   0  0  0  0  0  0  0  0  0  0  0  0
    2.0000    8.4710    0.1770 C   0  0  0  0  0  0  0  0  0  0  0  0
   -0.1950   13.0990   -0.9200 C   0  0  1  0  0  0  0  0  0  0  0  0
   -1.6180   12.9320   -0.3050 C   0  0  0  0  0  0  0  0  0  0  0  0
   -0.3480   14.0980   -2.1270 C   0  0  0  0  0  0  0  0  0  0  0  0
    0.8990   14.9160   -2.5140 C   0  0  0  0  0  0  0  0  0  0  0  0
    1.5260   15.5770   -1.2820 C   0  0  2  0  0  0  0  0  0  0  0  0
    0.4770   16.5800   -0.6920 C   0  0  0  0  0  0  0  0  0  0  0  0
    2.9528   18.3856   -0.1004 H   0  0  0  0  0  0  0  0  0  0  0  0
    4.1006   19.1622   -1.2432 H   0  0  0  0  0  0  0  0  0  0  0  0
    2.3698   19.6428   -1.2432 H   0  0  0  0  0  0  0  0  0  0  0  0
    3.5231   17.8052   -2.9454 H   0  0  0  0  0  0  0  0  0  0  0  0
    1.5106   17.8810   -3.8964 H   0  0  0  0  0  0  0  0  0  0  0  0
    0.7405   17.0992   -2.4336 H   0  0  0  0  0  0  0  0  0  0  0  0
    1.3333   19.7634   -1.7050 H   0  0  0  0  0  0  0  0  0  0  0  0
    0.5728   19.8196   -3.3498 H   0  0  0  0  0  0  0  0  0  0  0  0
   -0.7359   18.0273   -2.3284 H   0  0  0  0  0  0  0  0  0  0  0  0
   -0.3055   20.0096    1.4970 H   0  0  0  0  0  0  0  0  0  0  0  0
    0.9598   19.8346    0.2341 H   0  0  0  0  0  0  0  0  0  0  0  0
   -0.1163   21.2729    0.2341 H   0  0  0  0  0  0  0  0  0  0  0  0
   -2.0417   18.8683    1.3472 H   0  0  0  0  0  0  0  0  0  0  0  0
   -3.1175   19.2752   -0.0326 H   0  0  0  0  0  0  0  0  0  0  0  0
   -2.2024   17.7295   -0.0326 H   0  0  0  0  0  0  0  0  0  0  0  0
    3.4668   15.8226   -2.2545 H   0  0  0  0  0  0  0  0  0  0  0  0
    4.5459   16.1792   -0.1225 H   0  0  0  0  0  0  0  0  0  0  0  0
    3.3378   17.3830    0.3752 H   0  0  0  0  0  0  0  0  0  0  0  0
    3.4732   14.6831    1.3030 H   0  0  0  0  0  0  0  0  0  0  0  0
    2.0713   15.7293    1.5106 H   0  0  0  0  0  0  0  0  0  0  0  0
    3.5960   12.9860   -0.0390 H   0  0  0  0  0  0  0  0  0  0  0  0
    2.5662   12.7081   -1.4844 H   0  0  0  0  0  0  0  0  0  0  0  0
    3.7742   14.0376   -1.4844 H   0  0  0  0  0  0  0  0  0  0  0  0
    0.1535   14.4740    0.7270 H   0  0  0  0  0  0  0  0  0  0  0  0
    1.8781   12.9568    1.8948 H   0  0  0  0  0  0  0  0  0  0  0  0
    0.0843   12.5438    1.9055 H   0  0  0  0  0  0  0  0  0  0  0  0
    1.7418   10.5340    1.5090 H   0  0  0  0  0  0  0  0  0  0  0  0
    1.0948   12.0024   -2.1948 H   0  0  0  0  0  0  0  0  0  0  0  0
   -1.5605   10.6320   -1.4404 H   0  0  0  0  0  0  0  0  0  0  0  0
   -1.1852   11.5082   -2.9905 H   0  0  0  0  0  0  0  0  0  0  0  0
   -1.0949    9.0497   -3.2587 H   0  0  0  0  0  0  0  0  0  0  0  0
    0.4967    9.8513   -3.5561 H   0  0  0  0  0  0  0  0  0  0  0  0
    0.8656    7.8643   -2.2634 H   0  0  0  0  0  0  0  0  0  0  0  0
   -1.1660    7.6090   -1.3030 H   0  0  0  0  0  0  0  0  0  0  0  0
    3.6458    9.8094   -1.2620 H   0  0  0  0  0  0  0  0  0  0  0  0
    2.8915    8.7604   -2.5099 H   0  0  0  0  0  0  0  0  0  0  0  0
    2.5721   10.5281   -2.5099 H   0  0  0  0  0  0  0  0  0  0  0  0
    1.7765    8.9194    1.1563 H   0  0  0  0  0  0  0  0  0  0  0  0
    1.4766    7.5077    0.0867 H   0  0  0  0  0  0  0  0  0  0  0  0
    3.0843    8.3090    0.0867 H   0  0  0  0  0  0  0  0  0  0  0  0
   -1.5464   12.9404    0.7926 H   0  0  0  0  0  0  0  0  0  0  0  0
   -2.2605   13.7609   -0.6369 H   0  0  0  0  0  0  0  0  0  0  0  0
   -2.0511   11.9769   -0.6369 H   0  0  0  0  0  0  0  0  0  0  0  0
   -0.6482   13.5119   -3.0081 H   0  0  0  0  0  0  0  0  0  0  0  0
   -1.0876   14.8409   -1.7938 H   0  0  0  0  0  0  0  0  0  0  0  0
    1.6382   14.2469   -2.9786 H   0  0  0  0  0  0  0  0  0  0  0  0
    0.5962   15.7044   -3.2188 H   0  0  0  0  0  0  0  0  0  0  0  0
    0.5138   16.5448    0.4068 H   0  0  0  0  0  0  0  0  0  0  0  0
    0.7110   17.5989   -1.0343 H   0  0  0  0  0  0  0  0  0  0  0  0
   -0.5303   16.3005   -1.0343 H   0  0  0  0  0  0  0  0  0  0  0  0
  1  2  1  0
  2  3  1  0
  3  4  1  0
  4  5  1  0
  5  6  1  0
  6  7  1  0
  7  8  1  0
  7  9  1  0
  2 10  1  0
 10 11  1  0
 11 12  1  0
 12 13  1  0
 13 14  1  6
 13 15  1  0
 15 16  1  0
 16 17  1  0
 17 18  2  0
 18 19  1  0
 19 20  1  0
 20 21  1  0
 21 22  1  0
 22 23  1  0
 22 24  1  0
 24 25  1  0
 24 26  1  0
 19 27  1  0
 27 28  1  1
 27 29  1  0
 29 30  1  0
 30 31  1  0
 31 32  1  1
  7  5  1  0
 31 10  1  0
 31 13  1  0
 27 15  1  0
 24 18  1  0
  1 33  1  0
  1 34  1  0
  1 35  1  0
  2 36  1  6
  3 37  1  0
  3 38  1  0
  4 39  1  0
  4 40  1  0
  5 41  1  6
  8 42  1  0
  8 43  1  0
  8 44  1  0
  9 45  1  0
  9 46  1  0
  9 47  1  0
 10 48  1  6
 11 49  1  0
 11 50  1  0
 12 51  1  0
 12 52  1  0
 14 53  1  0
 14 54  1  0
 14 55  1  0
 15 56  1  1
 16 57  1  0
 16 58  1  0
 17 59  1  0
 19 60  1  6
 20 61  1  0
 20 62  1  0
 21 63  1  0
 21 64  1  0
 22 65  1  6
 23 66  1  0
 25 67  1  0
 25 68  1  0
 25 69  1  0
 26 70  1  0
 26 71  1  0
 26 72  1  0
 28 73  1  0
 28 74  1  0
 28 75  1  0
 29 76  1  0
 29 77  1  0
 30 78  1  0
 30 79  1  0
 32 80  1  0
 32 81  1  0
 32 82  1  0
M  END
>  <meeko>  (18) 
{"is_sidechain": [false], "intermolecular_energy": 2.731, "internal_energy": -0.839}

$$$$
EPH_relaxed_0001_pdb2pqr_Repair_404_r2_0001_out
     RDKit          3D

 82 86  0  0  0  0  0  0  0  0999 V2000
   -4.2400    8.6110   -1.1360 C   0  0  0  0  0  0  0  0  0  0  0  0
   -3.1330    8.4080   -2.1730 C   0  0  2  0  0  0  0  0  0  0  0  0
   -3.3330    7.1160   -2.9910 C   0  0  0  0  0  0  0  0  0  0  0  0
   -4.4680    6.2300   -2.4730 C   0  0  0  0  0  0  0  0  0  0  0  0
   -5.7120    6.3850   -3.2960 C   0  0  2  0  0  0  0  0  0  0  0  0
   -6.3840    7.6410   -3.1320 O   0  0  0  0  0  0  0  0  0  0  0  0
   -7.1040    6.4750   -2.6990 C   0  0  0  0  0  0  0  0  0  0  0  0
   -7.3240    6.4110   -1.2200 C   0  0  0  0  0  0  0  0  0  0  0  0
   -8.2770    6.1340   -3.5640 C   0  0  0  0  0  0  0  0  0  0  0  0
   -1.7730    8.3830   -1.4840 C   0  0  1  0  0  0  0  0  0  0  0  0
   -0.6560    7.7970   -2.3880 C   0  0  0  0  0  0  0  0  0  0  0  0
    0.6440    8.5740   -2.0530 C   0  0  0  0  0  0  0  0  0  0  0  0
    0.3150    9.3400   -0.7510 C   0  0  1  0  0  0  0  0  0  0  0  0
    0.4990    8.2900    0.3900 C   0  0  0  0  0  0  0  0  0  0  0  0
    1.1480   10.6360   -0.4820 C   0  0  2  0  0  0  0  0  0  0  0  0
    2.6620   10.4150   -0.3130 C   0  0  0  0  0  0  0  0  0  0  0  0
    3.1170   10.1690    1.0880 C   0  0  0  0  0  0  0  0  0  0  0  0
    2.3950   10.4070    2.1980 C   0  0  0  0  0  0  0  0  0  0  0  0
    1.0140   11.0700    2.1120 C   0  0  1  0  0  0  0  0  0  0  0  0
    0.9130   12.1950    3.1760 C   0  0  0  0  0  0  0  0  0  0  0  0
    1.2370   11.7020    4.5820 C   0  0  0  0  0  0  0  0  0  0  0  0
    2.6400   11.1020    4.6410 C   0  0  2  0  0  0  0  0  0  0  0  0
    3.5950   12.1450    4.4230 O   0  0  0  0  0  0  0  0  0  0  0  0
    2.8630    9.9640    3.6060 C   0  0  0  0  0  0  0  0  0  0  0  0
    2.0440    8.7160    4.0200 C   0  0  0  0  0  0  0  0  0  0  0  0
    4.3560    9.5450    3.6730 C   0  0  0  0  0  0  0  0  0  0  0  0
    0.5660   11.5550    0.6670 C   0  0  1  0  0  0  0  0  0  0  0  0
    1.1000   12.9950    0.3990 C   0  0  0  0  0  0  0  0  0  0  0  0
   -1.0050   11.6480    0.6200 C   0  0  0  0  0  0  0  0  0  0  0  0
   -1.7660   10.3660    0.2320 C   0  0  0  0  0  0  0  0  0  0  0  0
   -1.1780    9.7420   -1.0370 C   0  0  2  0  0  0  0  0  0  0  0  0
   -1.3680   10.7660   -2.2070 C   0  0  0  0  0  0  0  0  0  0  0  0
   -3.8140    8.5329   -0.1248 H   0  0  0  0  0  0  0  0  0  0  0  0
   -4.6888    9.6064   -1.2689 H   0  0  0  0  0  0  0  0  0  0  0  0
   -5.0128    7.8396   -1.2689 H   0  0  0  0  0  0  0  0  0  0  0  0
   -3.1786    9.2536   -2.8751 H   0  0  0  0  0  0  0  0  0  0  0  0
   -3.5570    7.3947   -4.0313 H   0  0  0  0  0  0  0  0  0  0  0  0
   -2.4043    6.5330   -2.9036 H   0  0  0  0  0  0  0  0  0  0  0  0
   -4.1450    5.1791   -2.5095 H   0  0  0  0  0  0  0  0  0  0  0  0
   -4.6986    6.5358   -1.4418 H   0  0  0  0  0  0  0  0  0  0  0  0
   -5.2914    5.7563   -4.0946 H   0  0  0  0  0  0  0  0  0  0  0  0
   -6.3938    6.6816   -0.6989 H   0  0  0  0  0  0  0  0  0  0  0  0
   -8.1208    7.1146   -0.9370 H   0  0  0  0  0  0  0  0  0  0  0  0
   -7.6191    5.3898   -0.9370 H   0  0  0  0  0  0  0  0  0  0  0  0
   -9.1398    5.8832   -2.9295 H   0  0  0  0  0  0  0  0  0  0  0  0
   -8.5273    6.9966   -4.1991 H   0  0  0  0  0  0  0  0  0  0  0  0
   -8.0259    5.2717   -4.1991 H   0  0  0  0  0  0  0  0  0  0  0  0
   -2.0232    7.7737   -0.6030 H   0  0  0  0  0  0  0  0  0  0  0  0
   -0.5218    6.7256   -2.1780 H   0  0  0  0  0  0  0  0  0  0  0  0
   -0.9145    7.8997   -3.4522 H   0  0  0  0  0  0  0  0  0  0  0  0
    1.4818    7.8792   -1.8938 H   0  0  0  0  0  0  0  0  0  0  0  0
    0.9497    9.2472   -2.8675 H   0  0  0  0  0  0  0  0  0  0  0  0
    0.4114    8.7899    1.3659 H   0  0  0  0  0  0  0  0  0  0  0  0
   -0.2771    7.5152    0.3039 H   0  0  0  0  0  0  0  0  0  0  0  0
    1.4923    7.8252    0.3039 H   0  0  0  0  0  0  0  0  0  0  0  0
    1.0301   11.1914   -1.4241 H   0  0  0  0  0  0  0  0  0  0  0  0
    2.9487    9.5447   -0.9215 H   0  0  0  0  0  0  0  0  0  0  0  0
    3.1441   11.3515   -0.6301 H   0  0  0  0  0  0  0  0  0  0  0  0
    4.1284    9.7583    1.2239 H   0  0  0  0  0  0  0  0  0  0  0  0
    0.2826   10.2789    2.3340 H   0  0  0  0  0  0  0  0  0  0  0  0
    1.6201   12.9950    2.9113 H   0  0  0  0  0  0  0  0  0  0  0  0
   -0.1256   12.5573    3.1807 H   0  0  0  0  0  0  0  0  0  0  0  0
    1.1777   12.5480    5.2826 H   0  0  0  0  0  0  0  0  0  0  0  0
    0.5105   10.9230    4.8566 H   0  0  0  0  0  0  0  0  0  0  0  0
    2.7652   10.6496    5.6358 H   0  0  0  0  0  0  0  0  0  0  0  0
    4.1180   12.2400    5.2370 H   0  0  0  0  0  0  0  0  0  0  0  0
    2.0022    8.6523    5.1174 H   0  0  0  0  0  0  0  0  0  0  0  0
    1.0232    8.7975    3.6183 H   0  0  0  0  0  0  0  0  0  0  0  0
    2.5250    7.8120    3.6183 H   0  0  0  0  0  0  0  0  0  0  0  0
    4.6656    9.4581    4.7250 H   0  0  0  0  0  0  0  0  0  0  0  0
    4.4876    8.5752    3.1708 H   0  0  0  0  0  0  0  0  0  0  0  0
    4.9729   10.3047    3.1708 H   0  0  0  0  0  0  0  0  0  0  0  0
    1.2876   13.5008    1.3576 H   0  0  0  0  0  0  0  0  0  0  0  0
    2.0367   12.9378   -0.1749 H   0  0  0  0  0  0  0  0  0  0  0  0
    0.3525   13.5624   -0.1749 H   0  0  0  0  0  0  0  0  0  0  0  0
   -1.3504   11.9502    1.6197 H   0  0  0  0  0  0  0  0  0  0  0  0
   -1.2266   12.3677   -0.1818 H   0  0  0  0  0  0  0  0  0  0  0  0
   -1.6935    9.6412    1.0562 H   0  0  0  0  0  0  0  0  0  0  0  0
   -2.8172   10.6268    0.0398 H   0  0  0  0  0  0  0  0  0  0  0  0
   -1.5538   11.7673   -1.7913 H   0  0  0  0  0  0  0  0  0  0  0  0
   -0.4587   10.7887   -2.8257 H   0  0  0  0  0  0  0  0  0  0  0  0
   -2.2249   10.4610   -2.8257 H   0  0  0  0  0  0  0  0  0  0  0  0
  1  2  1  0
  2  3  1  0
  3  4  1  0
  4  5  1  0
  5  6  1  0
  6  7  1  0
  7  8  1  0
  7  9  1  0
  2 10  1  0
 10 11  1  0
 11 12  1  0
 12 13  1  0
 13 14  1  1
 13 15  1  0
 15 16  1  0
 16 17  1  0
 17 18  2  0
 18 19  1  0
 19 20  1  0
 20 21  1  0
 21 22  1  0
 22 23  1  0
 22 24  1  0
 24 25  1  0
 24 26  1  0
 19 27  1  0
 27 28  1  6
 27 29  1  0
 29 30  1  0
 30 31  1  0
 31 32  1  6
  7  5  1  0
 31 10  1  0
 31 13  1  0
 27 15  1  0
 24 18  1  0
  1 33  1  0
  1 34  1  0
  1 35  1  0
  2 36  1  6
  3 37  1  0
  3 38  1  0
  4 39  1  0
  4 40  1  0
  5 41  1  6
  8 42  1  0
  8 43  1  0
  8 44  1  0
  9 45  1  0
  9 46  1  0
  9 47  1  0
 10 48  1  1
 11 49  1  0
 11 50  1  0
 12 51  1  0
 12 52  1  0
 14 53  1  0
 14 54  1  0
 14 55  1  0
 15 56  1  6
 16 57  1  0
 16 58  1  0
 17 59  1  0
 19 60  1  1
 20 61  1  0
 20 62  1  0
 21 63  1  0
 21 64  1  0
 22 65  1  1
 23 66  1  0
 25 67  1  0
 25 68  1  0
 25 69  1  0
 26 70  1  0
 26 71  1  0
 26 72  1  0
 28 73  1  0
 28 74  1  0
 28 75  1  0
 29 76  1  0
 29 77  1  0
 30 78  1  0
 30 79  1  0
 32 80  1  0
 32 81  1  0
 32 82  1  0
M  END
>  <meeko>  (19) 
{"is_sidechain": [false], "intermolecular_energy": 2.731, "internal_energy": -0.839}

$$$$
EPH_relaxed_0001_pdb2pqr_Repair_404_r2_0001_out
     RDKit          3D

 82 86  0  0  0  0  0  0  0  0999 V2000
    2.3300   16.9790   -0.3390 C   0  0  0  0  0  0  0  0  0  0  0  0
    1.7380   17.1540   -1.7410 C   0  0  2  0  0  0  0  0  0  0  0  0
    0.7940   18.3700   -1.8250 C   0  0  0  0  0  0  0  0  0  0  0  0
    0.9630   19.3620   -0.6700 C   0  0  0  0  0  0  0  0  0  0  0  0
   -0.3030   20.1150   -0.3960 C   0  0  2  0  0  0  0  0  0  0  0  0
   -0.6640   20.1950    0.9890 O   0  0  0  0  0  0  0  0  0  0  0  0
   -1.5640   19.4640    0.1400 C   0  0  0  0  0  0  0  0  0  0  0  0
   -1.6210   17.9970    0.4330 C   0  0  0  0  0  0  0  0  0  0  0  0
   -2.8750   20.1510   -0.0830 C   0  0  0  0  0  0  0  0  0  0  0  0
    0.9960   15.8890   -2.1530 C   0  0  1  0  0  0  0  0  0  0  0  0
    0.4820   15.9470   -3.6160 C   0  0  0  0  0  0  0  0  0  0  0  0
    0.5850   14.5090   -4.1850 C   0  0  0  0  0  0  0  0  0  0  0  0
    0.8360   13.6170   -2.9460 C   0  0  1  0  0  0  0  0  0  0  0  0
   -0.5760   13.4020   -2.3150 C   0  0  0  0  0  0  0  0  0  0  0  0
    1.5640   12.2590   -3.2080 C   0  0  2  0  0  0  0  0  0  0  0  0
    0.8080   11.2780   -4.1210 C   0  0  0  0  0  0  0  0  0  0  0  0
   -0.1070   10.3300   -3.4190 C   0  0  0  0  0  0  0  0  0  0  0  0
   -0.1030   10.0730   -2.0970 C   0  0  0  0  0  0  0  0  0  0  0  0
    0.9550   10.6950   -1.1770 C   0  0  1  0  0  0  0  0  0  0  0  0
    1.5320    9.6030   -0.2390 C   0  0  0  0  0  0  0  0  0  0  0  0
    0.4450    8.8650    0.5370 C   0  0  0  0  0  0  0  0  0  0  0  0
   -0.5550    8.2110   -0.4130 C   0  0  2  0  0  0  0  0  0  0  0  0
    0.1090    7.1680   -1.1350 O   0  0  0  0  0  0  0  0  0  0  0  0
   -1.1950    9.2130   -1.4140 C   0  0  0  0  0  0  0  0  0  0  0  0
   -2.1570   10.1610   -0.6570 C   0  0  0  0  0  0  0  0  0  0  0  0
   -2.0740    8.4030   -2.4050 C   0  0  0  0  0  0  0  0  0  0  0  0
    2.0900   11.5420   -1.8990 C   0  0  1  0  0  0  0  0  0  0  0  0
    3.2530   10.6030   -2.3420 C   0  0  0  0  0  0  0  0  0  0  0  0
    2.7070   12.5580   -0.8670 C   0  0  0  0  0  0  0  0  0  0  0  0
    2.0130   13.9280   -0.7400 C   0  0  0  0  0  0  0  0  0  0  0  0
    1.7860   14.5570   -2.1180 C   0  0  2  0  0  0  0  0  0  0  0  0
    3.1900   14.8060   -2.7680 C   0  0  0  0  0  0  0  0  0  0  0  0
    1.5615   17.2062    0.4145 H   0  0  0  0  0  0  0  0  0  0  0  0
    2.6722   15.9413   -0.2124 H   0  0  0  0  0  0  0  0  0  0  0  0
    3.1814   17.6639   -0.2124 H   0  0  0  0  0  0  0  0  0  0  0  0
    2.5735   17.3367   -2.4327 H   0  0  0  0  0  0  0  0  0  0  0  0
    0.9923   18.8990   -2.7689 H   0  0  0  0  0  0  0  0  0  0  0  0
   -0.2342   17.9831   -1.7685 H   0  0  0  0  0  0  0  0  0  0  0  0
    1.2517   18.8086    0.2358 H   0  0  0  0  0  0  0  0  0  0  0  0
    1.7394   20.0882   -0.9527 H   0  0  0  0  0  0  0  0  0  0  0  0
   -0.1229   20.7774   -1.2555 H   0  0  0  0  0  0  0  0  0  0  0  0
   -1.6271   17.8405    1.5218 H   0  0  0  0  0  0  0  0  0  0  0  0
   -2.5364   17.5712   -0.0038 H   0  0  0  0  0  0  0  0  0  0  0  0
   -0.7414   17.5014   -0.0038 H   0  0  0  0  0  0  0  0  0  0  0  0
   -3.3330   20.3910    0.8879 H   0  0  0  0  0  0  0  0  0  0  0  0
   -2.7108   21.0790   -0.6504 H   0  0  0  0  0  0  0  0  0  0  0  0
   -3.5446   19.4879   -0.6504 H   0  0  0  0  0  0  0  0  0  0  0  0
    0.2088   15.8796   -1.3848 H   0  0  0  0  0  0  0  0  0  0  0  0
   -0.5635   16.2883   -3.6367 H   0  0  0  0  0  0  0  0  0  0  0  0
    1.0769   16.6518   -4.2154 H   0  0  0  0  0  0  0  0  0  0  0  0
   -0.3506   14.2220   -4.6872 H   0  0  0  0  0  0  0  0  0  0  0  0
    1.3825   14.4135   -4.9366 H   0  0  0  0  0  0  0  0  0  0  0  0
   -0.4932   13.4146   -1.2182 H   0  0  0  0  0  0  0  0  0  0  0  0
   -1.2499   14.2079   -2.6411 H   0  0  0  0  0  0  0  0  0  0  0  0
   -0.9795   12.4321   -2.6411 H   0  0  0  0  0  0  0  0  0  0  0  0
    2.4507   12.5738   -3.7778 H   0  0  0  0  0  0  0  0  0  0  0  0
    0.2081   11.8672   -4.8302 H   0  0  0  0  0  0  0  0  0  0  0  0
    1.5771   10.6574   -4.6040 H   0  0  0  0  0  0  0  0  0  0  0  0
   -0.8470    9.7963   -4.0335 H   0  0  0  0  0  0  0  0  0  0  0  0
    0.4308   11.4580   -0.5828 H   0  0  0  0  0  0  0  0  0  0  0  0
    2.0883    8.8741   -0.8466 H   0  0  0  0  0  0  0  0  0  0  0  0
    2.1847   10.1018    0.4926 H   0  0  0  0  0  0  0  0  0  0  0  0
    0.9119    8.0874    1.1593 H   0  0  0  0  0  0  0  0  0  0  0  0
   -0.0913    9.5906    1.1662 H   0  0  0  0  0  0  0  0  0  0  0  0
   -1.3770    7.8103    0.1984 H   0  0  0  0  0  0  0  0  0  0  0  0
   -0.5720    6.6510   -1.5970 H   0  0  0  0  0  0  0  0  0  0  0  0
   -2.0237   10.0296    0.4270 H   0  0  0  0  0  0  0  0  0  0  0  0
   -1.9350   11.2032   -0.9301 H   0  0  0  0  0  0  0  0  0  0  0  0
   -3.1958    9.9237   -0.9301 H   0  0  0  0  0  0  0  0  0  0  0  0
   -2.7683    7.7632   -1.8406 H   0  0  0  0  0  0  0  0  0  0  0  0
   -2.6468    9.0965   -3.0382 H   0  0  0  0  0  0  0  0  0  0  0  0
   -1.4296    7.7755   -3.0382 H   0  0  0  0  0  0  0  0  0  0  0  0
    3.7558   10.1970   -1.4518 H   0  0  0  0  0  0  0  0  0  0  0  0
    2.8477    9.7759   -2.9434 H   0  0  0  0  0  0  0  0  0  0  0  0
    3.9761   11.1735   -2.9434 H   0  0  0  0  0  0  0  0  0  0  0  0
    2.6846   12.0806    0.1238 H   0  0  0  0  0  0  0  0  0  0  0  0
    3.7142   12.7802   -1.2494 H   0  0  0  0  0  0  0  0  0  0  0  0
    1.0419   13.7946   -0.2409 H   0  0  0  0  0  0  0  0  0  0  0  0
    2.6596   14.5957   -0.1517 H   0  0  0  0  0  0  0  0  0  0  0  0
    3.9421   14.9394   -1.9764 H   0  0  0  0  0  0  0  0  0  0  0  0
    3.4636   13.9424   -3.3919 H   0  0  0  0  0  0  0  0  0  0  0  0
    3.1499   15.7110   -3.3919 H   0  0  0  0  0  0  0  0  0  0  0  0
  1  2  1  0
  2  3  1  0
  3  4  1  0
  4  5  1  0
  5  6  1  0
  6  7  1  0
  7  8  1  0
  7  9  1  0
  2 10  1  0
 10 11  1  0
 11 12  1  0
 12 13  1  0
 13 14  1  1
 13 15  1  0
 15 16  1  0
 16 17  1  0
 17 18  2  0
 18 19  1  0
 19 20  1  0
 20 21  1  0
 21 22  1  0
 22 23  1  0
 22 24  1  0
 24 25  1  0
 24 26  1  0
 19 27  1  0
 27 28  1  6
 27 29  1  0
 29 30  1  0
 30 31  1  0
 31 32  1  6
  7  5  1  0
 31 10  1  0
 31 13  1  0
 27 15  1  0
 24 18  1  0
  1 33  1  0
  1 34  1  0
  1 35  1  0
  2 36  1  6
  3 37  1  0
  3 38  1  0
  4 39  1  0
  4 40  1  0
  5 41  1  6
  8 42  1  0
  8 43  1  0
  8 44  1  0
  9 45  1  0
  9 46  1  0
  9 47  1  0
 10 48  1  1
 11 49  1  0
 11 50  1  0
 12 51  1  0
 12 52  1  0
 14 53  1  0
 14 54  1  0
 14 55  1  0
 15 56  1  6
 16 57  1  0
 16 58  1  0
 17 59  1  0
 19 60  1  1
 20 61  1  0
 20 62  1  0
 21 63  1  0
 21 64  1  0
 22 65  1  1
 23 66  1  0
 25 67  1  0
 25 68  1  0
 25 69  1  0
 26 70  1  0
 26 71  1  0
 26 72  1  0
 28 73  1  0
 28 74  1  0
 28 75  1  0
 29 76  1  0
 29 77  1  0
 30 78  1  0
 30 79  1  0
 32 80  1  0
 32 81  1  0
 32 82  1  0
M  END
>  <meeko>  (20) 
{"is_sidechain": [false], "intermolecular_energy": 2.731, "internal_energy": -0.839}

$$$$
