EPH_relaxed_0001_pdb2pqr_Repair_172_r2_0001_out
     RDKit          3D

 82 86  0  0  0  0  0  0  0  0999 V2000
   -1.6820    8.5760   -1.8730 C   0  0  0  0  0  0  0  0  0  0  0  0
   -2.0650    9.1030   -0.4870 C   0  0  2  0  0  0  0  0  0  0  0  0
   -3.5600    9.4730   -0.4000 C   0  0  0  0  0  0  0  0  0  0  0  0
   -4.4880    8.2620   -0.2760 C   0  0  0  0  0  0  0  0  0  0  0  0
   -5.1750    7.9540   -1.5720 C   0  0  2  0  0  0  0  0  0  0  0  0
   -6.3640    8.7170   -1.8140 O   0  0  0  0  0  0  0  0  0  0  0  0
   -6.5400    7.2990   -1.6600 C   0  0  0  0  0  0  0  0  0  0  0  0
   -7.3000    6.9100   -0.4310 C   0  0  0  0  0  0  0  0  0  0  0  0
   -6.9160    6.5970   -2.9270 C   0  0  0  0  0  0  0  0  0  0  0  0
   -1.2080   10.3120   -0.1350 C   0  0  1  0  0  0  0  0  0  0  0  0
   -0.1790   10.0090    0.9870 C   0  0  0  0  0  0  0  0  0  0  0  0
    1.0920   10.8370    0.6640 C   0  0  0  0  0  0  0  0  0  0  0  0
    0.6410   11.8320   -0.4300 C   0  0  1  0  0  0  0  0  0  0  0  0
   -0.0680   12.9870    0.3440 C   0  0  0  0  0  0  0  0  0  0  0  0
    1.7630   12.3750   -1.3750 C   0  0  2  0  0  0  0  0  0  0  0  0
    2.8640   13.1930   -0.6780 C   0  0  0  0  0  0  0  0  0  0  0  0
    2.6120   14.6620   -0.5960 C   0  0  0  0  0  0  0  0  0  0  0  0
    1.6910   15.3380   -1.3070 C   0  0  0  0  0  0  0  0  0  0  0  0
    0.8480   14.6330   -2.3780 C   0  0  1  0  0  0  0  0  0  0  0  0
    0.8240   15.4950   -3.6680 C   0  0  0  0  0  0  0  0  0  0  0  0
    0.3590   16.9240   -3.4080 C   0  0  0  0  0  0  0  0  0  0  0  0
    1.2560   17.6110   -2.3810 C   0  0  2  0  0  0  0  0  0  0  0  0
    2.5590   17.7810   -2.9470 O   0  0  0  0  0  0  0  0  0  0  0  0
    1.3650   16.8290   -1.0420 C   0  0  0  0  0  0  0  0  0  0  0  0
    0.0170   16.9050   -0.2830 C   0  0  0  0  0  0  0  0  0  0  0  0
    2.4080   17.5550   -0.1490 C   0  0  0  0  0  0  0  0  0  0  0  0
    1.2220   13.1150   -2.6650 C   0  0  1  0  0  0  0  0  0  0  0  0
    2.3570   13.0390   -3.7310 C   0  0  0  0  0  0  0  0  0  0  0  0
   -0.0260   12.3890   -3.2930 C   0  0  0  0  0  0  0  0  0  0  0  0
   -1.0370   11.7690   -2.3090 C   0  0  0  0  0  0  0  0  0  0  0  0
   -0.3250   10.9100   -1.2600 C   0  0  2  0  0  0  0  0  0  0  0  0
    0.3790    9.7270   -2.0080 C   0  0  0  0  0  0  0  0  0  0  0  0
   -1.0385    7.6906   -1.7637 H   0  0  0  0  0  0  0  0  0  0  0  0
   -2.5927    8.3014   -2.4254 H   0  0  0  0  0  0  0  0  0  0  0  0
   -1.1397    9.3575   -2.4254 H   0  0  0  0  0  0  0  0  0  0  0  0
   -1.8817    8.2950    0.2366 H   0  0  0  0  0  0  0  0  0  0  0  0
   -3.7080   10.1154    0.4806 H   0  0  0  0  0  0  0  0  0  0  0  0
   -3.8201    9.9821   -1.3398 H   0  0  0  0  0  0  0  0  0  0  0  0
   -3.8942    7.3878    0.0291 H   0  0  0  0  0  0  0  0  0  0  0  0
   -5.2587    8.4964    0.4730 H   0  0  0  0  0  0  0  0  0  0  0  0
   -4.2138    7.7227   -2.0543 H   0  0  0  0  0  0  0  0  0  0  0  0
   -6.7280    7.2028    0.4618 H   0  0  0  0  0  0  0  0  0  0  0  0
   -8.2745    7.4201   -0.4257 H   0  0  0  0  0  0  0  0  0  0  0  0
   -7.4561    5.8211   -0.4257 H   0  0  0  0  0  0  0  0  0  0  0  0
   -7.4227    5.6510   -2.6855 H   0  0  0  0  0  0  0  0  0  0  0  0
   -7.5926    7.2361   -3.5134 H   0  0  0  0  0  0  0  0  0  0  0  0
   -6.0091    6.3879   -3.5134 H   0  0  0  0  0  0  0  0  0  0  0  0
   -1.9992   11.0244    0.1414 H   0  0  0  0  0  0  0  0  0  0  0  0
   -0.5862   10.3060    1.9647 H   0  0  0  0  0  0  0  0  0  0  0  0
    0.0508    8.9342    1.0324 H   0  0  0  0  0  0  0  0  0  0  0  0
    1.4427   11.3746    1.5573 H   0  0  0  0  0  0  0  0  0  0  0  0
    1.9292   10.2047    0.3336 H   0  0  0  0  0  0  0  0  0  0  0  0
    0.0345   12.8200    1.4264 H   0  0  0  0  0  0  0  0  0  0  0  0
    0.3963   13.9474    0.0756 H   0  0  0  0  0  0  0  0  0  0  0  0
   -1.1345   13.0077    0.0756 H   0  0  0  0  0  0  0  0  0  0  0  0
    2.2501   11.4503   -1.7181 H   0  0  0  0  0  0  0  0  0  0  0  0
    2.9750   12.8095    0.3470 H   0  0  0  0  0  0  0  0  0  0  0  0
    3.7677   13.0733   -1.2936 H   0  0  0  0  0  0  0  0  0  0  0  0
    3.2315   15.2408    0.1048 H   0  0  0  0  0  0  0  0  0  0  0  0
   -0.1678   14.5538   -1.9634 H   0  0  0  0  0  0  0  0  0  0  0  0
    1.8392   15.5259   -4.0904 H   0  0  0  0  0  0  0  0  0  0  0  0
    0.1094   15.0330   -4.3650 H   0  0  0  0  0  0  0  0  0  0  0  0
    0.3914   17.4903   -4.3505 H   0  0  0  0  0  0  0  0  0  0  0  0
   -0.6672   16.8931   -3.0132 H   0  0  0  0  0  0  0  0  0  0  0  0
    0.7982   18.5818   -2.1403 H   0  0  0  0  0  0  0  0  0  0  0  0
    3.1270   18.1760   -2.2650 H   0  0  0  0  0  0  0  0  0  0  0  0
    0.2053   16.8944    0.8007 H   0  0  0  0  0  0  0  0  0  0  0  0
   -0.5053   17.8340   -0.5553 H   0  0  0  0  0  0  0  0  0  0  0  0
   -0.6064   16.0406   -0.5553 H   0  0  0  0  0  0  0  0  0  0  0  0
    2.1648   17.3857    0.9103 H   0  0  0  0  0  0  0  0  0  0  0  0
    3.4120   17.1596   -0.3625 H   0  0  0  0  0  0  0  0  0  0  0  0
    2.3858   18.6339   -0.3625 H   0  0  0  0  0  0  0  0  0  0  0  0
    3.3315   12.9737   -3.2250 H   0  0  0  0  0  0  0  0  0  0  0  0
    2.2102   12.1487   -4.3601 H   0  0  0  0  0  0  0  0  0  0  0  0
    2.3302   13.9410   -4.3601 H   0  0  0  0  0  0  0  0  0  0  0  0
   -0.5665   13.1260   -3.9052 H   0  0  0  0  0  0  0  0  0  0  0  0
    0.3881   11.5384   -3.8543 H   0  0  0  0  0  0  0  0  0  0  0  0
   -1.5859   12.5757   -1.8011 H   0  0  0  0  0  0  0  0  0  0  0  0
   -1.7297   11.1288   -2.8749 H   0  0  0  0  0  0  0  0  0  0  0  0
    0.7970    9.0246   -1.2718 H   0  0  0  0  0  0  0  0  0  0  0  0
   -0.3547    9.2036   -2.6387 H   0  0  0  0  0  0  0  0  0  0  0  0
    1.1890   10.1222   -2.6387 H   0  0  0  0  0  0  0  0  0  0  0  0
  1  2  1  0
  2  3  1  0
  3  4  1  0
  4  5  1  0
  5  6  1  0
  6  7  1  0
  7  8  1  0
  7  9  1  0
  2 10  1  0
 10 11  1  0
 11 12  1  0
 12 13  1  0
 13 14  1  1
 13 15  1  0
 15 16  1  0
 16 17  1  0
 17 18  2  0
 18 19  1  0
 19 20  1  0
 20 21  1  0
 21 22  1  0
 22 23  1  0
 22 24  1  0
 24 25  1  0
 24 26  1  0
 19 27  1  0
 27 28  1  6
 27 29  1  0
 29 30  1  0
 30 31  1  0
 31 32  1  6
  7  5  1  0
 31 10  1  0
 31 13  1  0
 27 15  1  0
 24 18  1  0
  1 33  1  0
  1 34  1  0
  1 35  1  0
  2 36  1  1
  3 37  1  0
  3 38  1  0
  4 39  1  0
  4 40  1  0
  5 41  1  6
  8 42  1  0
  8 43  1  0
  8 44  1  0
  9 45  1  0
  9 46  1  0
  9 47  1  0
 10 48  1  1
 11 49  1  0
 11 50  1  0
 12 51  1  0
 12 52  1  0
 14 53  1  0
 14 54  1  0
 14 55  1  0
 15 56  1  6
 16 57  1  0
 16 58  1  0
 17 59  1  0
 19 60  1  1
 20 61  1  0
 20 62  1  0
 21 63  1  0
 21 64  1  0
 22 65  1  1
 23 66  1  0
 25 67  1  0
 25 68  1  0
 25 69  1  0
 26 70  1  0
 26 71  1  0
 26 72  1  0
 28 73  1  0
 28 74  1  0
 28 75  1  0
 29 76  1  0
 29 77  1  0
 30 78  1  0
 30 79  1  0
 32 80  1  0
 32 81  1  0
 32 82  1  0
M  END
>  <meeko>  (1) 
{"is_sidechain": [false], "intermolecular_energy": 2.731, "internal_energy": -0.839}

$$$$
EPH_relaxed_0001_pdb2pqr_Repair_172_r2_0001_out
     RDKit          3D

 82 86  0  0  0  0  0  0  0  0999 V2000
    1.9950   19.6430   -0.5860 C   0  0  0  0  0  0  0  0  0  0  0  0
    2.3970   18.4140    0.2340 C   0  0  2  0  0  0  0  0  0  0  0  0
    3.8470   17.9740   -0.0510 C   0  0  0  0  0  0  0  0  0  0  0  0
    4.8090   18.2370    1.1110 C   0  0  0  0  0  0  0  0  0  0  0  0
    4.1470   18.9990    2.2180 C   0  0  2  0  0  0  0  0  0  0  0  0
    4.8530   20.1720    2.6440 O   0  0  0  0  0  0  0  0  0  0  0  0
    4.7280   19.1200    3.6150 C   0  0  0  0  0  0  0  0  0  0  0  0
    6.0260   18.4710    3.9790 C   0  0  0  0  0  0  0  0  0  0  0  0
    3.8060   19.4510    4.7470 C   0  0  0  0  0  0  0  0  0  0  0  0
    1.4380   17.2640   -0.0490 C   0  0  1  0  0  0  0  0  0  0  0  0
    0.1660   17.7210   -0.8130 C   0  0  0  0  0  0  0  0  0  0  0  0
   -0.2240   16.5620   -1.7660 C   0  0  0  0  0  0  0  0  0  0  0  0
    0.6250   15.3600   -1.2870 C   0  0  1  0  0  0  0  0  0  0  0  0
   -0.1530   14.7830   -0.0620 C   0  0  0  0  0  0  0  0  0  0  0  0
    0.9240   14.2570   -2.3530 C   0  0  2  0  0  0  0  0  0  0  0  0
   -0.3150   13.5310   -2.9070 C   0  0  0  0  0  0  0  0  0  0  0  0
   -0.7220   12.3040   -2.1600 C   0  0  0  0  0  0  0  0  0  0  0  0
    0.0380   11.6430   -1.2680 C   0  0  0  0  0  0  0  0  0  0  0  0
    1.4890   12.0660   -1.0030 C   0  0  1  0  0  0  0  0  0  0  0  0
    2.4020   10.8120   -1.0040 C   0  0  0  0  0  0  0  0  0  0  0  0
    1.9210    9.7370   -0.0340 C   0  0  0  0  0  0  0  0  0  0  0  0
    0.4960    9.3020   -0.3650 C   0  0  2  0  0  0  0  0  0  0  0  0
    0.5010    8.6330   -1.6300 O   0  0  0  0  0  0  0  0  0  0  0  0
   -0.5130   10.4830   -0.4020 C   0  0  0  0  0  0  0  0  0  0  0  0
   -0.7450   11.0150    1.0330 C   0  0  0  0  0  0  0  0  0  0  0  0
   -1.8800    9.9280   -0.8860 C   0  0  0  0  0  0  0  0  0  0  0  0
    2.0510   13.2310   -1.9260 C   0  0  1  0  0  0  0  0  0  0  0  0
    2.6310   12.6330   -3.2440 C   0  0  0  0  0  0  0  0  0  0  0  0
    3.2530   13.9350   -1.1910 C   0  0  0  0  0  0  0  0  0  0  0  0
    2.9020   15.0970   -0.2420 C   0  0  0  0  0  0  0  0  0  0  0  0
    1.9650   16.0980   -0.9240 C   0  0  2  0  0  0  0  0  0  0  0  0
    2.7270   16.7120   -2.1470 C   0  0  0  0  0  0  0  0  0  0  0  0
    1.7261   20.4652    0.0935 H   0  0  0  0  0  0  0  0  0  0  0  0
    2.8387   19.9526   -1.2203 H   0  0  0  0  0  0  0  0  0  0  0  0
    1.1314   19.3941   -1.2203 H   0  0  0  0  0  0  0  0  0  0  0  0
    2.3400   18.6924    1.2967 H   0  0  0  0  0  0  0  0  0  0  0  0
    3.8470   16.8949   -0.2646 H   0  0  0  0  0  0  0  0  0  0  0  0
    4.2024   18.5704   -0.9043 H   0  0  0  0  0  0  0  0  0  0  0  0
    5.1642   17.2732    1.5046 H   0  0  0  0  0  0  0  0  0  0  0  0
    5.6464   18.8414    0.7323 H   0  0  0  0  0  0  0  0  0  0  0  0
    3.1508   18.7047    1.8560 H   0  0  0  0  0  0  0  0  0  0  0  0
    6.1184   18.4248    5.0741 H   0  0  0  0  0  0  0  0  0  0  0  0
    6.0553   17.4522    3.5652 H   0  0  0  0  0  0  0  0  0  0  0  0
    6.8586   19.0589    3.5652 H   0  0  0  0  0  0  0  0  0  0  0  0
    4.3183   19.2671    5.7029 H   0  0  0  0  0  0  0  0  0  0  0  0
    3.5146   20.5099    4.6849 H   0  0  0  0  0  0  0  0  0  0  0  0
    2.9077   18.8192    4.6849 H   0  0  0  0  0  0  0  0  0  0  0  0
    1.2610   16.9138    0.9786 H   0  0  0  0  0  0  0  0  0  0  0  0
   -0.6511   17.9194   -0.1037 H   0  0  0  0  0  0  0  0  0  0  0  0
    0.3543   18.6478   -1.3747 H   0  0  0  0  0  0  0  0  0  0  0  0
   -1.2975   16.3364   -1.6840 H   0  0  0  0  0  0  0  0  0  0  0  0
   -0.0383   16.8095   -2.8216 H   0  0  0  0  0  0  0  0  0  0  0  0
    0.3178   15.1321    0.8689 H   0  0  0  0  0  0  0  0  0  0  0  0
   -1.1974   15.1266   -0.0960 H   0  0  0  0  0  0  0  0  0  0  0  0
   -0.1274   13.6838   -0.0960 H   0  0  0  0  0  0  0  0  0  0  0  0
    1.3267   14.8438   -3.1917 H   0  0  0  0  0  0  0  0  0  0  0  0
   -1.1590   14.2362   -2.8880 H   0  0  0  0  0  0  0  0  0  0  0  0
   -0.0441   13.1955   -3.9190 H   0  0  0  0  0  0  0  0  0  0  0  0
   -1.7289   11.9066   -2.3556 H   0  0  0  0  0  0  0  0  0  0  0  0
    1.4934   12.5301   -0.0057 H   0  0  0  0  0  0  0  0  0  0  0  0
    2.4187   10.3889   -2.0192 H   0  0  0  0  0  0  0  0  0  0  0  0
    3.4046   11.1288   -0.6807 H   0  0  0  0  0  0  0  0  0  0  0  0
    2.5886    8.8654   -0.1026 H   0  0  0  0  0  0  0  0  0  0  0  0
    1.9338   10.1520    0.9846 H   0  0  0  0  0  0  0  0  0  0  0  0
    0.1612    8.6300    0.4389 H   0  0  0  0  0  0  0  0  0  0  0  0
    0.2830    7.6990   -1.4700 H   0  0  0  0  0  0  0  0  0  0  0  0
   -0.4156   10.2597    1.7618 H   0  0  0  0  0  0  0  0  0  0  0  0
   -0.1688   11.9407    1.1785 H   0  0  0  0  0  0  0  0  0  0  0  0
   -1.8154   11.2226    1.1785 H   0  0  0  0  0  0  0  0  0  0  0  0
   -2.5023    9.6753   -0.0149 H   0  0  0  0  0  0  0  0  0  0  0  0
   -2.3909   10.6899   -1.4930 H   0  0  0  0  0  0  0  0  0  0  0  0
   -1.7152    9.0256   -1.4930 H   0  0  0  0  0  0  0  0  0  0  0  0
    3.3777   11.8631   -2.9998 H   0  0  0  0  0  0  0  0  0  0  0  0
    1.8175   12.1817   -3.8310 H   0  0  0  0  0  0  0  0  0  0  0  0
    3.1069   13.4323   -3.8310 H   0  0  0  0  0  0  0  0  0  0  0  0
    3.7763   13.1690   -0.5999 H   0  0  0  0  0  0  0  0  0  0  0  0
    3.8543   14.3892   -1.9923 H   0  0  0  0  0  0  0  0  0  0  0  0
    2.4069   14.6932    0.6535 H   0  0  0  0  0  0  0  0  0  0  0  0
    3.8310   15.6177    0.0333 H   0  0  0  0  0  0  0  0  0  0  0  0
    3.5359   17.3638   -1.7854 H   0  0  0  0  0  0  0  0  0  0  0  0
    3.1536   15.9023   -2.7573 H   0  0  0  0  0  0  0  0  0  0  0  0
    2.0266   17.3011   -2.7573 H   0  0  0  0  0  0  0  0  0  0  0  0
  1  2  1  0
  2  3  1  0
  3  4  1  0
  4  5  1  0
  5  6  1  0
  6  7  1  0
  7  8  1  0
  7  9  1  0
  2 10  1  0
 10 11  1  0
 11 12  1  0
 12 13  1  0
 13 14  1  1
 13 15  1  0
 15 16  1  0
 16 17  1  0
 17 18  2  0
 18 19  1  0
 19 20  1  0
 20 21  1  0
 21 22  1  0
 22 23  1  0
 22 24  1  0
 24 25  1  0
 24 26  1  0
 19 27  1  0
 27 28  1  6
 27 29  1  0
 29 30  1  0
 30 31  1  0
 31 32  1  6
  7  5  1  0
 31 10  1  0
 31 13  1  0
 27 15  1  0
 24 18  1  0
  1 33  1  0
  1 34  1  0
  1 35  1  0
  2 36  1  1
  3 37  1  0
  3 38  1  0
  4 39  1  0
  4 40  1  0
  5 41  1  1
  8 42  1  0
  8 43  1  0
  8 44  1  0
  9 45  1  0
  9 46  1  0
  9 47  1  0
 10 48  1  1
 11 49  1  0
 11 50  1  0
 12 51  1  0
 12 52  1  0
 14 53  1  0
 14 54  1  0
 14 55  1  0
 15 56  1  6
 16 57  1  0
 16 58  1  0
 17 59  1  0
 19 60  1  1
 20 61  1  0
 20 62  1  0
 21 63  1  0
 21 64  1  0
 22 65  1  1
 23 66  1  0
 25 67  1  0
 25 68  1  0
 25 69  1  0
 26 70  1  0
 26 71  1  0
 26 72  1  0
 28 73  1  0
 28 74  1  0
 28 75  1  0
 29 76  1  0
 29 77  1  0
 30 78  1  0
 30 79  1  0
 32 80  1  0
 32 81  1  0
 32 82  1  0
M  END
>  <meeko>  (2) 
{"is_sidechain": [false], "intermolecular_energy": 2.731, "internal_energy": -0.839}

$$$$
EPH_relaxed_0001_pdb2pqr_Repair_172_r2_0001_out
     RDKit          3D

 82 86  0  0  0  0  0  0  0  0999 V2000
    2.4310   17.9730   -2.6420 C   0  0  0  0  0  0  0  0  0  0  0  0
    1.1100   17.6240   -1.9500 C   0  0  2  0  0  0  0  0  0  0  0  0
    1.2240   17.6890   -0.4140 C   0  0  0  0  0  0  0  0  0  0  0  0
    0.8720   19.0590    0.1720 C   0  0  0  0  0  0  0  0  0  0  0  0
   -0.5810   19.1510    0.5300 C   0  0  2  0  0  0  0  0  0  0  0  0
   -1.4380   18.2750   -0.2140 O   0  0  0  0  0  0  0  0  0  0  0  0
   -1.6430   19.6830   -0.4140 C   0  0  0  0  0  0  0  0  0  0  0  0
   -1.2970   20.1590   -1.7900 C   0  0  0  0  0  0  0  0  0  0  0  0
   -2.9250   20.1940    0.1670 C   0  0  0  0  0  0  0  0  0  0  0  0
    0.6500   16.2360   -2.3800 C   0  0  1  0  0  0  0  0  0  0  0  0
    0.7250   16.0310   -3.9160 C   0  0  0  0  0  0  0  0  0  0  0  0
    1.1150   14.5490   -4.1510 C   0  0  0  0  0  0  0  0  0  0  0  0
    0.9280   13.8730   -2.7730 C   0  0  1  0  0  0  0  0  0  0  0  0
   -0.6030   13.5850   -2.6720 C   0  0  0  0  0  0  0  0  0  0  0  0
    1.7750   12.5850   -2.5140 C   0  0  2  0  0  0  0  0  0  0  0  0
    1.4760   11.4060   -3.4560 C   0  0  0  0  0  0  0  0  0  0  0  0
    0.4180   10.4650   -2.9830 C   0  0  0  0  0  0  0  0  0  0  0  0
   -0.0640   10.3970   -1.7280 C   0  0  0  0  0  0  0  0  0  0  0  0
    0.5320   11.2590   -0.6080 C   0  0  1  0  0  0  0  0  0  0  0  0
    0.7710   10.3820    0.6490 C   0  0  0  0  0  0  0  0  0  0  0  0
   -0.4850    9.6370    1.0910 C   0  0  0  0  0  0  0  0  0  0  0  0
   -1.0140    8.7460   -0.0300 C   0  0  2  0  0  0  0  0  0  0  0  0
   -0.0700    7.6980   -0.2700 O   0  0  0  0  0  0  0  0  0  0  0  0
   -1.2830    9.5190   -1.3510 C   0  0  0  0  0  0  0  0  0  0  0  0
   -2.5120   10.4450   -1.1710 C   0  0  0  0  0  0  0  0  0  0  0  0
   -1.6770    8.4830   -2.4390 C   0  0  0  0  0  0  0  0  0  0  0  0
    1.8060   12.1230   -1.0010 C   0  0  1  0  0  0  0  0  0  0  0  0
    3.1010   11.2730   -0.8210 C   0  0  0  0  0  0  0  0  0  0  0  0
    1.9310   13.3370   -0.0060 C   0  0  0  0  0  0  0  0  0  0  0  0
    1.1660   14.6210   -0.3790 C   0  0  0  0  0  0  0  0  0  0  0  0
    1.4410   15.0220   -1.8310 C   0  0  2  0  0  0  0  0  0  0  0  0
    2.9700   15.3400   -1.9580 C   0  0  0  0  0  0  0  0  0  0  0  0
    3.2003   18.1762   -1.8825 H   0  0  0  0  0  0  0  0  0  0  0  0
    2.7501   17.1284   -3.2703 H   0  0  0  0  0  0  0  0  0  0  0  0
    2.2913   18.8651   -3.2703 H   0  0  0  0  0  0  0  0  0  0  0  0
    0.3667   18.3743   -2.2574 H   0  0  0  0  0  0  0  0  0  0  0  0
    0.5418   16.9414    0.0168 H   0  0  0  0  0  0  0  0  0  0  0  0
    2.2763   17.4920   -0.1612 H   0  0  0  0  0  0  0  0  0  0  0  0
    1.4737   19.2248    1.0778 H   0  0  0  0  0  0  0  0  0  0  0  0
    1.0873   19.8236   -0.5890 H   0  0  0  0  0  0  0  0  0  0  0  0
   -0.3325   19.3943    1.5736 H   0  0  0  0  0  0  0  0  0  0  0  0
   -0.6516   21.0469   -1.7193 H   0  0  0  0  0  0  0  0  0  0  0  0
   -0.7661   19.3619   -2.3310 H   0  0  0  0  0  0  0  0  0  0  0  0
   -2.2191   20.4181   -2.3310 H   0  0  0  0  0  0  0  0  0  0  0  0
   -2.8651   20.1701    1.2651 H   0  0  0  0  0  0  0  0  0  0  0  0
   -3.0933   21.2279   -0.1687 H   0  0  0  0  0  0  0  0  0  0  0  0
   -3.7584   19.5593   -0.1687 H   0  0  0  0  0  0  0  0  0  0  0  0
   -0.3675   16.2419   -1.9620 H   0  0  0  0  0  0  0  0  0  0  0  0
   -0.2522   16.2428   -4.3746 H   0  0  0  0  0  0  0  0  0  0  0  0
    1.4620   16.7100   -4.3695 H   0  0  0  0  0  0  0  0  0  0  0  0
    0.4562   14.0885   -4.9020 H   0  0  0  0  0  0  0  0  0  0  0  0
    2.1416   14.4432   -4.5315 H   0  0  0  0  0  0  0  0  0  0  0  0
   -0.8966   13.5298   -1.6134 H   0  0  0  0  0  0  0  0  0  0  0  0
   -1.1616   14.3938   -3.1657 H   0  0  0  0  0  0  0  0  0  0  0  0
   -0.8295   12.6285   -3.1657 H   0  0  0  0  0  0  0  0  0  0  0  0
    2.7925   12.9178   -2.7670 H   0  0  0  0  0  0  0  0  0  0  0  0
    1.1566   11.8175   -4.4249 H   0  0  0  0  0  0  0  0  0  0  0  0
    2.4039   10.8179   -3.5118 H   0  0  0  0  0  0  0  0  0  0  0  0
   -0.0034    9.7682   -3.7226 H   0  0  0  0  0  0  0  0  0  0  0  0
   -0.2192   12.0315   -0.3866 H   0  0  0  0  0  0  0  0  0  0  0  0
    1.5557    9.6456    0.4210 H   0  0  0  0  0  0  0  0  0  0  0  0
    1.0688   11.0504    1.4703 H   0  0  0  0  0  0  0  0  0  0  0  0
   -0.2446    9.0125    1.9641 H   0  0  0  0  0  0  0  0  0  0  0  0
   -1.2591   10.3753    1.3474 H   0  0  0  0  0  0  0  0  0  0  0  0
   -1.9822    8.3409    0.2994 H   0  0  0  0  0  0  0  0  0  0  0  0
   -0.5500    6.9590   -0.6810 H   0  0  0  0  0  0  0  0  0  0  0  0
   -2.7066   10.5916   -0.0983 H   0  0  0  0  0  0  0  0  0  0  0  0
   -2.3105   11.4177   -1.6434 H   0  0  0  0  0  0  0  0  0  0  0  0
   -3.3915    9.9831   -1.6434 H   0  0  0  0  0  0  0  0  0  0  0  0
   -2.0283    7.5594   -1.9557 H   0  0  0  0  0  0  0  0  0  0  0  0
   -2.4804    8.8972   -3.0659 H   0  0  0  0  0  0  0  0  0  0  0  0
   -0.8014    8.2587   -3.0659 H   0  0  0  0  0  0  0  0  0  0  0  0
    3.3054   11.1388    0.2515 H   0  0  0  0  0  0  0  0  0  0  0  0
    2.9627   10.2895   -1.2938 H   0  0  0  0  0  0  0  0  0  0  0  0
    3.9484   11.7912   -1.2938 H   0  0  0  0  0  0  0  0  0  0  0  0
    1.5623   13.0028    0.9750 H   0  0  0  0  0  0  0  0  0  0  0  0
    2.9942   13.6185   -0.0268 H   0  0  0  0  0  0  0  0  0  0  0  0
    0.0873   14.4466   -0.2522 H   0  0  0  0  0  0  0  0  0  0  0  0
    1.5051   15.4345    0.2792 H   0  0  0  0  0  0  0  0  0  0  0  0
    3.4101   15.4315   -0.9540 H   0  0  0  0  0  0  0  0  0  0  0  0
    3.4695   14.5265   -2.5046 H   0  0  0  0  0  0  0  0  0  0  0  0
    3.1038   16.2852   -2.5046 H   0  0  0  0  0  0  0  0  0  0  0  0
  1  2  1  0
  2  3  1  0
  3  4  1  0
  4  5  1  0
  5  6  1  0
  6  7  1  0
  7  8  1  0
  7  9  1  0
  2 10  1  0
 10 11  1  0
 11 12  1  0
 12 13  1  0
 13 14  1  1
 13 15  1  0
 15 16  1  0
 16 17  1  0
 17 18  2  0
 18 19  1  0
 19 20  1  0
 20 21  1  0
 21 22  1  0
 22 23  1  0
 22 24  1  0
 24 25  1  0
 24 26  1  0
 19 27  1  0
 27 28  1  6
 27 29  1  0
 29 30  1  0
 30 31  1  0
 31 32  1  1
  7  5  1  0
 31 10  1  0
 31 13  1  0
 27 15  1  0
 24 18  1  0
  1 33  1  0
  1 34  1  0
  1 35  1  0
  2 36  1  6
  3 37  1  0
  3 38  1  0
  4 39  1  0
  4 40  1  0
  5 41  1  1
  8 42  1  0
  8 43  1  0
  8 44  1  0
  9 45  1  0
  9 46  1  0
  9 47  1  0
 10 48  1  1
 11 49  1  0
 11 50  1  0
 12 51  1  0
 12 52  1  0
 14 53  1  0
 14 54  1  0
 14 55  1  0
 15 56  1  6
 16 57  1  0
 16 58  1  0
 17 59  1  0
 19 60  1  1
 20 61  1  0
 20 62  1  0
 21 63  1  0
 21 64  1  0
 22 65  1  1
 23 66  1  0
 25 67  1  0
 25 68  1  0
 25 69  1  0
 26 70  1  0
 26 71  1  0
 26 72  1  0
 28 73  1  0
 28 74  1  0
 28 75  1  0
 29 76  1  0
 29 77  1  0
 30 78  1  0
 30 79  1  0
 32 80  1  0
 32 81  1  0
 32 82  1  0
M  END
>  <meeko>  (3) 
{"is_sidechain": [false], "intermolecular_energy": 2.731, "internal_energy": -0.839}

$$$$
EPH_relaxed_0001_pdb2pqr_Repair_172_r2_0001_out
     RDKit          3D

 82 86  0  0  0  0  0  0  0  0999 V2000
    2.2360   17.9740   -2.5870 C   0  0  0  0  0  0  0  0  0  0  0  0
    0.7120   17.8330   -2.6500 C   0  0  2  0  0  0  0  0  0  0  0  0
    0.0310   18.3080   -1.3510 C   0  0  0  0  0  0  0  0  0  0  0  0
    0.7800   17.9020   -0.0790 C   0  0  0  0  0  0  0  0  0  0  0  0
    1.3010   19.0960    0.6620 C   0  0  2  0  0  0  0  0  0  0  0  0
    2.2040   19.9190   -0.0890 O   0  0  0  0  0  0  0  0  0  0  0  0
    2.7550   19.2620    1.0640 C   0  0  0  0  0  0  0  0  0  0  0  0
    3.7780   18.2190    0.7380 C   0  0  0  0  0  0  0  0  0  0  0  0
    3.0840   20.1930    2.1890 C   0  0  0  0  0  0  0  0  0  0  0  0
    0.3360   16.3830   -2.9360 C   0  0  1  0  0  0  0  0  0  0  0  0
    0.4060   16.0340   -4.4460 C   0  0  0  0  0  0  0  0  0  0  0  0
    0.8870   14.5640   -4.5440 C   0  0  0  0  0  0  0  0  0  0  0  0
    0.7600   14.0150   -3.1030 C   0  0  1  0  0  0  0  0  0  0  0  0
   -0.7480   13.6440   -2.9480 C   0  0  0  0  0  0  0  0  0  0  0  0
    1.6910   12.8140   -2.7360 C   0  0  2  0  0  0  0  0  0  0  0  0
    1.4560   11.5330   -3.5550 C   0  0  0  0  0  0  0  0  0  0  0  0
    0.4660   10.5780   -2.9740 C   0  0  0  0  0  0  0  0  0  0  0  0
    0.0040   10.6020   -1.7100 C   0  0  0  0  0  0  0  0  0  0  0  0
    0.5570   11.6050   -0.6890 C   0  0  1  0  0  0  0  0  0  0  0  0
    0.8660   10.8720    0.6420 C   0  0  0  0  0  0  0  0  0  0  0  0
   -0.3340   10.0970    1.1770 C   0  0  0  0  0  0  0  0  0  0  0  0
   -0.8180    9.0700    0.1560 C   0  0  2  0  0  0  0  0  0  0  0  0
    0.1880    8.0640    0.0020 O   0  0  0  0  0  0  0  0  0  0  0  0
   -1.1520    9.6920   -1.2280 C   0  0  0  0  0  0  0  0  0  0  0  0
   -2.4350   10.5530   -1.1170 C   0  0  0  0  0  0  0  0  0  0  0  0
   -1.4910    8.5320   -2.2040 C   0  0  0  0  0  0  0  0  0  0  0  0
    1.7690   12.5050   -1.1870 C   0  0  1  0  0  0  0  0  0  0  0  0
    3.1170   11.7580   -0.9490 C   0  0  0  0  0  0  0  0  0  0  0  0
    1.8280   13.8160   -0.3170 C   0  0  0  0  0  0  0  0  0  0  0  0
    0.9780   15.0070   -0.7970 C   0  0  0  0  0  0  0  0  0  0  0  0
    1.2100   15.2810   -2.2870 C   0  0  2  0  0  0  0  0  0  0  0  0
    2.7140   15.6790   -2.4710 C   0  0  0  0  0  0  0  0  0  0  0  0
    2.5583   18.0038   -1.5357 H   0  0  0  0  0  0  0  0  0  0  0  0
    2.7048   17.1154   -3.0900 H   0  0  0  0  0  0  0  0  0  0  0  0
    2.5393   18.9040   -3.0900 H   0  0  0  0  0  0  0  0  0  0  0  0
    0.3528   18.4780   -3.4655 H   0  0  0  0  0  0  0  0  0  0  0  0
   -0.0394   19.4054   -1.3771 H   0  0  0  0  0  0  0  0  0  0  0  0
   -0.9563   17.8247   -1.3106 H   0  0  0  0  0  0  0  0  0  0  0  0
    0.0935   17.3468    0.5771 H   0  0  0  0  0  0  0  0  0  0  0  0
    1.6377   17.2779   -0.3703 H   0  0  0  0  0  0  0  0  0  0  0  0
    0.3637   19.1817    1.2313 H   0  0  0  0  0  0  0  0  0  0  0  0
    4.1867   17.8023    1.6703 H   0  0  0  0  0  0  0  0  0  0  0  0
    3.3083   17.4152    0.1520 H   0  0  0  0  0  0  0  0  0  0  0  0
    4.5907   18.6730    0.1520 H   0  0  0  0  0  0  0  0  0  0  0  0
    2.9049   19.6861    3.1487 H   0  0  0  0  0  0  0  0  0  0  0  0
    4.1413   20.4893    2.1225 H   0  0  0  0  0  0  0  0  0  0  0  0
    2.4476   21.0878    2.1225 H   0  0  0  0  0  0  0  0  0  0  0  0
   -0.6749   16.3659   -2.5027 H   0  0  0  0  0  0  0  0  0  0  0  0
   -0.5880   16.1386   -4.9053 H   0  0  0  0  0  0  0  0  0  0  0  0
    1.0929   16.7102   -4.9760 H   0  0  0  0  0  0  0  0  0  0  0  0
    0.2501   13.9922   -5.2349 H   0  0  0  0  0  0  0  0  0  0  0  0
    1.9136   14.4859   -4.9312 H   0  0  0  0  0  0  0  0  0  0  0  0
   -1.0023   13.5814   -1.8796 H   0  0  0  0  0  0  0  0  0  0  0  0
   -1.3669   14.4167   -3.4276 H   0  0  0  0  0  0  0  0  0  0  0  0
   -0.9377   12.6724   -3.4276 H   0  0  0  0  0  0  0  0  0  0  0  0
    2.6827   13.1825   -3.0373 H   0  0  0  0  0  0  0  0  0  0  0  0
    1.0988   11.8280   -4.5527 H   0  0  0  0  0  0  0  0  0  0  0  0
    2.4187   11.0012   -3.5717 H   0  0  0  0  0  0  0  0  0  0  0  0
    0.0815    9.7875   -3.6353 H   0  0  0  0  0  0  0  0  0  0  0  0
   -0.2393   12.3469   -0.5297 H   0  0  0  0  0  0  0  0  0  0  0  0
    1.6933   10.1672    0.4723 H   0  0  0  0  0  0  0  0  0  0  0  0
    1.1299   11.6350    1.3891 H   0  0  0  0  0  0  0  0  0  0  0  0
   -0.0436    9.5766    2.1015 H   0  0  0  0  0  0  0  0  0  0  0  0
   -1.1505   10.8067    1.3761 H   0  0  0  0  0  0  0  0  0  0  0  0
   -1.7547    8.6395    0.5397 H   0  0  0  0  0  0  0  0  0  0  0  0
    0.7190    8.0520    0.8160 H   0  0  0  0  0  0  0  0  0  0  0  0
   -2.6770   10.7154   -0.0563 H   0  0  0  0  0  0  0  0  0  0  0  0
   -2.2691   11.5233   -1.6079 H   0  0  0  0  0  0  0  0  0  0  0  0
   -3.2700   10.0317   -1.6079 H   0  0  0  0  0  0  0  0  0  0  0  0
   -1.7538    7.6328   -1.6275 H   0  0  0  0  0  0  0  0  0  0  0  0
   -2.3417    8.8228   -2.8378 H   0  0  0  0  0  0  0  0  0  0  0  0
   -0.6175    8.3190   -2.8378 H   0  0  0  0  0  0  0  0  0  0  0  0
    3.2955   11.6591    0.1319 H   0  0  0  0  0  0  0  0  0  0  0  0
    3.0678   10.7584   -1.4055 H   0  0  0  0  0  0  0  0  0  0  0  0
    3.9385   12.3296   -1.4055 H   0  0  0  0  0  0  0  0  0  0  0  0
    1.4940   13.5567    0.6985 H   0  0  0  0  0  0  0  0  0  0  0  0
    2.8705   14.1603   -0.3858 H   0  0  0  0  0  0  0  0  0  0  0  0
   -0.0857   14.7787   -0.6344 H   0  0  0  0  0  0  0  0  0  0  0  0
    1.2716   15.9003   -0.2261 H   0  0  0  0  0  0  0  0  0  0  0  0
    3.1838   15.8033   -1.4842 H   0  0  0  0  0  0  0  0  0  0  0  0
    3.2369   14.8883   -3.0290 H   0  0  0  0  0  0  0  0  0  0  0  0
    2.7774   16.6248   -3.0290 H   0  0  0  0  0  0  0  0  0  0  0  0
  1  2  1  0
  2  3  1  0
  3  4  1  0
  4  5  1  0
  5  6  1  0
  6  7  1  0
  7  8  1  0
  7  9  1  0
  2 10  1  0
 10 11  1  0
 11 12  1  0
 12 13  1  0
 13 14  1  1
 13 15  1  0
 15 16  1  0
 16 17  1  0
 17 18  2  0
 18 19  1  0
 19 20  1  0
 20 21  1  0
 21 22  1  0
 22 23  1  0
 22 24  1  0
 24 25  1  0
 24 26  1  0
 19 27  1  0
 27 28  1  6
 27 29  1  0
 29 30  1  0
 30 31  1  0
 31 32  1  1
  7  5  1  0
 31 10  1  0
 31 13  1  0
 27 15  1  0
 24 18  1  0
  1 33  1  0
  1 34  1  0
  1 35  1  0
  2 36  1  6
  3 37  1  0
  3 38  1  0
  4 39  1  0
  4 40  1  0
  5 41  1  1
  8 42  1  0
  8 43  1  0
  8 44  1  0
  9 45  1  0
  9 46  1  0
  9 47  1  0
 10 48  1  1
 11 49  1  0
 11 50  1  0
 12 51  1  0
 12 52  1  0
 14 53  1  0
 14 54  1  0
 14 55  1  0
 15 56  1  6
 16 57  1  0
 16 58  1  0
 17 59  1  0
 19 60  1  1
 20 61  1  0
 20 62  1  0
 21 63  1  0
 21 64  1  0
 22 65  1  1
 23 66  1  0
 25 67  1  0
 25 68  1  0
 25 69  1  0
 26 70  1  0
 26 71  1  0
 26 72  1  0
 28 73  1  0
 28 74  1  0
 28 75  1  0
 29 76  1  0
 29 77  1  0
 30 78  1  0
 30 79  1  0
 32 80  1  0
 32 81  1  0
 32 82  1  0
M  END
>  <meeko>  (4) 
{"is_sidechain": [false], "intermolecular_energy": 2.731, "internal_energy": -0.839}

$$$$
EPH_relaxed_0001_pdb2pqr_Repair_172_r2_0001_out
     RDKit          3D

 82 86  0  0  0  0  0  0  0  0999 V2000
   -3.4050    9.3170    0.5270 C   0  0  0  0  0  0  0  0  0  0  0  0
   -2.5750    9.6770   -0.7080 C   0  0  2  0  0  0  0  0  0  0  0  0
   -1.9080    8.4390   -1.3410 C   0  0  0  0  0  0  0  0  0  0  0  0
   -2.8240    7.6640   -2.2910 C   0  0  0  0  0  0  0  0  0  0  0  0
   -4.2620    7.7630   -1.8790 C   0  0  2  0  0  0  0  0  0  0  0  0
   -4.8090    6.5620   -1.3210 O   0  0  0  0  0  0  0  0  0  0  0  0
   -5.3830    7.0020   -2.5620 C   0  0  0  0  0  0  0  0  0  0  0  0
   -5.1150    6.0870   -3.7150 C   0  0  0  0  0  0  0  0  0  0  0  0
   -6.7820    7.5180   -2.4300 C   0  0  0  0  0  0  0  0  0  0  0  0
   -1.5150   10.7080   -0.3390 C   0  0  1  0  0  0  0  0  0  0  0  0
   -0.4170   10.1300    0.5930 C   0  0  0  0  0  0  0  0  0  0  0  0
    0.9130   10.8210    0.2000 C   0  0  0  0  0  0  0  0  0  0  0  0
    0.4880   12.0010   -0.7050 C   0  0  1  0  0  0  0  0  0  0  0  0
    0.0490   13.1260    0.2840 C   0  0  0  0  0  0  0  0  0  0  0  0
    1.5580   12.5120   -1.7230 C   0  0  2  0  0  0  0  0  0  0  0  0
    2.8410   13.0810   -1.0910 C   0  0  0  0  0  0  0  0  0  0  0  0
    2.8160   14.5470   -0.8100 C   0  0  0  0  0  0  0  0  0  0  0  0
    1.9260   15.4250   -1.3100 C   0  0  0  0  0  0  0  0  0  0  0  0
    0.8710   14.9810   -2.3320 C   0  0  1  0  0  0  0  0  0  0  0  0
    0.8220   16.0000   -3.5010 C   0  0  0  0  0  0  0  0  0  0  0  0
    0.6030   17.4320   -3.0200 C   0  0  0  0  0  0  0  0  0  0  0  0
    1.7040   17.8560   -2.0510 C   0  0  2  0  0  0  0  0  0  0  0  0
    2.9430   17.9270   -2.7640 O   0  0  0  0  0  0  0  0  0  0  0  0
    1.8540   16.8980   -0.8370 C   0  0  0  0  0  0  0  0  0  0  0  0
    0.6300   17.0480    0.0990 C   0  0  0  0  0  0  0  0  0  0  0  0
    3.0880   17.3590   -0.0150 C   0  0  0  0  0  0  0  0  0  0  0  0
    0.9840   13.4790   -2.8370 C   0  0  1  0  0  0  0  0  0  0  0  0
    1.9640   13.3960   -4.0470 C   0  0  0  0  0  0  0  0  0  0  0  0
   -0.4210   13.0090   -3.3700 C   0  0  0  0  0  0  0  0  0  0  0  0
   -1.3890   12.4030   -2.3370 C   0  0  0  0  0  0  0  0  0  0  0  0
   -0.6920   11.3280   -1.4960 C   0  0  2  0  0  0  0  0  0  0  0  0
   -0.2600   10.1720   -2.4610 C   0  0  0  0  0  0  0  0  0  0  0  0
   -2.8363    9.5637    1.4357 H   0  0  0  0  0  0  0  0  0  0  0  0
   -4.3449    9.8883    0.5164 H   0  0  0  0  0  0  0  0  0  0  0  0
   -3.6302    8.2403    0.5164 H   0  0  0  0  0  0  0  0  0  0  0  0
   -3.2615   10.1005   -1.4559 H   0  0  0  0  0  0  0  0  0  0  0  0
   -1.0241    8.7713   -1.9051 H   0  0  0  0  0  0  0  0  0  0  0  0
   -1.6489    7.7574   -0.5174 H   0  0  0  0  0  0  0  0  0  0  0  0
   -2.7148    8.0748   -3.3056 H   0  0  0  0  0  0  0  0  0  0  0  0
   -2.5310    6.6042   -2.2610 H   0  0  0  0  0  0  0  0  0  0  0  0
   -4.1400    8.8263   -1.6252 H   0  0  0  0  0  0  0  0  0  0  0  0
   -4.8247    5.0958   -3.3367 H   0  0  0  0  0  0  0  0  0  0  0  0
   -6.0236    5.9938   -4.3280 H   0  0  0  0  0  0  0  0  0  0  0  0
   -4.2997    6.4987   -4.3280 H   0  0  0  0  0  0  0  0  0  0  0  0
   -7.0389    7.6127   -1.3646 H   0  0  0  0  0  0  0  0  0  0  0  0
   -6.8568    8.5029   -2.9142 H   0  0  0  0  0  0  0  0  0  0  0  0
   -7.4784    6.8176   -2.9142 H   0  0  0  0  0  0  0  0  0  0  0  0
   -2.1568   11.4745    0.1198 H   0  0  0  0  0  0  0  0  0  0  0  0
   -0.6600   10.3461    1.6438 H   0  0  0  0  0  0  0  0  0  0  0  0
   -0.3416    9.0380    0.4842 H   0  0  0  0  0  0  0  0  0  0  0  0
    1.4391   11.1873    1.0939 H   0  0  0  0  0  0  0  0  0  0  0  0
    1.6053   10.1339   -0.3086 H   0  0  0  0  0  0  0  0  0  0  0  0
    0.1848   12.7781    1.3187 H   0  0  0  0  0  0  0  0  0  0  0  0
    0.6631   14.0228    0.1151 H   0  0  0  0  0  0  0  0  0  0  0  0
   -1.0103   13.3698    0.1151 H   0  0  0  0  0  0  0  0  0  0  0  0
    1.8613   11.5848   -2.2312 H   0  0  0  0  0  0  0  0  0  0  0  0
    3.0139   12.5553   -0.1403 H   0  0  0  0  0  0  0  0  0  0  0  0
    3.6400   12.9260   -1.8310 H   0  0  0  0  0  0  0  0  0  0  0  0
    3.5906   14.9437   -0.1372 H   0  0  0  0  0  0  0  0  0  0  0  0
   -0.0898   14.9801   -1.7964 H   0  0  0  0  0  0  0  0  0  0  0  0
    1.7745   15.9539   -4.0492 H   0  0  0  0  0  0  0  0  0  0  0  0
   -0.0285   15.7299   -4.1441 H   0  0  0  0  0  0  0  0  0  0  0  0
    0.6071   18.1079   -3.8878 H   0  0  0  0  0  0  0  0  0  0  0  0
   -0.3637   17.4831   -2.4975 H   0  0  0  0  0  0  0  0  0  0  0  0
    1.4237   18.8381   -1.6423 H   0  0  0  0  0  0  0  0  0  0  0  0
    2.7570   17.7300   -3.6980 H   0  0  0  0  0  0  0  0  0  0  0  0
    0.9625   17.0073    1.1468 H   0  0  0  0  0  0  0  0  0  0  0  0
    0.1382   18.0131   -0.0924 H   0  0  0  0  0  0  0  0  0  0  0  0
   -0.0803   16.2302   -0.0924 H   0  0  0  0  0  0  0  0  0  0  0  0
    2.8651   17.2757    1.0590 H   0  0  0  0  0  0  0  0  0  0  0  0
    3.9509   16.7226   -0.2608 H   0  0  0  0  0  0  0  0  0  0  0  0
    3.3222   18.4053   -0.2608 H   0  0  0  0  0  0  0  0  0  0  0  0
    2.9963   13.3086   -3.6774 H   0  0  0  0  0  0  0  0  0  0  0  0
    1.7177   12.5155   -4.6586 H   0  0  0  0  0  0  0  0  0  0  0  0
    1.8693   14.3054   -4.6586 H   0  0  0  0  0  0  0  0  0  0  0  0
   -0.9165   13.8833   -3.8173 H   0  0  0  0  0  0  0  0  0  0  0  0
   -0.2030   12.1920   -4.0736 H   0  0  0  0  0  0  0  0  0  0  0  0
   -1.7514   13.2009   -1.6722 H   0  0  0  0  0  0  0  0  0  0  0  0
   -2.2288   11.9380   -2.8742 H   0  0  0  0  0  0  0  0  0  0  0  0
    0.0647    9.3030   -1.8699 H   0  0  0  0  0  0  0  0  0  0  0  0
   -1.1120    9.8862   -3.0954 H   0  0  0  0  0  0  0  0  0  0  0  0
    0.5706   10.5150   -3.0954 H   0  0  0  0  0  0  0  0  0  0  0  0
  1  2  1  0
  2  3  1  0
  3  4  1  0
  4  5  1  0
  5  6  1  0
  6  7  1  0
  7  8  1  0
  7  9  1  0
  2 10  1  0
 10 11  1  0
 11 12  1  0
 12 13  1  0
 13 14  1  1
 13 15  1  0
 15 16  1  0
 16 17  1  0
 17 18  2  0
 18 19  1  0
 19 20  1  0
 20 21  1  0
 21 22  1  0
 22 23  1  0
 22 24  1  0
 24 25  1  0
 24 26  1  0
 19 27  1  0
 27 28  1  6
 27 29  1  0
 29 30  1  0
 30 31  1  0
 31 32  1  6
  7  5  1  0
 31 10  1  0
 31 13  1  0
 27 15  1  0
 24 18  1  0
  1 33  1  0
  1 34  1  0
  1 35  1  0
  2 36  1  6
  3 37  1  0
  3 38  1  0
  4 39  1  0
  4 40  1  0
  5 41  1  1
  8 42  1  0
  8 43  1  0
  8 44  1  0
  9 45  1  0
  9 46  1  0
  9 47  1  0
 10 48  1  1
 11 49  1  0
 11 50  1  0
 12 51  1  0
 12 52  1  0
 14 53  1  0
 14 54  1  0
 14 55  1  0
 15 56  1  6
 16 57  1  0
 16 58  1  0
 17 59  1  0
 19 60  1  1
 20 61  1  0
 20 62  1  0
 21 63  1  0
 21 64  1  0
 22 65  1  1
 23 66  1  0
 25 67  1  0
 25 68  1  0
 25 69  1  0
 26 70  1  0
 26 71  1  0
 26 72  1  0
 28 73  1  0
 28 74  1  0
 28 75  1  0
 29 76  1  0
 29 77  1  0
 30 78  1  0
 30 79  1  0
 32 80  1  0
 32 81  1  0
 32 82  1  0
M  END
>  <meeko>  (5) 
{"is_sidechain": [false], "intermolecular_energy": 2.731, "internal_energy": -0.839}

$$$$
EPH_relaxed_0001_pdb2pqr_Repair_172_r2_0001_out
     RDKit          3D

 82 86  0  0  0  0  0  0  0  0999 V2000
    3.7420   17.7320    0.6620 C   0  0  0  0  0  0  0  0  0  0  0  0
    2.7770   18.1080   -0.4650 C   0  0  2  0  0  0  0  0  0  0  0  0
    2.0780   19.4580   -0.2050 C   0  0  0  0  0  0  0  0  0  0  0  0
    1.0050   19.3960    0.8850 C   0  0  0  0  0  0  0  0  0  0  0  0
   -0.2680   20.0540    0.4480 C   0  0  2  0  0  0  0  0  0  0  0  0
   -1.2610   20.1790    1.4740 O   0  0  0  0  0  0  0  0  0  0  0  0
   -1.5990   19.3280    0.3670 C   0  0  0  0  0  0  0  0  0  0  0  0
   -1.7220   17.8810    0.7260 C   0  0  0  0  0  0  0  0  0  0  0  0
   -2.6660   19.8890   -0.5200 C   0  0  0  0  0  0  0  0  0  0  0  0
    1.7350   17.0100   -0.6460 C   0  0  1  0  0  0  0  0  0  0  0  0
    0.5160   17.4750   -1.4860 C   0  0  0  0  0  0  0  0  0  0  0  0
    0.0520   16.2500   -2.3160 C   0  0  0  0  0  0  0  0  0  0  0  0
    0.7960   15.0480   -1.6880 C   0  0  1  0  0  0  0  0  0  0  0  0
   -0.0440   14.6710   -0.4270 C   0  0  0  0  0  0  0  0  0  0  0  0
    1.0260   13.8140   -2.6190 C   0  0  2  0  0  0  0  0  0  0  0  0
   -0.2570   13.1280   -3.1210 C   0  0  0  0  0  0  0  0  0  0  0  0
   -0.7710   12.0250   -2.2560 C   0  0  0  0  0  0  0  0  0  0  0  0
   -0.0790   11.4120   -1.2770 C   0  0  0  0  0  0  0  0  0  0  0  0
    1.3960   11.7500   -1.0240 C   0  0  1  0  0  0  0  0  0  0  0  0
    2.2080   10.4380   -0.8650 C   0  0  0  0  0  0  0  0  0  0  0  0
    1.6280    9.5170    0.2040 C   0  0  0  0  0  0  0  0  0  0  0  0
    0.1790    9.1560   -0.1130 C   0  0  2  0  0  0  0  0  0  0  0  0
    0.1530    8.3530   -1.2970 O   0  0  0  0  0  0  0  0  0  0  0  0
   -0.7330   10.4000   -0.3050 C   0  0  0  0  0  0  0  0  0  0  0  0
   -0.9470   11.1040    1.0580 C   0  0  0  0  0  0  0  0  0  0  0  0
   -2.1320    9.9000   -0.7590 C   0  0  0  0  0  0  0  0  0  0  0  0
    2.0620   12.7600   -2.0550 C   0  0  1  0  0  0  0  0  0  0  0  0
    2.6150   11.9770   -3.2840 C   0  0  0  0  0  0  0  0  0  0  0  0
    3.3030   13.4470   -1.3710 C   0  0  0  0  0  0  0  0  0  0  0  0
    3.0290   14.7300   -0.5640 C   0  0  0  0  0  0  0  0  0  0  0  0
    2.1840   15.7180   -1.3740 C   0  0  2  0  0  0  0  0  0  0  0  0
    3.0120   16.1330   -2.6370 C   0  0  0  0  0  0  0  0  0  0  0  0
    3.2616   17.9192    1.6337 H   0  0  0  0  0  0  0  0  0  0  0  0
    4.0029   16.6664    0.5811 H   0  0  0  0  0  0  0  0  0  0  0  0
    4.6550   18.3402    0.5811 H   0  0  0  0  0  0  0  0  0  0  0  0
    3.3698   18.2141   -1.3855 H   0  0  0  0  0  0  0  0  0  0  0  0
    2.8400   20.1906    0.0992 H   0  0  0  0  0  0  0  0  0  0  0  0
    1.5712   19.7425   -1.1389 H   0  0  0  0  0  0  0  0  0  0  0  0
    0.7982   18.3419    1.1220 H   0  0  0  0  0  0  0  0  0  0  0  0
    1.3823   19.9322    1.7682 H   0  0  0  0  0  0  0  0  0  0  0  0
    0.2761   20.6815   -0.2733 H   0  0  0  0  0  0  0  0  0  0  0  0
   -1.7311   17.7743    1.8208 H   0  0  0  0  0  0  0  0  0  0  0  0
   -2.6576   17.4784    0.3106 H   0  0  0  0  0  0  0  0  0  0  0  0
   -0.8678   17.3263    0.3106 H   0  0  0  0  0  0  0  0  0  0  0  0
   -3.4714   20.3125    0.0980 H   0  0  0  0  0  0  0  0  0  0  0  0
   -2.2374   20.6784   -1.1550 H   0  0  0  0  0  0  0  0  0  0  0  0
   -3.0734   19.0885   -1.1550 H   0  0  0  0  0  0  0  0  0  0  0  0
    1.5132   16.7901    0.4087 H   0  0  0  0  0  0  0  0  0  0  0  0
   -0.2944   17.8125   -0.8231 H   0  0  0  0  0  0  0  0  0  0  0  0
    0.7852   18.3169   -2.1407 H   0  0  0  0  0  0  0  0  0  0  0  0
   -1.0370   16.1171   -2.2364 H   0  0  0  0  0  0  0  0  0  0  0  0
    0.2738   16.3641   -3.3873 H   0  0  0  0  0  0  0  0  0  0  0  0
    0.5229   14.9254    0.4807 H   0  0  0  0  0  0  0  0  0  0  0  0
   -0.9911   15.2304   -0.4367 H   0  0  0  0  0  0  0  0  0  0  0  0
   -0.2556   13.5916   -0.4367 H   0  0  0  0  0  0  0  0  0  0  0  0
    1.4880   14.2711   -3.5065 H   0  0  0  0  0  0  0  0  0  0  0  0
   -1.0433   13.8933   -3.1990 H   0  0  0  0  0  0  0  0  0  0  0  0
    0.0031   12.6636   -4.0837 H   0  0  0  0  0  0  0  0  0  0  0  0
   -1.8018   11.6844   -2.4334 H   0  0  0  0  0  0  0  0  0  0  0  0
    1.4210   12.3198   -0.0834 H   0  0  0  0  0  0  0  0  0  0  0  0
    2.2086    9.9049   -1.8272 H   0  0  0  0  0  0  0  0  0  0  0  0
    3.2268   10.7116   -0.5531 H   0  0  0  0  0  0  0  0  0  0  0  0
    2.2269    8.5954    0.2484 H   0  0  0  0  0  0  0  0  0  0  0  0
    1.6553   10.0411    1.1707 H   0  0  0  0  0  0  0  0  0  0  0  0
   -0.2208    8.6037    0.7502 H   0  0  0  0  0  0  0  0  0  0  0  0
   -0.7720    8.1060   -1.4650 H   0  0  0  0  0  0  0  0  0  0  0  0
   -0.7322   10.3975    1.8733 H   0  0  0  0  0  0  0  0  0  0  0  0
   -0.2710   11.9684    1.1343 H   0  0  0  0  0  0  0  0  0  0  0  0
   -1.9897   11.4460    1.1343 H   0  0  0  0  0  0  0  0  0  0  0  0
   -2.7476    9.6800    0.1257 H   0  0  0  0  0  0  0  0  0  0  0  0
   -2.6218   10.6787   -1.3621 H   0  0  0  0  0  0  0  0  0  0  0  0
   -2.0172    8.9872   -1.3621 H   0  0  0  0  0  0  0  0  0  0  0  0
    3.2168   11.1248   -2.9353 H   0  0  0  0  0  0  0  0  0  0  0  0
    1.7756   11.6087   -3.8920 H   0  0  0  0  0  0  0  0  0  0  0  0
    3.2428   12.6449   -3.8920 H   0  0  0  0  0  0  0  0  0  0  0  0
    3.7543   12.7134   -0.6867 H   0  0  0  0  0  0  0  0  0  0  0  0
    3.9516   13.7623   -2.2016 H   0  0  0  0  0  0  0  0  0  0  0  0
    2.4897   14.4668    0.3579 H   0  0  0  0  0  0  0  0  0  0  0  0
    3.9915   15.2059   -0.3249 H   0  0  0  0  0  0  0  0  0  0  0  0
    3.9535   16.6049   -2.3194 H   0  0  0  0  0  0  0  0  0  0  0  0
    3.2344   15.2399   -3.2393 H   0  0  0  0  0  0  0  0  0  0  0  0
    2.4296   16.8457   -3.2393 H   0  0  0  0  0  0  0  0  0  0  0  0
  1  2  1  0
  2  3  1  0
  3  4  1  0
  4  5  1  0
  5  6  1  0
  6  7  1  0
  7  8  1  0
  7  9  1  0
  2 10  1  0
 10 11  1  0
 11 12  1  0
 12 13  1  0
 13 14  1  1
 13 15  1  0
 15 16  1  0
 16 17  1  0
 17 18  2  0
 18 19  1  0
 19 20  1  0
 20 21  1  0
 21 22  1  0
 22 23  1  0
 22 24  1  0
 24 25  1  0
 24 26  1  0
 19 27  1  0
 27 28  1  6
 27 29  1  0
 29 30  1  0
 30 31  1  0
 31 32  1  6
  7  5  1  0
 31 10  1  0
 31 13  1  0
 27 15  1  0
 24 18  1  0
  1 33  1  0
  1 34  1  0
  1 35  1  0
  2 36  1  6
  3 37  1  0
  3 38  1  0
  4 39  1  0
  4 40  1  0
  5 41  1  6
  8 42  1  0
  8 43  1  0
  8 44  1  0
  9 45  1  0
  9 46  1  0
  9 47  1  0
 10 48  1  1
 11 49  1  0
 11 50  1  0
 12 51  1  0
 12 52  1  0
 14 53  1  0
 14 54  1  0
 14 55  1  0
 15 56  1  6
 16 57  1  0
 16 58  1  0
 17 59  1  0
 19 60  1  1
 20 61  1  0
 20 62  1  0
 21 63  1  0
 21 64  1  0
 22 65  1  1
 23 66  1  0
 25 67  1  0
 25 68  1  0
 25 69  1  0
 26 70  1  0
 26 71  1  0
 26 72  1  0
 28 73  1  0
 28 74  1  0
 28 75  1  0
 29 76  1  0
 29 77  1  0
 30 78  1  0
 30 79  1  0
 32 80  1  0
 32 81  1  0
 32 82  1  0
M  END
>  <meeko>  (6) 
{"is_sidechain": [false], "intermolecular_energy": 2.731, "internal_energy": -0.839}

$$$$
EPH_relaxed_0001_pdb2pqr_Repair_172_r2_0001_out
     RDKit          3D

 82 86  0  0  0  0  0  0  0  0999 V2000
   -5.1150    5.9420   -1.8820 C   0  0  0  0  0  0  0  0  0  0  0  0
   -5.4650    7.4320   -1.8500 C   0  0  2  0  0  0  0  0  0  0  0  0
   -5.2510    8.0490   -0.4540 C   0  0  0  0  0  0  0  0  0  0  0  0
   -4.1910    9.1540   -0.4250 C   0  0  0  0  0  0  0  0  0  0  0  0
   -2.8300    8.6240   -0.7600 C   0  0  2  0  0  0  0  0  0  0  0  0
   -1.8080    8.9540    0.1890 O   0  0  0  0  0  0  0  0  0  0  0  0
   -1.6540    9.5110   -1.1260 C   0  0  0  0  0  0  0  0  0  0  0  0
   -1.7860   11.0010   -1.1760 C   0  0  0  0  0  0  0  0  0  0  0  0
   -0.5230    8.9140   -1.9050 C   0  0  0  0  0  0  0  0  0  0  0  0
   -6.9090    7.6360   -2.2950 C   0  0  1  0  0  0  0  0  0  0  0  0
   -7.2260    6.9280   -3.6390 C   0  0  0  0  0  0  0  0  0  0  0  0
   -8.6930    6.4360   -3.5490 C   0  0  0  0  0  0  0  0  0  0  0  0
   -9.2720    7.1580   -2.3100 C   0  0  1  0  0  0  0  0  0  0  0  0
   -9.6490    8.5850   -2.8170 C   0  0  0  0  0  0  0  0  0  0  0  0
  -10.4790    6.4590   -1.6040 C   0  0  2  0  0  0  0  0  0  0  0  0
  -11.7440    6.3110   -2.4670 C   0  0  0  0  0  0  0  0  0  0  0  0
  -12.7120    7.4440   -2.3800 C   0  0  0  0  0  0  0  0  0  0  0  0
  -12.7140    8.3990   -1.4320 C   0  0  0  0  0  0  0  0  0  0  0  0
  -11.7320    8.3430   -0.2550 C   0  0  1  0  0  0  0  0  0  0  0  0
  -12.4930    8.6210    1.0680 C   0  0  0  0  0  0  0  0  0  0  0  0
  -13.2800    9.9270    1.0270 C   0  0  0  0  0  0  0  0  0  0  0  0
  -14.2860    9.9210   -0.1200 C   0  0  2  0  0  0  0  0  0  0  0  0
  -15.2870    8.9350    0.1490 O   0  0  0  0  0  0  0  0  0  0  0  0
  -13.6360    9.6410   -1.5040 C   0  0  0  0  0  0  0  0  0  0  0  0
  -12.7800   10.8580   -1.9330 C   0  0  0  0  0  0  0  0  0  0  0  0
  -14.7760    9.5220   -2.5520 C   0  0  0  0  0  0  0  0  0  0  0  0
  -10.8210    7.0430   -0.1730 C   0  0  1  0  0  0  0  0  0  0  0  0
  -11.5700    5.9160    0.6010 C   0  0  0  0  0  0  0  0  0  0  0  0
   -9.5280    7.3730    0.6630 C   0  0  0  0  0  0  0  0  0  0  0  0
   -8.3280    7.9510   -0.1120 C   0  0  0  0  0  0  0  0  0  0  0  0
   -8.0230    7.1100   -1.3560 C   0  0  2  0  0  0  0  0  0  0  0  0
   -7.6190    5.6750   -0.8760 C   0  0  0  0  0  0  0  0  0  0  0  0
   -5.0262    5.5640   -0.8528 H   0  0  0  0  0  0  0  0  0  0  0  0
   -5.9080    5.3903   -2.4081 H   0  0  0  0  0  0  0  0  0  0  0  0
   -4.1593    5.8011   -2.4081 H   0  0  0  0  0  0  0  0  0  0  0  0
   -4.7856    7.9468   -2.5452 H   0  0  0  0  0  0  0  0  0  0  0  0
   -6.2060    8.4749   -0.1125 H   0  0  0  0  0  0  0  0  0  0  0  0
   -4.8924    7.2424    0.2023 H   0  0  0  0  0  0  0  0  0  0  0  0
   -4.4626    9.9281   -1.1578 H   0  0  0  0  0  0  0  0  0  0  0  0
   -4.1565    9.5700    0.5927 H   0  0  0  0  0  0  0  0  0  0  0  0
   -3.2683    7.7406   -1.2474 H   0  0  0  0  0  0  0  0  0  0  0  0
   -1.8214   11.4005   -0.1517 H   0  0  0  0  0  0  0  0  0  0  0  0
   -0.9222   11.4280   -1.7065 H   0  0  0  0  0  0  0  0  0  0  0  0
   -2.7115   11.2695   -1.7065 H   0  0  0  0  0  0  0  0  0  0  0  0
    0.2310    8.5160   -1.2100 H   0  0  0  0  0  0  0  0  0  0  0  0
   -0.9039    8.0995   -2.5386 H   0  0  0  0  0  0  0  0  0  0  0  0
   -0.0654    9.6880   -2.5386 H   0  0  0  0  0  0  0  0  0  0  0  0
   -6.9369    8.7350   -2.3328 H   0  0  0  0  0  0  0  0  0  0  0  0
   -7.1137    7.6341   -4.4750 H   0  0  0  0  0  0  0  0  0  0  0  0
   -6.5376    6.0884   -3.8156 H   0  0  0  0  0  0  0  0  0  0  0  0
   -9.2514    6.7123   -4.4555 H   0  0  0  0  0  0  0  0  0  0  0  0
   -8.7611    5.3415   -3.4634 H   0  0  0  0  0  0  0  0  0  0  0  0
   -9.8236    9.2460   -1.9553 H   0  0  0  0  0  0  0  0  0  0  0  0
   -8.8262    8.9868   -3.4265 H   0  0  0  0  0  0  0  0  0  0  0  0
  -10.5629    8.5280   -3.4265 H   0  0  0  0  0  0  0  0  0  0  0  0
  -10.1012    5.4375   -1.4499 H   0  0  0  0  0  0  0  0  0  0  0  0
  -11.4297    6.2124   -3.5165 H   0  0  0  0  0  0  0  0  0  0  0  0
  -12.2740    5.4279   -2.0807 H   0  0  0  0  0  0  0  0  0  0  0  0
  -13.4891    7.5032   -3.1562 H   0  0  0  0  0  0  0  0  0  0  0  0
  -10.9948    9.1391   -0.4362 H   0  0  0  0  0  0  0  0  0  0  0  0
  -13.1933    7.7930    1.2526 H   0  0  0  0  0  0  0  0  0  0  0  0
  -11.7461    8.7064    1.8711 H   0  0  0  0  0  0  0  0  0  0  0  0
  -13.8187   10.0528    1.9778 H   0  0  0  0  0  0  0  0  0  0  0  0
  -12.5752   10.7572    0.8718 H   0  0  0  0  0  0  0  0  0  0  0  0
  -14.7255   10.9277   -0.1776 H   0  0  0  0  0  0  0  0  0  0  0  0
  -15.8730    9.2910    0.8390 H   0  0  0  0  0  0  0  0  0  0  0  0
  -12.4120   11.3812   -1.0381 H   0  0  0  0  0  0  0  0  0  0  0  0
  -11.9253   10.5120   -2.5328 H   0  0  0  0  0  0  0  0  0  0  0  0
  -13.3946   11.5454   -2.5328 H   0  0  0  0  0  0  0  0  0  0  0  0
  -15.7412    9.4213   -2.0340 H   0  0  0  0  0  0  0  0  0  0  0  0
  -14.7904   10.4235   -3.1821 H   0  0  0  0  0  0  0  0  0  0  0  0
  -14.6039    8.6369   -3.1821 H   0  0  0  0  0  0  0  0  0  0  0  0
  -11.4612    6.0798    1.6833 H   0  0  0  0  0  0  0  0  0  0  0  0
  -12.6367    5.9336    0.3329 H   0  0  0  0  0  0  0  0  0  0  0  0
  -11.1407    4.9394    0.3329 H   0  0  0  0  0  0  0  0  0  0  0  0
   -9.8087    8.1043    1.4353 H   0  0  0  0  0  0  0  0  0  0  0  0
   -9.1806    6.4038    1.0502 H   0  0  0  0  0  0  0  0  0  0  0  0
   -8.5616    8.9803   -0.4217 H   0  0  0  0  0  0  0  0  0  0  0  0
   -7.4462    7.9378    0.5455 H   0  0  0  0  0  0  0  0  0  0  0  0
   -7.6106    5.6450    0.2236 H   0  0  0  0  0  0  0  0  0  0  0  0
   -8.3459    4.9427   -1.2572 H   0  0  0  0  0  0  0  0  0  0  0  0
   -6.6168    5.4295   -1.2572 H   0  0  0  0  0  0  0  0  0  0  0  0
  1  2  1  0
  2  3  1  0
  3  4  1  0
  4  5  1  0
  5  6  1  0
  6  7  1  0
  7  8  1  0
  7  9  1  0
  2 10  1  0
 10 11  1  0
 11 12  1  0
 12 13  1  0
 13 14  1  6
 13 15  1  0
 15 16  1  0
 16 17  1  0
 17 18  2  0
 18 19  1  0
 19 20  1  0
 20 21  1  0
 21 22  1  0
 22 23  1  0
 22 24  1  0
 24 25  1  0
 24 26  1  0
 19 27  1  0
 27 28  1  1
 27 29  1  0
 29 30  1  0
 30 31  1  0
 31 32  1  1
  7  5  1  0
 31 10  1  0
 31 13  1  0
 27 15  1  0
 24 18  1  0
  1 33  1  0
  1 34  1  0
  1 35  1  0
  2 36  1  6
  3 37  1  0
  3 38  1  0
  4 39  1  0
  4 40  1  0
  5 41  1  6
  8 42  1  0
  8 43  1  0
  8 44  1  0
  9 45  1  0
  9 46  1  0
  9 47  1  0
 10 48  1  6
 11 49  1  0
 11 50  1  0
 12 51  1  0
 12 52  1  0
 14 53  1  0
 14 54  1  0
 14 55  1  0
 15 56  1  1
 16 57  1  0
 16 58  1  0
 17 59  1  0
 19 60  1  6
 20 61  1  0
 20 62  1  0
 21 63  1  0
 21 64  1  0
 22 65  1  6
 23 66  1  0
 25 67  1  0
 25 68  1  0
 25 69  1  0
 26 70  1  0
 26 71  1  0
 26 72  1  0
 28 73  1  0
 28 74  1  0
 28 75  1  0
 29 76  1  0
 29 77  1  0
 30 78  1  0
 30 79  1  0
 32 80  1  0
 32 81  1  0
 32 82  1  0
M  END
>  <meeko>  (7) 
{"is_sidechain": [false], "intermolecular_energy": 2.731, "internal_energy": -0.839}

$$$$
EPH_relaxed_0001_pdb2pqr_Repair_172_r2_0001_out
     RDKit          3D

 82 86  0  0  0  0  0  0  0  0999 V2000
    4.5380   16.3340   -0.1300 C   0  0  0  0  0  0  0  0  0  0  0  0
    3.2150   17.0290   -0.4620 C   0  0  2  0  0  0  0  0  0  0  0  0
    2.9760   18.2740    0.4170 C   0  0  0  0  0  0  0  0  0  0  0  0
    2.4840   19.4940   -0.3650 C   0  0  0  0  0  0  0  0  0  0  0  0
    1.7160   19.0960   -1.5890 C   0  0  2  0  0  0  0  0  0  0  0  0
    1.2910   20.1900   -2.4110 O   0  0  0  0  0  0  0  0  0  0  0  0
    0.2470   19.4180   -1.7960 C   0  0  0  0  0  0  0  0  0  0  0  0
   -0.5390   20.1680   -0.7670 C   0  0  0  0  0  0  0  0  0  0  0  0
   -0.5380   18.5870   -2.7620 C   0  0  0  0  0  0  0  0  0  0  0  0
    2.0590   16.0490   -0.3030 C   0  0  1  0  0  0  0  0  0  0  0  0
    0.6820   16.7590   -0.2120 C   0  0  0  0  0  0  0  0  0  0  0  0
   -0.3440   15.8370   -0.9190 C   0  0  0  0  0  0  0  0  0  0  0  0
    0.3980   14.4920   -1.0970 C   0  0  1  0  0  0  0  0  0  0  0  0
    0.2740   13.7800    0.2870 C   0  0  0  0  0  0  0  0  0  0  0  0
   -0.1000   13.5770   -2.2630 C   0  0  2  0  0  0  0  0  0  0  0  0
   -1.5530   13.0900   -2.1350 C   0  0  0  0  0  0  0  0  0  0  0  0
   -1.7300   11.7920   -1.4180 C   0  0  0  0  0  0  0  0  0  0  0  0
   -0.7510   10.9090   -1.1470 C   0  0  0  0  0  0  0  0  0  0  0  0
    0.6770   11.1330   -1.6610 C   0  0  1  0  0  0  0  0  0  0  0  0
    1.2160    9.8170   -2.2810 C   0  0  0  0  0  0  0  0  0  0  0  0
    1.1210    8.6360   -1.3210 C   0  0  0  0  0  0  0  0  0  0  0  0
   -0.3220    8.4090   -0.8780 C   0  0  2  0  0  0  0  0  0  0  0  0
   -1.0900    7.9850   -2.0080 O   0  0  0  0  0  0  0  0  0  0  0  0
   -0.9750    9.6700   -0.2460 C   0  0  0  0  0  0  0  0  0  0  0  0
   -0.3330    9.9510    1.1360 C   0  0  0  0  0  0  0  0  0  0  0  0
   -2.4690    9.3480    0.0270 C   0  0  0  0  0  0  0  0  0  0  0  0
    0.8810   12.3870   -2.6160 C   0  0  1  0  0  0  0  0  0  0  0  0
    0.5800   11.9850   -4.0930 C   0  0  0  0  0  0  0  0  0  0  0  0
    2.3930   12.8240   -2.5750 C   0  0  0  0  0  0  0  0  0  0  0  0
    2.7970   13.8220   -1.4730 C   0  0  0  0  0  0  0  0  0  0  0  0
    1.8400   15.0170   -1.4370 C   0  0  2  0  0  0  0  0  0  0  0  0
    1.9590   15.7660   -2.8080 C   0  0  0  0  0  0  0  0  0  0  0  0
    4.6558   16.2721    0.9619 H   0  0  0  0  0  0  0  0  0  0  0  0
    4.5367   15.3201   -0.5567 H   0  0  0  0  0  0  0  0  0  0  0  0
    5.3721   16.9103   -0.5567 H   0  0  0  0  0  0  0  0  0  0  0  0
    3.2728   17.3690   -1.5065 H   0  0  0  0  0  0  0  0  0  0  0  0
    2.2226   18.0224    1.1780 H   0  0  0  0  0  0  0  0  0  0  0  0
    3.9455   18.5457    0.8599 H   0  0  0  0  0  0  0  0  0  0  0  0
    1.8314   20.0948    0.2855 H   0  0  0  0  0  0  0  0  0  0  0  0
    3.3628   20.0729   -0.6852 H   0  0  0  0  0  0  0  0  0  0  0  0
    2.2844   18.1577   -1.6696 H   0  0  0  0  0  0  0  0  0  0  0  0
   -0.2156   19.8594    0.2381 H   0  0  0  0  0  0  0  0  0  0  0  0
   -0.3696   21.2477   -0.8913 H   0  0  0  0  0  0  0  0  0  0  0  0
   -1.6096   19.9482   -0.8913 H   0  0  0  0  0  0  0  0  0  0  0  0
   -1.1900   17.8968   -2.2065 H   0  0  0  0  0  0  0  0  0  0  0  0
   -1.1534   19.2435   -3.3947 H   0  0  0  0  0  0  0  0  0  0  0  0
    0.1524   18.0100   -3.3947 H   0  0  0  0  0  0  0  0  0  0  0  0
    2.3781   15.5358    0.6161 H   0  0  0  0  0  0  0  0  0  0  0  0
    0.3990   16.9032    0.8411 H   0  0  0  0  0  0  0  0  0  0  0  0
    0.7163   17.7500   -0.6882 H   0  0  0  0  0  0  0  0  0  0  0  0
   -1.2416   15.7059   -0.2968 H   0  0  0  0  0  0  0  0  0  0  0  0
   -0.6882   16.2535   -1.8771 H   0  0  0  0  0  0  0  0  0  0  0  0
    0.4026   14.5185    1.0921 H   0  0  0  0  0  0  0  0  0  0  0  0
   -0.7188   13.3141    0.3720 H   0  0  0  0  0  0  0  0  0  0  0  0
    1.0508   13.0059    0.3720 H   0  0  0  0  0  0  0  0  0  0  0  0
   -0.0910   14.2633   -3.1226 H   0  0  0  0  0  0  0  0  0  0  0  0
   -2.1225   13.8586   -1.5920 H   0  0  0  0  0  0  0  0  0  0  0  0
   -1.9089   12.9213   -3.1621 H   0  0  0  0  0  0  0  0  0  0  0  0
   -2.7460   11.5360   -1.0832 H   0  0  0  0  0  0  0  0  0  0  0  0
    1.2787   11.4045   -0.7811 H   0  0  0  0  0  0  0  0  0  0  0  0
    0.6300    9.5863   -3.1828 H   0  0  0  0  0  0  0  0  0  0  0  0
    2.2793    9.9704   -2.5172 H   0  0  0  0  0  0  0  0  0  0  0  0
    1.4894    7.7308   -1.8260 H   0  0  0  0  0  0  0  0  0  0  0  0
    1.7311    8.8554   -0.4324 H   0  0  0  0  0  0  0  0  0  0  0  0
   -0.3085    7.6370   -0.0945 H   0  0  0  0  0  0  0  0  0  0  0  0
   -2.0040    7.8450   -1.7070 H   0  0  0  0  0  0  0  0  0  0  0  0
   -1.0284    9.6466    1.9321 H   0  0  0  0  0  0  0  0  0  0  0  0
    0.6027    9.3802    1.2285 H   0  0  0  0  0  0  0  0  0  0  0  0
   -0.1175   11.0257    1.2285 H   0  0  0  0  0  0  0  0  0  0  0  0
   -2.6436    9.3104    1.1124 H   0  0  0  0  0  0  0  0  0  0  0  0
   -3.1002   10.1307   -0.4190 H   0  0  0  0  0  0  0  0  0  0  0  0
   -2.7218    8.3748   -0.4190 H   0  0  0  0  0  0  0  0  0  0  0  0
   -0.0793   11.1045   -4.1063 H   0  0  0  0  0  0  0  0  0  0  0  0
    0.0846   12.8218   -4.6071 H   0  0  0  0  0  0  0  0  0  0  0  0
    1.5225   11.7452   -4.6071 H   0  0  0  0  0  0  0  0  0  0  0  0
    2.9986   11.9157   -2.4399 H   0  0  0  0  0  0  0  0  0  0  0  0
    2.5652   13.3555   -3.5225 H   0  0  0  0  0  0  0  0  0  0  0  0
    2.7720   13.3117   -0.4988 H   0  0  0  0  0  0  0  0  0  0  0  0
    3.8105   14.1911   -1.6889 H   0  0  0  0  0  0  0  0  0  0  0  0
    2.1292   16.8375   -2.6268 H   0  0  0  0  0  0  0  0  0  0  0  0
    2.8027   15.3522   -3.3799 H   0  0  0  0  0  0  0  0  0  0  0  0
    1.0286   15.6341   -3.3799 H   0  0  0  0  0  0  0  0  0  0  0  0
  1  2  1  0
  2  3  1  0
  3  4  1  0
  4  5  1  0
  5  6  1  0
  6  7  1  0
  7  8  1  0
  7  9  1  0
  2 10  1  0
 10 11  1  0
 11 12  1  0
 12 13  1  0
 13 14  1  1
 13 15  1  0
 15 16  1  0
 16 17  1  0
 17 18  2  0
 18 19  1  0
 19 20  1  0
 20 21  1  0
 21 22  1  0
 22 23  1  0
 22 24  1  0
 24 25  1  0
 24 26  1  0
 19 27  1  0
 27 28  1  6
 27 29  1  0
 29 30  1  0
 30 31  1  0
 31 32  1  6
  7  5  1  0
 31 10  1  0
 31 13  1  0
 27 15  1  0
 24 18  1  0
  1 33  1  0
  1 34  1  0
  1 35  1  0
  2 36  1  6
  3 37  1  0
  3 38  1  0
  4 39  1  0
  4 40  1  0
  5 41  1  6
  8 42  1  0
  8 43  1  0
  8 44  1  0
  9 45  1  0
  9 46  1  0
  9 47  1  0
 10 48  1  1
 11 49  1  0
 11 50  1  0
 12 51  1  0
 12 52  1  0
 14 53  1  0
 14 54  1  0
 14 55  1  0
 15 56  1  6
 16 57  1  0
 16 58  1  0
 17 59  1  0
 19 60  1  1
 20 61  1  0
 20 62  1  0
 21 63  1  0
 21 64  1  0
 22 65  1  1
 23 66  1  0
 25 67  1  0
 25 68  1  0
 25 69  1  0
 26 70  1  0
 26 71  1  0
 26 72  1  0
 28 73  1  0
 28 74  1  0
 28 75  1  0
 29 76  1  0
 29 77  1  0
 30 78  1  0
 30 79  1  0
 32 80  1  0
 32 81  1  0
 32 82  1  0
M  END
>  <meeko>  (8) 
{"is_sidechain": [false], "intermolecular_energy": 2.731, "internal_energy": -0.839}

$$$$
EPH_relaxed_0001_pdb2pqr_Repair_172_r2_0001_out
     RDKit          3D

 82 86  0  0  0  0  0  0  0  0999 V2000
    0.4190    8.8030   -2.4030 C   0  0  0  0  0  0  0  0  0  0  0  0
    1.1620    9.9480   -3.0980 C   0  0  2  0  0  0  0  0  0  0  0  0
    2.6640    9.9610   -2.7500 C   0  0  0  0  0  0  0  0  0  0  0  0
    3.5410   10.5970   -3.8330 C   0  0  0  0  0  0  0  0  0  0  0  0
    4.9360   10.8420   -3.3430 C   0  0  2  0  0  0  0  0  0  0  0  0
    5.5420   12.0440   -3.8370 O   0  0  0  0  0  0  0  0  0  0  0  0
    6.1560   10.8100   -4.2440 C   0  0  0  0  0  0  0  0  0  0  0  0
    6.0380   10.5260   -5.7080 C   0  0  0  0  0  0  0  0  0  0  0  0
    7.4980   10.5720   -3.6240 C   0  0  0  0  0  0  0  0  0  0  0  0
    0.5280   11.2820   -2.7240 C   0  0  1  0  0  0  0  0  0  0  0  0
   -0.8480   11.1150   -2.0250 C   0  0  0  0  0  0  0  0  0  0  0  0
   -0.9570   12.2500   -0.9750 C   0  0  0  0  0  0  0  0  0  0  0  0
    0.1950   13.2200   -1.3280 C   0  0  1  0  0  0  0  0  0  0  0  0
   -0.3550   14.0850   -2.5060 C   0  0  0  0  0  0  0  0  0  0  0  0
    0.7310   14.1100   -0.1600 C   0  0  2  0  0  0  0  0  0  0  0  0
   -0.2950   15.0880    0.4400 C   0  0  0  0  0  0  0  0  0  0  0  0
   -0.3360   16.4380   -0.1960 C   0  0  0  0  0  0  0  0  0  0  0  0
    0.6050   16.9470   -1.0120 C   0  0  0  0  0  0  0  0  0  0  0  0
    1.9030   16.1800   -1.2930 C   0  0  1  0  0  0  0  0  0  0  0  0
    3.1130   17.1420   -1.1620 C   0  0  0  0  0  0  0  0  0  0  0  0
    2.9690   18.3850   -2.0360 C   0  0  0  0  0  0  0  0  0  0  0  0
    1.6960   19.1520   -1.6870 C   0  0  2  0  0  0  0  0  0  0  0  0
    1.8270   19.6860   -0.3660 O   0  0  0  0  0  0  0  0  0  0  0  0
    0.4120   18.2820   -1.7750 C   0  0  0  0  0  0  0  0  0  0  0  0
    0.1050   17.9540   -3.2570 C   0  0  0  0  0  0  0  0  0  0  0  0
   -0.7800   19.1350   -1.2630 C   0  0  0  0  0  0  0  0  0  0  0  0
    2.1030   14.8330   -0.4730 C   0  0  1  0  0  0  0  0  0  0  0  0
    2.7680   15.1420    0.9030 C   0  0  0  0  0  0  0  0  0  0  0  0
    3.1060   13.9020   -1.2520 C   0  0  0  0  0  0  0  0  0  0  0  0
    2.5010   12.9590   -2.3090 C   0  0  0  0  0  0  0  0  0  0  0  0
    1.3070   12.1880   -1.7380 C   0  0  2  0  0  0  0  0  0  0  0  0
    1.8340   11.2920   -0.5650 C   0  0  0  0  0  0  0  0  0  0  0  0
    0.4973    8.9237   -1.3124 H   0  0  0  0  0  0  0  0  0  0  0  0
   -0.6404    8.8204   -2.6987 H   0  0  0  0  0  0  0  0  0  0  0  0
    0.8665    7.8426   -2.6987 H   0  0  0  0  0  0  0  0  0  0  0  0
    1.0764    9.7879   -4.1829 H   0  0  0  0  0  0  0  0  0  0  0  0
    2.7994   10.5270   -1.8166 H   0  0  0  0  0  0  0  0  0  0  0  0
    2.9811    8.9121   -2.6542 H   0  0  0  0  0  0  0  0  0  0  0  0
    3.5813    9.9224   -4.7009 H   0  0  0  0  0  0  0  0  0  0  0  0
    3.0986   11.5660   -4.1074 H   0  0  0  0  0  0  0  0  0  0  0  0
    4.7121   10.3477   -2.3862 H   0  0  0  0  0  0  0  0  0  0  0  0
    5.6197    9.5191   -5.8536 H   0  0  0  0  0  0  0  0  0  0  0  0
    5.3744   11.2696   -6.1734 H   0  0  0  0  0  0  0  0  0  0  0  0
    7.0332   10.5804   -6.1734 H   0  0  0  0  0  0  0  0  0  0  0  0
    7.4038   10.5887   -2.5282 H   0  0  0  0  0  0  0  0  0  0  0  0
    7.8812    9.5919   -3.9442 H   0  0  0  0  0  0  0  0  0  0  0  0
    8.1949   11.3606   -3.9442 H   0  0  0  0  0  0  0  0  0  0  0  0
    0.4895   11.7524   -3.7176 H   0  0  0  0  0  0  0  0  0  0  0  0
   -1.6601   11.2014   -2.7619 H   0  0  0  0  0  0  0  0  0  0  0  0
   -0.9317   10.1270   -1.5487 H   0  0  0  0  0  0  0  0  0  0  0  0
   -1.9297   12.7580   -1.0518 H   0  0  0  0  0  0  0  0  0  0  0  0
   -0.8839   11.8731    0.0558 H   0  0  0  0  0  0  0  0  0  0  0  0
   -0.9039   14.9483   -2.1018 H   0  0  0  0  0  0  0  0  0  0  0  0
    0.4837   14.4399   -3.1230 H   0  0  0  0  0  0  0  0  0  0  0  0
   -1.0322   13.4761   -3.1230 H   0  0  0  0  0  0  0  0  0  0  0  0
    0.9327   13.3685    0.6271 H   0  0  0  0  0  0  0  0  0  0  0  0
   -1.2930   14.6358    0.3426 H   0  0  0  0  0  0  0  0  0  0  0  0
    0.0142   15.2519    1.4828 H   0  0  0  0  0  0  0  0  0  0  0  0
   -1.2096   17.0702    0.0209 H   0  0  0  0  0  0  0  0  0  0  0  0
    1.8244   15.8192   -2.3292 H   0  0  0  0  0  0  0  0  0  0  0  0
    3.2008   17.4574   -0.1119 H   0  0  0  0  0  0  0  0  0  0  0  0
    4.0091   16.5995   -1.4977 H   0  0  0  0  0  0  0  0  0  0  0  0
    3.8387   19.0395   -1.8773 H   0  0  0  0  0  0  0  0  0  0  0  0
    2.9121   18.0699   -3.0884 H   0  0  0  0  0  0  0  0  0  0  0  0
    1.5808   19.9548   -2.4301 H   0  0  0  0  0  0  0  0  0  0  0  0
    1.5070   20.6030   -0.3860 H   0  0  0  0  0  0  0  0  0  0  0  0
   -0.6459   17.1517   -3.3070 H   0  0  0  0  0  0  0  0  0  0  0  0
   -0.2843   18.8524   -3.7583 H   0  0  0  0  0  0  0  0  0  0  0  0
    1.0271   17.6249   -3.7583 H   0  0  0  0  0  0  0  0  0  0  0  0
   -0.7834   19.1374   -0.1630 H   0  0  0  0  0  0  0  0  0  0  0  0
   -0.6779   20.1664   -1.6316 H   0  0  0  0  0  0  0  0  0  0  0  0
   -1.7232   18.7056   -1.6316 H   0  0  0  0  0  0  0  0  0  0  0  0
    2.0944   14.8290    1.7143 H   0  0  0  0  0  0  0  0  0  0  0  0
    3.7179   14.5930    0.9827 H   0  0  0  0  0  0  0  0  0  0  0  0
    2.9609   16.2220    0.9827 H   0  0  0  0  0  0  0  0  0  0  0  0
    3.8338   14.5502   -1.7621 H   0  0  0  0  0  0  0  0  0  0  0  0
    3.5358   13.2386   -0.4870 H   0  0  0  0  0  0  0  0  0  0  0  0
    2.1659   13.5535   -3.1717 H   0  0  0  0  0  0  0  0  0  0  0  0
    3.2712   12.2357   -2.6150 H   0  0  0  0  0  0  0  0  0  0  0  0
    1.5638   11.7514    0.3972 H   0  0  0  0  0  0  0  0  0  0  0  0
    1.3799   10.2925   -0.6345 H   0  0  0  0  0  0  0  0  0  0  0  0
    2.9282   11.2032   -0.6345 H   0  0  0  0  0  0  0  0  0  0  0  0
  1  2  1  0
  2  3  1  0
  3  4  1  0
  4  5  1  0
  5  6  1  0
  6  7  1  0
  7  8  1  0
  7  9  1  0
  2 10  1  0
 10 11  1  0
 11 12  1  0
 12 13  1  0
 13 14  1  6
 13 15  1  0
 15 16  1  0
 16 17  1  0
 17 18  2  0
 18 19  1  0
 19 20  1  0
 20 21  1  0
 21 22  1  0
 22 23  1  0
 22 24  1  0
 24 25  1  0
 24 26  1  0
 19 27  1  0
 27 28  1  1
 27 29  1  0
 29 30  1  0
 30 31  1  0
 31 32  1  1
  7  5  1  0
 31 10  1  0
 31 13  1  0
 27 15  1  0
 24 18  1  0
  1 33  1  0
  1 34  1  0
  1 35  1  0
  2 36  1  6
  3 37  1  0
  3 38  1  0
  4 39  1  0
  4 40  1  0
  5 41  1  1
  8 42  1  0
  8 43  1  0
  8 44  1  0
  9 45  1  0
  9 46  1  0
  9 47  1  0
 10 48  1  6
 11 49  1  0
 11 50  1  0
 12 51  1  0
 12 52  1  0
 14 53  1  0
 14 54  1  0
 14 55  1  0
 15 56  1  1
 16 57  1  0
 16 58  1  0
 17 59  1  0
 19 60  1  6
 20 61  1  0
 20 62  1  0
 21 63  1  0
 21 64  1  0
 22 65  1  6
 23 66  1  0
 25 67  1  0
 25 68  1  0
 25 69  1  0
 26 70  1  0
 26 71  1  0
 26 72  1  0
 28 73  1  0
 28 74  1  0
 28 75  1  0
 29 76  1  0
 29 77  1  0
 30 78  1  0
 30 79  1  0
 32 80  1  0
 32 81  1  0
 32 82  1  0
M  END
>  <meeko>  (9) 
{"is_sidechain": [false], "intermolecular_energy": 2.731, "internal_energy": -0.839}

$$$$
EPH_relaxed_0001_pdb2pqr_Repair_172_r2_0001_out
     RDKit          3D

 82 86  0  0  0  0  0  0  0  0999 V2000
   -0.2260   10.5450   -4.0720 C   0  0  0  0  0  0  0  0  0  0  0  0
    0.9160   10.3290   -3.0750 C   0  0  2  0  0  0  0  0  0  0  0  0
    0.7730    9.0000   -2.3060 C   0  0  0  0  0  0  0  0  0  0  0  0
   -0.6700    8.6670   -1.9160 C   0  0  0  0  0  0  0  0  0  0  0  0
   -0.9420    8.9830   -0.4770 C   0  0  2  0  0  0  0  0  0  0  0  0
   -2.3310    9.0460   -0.1300 O   0  0  0  0  0  0  0  0  0  0  0  0
   -1.5920   10.2720   -0.0110 C   0  0  0  0  0  0  0  0  0  0  0  0
   -2.0090   11.3310   -0.9830 C   0  0  0  0  0  0  0  0  0  0  0  0
   -1.3770   10.7120    1.4040 C   0  0  0  0  0  0  0  0  0  0  0  0
    0.9760   11.4950   -2.0940 C   0  0  1  0  0  0  0  0  0  0  0  0
    2.0020   11.2630   -0.9530 C   0  0  0  0  0  0  0  0  0  0  0  0
    2.6170   12.6460   -0.6160 C   0  0  0  0  0  0  0  0  0  0  0  0
    1.6990   13.6650   -1.3310 C   0  0  1  0  0  0  0  0  0  0  0  0
    0.4740   13.8370   -0.3790 C   0  0  0  0  0  0  0  0  0  0  0  0
    2.3450   15.0410   -1.6940 C   0  0  2  0  0  0  0  0  0  0  0  0
    2.8220   15.8760   -0.4930 C   0  0  0  0  0  0  0  0  0  0  0  0
    1.8100   16.8180    0.0710 C   0  0  0  0  0  0  0  0  0  0  0  0
    0.6700   17.1970   -0.5370 C   0  0  0  0  0  0  0  0  0  0  0  0
    0.3500   16.7400   -1.9660 C   0  0  1  0  0  0  0  0  0  0  0  0
   -0.1370   17.9540   -2.8000 C   0  0  0  0  0  0  0  0  0  0  0  0
   -1.3070   18.6830   -2.1440 C   0  0  0  0  0  0  0  0  0  0  0  0
   -0.9310   19.1720   -0.7480 C   0  0  2  0  0  0  0  0  0  0  0  0
    0.0710   20.1860   -0.8690 O   0  0  0  0  0  0  0  0  0  0  0  0
   -0.4150   18.0370    0.1800 C   0  0  0  0  0  0  0  0  0  0  0  0
   -1.5880   17.0970    0.5550 C   0  0  0  0  0  0  0  0  0  0  0  0
    0.0620   18.6860    1.5080 C   0  0  0  0  0  0  0  0  0  0  0  0
    1.4910   15.9130   -2.7010 C   0  0  1  0  0  0  0  0  0  0  0  0
    2.4860   16.8870   -3.4030 C   0  0  0  0  0  0  0  0  0  0  0  0
    0.8410   15.0440   -3.8430 C   0  0  0  0  0  0  0  0  0  0  0  0
    0.3290   13.6470   -3.4460 C   0  0  0  0  0  0  0  0  0  0  0  0
    1.3920   12.8770   -2.6560 C   0  0  2  0  0  0  0  0  0  0  0  0
    2.6280   12.6690   -3.5960 C   0  0  0  0  0  0  0  0  0  0  0  0
   -1.1629   10.7222   -3.5236 H   0  0  0  0  0  0  0  0  0  0  0  0
   -0.0008   11.4165   -4.7043 H   0  0  0  0  0  0  0  0  0  0  0  0
   -0.3346    9.6515   -4.7043 H   0  0  0  0  0  0  0  0  0  0  0  0
    1.8523   10.2776   -3.6501 H   0  0  0  0  0  0  0  0  0  0  0  0
    1.1573    8.1882   -2.9410 H   0  0  0  0  0  0  0  0  0  0  0  0
    1.3424    9.1066   -1.3709 H   0  0  0  0  0  0  0  0  0  0  0  0
   -1.3542    9.2549   -2.5456 H   0  0  0  0  0  0  0  0  0  0  0  0
   -0.8255    7.5884   -2.0656 H   0  0  0  0  0  0  0  0  0  0  0  0
   -0.0220    8.4665   -0.1660 H   0  0  0  0  0  0  0  0  0  0  0  0
   -2.3579   12.2171   -0.4325 H   0  0  0  0  0  0  0  0  0  0  0  0
   -1.1521   11.6062   -1.6154 H   0  0  0  0  0  0  0  0  0  0  0  0
   -2.8235   10.9480   -1.6154 H   0  0  0  0  0  0  0  0  0  0  0  0
   -1.7546    9.9392    2.0897 H   0  0  0  0  0  0  0  0  0  0  0  0
   -0.3023   10.8657    1.5809 H   0  0  0  0  0  0  0  0  0  0  0  0
   -1.9162   11.6543    1.5809 H   0  0  0  0  0  0  0  0  0  0  0  0
   -0.0761   11.5208   -1.7739 H   0  0  0  0  0  0  0  0  0  0  0  0
    1.4972   10.8473   -0.0685 H   0  0  0  0  0  0  0  0  0  0  0  0
    2.7803   10.5492   -1.2609 H   0  0  0  0  0  0  0  0  0  0  0  0
    2.6155   12.8174    0.4706 H   0  0  0  0  0  0  0  0  0  0  0  0
    3.6645   12.7276   -0.9416 H   0  0  0  0  0  0  0  0  0  0  0  0
    0.8126   13.7895    0.6665 H   0  0  0  0  0  0  0  0  0  0  0  0
   -0.0021   14.8108   -0.5663 H   0  0  0  0  0  0  0  0  0  0  0  0
   -0.2518   13.0320   -0.5663 H   0  0  0  0  0  0  0  0  0  0  0  0
    3.2576   14.7382   -2.2283 H   0  0  0  0  0  0  0  0  0  0  0  0
    3.1225   15.1819    0.3057 H   0  0  0  0  0  0  0  0  0  0  0  0
    3.6461   16.5021   -0.8657 H   0  0  0  0  0  0  0  0  0  0  0  0
    2.0130   17.2378    1.0673 H   0  0  0  0  0  0  0  0  0  0  0  0
   -0.4590   16.0002   -1.8755 H   0  0  0  0  0  0  0  0  0  0  0  0
    0.6983   18.6603   -2.9157 H   0  0  0  0  0  0  0  0  0  0  0  0
   -0.4832   17.5739   -3.7724 H   0  0  0  0  0  0  0  0  0  0  0  0
   -1.5867   19.5469   -2.7649 H   0  0  0  0  0  0  0  0  0  0  0  0
   -2.1514   17.9836   -2.0555 H   0  0  0  0  0  0  0  0  0  0  0  0
   -1.8442   19.5692   -0.2807 H   0  0  0  0  0  0  0  0  0  0  0  0
    0.2690   20.5120    0.0250 H   0  0  0  0  0  0  0  0  0  0  0  0
   -1.6697   17.0315    1.6500 H   0  0  0  0  0  0  0  0  0  0  0  0
   -2.5252   17.4969    0.1406 H   0  0  0  0  0  0  0  0  0  0  0  0
   -1.4019   16.0952    0.1406 H   0  0  0  0  0  0  0  0  0  0  0  0
   -0.3505   18.1247    2.3593 H   0  0  0  0  0  0  0  0  0  0  0  0
    1.1609   18.6646    1.5526 H   0  0  0  0  0  0  0  0  0  0  0  0
   -0.2865   19.7284    1.5526 H   0  0  0  0  0  0  0  0  0  0  0  0
    3.0536   17.4426   -2.6420 H   0  0  0  0  0  0  0  0  0  0  0  0
    3.1814   16.3109   -4.0311 H   0  0  0  0  0  0  0  0  0  0  0  0
    1.9249   17.5946   -4.0311 H   0  0  0  0  0  0  0  0  0  0  0  0
   -0.0123   15.6090   -4.2464 H   0  0  0  0  0  0  0  0  0  0  0  0
    1.6528   14.8596   -4.5619 H   0  0  0  0  0  0  0  0  0  0  0  0
   -0.5717   13.7572   -2.8243 H   0  0  0  0  0  0  0  0  0  0  0  0
    0.0979   13.0848   -4.3628 H   0  0  0  0  0  0  0  0  0  0  0  0
    3.5309   12.5171   -2.9863 H   0  0  0  0  0  0  0  0  0  0  0  0
    2.4614   11.7863   -4.2308 H   0  0  0  0  0  0  0  0  0  0  0  0
    2.7595   13.5576   -4.2308 H   0  0  0  0  0  0  0  0  0  0  0  0
  1  2  1  0
  2  3  1  0
  3  4  1  0
  4  5  1  0
  5  6  1  0
  6  7  1  0
  7  8  1  0
  7  9  1  0
  2 10  1  0
 10 11  1  0
 11 12  1  0
 12 13  1  0
 13 14  1  1
 13 15  1  0
 15 16  1  0
 16 17  1  0
 17 18  2  0
 18 19  1  0
 19 20  1  0
 20 21  1  0
 21 22  1  0
 22 23  1  0
 22 24  1  0
 24 25  1  0
 24 26  1  0
 19 27  1  0
 27 28  1  6
 27 29  1  0
 29 30  1  0
 30 31  1  0
 31 32  1  6
  7  5  1  0
 31 10  1  0
 31 13  1  0
 27 15  1  0
 24 18  1  0
  1 33  1  0
  1 34  1  0
  1 35  1  0
  2 36  1  6
  3 37  1  0
  3 38  1  0
  4 39  1  0
  4 40  1  0
  5 41  1  1
  8 42  1  0
  8 43  1  0
  8 44  1  0
  9 45  1  0
  9 46  1  0
  9 47  1  0
 10 48  1  1
 11 49  1  0
 11 50  1  0
 12 51  1  0
 12 52  1  0
 14 53  1  0
 14 54  1  0
 14 55  1  0
 15 56  1  6
 16 57  1  0
 16 58  1  0
 17 59  1  0
 19 60  1  1
 20 61  1  0
 20 62  1  0
 21 63  1  0
 21 64  1  0
 22 65  1  1
 23 66  1  0
 25 67  1  0
 25 68  1  0
 25 69  1  0
 26 70  1  0
 26 71  1  0
 26 72  1  0
 28 73  1  0
 28 74  1  0
 28 75  1  0
 29 76  1  0
 29 77  1  0
 30 78  1  0
 30 79  1  0
 32 80  1  0
 32 81  1  0
 32 82  1  0
M  END
>  <meeko>  (10) 
{"is_sidechain": [false], "intermolecular_energy": 2.731, "internal_energy": -0.839}

$$$$
EPH_relaxed_0001_pdb2pqr_Repair_172_r2_0001_out
     RDKit          3D

 82 86  0  0  0  0  0  0  0  0999 V2000
    1.2240   19.6880   -1.9730 C   0  0  0  0  0  0  0  0  0  0  0  0
    1.3990   19.3710   -0.4850 C   0  0  2  0  0  0  0  0  0  0  0  0
    2.8350   19.6510    0.0040 C   0  0  0  0  0  0  0  0  0  0  0  0
    2.9790   19.6420    1.5280 C   0  0  0  0  0  0  0  0  0  0  0  0
    4.4010   19.4250    1.9490 C   0  0  2  0  0  0  0  0  0  0  0  0
    4.6020   18.3110    2.8280 O   0  0  0  0  0  0  0  0  0  0  0  0
    4.8890   19.6090    3.3740 C   0  0  0  0  0  0  0  0  0  0  0  0
    3.9590   20.0270    4.4690 C   0  0  0  0  0  0  0  0  0  0  0  0
    6.3470   19.8570    3.6050 C   0  0  0  0  0  0  0  0  0  0  0  0
    1.0320   17.9160   -0.2160 C   0  0  1  0  0  0  0  0  0  0  0  0
   -0.3380   17.7680    0.4970 C   0  0  0  0  0  0  0  0  0  0  0  0
   -0.9900   16.4720   -0.0500 C   0  0  0  0  0  0  0  0  0  0  0  0
    0.1520   15.7480   -0.8000 C   0  0  1  0  0  0  0  0  0  0  0  0
    0.9650   15.0190    0.3150 C   0  0  0  0  0  0  0  0  0  0  0  0
   -0.2810   14.7650   -1.9350 C   0  0  2  0  0  0  0  0  0  0  0  0
   -1.1270   13.5660   -1.4720 C   0  0  0  0  0  0  0  0  0  0  0  0
   -0.3520   12.3460   -1.0970 C   0  0  0  0  0  0  0  0  0  0  0  0
    0.9400   12.1170   -1.3960 C   0  0  0  0  0  0  0  0  0  0  0  0
    1.7310   13.0980   -2.2710 C   0  0  1  0  0  0  0  0  0  0  0  0
    2.5200   12.3100   -3.3500 C   0  0  0  0  0  0  0  0  0  0  0  0
    3.4030   11.2200   -2.7500 C   0  0  0  0  0  0  0  0  0  0  0  0
    2.5720   10.2320   -1.9360 C   0  0  2  0  0  0  0  0  0  0  0  0
    1.7100    9.5140   -2.8240 O   0  0  0  0  0  0  0  0  0  0  0  0
    1.7260   10.9120   -0.8230 C   0  0  0  0  0  0  0  0  0  0  0  0
    2.6610   11.4310    0.2970 C   0  0  0  0  0  0  0  0  0  0  0  0
    0.8300    9.8250   -0.1720 C   0  0  0  0  0  0  0  0  0  0  0  0
    0.9010   14.3070   -2.8830 C   0  0  1  0  0  0  0  0  0  0  0  0
    0.2480   13.8750   -4.2320 C   0  0  0  0  0  0  0  0  0  0  0  0
    1.8850   15.4870   -3.2240 C   0  0  0  0  0  0  0  0  0  0  0  0
    2.1810   16.4940   -2.0960 C   0  0  0  0  0  0  0  0  0  0  0  0
    0.8840   16.9820   -1.4430 C   0  0  2  0  0  0  0  0  0  0  0  0
    0.0550   17.7400   -2.5360 C   0  0  0  0  0  0  0  0  0  0  0  0
    0.6951   20.6461   -2.0841 H   0  0  0  0  0  0  0  0  0  0  0  0
    2.2119   19.7569   -2.4519 H   0  0  0  0  0  0  0  0  0  0  0  0
    0.6393   18.8887   -2.4519 H   0  0  0  0  0  0  0  0  0  0  0  0
    0.7239   20.0344    0.0756 H   0  0  0  0  0  0  0  0  0  0  0  0
    3.5001   18.8800   -0.4122 H   0  0  0  0  0  0  0  0  0  0  0  0
    3.0994   20.6625   -0.3378 H   0  0  0  0  0  0  0  0  0  0  0  0
    2.6333   20.6081    1.9245 H   0  0  0  0  0  0  0  0  0  0  0  0
    2.3736   18.8137    1.9248 H   0  0  0  0  0  0  0  0  0  0  0  0
    4.7693   19.8117    0.9873 H   0  0  0  0  0  0  0  0  0  0  0  0
    4.4234   19.8183    5.4441 H   0  0  0  0  0  0  0  0  0  0  0  0
    3.7532   21.1042    4.3840 H   0  0  0  0  0  0  0  0  0  0  0  0
    3.0167   19.4658    4.3840 H   0  0  0  0  0  0  0  0  0  0  0  0
    6.5464   19.8909    4.6863 H   0  0  0  0  0  0  0  0  0  0  0  0
    6.9336   19.0457    3.1493 H   0  0  0  0  0  0  0  0  0  0  0  0
    6.6324   20.8166    3.1493 H   0  0  0  0  0  0  0  0  0  0  0  0
    1.9026   17.6138    0.3846 H   0  0  0  0  0  0  0  0  0  0  0  0
   -0.1924   17.6888    1.5844 H   0  0  0  0  0  0  0  0  0  0  0  0
   -0.9781   18.6422    0.3074 H   0  0  0  0  0  0  0  0  0  0  0  0
   -1.3688   15.8500    0.7744 H   0  0  0  0  0  0  0  0  0  0  0  0
   -1.8508   16.6810   -0.7021 H   0  0  0  0  0  0  0  0  0  0  0  0
    0.6044   15.3424    1.3026 H   0  0  0  0  0  0  0  0  0  0  0  0
    0.8322   13.9317    0.2141 H   0  0  0  0  0  0  0  0  0  0  0  0
    2.0314   15.2691    0.2141 H   0  0  0  0  0  0  0  0  0  0  0  0
   -0.9534   15.3885   -2.5426 H   0  0  0  0  0  0  0  0  0  0  0  0
   -1.7112   13.8807   -0.5947 H   0  0  0  0  0  0  0  0  0  0  0  0
   -1.7471   13.2797   -2.3343 H   0  0  0  0  0  0  0  0  0  0  0  0
   -0.8823   11.5682   -0.5279 H   0  0  0  0  0  0  0  0  0  0  0  0
    2.4321   13.6098   -1.5954 H   0  0  0  0  0  0  0  0  0  0  0  0
    1.8024   11.8423   -4.0402 H   0  0  0  0  0  0  0  0  0  0  0  0
    3.1767   13.0228   -3.8703 H   0  0  0  0  0  0  0  0  0  0  0  0
    3.9105   10.6797   -3.5627 H   0  0  0  0  0  0  0  0  0  0  0  0
    4.1398   11.6921   -2.0835 H   0  0  0  0  0  0  0  0  0  0  0  0
    3.2724    9.5539   -1.4264 H   0  0  0  0  0  0  0  0  0  0  0  0
    1.6470    8.6000   -2.4980 H   0  0  0  0  0  0  0  0  0  0  0  0
    2.2266   11.1899    1.2784 H   0  0  0  0  0  0  0  0  0  0  0  0
    3.6462   10.9506    0.2041 H   0  0  0  0  0  0  0  0  0  0  0  0
    2.7744   12.5212    0.2041 H   0  0  0  0  0  0  0  0  0  0  0  0
    0.8950    9.9039    0.9232 H   0  0  0  0  0  0  0  0  0  0  0  0
   -0.2131    9.9716   -0.4889 H   0  0  0  0  0  0  0  0  0  0  0  0
    1.1730    8.8290   -0.4889 H   0  0  0  0  0  0  0  0  0  0  0  0
   -0.6536   13.2785   -4.0285 H   0  0  0  0  0  0  0  0  0  0  0  0
   -0.0270   14.7700   -4.8094 H   0  0  0  0  0  0  0  0  0  0  0  0
    0.9641   13.2718   -4.8094 H   0  0  0  0  0  0  0  0  0  0  0  0
    2.8427   15.0427   -3.5330 H   0  0  0  0  0  0  0  0  0  0  0  0
    1.3742   16.0709   -4.0038 H   0  0  0  0  0  0  0  0  0  0  0  0
    2.8067   16.0068   -1.3336 H   0  0  0  0  0  0  0  0  0  0  0  0
    2.7043   17.3602   -2.5272 H   0  0  0  0  0  0  0  0  0  0  0  0
   -0.6727   18.4054   -2.0484 H   0  0  0  0  0  0  0  0  0  0  0  0
    0.7340   18.3361   -3.1634 H   0  0  0  0  0  0  0  0  0  0  0  0
   -0.4781   17.0105   -3.1634 H   0  0  0  0  0  0  0  0  0  0  0  0
  1  2  1  0
  2  3  1  0
  3  4  1  0
  4  5  1  0
  5  6  1  0
  6  7  1  0
  7  8  1  0
  7  9  1  0
  2 10  1  0
 10 11  1  0
 11 12  1  0
 12 13  1  0
 13 14  1  1
 13 15  1  0
 15 16  1  0
 16 17  1  0
 17 18  2  0
 18 19  1  0
 19 20  1  0
 20 21  1  0
 21 22  1  0
 22 23  1  0
 22 24  1  0
 24 25  1  0
 24 26  1  0
 19 27  1  0
 27 28  1  6
 27 29  1  0
 29 30  1  0
 30 31  1  0
 31 32  1  6
  7  5  1  0
 31 10  1  0
 31 13  1  0
 27 15  1  0
 24 18  1  0
  1 33  1  0
  1 34  1  0
  1 35  1  0
  2 36  1  1
  3 37  1  0
  3 38  1  0
  4 39  1  0
  4 40  1  0
  5 41  1  6
  8 42  1  0
  8 43  1  0
  8 44  1  0
  9 45  1  0
  9 46  1  0
  9 47  1  0
 10 48  1  1
 11 49  1  0
 11 50  1  0
 12 51  1  0
 12 52  1  0
 14 53  1  0
 14 54  1  0
 14 55  1  0
 15 56  1  6
 16 57  1  0
 16 58  1  0
 17 59  1  0
 19 60  1  1
 20 61  1  0
 20 62  1  0
 21 63  1  0
 21 64  1  0
 22 65  1  1
 23 66  1  0
 25 67  1  0
 25 68  1  0
 25 69  1  0
 26 70  1  0
 26 71  1  0
 26 72  1  0
 28 73  1  0
 28 74  1  0
 28 75  1  0
 29 76  1  0
 29 77  1  0
 30 78  1  0
 30 79  1  0
 32 80  1  0
 32 81  1  0
 32 82  1  0
M  END
>  <meeko>  (11) 
{"is_sidechain": [false], "intermolecular_energy": 2.731, "internal_energy": -0.839}

$$$$
EPH_relaxed_0001_pdb2pqr_Repair_172_r2_0001_out
     RDKit          3D

 82 86  0  0  0  0  0  0  0  0999 V2000
    3.2450   18.2550   -3.5460 C   0  0  0  0  0  0  0  0  0  0  0  0
    2.1440   17.9570   -2.5240 C   0  0  2  0  0  0  0  0  0  0  0  0
    2.0480   19.0490   -1.4400 C   0  0  0  0  0  0  0  0  0  0  0  0
    0.8270   19.9620   -1.5920 C   0  0  0  0  0  0  0  0  0  0  0  0
   -0.1420   19.7840   -0.4630 C   0  0  2  0  0  0  0  0  0  0  0  0
   -0.9770   18.6230   -0.5690 O   0  0  0  0  0  0  0  0  0  0  0  0
   -1.6470   19.8930   -0.6270 C   0  0  0  0  0  0  0  0  0  0  0  0
   -2.2670   20.1940   -1.9560 C   0  0  0  0  0  0  0  0  0  0  0  0
   -2.4780   20.1930    0.5810 C   0  0  0  0  0  0  0  0  0  0  0  0
    2.3910   16.6000   -1.8760 C   0  0  1  0  0  0  0  0  0  0  0  0
    3.0550   16.7180   -0.4780 C   0  0  0  0  0  0  0  0  0  0  0  0
    2.4770   15.5700    0.3900 C   0  0  0  0  0  0  0  0  0  0  0  0
    1.7640   14.6400   -0.6190 C   0  0  1  0  0  0  0  0  0  0  0  0
    2.9030   13.7690   -1.2380 C   0  0  0  0  0  0  0  0  0  0  0  0
    0.6080   13.7560   -0.0470 C   0  0  2  0  0  0  0  0  0  0  0  0
    1.0340   12.7410    1.0290 C   0  0  0  0  0  0  0  0  0  0  0  0
    1.4300   11.3960    0.5150 C   0  0  0  0  0  0  0  0  0  0  0  0
    1.1750   10.9240   -0.7190 C   0  0  0  0  0  0  0  0  0  0  0  0
    0.3350   11.7350   -1.7140 C   0  0  1  0  0  0  0  0  0  0  0  0
   -0.7200   10.8090   -2.3760 C   0  0  0  0  0  0  0  0  0  0  0  0
   -0.0960    9.5710   -3.0120 C   0  0  0  0  0  0  0  0  0  0  0  0
    0.6820    8.7610   -1.9780 C   0  0  2  0  0  0  0  0  0  0  0  0
   -0.2400    8.2200   -1.0270 O   0  0  0  0  0  0  0  0  0  0  0  0
    1.7680    9.5920   -1.2390 C   0  0  0  0  0  0  0  0  0  0  0  0
    2.9240    9.9230   -2.2160 C   0  0  0  0  0  0  0  0  0  0  0  0
    2.3810    8.6970   -0.1290 C   0  0  0  0  0  0  0  0  0  0  0  0
   -0.3000   13.0790   -1.1520 C   0  0  1  0  0  0  0  0  0  0  0  0
   -1.6730   12.7790   -0.4780 C   0  0  0  0  0  0  0  0  0  0  0  0
   -0.5990   14.0490   -2.3560 C   0  0  0  0  0  0  0  0  0  0  0  0
    0.5450   14.9820   -2.7980 C   0  0  0  0  0  0  0  0  0  0  0  0
    1.1540   15.7100   -1.5960 C   0  0  2  0  0  0  0  0  0  0  0  0
    0.0370   16.6110   -0.9670 C   0  0  0  0  0  0  0  0  0  0  0  0
    4.1766   18.5072   -3.0183 H   0  0  0  0  0  0  0  0  0  0  0  0
    3.4092   17.3690   -4.1769 H   0  0  0  0  0  0  0  0  0  0  0  0
    2.9399   19.1029   -4.1769 H   0  0  0  0  0  0  0  0  0  0  0  0
    1.1856   17.9424   -3.0637 H   0  0  0  0  0  0  0  0  0  0  0  0
    1.9947   18.5586   -0.4568 H   0  0  0  0  0  0  0  0  0  0  0  0
    2.9397   19.6847   -1.5442 H   0  0  0  0  0  0  0  0  0  0  0  0
    1.1646   21.0087   -1.6103 H   0  0  0  0  0  0  0  0  0  0  0  0
    0.3148   19.6966   -2.5286 H   0  0  0  0  0  0  0  0  0  0  0  0
    0.5588   20.2519    0.2441 H   0  0  0  0  0  0  0  0  0  0  0  0
   -3.2471   20.6698   -1.8041 H   0  0  0  0  0  0  0  0  0  0  0  0
   -1.6125   20.8746   -2.5202 H   0  0  0  0  0  0  0  0  0  0  0  0
   -2.3970   19.2587   -2.5202 H   0  0  0  0  0  0  0  0  0  0  0  0
   -1.8942   19.9823    1.4892 H   0  0  0  0  0  0  0  0  0  0  0  0
   -2.7703   21.2534    0.5708 H   0  0  0  0  0  0  0  0  0  0  0  0
   -3.3803   19.5638    0.5708 H   0  0  0  0  0  0  0  0  0  0  0  0
    3.0199   16.1371   -2.6507 H   0  0  0  0  0  0  0  0  0  0  0  0
    4.1464   16.6131   -0.5669 H   0  0  0  0  0  0  0  0  0  0  0  0
    2.8488   17.6986   -0.0242 H   0  0  0  0  0  0  0  0  0  0  0  0
    3.2835   15.0328    0.9106 H   0  0  0  0  0  0  0  0  0  0  0  0
    1.7958   15.9394    1.1707 H   0  0  0  0  0  0  0  0  0  0  0  0
    3.4969   13.3148   -0.4312 H   0  0  0  0  0  0  0  0  0  0  0  0
    2.4616   12.9759   -1.8594 H   0  0  0  0  0  0  0  0  0  0  0  0
    3.5527   14.4028   -1.8594 H   0  0  0  0  0  0  0  0  0  0  0  0
   -0.0193   14.4964    0.4710 H   0  0  0  0  0  0  0  0  0  0  0  0
    1.8915   13.1628    1.5738 H   0  0  0  0  0  0  0  0  0  0  0  0
    0.1485   12.5771    1.6607 H   0  0  0  0  0  0  0  0  0  0  0  0
    1.9766   10.7350    1.2037 H   0  0  0  0  0  0  0  0  0  0  0  0
    1.0380   12.1046   -2.4751 H   0  0  0  0  0  0  0  0  0  0  0  0
   -1.4378   10.4866   -1.6074 H   0  0  0  0  0  0  0  0  0  0  0  0
   -1.2123   11.3824   -3.1753 H   0  0  0  0  0  0  0  0  0  0  0  0
   -0.8935    8.9429   -3.4357 H   0  0  0  0  0  0  0  0  0  0  0  0
    0.5990    9.8937   -3.8012 H   0  0  0  0  0  0  0  0  0  0  0  0
    1.2119    7.9615   -2.5165 H   0  0  0  0  0  0  0  0  0  0  0  0
    0.2220    8.1550   -0.1740 H   0  0  0  0  0  0  0  0  0  0  0  0
    3.8263   10.1814   -1.6423 H   0  0  0  0  0  0  0  0  0  0  0  0
    3.1305    9.0479   -2.8497 H   0  0  0  0  0  0  0  0  0  0  0  0
    2.6360   10.7748   -2.8497 H   0  0  0  0  0  0  0  0  0  0  0  0
    2.1067    9.0975    0.8581 H   0  0  0  0  0  0  0  0  0  0  0  0
    1.9944    7.6721   -0.2292 H   0  0  0  0  0  0  0  0  0  0  0  0
    3.4764    8.6871   -0.2292 H   0  0  0  0  0  0  0  0  0  0  0  0
   -1.5579   12.8042    0.6157 H   0  0  0  0  0  0  0  0  0  0  0  0
   -2.4068   13.5380   -0.7870 H   0  0  0  0  0  0  0  0  0  0  0  0
   -2.0233   11.7831   -0.7870 H   0  0  0  0  0  0  0  0  0  0  0  0
   -0.8761   13.4293   -3.2216 H   0  0  0  0  0  0  0  0  0  0  0  0
   -1.3933   14.7190   -1.9951 H   0  0  0  0  0  0  0  0  0  0  0  0
    1.3264   14.3848   -3.2907 H   0  0  0  0  0  0  0  0  0  0  0  0
    0.1378   15.7315   -3.4926 H   0  0  0  0  0  0  0  0  0  0  0  0
    0.0997   16.5605    0.1301 H   0  0  0  0  0  0  0  0  0  0  0  0
    0.1775   17.6516   -1.2947 H   0  0  0  0  0  0  0  0  0  0  0  0
   -0.9503   16.2535   -1.2947 H   0  0  0  0  0  0  0  0  0  0  0  0
  1  2  1  0
  2  3  1  0
  3  4  1  0
  4  5  1  0
  5  6  1  0
  6  7  1  0
  7  8  1  0
  7  9  1  0
  2 10  1  0
 10 11  1  0
 11 12  1  0
 12 13  1  0
 13 14  1  6
 13 15  1  0
 15 16  1  0
 16 17  1  0
 17 18  2  0
 18 19  1  0
 19 20  1  0
 20 21  1  0
 21 22  1  0
 22 23  1  0
 22 24  1  0
 24 25  1  0
 24 26  1  0
 19 27  1  0
 27 28  1  1
 27 29  1  0
 29 30  1  0
 30 31  1  0
 31 32  1  1
  7  5  1  0
 31 10  1  0
 31 13  1  0
 27 15  1  0
 24 18  1  0
  1 33  1  0
  1 34  1  0
  1 35  1  0
  2 36  1  6
  3 37  1  0
  3 38  1  0
  4 39  1  0
  4 40  1  0
  5 41  1  1
  8 42  1  0
  8 43  1  0
  8 44  1  0
  9 45  1  0
  9 46  1  0
  9 47  1  0
 10 48  1  6
 11 49  1  0
 11 50  1  0
 12 51  1  0
 12 52  1  0
 14 53  1  0
 14 54  1  0
 14 55  1  0
 15 56  1  1
 16 57  1  0
 16 58  1  0
 17 59  1  0
 19 60  1  6
 20 61  1  0
 20 62  1  0
 21 63  1  0
 21 64  1  0
 22 65  1  6
 23 66  1  0
 25 67  1  0
 25 68  1  0
 25 69  1  0
 26 70  1  0
 26 71  1  0
 26 72  1  0
 28 73  1  0
 28 74  1  0
 28 75  1  0
 29 76  1  0
 29 77  1  0
 30 78  1  0
 30 79  1  0
 32 80  1  0
 32 81  1  0
 32 82  1  0
M  END
>  <meeko>  (12) 
{"is_sidechain": [false], "intermolecular_energy": 2.731, "internal_energy": -0.839}

$$$$
EPH_relaxed_0001_pdb2pqr_Repair_172_r2_0001_out
     RDKit          3D

 82 86  0  0  0  0  0  0  0  0999 V2000
   -3.7020    7.1610   -3.3940 C   0  0  0  0  0  0  0  0  0  0  0  0
   -3.7310    7.2570   -1.8660 C   0  0  2  0  0  0  0  0  0  0  0  0
   -5.1490    7.0460   -1.2970 C   0  0  0  0  0  0  0  0  0  0  0  0
   -6.2610    7.2330   -2.3320 C   0  0  0  0  0  0  0  0  0  0  0  0
   -7.5920    7.4580   -1.6810 C   0  0  2  0  0  0  0  0  0  0  0  0
   -8.1810    6.2870   -1.1010 O   0  0  0  0  0  0  0  0  0  0  0  0
   -8.8900    6.8720   -2.2050 C   0  0  0  0  0  0  0  0  0  0  0  0
   -8.9200    6.0140   -3.4320 C   0  0  0  0  0  0  0  0  0  0  0  0
  -10.1790    7.5250   -1.8160 C   0  0  0  0  0  0  0  0  0  0  0  0
   -3.1870    8.6080   -1.4190 C   0  0  1  0  0  0  0  0  0  0  0  0
   -3.8120    9.0930   -0.0840 C   0  0  0  0  0  0  0  0  0  0  0  0
   -2.6990    9.8550    0.6800 C   0  0  0  0  0  0  0  0  0  0  0  0
   -1.5840   10.0720   -0.3690 C   0  0  1  0  0  0  0  0  0  0  0  0
   -2.0450   11.3150   -1.1930 C   0  0  0  0  0  0  0  0  0  0  0  0
   -0.1350   10.2550    0.1900 C   0  0  2  0  0  0  0  0  0  0  0  0
    0.0680   11.4900    1.0850 C   0  0  0  0  0  0  0  0  0  0  0  0
    0.4880   12.7330    0.3720 C   0  0  0  0  0  0  0  0  0  0  0  0
    0.9690   12.7890   -0.8840 C   0  0  0  0  0  0  0  0  0  0  0  0
    1.2230   11.5080   -1.6880 C   0  0  1  0  0  0  0  0  0  0  0  0
    2.6180   11.5880   -2.3620 C   0  0  0  0  0  0  0  0  0  0  0  0
    2.7890   12.8490   -3.2040 C   0  0  0  0  0  0  0  0  0  0  0  0
    2.5860   14.1020   -2.3570 C   0  0  2  0  0  0  0  0  0  0  0  0
    3.6480   14.1900   -1.4020 O   0  0  0  0  0  0  0  0  0  0  0  0
    1.2170   14.1290   -1.6200 C   0  0  0  0  0  0  0  0  0  0  0  0
    0.0770   14.3370   -2.6470 C   0  0  0  0  0  0  0  0  0  0  0  0
    1.1980   15.3730   -0.6920 C   0  0  0  0  0  0  0  0  0  0  0  0
    1.0010   10.1430   -0.9050 C   0  0  1  0  0  0  0  0  0  0  0  0
    2.3070    9.7430   -0.1530 C   0  0  0  0  0  0  0  0  0  0  0  0
    0.7190    8.9940   -1.9450 C   0  0  0  0  0  0  0  0  0  0  0  0
   -0.7480    8.7850   -2.3670 C   0  0  0  0  0  0  0  0  0  0  0  0
   -1.6650    8.7060   -1.1430 C   0  0  2  0  0  0  0  0  0  0  0  0
   -1.2400    7.4520   -0.3060 C   0  0  0  0  0  0  0  0  0  0  0  0
   -3.3958    6.1474   -3.6920 H   0  0  0  0  0  0  0  0  0  0  0  0
   -4.7045    7.3736   -3.7938 H   0  0  0  0  0  0  0  0  0  0  0  0
   -2.9849    7.8931   -3.7938 H   0  0  0  0  0  0  0  0  0  0  0  0
   -3.0940    6.4511   -1.4726 H   0  0  0  0  0  0  0  0  0  0  0  0
   -5.2144    6.0231   -0.8978 H   0  0  0  0  0  0  0  0  0  0  0  0
   -5.3008    7.8099   -0.5202 H   0  0  0  0  0  0  0  0  0  0  0  0
   -6.0201    8.1028   -2.9608 H   0  0  0  0  0  0  0  0  0  0  0  0
   -6.3253    6.3158   -2.9358 H   0  0  0  0  0  0  0  0  0  0  0  0
   -7.3060    8.4816   -1.3973 H   0  0  0  0  0  0  0  0  0  0  0  0
   -8.9570    4.9547   -3.1379 H   0  0  0  0  0  0  0  0  0  0  0  0
   -9.8101    6.2599   -4.0297 H   0  0  0  0  0  0  0  0  0  0  0  0
   -8.0149    6.1971   -4.0297 H   0  0  0  0  0  0  0  0  0  0  0  0
  -10.2543    7.5632   -0.7192 H   0  0  0  0  0  0  0  0  0  0  0  0
  -10.2092    8.5471   -2.2214 H   0  0  0  0  0  0  0  0  0  0  0  0
  -11.0210    6.9447   -2.2214 H   0  0  0  0  0  0  0  0  0  0  0  0
   -3.4497    9.2122   -2.2998 H   0  0  0  0  0  0  0  0  0  0  0  0
   -4.6608    9.7633   -0.2846 H   0  0  0  0  0  0  0  0  0  0  0  0
   -4.1875    8.2449    0.5074 H   0  0  0  0  0  0  0  0  0  0  0  0
   -3.0744   10.8194    1.0528 H   0  0  0  0  0  0  0  0  0  0  0  0
   -2.3417    9.2996    1.5597 H   0  0  0  0  0  0  0  0  0  0  0  0
   -2.3437   12.1203   -0.5057 H   0  0  0  0  0  0  0  0  0  0  0  0
   -1.2160   11.6626   -1.8270 H   0  0  0  0  0  0  0  0  0  0  0  0
   -2.9002   11.0380   -1.8270 H   0  0  0  0  0  0  0  0  0  0  0  0
   -0.0267    9.3840    0.8530 H   0  0  0  0  0  0  0  0  0  0  0  0
   -0.8824   11.6975    1.5984 H   0  0  0  0  0  0  0  0  0  0  0  0
    0.8924   11.2381    1.7683 H   0  0  0  0  0  0  0  0  0  0  0  0
    0.3966   13.6829    0.9192 H   0  0  0  0  0  0  0  0  0  0  0  0
    0.4381   11.4711   -2.4578 H   0  0  0  0  0  0  0  0  0  0  0  0
    3.3895   11.5801   -1.5780 H   0  0  0  0  0  0  0  0  0  0  0  0
    2.7147   10.7222   -3.0336 H   0  0  0  0  0  0  0  0  0  0  0  0
    3.8031   12.8627   -3.6299 H   0  0  0  0  0  0  0  0  0  0  0  0
    2.0354   12.8410   -4.0053 H   0  0  0  0  0  0  0  0  0  0  0  0
    2.5920   14.9652   -3.0388 H   0  0  0  0  0  0  0  0  0  0  0  0
    3.7230   15.1210   -1.1300 H   0  0  0  0  0  0  0  0  0  0  0  0
   -0.8696   14.5097   -2.1140 H   0  0  0  0  0  0  0  0  0  0  0  0
    0.3066   15.2081   -3.2783 H   0  0  0  0  0  0  0  0  0  0  0  0
   -0.0158   13.4410   -3.2783 H   0  0  0  0  0  0  0  0  0  0  0  0
    1.2030   15.0469    0.3585 H   0  0  0  0  0  0  0  0  0  0  0  0
    2.0868   15.9906   -0.8884 H   0  0  0  0  0  0  0  0  0  0  0  0
    0.2907   15.9632   -0.8884 H   0  0  0  0  0  0  0  0  0  0  0  0
    2.1359    9.7954    0.9323 H   0  0  0  0  0  0  0  0  0  0  0  0
    2.5902    8.7169   -0.4304 H   0  0  0  0  0  0  0  0  0  0  0  0
    3.1163   10.4345   -0.4304 H   0  0  0  0  0  0  0  0  0  0  0  0
    1.2981    9.2174   -2.8531 H   0  0  0  0  0  0  0  0  0  0  0  0
    1.0068    8.0642   -1.4325 H   0  0  0  0  0  0  0  0  0  0  0  0
   -1.0640    9.6277   -2.9995 H   0  0  0  0  0  0  0  0  0  0  0  0
   -0.8216    7.8381   -2.9219 H   0  0  0  0  0  0  0  0  0  0  0  0
   -1.3184    7.6833    0.7665 H   0  0  0  0  0  0  0  0  0  0  0  0
   -1.9022    6.6078   -0.5484 H   0  0  0  0  0  0  0  0  0  0  0  0
   -0.2010    7.1843   -0.5484 H   0  0  0  0  0  0  0  0  0  0  0  0
  1  2  1  0
  2  3  1  0
  3  4  1  0
  4  5  1  0
  5  6  1  0
  6  7  1  0
  7  8  1  0
  7  9  1  0
  2 10  1  0
 10 11  1  0
 11 12  1  0
 12 13  1  0
 13 14  1  6
 13 15  1  0
 15 16  1  0
 16 17  1  0
 17 18  2  0
 18 19  1  0
 19 20  1  0
 20 21  1  0
 21 22  1  0
 22 23  1  0
 22 24  1  0
 24 25  1  0
 24 26  1  0
 19 27  1  0
 27 28  1  1
 27 29  1  0
 29 30  1  0
 30 31  1  0
 31 32  1  1
  7  5  1  0
 31 10  1  0
 31 13  1  0
 27 15  1  0
 24 18  1  0
  1 33  1  0
  1 34  1  0
  1 35  1  0
  2 36  1  1
  3 37  1  0
  3 38  1  0
  4 39  1  0
  4 40  1  0
  5 41  1  1
  8 42  1  0
  8 43  1  0
  8 44  1  0
  9 45  1  0
  9 46  1  0
  9 47  1  0
 10 48  1  6
 11 49  1  0
 11 50  1  0
 12 51  1  0
 12 52  1  0
 14 53  1  0
 14 54  1  0
 14 55  1  0
 15 56  1  1
 16 57  1  0
 16 58  1  0
 17 59  1  0
 19 60  1  6
 20 61  1  0
 20 62  1  0
 21 63  1  0
 21 64  1  0
 22 65  1  6
 23 66  1  0
 25 67  1  0
 25 68  1  0
 25 69  1  0
 26 70  1  0
 26 71  1  0
 26 72  1  0
 28 73  1  0
 28 74  1  0
 28 75  1  0
 29 76  1  0
 29 77  1  0
 30 78  1  0
 30 79  1  0
 32 80  1  0
 32 81  1  0
 32 82  1  0
M  END
>  <meeko>  (13) 
{"is_sidechain": [false], "intermolecular_energy": 2.731, "internal_energy": -0.839}

$$$$
EPH_relaxed_0001_pdb2pqr_Repair_172_r2_0001_out
     RDKit          3D

 82 86  0  0  0  0  0  0  0  0999 V2000
   -0.8410   16.3500   -5.8420 C   0  0  0  0  0  0  0  0  0  0  0  0
    0.2460   15.6430   -6.6570 C   0  0  2  0  0  0  0  0  0  0  0  0
   -0.1600   15.4610   -8.1330 C   0  0  0  0  0  0  0  0  0  0  0  0
    0.4670   16.4910   -9.0760 C   0  0  0  0  0  0  0  0  0  0  0  0
    1.8690   16.1170   -9.4520 C   0  0  2  0  0  0  0  0  0  0  0  0
    2.3290   16.6830  -10.6860 O   0  0  0  0  0  0  0  0  0  0  0  0
    2.2110   15.2510  -10.6510 C   0  0  0  0  0  0  0  0  0  0  0  0
    1.1450   14.7070  -11.5490 C   0  0  0  0  0  0  0  0  0  0  0  0
    3.5260   14.5370  -10.6660 C   0  0  0  0  0  0  0  0  0  0  0  0
    0.5650   14.2900   -6.0330 C   0  0  1  0  0  0  0  0  0  0  0  0
    1.8250   13.6280   -6.6530 C   0  0  0  0  0  0  0  0  0  0  0  0
    2.5370   12.8620   -5.5090 C   0  0  0  0  0  0  0  0  0  0  0  0
    1.5030   12.8290   -4.3590 C   0  0  1  0  0  0  0  0  0  0  0  0
    0.5420   11.6530   -4.7180 C   0  0  0  0  0  0  0  0  0  0  0  0
    2.0810   12.6810   -2.9140 C   0  0  2  0  0  0  0  0  0  0  0  0
    2.8490   11.3740   -2.6490 C   0  0  0  0  0  0  0  0  0  0  0  0
    2.0240   10.2430   -2.1310 C   0  0  0  0  0  0  0  0  0  0  0  0
    0.7830   10.3500   -1.6210 C   0  0  0  0  0  0  0  0  0  0  0  0
    0.1230   11.7230   -1.4350 C   0  0  1  0  0  0  0  0  0  0  0  0
   -0.5160   11.8040   -0.0240 C   0  0  0  0  0  0  0  0  0  0  0  0
   -1.4780   10.6520    0.2500 C   0  0  0  0  0  0  0  0  0  0  0  0
   -0.7710    9.3060    0.1120 C   0  0  2  0  0  0  0  0  0  0  0  0
    0.1990    9.1860    1.1560 O   0  0  0  0  0  0  0  0  0  0  0  0
   -0.0810    9.1150   -1.2680 C   0  0  0  0  0  0  0  0  0  0  0  0
   -1.1570    8.9430   -2.3680 C   0  0  0  0  0  0  0  0  0  0  0  0
    0.7120    7.7810   -1.2240 C   0  0  0  0  0  0  0  0  0  0  0  0
    1.0370   12.9810   -1.7640 C   0  0  1  0  0  0  0  0  0  0  0  0
    1.8640   13.3820   -0.5050 C   0  0  0  0  0  0  0  0  0  0  0  0
    0.1140   14.2120   -2.1000 C   0  0  0  0  0  0  0  0  0  0  0  0
   -0.3260   14.3700   -3.5680 C   0  0  0  0  0  0  0  0  0  0  0  0
    0.8730   14.2610   -4.5150 C   0  0  2  0  0  0  0  0  0  0  0  0
    1.8470   15.4440   -4.1920 C   0  0  0  0  0  0  0  0  0  0  0  0
   -0.6386   16.2184   -4.7688 H   0  0  0  0  0  0  0  0  0  0  0  0
   -0.8429   17.4226   -6.0859 H   0  0  0  0  0  0  0  0  0  0  0  0
   -1.8223   15.9168   -6.0859 H   0  0  0  0  0  0  0  0  0  0  0  0
    1.1416   16.2814   -6.6385 H   0  0  0  0  0  0  0  0  0  0  0  0
    0.1525   14.4576   -8.4578 H   0  0  0  0  0  0  0  0  0  0  0  0
   -1.2500   15.5992   -8.1856 H   0  0  0  0  0  0  0  0  0  0  0  0
   -0.1421   16.5551   -9.9897 H   0  0  0  0  0  0  0  0  0  0  0  0
    0.4984   17.4590   -8.5545 H   0  0  0  0  0  0  0  0  0  0  0  0
    2.1632   16.0611   -8.3936 H   0  0  0  0  0  0  0  0  0  0  0  0
    0.3294   14.2908  -10.9395 H   0  0  0  0  0  0  0  0  0  0  0  0
    0.7527   15.5151  -12.1838 H   0  0  0  0  0  0  0  0  0  0  0  0
    1.5692   13.9152  -12.1838 H   0  0  0  0  0  0  0  0  0  0  0  0
    3.8573   14.3571   -9.6326 H   0  0  0  0  0  0  0  0  0  0  0  0
    3.4151   13.5752  -11.1882 H   0  0  0  0  0  0  0  0  0  0  0  0
    4.2722   15.1538  -11.1882 H   0  0  0  0  0  0  0  0  0  0  0  0
   -0.3813   13.7669   -6.2350 H   0  0  0  0  0  0  0  0  0  0  0  0
    1.5322   12.9301   -7.4512 H   0  0  0  0  0  0  0  0  0  0  0  0
    2.4904   14.3836   -7.0961 H   0  0  0  0  0  0  0  0  0  0  0  0
    2.7963   11.8415   -5.8275 H   0  0  0  0  0  0  0  0  0  0  0  0
    3.4798   13.3426   -5.2087 H   0  0  0  0  0  0  0  0  0  0  0  0
    0.1652   11.1920   -3.7931 H   0  0  0  0  0  0  0  0  0  0  0  0
   -0.3038   12.0374   -5.3070 H   0  0  0  0  0  0  0  0  0  0  0  0
    1.0872   10.9007   -5.3070 H   0  0  0  0  0  0  0  0  0  0  0  0
    2.8337   13.4824   -2.8783 H   0  0  0  0  0  0  0  0  0  0  0  0
    3.3100   11.0530   -3.5948 H   0  0  0  0  0  0  0  0  0  0  0  0
    3.5787   11.6049   -1.8589 H   0  0  0  0  0  0  0  0  0  0  0  0
    2.4677    9.2372   -2.1693 H   0  0  0  0  0  0  0  0  0  0  0  0
   -0.6610   11.7903   -2.2036 H   0  0  0  0  0  0  0  0  0  0  0  0
    0.2862   11.7799    0.7282 H   0  0  0  0  0  0  0  0  0  0  0  0
   -1.0922   12.7396    0.0282 H   0  0  0  0  0  0  0  0  0  0  0  0
   -1.8728   10.7481    1.2722 H   0  0  0  0  0  0  0  0  0  0  0  0
   -2.2961   10.6957   -0.4841 H   0  0  0  0  0  0  0  0  0  0  0  0
   -1.5375    8.5209    0.1902 H   0  0  0  0  0  0  0  0  0  0  0  0
    1.0640    9.4300    0.7840 H   0  0  0  0  0  0  0  0  0  0  0  0
   -2.1394    8.7860   -1.8986 H   0  0  0  0  0  0  0  0  0  0  0  0
   -1.1898    9.8473   -2.9934 H   0  0  0  0  0  0  0  0  0  0  0  0
   -0.9063    8.0735   -2.9934 H   0  0  0  0  0  0  0  0  0  0  0  0
    0.8843    7.4912   -0.1769 H   0  0  0  0  0  0  0  0  0  0  0  0
    0.1348    6.9944   -1.7319 H   0  0  0  0  0  0  0  0  0  0  0  0
    1.6788    7.9122   -1.7319 H   0  0  0  0  0  0  0  0  0  0  0  0
    1.3048   13.1109    0.4026 H   0  0  0  0  0  0  0  0  0  0  0  0
    2.8272   12.8509   -0.5146 H   0  0  0  0  0  0  0  0  0  0  0  0
    2.0435   14.4672   -0.5146 H   0  0  0  0  0  0  0  0  0  0  0  0
   -0.7955   14.1229   -1.4877 H   0  0  0  0  0  0  0  0  0  0  0  0
    0.7283   15.0992   -1.8865 H   0  0  0  0  0  0  0  0  0  0  0  0
   -1.0511   13.5800   -3.8132 H   0  0  0  0  0  0  0  0  0  0  0  0
   -0.7817   15.3634   -3.6924 H   0  0  0  0  0  0  0  0  0  0  0  0
    1.9391   15.5558   -3.1016 H   0  0  0  0  0  0  0  0  0  0  0  0
    2.8364   15.2327   -4.6238 H   0  0  0  0  0  0  0  0  0  0  0  0
    1.4497   16.3744   -4.6238 H   0  0  0  0  0  0  0  0  0  0  0  0
  1  2  1  0
  2  3  1  0
  3  4  1  0
  4  5  1  0
  5  6  1  0
  6  7  1  0
  7  8  1  0
  7  9  1  0
  2 10  1  0
 10 11  1  0
 11 12  1  0
 12 13  1  0
 13 14  1  6
 13 15  1  0
 15 16  1  0
 16 17  1  0
 17 18  2  0
 18 19  1  0
 19 20  1  0
 20 21  1  0
 21 22  1  0
 22 23  1  0
 22 24  1  0
 24 25  1  0
 24 26  1  0
 19 27  1  0
 27 28  1  1
 27 29  1  0
 29 30  1  0
 30 31  1  0
 31 32  1  1
  7  5  1  0
 31 10  1  0
 31 13  1  0
 27 15  1  0
 24 18  1  0
  1 33  1  0
  1 34  1  0
  1 35  1  0
  2 36  1  6
  3 37  1  0
  3 38  1  0
  4 39  1  0
  4 40  1  0
  5 41  1  1
  8 42  1  0
  8 43  1  0
  8 44  1  0
  9 45  1  0
  9 46  1  0
  9 47  1  0
 10 48  1  1
 11 49  1  0
 11 50  1  0
 12 51  1  0
 12 52  1  0
 14 53  1  0
 14 54  1  0
 14 55  1  0
 15 56  1  6
 16 57  1  0
 16 58  1  0
 17 59  1  0
 19 60  1  6
 20 61  1  0
 20 62  1  0
 21 63  1  0
 21 64  1  0
 22 65  1  1
 23 66  1  0
 25 67  1  0
 25 68  1  0
 25 69  1  0
 26 70  1  0
 26 71  1  0
 26 72  1  0
 28 73  1  0
 28 74  1  0
 28 75  1  0
 29 76  1  0
 29 77  1  0
 30 78  1  0
 30 79  1  0
 32 80  1  0
 32 81  1  0
 32 82  1  0
M  END
>  <meeko>  (14) 
{"is_sidechain": [false], "intermolecular_energy": 2.731, "internal_energy": -0.839}

$$$$
EPH_relaxed_0001_pdb2pqr_Repair_172_r2_0001_out
     RDKit          3D

 82 86  0  0  0  0  0  0  0  0999 V2000
    0.1830    9.3620   -2.3560 C   0  0  0  0  0  0  0  0  0  0  0  0
    1.2640   10.3620   -2.7750 C   0  0  2  0  0  0  0  0  0  0  0  0
    2.6660    9.7210   -2.8100 C   0  0  0  0  0  0  0  0  0  0  0  0
    3.6030   10.3460   -3.8460 C   0  0  0  0  0  0  0  0  0  0  0  0
    4.9820   10.5520   -3.2940 C   0  0  2  0  0  0  0  0  0  0  0  0
    5.5340   11.8530   -3.5310 O   0  0  0  0  0  0  0  0  0  0  0  0
    6.2090   10.7530   -4.1630 C   0  0  0  0  0  0  0  0  0  0  0  0
    6.1160   10.7590   -5.6560 C   0  0  0  0  0  0  0  0  0  0  0  0
    7.5550   10.4570   -3.5790 C   0  0  0  0  0  0  0  0  0  0  0  0
    1.2620   11.5570   -1.8280 C   0  0  1  0  0  0  0  0  0  0  0  0
    2.3270   11.4320   -0.7060 C   0  0  0  0  0  0  0  0  0  0  0  0
    2.8480   12.8650   -0.4230 C   0  0  0  0  0  0  0  0  0  0  0  0
    1.8440   13.7950   -1.1430 C   0  0  1  0  0  0  0  0  0  0  0  0
    0.6310   13.9070   -0.1670 C   0  0  0  0  0  0  0  0  0  0  0  0
    2.3810   15.2020   -1.5600 C   0  0  2  0  0  0  0  0  0  0  0  0
    2.8230   16.1030   -0.3940 C   0  0  0  0  0  0  0  0  0  0  0  0
    1.7590   16.9870    0.1680 C   0  0  0  0  0  0  0  0  0  0  0  0
    0.5820   17.2660   -0.4220 C   0  0  0  0  0  0  0  0  0  0  0  0
    0.2640   16.7460   -1.8300 C   0  0  1  0  0  0  0  0  0  0  0  0
   -0.3280   17.8970   -2.6860 C   0  0  0  0  0  0  0  0  0  0  0  0
   -1.5310   18.5600   -2.0220 C   0  0  0  0  0  0  0  0  0  0  0  0
   -1.1610   19.1150   -0.6500 C   0  0  2  0  0  0  0  0  0  0  0  0
   -0.2380   20.1940   -0.8230 O   0  0  0  0  0  0  0  0  0  0  0  0
   -0.5450   18.0470    0.2970 C   0  0  0  0  0  0  0  0  0  0  0  0
   -1.6390   17.0380    0.7260 C   0  0  0  0  0  0  0  0  0  0  0  0
   -0.0860   18.7670    1.5940 C   0  0  0  0  0  0  0  0  0  0  0  0
    1.4450   15.9810   -2.5700 C   0  0  1  0  0  0  0  0  0  0  0  0
    2.3520   17.0020   -3.3220 C   0  0  0  0  0  0  0  0  0  0  0  0
    0.8340   15.0350   -3.6710 C   0  0  0  0  0  0  0  0  0  0  0  0
    0.4320   13.6170   -3.2230 C   0  0  0  0  0  0  0  0  0  0  0  0
    1.5650   12.9480   -2.4380 C   0  0  2  0  0  0  0  0  0  0  0  0
    2.7920   12.8010   -3.4020 C   0  0  0  0  0  0  0  0  0  0  0  0
    0.1325    9.3152   -1.2582 H   0  0  0  0  0  0  0  0  0  0  0  0
   -0.7900    9.6855   -2.7544 H   0  0  0  0  0  0  0  0  0  0  0  0
    0.4298    8.3668   -2.7544 H   0  0  0  0  0  0  0  0  0  0  0  0
    1.0276   10.6958   -3.7961 H   0  0  0  0  0  0  0  0  0  0  0  0
    3.1237    9.8325   -1.8160 H   0  0  0  0  0  0  0  0  0  0  0  0
    2.5303    8.6670   -3.0940 H   0  0  0  0  0  0  0  0  0  0  0  0
    3.6644    9.6796   -4.7190 H   0  0  0  0  0  0  0  0  0  0  0  0
    3.1962   11.3284   -4.1277 H   0  0  0  0  0  0  0  0  0  0  0  0
    4.7744    9.8689   -2.4571 H   0  0  0  0  0  0  0  0  0  0  0  0
    5.0603   10.8271   -5.9573 H   0  0  0  0  0  0  0  0  0  0  0  0
    6.6675   11.6234   -6.0543 H   0  0  0  0  0  0  0  0  0  0  0  0
    6.5518    9.8309   -6.0543 H   0  0  0  0  0  0  0  0  0  0  0  0
    7.4895   10.4714   -2.4810 H   0  0  0  0  0  0  0  0  0  0  0  0
    7.8894    9.4638   -3.9134 H   0  0  0  0  0  0  0  0  0  0  0  0
    8.2752   11.2182   -3.9134 H   0  0  0  0  0  0  0  0  0  0  0  0
    0.2183   11.5170   -1.4829 H   0  0  0  0  0  0  0  0  0  0  0  0
    1.8731   11.0077    0.2017 H   0  0  0  0  0  0  0  0  0  0  0  0
    3.1475   10.7664   -1.0122 H   0  0  0  0  0  0  0  0  0  0  0  0
    2.8585   13.0678    0.6581 H   0  0  0  0  0  0  0  0  0  0  0  0
    3.8792   13.0111   -0.7768 H   0  0  0  0  0  0  0  0  0  0  0  0
    0.9918   13.8737    0.8716 H   0  0  0  0  0  0  0  0  0  0  0  0
    0.1058   14.8575   -0.3424 H   0  0  0  0  0  0  0  0  0  0  0  0
   -0.0594   13.0688   -0.3424 H   0  0  0  0  0  0  0  0  0  0  0  0
    3.3006   14.9498   -2.1084 H   0  0  0  0  0  0  0  0  0  0  0  0
    3.1896   15.4553    0.4160 H   0  0  0  0  0  0  0  0  0  0  0  0
    3.5919   16.7748   -0.8032 H   0  0  0  0  0  0  0  0  0  0  0  0
    1.9536   17.4493    1.1470 H   0  0  0  0  0  0  0  0  0  0  0  0
   -0.4876   15.9536   -1.6986 H   0  0  0  0  0  0  0  0  0  0  0  0
    0.4517   18.6570   -2.8427 H   0  0  0  0  0  0  0  0  0  0  0  0
   -0.6684   17.4642   -3.6383 H   0  0  0  0  0  0  0  0  0  0  0  0
   -1.8853   19.3834   -2.6595 H   0  0  0  0  0  0  0  0  0  0  0  0
   -2.3206   17.8050   -1.8934 H   0  0  0  0  0  0  0  0  0  0  0  0
   -2.0898   19.4596   -0.1720 H   0  0  0  0  0  0  0  0  0  0  0  0
   -0.0200   20.2470   -1.7690 H   0  0  0  0  0  0  0  0  0  0  0  0
   -1.6868   16.9939    1.8241 H   0  0  0  0  0  0  0  0  0  0  0  0
   -2.6125   17.3620    0.3293 H   0  0  0  0  0  0  0  0  0  0  0  0
   -1.3946   16.0415    0.3293 H   0  0  0  0  0  0  0  0  0  0  0  0
   -0.4433   18.2066    2.4705 H   0  0  0  0  0  0  0  0  0  0  0  0
    1.0125   18.8194    1.6151 H   0  0  0  0  0  0  0  0  0  0  0  0
   -0.5021   19.7850    1.6151 H   0  0  0  0  0  0  0  0  0  0  0  0
    2.8975   17.6161   -2.5904 H   0  0  0  0  0  0  0  0  0  0  0  0
    3.0707   16.4586   -3.9531 H   0  0  0  0  0  0  0  0  0  0  0  0
    1.7277   17.6516   -3.9531 H   0  0  0  0  0  0  0  0  0  0  0  0
   -0.0662   15.5259   -4.0693 H   0  0  0  0  0  0  0  0  0  0  0  0
    1.6410   14.8874   -4.4038 H   0  0  0  0  0  0  0  0  0  0  0  0
   -0.4602   13.6813   -2.5828 H   0  0  0  0  0  0  0  0  0  0  0  0
    0.2211   13.0131   -4.1179 H   0  0  0  0  0  0  0  0  0  0  0  0
    3.7124   12.6907   -2.8098 H   0  0  0  0  0  0  0  0  0  0  0  0
    2.6555   11.9128   -4.0364 H   0  0  0  0  0  0  0  0  0  0  0  0
    2.8692   13.6963   -4.0364 H   0  0  0  0  0  0  0  0  0  0  0  0
  1  2  1  0
  2  3  1  0
  3  4  1  0
  4  5  1  0
  5  6  1  0
  6  7  1  0
  7  8  1  0
  7  9  1  0
  2 10  1  0
 10 11  1  0
 11 12  1  0
 12 13  1  0
 13 14  1  1
 13 15  1  0
 15 16  1  0
 16 17  1  0
 17 18  2  0
 18 19  1  0
 19 20  1  0
 20 21  1  0
 21 22  1  0
 22 23  1  0
 22 24  1  0
 24 25  1  0
 24 26  1  0
 19 27  1  0
 27 28  1  6
 27 29  1  0
 29 30  1  0
 30 31  1  0
 31 32  1  6
  7  5  1  0
 31 10  1  0
 31 13  1  0
 27 15  1  0
 24 18  1  0
  1 33  1  0
  1 34  1  0
  1 35  1  0
  2 36  1  6
  3 37  1  0
  3 38  1  0
  4 39  1  0
  4 40  1  0
  5 41  1  1
  8 42  1  0
  8 43  1  0
  8 44  1  0
  9 45  1  0
  9 46  1  0
  9 47  1  0
 10 48  1  1
 11 49  1  0
 11 50  1  0
 12 51  1  0
 12 52  1  0
 14 53  1  0
 14 54  1  0
 14 55  1  0
 15 56  1  6
 16 57  1  0
 16 58  1  0
 17 59  1  0
 19 60  1  1
 20 61  1  0
 20 62  1  0
 21 63  1  0
 21 64  1  0
 22 65  1  1
 23 66  1  0
 25 67  1  0
 25 68  1  0
 25 69  1  0
 26 70  1  0
 26 71  1  0
 26 72  1  0
 28 73  1  0
 28 74  1  0
 28 75  1  0
 29 76  1  0
 29 77  1  0
 30 78  1  0
 30 79  1  0
 32 80  1  0
 32 81  1  0
 32 82  1  0
M  END
>  <meeko>  (15) 
{"is_sidechain": [false], "intermolecular_energy": 2.731, "internal_energy": -0.839}

$$$$
EPH_relaxed_0001_pdb2pqr_Repair_172_r2_0001_out
     RDKit          3D

 82 86  0  0  0  0  0  0  0  0999 V2000
   -2.2550    7.8440   -2.1640 C   0  0  0  0  0  0  0  0  0  0  0  0
   -2.1940    8.4470   -0.7570 C   0  0  2  0  0  0  0  0  0  0  0  0
   -3.5660    8.4220   -0.0550 C   0  0  0  0  0  0  0  0  0  0  0  0
   -4.7520    8.5070   -1.0180 C   0  0  0  0  0  0  0  0  0  0  0  0
   -5.5580    7.2430   -1.0190 C   0  0  2  0  0  0  0  0  0  0  0  0
   -5.6510    6.5930   -2.2930 O   0  0  0  0  0  0  0  0  0  0  0  0
   -6.8810    7.0940   -1.7460 C   0  0  0  0  0  0  0  0  0  0  0  0
   -7.4760    8.2270   -2.5230 C   0  0  0  0  0  0  0  0  0  0  0  0
   -7.8250    6.0210   -1.3020 C   0  0  0  0  0  0  0  0  0  0  0  0
   -1.6700    9.8770   -0.8270 C   0  0  1  0  0  0  0  0  0  0  0  0
   -1.2350   10.4220    0.5600 C   0  0  0  0  0  0  0  0  0  0  0  0
   -0.0160   11.3470    0.3140 C   0  0  0  0  0  0  0  0  0  0  0  0
    0.0050   11.5670   -1.2170 C   0  0  1  0  0  0  0  0  0  0  0  0
   -1.0540   12.6840   -1.4750 C   0  0  0  0  0  0  0  0  0  0  0  0
    1.3900   11.9290   -1.8440 C   0  0  2  0  0  0  0  0  0  0  0  0
    2.0030   13.2520   -1.3550 C   0  0  0  0  0  0  0  0  0  0  0  0
    1.6410   14.4580   -2.1570 C   0  0  0  0  0  0  0  0  0  0  0  0
    1.0910   14.4440   -3.3860 C   0  0  0  0  0  0  0  0  0  0  0  0
    0.8700   13.1230   -4.1340 C   0  0  1  0  0  0  0  0  0  0  0  0
    1.3670   13.2660   -5.5970 C   0  0  0  0  0  0  0  0  0  0  0  0
    0.7370   14.4560   -6.3140 C   0  0  0  0  0  0  0  0  0  0  0  0
    1.0290   15.7580   -5.5710 C   0  0  2  0  0  0  0  0  0  0  0  0
    2.4320   16.0260   -5.6460 O   0  0  0  0  0  0  0  0  0  0  0  0
    0.5800   15.7280   -4.0840 C   0  0  0  0  0  0  0  0  0  0  0  0
   -0.9670   15.7400   -4.0060 C   0  0  0  0  0  0  0  0  0  0  0  0
    1.0590   17.0450   -3.4140 C   0  0  0  0  0  0  0  0  0  0  0  0
    1.4360   11.8190   -3.4220 C   0  0  1  0  0  0  0  0  0  0  0  0
    2.9310   11.6070   -3.8110 C   0  0  0  0  0  0  0  0  0  0  0  0
    0.6550   10.5610   -3.9580 C   0  0  0  0  0  0  0  0  0  0  0  0
   -0.6440   10.1840   -3.2210 C   0  0  0  0  0  0  0  0  0  0  0  0
   -0.4210   10.1350   -1.7060 C   0  0  2  0  0  0  0  0  0  0  0  0
    0.6230    9.0050   -1.4130 C   0  0  0  0  0  0  0  0  0  0  0  0
   -2.3655    6.7520   -2.0905 H   0  0  0  0  0  0  0  0  0  0  0  0
   -3.1153    8.2639   -2.7059 H   0  0  0  0  0  0  0  0  0  0  0  0
   -1.3281    8.0831   -2.7059 H   0  0  0  0  0  0  0  0  0  0  0  0
   -1.5072    7.8283   -0.1608 H   0  0  0  0  0  0  0  0  0  0  0  0
   -3.6476    7.4843    0.5143 H   0  0  0  0  0  0  0  0  0  0  0  0
   -3.6125    9.3111    0.5910 H   0  0  0  0  0  0  0  0  0  0  0  0
   -5.3995    9.3423   -0.7130 H   0  0  0  0  0  0  0  0  0  0  0  0
   -4.3585    8.6632   -2.0332 H   0  0  0  0  0  0  0  0  0  0  0  0
   -5.2559    7.0225    0.0155 H   0  0  0  0  0  0  0  0  0  0  0  0
   -7.8720    8.9810   -1.8268 H   0  0  0  0  0  0  0  0  0  0  0  0
   -6.7014    8.6838   -3.1565 H   0  0  0  0  0  0  0  0  0  0  0  0
   -8.2918    7.8486   -3.1565 H   0  0  0  0  0  0  0  0  0  0  0  0
   -7.8530    5.9891   -0.2028 H   0  0  0  0  0  0  0  0  0  0  0  0
   -8.8322    6.2358   -1.6884 H   0  0  0  0  0  0  0  0  0  0  0  0
   -7.4836    5.0493   -1.6884 H   0  0  0  0  0  0  0  0  0  0  0  0
   -2.5477   10.3736   -1.2664 H   0  0  0  0  0  0  0  0  0  0  0  0
   -2.0569   10.9920    1.0179 H   0  0  0  0  0  0  0  0  0  0  0  0
   -0.9760    9.6004    1.2440 H   0  0  0  0  0  0  0  0  0  0  0  0
   -0.1419   12.3038    0.8420 H   0  0  0  0  0  0  0  0  0  0  0  0
    0.9219   10.9082    0.6850 H   0  0  0  0  0  0  0  0  0  0  0  0
   -1.4208   13.0708   -0.5128 H   0  0  0  0  0  0  0  0  0  0  0  0
   -0.5920   13.5022   -2.0470 H   0  0  0  0  0  0  0  0  0  0  0  0
   -1.8956   12.2663   -2.0470 H   0  0  0  0  0  0  0  0  0  0  0  0
    2.0411   11.1351   -1.4493 H   0  0  0  0  0  0  0  0  0  0  0  0
    1.6692   13.4192   -0.3203 H   0  0  0  0  0  0  0  0  0  0  0  0
    3.0925   13.1371   -1.4536 H   0  0  0  0  0  0  0  0  0  0  0  0
    1.8404   15.4412   -1.7058 H   0  0  0  0  0  0  0  0  0  0  0  0
   -0.2158   12.9469   -4.1242 H   0  0  0  0  0  0  0  0  0  0  0  0
    2.4590   13.3977   -5.5874 H   0  0  0  0  0  0  0  0  0  0  0  0
    1.0744   12.3553   -6.1401 H   0  0  0  0  0  0  0  0  0  0  0  0
    1.1488   14.5222   -7.3318 H   0  0  0  0  0  0  0  0  0  0  0  0
   -0.3525   14.3083   -6.3487 H   0  0  0  0  0  0  0  0  0  0  0  0
    0.4465   16.5543   -6.0575 H   0  0  0  0  0  0  0  0  0  0  0  0
    2.8150   15.8320   -4.7730 H   0  0  0  0  0  0  0  0  0  0  0  0
   -1.2810   15.7424   -2.9518 H   0  0  0  0  0  0  0  0  0  0  0  0
   -1.3523   16.6412   -4.5054 H   0  0  0  0  0  0  0  0  0  0  0  0
   -1.3663   14.8449   -4.5054 H   0  0  0  0  0  0  0  0  0  0  0  0
    1.0192   16.9355   -2.3202 H   0  0  0  0  0  0  0  0  0  0  0  0
    2.0926   17.2591   -3.7237 H   0  0  0  0  0  0  0  0  0  0  0  0
    0.4045   17.8731   -3.7237 H   0  0  0  0  0  0  0  0  0  0  0  0
    3.5387   11.5208   -2.8982 H   0  0  0  0  0  0  0  0  0  0  0  0
    3.0284   10.6861   -4.4046 H   0  0  0  0  0  0  0  0  0  0  0  0
    3.2806   12.4646   -4.4046 H   0  0  0  0  0  0  0  0  0  0  0  0
    0.3971   10.7528   -5.0100 H   0  0  0  0  0  0  0  0  0  0  0  0
    1.3341    9.7107   -3.7975 H   0  0  0  0  0  0  0  0  0  0  0  0
   -1.4164   10.9339   -3.4469 H   0  0  0  0  0  0  0  0  0  0  0  0
   -0.9633    9.1877   -3.5607 H   0  0  0  0  0  0  0  0  0  0  0  0
    0.7358    8.8830   -0.3256 H   0  0  0  0  0  0  0  0  0  0  0  0
    0.2736    8.0597   -1.8538 H   0  0  0  0  0  0  0  0  0  0  0  0
    1.5930    9.2787   -1.8538 H   0  0  0  0  0  0  0  0  0  0  0  0
  1  2  1  0
  2  3  1  0
  3  4  1  0
  4  5  1  0
  5  6  1  0
  6  7  1  0
  7  8  1  0
  7  9  1  0
  2 10  1  0
 10 11  1  0
 11 12  1  0
 12 13  1  0
 13 14  1  1
 13 15  1  0
 15 16  1  0
 16 17  1  0
 17 18  2  0
 18 19  1  0
 19 20  1  0
 20 21  1  0
 21 22  1  0
 22 23  1  0
 22 24  1  0
 24 25  1  0
 24 26  1  0
 19 27  1  0
 27 28  1  6
 27 29  1  0
 29 30  1  0
 30 31  1  0
 31 32  1  6
  7  5  1  0
 31 10  1  0
 31 13  1  0
 27 15  1  0
 24 18  1  0
  1 33  1  0
  1 34  1  0
  1 35  1  0
  2 36  1  1
  3 37  1  0
  3 38  1  0
  4 39  1  0
  4 40  1  0
  5 41  1  1
  8 42  1  0
  8 43  1  0
  8 44  1  0
  9 45  1  0
  9 46  1  0
  9 47  1  0
 10 48  1  6
 11 49  1  0
 11 50  1  0
 12 51  1  0
 12 52  1  0
 14 53  1  0
 14 54  1  0
 14 55  1  0
 15 56  1  1
 16 57  1  0
 16 58  1  0
 17 59  1  0
 19 60  1  6
 20 61  1  0
 20 62  1  0
 21 63  1  0
 21 64  1  0
 22 65  1  6
 23 66  1  0
 25 67  1  0
 25 68  1  0
 25 69  1  0
 26 70  1  0
 26 71  1  0
 26 72  1  0
 28 73  1  0
 28 74  1  0
 28 75  1  0
 29 76  1  0
 29 77  1  0
 30 78  1  0
 30 79  1  0
 32 80  1  0
 32 81  1  0
 32 82  1  0
M  END
>  <meeko>  (16) 
{"is_sidechain": [false], "intermolecular_energy": 2.731, "internal_energy": -0.839}

$$$$
EPH_relaxed_0001_pdb2pqr_Repair_172_r2_0001_out
     RDKit          3D

 82 86  0  0  0  0  0  0  0  0999 V2000
    2.8340   11.3260   -5.3550 C   0  0  0  0  0  0  0  0  0  0  0  0
    1.8390   11.0240   -4.2320 C   0  0  2  0  0  0  0  0  0  0  0  0
    0.7170   10.0710   -4.6910 C   0  0  0  0  0  0  0  0  0  0  0  0
   -0.3550    9.8230   -3.6260 C   0  0  0  0  0  0  0  0  0  0  0  0
    0.1790    9.0210   -2.4780 C   0  0  2  0  0  0  0  0  0  0  0  0
   -0.6600    7.9340   -2.0660 O   0  0  0  0  0  0  0  0  0  0  0  0
   -0.4720    8.9870   -1.1070 C   0  0  0  0  0  0  0  0  0  0  0  0
   -1.7120    9.7700   -0.8130 C   0  0  0  0  0  0  0  0  0  0  0  0
    0.3620    8.5880    0.0700 C   0  0  0  0  0  0  0  0  0  0  0  0
    1.2360   12.3220   -3.7080 C   0  0  1  0  0  0  0  0  0  0  0  0
   -0.3020   12.2360   -3.5250 C   0  0  0  0  0  0  0  0  0  0  0  0
   -0.6540   13.0960   -2.2830 C   0  0  0  0  0  0  0  0  0  0  0  0
    0.6310   13.9070   -1.9940 C   0  0  1  0  0  0  0  0  0  0  0  0
    0.5810   15.1050   -2.9940 C   0  0  0  0  0  0  0  0  0  0  0  0
    0.8240   14.3930   -0.5210 C   0  0  2  0  0  0  0  0  0  0  0  0
   -0.2520   15.3650   -0.0070 C   0  0  0  0  0  0  0  0  0  0  0  0
    0.0390   16.8130   -0.2260 C   0  0  0  0  0  0  0  0  0  0  0  0
    1.2390   17.3290   -0.5510 C   0  0  0  0  0  0  0  0  0  0  0  0
    2.4840   16.4360   -0.6340 C   0  0  1  0  0  0  0  0  0  0  0  0
    3.6610   17.1180    0.1120 C   0  0  0  0  0  0  0  0  0  0  0  0
    3.9260   18.5360   -0.3850 C   0  0  0  0  0  0  0  0  0  0  0  0
    2.6830   19.4080   -0.2320 C   0  0  2  0  0  0  0  0  0  0  0  0
    2.4130   19.5860    1.1620 O   0  0  0  0  0  0  0  0  0  0  0  0
    1.4290   18.8170   -0.9350 C   0  0  0  0  0  0  0  0  0  0  0  0
    1.6040   18.9040   -2.4710 C   0  0  0  0  0  0  0  0  0  0  0  0
    0.2150   19.7200   -0.5840 C   0  0  0  0  0  0  0  0  0  0  0  0
    2.2810   14.9210   -0.1990 C   0  0  1  0  0  0  0  0  0  0  0  0
    2.4750   14.7790    1.3420 C   0  0  0  0  0  0  0  0  0  0  0  0
    3.3990   14.0390   -0.8700 C   0  0  0  0  0  0  0  0  0  0  0  0
    3.0990   13.4900   -2.2780 C   0  0  0  0  0  0  0  0  0  0  0  0
    1.7210   12.8240   -2.3240 C   0  0  2  0  0  0  0  0  0  0  0  0
    1.7470   11.6010   -1.3450 C   0  0  0  0  0  0  0  0  0  0  0  0
    3.8005   11.6194   -4.9194 H   0  0  0  0  0  0  0  0  0  0  0  0
    2.9691   10.4284   -5.9764 H   0  0  0  0  0  0  0  0  0  0  0  0
    2.4474   12.1473   -5.9764 H   0  0  0  0  0  0  0  0  0  0  0  0
    2.3931   10.5194   -3.4268 H   0  0  0  0  0  0  0  0  0  0  0  0
    0.2320   10.5070   -5.5768 H   0  0  0  0  0  0  0  0  0  0  0  0
    1.1878    9.1001   -4.9050 H   0  0  0  0  0  0  0  0  0  0  0  0
   -0.7128   10.7921   -3.2479 H   0  0  0  0  0  0  0  0  0  0  0  0
   -1.1741    9.2541   -4.0900 H   0  0  0  0  0  0  0  0  0  0  0  0
    1.2147    9.2066   -2.7988 H   0  0  0  0  0  0  0  0  0  0  0  0
   -1.8436    9.8531    0.2759 H   0  0  0  0  0  0  0  0  0  0  0  0
   -1.6226   10.7758   -1.2494 H   0  0  0  0  0  0  0  0  0  0  0  0
   -2.5817    9.2570   -1.2494 H   0  0  0  0  0  0  0  0  0  0  0  0
   -0.1694    8.8422    0.9990 H   0  0  0  0  0  0  0  0  0  0  0  0
    0.5466    7.5041    0.0380 H   0  0  0  0  0  0  0  0  0  0  0  0
    1.3218    9.1245    0.0380 H   0  0  0  0  0  0  0  0  0  0  0  0
    1.5706   13.0117   -4.4969 H   0  0  0  0  0  0  0  0  0  0  0  0
   -0.8121   12.6309   -4.4160 H   0  0  0  0  0  0  0  0  0  0  0  0
   -0.6256   11.1936   -3.3881 H   0  0  0  0  0  0  0  0  0  0  0  0
   -1.4966   13.7683   -2.5022 H   0  0  0  0  0  0  0  0  0  0  0  0
   -0.9622   12.4820   -1.4239 H   0  0  0  0  0  0  0  0  0  0  0  0
    0.5416   16.0500   -2.4324 H   0  0  0  0  0  0  0  0  0  0  0  0
    1.4805   15.0920   -3.6271 H   0  0  0  0  0  0  0  0  0  0  0  0
   -0.3143   15.0171   -3.6271 H   0  0  0  0  0  0  0  0  0  0  0  0
    0.6856   13.4649    0.0531 H   0  0  0  0  0  0  0  0  0  0  0  0
   -1.1967   15.1272   -0.5179 H   0  0  0  0  0  0  0  0  0  0  0  0
   -0.2929   15.2245    1.0832 H   0  0  0  0  0  0  0  0  0  0  0  0
   -0.7980   17.5176   -0.1121 H   0  0  0  0  0  0  0  0  0  0  0  0
    2.7228   16.3456   -1.7040 H   0  0  0  0  0  0  0  0  0  0  0  0
    3.4217   17.1594    1.1849 H   0  0  0  0  0  0  0  0  0  0  0  0
    4.5664   16.5230   -0.0784 H   0  0  0  0  0  0  0  0  0  0  0  0
    4.7479   18.9748    0.1997 H   0  0  0  0  0  0  0  0  0  0  0  0
    4.1942   18.4904   -1.4508 H   0  0  0  0  0  0  0  0  0  0  0  0
    2.8934   20.3700   -0.7223 H   0  0  0  0  0  0  0  0  0  0  0  0
    3.1890   20.0170    1.5590 H   0  0  0  0  0  0  0  0  0  0  0  0
    2.5667   19.3826   -2.7038 H   0  0  0  0  0  0  0  0  0  0  0  0
    1.5846   17.8914   -2.9002 H   0  0  0  0  0  0  0  0  0  0  0  0
    0.7850   19.4999   -2.9002 H   0  0  0  0  0  0  0  0  0  0  0  0
    0.1165   19.7933    0.5091 H   0  0  0  0  0  0  0  0  0  0  0  0
    0.3704   20.7238   -1.0063 H   0  0  0  0  0  0  0  0  0  0  0  0
   -0.7017   19.2825   -1.0063 H   0  0  0  0  0  0  0  0  0  0  0  0
    1.6937   15.3508    1.8641 H   0  0  0  0  0  0  0  0  0  0  0  0
    2.4036   13.7183    1.6244 H   0  0  0  0  0  0  0  0  0  0  0  0
    3.4645   15.1677    1.6244 H   0  0  0  0  0  0  0  0  0  0  0  0
    4.3098   14.6520   -0.9389 H   0  0  0  0  0  0  0  0  0  0  0  0
    3.4888   13.1505   -0.2277 H   0  0  0  0  0  0  0  0  0  0  0  0
    3.1222   14.3194   -3.0002 H   0  0  0  0  0  0  0  0  0  0  0  0
    3.8608   12.7380   -2.5311 H   0  0  0  0  0  0  0  0  0  0  0  0
    1.7393   11.9627   -0.3062 H   0  0  0  0  0  0  0  0  0  0  0  0
    0.8620   10.9718   -1.5207 H   0  0  0  0  0  0  0  0  0  0  0  0
    2.6579   11.0099   -1.5207 H   0  0  0  0  0  0  0  0  0  0  0  0
  1  2  1  0
  2  3  1  0
  3  4  1  0
  4  5  1  0
  5  6  1  0
  6  7  1  0
  7  8  1  0
  7  9  1  0
  2 10  1  0
 10 11  1  0
 11 12  1  0
 12 13  1  0
 13 14  1  6
 13 15  1  0
 15 16  1  0
 16 17  1  0
 17 18  2  0
 18 19  1  0
 19 20  1  0
 20 21  1  0
 21 22  1  0
 22 23  1  0
 22 24  1  0
 24 25  1  0
 24 26  1  0
 19 27  1  0
 27 28  1  1
 27 29  1  0
 29 30  1  0
 30 31  1  0
 31 32  1  1
  7  5  1  0
 31 10  1  0
 31 13  1  0
 27 15  1  0
 24 18  1  0
  1 33  1  0
  1 34  1  0
  1 35  1  0
  2 36  1  1
  3 37  1  0
  3 38  1  0
  4 39  1  0
  4 40  1  0
  5 41  1  1
  8 42  1  0
  8 43  1  0
  8 44  1  0
  9 45  1  0
  9 46  1  0
  9 47  1  0
 10 48  1  6
 11 49  1  0
 11 50  1  0
 12 51  1  0
 12 52  1  0
 14 53  1  0
 14 54  1  0
 14 55  1  0
 15 56  1  1
 16 57  1  0
 16 58  1  0
 17 59  1  0
 19 60  1  6
 20 61  1  0
 20 62  1  0
 21 63  1  0
 21 64  1  0
 22 65  1  6
 23 66  1  0
 25 67  1  0
 25 68  1  0
 25 69  1  0
 26 70  1  0
 26 71  1  0
 26 72  1  0
 28 73  1  0
 28 74  1  0
 28 75  1  0
 29 76  1  0
 29 77  1  0
 30 78  1  0
 30 79  1  0
 32 80  1  0
 32 81  1  0
 32 82  1  0
M  END
>  <meeko>  (17) 
{"is_sidechain": [false], "intermolecular_energy": 2.731, "internal_energy": -0.839}

$$$$
EPH_relaxed_0001_pdb2pqr_Repair_172_r2_0001_out
     RDKit          3D

 82 86  0  0  0  0  0  0  0  0999 V2000
   -1.7290   14.8240    0.4460 C   0  0  0  0  0  0  0  0  0  0  0  0
   -0.3800   15.5250    0.2610 C   0  0  2  0  0  0  0  0  0  0  0  0
   -0.4130   16.5520   -0.8880 C   0  0  0  0  0  0  0  0  0  0  0  0
   -0.0180   17.9680   -0.4590 C   0  0  0  0  0  0  0  0  0  0  0  0
    1.4170   18.0370   -0.0300 C   0  0  2  0  0  0  0  0  0  0  0  0
    2.0820   19.2630   -0.3610 O   0  0  0  0  0  0  0  0  0  0  0  0
    2.5800   18.0780   -1.0030 C   0  0  0  0  0  0  0  0  0  0  0  0
    2.3610   18.0500   -2.4830 C   0  0  0  0  0  0  0  0  0  0  0  0
    3.9320   17.6540   -0.5200 C   0  0  0  0  0  0  0  0  0  0  0  0
    0.7110   14.4920    0.0040 C   0  0  1  0  0  0  0  0  0  0  0  0
    0.8380   13.4590    1.1560 C   0  0  0  0  0  0  0  0  0  0  0  0
    1.2160   12.1040    0.5020 C   0  0  0  0  0  0  0  0  0  0  0  0
    1.6160   12.4690   -0.9460 C   0  0  1  0  0  0  0  0  0  0  0  0
    3.0900   12.9720   -0.8410 C   0  0  0  0  0  0  0  0  0  0  0  0
    1.4690   11.3320   -2.0100 C   0  0  2  0  0  0  0  0  0  0  0  0
    2.3510   10.0950   -1.7700 C   0  0  0  0  0  0  0  0  0  0  0  0
    3.6980   10.1380   -2.4130 C   0  0  0  0  0  0  0  0  0  0  0  0
    4.0750   10.9920   -3.3820 C   0  0  0  0  0  0  0  0  0  0  0  0
    3.0730   11.9760   -3.9980 C   0  0  1  0  0  0  0  0  0  0  0  0
    3.2020   11.9470   -5.5440 C   0  0  0  0  0  0  0  0  0  0  0  0
    4.6310   12.1970   -6.0160 C   0  0  0  0  0  0  0  0  0  0  0  0
    5.5890   11.1640   -5.4290 C   0  0  2  0  0  0  0  0  0  0  0  0
    5.2740    9.8800   -5.9770 O   0  0  0  0  0  0  0  0  0  0  0  0
    5.5390   11.0950   -3.8770 C   0  0  0  0  0  0  0  0  0  0  0  0
    6.1650   12.3800   -3.2790 C   0  0  0  0  0  0  0  0  0  0  0  0
    6.4450    9.9190   -3.4220 C   0  0  0  0  0  0  0  0  0  0  0  0
    1.5680   11.8310   -3.5090 C   0  0  1  0  0  0  0  0  0  0  0  0
    0.8250   10.7720   -4.3800 C   0  0  0  0  0  0  0  0  0  0  0  0
    0.8190   13.1970   -3.7360 C   0  0  0  0  0  0  0  0  0  0  0  0
    0.9030   14.2320   -2.5980 C   0  0  0  0  0  0  0  0  0  0  0  0
    0.5600   13.5930   -1.2490 C   0  0  2  0  0  0  0  0  0  0  0  0
   -0.9240   13.0980   -1.3170 C   0  0  0  0  0  0  0  0  0  0  0  0
   -1.9408   14.7139    1.5198 H   0  0  0  0  0  0  0  0  0  0  0  0
   -2.5217   15.4242   -0.0245 H   0  0  0  0  0  0  0  0  0  0  0  0
   -1.6934   13.8303   -0.0245 H   0  0  0  0  0  0  0  0  0  0  0  0
   -0.1618   16.0739    1.1890 H   0  0  0  0  0  0  0  0  0  0  0  0
    0.2839   16.2193   -1.6714 H   0  0  0  0  0  0  0  0  0  0  0  0
   -1.4523   16.6022   -1.2448 H   0  0  0  0  0  0  0  0  0  0  0  0
   -0.1702   18.6528   -1.3063 H   0  0  0  0  0  0  0  0  0  0  0  0
   -0.6462   18.2549    0.3972 H   0  0  0  0  0  0  0  0  0  0  0  0
    1.2102   17.4046    0.8460 H   0  0  0  0  0  0  0  0  0  0  0  0
    1.2899   17.9131   -2.6926 H   0  0  0  0  0  0  0  0  0  0  0  0
    2.7022   18.9991   -2.9222 H   0  0  0  0  0  0  0  0  0  0  0  0
    2.9300   17.2173   -2.9222 H   0  0  0  0  0  0  0  0  0  0  0  0
    3.9439   17.6503    0.5799 H   0  0  0  0  0  0  0  0  0  0  0  0
    4.1540   16.6431   -0.8925 H   0  0  0  0  0  0  0  0  0  0  0  0
    4.6916   18.3571   -0.8925 H   0  0  0  0  0  0  0  0  0  0  0  0
    1.5746   15.1625   -0.1164 H   0  0  0  0  0  0  0  0  0  0  0  0
    1.6228   13.7717    1.8604 H   0  0  0  0  0  0  0  0  0  0  0  0
   -0.1036   13.3770    1.7188 H   0  0  0  0  0  0  0  0  0  0  0  0
    2.0598   11.6386    1.0325 H   0  0  0  0  0  0  0  0  0  0  0  0
    0.3897   11.3788    0.5366 H   0  0  0  0  0  0  0  0  0  0  0  0
    3.3702   13.0676    0.2184 H   0  0  0  0  0  0  0  0  0  0  0  0
    3.7593   12.2514   -1.3337 H   0  0  0  0  0  0  0  0  0  0  0  0
    3.1792   13.9514   -1.3337 H   0  0  0  0  0  0  0  0  0  0  0  0
    0.4338   10.9946   -1.8531 H   0  0  0  0  0  0  0  0  0  0  0  0
    2.4956    9.9859   -0.6850 H   0  0  0  0  0  0  0  0  0  0  0  0
    1.8205    9.2488   -2.2309 H   0  0  0  0  0  0  0  0  0  0  0  0
    4.4454    9.4098   -2.0650 H   0  0  0  0  0  0  0  0  0  0  0  0
    3.3515   12.9702   -3.6184 H   0  0  0  0  0  0  0  0  0  0  0  0
    2.8784   10.9602   -5.9065 H   0  0  0  0  0  0  0  0  0  0  0  0
    2.5711   12.7529   -5.9471 H   0  0  0  0  0  0  0  0  0  0  0  0
    4.6634   12.1349   -7.1138 H   0  0  0  0  0  0  0  0  0  0  0  0
    4.9424   13.1962   -5.6775 H   0  0  0  0  0  0  0  0  0  0  0  0
    6.6106   11.4714   -5.6972 H   0  0  0  0  0  0  0  0  0  0  0  0
    6.0480    9.5780   -6.4830 H   0  0  0  0  0  0  0  0  0  0  0  0
    6.1378   12.3243   -2.1807 H   0  0  0  0  0  0  0  0  0  0  0  0
    7.2082   12.4707   -3.6159 H   0  0  0  0  0  0  0  0  0  0  0  0
    5.5934   13.2574   -3.6159 H   0  0  0  0  0  0  0  0  0  0  0  0
    6.4735    9.8820   -2.3230 H   0  0  0  0  0  0  0  0  0  0  0  0
    6.0402    8.9728   -3.8103 H   0  0  0  0  0  0  0  0  0  0  0  0
    7.4632   10.0690   -3.8103 H   0  0  0  0  0  0  0  0  0  0  0  0
    0.3176   10.0489   -3.7245 H   0  0  0  0  0  0  0  0  0  0  0  0
    0.0814   11.2759   -5.0149 H   0  0  0  0  0  0  0  0  0  0  0  0
    1.5519   10.2442   -5.0149 H   0  0  0  0  0  0  0  0  0  0  0  0
    1.2400   13.6613   -4.6400 H   0  0  0  0  0  0  0  0  0  0  0  0
   -0.2465   12.9330   -3.8073 H   0  0  0  0  0  0  0  0  0  0  0  0
    1.9248   14.6371   -2.5548 H   0  0  0  0  0  0  0  0  0  0  0  0
    0.1786   15.0348   -2.8000 H   0  0  0  0  0  0  0  0  0  0  0  0
   -1.3142   12.9678   -0.2968 H   0  0  0  0  0  0  0  0  0  0  0  0
   -1.5343   13.8412   -1.8510 H   0  0  0  0  0  0  0  0  0  0  0  0
   -0.9659   12.1372   -1.8510 H   0  0  0  0  0  0  0  0  0  0  0  0
  1  2  1  0
  2  3  1  0
  3  4  1  0
  4  5  1  0
  5  6  1  0
  6  7  1  0
  7  8  1  0
  7  9  1  0
  2 10  1  0
 10 11  1  0
 11 12  1  0
 12 13  1  0
 13 14  1  1
 13 15  1  0
 15 16  1  0
 16 17  1  0
 17 18  2  0
 18 19  1  0
 19 20  1  0
 20 21  1  0
 21 22  1  0
 22 23  1  0
 22 24  1  0
 24 25  1  0
 24 26  1  0
 19 27  1  0
 27 28  1  6
 27 29  1  0
 29 30  1  0
 30 31  1  0
 31 32  1  6
  7  5  1  0
 31 10  1  0
 31 13  1  0
 27 15  1  0
 24 18  1  0
  1 33  1  0
  1 34  1  0
  1 35  1  0
  2 36  1  1
  3 37  1  0
  3 38  1  0
  4 39  1  0
  4 40  1  0
  5 41  1  1
  8 42  1  0
  8 43  1  0
  8 44  1  0
  9 45  1  0
  9 46  1  0
  9 47  1  0
 10 48  1  6
 11 49  1  0
 11 50  1  0
 12 51  1  0
 12 52  1  0
 14 53  1  0
 14 54  1  0
 14 55  1  0
 15 56  1  6
 16 57  1  0
 16 58  1  0
 17 59  1  0
 19 60  1  1
 20 61  1  0
 20 62  1  0
 21 63  1  0
 21 64  1  0
 22 65  1  1
 23 66  1  0
 25 67  1  0
 25 68  1  0
 25 69  1  0
 26 70  1  0
 26 71  1  0
 26 72  1  0
 28 73  1  0
 28 74  1  0
 28 75  1  0
 29 76  1  0
 29 77  1  0
 30 78  1  0
 30 79  1  0
 32 80  1  0
 32 81  1  0
 32 82  1  0
M  END
>  <meeko>  (18) 
{"is_sidechain": [false], "intermolecular_energy": 2.731, "internal_energy": -0.839}

$$$$
EPH_relaxed_0001_pdb2pqr_Repair_172_r2_0001_out
     RDKit          3D

 82 86  0  0  0  0  0  0  0  0999 V2000
    0.8950   14.8950   -2.5930 C   0  0  0  0  0  0  0  0  0  0  0  0
    1.1750   14.2240   -3.9410 C   0  0  2  0  0  0  0  0  0  0  0  0
    0.4860   14.9570   -5.1090 C   0  0  0  0  0  0  0  0  0  0  0  0
    1.0670   14.6100   -6.4820 C   0  0  0  0  0  0  0  0  0  0  0  0
    0.8090   15.6950   -7.4840 C   0  0  2  0  0  0  0  0  0  0  0  0
    0.3280   15.2350   -8.7540 O   0  0  0  0  0  0  0  0  0  0  0  0
    1.6180   15.8680   -8.7560 C   0  0  0  0  0  0  0  0  0  0  0  0
    2.7480   14.9470   -9.0940 C   0  0  0  0  0  0  0  0  0  0  0  0
    1.6300   17.2100   -9.4190 C   0  0  0  0  0  0  0  0  0  0  0  0
    0.7230   12.7690   -3.9000 C   0  0  1  0  0  0  0  0  0  0  0  0
    1.8560   11.7800   -4.2830 C   0  0  0  0  0  0  0  0  0  0  0  0
    1.6510   10.5080   -3.4200 C   0  0  0  0  0  0  0  0  0  0  0  0
    0.2350   10.6680   -2.8200 C   0  0  1  0  0  0  0  0  0  0  0  0
   -0.7350   10.2090   -3.9530 C   0  0  0  0  0  0  0  0  0  0  0  0
   -0.0380    9.9070   -1.4820 C   0  0  2  0  0  0  0  0  0  0  0  0
    0.0660    8.3750   -1.5700 C   0  0  0  0  0  0  0  0  0  0  0  0
   -1.2060    7.6680   -1.9050 C   0  0  0  0  0  0  0  0  0  0  0  0
   -2.4380    8.2050   -1.8470 C   0  0  0  0  0  0  0  0  0  0  0  0
   -2.6530    9.6290   -1.3170 C   0  0  1  0  0  0  0  0  0  0  0  0
   -3.8380    9.6350   -0.3160 C   0  0  0  0  0  0  0  0  0  0  0  0
   -5.1090    9.0360   -0.9100 C   0  0  0  0  0  0  0  0  0  0  0  0
   -4.8710    7.6010   -1.3730 C   0  0  2  0  0  0  0  0  0  0  0  0
   -4.6200    6.7830   -0.2260 O   0  0  0  0  0  0  0  0  0  0  0  0
   -3.6930    7.4680   -2.3780 C   0  0  0  0  0  0  0  0  0  0  0  0
   -4.0920    8.1020   -3.7330 C   0  0  0  0  0  0  0  0  0  0  0  0
   -3.4690    5.9570   -2.6540 C   0  0  0  0  0  0  0  0  0  0  0  0
   -1.3630   10.3550   -0.7400 C   0  0  1  0  0  0  0  0  0  0  0  0
   -1.1750    9.9910    0.7650 C   0  0  0  0  0  0  0  0  0  0  0  0
   -1.5820   11.9130   -0.7960 C   0  0  0  0  0  0  0  0  0  0  0  0
   -1.1810   12.6250   -2.1020 C   0  0  0  0  0  0  0  0  0  0  0  0
    0.2280   12.2150   -2.5400 C   0  0  2  0  0  0  0  0  0  0  0  0
    1.2290   12.6850   -1.4300 C   0  0  0  0  0  0  0  0  0  0  0  0
    1.1795   14.2133   -1.7780 H   0  0  0  0  0  0  0  0  0  0  0  0
    1.4811   15.8227   -2.5164 H   0  0  0  0  0  0  0  0  0  0  0  0
   -0.1767   15.1310   -2.5164 H   0  0  0  0  0  0  0  0  0  0  0  0
    2.2599   14.2720   -4.1159 H   0  0  0  0  0  0  0  0  0  0  0  0
   -0.5810   14.6894   -5.1058 H   0  0  0  0  0  0  0  0  0  0  0  0
    0.6493   16.0337   -4.9538 H   0  0  0  0  0  0  0  0  0  0  0  0
    2.1532   14.4667   -6.3835 H   0  0  0  0  0  0  0  0  0  0  0  0
    0.5787   13.6910   -6.8385 H   0  0  0  0  0  0  0  0  0  0  0  0
    0.5294   16.3985   -6.6859 H   0  0  0  0  0  0  0  0  0  0  0  0
    3.2064   14.5733   -8.1665 H   0  0  0  0  0  0  0  0  0  0  0  0
    2.3667   14.0991   -9.6820 H   0  0  0  0  0  0  0  0  0  0  0  0
    3.5015   15.4915   -9.6820 H   0  0  0  0  0  0  0  0  0  0  0  0
    1.6370   17.9981   -8.6516 H   0  0  0  0  0  0  0  0  0  0  0  0
    2.5290   17.3010  -10.0463 H   0  0  0  0  0  0  0  0  0  0  0  0
    0.7328   17.3171  -10.0463 H   0  0  0  0  0  0  0  0  0  0  0  0
   -0.1127   12.8164   -4.6137 H   0  0  0  0  0  0  0  0  0  0  0  0
    1.7926   11.5269   -5.3516 H   0  0  0  0  0  0  0  0  0  0  0  0
    2.8458   12.2245   -4.1021 H   0  0  0  0  0  0  0  0  0  0  0  0
    1.7090    9.6029   -4.0424 H   0  0  0  0  0  0  0  0  0  0  0  0
    2.4233   10.4014   -2.6440 H   0  0  0  0  0  0  0  0  0  0  0  0
   -1.6435    9.7791   -3.5060 H   0  0  0  0  0  0  0  0  0  0  0  0
   -1.0068   11.0740   -4.5758 H   0  0  0  0  0  0  0  0  0  0  0  0
   -0.2384    9.4503   -4.5758 H   0  0  0  0  0  0  0  0  0  0  0  0
    0.8048   10.2278   -0.8520 H   0  0  0  0  0  0  0  0  0  0  0  0
    0.8064    8.1285   -2.3453 H   0  0  0  0  0  0  0  0  0  0  0  0
    0.3501    8.0308   -0.5646 H   0  0  0  0  0  0  0  0  0  0  0  0
   -1.1290    6.6189   -2.2265 H   0  0  0  0  0  0  0  0  0  0  0  0
   -2.9016   10.2461   -2.1930 H   0  0  0  0  0  0  0  0  0  0  0  0
   -3.5534    9.0496    0.5707 H   0  0  0  0  0  0  0  0  0  0  0  0
   -4.0517   10.6828   -0.0581 H   0  0  0  0  0  0  0  0  0  0  0  0
   -5.9005    9.0412   -0.1462 H   0  0  0  0  0  0  0  0  0  0  0  0
   -5.4091    9.6401   -1.7789 H   0  0  0  0  0  0  0  0  0  0  0  0
   -5.7753    7.2720   -1.9059 H   0  0  0  0  0  0  0  0  0  0  0  0
   -5.0090    5.9090   -0.3970 H   0  0  0  0  0  0  0  0  0  0  0  0
   -4.6699    9.0203   -3.5521 H   0  0  0  0  0  0  0  0  0  0  0  0
   -3.1846    8.3464   -4.3048 H   0  0  0  0  0  0  0  0  0  0  0  0
   -4.7049    7.3897   -4.3048 H   0  0  0  0  0  0  0  0  0  0  0  0
   -3.3890    5.4177   -1.6986 H   0  0  0  0  0  0  0  0  0  0  0  0
   -4.3180    5.5596   -3.2295 H   0  0  0  0  0  0  0  0  0  0  0  0
   -2.5412    5.8230   -3.2295 H   0  0  0  0  0  0  0  0  0  0  0  0
   -1.5900   10.7945    1.3912 H   0  0  0  0  0  0  0  0  0  0  0  0
   -1.6992    9.0487    0.9826 H   0  0  0  0  0  0  0  0  0  0  0  0
   -0.1032    9.8730    0.9826 H   0  0  0  0  0  0  0  0  0  0  0  0
   -2.6520   12.1048   -0.6276 H   0  0  0  0  0  0  0  0  0  0  0  0
   -0.9127   12.3253   -0.0266 H   0  0  0  0  0  0  0  0  0  0  0  0
   -1.8963   12.3554   -2.8930 H   0  0  0  0  0  0  0  0  0  0  0  0
   -1.1915   13.7109   -1.9267 H   0  0  0  0  0  0  0  0  0  0  0  0
    0.7982   12.4827   -0.4383 H   0  0  0  0  0  0  0  0  0  0  0  0
    2.1775   12.1381   -1.5362 H   0  0  0  0  0  0  0  0  0  0  0  0
    1.4141   13.7641   -1.5362 H   0  0  0  0  0  0  0  0  0  0  0  0
  1  2  1  0
  2  3  1  0
  3  4  1  0
  4  5  1  0
  5  6  1  0
  6  7  1  0
  7  8  1  0
  7  9  1  0
  2 10  1  0
 10 11  1  0
 11 12  1  0
 12 13  1  0
 13 14  1  6
 13 15  1  0
 15 16  1  0
 16 17  1  0
 17 18  2  0
 18 19  1  0
 19 20  1  0
 20 21  1  0
 21 22  1  0
 22 23  1  0
 22 24  1  0
 24 25  1  0
 24 26  1  0
 19 27  1  0
 27 28  1  1
 27 29  1  0
 29 30  1  0
 30 31  1  0
 31 32  1  1
  7  5  1  0
 31 10  1  0
 31 13  1  0
 27 15  1  0
 24 18  1  0
  1 33  1  0
  1 34  1  0
  1 35  1  0
  2 36  1  6
  3 37  1  0
  3 38  1  0
  4 39  1  0
  4 40  1  0
  5 41  1  1
  8 42  1  0
  8 43  1  0
  8 44  1  0
  9 45  1  0
  9 46  1  0
  9 47  1  0
 10 48  1  6
 11 49  1  0
 11 50  1  0
 12 51  1  0
 12 52  1  0
 14 53  1  0
 14 54  1  0
 14 55  1  0
 15 56  1  1
 16 57  1  0
 16 58  1  0
 17 59  1  0
 19 60  1  6
 20 61  1  0
 20 62  1  0
 21 63  1  0
 21 64  1  0
 22 65  1  6
 23 66  1  0
 25 67  1  0
 25 68  1  0
 25 69  1  0
 26 70  1  0
 26 71  1  0
 26 72  1  0
 28 73  1  0
 28 74  1  0
 28 75  1  0
 29 76  1  0
 29 77  1  0
 30 78  1  0
 30 79  1  0
 32 80  1  0
 32 81  1  0
 32 82  1  0
M  END
>  <meeko>  (19) 
{"is_sidechain": [false], "intermolecular_energy": 2.731, "internal_energy": -0.839}

$$$$
EPH_relaxed_0001_pdb2pqr_Repair_172_r2_0001_out
     RDKit          3D

 82 86  0  0  0  0  0  0  0  0999 V2000
   -2.4520    7.7840   -0.0360 C   0  0  0  0  0  0  0  0  0  0  0  0
   -3.0920    9.1750   -0.0550 C   0  0  2  0  0  0  0  0  0  0  0  0
   -4.5780    9.1250   -0.4630 C   0  0  0  0  0  0  0  0  0  0  0  0
   -5.1570    7.7090   -0.5060 C   0  0  0  0  0  0  0  0  0  0  0  0
   -5.8780    7.4440   -1.7930 C   0  0  2  0  0  0  0  0  0  0  0  0
   -6.8220    8.4550   -2.1690 O   0  0  0  0  0  0  0  0  0  0  0  0
   -7.3660    7.1580   -1.8750 C   0  0  0  0  0  0  0  0  0  0  0  0
   -8.2220    7.1220   -0.6480 C   0  0  0  0  0  0  0  0  0  0  0  0
   -7.8920    6.4380   -3.0770 C   0  0  0  0  0  0  0  0  0  0  0  0
   -2.3220   10.0880   -1.0010 C   0  0  1  0  0  0  0  0  0  0  0  0
   -2.9660   11.4940   -1.1300 C   0  0  0  0  0  0  0  0  0  0  0  0
   -1.8020   12.5050   -1.2980 C   0  0  0  0  0  0  0  0  0  0  0  0
   -0.5630   11.6280   -1.5920 C   0  0  1  0  0  0  0  0  0  0  0  0
   -0.6600   11.2950   -3.1140 C   0  0  0  0  0  0  0  0  0  0  0  0
    0.8250   12.2470   -1.2240 C   0  0  2  0  0  0  0  0  0  0  0  0
    1.1910   13.5300   -1.9900 C   0  0  0  0  0  0  0  0  0  0  0  0
    1.9390   13.3190   -3.2660 C   0  0  0  0  0  0  0  0  0  0  0  0
    2.5490   12.1780   -3.6350 C   0  0  0  0  0  0  0  0  0  0  0  0
    2.6080   10.9740   -2.6870 C   0  0  1  0  0  0  0  0  0  0  0  0
    4.0500   10.4040   -2.6620 C   0  0  0  0  0  0  0  0  0  0  0  0
    4.5730   10.0740   -4.0570 C   0  0  0  0  0  0  0  0  0  0  0  0
    4.5540   11.3100   -4.9530 C   0  0  2  0  0  0  0  0  0  0  0  0
    5.5040   12.2560   -4.4530 O   0  0  0  0  0  0  0  0  0  0  0  0
    3.1530   11.9770   -5.0470 C   0  0  0  0  0  0  0  0  0  0  0  0
    2.1980   11.0680   -5.8590 C   0  0  0  0  0  0  0  0  0  0  0  0
    3.3030   13.2890   -5.8630 C   0  0  0  0  0  0  0  0  0  0  0  0
    2.0200   11.2090   -1.2290 C   0  0  1  0  0  0  0  0  0  0  0  0
    3.1240   11.7970   -0.2980 C   0  0  0  0  0  0  0  0  0  0  0  0
    1.6090    9.8210   -0.6100 C   0  0  0  0  0  0  0  0  0  0  0  0
    0.1840    9.3200   -0.9110 C   0  0  0  0  0  0  0  0  0  0  0  0
   -0.8520   10.4140   -0.6360 C   0  0  2  0  0  0  0  0  0  0  0  0
   -0.7930   10.7550    0.8920 C   0  0  0  0  0  0  0  0  0  0  0  0
   -2.3041    7.4626    1.0056 H   0  0  0  0  0  0  0  0  0  0  0  0
   -3.1120    7.0697   -0.5500 H   0  0  0  0  0  0  0  0  0  0  0  0
   -1.4801    7.8205   -0.5500 H   0  0  0  0  0  0  0  0  0  0  0  0
   -3.0446    9.5754    0.9684 H   0  0  0  0  0  0  0  0  0  0  0  0
   -5.1573    9.7152    0.2623 H   0  0  0  0  0  0  0  0  0  0  0  0
   -4.6450    9.5307   -1.4832 H   0  0  0  0  0  0  0  0  0  0  0  0
   -4.3357    6.9847   -0.4018 H   0  0  0  0  0  0  0  0  0  0  0  0
   -5.8783    7.6082    0.3183 H   0  0  0  0  0  0  0  0  0  0  0  0
   -5.0023    6.9195   -2.2031 H   0  0  0  0  0  0  0  0  0  0  0  0
   -7.5822    7.1489    0.2464 H   0  0  0  0  0  0  0  0  0  0  0  0
   -8.8943    7.9927   -0.6442 H   0  0  0  0  0  0  0  0  0  0  0  0
   -8.8188    6.1980   -0.6442 H   0  0  0  0  0  0  0  0  0  0  0  0
   -8.5122    5.5890   -2.7536 H   0  0  0  0  0  0  0  0  0  0  0  0
   -8.5004    7.1277   -3.6804 H   0  0  0  0  0  0  0  0  0  0  0  0
   -7.0500    6.0681   -3.6804 H   0  0  0  0  0  0  0  0  0  0  0  0
   -2.3556    9.4768   -1.9149 H   0  0  0  0  0  0  0  0  0  0  0  0
   -3.6276   11.5286   -2.0081 H   0  0  0  0  0  0  0  0  0  0  0  0
   -3.5727   11.7335   -0.2443 H   0  0  0  0  0  0  0  0  0  0  0  0
   -2.0005   13.1900   -2.1355 H   0  0  0  0  0  0  0  0  0  0  0  0
   -1.6650   13.1352   -0.4069 H   0  0  0  0  0  0  0  0  0  0  0  0
   -0.9656   10.2460   -3.2411 H   0  0  0  0  0  0  0  0  0  0  0  0
   -1.4037   11.9534   -3.5867 H   0  0  0  0  0  0  0  0  0  0  0  0
    0.3209   11.4510   -3.5867 H   0  0  0  0  0  0  0  0  0  0  0  0
    0.6757   12.5559   -0.1789 H   0  0  0  0  0  0  0  0  0  0  0  0
    0.2581   14.0625   -2.2268 H   0  0  0  0  0  0  0  0  0  0  0  0
    1.8659   14.0962   -1.3312 H   0  0  0  0  0  0  0  0  0  0  0  0
    1.9958   14.1684   -3.9627 H   0  0  0  0  0  0  0  0  0  0  0  0
    1.9179   10.2258   -3.1041 H   0  0  0  0  0  0  0  0  0  0  0  0
    4.7160   11.1495   -2.2030 H   0  0  0  0  0  0  0  0  0  0  0  0
    4.0294    9.4688   -2.0833 H   0  0  0  0  0  0  0  0  0  0  0  0
    5.6057    9.7038   -3.9761 H   0  0  0  0  0  0  0  0  0  0  0  0
    3.9233    9.3067   -4.5032 H   0  0  0  0  0  0  0  0  0  0  0  0
    4.8153   10.9840   -5.9706 H   0  0  0  0  0  0  0  0  0  0  0  0
    5.3540   12.3480   -3.4970 H   0  0  0  0  0  0  0  0  0  0  0  0
    1.5779   10.4778   -5.1682 H   0  0  0  0  0  0  0  0  0  0  0  0
    1.5496   11.6908   -6.4928 H   0  0  0  0  0  0  0  0  0  0  0  0
    2.7880   10.3897   -6.4928 H   0  0  0  0  0  0  0  0  0  0  0  0
    3.4004   14.1405   -5.1735 H   0  0  0  0  0  0  0  0  0  0  0  0
    4.1998   13.2261   -6.4969 H   0  0  0  0  0  0  0  0  0  0  0  0
    2.4151   13.4301   -6.4969 H   0  0  0  0  0  0  0  0  0  0  0  0
    2.8371   11.6442    0.7529 H   0  0  0  0  0  0  0  0  0  0  0  0
    4.0791   11.2881   -0.4950 H   0  0  0  0  0  0  0  0  0  0  0  0
    3.2347   12.8735   -0.4950 H   0  0  0  0  0  0  0  0  0  0  0  0
    2.3139    9.0662   -0.9887 H   0  0  0  0  0  0  0  0  0  0  0  0
    1.6363    9.9726    0.4792 H   0  0  0  0  0  0  0  0  0  0  0  0
    0.1226    9.0242   -1.9687 H   0  0  0  0  0  0  0  0  0  0  0  0
   -0.0310    8.4616   -0.2576 H   0  0  0  0  0  0  0  0  0  0  0  0
   -0.9516    9.8381    1.4787 H   0  0  0  0  0  0  0  0  0  0  0  0
    0.1920   11.1800    1.1351 H   0  0  0  0  0  0  0  0  0  0  0  0
   -1.5780   11.4863    1.1351 H   0  0  0  0  0  0  0  0  0  0  0  0
  1  2  1  0
  2  3  1  0
  3  4  1  0
  4  5  1  0
  5  6  1  0
  6  7  1  0
  7  8  1  0
  7  9  1  0
  2 10  1  0
 10 11  1  0
 11 12  1  0
 12 13  1  0
 13 14  1  6
 13 15  1  0
 15 16  1  0
 16 17  1  0
 17 18  2  0
 18 19  1  0
 19 20  1  0
 20 21  1  0
 21 22  1  0
 22 23  1  0
 22 24  1  0
 24 25  1  0
 24 26  1  0
 19 27  1  0
 27 28  1  1
 27 29  1  0
 29 30  1  0
 30 31  1  0
 31 32  1  1
  7  5  1  0
 31 10  1  0
 31 13  1  0
 27 15  1  0
 24 18  1  0
  1 33  1  0
  1 34  1  0
  1 35  1  0
  2 36  1  1
  3 37  1  0
  3 38  1  0
  4 39  1  0
  4 40  1  0
  5 41  1  6
  8 42  1  0
  8 43  1  0
  8 44  1  0
  9 45  1  0
  9 46  1  0
  9 47  1  0
 10 48  1  6
 11 49  1  0
 11 50  1  0
 12 51  1  0
 12 52  1  0
 14 53  1  0
 14 54  1  0
 14 55  1  0
 15 56  1  1
 16 57  1  0
 16 58  1  0
 17 59  1  0
 19 60  1  6
 20 61  1  0
 20 62  1  0
 21 63  1  0
 21 64  1  0
 22 65  1  6
 23 66  1  0
 25 67  1  0
 25 68  1  0
 25 69  1  0
 26 70  1  0
 26 71  1  0
 26 72  1  0
 28 73  1  0
 28 74  1  0
 28 75  1  0
 29 76  1  0
 29 77  1  0
 30 78  1  0
 30 79  1  0
 32 80  1  0
 32 81  1  0
 32 82  1  0
M  END
>  <meeko>  (20) 
{"is_sidechain": [false], "intermolecular_energy": 2.731, "internal_energy": -0.839}

$$$$
