EPH_relaxed_0001_pdb2pqr_Repair_118_r2_0001_out
     RDKit          3D

 82 86  0  0  0  0  0  0  0  0999 V2000
   -1.2930    8.4100   -1.3820 C   0  0  0  0  0  0  0  0  0  0  0  0
   -1.9550    9.2800   -0.3100 C   0  0  2  0  0  0  0  0  0  0  0  0
   -3.3630    9.7470   -0.7290 C   0  0  0  0  0  0  0  0  0  0  0  0
   -4.4560    8.7030   -0.4860 C   0  0  0  0  0  0  0  0  0  0  0  0
   -4.9270    8.0850   -1.7680 C   0  0  2  0  0  0  0  0  0  0  0  0
   -5.9840    8.7980   -2.4240 O   0  0  0  0  0  0  0  0  0  0  0  0
   -6.3070    7.4810   -1.9480 C   0  0  0  0  0  0  0  0  0  0  0  0
   -7.3030    7.4650   -0.8310 C   0  0  0  0  0  0  0  0  0  0  0  0
   -6.5120    6.4790   -3.0400 C   0  0  0  0  0  0  0  0  0  0  0  0
   -1.0750   10.4860   -0.0030 C   0  0  1  0  0  0  0  0  0  0  0  0
    0.0270   10.1710    1.0430 C   0  0  0  0  0  0  0  0  0  0  0  0
    1.2730   11.0040    0.6440 C   0  0  0  0  0  0  0  0  0  0  0  0
    0.7490   12.0110   -0.4070 C   0  0  1  0  0  0  0  0  0  0  0  0
    0.0940   13.1560    0.4270 C   0  0  0  0  0  0  0  0  0  0  0  0
    1.8040   12.5650   -1.4190 C   0  0  2  0  0  0  0  0  0  0  0  0
    2.9500   13.3760   -0.7890 C   0  0  0  0  0  0  0  0  0  0  0  0
    2.7040   14.8440   -0.6750 C   0  0  0  0  0  0  0  0  0  0  0  0
    1.7360   15.5270   -1.3140 C   0  0  0  0  0  0  0  0  0  0  0  0
    0.8240   14.8330   -2.3330 C   0  0  1  0  0  0  0  0  0  0  0  0
    0.7120   15.7080   -3.6090 C   0  0  0  0  0  0  0  0  0  0  0  0
    0.2650   17.1350   -3.3020 C   0  0  0  0  0  0  0  0  0  0  0  0
    1.2300   17.8110   -2.3310 C   0  0  2  0  0  0  0  0  0  0  0  0
    2.4910   17.9880   -2.9820 O   0  0  0  0  0  0  0  0  0  0  0  0
    1.4300   17.0140   -1.0110 C   0  0  0  0  0  0  0  0  0  0  0  0
    0.1360   17.0810   -0.1620 C   0  0  0  0  0  0  0  0  0  0  0  0
    2.5300   17.7310   -0.1830 C   0  0  0  0  0  0  0  0  0  0  0  0
    1.1770   13.3180   -2.6610 C   0  0  1  0  0  0  0  0  0  0  0  0
    2.2370   13.2550   -3.8030 C   0  0  0  0  0  0  0  0  0  0  0  0
   -0.1110   12.5980   -3.2110 C   0  0  0  0  0  0  0  0  0  0  0  0
   -1.0530   11.9670   -2.1680 C   0  0  0  0  0  0  0  0  0  0  0  0
   -0.2710   11.0970   -1.1780 C   0  0  2  0  0  0  0  0  0  0  0  0
    0.3810    9.9230   -1.9850 C   0  0  0  0  0  0  0  0  0  0  0  0
   -0.6948    7.6238   -0.8982 H   0  0  0  0  0  0  0  0  0  0  0  0
   -2.0691    7.9467   -2.0090 H   0  0  0  0  0  0  0  0  0  0  0  0
   -0.6396    9.0344   -2.0090 H   0  0  0  0  0  0  0  0  0  0  0  0
   -2.0680    8.6631    0.5937 H   0  0  0  0  0  0  0  0  0  0  0  0
   -3.6135   10.6518   -0.1558 H   0  0  0  0  0  0  0  0  0  0  0  0
   -3.3307    9.9319   -1.8129 H   0  0  0  0  0  0  0  0  0  0  0  0
   -4.0551    7.9120    0.1649 H   0  0  0  0  0  0  0  0  0  0  0  0
   -5.3121    9.2064   -0.0131 H   0  0  0  0  0  0  0  0  0  0  0  0
   -3.9191    7.6982   -1.9790 H   0  0  0  0  0  0  0  0  0  0  0  0
   -6.7731    7.4735    0.1329 H   0  0  0  0  0  0  0  0  0  0  0  0
   -7.9484    8.3529   -0.9025 H   0  0  0  0  0  0  0  0  0  0  0  0
   -7.9195    6.5568   -0.9025 H   0  0  0  0  0  0  0  0  0  0  0  0
   -6.7140    5.4919   -2.5987 H   0  0  0  0  0  0  0  0  0  0  0  0
   -7.3663    6.7842   -3.6621 H   0  0  0  0  0  0  0  0  0  0  0  0
   -5.6065    6.4242   -3.6621 H   0  0  0  0  0  0  0  0  0  0  0  0
   -1.8453   11.1950    0.3347 H   0  0  0  0  0  0  0  0  0  0  0  0
   -0.3132   10.4564    2.0494 H   0  0  0  0  0  0  0  0  0  0  0  0
    0.2594    9.0960    1.0607 H   0  0  0  0  0  0  0  0  0  0  0  0
    1.6829   11.5323    1.5174 H   0  0  0  0  0  0  0  0  0  0  0  0
    2.0862   10.3761    0.2510 H   0  0  0  0  0  0  0  0  0  0  0  0
    0.2153   12.9439    1.4995 H   0  0  0  0  0  0  0  0  0  0  0  0
    0.5821   14.1115    0.1847 H   0  0  0  0  0  0  0  0  0  0  0  0
   -0.9771   13.2196    0.1847 H   0  0  0  0  0  0  0  0  0  0  0  0
    2.2671   11.6447   -1.8044 H   0  0  0  0  0  0  0  0  0  0  0  0
    3.1296   12.9818    0.2221 H   0  0  0  0  0  0  0  0  0  0  0  0
    3.8105   13.2630   -1.4649 H   0  0  0  0  0  0  0  0  0  0  0  0
    3.3703   15.4161   -0.0126 H   0  0  0  0  0  0  0  0  0  0  0  0
   -0.1611   14.7488   -1.8509 H   0  0  0  0  0  0  0  0  0  0  0  0
    1.6960   15.7444   -4.0993 H   0  0  0  0  0  0  0  0  0  0  0  0
   -0.0481   15.2526   -4.2608 H   0  0  0  0  0  0  0  0  0  0  0  0
    0.2331   17.7117   -4.2381 H   0  0  0  0  0  0  0  0  0  0  0  0
   -0.7321   17.0991   -2.8388 H   0  0  0  0  0  0  0  0  0  0  0  0
    0.7897   18.7788   -2.0491 H   0  0  0  0  0  0  0  0  0  0  0  0
    2.4500   18.8200   -3.4830 H   0  0  0  0  0  0  0  0  0  0  0  0
    0.3973   17.0675    0.9064 H   0  0  0  0  0  0  0  0  0  0  0  0
   -0.4077   18.0085   -0.3948 H   0  0  0  0  0  0  0  0  0  0  0  0
   -0.5005   16.2146   -0.3948 H   0  0  0  0  0  0  0  0  0  0  0  0
    2.3264   17.5983    0.8898 H   0  0  0  0  0  0  0  0  0  0  0  0
    3.5120   17.2990   -0.4260 H   0  0  0  0  0  0  0  0  0  0  0  0
    2.5311   18.8038   -0.4260 H   0  0  0  0  0  0  0  0  0  0  0  0
    3.2444   13.1951   -3.3653 H   0  0  0  0  0  0  0  0  0  0  0  0
    2.0539   12.3662   -4.4246 H   0  0  0  0  0  0  0  0  0  0  0  0
    2.1604   14.1593   -4.4246 H   0  0  0  0  0  0  0  0  0  0  0  0
   -0.6915   13.3412   -3.7772 H   0  0  0  0  0  0  0  0  0  0  0  0
    0.2641   11.7537   -3.8081 H   0  0  0  0  0  0  0  0  0  0  0  0
   -1.5665   12.7678   -1.6157 H   0  0  0  0  0  0  0  0  0  0  0  0
   -1.7824   11.3323   -2.6926 H   0  0  0  0  0  0  0  0  0  0  0  0
    0.7929    9.1812   -1.2849 H   0  0  0  0  0  0  0  0  0  0  0  0
   -0.3813    9.4457   -2.6183 H   0  0  0  0  0  0  0  0  0  0  0  0
    1.1891   10.3178   -2.6183 H   0  0  0  0  0  0  0  0  0  0  0  0
  1  2  1  0
  2  3  1  0
  3  4  1  0
  4  5  1  0
  5  6  1  0
  6  7  1  0
  7  8  1  0
  7  9  1  0
  2 10  1  0
 10 11  1  0
 11 12  1  0
 12 13  1  0
 13 14  1  1
 13 15  1  0
 15 16  1  0
 16 17  1  0
 17 18  2  0
 18 19  1  0
 19 20  1  0
 20 21  1  0
 21 22  1  0
 22 23  1  0
 22 24  1  0
 24 25  1  0
 24 26  1  0
 19 27  1  0
 27 28  1  6
 27 29  1  0
 29 30  1  0
 30 31  1  0
 31 32  1  6
  7  5  1  0
 31 10  1  0
 31 13  1  0
 27 15  1  0
 24 18  1  0
  1 33  1  0
  1 34  1  0
  1 35  1  0
  2 36  1  1
  3 37  1  0
  3 38  1  0
  4 39  1  0
  4 40  1  0
  5 41  1  6
  8 42  1  0
  8 43  1  0
  8 44  1  0
  9 45  1  0
  9 46  1  0
  9 47  1  0
 10 48  1  1
 11 49  1  0
 11 50  1  0
 12 51  1  0
 12 52  1  0
 14 53  1  0
 14 54  1  0
 14 55  1  0
 15 56  1  6
 16 57  1  0
 16 58  1  0
 17 59  1  0
 19 60  1  1
 20 61  1  0
 20 62  1  0
 21 63  1  0
 21 64  1  0
 22 65  1  1
 23 66  1  0
 25 67  1  0
 25 68  1  0
 25 69  1  0
 26 70  1  0
 26 71  1  0
 26 72  1  0
 28 73  1  0
 28 74  1  0
 28 75  1  0
 29 76  1  0
 29 77  1  0
 30 78  1  0
 30 79  1  0
 32 80  1  0
 32 81  1  0
 32 82  1  0
M  END
>  <meeko>  (1) 
{"is_sidechain": [false], "intermolecular_energy": 2.731, "internal_energy": -0.839}

$$$$
EPH_relaxed_0001_pdb2pqr_Repair_118_r2_0001_out
     RDKit          3D

 82 86  0  0  0  0  0  0  0  0999 V2000
    2.0110   19.5790   -0.6050 C   0  0  0  0  0  0  0  0  0  0  0  0
    2.3850   18.3560    0.2370 C   0  0  2  0  0  0  0  0  0  0  0  0
    3.8350   17.8970   -0.0190 C   0  0  0  0  0  0  0  0  0  0  0  0
    4.8090   18.2830    1.0980 C   0  0  0  0  0  0  0  0  0  0  0  0
    4.1020   18.9280    2.2520 C   0  0  2  0  0  0  0  0  0  0  0  0
    4.6450   20.1910    2.6560 O   0  0  0  0  0  0  0  0  0  0  0  0
    4.7360   19.1260    3.6160 C   0  0  0  0  0  0  0  0  0  0  0  0
    6.1360   18.6790    3.8980 C   0  0  0  0  0  0  0  0  0  0  0  0
    3.8400   19.3050    4.8020 C   0  0  0  0  0  0  0  0  0  0  0  0
    1.4190   17.2130   -0.0480 C   0  0  1  0  0  0  0  0  0  0  0  0
    0.1470   17.6800   -0.8040 C   0  0  0  0  0  0  0  0  0  0  0  0
   -0.2540   16.5280   -1.7600 C   0  0  0  0  0  0  0  0  0  0  0  0
    0.5900   15.3200   -1.2900 C   0  0  1  0  0  0  0  0  0  0  0  0
   -0.1850   14.7410   -0.0650 C   0  0  0  0  0  0  0  0  0  0  0  0
    0.8780   14.2190   -2.3630 C   0  0  2  0  0  0  0  0  0  0  0  0
   -0.3680   13.5030   -2.9140 C   0  0  0  0  0  0  0  0  0  0  0  0
   -0.7780   12.2750   -2.1720 C   0  0  0  0  0  0  0  0  0  0  0  0
   -0.0180   11.6060   -1.2850 C   0  0  0  0  0  0  0  0  0  0  0  0
    1.4360   12.0190   -1.0250 C   0  0  1  0  0  0  0  0  0  0  0  0
    2.3430   10.7600   -1.0360 C   0  0  0  0  0  0  0  0  0  0  0  0
    1.8600    9.6840   -0.0680 C   0  0  0  0  0  0  0  0  0  0  0  0
    0.4310    9.2580   -0.3960 C   0  0  2  0  0  0  0  0  0  0  0  0
    0.4270    8.5950   -1.6640 O   0  0  0  0  0  0  0  0  0  0  0  0
   -0.5710   10.4450   -0.4230 C   0  0  0  0  0  0  0  0  0  0  0  0
   -0.7940   10.9720    1.0160 C   0  0  0  0  0  0  0  0  0  0  0  0
   -1.9440    9.9000   -0.9030 C   0  0  0  0  0  0  0  0  0  0  0  0
    2.0010   13.1860   -1.9450 C   0  0  1  0  0  0  0  0  0  0  0  0
    2.5720   12.5900   -3.2690 C   0  0  0  0  0  0  0  0  0  0  0  0
    3.2100   13.8790   -1.2130 C   0  0  0  0  0  0  0  0  0  0  0  0
    2.8700   15.0390   -0.2570 C   0  0  0  0  0  0  0  0  0  0  0  0
    1.9350   16.0480   -0.9300 C   0  0  2  0  0  0  0  0  0  0  0  0
    2.6960   16.6630   -2.1530 C   0  0  0  0  0  0  0  0  0  0  0  0
    1.7547   20.4172    0.0596 H   0  0  0  0  0  0  0  0  0  0  0  0
    2.8637   19.8618   -1.2397 H   0  0  0  0  0  0  0  0  0  0  0  0
    1.1459   19.3365   -1.2397 H   0  0  0  0  0  0  0  0  0  0  0  0
    2.3126   18.6480    1.2951 H   0  0  0  0  0  0  0  0  0  0  0  0
    3.8397   16.8017   -0.1208 H   0  0  0  0  0  0  0  0  0  0  0  0
    4.1764   18.4049   -0.9331 H   0  0  0  0  0  0  0  0  0  0  0  0
    5.3198   17.3764    1.4546 H   0  0  0  0  0  0  0  0  0  0  0  0
    5.5296   19.0068    0.6896 H   0  0  0  0  0  0  0  0  0  0  0  0
    3.1429   18.4882    1.9410 H   0  0  0  0  0  0  0  0  0  0  0  0
    6.2929   18.6289    4.9856 H   0  0  0  0  0  0  0  0  0  0  0  0
    6.2989   17.6842    3.4578 H   0  0  0  0  0  0  0  0  0  0  0  0
    6.8453   19.3953    3.4578 H   0  0  0  0  0  0  0  0  0  0  0  0
    4.4262   19.1879    5.7254 H   0  0  0  0  0  0  0  0  0  0  0  0
    3.3937   20.3101    4.7760 H   0  0  0  0  0  0  0  0  0  0  0  0
    3.0418   18.5486    4.7760 H   0  0  0  0  0  0  0  0  0  0  0  0
    1.2450   16.8592    0.9789 H   0  0  0  0  0  0  0  0  0  0  0  0
   -0.6657   17.8800   -0.0902 H   0  0  0  0  0  0  0  0  0  0  0  0
    0.3383   18.6080   -1.3627 H   0  0  0  0  0  0  0  0  0  0  0  0
   -1.3284   16.3081   -1.6741 H   0  0  0  0  0  0  0  0  0  0  0  0
   -0.0719   16.7790   -2.8154 H   0  0  0  0  0  0  0  0  0  0  0  0
    0.2850   15.0921    0.8655 H   0  0  0  0  0  0  0  0  0  0  0  0
   -1.2306   15.0809   -0.0986 H   0  0  0  0  0  0  0  0  0  0  0  0
   -0.1555   13.6419   -0.0986 H   0  0  0  0  0  0  0  0  0  0  0  0
    1.2802   14.8059   -3.2020 H   0  0  0  0  0  0  0  0  0  0  0  0
   -1.2078   14.2129   -2.8867 H   0  0  0  0  0  0  0  0  0  0  0  0
   -0.1043   13.1713   -3.9291 H   0  0  0  0  0  0  0  0  0  0  0  0
   -1.7873   11.8831   -2.3664 H   0  0  0  0  0  0  0  0  0  0  0  0
    1.4468   12.4777   -0.0253 H   0  0  0  0  0  0  0  0  0  0  0  0
    2.3527   10.3410   -2.0530 H   0  0  0  0  0  0  0  0  0  0  0  0
    3.3491   11.0698   -0.7168 H   0  0  0  0  0  0  0  0  0  0  0  0
    2.5226    8.8091   -0.1421 H   0  0  0  0  0  0  0  0  0  0  0  0
    1.8789   10.0949    0.9522 H   0  0  0  0  0  0  0  0  0  0  0  0
    0.0956    8.5834    0.4055 H   0  0  0  0  0  0  0  0  0  0  0  0
   -0.3370    7.9940   -1.6790 H   0  0  0  0  0  0  0  0  0  0  0  0
   -0.4713   10.2093    1.7399 H   0  0  0  0  0  0  0  0  0  0  0  0
   -0.2074   11.8905    1.1651 H   0  0  0  0  0  0  0  0  0  0  0  0
   -1.8617   11.1905    1.1651 H   0  0  0  0  0  0  0  0  0  0  0  0
   -2.5660    9.6531   -0.0300 H   0  0  0  0  0  0  0  0  0  0  0  0
   -2.4505   10.6652   -1.5095 H   0  0  0  0  0  0  0  0  0  0  0  0
   -1.7878    8.9957   -1.5095 H   0  0  0  0  0  0  0  0  0  0  0  0
    3.3150   11.8144   -3.0315 H   0  0  0  0  0  0  0  0  0  0  0  0
    1.7532   12.1463   -3.8545 H   0  0  0  0  0  0  0  0  0  0  0  0
    3.0503   13.3890   -3.8545 H   0  0  0  0  0  0  0  0  0  0  0  0
    3.7315   13.1073   -0.6278 H   0  0  0  0  0  0  0  0  0  0  0  0
    3.8105   14.3331   -2.0150 H   0  0  0  0  0  0  0  0  0  0  0  0
    2.3772   14.6340    0.6392 H   0  0  0  0  0  0  0  0  0  0  0  0
    3.8032   15.5535    0.0159 H   0  0  0  0  0  0  0  0  0  0  0  0
    3.5040   17.3160   -1.7914 H   0  0  0  0  0  0  0  0  0  0  0  0
    3.1238   15.8539   -2.7633 H   0  0  0  0  0  0  0  0  0  0  0  0
    1.9947   17.2510   -2.7633 H   0  0  0  0  0  0  0  0  0  0  0  0
  1  2  1  0
  2  3  1  0
  3  4  1  0
  4  5  1  0
  5  6  1  0
  6  7  1  0
  7  8  1  0
  7  9  1  0
  2 10  1  0
 10 11  1  0
 11 12  1  0
 12 13  1  0
 13 14  1  1
 13 15  1  0
 15 16  1  0
 16 17  1  0
 17 18  2  0
 18 19  1  0
 19 20  1  0
 20 21  1  0
 21 22  1  0
 22 23  1  0
 22 24  1  0
 24 25  1  0
 24 26  1  0
 19 27  1  0
 27 28  1  6
 27 29  1  0
 29 30  1  0
 30 31  1  0
 31 32  1  6
  7  5  1  0
 31 10  1  0
 31 13  1  0
 27 15  1  0
 24 18  1  0
  1 33  1  0
  1 34  1  0
  1 35  1  0
  2 36  1  1
  3 37  1  0
  3 38  1  0
  4 39  1  0
  4 40  1  0
  5 41  1  1
  8 42  1  0
  8 43  1  0
  8 44  1  0
  9 45  1  0
  9 46  1  0
  9 47  1  0
 10 48  1  1
 11 49  1  0
 11 50  1  0
 12 51  1  0
 12 52  1  0
 14 53  1  0
 14 54  1  0
 14 55  1  0
 15 56  1  6
 16 57  1  0
 16 58  1  0
 17 59  1  0
 19 60  1  1
 20 61  1  0
 20 62  1  0
 21 63  1  0
 21 64  1  0
 22 65  1  1
 23 66  1  0
 25 67  1  0
 25 68  1  0
 25 69  1  0
 26 70  1  0
 26 71  1  0
 26 72  1  0
 28 73  1  0
 28 74  1  0
 28 75  1  0
 29 76  1  0
 29 77  1  0
 30 78  1  0
 30 79  1  0
 32 80  1  0
 32 81  1  0
 32 82  1  0
M  END
>  <meeko>  (2) 
{"is_sidechain": [false], "intermolecular_energy": 2.731, "internal_energy": -0.839}

$$$$
EPH_relaxed_0001_pdb2pqr_Repair_118_r2_0001_out
     RDKit          3D

 82 86  0  0  0  0  0  0  0  0999 V2000
    2.0100   18.1480   -2.6340 C   0  0  0  0  0  0  0  0  0  0  0  0
    0.4970   17.9210   -2.6870 C   0  0  2  0  0  0  0  0  0  0  0  0
   -0.2040   18.3790   -1.3920 C   0  0  0  0  0  0  0  0  0  0  0  0
    0.5360   17.9720   -0.1150 C   0  0  0  0  0  0  0  0  0  0  0  0
    1.1420   19.1570    0.5760 C   0  0  2  0  0  0  0  0  0  0  0  0
    2.0800   19.8960   -0.2160 O   0  0  0  0  0  0  0  0  0  0  0  0
    2.6090   19.2470    0.9510 C   0  0  0  0  0  0  0  0  0  0  0  0
    3.5610   18.1330    0.6490 C   0  0  0  0  0  0  0  0  0  0  0  0
    3.0130   20.1940    2.0370 C   0  0  0  0  0  0  0  0  0  0  0  0
    0.2000   16.4490   -2.9480 C   0  0  1  0  0  0  0  0  0  0  0  0
    0.2970   16.0780   -4.4510 C   0  0  0  0  0  0  0  0  0  0  0  0
    0.8570   14.6340   -4.5200 C   0  0  0  0  0  0  0  0  0  0  0  0
    0.7500   14.1050   -3.0710 C   0  0  1  0  0  0  0  0  0  0  0  0
   -0.7370   13.6560   -2.9160 C   0  0  0  0  0  0  0  0  0  0  0  0
    1.7420   12.9620   -2.6780 C   0  0  2  0  0  0  0  0  0  0  0  0
    1.5800   11.6550   -3.4740 C   0  0  0  0  0  0  0  0  0  0  0  0
    0.6390   10.6600   -2.8810 C   0  0  0  0  0  0  0  0  0  0  0  0
    0.1690   10.6820   -1.6200 C   0  0  0  0  0  0  0  0  0  0  0  0
    0.6620   11.7300   -0.6140 C   0  0  1  0  0  0  0  0  0  0  0  0
    1.0020   11.0380    0.7310 C   0  0  0  0  0  0  0  0  0  0  0  0
   -0.1590   10.2100    1.2730 C   0  0  0  0  0  0  0  0  0  0  0  0
   -0.5810    9.1400    0.2690 C   0  0  2  0  0  0  0  0  0  0  0  0
    0.4780    8.1870    0.1380 O   0  0  0  0  0  0  0  0  0  0  0  0
   -0.9400    9.7190   -1.1280 C   0  0  0  0  0  0  0  0  0  0  0  0
   -2.2670   10.5120   -1.0380 C   0  0  0  0  0  0  0  0  0  0  0  0
   -1.2110    8.5260   -2.0840 C   0  0  0  0  0  0  0  0  0  0  0  0
    1.8270   12.6840   -1.1220 C   0  0  1  0  0  0  0  0  0  0  0  0
    3.2120   12.0150   -0.8650 C   0  0  0  0  0  0  0  0  0  0  0  0
    1.8110   14.0120   -0.2760 C   0  0  0  0  0  0  0  0  0  0  0  0
    0.9010   15.1470   -0.7820 C   0  0  0  0  0  0  0  0  0  0  0  0
    1.1280   15.4070   -2.2750 C   0  0  2  0  0  0  0  0  0  0  0  0
    2.6090   15.8810   -2.4590 C   0  0  0  0  0  0  0  0  0  0  0  0
    2.3369   18.1970   -1.5848 H   0  0  0  0  0  0  0  0  0  0  0  0
    2.5234   17.3168   -3.1395 H   0  0  0  0  0  0  0  0  0  0  0  0
    2.2569   19.0932   -3.1395 H   0  0  0  0  0  0  0  0  0  0  0  0
    0.0996   18.5313   -3.5114 H   0  0  0  0  0  0  0  0  0  0  0  0
   -0.2867   19.4757   -1.4110 H   0  0  0  0  0  0  0  0  0  0  0  0
   -1.1863   17.8846   -1.3659 H   0  0  0  0  0  0  0  0  0  0  0  0
   -0.1746   17.4852    0.5691 H   0  0  0  0  0  0  0  0  0  0  0  0
    1.3485   17.2847   -0.3935 H   0  0  0  0  0  0  0  0  0  0  0  0
    0.2212   19.3197    1.1554 H   0  0  0  0  0  0  0  0  0  0  0  0
    3.9303   17.7009    1.5907 H   0  0  0  0  0  0  0  0  0  0  0  0
    3.0435   17.3561    0.0671 H   0  0  0  0  0  0  0  0  0  0  0  0
    4.4091   18.5231    0.0671 H   0  0  0  0  0  0  0  0  0  0  0  0
    2.8167   19.7338    3.0166 H   0  0  0  0  0  0  0  0  0  0  0  0
    4.0858   20.4197    1.9463 H   0  0  0  0  0  0  0  0  0  0  0  0
    2.4335   21.1246    1.9463 H   0  0  0  0  0  0  0  0  0  0  0  0
   -0.8110   16.3853   -2.5192 H   0  0  0  0  0  0  0  0  0  0  0  0
   -0.6986   16.1208   -4.9168 H   0  0  0  0  0  0  0  0  0  0  0  0
    0.9494   16.7808   -4.9900 H   0  0  0  0  0  0  0  0  0  0  0  0
    0.2563   14.0167   -5.2042 H   0  0  0  0  0  0  0  0  0  0  0  0
    1.8889   14.6043   -4.9000 H   0  0  0  0  0  0  0  0  0  0  0  0
   -0.9877   13.5803   -1.8476 H   0  0  0  0  0  0  0  0  0  0  0  0
   -1.3952   14.3955   -3.3956 H   0  0  0  0  0  0  0  0  0  0  0  0
   -0.8760   12.6758   -3.3956 H   0  0  0  0  0  0  0  0  0  0  0  0
    2.7138   13.3784   -2.9817 H   0  0  0  0  0  0  0  0  0  0  0  0
    1.2139   11.9122   -4.4789 H   0  0  0  0  0  0  0  0  0  0  0  0
    2.5696   11.1748   -3.4753 H   0  0  0  0  0  0  0  0  0  0  0  0
    0.3007    9.8386   -3.5298 H   0  0  0  0  0  0  0  0  0  0  0  0
   -0.1737   12.4308   -0.4711 H   0  0  0  0  0  0  0  0  0  0  0  0
    1.8665   10.3752    0.5779 H   0  0  0  0  0  0  0  0  0  0  0  0
    1.2214   11.8265    1.4660 H   0  0  0  0  0  0  0  0  0  0  0  0
    0.1522    9.7229    2.2089 H   0  0  0  0  0  0  0  0  0  0  0  0
   -1.0134   10.8789    1.4534 H   0  0  0  0  0  0  0  0  0  0  0  0
   -1.4951    8.6662    0.6562 H   0  0  0  0  0  0  0  0  0  0  0  0
    0.4760    7.8700   -0.7810 H   0  0  0  0  0  0  0  0  0  0  0  0
   -2.5295   10.6689    0.0186 H   0  0  0  0  0  0  0  0  0  0  0  0
   -2.1464   11.4862   -1.5344 H   0  0  0  0  0  0  0  0  0  0  0  0
   -3.0678    9.9443   -1.5344 H   0  0  0  0  0  0  0  0  0  0  0  0
   -1.4165    7.6216   -1.4926 H   0  0  0  0  0  0  0  0  0  0  0  0
   -2.0801    8.7546   -2.7184 H   0  0  0  0  0  0  0  0  0  0  0  0
   -0.3284    8.3567   -2.7184 H   0  0  0  0  0  0  0  0  0  0  0  0
    3.3837   11.9320    0.2183 H   0  0  0  0  0  0  0  0  0  0  0  0
    3.2240   11.0118   -1.3160 H   0  0  0  0  0  0  0  0  0  0  0  0
    4.0053   12.6293   -1.3160 H   0  0  0  0  0  0  0  0  0  0  0  0
    1.4857   13.7538    0.7426 H   0  0  0  0  0  0  0  0  0  0  0  0
    2.8339   14.4103   -0.3463 H   0  0  0  0  0  0  0  0  0  0  0  0
   -0.1499   14.8644   -0.6216 H   0  0  0  0  0  0  0  0  0  0  0  0
    1.1420   16.0646   -0.2253 H   0  0  0  0  0  0  0  0  0  0  0  0
    3.0719   16.0291   -1.4722 H   0  0  0  0  0  0  0  0  0  0  0  0
    3.1715   15.1180   -3.0170 H   0  0  0  0  0  0  0  0  0  0  0  0
    2.6240   16.8288   -3.0170 H   0  0  0  0  0  0  0  0  0  0  0  0
  1  2  1  0
  2  3  1  0
  3  4  1  0
  4  5  1  0
  5  6  1  0
  6  7  1  0
  7  8  1  0
  7  9  1  0
  2 10  1  0
 10 11  1  0
 11 12  1  0
 12 13  1  0
 13 14  1  1
 13 15  1  0
 15 16  1  0
 16 17  1  0
 17 18  2  0
 18 19  1  0
 19 20  1  0
 20 21  1  0
 21 22  1  0
 22 23  1  0
 22 24  1  0
 24 25  1  0
 24 26  1  0
 19 27  1  0
 27 28  1  6
 27 29  1  0
 29 30  1  0
 30 31  1  0
 31 32  1  1
  7  5  1  0
 31 10  1  0
 31 13  1  0
 27 15  1  0
 24 18  1  0
  1 33  1  0
  1 34  1  0
  1 35  1  0
  2 36  1  6
  3 37  1  0
  3 38  1  0
  4 39  1  0
  4 40  1  0
  5 41  1  1
  8 42  1  0
  8 43  1  0
  8 44  1  0
  9 45  1  0
  9 46  1  0
  9 47  1  0
 10 48  1  1
 11 49  1  0
 11 50  1  0
 12 51  1  0
 12 52  1  0
 14 53  1  0
 14 54  1  0
 14 55  1  0
 15 56  1  6
 16 57  1  0
 16 58  1  0
 17 59  1  0
 19 60  1  1
 20 61  1  0
 20 62  1  0
 21 63  1  0
 21 64  1  0
 22 65  1  1
 23 66  1  0
 25 67  1  0
 25 68  1  0
 25 69  1  0
 26 70  1  0
 26 71  1  0
 26 72  1  0
 28 73  1  0
 28 74  1  0
 28 75  1  0
 29 76  1  0
 29 77  1  0
 30 78  1  0
 30 79  1  0
 32 80  1  0
 32 81  1  0
 32 82  1  0
M  END
>  <meeko>  (3) 
{"is_sidechain": [false], "intermolecular_energy": 2.731, "internal_energy": -0.839}

$$$$
EPH_relaxed_0001_pdb2pqr_Repair_118_r2_0001_out
     RDKit          3D

 82 86  0  0  0  0  0  0  0  0999 V2000
    2.2230   17.9440   -2.8270 C   0  0  0  0  0  0  0  0  0  0  0  0
    0.9690   17.5130   -2.0610 C   0  0  2  0  0  0  0  0  0  0  0  0
    1.1660   17.5900   -0.5330 C   0  0  0  0  0  0  0  0  0  0  0  0
    0.8330   18.9600    0.0620 C   0  0  0  0  0  0  0  0  0  0  0  0
   -0.6160   19.0650    0.4340 C   0  0  2  0  0  0  0  0  0  0  0  0
   -1.4930   18.2300   -0.3330 O   0  0  0  0  0  0  0  0  0  0  0  0
   -1.6750   19.6470   -0.4830 C   0  0  0  0  0  0  0  0  0  0  0  0
   -1.3290   20.1640   -1.8450 C   0  0  0  0  0  0  0  0  0  0  0  0
   -2.9440   20.1590    0.1230 C   0  0  0  0  0  0  0  0  0  0  0  0
    0.5750   16.0970   -2.4640 C   0  0  1  0  0  0  0  0  0  0  0  0
    0.7370   15.8430   -3.9870 C   0  0  0  0  0  0  0  0  0  0  0  0
    1.1840   14.3670   -4.1490 C   0  0  0  0  0  0  0  0  0  0  0  0
    0.9450   13.7330   -2.7590 C   0  0  1  0  0  0  0  0  0  0  0  0
   -0.5800   13.3990   -2.7270 C   0  0  0  0  0  0  0  0  0  0  0  0
    1.8170   12.4820   -2.4110 C   0  0  2  0  0  0  0  0  0  0  0  0
    1.6030   11.2630   -3.3240 C   0  0  0  0  0  0  0  0  0  0  0  0
    0.5510   10.3050   -2.8740 C   0  0  0  0  0  0  0  0  0  0  0  0
    0.0050   10.2630   -1.6440 C   0  0  0  0  0  0  0  0  0  0  0  0
    0.5140   11.1820   -0.5260 C   0  0  1  0  0  0  0  0  0  0  0  0
    0.7130   10.3560    0.7720 C   0  0  0  0  0  0  0  0  0  0  0  0
   -0.5410    9.5860    1.1740 C   0  0  0  0  0  0  0  0  0  0  0  0
   -0.9820    8.6420    0.0600 C   0  0  2  0  0  0  0  0  0  0  0  0
    0.0040    7.6170   -0.0940 O   0  0  0  0  0  0  0  0  0  0  0  0
   -1.2050    9.3600   -1.3010 C   0  0  0  0  0  0  0  0  0  0  0  0
   -2.4690   10.2520   -1.2170 C   0  0  0  0  0  0  0  0  0  0  0  0
   -1.5080    8.2760   -2.3700 C   0  0  0  0  0  0  0  0  0  0  0  0
    1.7810   12.0720   -0.8820 C   0  0  1  0  0  0  0  0  0  0  0  0
    3.0900   11.2710   -0.6060 C   0  0  0  0  0  0  0  0  0  0  0  0
    1.8160   13.3230    0.0730 C   0  0  0  0  0  0  0  0  0  0  0  0
    1.0330   14.5690   -0.3830 C   0  0  0  0  0  0  0  0  0  0  0  0
    1.3720   14.9290   -1.8330 C   0  0  2  0  0  0  0  0  0  0  0  0
    2.8960   15.2910   -1.8910 C   0  0  0  0  0  0  0  0  0  0  0  0
    3.0139   18.2158   -2.1124 H   0  0  0  0  0  0  0  0  0  0  0  0
    2.5699   17.1135   -3.4594 H   0  0  0  0  0  0  0  0  0  0  0  0
    1.9860   18.8123   -3.4594 H   0  0  0  0  0  0  0  0  0  0  0  0
    0.1630   18.2132   -2.3256 H   0  0  0  0  0  0  0  0  0  0  0  0
    0.5157   16.8389   -0.0607 H   0  0  0  0  0  0  0  0  0  0  0  0
    2.2324   17.4049   -0.3367 H   0  0  0  0  0  0  0  0  0  0  0  0
    1.4447   19.1158    0.9629 H   0  0  0  0  0  0  0  0  0  0  0  0
    1.0487   19.7257   -0.6977 H   0  0  0  0  0  0  0  0  0  0  0  0
   -0.3561   19.2683    1.4833 H   0  0  0  0  0  0  0  0  0  0  0  0
   -0.7196   21.0746   -1.7476 H   0  0  0  0  0  0  0  0  0  0  0  0
   -0.7602   19.3991   -2.3940 H   0  0  0  0  0  0  0  0  0  0  0  0
   -2.2530   20.3981   -2.3940 H   0  0  0  0  0  0  0  0  0  0  0  0
   -2.8655   20.1273    1.2197 H   0  0  0  0  0  0  0  0  0  0  0  0
   -3.1136   21.1959   -0.2027 H   0  0  0  0  0  0  0  0  0  0  0  0
   -3.7857   19.5301   -0.2027 H   0  0  0  0  0  0  0  0  0  0  0  0
   -0.4625   16.0838   -2.0986 H   0  0  0  0  0  0  0  0  0  0  0  0
   -0.2207   16.0076   -4.5025 H   0  0  0  0  0  0  0  0  0  0  0  0
    1.4757   16.5299   -4.4257 H   0  0  0  0  0  0  0  0  0  0  0  0
    0.5801   13.8602   -4.9161 H   0  0  0  0  0  0  0  0  0  0  0  0
    2.2319   14.2813   -4.4723 H   0  0  0  0  0  0  0  0  0  0  0  0
   -0.9173   13.3251   -1.6826 H   0  0  0  0  0  0  0  0  0  0  0  0
   -1.1406   14.1956   -3.2379 H   0  0  0  0  0  0  0  0  0  0  0  0
   -0.7563   12.4409   -3.2379 H   0  0  0  0  0  0  0  0  0  0  0  0
    2.8359   12.8385   -2.6227 H   0  0  0  0  0  0  0  0  0  0  0  0
    1.3227   11.6311   -4.3220 H   0  0  0  0  0  0  0  0  0  0  0  0
    2.5497   10.7031   -3.3101 H   0  0  0  0  0  0  0  0  0  0  0  0
    0.1910    9.5708   -3.6097 H   0  0  0  0  0  0  0  0  0  0  0  0
   -0.2711   11.9371   -0.3725 H   0  0  0  0  0  0  0  0  0  0  0  0
    1.5310    9.6383    0.6112 H   0  0  0  0  0  0  0  0  0  0  0  0
    0.9462   11.0609    1.5836 H   0  0  0  0  0  0  0  0  0  0  0  0
   -0.3282    8.9993    2.0798 H   0  0  0  0  0  0  0  0  0  0  0  0
   -1.3498   10.3070    1.3638 H   0  0  0  0  0  0  0  0  0  0  0  0
   -1.9536    8.2182    0.3540 H   0  0  0  0  0  0  0  0  0  0  0  0
    0.0410    7.3820   -1.0360 H   0  0  0  0  0  0  0  0  0  0  0  0
   -2.7222   10.4307   -0.1616 H   0  0  0  0  0  0  0  0  0  0  0  0
   -2.2733   11.2131   -1.7149 H   0  0  0  0  0  0  0  0  0  0  0  0
   -3.3090    9.7455   -1.7149 H   0  0  0  0  0  0  0  0  0  0  0  0
   -1.7718    7.3321   -1.8705 H   0  0  0  0  0  0  0  0  0  0  0  0
   -2.3484    8.6056   -2.9985 H   0  0  0  0  0  0  0  0  0  0  0  0
   -0.6185    8.1221   -2.9985 H   0  0  0  0  0  0  0  0  0  0  0  0
    3.2412   11.1785    0.4796 H   0  0  0  0  0  0  0  0  0  0  0  0
    3.0073   10.2686   -1.0515 H   0  0  0  0  0  0  0  0  0  0  0  0
    3.9449   11.8008   -1.0515 H   0  0  0  0  0  0  0  0  0  0  0  0
    1.4070   13.0107    1.0452 H   0  0  0  0  0  0  0  0  0  0  0  0
    2.8697   13.6381    0.0950 H   0  0  0  0  0  0  0  0  0  0  0  0
   -0.0451   14.3649   -0.3055 H   0  0  0  0  0  0  0  0  0  0  0  0
    1.3120   15.4146    0.2629 H   0  0  0  0  0  0  0  0  0  0  0  0
    3.2898   15.3845   -0.8682 H   0  0  0  0  0  0  0  0  0  0  0  0
    3.4414   14.4974   -2.4228 H   0  0  0  0  0  0  0  0  0  0  0  0
    3.0263   16.2451   -2.4228 H   0  0  0  0  0  0  0  0  0  0  0  0
  1  2  1  0
  2  3  1  0
  3  4  1  0
  4  5  1  0
  5  6  1  0
  6  7  1  0
  7  8  1  0
  7  9  1  0
  2 10  1  0
 10 11  1  0
 11 12  1  0
 12 13  1  0
 13 14  1  6
 13 15  1  0
 15 16  1  0
 16 17  1  0
 17 18  2  0
 18 19  1  0
 19 20  1  0
 20 21  1  0
 21 22  1  0
 22 23  1  0
 22 24  1  0
 24 25  1  0
 24 26  1  0
 19 27  1  0
 27 28  1  1
 27 29  1  0
 29 30  1  0
 30 31  1  0
 31 32  1  1
  7  5  1  0
 31 10  1  0
 31 13  1  0
 27 15  1  0
 24 18  1  0
  1 33  1  0
  1 34  1  0
  1 35  1  0
  2 36  1  6
  3 37  1  0
  3 38  1  0
  4 39  1  0
  4 40  1  0
  5 41  1  1
  8 42  1  0
  8 43  1  0
  8 44  1  0
  9 45  1  0
  9 46  1  0
  9 47  1  0
 10 48  1  1
 11 49  1  0
 11 50  1  0
 12 51  1  0
 12 52  1  0
 14 53  1  0
 14 54  1  0
 14 55  1  0
 15 56  1  6
 16 57  1  0
 16 58  1  0
 17 59  1  0
 19 60  1  1
 20 61  1  0
 20 62  1  0
 21 63  1  0
 21 64  1  0
 22 65  1  1
 23 66  1  0
 25 67  1  0
 25 68  1  0
 25 69  1  0
 26 70  1  0
 26 71  1  0
 26 72  1  0
 28 73  1  0
 28 74  1  0
 28 75  1  0
 29 76  1  0
 29 77  1  0
 30 78  1  0
 30 79  1  0
 32 80  1  0
 32 81  1  0
 32 82  1  0
M  END
>  <meeko>  (4) 
{"is_sidechain": [false], "intermolecular_energy": 2.731, "internal_energy": -0.839}

$$$$
EPH_relaxed_0001_pdb2pqr_Repair_118_r2_0001_out
     RDKit          3D

 82 86  0  0  0  0  0  0  0  0999 V2000
    3.5180   17.6000    0.6500 C   0  0  0  0  0  0  0  0  0  0  0  0
    2.6670   17.7980   -0.6070 C   0  0  2  0  0  0  0  0  0  0  0  0
    2.0000   19.1880   -0.6450 C   0  0  0  0  0  0  0  0  0  0  0  0
    1.2420   19.5420    0.6380 C   0  0  0  0  0  0  0  0  0  0  0  0
   -0.0970   20.1450    0.3410 C   0  0  2  0  0  0  0  0  0  0  0  0
   -0.9930   20.1940    1.4600 O   0  0  0  0  0  0  0  0  0  0  0  0
   -1.3940   19.3570    0.3630 C   0  0  0  0  0  0  0  0  0  0  0  0
   -1.4130   17.8960    0.6880 C   0  0  0  0  0  0  0  0  0  0  0  0
   -2.5660   19.8870   -0.4020 C   0  0  0  0  0  0  0  0  0  0  0  0
    1.6050   16.7080   -0.6930 C   0  0  1  0  0  0  0  0  0  0  0  0
    0.3140   17.1860   -1.4100 C   0  0  0  0  0  0  0  0  0  0  0  0
   -0.2360   15.9700   -2.1980 C   0  0  0  0  0  0  0  0  0  0  0  0
    0.5550   14.7590   -1.6500 C   0  0  1  0  0  0  0  0  0  0  0  0
   -0.1630   14.3810   -0.3170 C   0  0  0  0  0  0  0  0  0  0  0  0
    0.6850   13.5280   -2.6050 C   0  0  2  0  0  0  0  0  0  0  0  0
   -0.6450   12.8540   -2.9850 C   0  0  0  0  0  0  0  0  0  0  0  0
   -1.0820   11.7510   -2.0800 C   0  0  0  0  0  0  0  0  0  0  0  0
   -0.3040   11.1270   -1.1760 C   0  0  0  0  0  0  0  0  0  0  0  0
    1.1900   11.4530   -1.0640 C   0  0  1  0  0  0  0  0  0  0  0  0
    2.0040   10.1340   -0.9900 C   0  0  0  0  0  0  0  0  0  0  0  0
    1.5230    9.2110    0.1250 C   0  0  0  0  0  0  0  0  0  0  0  0
    0.0480    8.8630   -0.0540 C   0  0  2  0  0  0  0  0  0  0  0  0
   -0.0980    8.0670   -1.2340 O   0  0  0  0  0  0  0  0  0  0  0  0
   -0.8700   10.1130   -0.1500 C   0  0  0  0  0  0  0  0  0  0  0  0
   -0.9460   10.8110    1.2300 C   0  0  0  0  0  0  0  0  0  0  0  0
   -2.3090    9.6260   -0.4710 C   0  0  0  0  0  0  0  0  0  0  0  0
    1.7630   12.4640   -2.1480 C   0  0  1  0  0  0  0  0  0  0  0  0
    2.1900   11.6840   -3.4290 C   0  0  0  0  0  0  0  0  0  0  0  0
    3.0690   13.1380   -1.5840 C   0  0  0  0  0  0  0  0  0  0  0  0
    2.8830   14.4190   -0.7470 C   0  0  0  0  0  0  0  0  0  0  0  0
    1.9720   15.4170   -1.4670 C   0  0  2  0  0  0  0  0  0  0  0  0
    2.6780   15.8330   -2.8020 C   0  0  0  0  0  0  0  0  0  0  0  0
    2.8924   17.7456    1.5430 H   0  0  0  0  0  0  0  0  0  0  0  0
    3.9330   16.5813    0.6551 H   0  0  0  0  0  0  0  0  0  0  0  0
    4.3401   18.3309    0.6551 H   0  0  0  0  0  0  0  0  0  0  0  0
    3.3394   17.7313   -1.4750 H   0  0  0  0  0  0  0  0  0  0  0  0
    2.7823   19.9444   -0.8062 H   0  0  0  0  0  0  0  0  0  0  0  0
    1.2614   19.1682   -1.4599 H   0  0  0  0  0  0  0  0  0  0  0  0
    1.0974   18.6268    1.2309 H   0  0  0  0  0  0  0  0  0  0  0  0
    1.8359   20.2819    1.1946 H   0  0  0  0  0  0  0  0  0  0  0  0
    0.3457   20.8161   -0.4098 H   0  0  0  0  0  0  0  0  0  0  0  0
   -1.4147   17.7633    1.7800 H   0  0  0  0  0  0  0  0  0  0  0  0
   -2.3172   17.4372    0.2614 H   0  0  0  0  0  0  0  0  0  0  0  0
   -0.5210   17.4138    0.2614 H   0  0  0  0  0  0  0  0  0  0  0  0
   -3.3362   20.2353    0.3019 H   0  0  0  0  0  0  0  0  0  0  0  0
   -2.2416   20.7260   -1.0351 H   0  0  0  0  0  0  0  0  0  0  0  0
   -2.9817   19.0893   -1.0351 H   0  0  0  0  0  0  0  0  0  0  0  0
    1.4845   16.4836    0.3771 H   0  0  0  0  0  0  0  0  0  0  0  0
   -0.4267   17.5247   -0.6706 H   0  0  0  0  0  0  0  0  0  0  0  0
    0.5254   18.0300   -2.0830 H   0  0  0  0  0  0  0  0  0  0  0  0
   -1.3135   15.8445   -2.0158 H   0  0  0  0  0  0  0  0  0  0  0  0
   -0.1162   16.0889   -3.2850 H   0  0  0  0  0  0  0  0  0  0  0  0
    0.4522   14.7049    0.5354 H   0  0  0  0  0  0  0  0  0  0  0  0
   -1.1420   14.8806   -0.2734 H   0  0  0  0  0  0  0  0  0  0  0  0
   -0.3052   13.2911   -0.2734 H   0  0  0  0  0  0  0  0  0  0  0  0
    1.0625   13.9864   -3.5309 H   0  0  0  0  0  0  0  0  0  0  0  0
   -1.4293   13.6253   -2.9841 H   0  0  0  0  0  0  0  0  0  0  0  0
   -0.4818   12.3927   -3.9702 H   0  0  0  0  0  0  0  0  0  0  0  0
   -2.1281   11.4199   -2.1582 H   0  0  0  0  0  0  0  0  0  0  0  0
    1.3082   12.0176   -0.1274 H   0  0  0  0  0  0  0  0  0  0  0  0
    1.9082    9.6063   -1.9504 H   0  0  0  0  0  0  0  0  0  0  0  0
    3.0499   10.3990   -0.7759 H   0  0  0  0  0  0  0  0  0  0  0  0
    2.1163    8.2849    0.1069 H   0  0  0  0  0  0  0  0  0  0  0  0
    1.6476    9.7285    1.0877 H   0  0  0  0  0  0  0  0  0  0  0  0
   -0.2706    8.3088    0.8412 H   0  0  0  0  0  0  0  0  0  0  0  0
   -0.9940    8.2150   -1.5800 H   0  0  0  0  0  0  0  0  0  0  0  0
   -0.8639   10.0574    2.0271 H   0  0  0  0  0  0  0  0  0  0  0  0
   -0.1212   11.5330    1.3217 H   0  0  0  0  0  0  0  0  0  0  0  0
   -1.9069   11.3385    1.3217 H   0  0  0  0  0  0  0  0  0  0  0  0
   -2.8519    9.4423    0.4679 H   0  0  0  0  0  0  0  0  0  0  0  0
   -2.8352   10.3961   -1.0541 H   0  0  0  0  0  0  0  0  0  0  0  0
   -2.2594    8.6946   -1.0541 H   0  0  0  0  0  0  0  0  0  0  0  0
    2.6995   10.7533   -3.1388 H   0  0  0  0  0  0  0  0  0  0  0  0
    1.2980   11.4430   -4.0259 H   0  0  0  0  0  0  0  0  0  0  0  0
    2.8737   12.3055   -4.0259 H   0  0  0  0  0  0  0  0  0  0  0  0
    3.5789   12.3974   -0.9504 H   0  0  0  0  0  0  0  0  0  0  0  0
    3.6369   13.4535   -2.4716 H   0  0  0  0  0  0  0  0  0  0  0  0
    2.4325   14.1541    0.2209 H   0  0  0  0  0  0  0  0  0  0  0  0
    3.8674   14.8868   -0.5985 H   0  0  0  0  0  0  0  0  0  0  0  0
    3.6048   16.3791   -2.5720 H   0  0  0  0  0  0  0  0  0  0  0  0
    2.9185   14.9322   -3.3858 H   0  0  0  0  0  0  0  0  0  0  0  0
    2.0066   16.4798   -3.3858 H   0  0  0  0  0  0  0  0  0  0  0  0
  1  2  1  0
  2  3  1  0
  3  4  1  0
  4  5  1  0
  5  6  1  0
  6  7  1  0
  7  8  1  0
  7  9  1  0
  2 10  1  0
 10 11  1  0
 11 12  1  0
 12 13  1  0
 13 14  1  1
 13 15  1  0
 15 16  1  0
 16 17  1  0
 17 18  2  0
 18 19  1  0
 19 20  1  0
 20 21  1  0
 21 22  1  0
 22 23  1  0
 22 24  1  0
 24 25  1  0
 24 26  1  0
 19 27  1  0
 27 28  1  6
 27 29  1  0
 29 30  1  0
 30 31  1  0
 31 32  1  6
  7  5  1  0
 31 10  1  0
 31 13  1  0
 27 15  1  0
 24 18  1  0
  1 33  1  0
  1 34  1  0
  1 35  1  0
  2 36  1  6
  3 37  1  0
  3 38  1  0
  4 39  1  0
  4 40  1  0
  5 41  1  6
  8 42  1  0
  8 43  1  0
  8 44  1  0
  9 45  1  0
  9 46  1  0
  9 47  1  0
 10 48  1  1
 11 49  1  0
 11 50  1  0
 12 51  1  0
 12 52  1  0
 14 53  1  0
 14 54  1  0
 14 55  1  0
 15 56  1  6
 16 57  1  0
 16 58  1  0
 17 59  1  0
 19 60  1  1
 20 61  1  0
 20 62  1  0
 21 63  1  0
 21 64  1  0
 22 65  1  1
 23 66  1  0
 25 67  1  0
 25 68  1  0
 25 69  1  0
 26 70  1  0
 26 71  1  0
 26 72  1  0
 28 73  1  0
 28 74  1  0
 28 75  1  0
 29 76  1  0
 29 77  1  0
 30 78  1  0
 30 79  1  0
 32 80  1  0
 32 81  1  0
 32 82  1  0
M  END
>  <meeko>  (5) 
{"is_sidechain": [false], "intermolecular_energy": 2.731, "internal_energy": -0.839}

$$$$
EPH_relaxed_0001_pdb2pqr_Repair_118_r2_0001_out
     RDKit          3D

 82 86  0  0  0  0  0  0  0  0999 V2000
   -5.1700    5.9960   -1.7590 C   0  0  0  0  0  0  0  0  0  0  0  0
   -5.4720    7.4870   -1.9340 C   0  0  2  0  0  0  0  0  0  0  0  0
   -5.2000    8.2900   -0.6460 C   0  0  0  0  0  0  0  0  0  0  0  0
   -4.1690    9.4080   -0.8250 C   0  0  0  0  0  0  0  0  0  0  0  0
   -2.7960    8.9660   -0.4170 C   0  0  2  0  0  0  0  0  0  0  0  0
   -2.2230    9.7120    0.6640 O   0  0  0  0  0  0  0  0  0  0  0  0
   -1.5530    9.8170   -0.6030 C   0  0  0  0  0  0  0  0  0  0  0  0
   -1.6260   11.1790   -1.2180 C   0  0  0  0  0  0  0  0  0  0  0  0
   -0.2200    9.1380   -0.6380 C   0  0  0  0  0  0  0  0  0  0  0  0
   -6.9210    7.6760   -2.3690 C   0  0  1  0  0  0  0  0  0  0  0  0
   -7.2460    6.9420   -3.6970 C   0  0  0  0  0  0  0  0  0  0  0  0
   -8.7100    6.4440   -3.5860 C   0  0  0  0  0  0  0  0  0  0  0  0
   -9.2820    7.1850   -2.3540 C   0  0  1  0  0  0  0  0  0  0  0  0
   -9.6710    8.6010   -2.8830 C   0  0  0  0  0  0  0  0  0  0  0  0
  -10.4790    6.4920   -1.6250 C   0  0  2  0  0  0  0  0  0  0  0  0
  -11.7500    6.3220   -2.4750 C   0  0  0  0  0  0  0  0  0  0  0  0
  -12.7230    7.4520   -2.3990 C   0  0  0  0  0  0  0  0  0  0  0  0
  -12.7230    8.4240   -1.4670 C   0  0  0  0  0  0  0  0  0  0  0  0
  -11.7300    8.3930   -0.2980 C   0  0  1  0  0  0  0  0  0  0  0  0
  -12.4800    8.6900    1.0270 C   0  0  0  0  0  0  0  0  0  0  0  0
  -13.2750    9.9910    0.9700 C   0  0  0  0  0  0  0  0  0  0  0  0
  -14.2910    9.9600   -0.1680 C   0  0  2  0  0  0  0  0  0  0  0  0
  -15.2850    8.9740    0.1280 O   0  0  0  0  0  0  0  0  0  0  0  0
  -13.6520    9.6590   -1.5530 C   0  0  0  0  0  0  0  0  0  0  0  0
  -12.8060   10.8730   -2.0100 C   0  0  0  0  0  0  0  0  0  0  0  0
  -14.8000    9.5160   -2.5880 C   0  0  0  0  0  0  0  0  0  0  0  0
  -10.8110    7.1000   -0.2020 C   0  0  1  0  0  0  0  0  0  0  0  0
  -11.5470    5.9820    0.5980 C   0  0  0  0  0  0  0  0  0  0  0  0
   -9.5120    7.4510    0.6160 C   0  0  0  0  0  0  0  0  0  0  0  0
   -8.3220    8.0210   -0.1800 C   0  0  0  0  0  0  0  0  0  0  0  0
   -8.0240    7.1600   -1.4110 C   0  0  2  0  0  0  0  0  0  0  0  0
   -7.6080    5.7350   -0.9100 C   0  0  0  0  0  0  0  0  0  0  0  0
   -5.1212    5.7552   -0.6868 H   0  0  0  0  0  0  0  0  0  0  0  0
   -5.9662    5.4026   -2.2322 H   0  0  0  0  0  0  0  0  0  0  0  0
   -4.2057    5.7592   -2.2322 H   0  0  0  0  0  0  0  0  0  0  0  0
   -4.7965    7.8723   -2.7120 H   0  0  0  0  0  0  0  0  0  0  0  0
   -6.1461    8.7402   -0.3109 H   0  0  0  0  0  0  0  0  0  0  0  0
   -4.7866    7.5859    0.0911 H   0  0  0  0  0  0  0  0  0  0  0  0
   -4.1475    9.7071   -1.8833 H   0  0  0  0  0  0  0  0  0  0  0  0
   -4.4627   10.2516   -0.1831 H   0  0  0  0  0  0  0  0  0  0  0  0
   -3.0251    7.9251   -0.6890 H   0  0  0  0  0  0  0  0  0  0  0  0
   -1.6667   11.9385   -0.4233 H   0  0  0  0  0  0  0  0  0  0  0  0
   -0.7356   11.3480   -1.8414 H   0  0  0  0  0  0  0  0  0  0  0  0
   -2.5293   11.2519   -1.8414 H   0  0  0  0  0  0  0  0  0  0  0  0
    0.1282    8.9606    0.3902 H   0  0  0  0  0  0  0  0  0  0  0  0
   -0.3118    8.1768   -1.1650 H   0  0  0  0  0  0  0  0  0  0  0  0
    0.5035    9.7774   -1.1650 H   0  0  0  0  0  0  0  0  0  0  0  0
   -6.9553    8.7740   -2.4255 H   0  0  0  0  0  0  0  0  0  0  0  0
   -7.1444    7.6333   -4.5466 H   0  0  0  0  0  0  0  0  0  0  0  0
   -6.5548    6.1027   -3.8638 H   0  0  0  0  0  0  0  0  0  0  0  0
   -9.2776    6.7018   -4.4923 H   0  0  0  0  0  0  0  0  0  0  0  0
   -8.7719    5.3508   -3.4811 H   0  0  0  0  0  0  0  0  0  0  0  0
   -9.8555    9.2726   -2.0316 H   0  0  0  0  0  0  0  0  0  0  0  0
   -8.8498    9.0021   -3.4951 H   0  0  0  0  0  0  0  0  0  0  0  0
  -10.5819    8.5263   -3.4951 H   0  0  0  0  0  0  0  0  0  0  0  0
  -10.0955    5.4751   -1.4553 H   0  0  0  0  0  0  0  0  0  0  0  0
  -11.4438    6.2069   -3.5253 H   0  0  0  0  0  0  0  0  0  0  0  0
  -12.2721    5.4426   -2.0699 H   0  0  0  0  0  0  0  0  0  0  0  0
  -13.5065    7.4941   -3.1699 H   0  0  0  0  0  0  0  0  0  0  0  0
  -10.9988    9.1896   -0.4999 H   0  0  0  0  0  0  0  0  0  0  0  0
  -13.1737    7.8615    1.2329 H   0  0  0  0  0  0  0  0  0  0  0  0
  -11.7263    8.7937    1.8214 H   0  0  0  0  0  0  0  0  0  0  0  0
  -13.8062   10.1303    1.9231 H   0  0  0  0  0  0  0  0  0  0  0  0
  -12.5761   10.8220    0.7941 H   0  0  0  0  0  0  0  0  0  0  0  0
  -14.7358   10.9635   -0.2399 H   0  0  0  0  0  0  0  0  0  0  0  0
  -15.8110    9.3010    0.8760 H   0  0  0  0  0  0  0  0  0  0  0  0
  -12.4307   11.4115   -1.1273 H   0  0  0  0  0  0  0  0  0  0  0  0
  -11.9563   10.5214   -2.6137 H   0  0  0  0  0  0  0  0  0  0  0  0
  -13.4301   11.5484   -2.6137 H   0  0  0  0  0  0  0  0  0  0  0  0
  -15.7574    9.3967   -2.0596 H   0  0  0  0  0  0  0  0  0  0  0  0
  -14.8391   10.4162   -3.2189 H   0  0  0  0  0  0  0  0  0  0  0  0
  -14.6171    8.6337   -3.2189 H   0  0  0  0  0  0  0  0  0  0  0  0
  -11.4275    6.1635    1.6763 H   0  0  0  0  0  0  0  0  0  0  0  0
  -12.6165    5.9908    0.3410 H   0  0  0  0  0  0  0  0  0  0  0  0
  -11.1162    5.0031    0.3410 H   0  0  0  0  0  0  0  0  0  0  0  0
   -9.7893    8.1944    1.3778 H   0  0  0  0  0  0  0  0  0  0  0  0
   -9.1562    6.4904    1.0169 H   0  0  0  0  0  0  0  0  0  0  0  0
   -8.5636    9.0435   -0.5058 H   0  0  0  0  0  0  0  0  0  0  0  0
   -7.4343    8.0238    0.4696 H   0  0  0  0  0  0  0  0  0  0  0  0
   -7.6036    5.7199    0.1899 H   0  0  0  0  0  0  0  0  0  0  0  0
   -8.3263    4.9906   -1.2841 H   0  0  0  0  0  0  0  0  0  0  0  0
   -6.6020    5.4940   -1.2841 H   0  0  0  0  0  0  0  0  0  0  0  0
  1  2  1  0
  2  3  1  0
  3  4  1  0
  4  5  1  0
  5  6  1  0
  6  7  1  0
  7  8  1  0
  7  9  1  0
  2 10  1  0
 10 11  1  0
 11 12  1  0
 12 13  1  0
 13 14  1  6
 13 15  1  0
 15 16  1  0
 16 17  1  0
 17 18  2  0
 18 19  1  0
 19 20  1  0
 20 21  1  0
 21 22  1  0
 22 23  1  0
 22 24  1  0
 24 25  1  0
 24 26  1  0
 19 27  1  0
 27 28  1  1
 27 29  1  0
 29 30  1  0
 30 31  1  0
 31 32  1  1
  7  5  1  0
 31 10  1  0
 31 13  1  0
 27 15  1  0
 24 18  1  0
  1 33  1  0
  1 34  1  0
  1 35  1  0
  2 36  1  6
  3 37  1  0
  3 38  1  0
  4 39  1  0
  4 40  1  0
  5 41  1  1
  8 42  1  0
  8 43  1  0
  8 44  1  0
  9 45  1  0
  9 46  1  0
  9 47  1  0
 10 48  1  6
 11 49  1  0
 11 50  1  0
 12 51  1  0
 12 52  1  0
 14 53  1  0
 14 54  1  0
 14 55  1  0
 15 56  1  1
 16 57  1  0
 16 58  1  0
 17 59  1  0
 19 60  1  6
 20 61  1  0
 20 62  1  0
 21 63  1  0
 21 64  1  0
 22 65  1  6
 23 66  1  0
 25 67  1  0
 25 68  1  0
 25 69  1  0
 26 70  1  0
 26 71  1  0
 26 72  1  0
 28 73  1  0
 28 74  1  0
 28 75  1  0
 29 76  1  0
 29 77  1  0
 30 78  1  0
 30 79  1  0
 32 80  1  0
 32 81  1  0
 32 82  1  0
M  END
>  <meeko>  (6) 
{"is_sidechain": [false], "intermolecular_energy": 2.731, "internal_energy": -0.839}

$$$$
EPH_relaxed_0001_pdb2pqr_Repair_118_r2_0001_out
     RDKit          3D

 82 86  0  0  0  0  0  0  0  0999 V2000
    3.8550   10.9530   -4.0600 C   0  0  0  0  0  0  0  0  0  0  0  0
    2.5080   11.0390   -4.7820 C   0  0  2  0  0  0  0  0  0  0  0  0
    2.6720   11.3690   -6.2800 C   0  0  0  0  0  0  0  0  0  0  0  0
    1.5510   12.2480   -6.8420 C   0  0  0  0  0  0  0  0  0  0  0  0
    2.0330   13.6340   -7.1450 C   0  0  2  0  0  0  0  0  0  0  0  0
    1.0750   14.6700   -6.8910 O   0  0  0  0  0  0  0  0  0  0  0  0
    1.4680   14.4910   -8.2620 C   0  0  0  0  0  0  0  0  0  0  0  0
    0.3710   13.9930   -9.1490 C   0  0  0  0  0  0  0  0  0  0  0  0
    2.3050   15.6100   -8.7990 C   0  0  0  0  0  0  0  0  0  0  0  0
    1.6250   12.0840   -4.1120 C   0  0  1  0  0  0  0  0  0  0  0  0
    0.1860   11.5680   -3.8450 C   0  0  0  0  0  0  0  0  0  0  0  0
   -0.2810   12.2120   -2.5140 C   0  0  0  0  0  0  0  0  0  0  0  0
    0.7580   13.3230   -2.2330 C   0  0  1  0  0  0  0  0  0  0  0  0
    0.3080   14.5260   -3.1200 C   0  0  0  0  0  0  0  0  0  0  0  0
    0.9340   13.7420   -0.7370 C   0  0  2  0  0  0  0  0  0  0  0  0
   -0.3180   14.3450   -0.0770 C   0  0  0  0  0  0  0  0  0  0  0  0
   -0.4440   15.8290   -0.1850 C   0  0  0  0  0  0  0  0  0  0  0  0
    0.5430   16.6740   -0.5360 C   0  0  0  0  0  0  0  0  0  0  0  0
    1.9700   16.1640   -0.7720 C   0  0  1  0  0  0  0  0  0  0  0  0
    2.9780   17.0900   -0.0410 C   0  0  0  0  0  0  0  0  0  0  0  0
    2.8110   18.5570   -0.4270 C   0  0  0  0  0  0  0  0  0  0  0  0
    1.3960   19.0430   -0.1240 C   0  0  2  0  0  0  0  0  0  0  0  0
    1.2040   19.0460    1.2940 O   0  0  0  0  0  0  0  0  0  0  0  0
    0.2940   18.1800   -0.7990 C   0  0  0  0  0  0  0  0  0  0  0  0
    0.3130   18.4150   -2.3290 C   0  0  0  0  0  0  0  0  0  0  0  0
   -1.0850   18.6900   -0.2990 C   0  0  0  0  0  0  0  0  0  0  0  0
    2.2170   14.6260   -0.4590 C   0  0  1  0  0  0  0  0  0  0  0  0
    2.5670   14.4390    1.0490 C   0  0  0  0  0  0  0  0  0  0  0  0
    3.4720   14.1310   -1.2710 C   0  0  0  0  0  0  0  0  0  0  0  0
    3.2160   13.6170   -2.7000 C   0  0  0  0  0  0  0  0  0  0  0  0
    2.0680   12.6040   -2.7210 C   0  0  2  0  0  0  0  0  0  0  0  0
    2.5010   11.3720   -1.8560 C   0  0  0  0  0  0  0  0  0  0  0  0
    3.6895   10.9636   -2.9726 H   0  0  0  0  0  0  0  0  0  0  0  0
    4.3645   10.0205   -4.3443 H   0  0  0  0  0  0  0  0  0  0  0  0
    4.4790   11.8131   -4.3443 H   0  0  0  0  0  0  0  0  0  0  0  0
    2.0314   10.0501   -4.7122 H   0  0  0  0  0  0  0  0  0  0  0  0
    3.6281   11.8953   -6.4172 H   0  0  0  0  0  0  0  0  0  0  0  0
    2.6368   10.4145   -6.8256 H   0  0  0  0  0  0  0  0  0  0  0  0
    1.1709   11.7923   -7.7682 H   0  0  0  0  0  0  0  0  0  0  0  0
    0.7577   12.3189   -6.0833 H   0  0  0  0  0  0  0  0  0  0  0  0
    3.0635   13.3598   -6.8750 H   0  0  0  0  0  0  0  0  0  0  0  0
   -0.4578   13.6168   -8.5312 H   0  0  0  0  0  0  0  0  0  0  0  0
    0.0108   14.8159   -9.7840 H   0  0  0  0  0  0  0  0  0  0  0  0
    0.7533   13.1802   -9.7840 H   0  0  0  0  0  0  0  0  0  0  0  0
    2.7328   16.1820   -7.9625 H   0  0  0  0  0  0  0  0  0  0  0  0
    3.1178   15.1972   -9.4146 H   0  0  0  0  0  0  0  0  0  0  0  0
    1.6794   16.2731   -9.4146 H   0  0  0  0  0  0  0  0  0  0  0  0
    1.6980   12.8908   -4.8561 H   0  0  0  0  0  0  0  0  0  0  0  0
   -0.4822   11.8679   -4.6657 H   0  0  0  0  0  0  0  0  0  0  0  0
    0.1659   10.4701   -3.7807 H   0  0  0  0  0  0  0  0  0  0  0  0
   -1.2883   12.6406   -2.6223 H   0  0  0  0  0  0  0  0  0  0  0  0
   -0.3414   11.4802   -1.6949 H   0  0  0  0  0  0  0  0  0  0  0  0
   -0.0042   15.3606   -2.4750 H   0  0  0  0  0  0  0  0  0  0  0  0
    1.1467   14.8473   -3.7550 H   0  0  0  0  0  0  0  0  0  0  0  0
   -0.5357   14.2179   -3.7550 H   0  0  0  0  0  0  0  0  0  0  0  0
    1.0979   12.7754   -0.2383 H   0  0  0  0  0  0  0  0  0  0  0  0
   -1.2025   13.8935   -0.5501 H   0  0  0  0  0  0  0  0  0  0  0  0
   -0.2319   14.1243    0.9972 H   0  0  0  0  0  0  0  0  0  0  0  0
   -1.4265   16.2687    0.0415 H   0  0  0  0  0  0  0  0  0  0  0  0
    2.1357   16.2152   -1.8582 H   0  0  0  0  0  0  0  0  0  0  0  0
    2.8249   16.9912    1.0438 H   0  0  0  0  0  0  0  0  0  0  0  0
    3.9912   16.7801   -0.3367 H   0  0  0  0  0  0  0  0  0  0  0  0
    3.5299   19.1635    0.1435 H   0  0  0  0  0  0  0  0  0  0  0  0
    2.9936   18.6589   -1.5069 H   0  0  0  0  0  0  0  0  0  0  0  0
    1.2988   20.0565   -0.5404 H   0  0  0  0  0  0  0  0  0  0  0  0
    1.5610   19.8820    1.6380 H   0  0  0  0  0  0  0  0  0  0  0  0
    0.4001   19.4923   -2.5334 H   0  0  0  0  0  0  0  0  0  0  0  0
    1.1714   17.8875   -2.7704 H   0  0  0  0  0  0  0  0  0  0  0  0
   -0.6190   18.0322   -2.7704 H   0  0  0  0  0  0  0  0  0  0  0  0
   -1.0974   18.6946    0.8009 H   0  0  0  0  0  0  0  0  0  0  0  0
   -1.2556   19.7107   -0.6719 H   0  0  0  0  0  0  0  0  0  0  0  0
   -1.8787   18.0259   -0.6719 H   0  0  0  0  0  0  0  0  0  0  0  0
    1.7647   14.8677    1.6675 H   0  0  0  0  0  0  0  0  0  0  0  0
    2.6684   13.3665    1.2716 H   0  0  0  0  0  0  0  0  0  0  0  0
    3.5148   14.9509    1.2716 H   0  0  0  0  0  0  0  0  0  0  0  0
    4.1761   14.9732   -1.3414 H   0  0  0  0  0  0  0  0  0  0  0  0
    3.8492   13.2600   -0.7151 H   0  0  0  0  0  0  0  0  0  0  0  0
    2.9570   14.4678   -3.3474 H   0  0  0  0  0  0  0  0  0  0  0  0
    4.1282   13.1207   -3.0627 H   0  0  0  0  0  0  0  0  0  0  0  0
    2.4125   11.6239   -0.7889 H   0  0  0  0  0  0  0  0  0  0  0  0
    1.8500   10.5156   -2.0858 H   0  0  0  0  0  0  0  0  0  0  0  0
    3.5446   11.1113   -2.0858 H   0  0  0  0  0  0  0  0  0  0  0  0
  1  2  1  0
  2  3  1  0
  3  4  1  0
  4  5  1  0
  5  6  1  0
  6  7  1  0
  7  8  1  0
  7  9  1  0
  2 10  1  0
 10 11  1  0
 11 12  1  0
 12 13  1  0
 13 14  1  6
 13 15  1  0
 15 16  1  0
 16 17  1  0
 17 18  2  0
 18 19  1  0
 19 20  1  0
 20 21  1  0
 21 22  1  0
 22 23  1  0
 22 24  1  0
 24 25  1  0
 24 26  1  0
 19 27  1  0
 27 28  1  1
 27 29  1  0
 29 30  1  0
 30 31  1  0
 31 32  1  1
  7  5  1  0
 31 10  1  0
 31 13  1  0
 27 15  1  0
 24 18  1  0
  1 33  1  0
  1 34  1  0
  1 35  1  0
  2 36  1  6
  3 37  1  0
  3 38  1  0
  4 39  1  0
  4 40  1  0
  5 41  1  1
  8 42  1  0
  8 43  1  0
  8 44  1  0
  9 45  1  0
  9 46  1  0
  9 47  1  0
 10 48  1  6
 11 49  1  0
 11 50  1  0
 12 51  1  0
 12 52  1  0
 14 53  1  0
 14 54  1  0
 14 55  1  0
 15 56  1  1
 16 57  1  0
 16 58  1  0
 17 59  1  0
 19 60  1  6
 20 61  1  0
 20 62  1  0
 21 63  1  0
 21 64  1  0
 22 65  1  6
 23 66  1  0
 25 67  1  0
 25 68  1  0
 25 69  1  0
 26 70  1  0
 26 71  1  0
 26 72  1  0
 28 73  1  0
 28 74  1  0
 28 75  1  0
 29 76  1  0
 29 77  1  0
 30 78  1  0
 30 79  1  0
 32 80  1  0
 32 81  1  0
 32 82  1  0
M  END
>  <meeko>  (7) 
{"is_sidechain": [false], "intermolecular_energy": 2.731, "internal_energy": -0.839}

$$$$
EPH_relaxed_0001_pdb2pqr_Repair_118_r2_0001_out
     RDKit          3D

 82 86  0  0  0  0  0  0  0  0999 V2000
   -0.1330   15.1590   -7.2410 C   0  0  0  0  0  0  0  0  0  0  0  0
    0.7470   14.0510   -7.8280 C   0  0  2  0  0  0  0  0  0  0  0  0
    0.1310   13.4320   -9.0990 C   0  0  0  0  0  0  0  0  0  0  0  0
    0.8600   13.8220  -10.3880 C   0  0  0  0  0  0  0  0  0  0  0  0
    1.0290   15.3070  -10.5020 C   0  0  2  0  0  0  0  0  0  0  0  0
    2.1470   15.7220  -11.2970 O   0  0  0  0  0  0  0  0  0  0  0  0
    2.1990   16.0640   -9.9020 C   0  0  0  0  0  0  0  0  0  0  0  0
    3.2790   15.3580   -9.1430 C   0  0  0  0  0  0  0  0  0  0  0  0
    2.0420   17.5280   -9.6340 C   0  0  0  0  0  0  0  0  0  0  0  0
    0.9840   12.9670   -6.7830 C   0  0  1  0  0  0  0  0  0  0  0  0
    2.1510   12.0170   -7.1610 C   0  0  0  0  0  0  0  0  0  0  0  0
    2.8540   11.6220   -5.8370 C   0  0  0  0  0  0  0  0  0  0  0  0
    1.8810   12.0820   -4.7270 C   0  0  1  0  0  0  0  0  0  0  0  0
    0.8080   10.9510   -4.6410 C   0  0  0  0  0  0  0  0  0  0  0  0
    2.5170   12.3810   -3.3300 C   0  0  2  0  0  0  0  0  0  0  0  0
    3.1860   11.1760   -2.6460 C   0  0  0  0  0  0  0  0  0  0  0  0
    2.2960   10.3730   -1.7560 C   0  0  0  0  0  0  0  0  0  0  0  0
    1.0960   10.7660   -1.2900 C   0  0  0  0  0  0  0  0  0  0  0  0
    0.5640   12.1760   -1.5750 C   0  0  1  0  0  0  0  0  0  0  0  0
    0.0060   12.7940   -0.2650 C   0  0  0  0  0  0  0  0  0  0  0  0
   -1.0340   11.9020    0.4060 C   0  0  0  0  0  0  0  0  0  0  0  0
   -0.4500   10.5290    0.7260 C   0  0  2  0  0  0  0  0  0  0  0  0
    0.5590   10.6800    1.7290 O   0  0  0  0  0  0  0  0  0  0  0  0
    0.1510    9.8130   -0.5160 C   0  0  0  0  0  0  0  0  0  0  0  0
   -0.9890    9.3800   -1.4700 C   0  0  0  0  0  0  0  0  0  0  0  0
    0.8320    8.5050   -0.0310 C   0  0  0  0  0  0  0  0  0  0  0  0
    1.5610   13.1540   -2.3340 C   0  0  1  0  0  0  0  0  0  0  0  0
    2.4810   13.8790   -1.3060 C   0  0  0  0  0  0  0  0  0  0  0  0
    0.7280   14.2780   -3.0550 C   0  0  0  0  0  0  0  0  0  0  0  0
    0.2290   13.9680   -4.4790 C   0  0  0  0  0  0  0  0  0  0  0  0
    1.3650   13.4280   -5.3530 C   0  0  2  0  0  0  0  0  0  0  0  0
    2.4490   14.5520   -5.4760 C   0  0  0  0  0  0  0  0  0  0  0  0
   -0.0965   15.1130   -6.1426 H   0  0  0  0  0  0  0  0  0  0  0  0
    0.2361   16.1384   -7.5795 H   0  0  0  0  0  0  0  0  0  0  0  0
   -1.1705   15.0212   -7.5795 H   0  0  0  0  0  0  0  0  0  0  0  0
    1.7060   14.5072   -8.1146 H   0  0  0  0  0  0  0  0  0  0  0  0
    0.1600   12.3367   -9.0012 H   0  0  0  0  0  0  0  0  0  0  0  0
   -0.8956   13.8186   -9.1802 H   0  0  0  0  0  0  0  0  0  0  0  0
    1.8530   13.3488  -10.3930 H   0  0  0  0  0  0  0  0  0  0  0  0
    0.2556   13.4793  -11.2408 H   0  0  0  0  0  0  0  0  0  0  0  0
   -0.0585   15.4599  -10.4391 H   0  0  0  0  0  0  0  0  0  0  0  0
    3.1034   15.4728   -8.0632 H   0  0  0  0  0  0  0  0  0  0  0  0
    3.2722   14.2894   -9.4040 H   0  0  0  0  0  0  0  0  0  0  0  0
    4.2550   15.7930   -9.4040 H   0  0  0  0  0  0  0  0  0  0  0  0
    2.0233   17.7020   -8.5480 H   0  0  0  0  0  0  0  0  0  0  0  0
    2.8867   18.0748  -10.0785 H   0  0  0  0  0  0  0  0  0  0  0  0
    1.1006   17.8832  -10.0785 H   0  0  0  0  0  0  0  0  0  0  0  0
   -0.0113   12.4988   -6.7751 H   0  0  0  0  0  0  0  0  0  0  0  0
    1.7612   11.1203   -7.6649 H   0  0  0  0  0  0  0  0  0  0  0  0
    2.8537   12.5095   -7.8492 H   0  0  0  0  0  0  0  0  0  0  0  0
    3.0106   10.5342   -5.7899 H   0  0  0  0  0  0  0  0  0  0  0  0
    3.8477   12.0833   -5.7384 H   0  0  0  0  0  0  0  0  0  0  0  0
    0.5953   10.7268   -3.5853 H   0  0  0  0  0  0  0  0  0  0  0  0
   -0.1152   11.2828   -5.1386 H   0  0  0  0  0  0  0  0  0  0  0  0
    1.1879   10.0465   -5.1386 H   0  0  0  0  0  0  0  0  0  0  0  0
    3.3347   13.0706   -3.5865 H   0  0  0  0  0  0  0  0  0  0  0  0
    3.5714   10.5098   -3.4319 H   0  0  0  0  0  0  0  0  0  0  0  0
    3.9708   11.5915   -1.9969 H   0  0  0  0  0  0  0  0  0  0  0  0
    2.6509    9.3761   -1.4558 H   0  0  0  0  0  0  0  0  0  0  0  0
   -0.2490   12.0515   -2.3055 H   0  0  0  0  0  0  0  0  0  0  0  0
    0.8404   12.9504    0.4345 H   0  0  0  0  0  0  0  0  0  0  0  0
   -0.4863   13.7423   -0.5264 H   0  0  0  0  0  0  0  0  0  0  0  0
   -1.3676   12.3779    1.3399 H   0  0  0  0  0  0  0  0  0  0  0  0
   -1.8814   11.7712   -0.2831 H   0  0  0  0  0  0  0  0  0  0  0  0
   -1.2749    9.8954    1.0838 H   0  0  0  0  0  0  0  0  0  0  0  0
    0.3280   11.4580    2.2640 H   0  0  0  0  0  0  0  0  0  0  0  0
   -1.8564    9.0506   -0.8791 H   0  0  0  0  0  0  0  0  0  0  0  0
   -1.2792   10.2305   -2.1043 H   0  0  0  0  0  0  0  0  0  0  0  0
   -0.6414    8.5513   -2.1043 H   0  0  0  0  0  0  0  0  0  0  0  0
    0.8432    8.4835    1.0687 H   0  0  0  0  0  0  0  0  0  0  0  0
    0.2710    7.6376   -0.4090 H   0  0  0  0  0  0  0  0  0  0  0  0
    1.8643    8.4671   -0.4090 H   0  0  0  0  0  0  0  0  0  0  0  0
    2.1601   13.6262   -0.2847 H   0  0  0  0  0  0  0  0  0  0  0  0
    3.5220   13.5559   -1.4539 H   0  0  0  0  0  0  0  0  0  0  0  0
    2.4102   14.9667   -1.4539 H   0  0  0  0  0  0  0  0  0  0  0  0
   -0.1537   14.4899   -2.4323 H   0  0  0  0  0  0  0  0  0  0  0  0
    1.4240   15.1218   -3.1715 H   0  0  0  0  0  0  0  0  0  0  0  0
   -0.5714   13.2154   -4.4239 H   0  0  0  0  0  0  0  0  0  0  0  0
   -0.1475   14.8985   -4.9289 H   0  0  0  0  0  0  0  0  0  0  0  0
    2.7593   14.8737   -4.4709 H   0  0  0  0  0  0  0  0  0  0  0  0
    3.3210   14.1623   -6.0217 H   0  0  0  0  0  0  0  0  0  0  0  0
    2.0280   15.4093   -6.0217 H   0  0  0  0  0  0  0  0  0  0  0  0
  1  2  1  0
  2  3  1  0
  3  4  1  0
  4  5  1  0
  5  6  1  0
  6  7  1  0
  7  8  1  0
  7  9  1  0
  2 10  1  0
 10 11  1  0
 11 12  1  0
 12 13  1  0
 13 14  1  1
 13 15  1  0
 15 16  1  0
 16 17  1  0
 17 18  2  0
 18 19  1  0
 19 20  1  0
 20 21  1  0
 21 22  1  0
 22 23  1  0
 22 24  1  0
 24 25  1  0
 24 26  1  0
 19 27  1  0
 27 28  1  1
 27 29  1  0
 29 30  1  0
 30 31  1  0
 31 32  1  6
  7  5  1  0
 31 10  1  0
 31 13  1  0
 27 15  1  0
 24 18  1  0
  1 33  1  0
  1 34  1  0
  1 35  1  0
  2 36  1  6
  3 37  1  0
  3 38  1  0
  4 39  1  0
  4 40  1  0
  5 41  1  6
  8 42  1  0
  8 43  1  0
  8 44  1  0
  9 45  1  0
  9 46  1  0
  9 47  1  0
 10 48  1  1
 11 49  1  0
 11 50  1  0
 12 51  1  0
 12 52  1  0
 14 53  1  0
 14 54  1  0
 14 55  1  0
 15 56  1  6
 16 57  1  0
 16 58  1  0
 17 59  1  0
 19 60  1  6
 20 61  1  0
 20 62  1  0
 21 63  1  0
 21 64  1  0
 22 65  1  1
 23 66  1  0
 25 67  1  0
 25 68  1  0
 25 69  1  0
 26 70  1  0
 26 71  1  0
 26 72  1  0
 28 73  1  0
 28 74  1  0
 28 75  1  0
 29 76  1  0
 29 77  1  0
 30 78  1  0
 30 79  1  0
 32 80  1  0
 32 81  1  0
 32 82  1  0
M  END
>  <meeko>  (8) 
{"is_sidechain": [false], "intermolecular_energy": 2.731, "internal_energy": -0.839}

$$$$
EPH_relaxed_0001_pdb2pqr_Repair_118_r2_0001_out
     RDKit          3D

 82 86  0  0  0  0  0  0  0  0999 V2000
    0.7600   10.7810   -4.3130 C   0  0  0  0  0  0  0  0  0  0  0  0
    0.9180   10.2920   -2.8700 C   0  0  2  0  0  0  0  0  0  0  0  0
   -0.2150    9.3320   -2.4540 C   0  0  0  0  0  0  0  0  0  0  0  0
   -0.2510    9.0370   -0.9530 C   0  0  0  0  0  0  0  0  0  0  0  0
   -1.6130    8.5970   -0.5070 C   0  0  2  0  0  0  0  0  0  0  0  0
   -2.5990    8.5550   -1.5470 O   0  0  0  0  0  0  0  0  0  0  0  0
   -2.8250    9.5100   -0.4970 C   0  0  0  0  0  0  0  0  0  0  0  0
   -2.7320   10.9360   -0.9410 C   0  0  0  0  0  0  0  0  0  0  0  0
   -3.9750    9.1620    0.3960 C   0  0  0  0  0  0  0  0  0  0  0  0
    0.9670   11.4830   -1.9200 C   0  0  1  0  0  0  0  0  0  0  0  0
    1.9990   11.2920   -0.7760 C   0  0  0  0  0  0  0  0  0  0  0  0
    2.5990   12.6900   -0.4780 C   0  0  0  0  0  0  0  0  0  0  0  0
    1.6680   13.6800   -1.2160 C   0  0  1  0  0  0  0  0  0  0  0  0
    0.4430   13.8640   -0.2660 C   0  0  0  0  0  0  0  0  0  0  0  0
    2.2980   15.0530   -1.6170 C   0  0  2  0  0  0  0  0  0  0  0  0
    2.7690   15.9240   -0.4390 C   0  0  0  0  0  0  0  0  0  0  0  0
    1.7480   16.8700    0.1030 C   0  0  0  0  0  0  0  0  0  0  0  0
    0.6020   17.2200   -0.5110 C   0  0  0  0  0  0  0  0  0  0  0  0
    0.2840   16.7230   -1.9280 C   0  0  1  0  0  0  0  0  0  0  0  0
   -0.2190   17.9090   -2.7920 C   0  0  0  0  0  0  0  0  0  0  0  0
   -1.3950   18.6410   -2.1520 C   0  0  0  0  0  0  0  0  0  0  0  0
   -1.0210   19.1710   -0.7700 C   0  0  2  0  0  0  0  0  0  0  0  0
   -0.0310   20.1930   -0.9200 O   0  0  0  0  0  0  0  0  0  0  0  0
   -0.4910   18.0660    0.1860 C   0  0  0  0  0  0  0  0  0  0  0  0
   -1.6520   17.1240    0.5880 C   0  0  0  0  0  0  0  0  0  0  0  0
   -0.0180   18.7550    1.4950 C   0  0  0  0  0  0  0  0  0  0  0  0
    1.4320   15.8890   -2.6440 C   0  0  1  0  0  0  0  0  0  0  0  0
    2.4150   16.8550   -3.3730 C   0  0  0  0  0  0  0  0  0  0  0  0
    0.7890   14.9840   -3.7610 C   0  0  0  0  0  0  0  0  0  0  0  0
    0.2940   13.5910   -3.3260 C   0  0  0  0  0  0  0  0  0  0  0  0
    1.3670   12.8540   -2.5200 C   0  0  2  0  0  0  0  0  0  0  0  0
    2.6030   12.6350   -3.4570 C   0  0  0  0  0  0  0  0  0  0  0  0
    0.4218   11.8277   -4.3105 H   0  0  0  0  0  0  0  0  0  0  0  0
    1.7270   10.7094   -4.8324 H   0  0  0  0  0  0  0  0  0  0  0  0
    0.0177   10.1571   -4.8324 H   0  0  0  0  0  0  0  0  0  0  0  0
    1.8627    9.7314   -2.8125 H   0  0  0  0  0  0  0  0  0  0  0  0
   -1.1759    9.7831   -2.7424 H   0  0  0  0  0  0  0  0  0  0  0  0
   -0.0301    8.3757   -2.9653 H   0  0  0  0  0  0  0  0  0  0  0  0
    0.4725    8.2392   -0.7290 H   0  0  0  0  0  0  0  0  0  0  0  0
    0.0036    9.9623   -0.4154 H   0  0  0  0  0  0  0  0  0  0  0  0
   -1.1760    7.9423    0.2614 H   0  0  0  0  0  0  0  0  0  0  0  0
   -2.6892   11.5925   -0.0594 H   0  0  0  0  0  0  0  0  0  0  0  0
   -1.8230   11.0734   -1.5450 H   0  0  0  0  0  0  0  0  0  0  0  0
   -3.6155   11.1903   -1.5450 H   0  0  0  0  0  0  0  0  0  0  0  0
   -3.6645    9.2559    1.4471 H   0  0  0  0  0  0  0  0  0  0  0  0
   -4.8129    9.8468    0.1985 H   0  0  0  0  0  0  0  0  0  0  0  0
   -4.2926    8.1275    0.1985 H   0  0  0  0  0  0  0  0  0  0  0  0
   -0.0843   11.5058   -1.5970 H   0  0  0  0  0  0  0  0  0  0  0  0
    1.5014   10.8942    0.1207 H   0  0  0  0  0  0  0  0  0  0  0  0
    2.7842   10.5787   -1.0670 H   0  0  0  0  0  0  0  0  0  0  0  0
    2.5990   12.8899    0.6037 H   0  0  0  0  0  0  0  0  0  0  0  0
    3.6444   12.7744   -0.8098 H   0  0  0  0  0  0  0  0  0  0  0  0
    0.7794   13.8135    0.7801 H   0  0  0  0  0  0  0  0  0  0  0  0
   -0.0234   14.8423   -0.4543 H   0  0  0  0  0  0  0  0  0  0  0  0
   -0.2902   13.0659   -0.4543 H   0  0  0  0  0  0  0  0  0  0  0  0
    3.2123   14.7467   -2.1463 H   0  0  0  0  0  0  0  0  0  0  0  0
    3.0785   15.2540    0.3767 H   0  0  0  0  0  0  0  0  0  0  0  0
    3.5857   16.5487   -0.8298 H   0  0  0  0  0  0  0  0  0  0  0  0
    1.9494   17.3186    1.0870 H   0  0  0  0  0  0  0  0  0  0  0  0
   -0.5168   15.9772   -1.8164 H   0  0  0  0  0  0  0  0  0  0  0  0
    0.6078   18.6215   -2.9286 H   0  0  0  0  0  0  0  0  0  0  0  0
   -0.5633   17.4997   -3.7532 H   0  0  0  0  0  0  0  0  0  0  0  0
   -1.6864   19.4850   -2.7945 H   0  0  0  0  0  0  0  0  0  0  0  0
   -2.2309   17.9343   -2.0426 H   0  0  0  0  0  0  0  0  0  0  0  0
   -1.9371   19.5707   -0.3107 H   0  0  0  0  0  0  0  0  0  0  0  0
   -0.4260   21.0310   -0.6250 H   0  0  0  0  0  0  0  0  0  0  0  0
   -1.7178   17.0706    1.6847 H   0  0  0  0  0  0  0  0  0  0  0  0
   -2.5974   17.5135    0.1824 H   0  0  0  0  0  0  0  0  0  0  0  0
   -1.4656   16.1186    0.1824 H   0  0  0  0  0  0  0  0  0  0  0  0
   -0.4011   18.1970    2.3621 H   0  0  0  0  0  0  0  0  0  0  0  0
    1.0815   18.7697    1.5250 H   0  0  0  0  0  0  0  0  0  0  0  0
   -0.3994   19.7863    1.5250 H   0  0  0  0  0  0  0  0  0  0  0  0
    2.9920   17.4221   -2.6277 H   0  0  0  0  0  0  0  0  0  0  0  0
    3.1028   16.2716   -4.0028 H   0  0  0  0  0  0  0  0  0  0  0  0
    1.8437   17.5528   -4.0028 H   0  0  0  0  0  0  0  0  0  0  0  0
   -0.0719   15.5286   -4.1761 H   0  0  0  0  0  0  0  0  0  0  0  0
    1.6007   14.7905   -4.4778 H   0  0  0  0  0  0  0  0  0  0  0  0
   -0.6062   13.7071   -2.7046 H   0  0  0  0  0  0  0  0  0  0  0  0
    0.0671   13.0027   -4.2273 H   0  0  0  0  0  0  0  0  0  0  0  0
    3.5032   12.4755   -2.8453 H   0  0  0  0  0  0  0  0  0  0  0  0
    2.4302   11.7535   -4.0919 H   0  0  0  0  0  0  0  0  0  0  0  0
    2.7436   13.5222   -4.0919 H   0  0  0  0  0  0  0  0  0  0  0  0
  1  2  1  0
  2  3  1  0
  3  4  1  0
  4  5  1  0
  5  6  1  0
  6  7  1  0
  7  8  1  0
  7  9  1  0
  2 10  1  0
 10 11  1  0
 11 12  1  0
 12 13  1  0
 13 14  1  1
 13 15  1  0
 15 16  1  0
 16 17  1  0
 17 18  2  0
 18 19  1  0
 19 20  1  0
 20 21  1  0
 21 22  1  0
 22 23  1  0
 22 24  1  0
 24 25  1  0
 24 26  1  0
 19 27  1  0
 27 28  1  6
 27 29  1  0
 29 30  1  0
 30 31  1  0
 31 32  1  6
  7  5  1  0
 31 10  1  0
 31 13  1  0
 27 15  1  0
 24 18  1  0
  1 33  1  0
  1 34  1  0
  1 35  1  0
  2 36  1  6
  3 37  1  0
  3 38  1  0
  4 39  1  0
  4 40  1  0
  5 41  1  1
  8 42  1  0
  8 43  1  0
  8 44  1  0
  9 45  1  0
  9 46  1  0
  9 47  1  0
 10 48  1  1
 11 49  1  0
 11 50  1  0
 12 51  1  0
 12 52  1  0
 14 53  1  0
 14 54  1  0
 14 55  1  0
 15 56  1  6
 16 57  1  0
 16 58  1  0
 17 59  1  0
 19 60  1  1
 20 61  1  0
 20 62  1  0
 21 63  1  0
 21 64  1  0
 22 65  1  1
 23 66  1  0
 25 67  1  0
 25 68  1  0
 25 69  1  0
 26 70  1  0
 26 71  1  0
 26 72  1  0
 28 73  1  0
 28 74  1  0
 28 75  1  0
 29 76  1  0
 29 77  1  0
 30 78  1  0
 30 79  1  0
 32 80  1  0
 32 81  1  0
 32 82  1  0
M  END
>  <meeko>  (9) 
{"is_sidechain": [false], "intermolecular_energy": 2.731, "internal_energy": -0.839}

$$$$
EPH_relaxed_0001_pdb2pqr_Repair_118_r2_0001_out
     RDKit          3D

 82 86  0  0  0  0  0  0  0  0999 V2000
   -2.9380    7.7310   -0.5820 C   0  0  0  0  0  0  0  0  0  0  0  0
   -3.2710    9.1830   -0.2270 C   0  0  2  0  0  0  0  0  0  0  0  0
   -4.7790    9.4800   -0.3450 C   0  0  0  0  0  0  0  0  0  0  0  0
   -5.3720    9.1180   -1.7100 C   0  0  0  0  0  0  0  0  0  0  0  0
   -6.5220    8.1660   -1.5800 C   0  0  2  0  0  0  0  0  0  0  0  0
   -6.1970    6.9160   -0.9600 O   0  0  0  0  0  0  0  0  0  0  0  0
   -6.6110    6.8530   -2.3340 C   0  0  0  0  0  0  0  0  0  0  0  0
   -5.5310    6.4190   -3.2750 C   0  0  0  0  0  0  0  0  0  0  0  0
   -7.9570    6.2300   -2.5310 C   0  0  0  0  0  0  0  0  0  0  0  0
   -2.4820   10.1310   -1.1230 C   0  0  1  0  0  0  0  0  0  0  0  0
   -3.0620   11.5710   -1.1270 C   0  0  0  0  0  0  0  0  0  0  0  0
   -1.8560   12.5380   -1.2510 C   0  0  0  0  0  0  0  0  0  0  0  0
   -0.6670   11.6310   -1.6440 C   0  0  1  0  0  0  0  0  0  0  0  0
   -0.8160   11.4200   -3.1840 C   0  0  0  0  0  0  0  0  0  0  0  0
    0.7570   12.1570   -1.2690 C   0  0  2  0  0  0  0  0  0  0  0  0
    1.1640   13.4770   -1.9470 C   0  0  0  0  0  0  0  0  0  0  0  0
    1.8700   13.3310   -3.2550 C   0  0  0  0  0  0  0  0  0  0  0  0
    2.4170   12.1950   -3.7260 C   0  0  0  0  0  0  0  0  0  0  0  0
    2.4420   10.9200   -2.8730 C   0  0  1  0  0  0  0  0  0  0  0  0
    3.8560   10.2860   -2.9310 C   0  0  0  0  0  0  0  0  0  0  0  0
    4.3290   10.0410   -4.3610 C   0  0  0  0  0  0  0  0  0  0  0  0
    4.3460   11.3410   -5.1600 C   0  0  2  0  0  0  0  0  0  0  0  0
    5.3520   12.2030   -4.6170 O   0  0  0  0  0  0  0  0  0  0  0  0
    2.9760   12.0760   -5.1650 C   0  0  0  0  0  0  0  0  0  0  0  0
    1.9600   11.2750   -6.0160 C   0  0  0  0  0  0  0  0  0  0  0  0
    3.1670   13.4380   -5.8840 C   0  0  0  0  0  0  0  0  0  0  0  0
    1.9010   11.0700   -1.3860 C   0  0  1  0  0  0  0  0  0  0  0  0
    3.0540   11.5350   -0.4450 C   0  0  0  0  0  0  0  0  0  0  0  0
    1.4410    9.6590   -0.8620 C   0  0  0  0  0  0  0  0  0  0  0  0
   -0.0130    9.2460   -1.1600 C   0  0  0  0  0  0  0  0  0  0  0  0
   -0.9900   10.3620   -0.7750 C   0  0  2  0  0  0  0  0  0  0  0  0
   -0.8780   10.5810    0.7720 C   0  0  0  0  0  0  0  0  0  0  0  0
   -2.8045    7.1490    0.3418 H   0  0  0  0  0  0  0  0  0  0  0  0
   -3.7606    7.2997   -1.1714 H   0  0  0  0  0  0  0  0  0  0  0  0
   -2.0097    7.7013   -1.1714 H   0  0  0  0  0  0  0  0  0  0  0  0
   -2.9857    9.3397    0.8238 H   0  0  0  0  0  0  0  0  0  0  0  0
   -5.3082    8.9031    0.4277 H   0  0  0  0  0  0  0  0  0  0  0  0
   -4.9042   10.5654   -0.2173 H   0  0  0  0  0  0  0  0  0  0  0  0
   -5.7240   10.0373   -2.2008 H   0  0  0  0  0  0  0  0  0  0  0  0
   -4.5874    8.6286   -2.3058 H   0  0  0  0  0  0  0  0  0  0  0  0
   -7.2297    9.0003   -1.4657 H   0  0  0  0  0  0  0  0  0  0  0  0
   -4.6614    6.0696   -2.6990 H   0  0  0  0  0  0  0  0  0  0  0  0
   -5.9038    5.6009   -3.9088 H   0  0  0  0  0  0  0  0  0  0  0  0
   -5.2340    7.2676   -3.9088 H   0  0  0  0  0  0  0  0  0  0  0  0
   -8.4108    6.0200   -1.5512 H   0  0  0  0  0  0  0  0  0  0  0  0
   -8.6022    6.9211   -3.0933 H   0  0  0  0  0  0  0  0  0  0  0  0
   -7.8476    5.2909   -3.0933 H   0  0  0  0  0  0  0  0  0  0  0  0
   -2.5668    9.5939   -2.0792 H   0  0  0  0  0  0  0  0  0  0  0  0
   -3.7428   11.7029   -1.9809 H   0  0  0  0  0  0  0  0  0  0  0  0
   -3.6346   11.7690   -0.2089 H   0  0  0  0  0  0  0  0  0  0  0  0
   -2.0421   13.2930   -2.0290 H   0  0  0  0  0  0  0  0  0  0  0  0
   -1.6679   13.0916   -0.3193 H   0  0  0  0  0  0  0  0  0  0  0  0
   -1.4410   10.5350   -3.3741 H   0  0  0  0  0  0  0  0  0  0  0  0
   -1.2897   12.3063   -3.6314 H   0  0  0  0  0  0  0  0  0  0  0  0
    0.1777   11.2701   -3.6314 H   0  0  0  0  0  0  0  0  0  0  0  0
    0.6482   12.3915   -0.1998 H   0  0  0  0  0  0  0  0  0  0  0  0
    0.2515   14.0671   -2.1173 H   0  0  0  0  0  0  0  0  0  0  0  0
    1.8806   13.9603   -1.2666 H   0  0  0  0  0  0  0  0  0  0  0  0
    1.9497   14.2278   -3.8869 H   0  0  0  0  0  0  0  0  0  0  0  0
    1.7079   10.2370   -3.3254 H   0  0  0  0  0  0  0  0  0  0  0  0
    4.5669   10.9637   -2.4356 H   0  0  0  0  0  0  0  0  0  0  0  0
    3.8059    9.3110   -2.4241 H   0  0  0  0  0  0  0  0  0  0  0  0
    5.3449    9.6199   -4.3370 H   0  0  0  0  0  0  0  0  0  0  0  0
    3.6335    9.3400   -4.8457 H   0  0  0  0  0  0  0  0  0  0  0  0
    4.5666   11.0818   -6.2060 H   0  0  0  0  0  0  0  0  0  0  0  0
    5.7180   11.7670   -3.8290 H   0  0  0  0  0  0  0  0  0  0  0  0
    1.2719   10.7325   -5.3510 H   0  0  0  0  0  0  0  0  0  0  0  0
    1.3872   11.9671   -6.6507 H   0  0  0  0  0  0  0  0  0  0  0  0
    2.4993   10.5565   -6.6507 H   0  0  0  0  0  0  0  0  0  0  0  0
    3.2789   14.2356   -5.1348 H   0  0  0  0  0  0  0  0  0  0  0  0
    4.0682   13.3972   -6.5134 H   0  0  0  0  0  0  0  0  0  0  0  0
    2.2893   13.6466   -6.5134 H   0  0  0  0  0  0  0  0  0  0  0  0
    2.7447   11.4102    0.6032 H   0  0  0  0  0  0  0  0  0  0  0  0
    3.9513   10.9284   -0.6372 H   0  0  0  0  0  0  0  0  0  0  0  0
    3.2795   12.5944   -0.6372 H   0  0  0  0  0  0  0  0  0  0  0  0
    2.1006    8.9046   -1.3157 H   0  0  0  0  0  0  0  0  0  0  0  0
    1.5016    9.7260    0.2343 H   0  0  0  0  0  0  0  0  0  0  0  0
   -0.1139    9.0343   -2.2347 H   0  0  0  0  0  0  0  0  0  0  0  0
   -0.2519    8.3507   -0.5672 H   0  0  0  0  0  0  0  0  0  0  0  0
   -1.3181    9.7204    1.2970 H   0  0  0  0  0  0  0  0  0  0  0  0
    0.1810   10.6793    1.0527 H   0  0  0  0  0  0  0  0  0  0  0  0
   -1.4182   11.4972    1.0527 H   0  0  0  0  0  0  0  0  0  0  0  0
  1  2  1  0
  2  3  1  0
  3  4  1  0
  4  5  1  0
  5  6  1  0
  6  7  1  0
  7  8  1  0
  7  9  1  0
  2 10  1  0
 10 11  1  0
 11 12  1  0
 12 13  1  0
 13 14  1  6
 13 15  1  0
 15 16  1  0
 16 17  1  0
 17 18  2  0
 18 19  1  0
 19 20  1  0
 20 21  1  0
 21 22  1  0
 22 23  1  0
 22 24  1  0
 24 25  1  0
 24 26  1  0
 19 27  1  0
 27 28  1  1
 27 29  1  0
 29 30  1  0
 30 31  1  0
 31 32  1  1
  7  5  1  0
 31 10  1  0
 31 13  1  0
 27 15  1  0
 24 18  1  0
  1 33  1  0
  1 34  1  0
  1 35  1  0
  2 36  1  1
  3 37  1  0
  3 38  1  0
  4 39  1  0
  4 40  1  0
  5 41  1  1
  8 42  1  0
  8 43  1  0
  8 44  1  0
  9 45  1  0
  9 46  1  0
  9 47  1  0
 10 48  1  6
 11 49  1  0
 11 50  1  0
 12 51  1  0
 12 52  1  0
 14 53  1  0
 14 54  1  0
 14 55  1  0
 15 56  1  1
 16 57  1  0
 16 58  1  0
 17 59  1  0
 19 60  1  6
 20 61  1  0
 20 62  1  0
 21 63  1  0
 21 64  1  0
 22 65  1  6
 23 66  1  0
 25 67  1  0
 25 68  1  0
 25 69  1  0
 26 70  1  0
 26 71  1  0
 26 72  1  0
 28 73  1  0
 28 74  1  0
 28 75  1  0
 29 76  1  0
 29 77  1  0
 30 78  1  0
 30 79  1  0
 32 80  1  0
 32 81  1  0
 32 82  1  0
M  END
>  <meeko>  (10) 
{"is_sidechain": [false], "intermolecular_energy": 2.731, "internal_energy": -0.839}

$$$$
EPH_relaxed_0001_pdb2pqr_Repair_118_r2_0001_out
     RDKit          3D

 82 86  0  0  0  0  0  0  0  0999 V2000
   -1.1750    8.2060   -1.2090 C   0  0  0  0  0  0  0  0  0  0  0  0
   -1.4620    9.4360   -0.3440 C   0  0  2  0  0  0  0  0  0  0  0  0
   -2.8990    9.4320    0.2130 C   0  0  0  0  0  0  0  0  0  0  0  0
   -3.9800    9.3930   -0.8710 C   0  0  0  0  0  0  0  0  0  0  0  0
   -4.7120    8.0850   -0.8770 C   0  0  2  0  0  0  0  0  0  0  0  0
   -4.7310    7.4150   -2.1440 O   0  0  0  0  0  0  0  0  0  0  0  0
   -6.0030    7.8530   -1.6390 C   0  0  0  0  0  0  0  0  0  0  0  0
   -6.6380    8.9400   -2.4490 C   0  0  0  0  0  0  0  0  0  0  0  0
   -6.8980    6.7330   -1.2070 C   0  0  0  0  0  0  0  0  0  0  0  0
   -1.2200   10.7070   -1.1510 C   0  0  1  0  0  0  0  0  0  0  0  0
   -1.4040   11.9950   -0.3060 C   0  0  0  0  0  0  0  0  0  0  0  0
   -0.3680   13.0240   -0.8280 C   0  0  0  0  0  0  0  0  0  0  0  0
    0.1450   12.4220   -2.1570 C   0  0  1  0  0  0  0  0  0  0  0  0
   -0.9440   12.7940   -3.2120 C   0  0  0  0  0  0  0  0  0  0  0  0
    1.5700   12.8710   -2.6150 C   0  0  2  0  0  0  0  0  0  0  0  0
    1.7190   14.3750   -2.9040 C   0  0  0  0  0  0  0  0  0  0  0  0
    1.4440   14.7840   -4.3130 C   0  0  0  0  0  0  0  0  0  0  0  0
    1.3710   13.9520   -5.3690 C   0  0  0  0  0  0  0  0  0  0  0  0
    1.6710   12.4550   -5.2150 C   0  0  1  0  0  0  0  0  0  0  0  0
    2.6110   11.9950   -6.3590 C   0  0  0  0  0  0  0  0  0  0  0  0
    2.0640   12.3410   -7.7410 C   0  0  0  0  0  0  0  0  0  0  0  0
    1.8330   13.8440   -7.8750 C   0  0  2  0  0  0  0  0  0  0  0  0
    3.1000   14.5100   -7.8400 O   0  0  0  0  0  0  0  0  0  0  0  0
    0.9080   14.4240   -6.7690 C   0  0  0  0  0  0  0  0  0  0  0  0
   -0.5430   13.9300   -6.9930 C   0  0  0  0  0  0  0  0  0  0  0  0
    0.8720   15.9670   -6.9370 C   0  0  0  0  0  0  0  0  0  0  0  0
    2.1820   11.9950   -3.7820 C   0  0  1  0  0  0  0  0  0  0  0  0
    3.7310   12.1550   -3.6930 C   0  0  0  0  0  0  0  0  0  0  0  0
    1.8830   10.4600   -3.5980 C   0  0  0  0  0  0  0  0  0  0  0  0
    0.5010   10.0850   -3.0290 C   0  0  0  0  0  0  0  0  0  0  0  0
    0.1870   10.8990   -1.7700 C   0  0  2  0  0  0  0  0  0  0  0  0
    1.2530   10.5280   -0.6830 C   0  0  0  0  0  0  0  0  0  0  0  0
   -0.9731    7.3407   -0.5605 H   0  0  0  0  0  0  0  0  0  0  0  0
   -2.0475    7.9926   -1.8440 H   0  0  0  0  0  0  0  0  0  0  0  0
   -0.2982    8.4008   -1.8440 H   0  0  0  0  0  0  0  0  0  0  0  0
   -0.7752    9.4039    0.5146 H   0  0  0  0  0  0  0  0  0  0  0  0
   -3.0198    8.5475    0.8557 H   0  0  0  0  0  0  0  0  0  0  0  0
   -3.0320   10.3739    0.7654 H   0  0  0  0  0  0  0  0  0  0  0  0
   -4.7001   10.2037   -0.6857 H   0  0  0  0  0  0  0  0  0  0  0  0
   -3.4903    9.5165   -1.8482 H   0  0  0  0  0  0  0  0  0  0  0  0
   -4.4277    7.8942    0.1684 H   0  0  0  0  0  0  0  0  0  0  0  0
   -7.0766    9.6908   -1.7752 H   0  0  0  0  0  0  0  0  0  0  0  0
   -5.8765    9.4170   -3.0835 H   0  0  0  0  0  0  0  0  0  0  0  0
   -7.4275    8.5109   -3.0835 H   0  0  0  0  0  0  0  0  0  0  0  0
   -6.9304    6.6925   -0.1082 H   0  0  0  0  0  0  0  0  0  0  0  0
   -7.9122    6.9025   -1.5977 H   0  0  0  0  0  0  0  0  0  0  0  0
   -6.5089    5.7812   -1.5977 H   0  0  0  0  0  0  0  0  0  0  0  0
   -1.9652   10.5645   -1.9474 H   0  0  0  0  0  0  0  0  0  0  0  0
   -2.4239   12.3876   -0.4309 H   0  0  0  0  0  0  0  0  0  0  0  0
   -1.2528   11.7904    0.7642 H   0  0  0  0  0  0  0  0  0  0  0  0
   -0.8442   14.0002   -1.0022 H   0  0  0  0  0  0  0  0  0  0  0  0
    0.4451   13.1988   -0.1081 H   0  0  0  0  0  0  0  0  0  0  0  0
   -1.8630   13.1079   -2.6953 H   0  0  0  0  0  0  0  0  0  0  0  0
   -0.5778   13.6180   -3.8420 H   0  0  0  0  0  0  0  0  0  0  0  0
   -1.1585   11.9182   -3.8420 H   0  0  0  0  0  0  0  0  0  0  0  0
    2.1773   12.6775   -1.7185 H   0  0  0  0  0  0  0  0  0  0  0  0
    1.0204   14.9176   -2.2501 H   0  0  0  0  0  0  0  0  0  0  0  0
    2.7756   14.6174   -2.7176 H   0  0  0  0  0  0  0  0  0  0  0  0
    1.2878   15.8558   -4.5048 H   0  0  0  0  0  0  0  0  0  0  0  0
    0.7026   11.9400   -5.2988 H   0  0  0  0  0  0  0  0  0  0  0  0
    3.5868   12.4868   -6.2328 H   0  0  0  0  0  0  0  0  0  0  0  0
    2.6986   10.9001   -6.2992 H   0  0  0  0  0  0  0  0  0  0  0  0
    2.7862   12.0181   -8.5053 H   0  0  0  0  0  0  0  0  0  0  0  0
    1.1027   11.8242   -7.8779 H   0  0  0  0  0  0  0  0  0  0  0  0
    1.3201   14.0141   -8.8331 H   0  0  0  0  0  0  0  0  0  0  0  0
    2.9320   15.4650   -7.9040 H   0  0  0  0  0  0  0  0  0  0  0  0
   -1.0284   13.7647   -6.0198 H   0  0  0  0  0  0  0  0  0  0  0  0
   -1.1049   14.6875   -7.5591 H   0  0  0  0  0  0  0  0  0  0  0  0
   -0.5260   12.9870   -7.5591 H   0  0  0  0  0  0  0  0  0  0  0  0
    0.8609   16.4436   -5.9457 H   0  0  0  0  0  0  0  0  0  0  0  0
    1.7627   16.2963   -7.4922 H   0  0  0  0  0  0  0  0  0  0  0  0
   -0.0331   16.2544   -7.4922 H   0  0  0  0  0  0  0  0  0  0  0  0
    4.0363   12.1865   -2.6367 H   0  0  0  0  0  0  0  0  0  0  0  0
    4.2168   11.3023   -4.1898 H   0  0  0  0  0  0  0  0  0  0  0  0
    4.0323   13.0890   -4.1898 H   0  0  0  0  0  0  0  0  0  0  0  0
    1.9778    9.9819   -4.5841 H   0  0  0  0  0  0  0  0  0  0  0  0
    2.6075   10.1136   -2.8463 H   0  0  0  0  0  0  0  0  0  0  0  0
   -0.2680   10.2870   -3.7892 H   0  0  0  0  0  0  0  0  0  0  0  0
    0.5090    9.0176   -2.7635 H   0  0  0  0  0  0  0  0  0  0  0  0
    0.8230   10.6777    0.3184 H   0  0  0  0  0  0  0  0  0  0  0  0
    1.5469    9.4747   -0.8022 H   0  0  0  0  0  0  0  0  0  0  0  0
    2.1374   11.1712   -0.8022 H   0  0  0  0  0  0  0  0  0  0  0  0
  1  2  1  0
  2  3  1  0
  3  4  1  0
  4  5  1  0
  5  6  1  0
  6  7  1  0
  7  8  1  0
  7  9  1  0
  2 10  1  0
 10 11  1  0
 11 12  1  0
 12 13  1  0
 13 14  1  6
 13 15  1  0
 15 16  1  0
 16 17  1  0
 17 18  2  0
 18 19  1  0
 19 20  1  0
 20 21  1  0
 21 22  1  0
 22 23  1  0
 22 24  1  0
 24 25  1  0
 24 26  1  0
 19 27  1  0
 27 28  1  6
 27 29  1  0
 29 30  1  0
 30 31  1  0
 31 32  1  1
  7  5  1  0
 31 10  1  0
 31 13  1  0
 27 15  1  0
 24 18  1  0
  1 33  1  0
  1 34  1  0
  1 35  1  0
  2 36  1  1
  3 37  1  0
  3 38  1  0
  4 39  1  0
  4 40  1  0
  5 41  1  1
  8 42  1  0
  8 43  1  0
  8 44  1  0
  9 45  1  0
  9 46  1  0
  9 47  1  0
 10 48  1  6
 11 49  1  0
 11 50  1  0
 12 51  1  0
 12 52  1  0
 14 53  1  0
 14 54  1  0
 14 55  1  0
 15 56  1  1
 16 57  1  0
 16 58  1  0
 17 59  1  0
 19 60  1  6
 20 61  1  0
 20 62  1  0
 21 63  1  0
 21 64  1  0
 22 65  1  6
 23 66  1  0
 25 67  1  0
 25 68  1  0
 25 69  1  0
 26 70  1  0
 26 71  1  0
 26 72  1  0
 28 73  1  0
 28 74  1  0
 28 75  1  0
 29 76  1  0
 29 77  1  0
 30 78  1  0
 30 79  1  0
 32 80  1  0
 32 81  1  0
 32 82  1  0
M  END
>  <meeko>  (11) 
{"is_sidechain": [false], "intermolecular_energy": 2.731, "internal_energy": -0.839}

$$$$
EPH_relaxed_0001_pdb2pqr_Repair_118_r2_0001_out
     RDKit          3D

 82 86  0  0  0  0  0  0  0  0999 V2000
   -4.8240    7.0850   -3.2160 C   0  0  0  0  0  0  0  0  0  0  0  0
   -4.5740    7.2340   -1.7130 C   0  0  2  0  0  0  0  0  0  0  0  0
   -5.8760    7.1260   -0.8940 C   0  0  0  0  0  0  0  0  0  0  0  0
   -6.8700    6.1040   -1.4500 C   0  0  0  0  0  0  0  0  0  0  0  0
   -8.0910    6.7670   -2.0120 C   0  0  2  0  0  0  0  0  0  0  0  0
   -8.2320    8.1510   -1.6680 O   0  0  0  0  0  0  0  0  0  0  0  0
   -9.2410    7.2650   -1.1570 C   0  0  0  0  0  0  0  0  0  0  0  0
   -9.2260    7.1200    0.3330 C   0  0  0  0  0  0  0  0  0  0  0  0
  -10.5830    7.4460   -1.7960 C   0  0  0  0  0  0  0  0  0  0  0  0
   -3.8880    8.5650   -1.4290 C   0  0  1  0  0  0  0  0  0  0  0  0
   -4.5030    9.3060   -0.2120 C   0  0  0  0  0  0  0  0  0  0  0  0
   -3.3380   10.0400    0.5000 C   0  0  0  0  0  0  0  0  0  0  0  0
   -2.1640    9.9740   -0.5040 C   0  0  1  0  0  0  0  0  0  0  0  0
   -2.4380   11.1290   -1.5180 C   0  0  0  0  0  0  0  0  0  0  0  0
   -0.7270   10.0710    0.1050 C   0  0  2  0  0  0  0  0  0  0  0  0
   -0.4120   11.3910    0.8290 C   0  0  0  0  0  0  0  0  0  0  0  0
    0.1820   12.4610   -0.0250 C   0  0  0  0  0  0  0  0  0  0  0  0
    0.7160   12.2800   -1.2480 C   0  0  0  0  0  0  0  0  0  0  0  0
    0.8460   10.8750   -1.8490 C   0  0  1  0  0  0  0  0  0  0  0  0
    2.2660   10.6970   -2.4480 C   0  0  0  0  0  0  0  0  0  0  0  0
    2.6220   11.7950   -3.4470 C   0  0  0  0  0  0  0  0  0  0  0  0
    2.5370   13.1730   -2.7950 C   0  0  2  0  0  0  0  0  0  0  0  0
    3.5630   13.2770   -1.8030 O   0  0  0  0  0  0  0  0  0  0  0  0
    1.1540   13.4610   -2.1480 C   0  0  0  0  0  0  0  0  0  0  0  0
    0.0890   13.6460   -3.2580 C   0  0  0  0  0  0  0  0  0  0  0  0
    1.2480   14.8210   -1.4060 C   0  0  0  0  0  0  0  0  0  0  0  0
    0.4300    9.6720   -0.8980 C   0  0  1  0  0  0  0  0  0  0  0  0
    1.6470    9.2390   -0.0240 C   0  0  0  0  0  0  0  0  0  0  0  0
    0.0530    8.4240   -1.7810 C   0  0  0  0  0  0  0  0  0  0  0  0
   -1.4100    8.3240   -2.2530 C   0  0  0  0  0  0  0  0  0  0  0  0
   -2.3780    8.5290   -1.0830 C   0  0  2  0  0  0  0  0  0  0  0  0
   -2.1410    7.3690   -0.0570 C   0  0  0  0  0  0  0  0  0  0  0  0
   -5.7585    6.5280   -3.3788 H   0  0  0  0  0  0  0  0  0  0  0  0
   -4.9064    8.0815   -3.6746 H   0  0  0  0  0  0  0  0  0  0  0  0
   -3.9867    6.5384   -3.6746 H   0  0  0  0  0  0  0  0  0  0  0  0
   -3.9198    6.4058   -1.4029 H   0  0  0  0  0  0  0  0  0  0  0  0
   -5.6162    6.8338    0.1342 H   0  0  0  0  0  0  0  0  0  0  0  0
   -6.3668    8.1093   -0.9398 H   0  0  0  0  0  0  0  0  0  0  0  0
   -6.3791    5.5265   -2.2472 H   0  0  0  0  0  0  0  0  0  0  0  0
   -7.1850    5.4482   -0.6249 H   0  0  0  0  0  0  0  0  0  0  0  0
   -8.0594    6.1230   -2.9032 H   0  0  0  0  0  0  0  0  0  0  0  0
   -9.3285    8.1112    0.7989 H   0  0  0  0  0  0  0  0  0  0  0  0
  -10.0626    6.4787    0.6474 H   0  0  0  0  0  0  0  0  0  0  0  0
   -8.2758    6.6636    0.6474 H   0  0  0  0  0  0  0  0  0  0  0  0
  -11.3502    7.5495   -1.0146 H   0  0  0  0  0  0  0  0  0  0  0  0
  -10.5723    8.3508   -2.4214 H   0  0  0  0  0  0  0  0  0  0  0  0
  -10.8124    6.5707   -2.4214 H   0  0  0  0  0  0  0  0  0  0  0  0
   -4.0394    9.0603   -2.3995 H   0  0  0  0  0  0  0  0  0  0  0  0
   -5.2567   10.0317   -0.5517 H   0  0  0  0  0  0  0  0  0  0  0  0
   -5.0007    8.6006    0.4697 H   0  0  0  0  0  0  0  0  0  0  0  0
   -3.6092   11.0847    0.7123 H   0  0  0  0  0  0  0  0  0  0  0  0
   -3.0856    9.5819    1.4677 H   0  0  0  0  0  0  0  0  0  0  0  0
   -2.6578   12.0557   -0.9676 H   0  0  0  0  0  0  0  0  0  0  0  0
   -1.5507   11.2799   -2.1504 H   0  0  0  0  0  0  0  0  0  0  0  0
   -3.2985   10.8653   -2.1504 H   0  0  0  0  0  0  0  0  0  0  0  0
   -0.7511    9.2995    0.8887 H   0  0  0  0  0  0  0  0  0  0  0  0
   -1.3499   11.7774    1.2545 H   0  0  0  0  0  0  0  0  0  0  0  0
    0.3486   11.1487    1.5858 H   0  0  0  0  0  0  0  0  0  0  0  0
    0.1838   13.4843    0.3787 H   0  0  0  0  0  0  0  0  0  0  0  0
    0.0932   10.8164   -2.6489 H   0  0  0  0  0  0  0  0  0  0  0  0
    2.9993   10.7149   -1.6282 H   0  0  0  0  0  0  0  0  0  0  0  0
    2.2835    9.7377   -2.9860 H   0  0  0  0  0  0  0  0  0  0  0  0
    3.6469   11.6317   -3.8117 H   0  0  0  0  0  0  0  0  0  0  0  0
    1.9066   11.7563   -4.2817 H   0  0  0  0  0  0  0  0  0  0  0  0
    2.6735   13.9223   -3.5887 H   0  0  0  0  0  0  0  0  0  0  0  0
    4.2850   12.6790   -2.0620 H   0  0  0  0  0  0  0  0  0  0  0  0
   -0.8951   13.8169   -2.7971 H   0  0  0  0  0  0  0  0  0  0  0  0
    0.3567   14.5111   -3.8825 H   0  0  0  0  0  0  0  0  0  0  0  0
    0.0493   12.7413   -3.8825 H   0  0  0  0  0  0  0  0  0  0  0  0
    1.2360   14.6477   -0.3198 H   0  0  0  0  0  0  0  0  0  0  0  0
    2.1833   15.3277   -1.6862 H   0  0  0  0  0  0  0  0  0  0  0  0
    0.3913   15.4515   -1.6862 H   0  0  0  0  0  0  0  0  0  0  0  0
    1.3856    9.3320    1.0404 H   0  0  0  0  0  0  0  0  0  0  0  0
    1.9058    8.1936   -0.2480 H   0  0  0  0  0  0  0  0  0  0  0  0
    2.5080    9.8860   -0.2480 H   0  0  0  0  0  0  0  0  0  0  0  0
    0.6910    8.4451   -2.6768 H   0  0  0  0  0  0  0  0  0  0  0  0
    0.2050    7.5523   -1.1275 H   0  0  0  0  0  0  0  0  0  0  0  0
   -1.5964    9.0961   -3.0140 H   0  0  0  0  0  0  0  0  0  0  0  0
   -1.5754    7.3213   -2.6740 H   0  0  0  0  0  0  0  0  0  0  0  0
   -2.2215    7.7630    0.9669 H   0  0  0  0  0  0  0  0  0  0  0  0
   -2.8975    6.5850   -0.2087 H   0  0  0  0  0  0  0  0  0  0  0  0
   -1.1376    6.9446   -0.2087 H   0  0  0  0  0  0  0  0  0  0  0  0
  1  2  1  0
  2  3  1  0
  3  4  1  0
  4  5  1  0
  5  6  1  0
  6  7  1  0
  7  8  1  0
  7  9  1  0
  2 10  1  0
 10 11  1  0
 11 12  1  0
 12 13  1  0
 13 14  1  6
 13 15  1  0
 15 16  1  0
 16 17  1  0
 17 18  2  0
 18 19  1  0
 19 20  1  0
 20 21  1  0
 21 22  1  0
 22 23  1  0
 22 24  1  0
 24 25  1  0
 24 26  1  0
 19 27  1  0
 27 28  1  1
 27 29  1  0
 29 30  1  0
 30 31  1  0
 31 32  1  1
  7  5  1  0
 31 10  1  0
 31 13  1  0
 27 15  1  0
 24 18  1  0
  1 33  1  0
  1 34  1  0
  1 35  1  0
  2 36  1  1
  3 37  1  0
  3 38  1  0
  4 39  1  0
  4 40  1  0
  5 41  1  6
  8 42  1  0
  8 43  1  0
  8 44  1  0
  9 45  1  0
  9 46  1  0
  9 47  1  0
 10 48  1  6
 11 49  1  0
 11 50  1  0
 12 51  1  0
 12 52  1  0
 14 53  1  0
 14 54  1  0
 14 55  1  0
 15 56  1  1
 16 57  1  0
 16 58  1  0
 17 59  1  0
 19 60  1  6
 20 61  1  0
 20 62  1  0
 21 63  1  0
 21 64  1  0
 22 65  1  6
 23 66  1  0
 25 67  1  0
 25 68  1  0
 25 69  1  0
 26 70  1  0
 26 71  1  0
 26 72  1  0
 28 73  1  0
 28 74  1  0
 28 75  1  0
 29 76  1  0
 29 77  1  0
 30 78  1  0
 30 79  1  0
 32 80  1  0
 32 81  1  0
 32 82  1  0
M  END
>  <meeko>  (12) 
{"is_sidechain": [false], "intermolecular_energy": 2.731, "internal_energy": -0.839}

$$$$
EPH_relaxed_0001_pdb2pqr_Repair_118_r2_0001_out
     RDKit          3D

 82 86  0  0  0  0  0  0  0  0999 V2000
    2.5630   10.0580   -3.3540 C   0  0  0  0  0  0  0  0  0  0  0  0
    1.8250   10.8050   -4.4690 C   0  0  2  0  0  0  0  0  0  0  0  0
    2.7470   11.1240   -5.6630 C   0  0  0  0  0  0  0  0  0  0  0  0
    4.0500   11.8220   -5.2650 C   0  0  0  0  0  0  0  0  0  0  0  0
    5.1040   10.8380   -4.8560 C   0  0  2  0  0  0  0  0  0  0  0  0
    5.0950   10.4960   -3.4640 O   0  0  0  0  0  0  0  0  0  0  0  0
    6.2620   11.1860   -3.9400 C   0  0  0  0  0  0  0  0  0  0  0  0
    6.4260   12.5630   -3.3780 C   0  0  0  0  0  0  0  0  0  0  0  0
    7.4910   10.3320   -3.9840 C   0  0  0  0  0  0  0  0  0  0  0  0
    1.2190   12.0910   -3.9210 C   0  0  1  0  0  0  0  0  0  0  0  0
   -0.3240   12.0100   -3.7730 C   0  0  0  0  0  0  0  0  0  0  0  0
   -0.6970   12.8350   -2.5150 C   0  0  0  0  0  0  0  0  0  0  0  0
    0.5860   13.6300   -2.1750 C   0  0  1  0  0  0  0  0  0  0  0  0
    0.5650   14.8560   -3.1400 C   0  0  0  0  0  0  0  0  0  0  0  0
    0.7510   14.0710   -0.6840 C   0  0  2  0  0  0  0  0  0  0  0  0
   -0.3310   15.0350   -0.1650 C   0  0  0  0  0  0  0  0  0  0  0  0
   -0.0270   16.4860   -0.3350 C   0  0  0  0  0  0  0  0  0  0  0  0
    1.1830   17.0040   -0.6190 C   0  0  0  0  0  0  0  0  0  0  0  0
    2.4240   16.1060   -0.7020 C   0  0  1  0  0  0  0  0  0  0  0  0
    3.5890   16.7580    0.0880 C   0  0  0  0  0  0  0  0  0  0  0  0
    3.8720   18.1880   -0.3610 C   0  0  0  0  0  0  0  0  0  0  0  0
    2.6310   19.0640   -0.2090 C   0  0  2  0  0  0  0  0  0  0  0  0
    2.3330   19.2030    1.1840 O   0  0  0  0  0  0  0  0  0  0  0  0
    1.3890   18.5010   -0.9550 C   0  0  0  0  0  0  0  0  0  0  0  0
    1.5980   18.6320   -2.4840 C   0  0  0  0  0  0  0  0  0  0  0  0
    0.1730   19.4010   -0.6050 C   0  0  0  0  0  0  0  0  0  0  0  0
    2.2030   14.5800   -0.3160 C   0  0  1  0  0  0  0  0  0  0  0  0
    2.3630   14.3930    1.2240 C   0  0  0  0  0  0  0  0  0  0  0  0
    3.3300   13.7110   -0.9890 C   0  0  0  0  0  0  0  0  0  0  0  0
    3.0570   13.2050   -2.4180 C   0  0  0  0  0  0  0  0  0  0  0  0
    1.6760   12.5490   -2.5130 C   0  0  2  0  0  0  0  0  0  0  0  0
    1.6740   11.2980   -1.5690 C   0  0  0  0  0  0  0  0  0  0  0  0
    2.2091   10.4163   -2.3761 H   0  0  0  0  0  0  0  0  0  0  0  0
    2.3661    8.9794   -3.4426 H   0  0  0  0  0  0  0  0  0  0  0  0
    3.6439   10.2419   -3.4426 H   0  0  0  0  0  0  0  0  0  0  0  0
    1.0255   10.1448   -4.8363 H   0  0  0  0  0  0  0  0  0  0  0  0
    2.9990   10.1803   -6.1690 H   0  0  0  0  0  0  0  0  0  0  0  0
    2.1978   11.8172   -6.3171 H   0  0  0  0  0  0  0  0  0  0  0  0
    4.4190   12.4037   -6.1226 H   0  0  0  0  0  0  0  0  0  0  0  0
    3.8399   12.4760   -4.4059 H   0  0  0  0  0  0  0  0  0  0  0  0
    5.0633   10.3486   -5.8403 H   0  0  0  0  0  0  0  0  0  0  0  0
    6.4201   12.5136   -2.2791 H   0  0  0  0  0  0  0  0  0  0  0  0
    7.3811   12.9876   -3.7209 H   0  0  0  0  0  0  0  0  0  0  0  0
    5.5974   13.2001   -3.7209 H   0  0  0  0  0  0  0  0  0  0  0  0
    7.8170   10.1055   -2.9581 H   0  0  0  0  0  0  0  0  0  0  0  0
    7.2670    9.3940   -4.5131 H   0  0  0  0  0  0  0  0  0  0  0  0
    8.2920   10.8691   -4.5131 H   0  0  0  0  0  0  0  0  0  0  0  0
    1.5751   12.8007   -4.6823 H   0  0  0  0  0  0  0  0  0  0  0  0
   -0.8126   12.4342   -4.6626 H   0  0  0  0  0  0  0  0  0  0  0  0
   -0.6568   10.9663   -3.6735 H   0  0  0  0  0  0  0  0  0  0  0  0
   -1.5312   13.5184   -2.7321 H   0  0  0  0  0  0  0  0  0  0  0  0
   -1.0263   12.1979   -1.6809 H   0  0  0  0  0  0  0  0  0  0  0  0
    0.5491   15.7854   -2.5518 H   0  0  0  0  0  0  0  0  0  0  0  0
    1.4636   14.8388   -3.7743 H   0  0  0  0  0  0  0  0  0  0  0  0
   -0.3325   14.8081   -3.7743 H   0  0  0  0  0  0  0  0  0  0  0  0
    0.5961   13.1274   -0.1402 H   0  0  0  0  0  0  0  0  0  0  0  0
   -1.2656   14.8183   -0.7031 H   0  0  0  0  0  0  0  0  0  0  0  0
   -0.3967   14.8630    0.9195 H   0  0  0  0  0  0  0  0  0  0  0  0
   -0.8622   17.1923   -0.2184 H   0  0  0  0  0  0  0  0  0  0  0  0
    2.6847   16.0456   -1.7690 H   0  0  0  0  0  0  0  0  0  0  0  0
    3.3278   16.7691    1.1565 H   0  0  0  0  0  0  0  0  0  0  0  0
    4.4948   16.1632   -0.1012 H   0  0  0  0  0  0  0  0  0  0  0  0
    4.6838   18.6042    0.2537 H   0  0  0  0  0  0  0  0  0  0  0  0
    4.1621   18.1717   -1.4219 H   0  0  0  0  0  0  0  0  0  0  0  0
    2.8568   20.0386   -0.6664 H   0  0  0  0  0  0  0  0  0  0  0  0
    1.7390   18.4740    1.4320 H   0  0  0  0  0  0  0  0  0  0  0  0
    2.5150   19.2068   -2.6808 H   0  0  0  0  0  0  0  0  0  0  0  0
    1.6907   17.6301   -2.9286 H   0  0  0  0  0  0  0  0  0  0  0  0
    0.7367   19.1521   -2.9286 H   0  0  0  0  0  0  0  0  0  0  0  0
    0.0738   19.4745    0.4880 H   0  0  0  0  0  0  0  0  0  0  0  0
    0.3262   20.4050   -1.0276 H   0  0  0  0  0  0  0  0  0  0  0  0
   -0.7424   18.9611   -1.0276 H   0  0  0  0  0  0  0  0  0  0  0  0
    1.7348   15.1272    1.7497 H   0  0  0  0  0  0  0  0  0  0  0  0
    2.0511   13.3761    1.5042 H   0  0  0  0  0  0  0  0  0  0  0  0
    3.4159   14.5439    1.5042 H   0  0  0  0  0  0  0  0  0  0  0  0
    4.2454   14.3201   -1.0209 H   0  0  0  0  0  0  0  0  0  0  0  0
    3.4012   12.8037   -0.3712 H   0  0  0  0  0  0  0  0  0  0  0  0
    3.1004   14.0548   -3.1151 H   0  0  0  0  0  0  0  0  0  0  0  0
    3.8197   12.4557   -2.6764 H   0  0  0  0  0  0  0  0  0  0  0  0
    1.6745   11.6300   -0.5203 H   0  0  0  0  0  0  0  0  0  0  0  0
    0.7749   10.6944   -1.7621 H   0  0  0  0  0  0  0  0  0  0  0  0
    2.5712   10.6915   -1.7621 H   0  0  0  0  0  0  0  0  0  0  0  0
  1  2  1  0
  2  3  1  0
  3  4  1  0
  4  5  1  0
  5  6  1  0
  6  7  1  0
  7  8  1  0
  7  9  1  0
  2 10  1  0
 10 11  1  0
 11 12  1  0
 12 13  1  0
 13 14  1  6
 13 15  1  0
 15 16  1  0
 16 17  1  0
 17 18  2  0
 18 19  1  0
 19 20  1  0
 20 21  1  0
 21 22  1  0
 22 23  1  0
 22 24  1  0
 24 25  1  0
 24 26  1  0
 19 27  1  0
 27 28  1  1
 27 29  1  0
 29 30  1  0
 30 31  1  0
 31 32  1  1
  7  5  1  0
 31 10  1  0
 31 13  1  0
 27 15  1  0
 24 18  1  0
  1 33  1  0
  1 34  1  0
  1 35  1  0
  2 36  1  6
  3 37  1  0
  3 38  1  0
  4 39  1  0
  4 40  1  0
  5 41  1  6
  8 42  1  0
  8 43  1  0
  8 44  1  0
  9 45  1  0
  9 46  1  0
  9 47  1  0
 10 48  1  6
 11 49  1  0
 11 50  1  0
 12 51  1  0
 12 52  1  0
 14 53  1  0
 14 54  1  0
 14 55  1  0
 15 56  1  1
 16 57  1  0
 16 58  1  0
 17 59  1  0
 19 60  1  6
 20 61  1  0
 20 62  1  0
 21 63  1  0
 21 64  1  0
 22 65  1  6
 23 66  1  0
 25 67  1  0
 25 68  1  0
 25 69  1  0
 26 70  1  0
 26 71  1  0
 26 72  1  0
 28 73  1  0
 28 74  1  0
 28 75  1  0
 29 76  1  0
 29 77  1  0
 30 78  1  0
 30 79  1  0
 32 80  1  0
 32 81  1  0
 32 82  1  0
M  END
>  <meeko>  (13) 
{"is_sidechain": [false], "intermolecular_energy": 2.731, "internal_energy": -0.839}

$$$$
EPH_relaxed_0001_pdb2pqr_Repair_118_r2_0001_out
     RDKit          3D

 82 86  0  0  0  0  0  0  0  0999 V2000
    1.6980   16.4620   -0.6200 C   0  0  0  0  0  0  0  0  0  0  0  0
    1.8510   16.1030   -2.1010 C   0  0  2  0  0  0  0  0  0  0  0  0
    1.4890   17.2830   -3.0250 C   0  0  0  0  0  0  0  0  0  0  0  0
    1.2900   18.6070   -2.2830 C   0  0  0  0  0  0  0  0  0  0  0  0
   -0.1440   18.8200   -1.9040 C   0  0  2  0  0  0  0  0  0  0  0  0
   -0.5350   20.1940   -1.7880 O   0  0  0  0  0  0  0  0  0  0  0  0
   -0.5790   19.4180   -0.5790 C   0  0  0  0  0  0  0  0  0  0  0  0
    0.4200   19.8410    0.4520 C   0  0  0  0  0  0  0  0  0  0  0  0
   -1.9670   19.1420   -0.0910 C   0  0  0  0  0  0  0  0  0  0  0  0
    0.9840   14.8950   -2.4350 C   0  0  1  0  0  0  0  0  0  0  0  0
    1.2300   14.3610   -3.8710 C   0  0  0  0  0  0  0  0  0  0  0  0
    1.0720   12.8200   -3.8090 C   0  0  0  0  0  0  0  0  0  0  0  0
    0.4200   12.5500   -2.4320 C   0  0  1  0  0  0  0  0  0  0  0  0
   -1.1010   12.8230   -2.6480 C   0  0  0  0  0  0  0  0  0  0  0  0
    0.6710   11.1360   -1.8140 C   0  0  2  0  0  0  0  0  0  0  0  0
    0.1130    9.9580   -2.6330 C   0  0  0  0  0  0  0  0  0  0  0  0
   -1.2830    9.5500   -2.2940 C   0  0  0  0  0  0  0  0  0  0  0  0
   -1.9560    9.9120   -1.1860 C   0  0  0  0  0  0  0  0  0  0  0  0
   -1.2760   10.7360   -0.0850 C   0  0  1  0  0  0  0  0  0  0  0  0
   -1.5930   10.1120    1.3000 C   0  0  0  0  0  0  0  0  0  0  0  0
   -3.0910    9.9450    1.5360 C   0  0  0  0  0  0  0  0  0  0  0  0
   -3.7200    9.0720    0.4540 C   0  0  2  0  0  0  0  0  0  0  0  0
   -3.2110    7.7410    0.5810 O   0  0  0  0  0  0  0  0  0  0  0  0
   -3.4590    9.5970   -0.9850 C   0  0  0  0  0  0  0  0  0  0  0  0
   -4.2640   10.8990   -1.2190 C   0  0  0  0  0  0  0  0  0  0  0  0
   -4.0240    8.5520   -1.9850 C   0  0  0  0  0  0  0  0  0  0  0  0
    0.2750   11.0160   -0.2870 C   0  0  1  0  0  0  0  0  0  0  0  0
    1.1100    9.8370    0.2980 C   0  0  0  0  0  0  0  0  0  0  0  0
    0.6780   12.2960    0.5370 C   0  0  0  0  0  0  0  0  0  0  0  0
    0.5200   13.6560   -0.1700 C   0  0  0  0  0  0  0  0  0  0  0  0
    1.1620   13.6280   -1.5610 C   0  0  2  0  0  0  0  0  0  0  0  0
    2.6970   13.3770   -1.3740 C   0  0  0  0  0  0  0  0  0  0  0  0
    2.0546   15.6254   -0.0012 H   0  0  0  0  0  0  0  0  0  0  0  0
    2.2910   17.3614   -0.3976 H   0  0  0  0  0  0  0  0  0  0  0  0
    0.6385   16.6571   -0.3976 H   0  0  0  0  0  0  0  0  0  0  0  0
    2.9097   15.8604   -2.2750 H   0  0  0  0  0  0  0  0  0  0  0  0
    2.3005   17.4132   -3.7561 H   0  0  0  0  0  0  0  0  0  0  0  0
    0.5297   17.0348   -3.5025 H   0  0  0  0  0  0  0  0  0  0  0  0
    1.9028   18.5993   -1.3695 H   0  0  0  0  0  0  0  0  0  0  0  0
    1.5924   19.4247   -2.9537 H   0  0  0  0  0  0  0  0  0  0  0  0
   -0.4446   17.9044   -2.4343 H   0  0  0  0  0  0  0  0  0  0  0  0
    0.0069   19.6661    1.4563 H   0  0  0  0  0  0  0  0  0  0  0  0
    1.3439   19.2569    0.3287 H   0  0  0  0  0  0  0  0  0  0  0  0
    0.6435   20.9110    0.3287 H   0  0  0  0  0  0  0  0  0  0  0  0
   -1.9754   19.1403    1.0090 H   0  0  0  0  0  0  0  0  0  0  0  0
   -2.6479   19.9223   -0.4617 H   0  0  0  0  0  0  0  0  0  0  0  0
   -2.2976   18.1605   -0.4617 H   0  0  0  0  0  0  0  0  0  0  0  0
   -0.0116   15.3314   -2.2669 H   0  0  0  0  0  0  0  0  0  0  0  0
    0.4928   14.7896   -4.5659 H   0  0  0  0  0  0  0  0  0  0  0  0
    2.2313   14.6410   -4.2301 H   0  0  0  0  0  0  0  0  0  0  0  0
    0.4234   12.4630   -4.6225 H   0  0  0  0  0  0  0  0  0  0  0  0
    2.0326   12.2970   -3.9256 H   0  0  0  0  0  0  0  0  0  0  0  0
   -1.5997   12.9125   -1.6717 H   0  0  0  0  0  0  0  0  0  0  0  0
   -1.2291   13.7585   -3.2123 H   0  0  0  0  0  0  0  0  0  0  0  0
   -1.5464   11.9905   -3.2123 H   0  0  0  0  0  0  0  0  0  0  0  0
    1.7660   11.0463   -1.8676 H   0  0  0  0  0  0  0  0  0  0  0  0
    0.1356   10.2418   -3.6955 H   0  0  0  0  0  0  0  0  0  0  0  0
    0.7493    9.0930   -2.3944 H   0  0  0  0  0  0  0  0  0  0  0  0
   -1.8053    8.8987   -3.0102 H   0  0  0  0  0  0  0  0  0  0  0  0
   -1.7104   11.7446   -0.1481 H   0  0  0  0  0  0  0  0  0  0  0  0
   -1.1141    9.1235    1.3596 H   0  0  0  0  0  0  0  0  0  0  0  0
   -1.2071   10.7953    2.0709 H   0  0  0  0  0  0  0  0  0  0  0  0
   -3.2504    9.4733    2.5169 H   0  0  0  0  0  0  0  0  0  0  0  0
   -3.5639   10.9377    1.5049 H   0  0  0  0  0  0  0  0  0  0  0  0
   -4.8096    9.0957    0.6033 H   0  0  0  0  0  0  0  0  0  0  0  0
   -3.1500    7.3620   -0.3130 H   0  0  0  0  0  0  0  0  0  0  0  0
   -4.5370   11.3406   -0.2492 H   0  0  0  0  0  0  0  0  0  0  0  0
   -3.6495   11.6130   -1.7870 H   0  0  0  0  0  0  0  0  0  0  0  0
   -5.1773   10.6683   -1.7870 H   0  0  0  0  0  0  0  0  0  0  0  0
   -4.4751    7.7177   -1.4277 H   0  0  0  0  0  0  0  0  0  0  0  0
   -4.7887    9.0262   -2.6178 H   0  0  0  0  0  0  0  0  0  0  0  0
   -3.2085    8.1718   -2.6178 H   0  0  0  0  0  0  0  0  0  0  0  0
    1.0815    9.8773    1.3969 H   0  0  0  0  0  0  0  0  0  0  0  0
    0.6860    8.8817   -0.0450 H   0  0  0  0  0  0  0  0  0  0  0  0
    2.1519    9.9199   -0.0450 H   0  0  0  0  0  0  0  0  0  0  0  0
    0.0552   12.3179    1.4434 H   0  0  0  0  0  0  0  0  0  0  0  0
    1.7574   12.1913    0.7215 H   0  0  0  0  0  0  0  0  0  0  0  0
   -0.5507   13.8863   -0.2723 H   0  0  0  0  0  0  0  0  0  0  0  0
    1.0231   14.4259    0.4334 H   0  0  0  0  0  0  0  0  0  0  0  0
    2.9341   13.3382   -0.3006 H   0  0  0  0  0  0  0  0  0  0  0  0
    2.9724   12.4219   -1.8451 H   0  0  0  0  0  0  0  0  0  0  0  0
    3.2623   14.1946   -1.8451 H   0  0  0  0  0  0  0  0  0  0  0  0
  1  2  1  0
  2  3  1  0
  3  4  1  0
  4  5  1  0
  5  6  1  0
  6  7  1  0
  7  8  1  0
  7  9  1  0
  2 10  1  0
 10 11  1  0
 11 12  1  0
 12 13  1  0
 13 14  1  6
 13 15  1  0
 15 16  1  0
 16 17  1  0
 17 18  2  0
 18 19  1  0
 19 20  1  0
 20 21  1  0
 21 22  1  0
 22 23  1  0
 22 24  1  0
 24 25  1  0
 24 26  1  0
 19 27  1  0
 27 28  1  1
 27 29  1  0
 29 30  1  0
 30 31  1  0
 31 32  1  1
  7  5  1  0
 31 10  1  0
 31 13  1  0
 27 15  1  0
 24 18  1  0
  1 33  1  0
  1 34  1  0
  1 35  1  0
  2 36  1  1
  3 37  1  0
  3 38  1  0
  4 39  1  0
  4 40  1  0
  5 41  1  6
  8 42  1  0
  8 43  1  0
  8 44  1  0
  9 45  1  0
  9 46  1  0
  9 47  1  0
 10 48  1  6
 11 49  1  0
 11 50  1  0
 12 51  1  0
 12 52  1  0
 14 53  1  0
 14 54  1  0
 14 55  1  0
 15 56  1  1
 16 57  1  0
 16 58  1  0
 17 59  1  0
 19 60  1  1
 20 61  1  0
 20 62  1  0
 21 63  1  0
 21 64  1  0
 22 65  1  1
 23 66  1  0
 25 67  1  0
 25 68  1  0
 25 69  1  0
 26 70  1  0
 26 71  1  0
 26 72  1  0
 28 73  1  0
 28 74  1  0
 28 75  1  0
 29 76  1  0
 29 77  1  0
 30 78  1  0
 30 79  1  0
 32 80  1  0
 32 81  1  0
 32 82  1  0
M  END
>  <meeko>  (14) 
{"is_sidechain": [false], "intermolecular_energy": 2.731, "internal_energy": -0.839}

$$$$
EPH_relaxed_0001_pdb2pqr_Repair_118_r2_0001_out
     RDKit          3D

 82 86  0  0  0  0  0  0  0  0999 V2000
    0.8070   16.5750   -8.6150 C   0  0  0  0  0  0  0  0  0  0  0  0
    1.8720   15.7480   -7.8900 C   0  0  2  0  0  0  0  0  0  0  0  0
    2.1460   14.4060   -8.5960 C   0  0  0  0  0  0  0  0  0  0  0  0
    3.3000   14.4630   -9.6010 C   0  0  0  0  0  0  0  0  0  0  0  0
    2.8420   14.9410  -10.9450 C   0  0  2  0  0  0  0  0  0  0  0  0
    1.7630   15.8840  -10.9090 O   0  0  0  0  0  0  0  0  0  0  0  0
    1.4780   14.6190  -11.5270 C   0  0  0  0  0  0  0  0  0  0  0  0
    0.4870   13.7850  -10.7770 C   0  0  0  0  0  0  0  0  0  0  0  0
    1.2960   14.7000  -13.0110 C   0  0  0  0  0  0  0  0  0  0  0  0
    1.4440   15.5000   -6.4480 C   0  0  1  0  0  0  0  0  0  0  0  0
    0.0690   16.1380   -6.1150 C   0  0  0  0  0  0  0  0  0  0  0  0
   -0.6360   15.1840   -5.1160 C   0  0  0  0  0  0  0  0  0  0  0  0
    0.4760   14.2130   -4.6540 C   0  0  1  0  0  0  0  0  0  0  0  0
    1.2570   14.9940   -3.5510 C   0  0  0  0  0  0  0  0  0  0  0  0
    0.0020   12.8130   -4.1430 C   0  0  2  0  0  0  0  0  0  0  0  0
   -0.8930   12.8430   -2.8920 C   0  0  0  0  0  0  0  0  0  0  0  0
   -0.1700   12.7610   -1.5880 C   0  0  0  0  0  0  0  0  0  0  0  0
    1.1120   12.3830   -1.4280 C   0  0  0  0  0  0  0  0  0  0  0  0
    1.9430   11.8920   -2.6200 C   0  0  1  0  0  0  0  0  0  0  0  0
    2.6980   10.5950   -2.2250 C   0  0  0  0  0  0  0  0  0  0  0  0
    3.5350   10.7670   -0.9610 C   0  0  0  0  0  0  0  0  0  0  0  0
    2.6640   11.1990    0.2150 C   0  0  2  0  0  0  0  0  0  0  0  0
    1.7720   10.1300    0.5460 O   0  0  0  0  0  0  0  0  0  0  0  0
    1.8470   12.4910   -0.0690 C   0  0  0  0  0  0  0  0  0  0  0  0
    2.8030   13.7080   -0.1290 C   0  0  0  0  0  0  0  0  0  0  0  0
    0.9060   12.7370    1.1410 C   0  0  0  0  0  0  0  0  0  0  0  0
    1.1640   11.7490   -3.9970 C   0  0  1  0  0  0  0  0  0  0  0  0
    0.4940   10.3430   -4.0860 C   0  0  0  0  0  0  0  0  0  0  0  0
    2.1970   11.8250   -5.1830 C   0  0  0  0  0  0  0  0  0  0  0  0
    2.5340   13.2280   -5.7220 C   0  0  0  0  0  0  0  0  0  0  0  0
    1.2580   14.0280   -6.0040 C   0  0  2  0  0  0  0  0  0  0  0  0
    0.4610   13.2780   -7.1260 C   0  0  0  0  0  0  0  0  0  0  0  0
    0.1640   17.0743   -7.8752 H   0  0  0  0  0  0  0  0  0  0  0  0
    1.2967   17.3318   -9.2454 H   0  0  0  0  0  0  0  0  0  0  0  0
    0.1950   15.9131   -9.2454 H   0  0  0  0  0  0  0  0  0  0  0  0
    2.8077   16.3261   -7.9066 H   0  0  0  0  0  0  0  0  0  0  0  0
    2.3890   13.6543   -7.8306 H   0  0  0  0  0  0  0  0  0  0  0  0
    1.2387   14.1501   -9.1628 H   0  0  0  0  0  0  0  0  0  0  0  0
    4.0696   15.1511   -9.2213 H   0  0  0  0  0  0  0  0  0  0  0  0
    3.7030   13.4462   -9.7180 H   0  0  0  0  0  0  0  0  0  0  0  0
    3.8594   14.8453  -11.3522 H   0  0  0  0  0  0  0  0  0  0  0  0
    0.6418   13.9153   -9.6958 H   0  0  0  0  0  0  0  0  0  0  0  0
   -0.5329   14.1006  -11.0420 H   0  0  0  0  0  0  0  0  0  0  0  0
    0.6237   12.7262  -11.0420 H   0  0  0  0  0  0  0  0  0  0  0  0
    0.3124   15.1378  -13.2364 H   0  0  0  0  0  0  0  0  0  0  0  0
    2.0862   15.3314  -13.4434 H   0  0  0  0  0  0  0  0  0  0  0  0
    1.3558   13.6903  -13.4434 H   0  0  0  0  0  0  0  0  0  0  0  0
    2.3015   15.9453   -5.9223 H   0  0  0  0  0  0  0  0  0  0  0  0
    0.2116   17.1280   -5.6572 H   0  0  0  0  0  0  0  0  0  0  0  0
   -0.5344   16.2738   -7.0247 H   0  0  0  0  0  0  0  0  0  0  0  0
   -1.0404   15.7463   -4.2614 H   0  0  0  0  0  0  0  0  0  0  0  0
   -1.4873   14.6572   -5.5718 H   0  0  0  0  0  0  0  0  0  0  0  0
    0.9223   14.6593   -2.5581 H   0  0  0  0  0  0  0  0  0  0  0  0
    2.3346   14.8015   -3.6588 H   0  0  0  0  0  0  0  0  0  0  0  0
    1.0645   16.0716   -3.6588 H   0  0  0  0  0  0  0  0  0  0  0  0
   -0.6445   12.4693   -4.9639 H   0  0  0  0  0  0  0  0  0  0  0  0
   -1.4643   13.7829   -2.9053 H   0  0  0  0  0  0  0  0  0  0  0  0
   -1.5234   11.9433   -2.9474 H   0  0  0  0  0  0  0  0  0  0  0  0
   -0.7322   13.0322   -0.6822 H   0  0  0  0  0  0  0  0  0  0  0  0
    2.6647   12.6930   -2.8380 H   0  0  0  0  0  0  0  0  0  0  0  0
    1.9612    9.7963   -2.0540 H   0  0  0  0  0  0  0  0  0  0  0  0
    3.3836   10.3441   -3.0478 H   0  0  0  0  0  0  0  0  0  0  0  0
    4.0200    9.8102   -0.7174 H   0  0  0  0  0  0  0  0  0  0  0  0
    4.2903   11.5456   -1.1432 H   0  0  0  0  0  0  0  0  0  0  0  0
    3.3360   11.4305    1.0546 H   0  0  0  0  0  0  0  0  0  0  0  0
    0.9610   10.5240    0.9090 H   0  0  0  0  0  0  0  0  0  0  0  0
    3.0541   14.0277    0.8931 H   0  0  0  0  0  0  0  0  0  0  0  0
    3.7232   13.4255   -0.6614 H   0  0  0  0  0  0  0  0  0  0  0  0
    2.3106   14.5351   -0.6614 H   0  0  0  0  0  0  0  0  0  0  0  0
    1.4658   12.5907    2.0765 H   0  0  0  0  0  0  0  0  0  0  0  0
    0.5199   13.7663    1.1019 H   0  0  0  0  0  0  0  0  0  0  0  0
    0.0656   12.0284    1.1019 H   0  0  0  0  0  0  0  0  0  0  0  0
    0.3111    9.9591   -3.0715 H   0  0  0  0  0  0  0  0  0  0  0  0
   -0.4615   10.4256   -4.6246 H   0  0  0  0  0  0  0  0  0  0  0  0
    1.1600    9.6529   -4.6246 H   0  0  0  0  0  0  0  0  0  0  0  0
    3.1354   11.3673   -4.8367 H   0  0  0  0  0  0  0  0  0  0  0  0
    1.7115   11.3037   -6.0212 H   0  0  0  0  0  0  0  0  0  0  0  0
    3.1378   13.7649   -4.9755 H   0  0  0  0  0  0  0  0  0  0  0  0
    3.0938   13.1174   -6.6624 H   0  0  0  0  0  0  0  0  0  0  0  0
   -0.2661   12.5938   -6.6643 H   0  0  0  0  0  0  0  0  0  0  0  0
   -0.0706   14.0110   -7.7506 H   0  0  0  0  0  0  0  0  0  0  0  0
    1.1604   12.7029   -7.7506 H   0  0  0  0  0  0  0  0  0  0  0  0
  1  2  1  0
  2  3  1  0
  3  4  1  0
  4  5  1  0
  5  6  1  0
  6  7  1  0
  7  8  1  0
  7  9  1  0
  2 10  1  0
 10 11  1  0
 11 12  1  0
 12 13  1  0
 13 14  1  1
 13 15  1  0
 15 16  1  0
 16 17  1  0
 17 18  2  0
 18 19  1  0
 19 20  1  0
 20 21  1  0
 21 22  1  0
 22 23  1  0
 22 24  1  0
 24 25  1  0
 24 26  1  0
 19 27  1  0
 27 28  1  1
 27 29  1  0
 29 30  1  0
 30 31  1  0
 31 32  1  6
  7  5  1  0
 31 10  1  0
 31 13  1  0
 27 15  1  0
 24 18  1  0
  1 33  1  0
  1 34  1  0
  1 35  1  0
  2 36  1  1
  3 37  1  0
  3 38  1  0
  4 39  1  0
  4 40  1  0
  5 41  1  6
  8 42  1  0
  8 43  1  0
  8 44  1  0
  9 45  1  0
  9 46  1  0
  9 47  1  0
 10 48  1  1
 11 49  1  0
 11 50  1  0
 12 51  1  0
 12 52  1  0
 14 53  1  0
 14 54  1  0
 14 55  1  0
 15 56  1  6
 16 57  1  0
 16 58  1  0
 17 59  1  0
 19 60  1  6
 20 61  1  0
 20 62  1  0
 21 63  1  0
 21 64  1  0
 22 65  1  1
 23 66  1  0
 25 67  1  0
 25 68  1  0
 25 69  1  0
 26 70  1  0
 26 71  1  0
 26 72  1  0
 28 73  1  0
 28 74  1  0
 28 75  1  0
 29 76  1  0
 29 77  1  0
 30 78  1  0
 30 79  1  0
 32 80  1  0
 32 81  1  0
 32 82  1  0
M  END
>  <meeko>  (15) 
{"is_sidechain": [false], "intermolecular_energy": 2.731, "internal_energy": -0.839}

$$$$
EPH_relaxed_0001_pdb2pqr_Repair_118_r2_0001_out
     RDKit          3D

 82 86  0  0  0  0  0  0  0  0999 V2000
    1.9400   10.9940   -5.4810 C   0  0  0  0  0  0  0  0  0  0  0  0
    1.4900   10.8720   -4.0220 C   0  0  2  0  0  0  0  0  0  0  0  0
    0.4200    9.7780   -3.8340 C   0  0  0  0  0  0  0  0  0  0  0  0
    0.3990    9.1730   -2.4280 C   0  0  0  0  0  0  0  0  0  0  0  0
   -1.0010    8.9520   -1.9400 C   0  0  2  0  0  0  0  0  0  0  0  0
   -1.7800   10.1470   -1.7970 O   0  0  0  0  0  0  0  0  0  0  0  0
   -1.5000    9.4250   -0.5870 C   0  0  0  0  0  0  0  0  0  0  0  0
   -0.6030   10.1550    0.3630 C   0  0  0  0  0  0  0  0  0  0  0  0
   -2.7000    8.7560    0.0070 C   0  0  0  0  0  0  0  0  0  0  0  0
    0.9580   12.2120   -3.5290 C   0  0  1  0  0  0  0  0  0  0  0  0
   -0.5660   12.1790   -3.2380 C   0  0  0  0  0  0  0  0  0  0  0  0
   -0.8100   13.1100   -2.0230 C   0  0  0  0  0  0  0  0  0  0  0  0
    0.5110   13.8990   -1.8650 C   0  0  1  0  0  0  0  0  0  0  0  0
    0.4230   15.0450   -2.9210 C   0  0  0  0  0  0  0  0  0  0  0  0
    0.8170   14.4530   -0.4350 C   0  0  2  0  0  0  0  0  0  0  0  0
   -0.1970   15.4800    0.0970 C   0  0  0  0  0  0  0  0  0  0  0  0
    0.1140   16.9060   -0.2170 C   0  0  0  0  0  0  0  0  0  0  0  0
    1.3020   17.3710   -0.6480 C   0  0  0  0  0  0  0  0  0  0  0  0
    2.5150   16.4400   -0.7680 C   0  0  1  0  0  0  0  0  0  0  0  0
    3.7570   17.1250   -0.1400 C   0  0  0  0  0  0  0  0  0  0  0  0
    4.0220   18.5080   -0.7270 C   0  0  0  0  0  0  0  0  0  0  0  0
    2.8150   19.4220   -0.5370 C   0  0  2  0  0  0  0  0  0  0  0  0
    2.6460   19.6790    0.8600 O   0  0  0  0  0  0  0  0  0  0  0  0
    1.5010   18.8310   -1.1220 C   0  0  0  0  0  0  0  0  0  0  0  0
    1.5730   18.8350   -2.6690 C   0  0  0  0  0  0  0  0  0  0  0  0
    0.3370   19.7850   -0.7400 C   0  0  0  0  0  0  0  0  0  0  0  0
    2.3050   14.9560   -0.2400 C   0  0  1  0  0  0  0  0  0  0  0  0
    2.6010   14.8880    1.2890 C   0  0  0  0  0  0  0  0  0  0  0  0
    3.3520   14.0090   -0.9380 C   0  0  0  0  0  0  0  0  0  0  0  0
    2.9430   13.3970   -2.2910 C   0  0  0  0  0  0  0  0  0  0  0  0
    1.5480   12.7690   -2.2090 C   0  0  2  0  0  0  0  0  0  0  0  0
    1.6110   11.5980   -1.1700 C   0  0  0  0  0  0  0  0  0  0  0  0
    3.0012   11.2817   -5.5146 H   0  0  0  0  0  0  0  0  0  0  0  0
    1.8060   10.0271   -5.9881 H   0  0  0  0  0  0  0  0  0  0  0  0
    1.3360   11.7608   -5.9881 H   0  0  0  0  0  0  0  0  0  0  0  0
    2.3683   10.5796   -3.4277 H   0  0  0  0  0  0  0  0  0  0  0  0
   -0.5670   10.2191   -4.0371 H   0  0  0  0  0  0  0  0  0  0  0  0
    0.6671    8.9635   -4.5308 H   0  0  0  0  0  0  0  0  0  0  0  0
    0.9262    8.2078   -2.4474 H   0  0  0  0  0  0  0  0  0  0  0  0
    0.8931    9.8786   -1.7438 H   0  0  0  0  0  0  0  0  0  0  0  0
   -1.0477    7.9749   -2.4432 H   0  0  0  0  0  0  0  0  0  0  0  0
   -0.8938    9.9183    1.3971 H   0  0  0  0  0  0  0  0  0  0  0  0
    0.4390    9.8450    0.1950 H   0  0  0  0  0  0  0  0  0  0  0  0
   -0.6949   11.2382    0.1950 H   0  0  0  0  0  0  0  0  0  0  0  0
   -2.6345    8.7925    1.1044 H   0  0  0  0  0  0  0  0  0  0  0  0
   -3.6110    9.2764   -0.3235 H   0  0  0  0  0  0  0  0  0  0  0  0
   -2.7364    7.7074   -0.3235 H   0  0  0  0  0  0  0  0  0  0  0  0
    1.2555   12.8507   -4.3738 H   0  0  0  0  0  0  0  0  0  0  0  0
   -1.1264   12.5423   -4.1121 H   0  0  0  0  0  0  0  0  0  0  0  0
   -0.9051   11.1545   -3.0247 H   0  0  0  0  0  0  0  0  0  0  0  0
   -1.6493   13.7933   -2.2196 H   0  0  0  0  0  0  0  0  0  0  0  0
   -1.0725   12.5493   -1.1137 H   0  0  0  0  0  0  0  0  0  0  0  0
    0.3486   16.0138   -2.4054 H   0  0  0  0  0  0  0  0  0  0  0  0
    1.3247   15.0332   -3.5509 H   0  0  0  0  0  0  0  0  0  0  0  0
   -0.4663   14.8957   -3.5509 H   0  0  0  0  0  0  0  0  0  0  0  0
    0.6964   13.5596    0.1954 H   0  0  0  0  0  0  0  0  0  0  0  0
   -1.1798   15.2432   -0.3367 H   0  0  0  0  0  0  0  0  0  0  0  0
   -0.1672   15.3967    1.1934 H   0  0  0  0  0  0  0  0  0  0  0  0
   -0.6957   17.6388   -0.0851 H   0  0  0  0  0  0  0  0  0  0  0  0
    2.6766   16.2884   -1.8454 H   0  0  0  0  0  0  0  0  0  0  0  0
    3.5934   17.2271    0.9430 H   0  0  0  0  0  0  0  0  0  0  0  0
    4.6321   16.4958   -0.3599 H   0  0  0  0  0  0  0  0  0  0  0  0
    4.8928   18.9522   -0.2226 H   0  0  0  0  0  0  0  0  0  0  0  0
    4.2147   18.4007   -1.8047 H   0  0  0  0  0  0  0  0  0  0  0  0
    3.0151   20.3514   -1.0903 H   0  0  0  0  0  0  0  0  0  0  0  0
    3.4140   20.1950    1.1590 H   0  0  0  0  0  0  0  0  0  0  0  0
    2.6244   18.8934   -2.9870 H   0  0  0  0  0  0  0  0  0  0  0  0
    1.1227   17.9105   -3.0594 H   0  0  0  0  0  0  0  0  0  0  0  0
    1.0230   19.7040   -3.0594 H   0  0  0  0  0  0  0  0  0  0  0  0
    0.2595   19.8485    0.3554 H   0  0  0  0  0  0  0  0  0  0  0  0
    0.5328   20.7858   -1.1524 H   0  0  0  0  0  0  0  0  0  0  0  0
   -0.6059   19.3965   -1.1524 H   0  0  0  0  0  0  0  0  0  0  0  0
    1.6792   15.0998    1.8507 H   0  0  0  0  0  0  0  0  0  0  0  0
    2.9652   13.8828    1.5476 H   0  0  0  0  0  0  0  0  0  0  0  0
    3.3674   15.6335    1.5476 H   0  0  0  0  0  0  0  0  0  0  0  0
    4.2707   14.5917   -1.1007 H   0  0  0  0  0  0  0  0  0  0  0  0
    3.4631   13.1523   -0.2571 H   0  0  0  0  0  0  0  0  0  0  0  0
    2.9377   14.1870   -3.0564 H   0  0  0  0  0  0  0  0  0  0  0  0
    3.6666   12.6113   -2.5539 H   0  0  0  0  0  0  0  0  0  0  0  0
    1.5888   12.0107   -0.1506 H   0  0  0  0  0  0  0  0  0  0  0  0
    0.7474   10.9323   -1.3150 H   0  0  0  0  0  0  0  0  0  0  0  0
    2.5411   11.0288   -1.3150 H   0  0  0  0  0  0  0  0  0  0  0  0
  1  2  1  0
  2  3  1  0
  3  4  1  0
  4  5  1  0
  5  6  1  0
  6  7  1  0
  7  8  1  0
  7  9  1  0
  2 10  1  0
 10 11  1  0
 11 12  1  0
 12 13  1  0
 13 14  1  6
 13 15  1  0
 15 16  1  0
 16 17  1  0
 17 18  2  0
 18 19  1  0
 19 20  1  0
 20 21  1  0
 21 22  1  0
 22 23  1  0
 22 24  1  0
 24 25  1  0
 24 26  1  0
 19 27  1  0
 27 28  1  1
 27 29  1  0
 29 30  1  0
 30 31  1  0
 31 32  1  1
  7  5  1  0
 31 10  1  0
 31 13  1  0
 27 15  1  0
 24 18  1  0
  1 33  1  0
  1 34  1  0
  1 35  1  0
  2 36  1  1
  3 37  1  0
  3 38  1  0
  4 39  1  0
  4 40  1  0
  5 41  1  6
  8 42  1  0
  8 43  1  0
  8 44  1  0
  9 45  1  0
  9 46  1  0
  9 47  1  0
 10 48  1  6
 11 49  1  0
 11 50  1  0
 12 51  1  0
 12 52  1  0
 14 53  1  0
 14 54  1  0
 14 55  1  0
 15 56  1  1
 16 57  1  0
 16 58  1  0
 17 59  1  0
 19 60  1  6
 20 61  1  0
 20 62  1  0
 21 63  1  0
 21 64  1  0
 22 65  1  6
 23 66  1  0
 25 67  1  0
 25 68  1  0
 25 69  1  0
 26 70  1  0
 26 71  1  0
 26 72  1  0
 28 73  1  0
 28 74  1  0
 28 75  1  0
 29 76  1  0
 29 77  1  0
 30 78  1  0
 30 79  1  0
 32 80  1  0
 32 81  1  0
 32 82  1  0
M  END
>  <meeko>  (16) 
{"is_sidechain": [false], "intermolecular_energy": 2.731, "internal_energy": -0.839}

$$$$
EPH_relaxed_0001_pdb2pqr_Repair_118_r2_0001_out
     RDKit          3D

 82 86  0  0  0  0  0  0  0  0999 V2000
    2.5270   14.0730   -0.9080 C   0  0  0  0  0  0  0  0  0  0  0  0
    2.0210   12.7100   -1.3880 C   0  0  2  0  0  0  0  0  0  0  0  0
    2.7190   11.5430   -0.6610 C   0  0  0  0  0  0  0  0  0  0  0  0
    1.7470   10.5390   -0.0350 C   0  0  0  0  0  0  0  0  0  0  0  0
    0.3350   11.0410   -0.0650 C   0  0  2  0  0  0  0  0  0  0  0  0
   -0.6090   10.2130    0.6260 O   0  0  0  0  0  0  0  0  0  0  0  0
   -0.7900   10.3310   -0.7940 C   0  0  0  0  0  0  0  0  0  0  0  0
   -0.5520    9.0580   -1.5450 C   0  0  0  0  0  0  0  0  0  0  0  0
   -2.0000   11.1200   -1.1850 C   0  0  0  0  0  0  0  0  0  0  0  0
    2.2230   12.5810   -2.8930 C   0  0  1  0  0  0  0  0  0  0  0  0
    2.0530   11.1220   -3.3960 C   0  0  0  0  0  0  0  0  0  0  0  0
    1.4090   11.2060   -4.8030 C   0  0  0  0  0  0  0  0  0  0  0  0
    1.5350   12.6960   -5.2010 C   0  0  1  0  0  0  0  0  0  0  0  0
    2.9980   12.8490   -5.7230 C   0  0  0  0  0  0  0  0  0  0  0  0
    0.4920   13.2230   -6.2400 C   0  0  2  0  0  0  0  0  0  0  0  0
    0.5510   12.5500   -7.6230 C   0  0  0  0  0  0  0  0  0  0  0  0
    1.4530   13.2070   -8.6140 C   0  0  0  0  0  0  0  0  0  0  0  0
    1.9660   14.4470   -8.5040 C   0  0  0  0  0  0  0  0  0  0  0  0
    1.5700   15.3620   -7.3380 C   0  0  1  0  0  0  0  0  0  0  0  0
    1.2360   16.7770   -7.8810 C   0  0  0  0  0  0  0  0  0  0  0  0
    2.3650   17.3610   -8.7240 C   0  0  0  0  0  0  0  0  0  0  0  0
    2.6900   16.4510   -9.9060 C   0  0  2  0  0  0  0  0  0  0  0  0
    1.5740   16.4410  -10.8010 O   0  0  0  0  0  0  0  0  0  0  0  0
    3.0340   14.9960   -9.4820 C   0  0  0  0  0  0  0  0  0  0  0  0
    4.4070   14.9720   -8.7660 C   0  0  0  0  0  0  0  0  0  0  0  0
    3.2020   14.1500  -10.7730 C   0  0  0  0  0  0  0  0  0  0  0  0
    0.4450   14.8000   -6.3670 C   0  0  1  0  0  0  0  0  0  0  0  0
   -0.9670   15.1590   -6.9230 C   0  0  0  0  0  0  0  0  0  0  0  0
    0.5670   15.5160   -4.9700 C   0  0  0  0  0  0  0  0  0  0  0  0
    1.5220   14.8790   -3.9440 C   0  0  0  0  0  0  0  0  0  0  0  0
    1.2610   13.3750   -3.8110 C   0  0  2  0  0  0  0  0  0  0  0  0
   -0.1970   13.1900   -3.2660 C   0  0  0  0  0  0  0  0  0  0  0  0
    2.5350   14.0946    0.1918 H   0  0  0  0  0  0  0  0  0  0  0  0
    3.5468   14.2392   -1.2855 H   0  0  0  0  0  0  0  0  0  0  0  0
    1.8628   14.8644   -1.2855 H   0  0  0  0  0  0  0  0  0  0  0  0
    0.9484   12.6529   -1.1507 H   0  0  0  0  0  0  0  0  0  0  0  0
    3.3501   11.0093   -1.3869 H   0  0  0  0  0  0  0  0  0  0  0  0
    3.3039   11.9803    0.1616 H   0  0  0  0  0  0  0  0  0  0  0  0
    1.8012    9.5938   -0.5951 H   0  0  0  0  0  0  0  0  0  0  0  0
    2.0361   10.3918    1.0161 H   0  0  0  0  0  0  0  0  0  0  0  0
    0.6815   12.0849   -0.0813 H   0  0  0  0  0  0  0  0  0  0  0  0
   -0.3981    8.2348   -0.8318 H   0  0  0  0  0  0  0  0  0  0  0  0
   -1.4244    8.8368   -2.1775 H   0  0  0  0  0  0  0  0  0  0  0  0
    0.3413    9.1670   -2.1775 H   0  0  0  0  0  0  0  0  0  0  0  0
   -2.5234   11.4613   -0.2797 H   0  0  0  0  0  0  0  0  0  0  0  0
   -1.6924   11.9917   -1.7813 H   0  0  0  0  0  0  0  0  0  0  0  0
   -2.6736   10.4870   -1.7813 H   0  0  0  0  0  0  0  0  0  0  0  0
    3.2425   12.9854   -2.9767 H   0  0  0  0  0  0  0  0  0  0  0  0
    3.0328   10.6258   -3.4570 H   0  0  0  0  0  0  0  0  0  0  0  0
    1.4240   10.5380   -2.7081 H   0  0  0  0  0  0  0  0  0  0  0  0
    1.9494   10.5664   -5.5163 H   0  0  0  0  0  0  0  0  0  0  0  0
    0.3648   10.8602   -4.8054 H   0  0  0  0  0  0  0  0  0  0  0  0
    3.6866   12.9210   -4.8682 H   0  0  0  0  0  0  0  0  0  0  0  0
    3.2626   11.9736   -6.3343 H   0  0  0  0  0  0  0  0  0  0  0  0
    3.0758   13.7602   -6.3343 H   0  0  0  0  0  0  0  0  0  0  0  0
   -0.4638   12.9089   -5.7954 H   0  0  0  0  0  0  0  0  0  0  0  0
    0.8965   11.5151   -7.4829 H   0  0  0  0  0  0  0  0  0  0  0  0
   -0.4641   12.6231   -8.0404 H   0  0  0  0  0  0  0  0  0  0  0  0
    1.7216   12.6290   -9.5106 H   0  0  0  0  0  0  0  0  0  0  0  0
    2.4491   15.4128   -6.6788 H   0  0  0  0  0  0  0  0  0  0  0  0
    0.3300   16.7119   -8.5014 H   0  0  0  0  0  0  0  0  0  0  0  0
    1.0874   17.4402   -7.0161 H   0  0  0  0  0  0  0  0  0  0  0  0
    2.0585   18.3473   -9.1026 H   0  0  0  0  0  0  0  0  0  0  0  0
    3.2622   17.4526   -8.0943 H   0  0  0  0  0  0  0  0  0  0  0  0
    3.5879   16.8550  -10.3964 H   0  0  0  0  0  0  0  0  0  0  0  0
    1.2320   17.3490  -10.8540 H   0  0  0  0  0  0  0  0  0  0  0  0
    4.2527   14.9747   -7.6769 H   0  0  0  0  0  0  0  0  0  0  0  0
    4.9561   14.0641   -9.0563 H   0  0  0  0  0  0  0  0  0  0  0  0
    4.9875   15.8601   -9.0563 H   0  0  0  0  0  0  0  0  0  0  0  0
    3.4096   13.1044  -10.5017 H   0  0  0  0  0  0  0  0  0  0  0  0
    2.2767   14.1982  -11.3660 H   0  0  0  0  0  0  0  0  0  0  0  0
    4.0386   14.5481  -11.3660 H   0  0  0  0  0  0  0  0  0  0  0  0
   -1.6574   15.3345   -6.0848 H   0  0  0  0  0  0  0  0  0  0  0  0
   -0.8985   16.0683   -7.5382 H   0  0  0  0  0  0  0  0  0  0  0  0
   -1.3411   14.3274   -7.5382 H   0  0  0  0  0  0  0  0  0  0  0  0
    0.9124   16.5443   -5.1523 H   0  0  0  0  0  0  0  0  0  0  0  0
   -0.4332   15.4385   -4.5188 H   0  0  0  0  0  0  0  0  0  0  0  0
    2.5599   15.0363   -4.2726 H   0  0  0  0  0  0  0  0  0  0  0  0
    1.3516   15.3522   -2.9657 H   0  0  0  0  0  0  0  0  0  0  0  0
   -0.1803   13.1921   -2.1661 H   0  0  0  0  0  0  0  0  0  0  0  0
   -0.8300   14.0150   -3.6247 H   0  0  0  0  0  0  0  0  0  0  0  0
   -0.6039   12.2330   -3.6247 H   0  0  0  0  0  0  0  0  0  0  0  0
  1  2  1  0
  2  3  1  0
  3  4  1  0
  4  5  1  0
  5  6  1  0
  6  7  1  0
  7  8  1  0
  7  9  1  0
  2 10  1  0
 10 11  1  0
 11 12  1  0
 12 13  1  0
 13 14  1  6
 13 15  1  0
 15 16  1  0
 16 17  1  0
 17 18  2  0
 18 19  1  0
 19 20  1  0
 20 21  1  0
 21 22  1  0
 22 23  1  0
 22 24  1  0
 24 25  1  0
 24 26  1  0
 19 27  1  0
 27 28  1  6
 27 29  1  0
 29 30  1  0
 30 31  1  0
 31 32  1  1
  7  5  1  0
 31 10  1  0
 31 13  1  0
 27 15  1  0
 24 18  1  0
  1 33  1  0
  1 34  1  0
  1 35  1  0
  2 36  1  6
  3 37  1  0
  3 38  1  0
  4 39  1  0
  4 40  1  0
  5 41  1  1
  8 42  1  0
  8 43  1  0
  8 44  1  0
  9 45  1  0
  9 46  1  0
  9 47  1  0
 10 48  1  1
 11 49  1  0
 11 50  1  0
 12 51  1  0
 12 52  1  0
 14 53  1  0
 14 54  1  0
 14 55  1  0
 15 56  1  1
 16 57  1  0
 16 58  1  0
 17 59  1  0
 19 60  1  1
 20 61  1  0
 20 62  1  0
 21 63  1  0
 21 64  1  0
 22 65  1  6
 23 66  1  0
 25 67  1  0
 25 68  1  0
 25 69  1  0
 26 70  1  0
 26 71  1  0
 26 72  1  0
 28 73  1  0
 28 74  1  0
 28 75  1  0
 29 76  1  0
 29 77  1  0
 30 78  1  0
 30 79  1  0
 32 80  1  0
 32 81  1  0
 32 82  1  0
M  END
>  <meeko>  (17) 
{"is_sidechain": [false], "intermolecular_energy": 2.731, "internal_energy": -0.839}

$$$$
EPH_relaxed_0001_pdb2pqr_Repair_118_r2_0001_out
     RDKit          3D

 82 86  0  0  0  0  0  0  0  0999 V2000
    4.6410   11.9760   -4.2110 C   0  0  0  0  0  0  0  0  0  0  0  0
    3.3270   11.5590   -4.8780 C   0  0  2  0  0  0  0  0  0  0  0  0
    2.5400   12.7700   -5.4170 C   0  0  0  0  0  0  0  0  0  0  0  0
    1.9280   12.5390   -6.8010 C   0  0  0  0  0  0  0  0  0  0  0  0
    1.1560   13.7340   -7.2730 C   0  0  2  0  0  0  0  0  0  0  0  0
    0.2290   13.4690   -8.3340 O   0  0  0  0  0  0  0  0  0  0  0  0
    1.3210   14.3470   -8.6510 C   0  0  0  0  0  0  0  0  0  0  0  0
    2.2870   13.7820   -9.6450 C   0  0  0  0  0  0  0  0  0  0  0  0
    0.9090   15.7710   -8.8550 C   0  0  0  0  0  0  0  0  0  0  0  0
    2.4680   10.7770   -3.8910 C   0  0  1  0  0  0  0  0  0  0  0  0
    3.3150    9.9750   -2.8670 C   0  0  0  0  0  0  0  0  0  0  0  0
    2.5340    9.9930   -1.5280 C   0  0  0  0  0  0  0  0  0  0  0  0
    1.1260   10.5100   -1.9060 C   0  0  1  0  0  0  0  0  0  0  0  0
    0.3780    9.2620   -2.4700 C   0  0  0  0  0  0  0  0  0  0  0  0
    0.3140   11.2010   -0.7620 C   0  0  2  0  0  0  0  0  0  0  0  0
   -0.0230   10.2970    0.4370 C   0  0  0  0  0  0  0  0  0  0  0  0
   -1.3210    9.5660    0.3390 C   0  0  0  0  0  0  0  0  0  0  0  0
   -2.3120    9.8440   -0.5280 C   0  0  0  0  0  0  0  0  0  0  0  0
   -2.2200   11.0530   -1.4690 C   0  0  1  0  0  0  0  0  0  0  0  0
   -3.5600   11.8340   -1.4420 C   0  0  0  0  0  0  0  0  0  0  0  0
   -4.7610   10.9450   -1.7500 C   0  0  0  0  0  0  0  0  0  0  0  0
   -4.8520    9.7880   -0.7590 C   0  0  2  0  0  0  0  0  0  0  0  0
   -5.1500   10.3140    0.5380 O   0  0  0  0  0  0  0  0  0  0  0  0
   -3.5550    8.9350   -0.6920 C   0  0  0  0  0  0  0  0  0  0  0  0
   -3.3960    8.1250   -2.0030 C   0  0  0  0  0  0  0  0  0  0  0  0
   -3.7280    7.8910    0.4440 C   0  0  0  0  0  0  0  0  0  0  0  0
   -0.9590   11.9980   -1.2610 C   0  0  1  0  0  0  0  0  0  0  0  0
   -1.2700   13.0680   -0.1700 C   0  0  0  0  0  0  0  0  0  0  0  0
   -0.6850   12.7900   -2.5940 C   0  0  0  0  0  0  0  0  0  0  0  0
    0.2220   12.1050   -3.6350 C   0  0  0  0  0  0  0  0  0  0  0  0
    1.5090   11.5880   -2.9840 C   0  0  2  0  0  0  0  0  0  0  0  0
    2.2930   12.8240   -2.4270 C   0  0  0  0  0  0  0  0  0  0  0  0
    4.5251   11.9392   -3.1177 H   0  0  0  0  0  0  0  0  0  0  0  0
    5.4425   11.2881   -4.5181 H   0  0  0  0  0  0  0  0  0  0  0  0
    4.8992   13.0002   -4.5181 H   0  0  0  0  0  0  0  0  0  0  0  0
    3.5801   10.9206   -5.7373 H   0  0  0  0  0  0  0  0  0  0  0  0
    1.7274   12.9981   -4.7115 H   0  0  0  0  0  0  0  0  0  0  0  0
    3.2550   13.6001   -5.5159 H   0  0  0  0  0  0  0  0  0  0  0  0
    2.7361   12.3309   -7.5178 H   0  0  0  0  0  0  0  0  0  0  0  0
    1.2339   11.6885   -6.7311 H   0  0  0  0  0  0  0  0  0  0  0  0
    1.1733   14.1715   -6.2639 H   0  0  0  0  0  0  0  0  0  0  0  0
    3.1181   13.2959   -9.1131 H   0  0  0  0  0  0  0  0  0  0  0  0
    1.7729   13.0422  -10.2762 H   0  0  0  0  0  0  0  0  0  0  0  0
    2.6798   14.5927  -10.2762 H   0  0  0  0  0  0  0  0  0  0  0  0
    0.7688   16.2557   -7.8776 H   0  0  0  0  0  0  0  0  0  0  0  0
    1.6905   16.3016   -9.4187 H   0  0  0  0  0  0  0  0  0  0  0  0
   -0.0351   15.8024   -9.4187 H   0  0  0  0  0  0  0  0  0  0  0  0
    1.8891   10.1632   -4.5968 H   0  0  0  0  0  0  0  0  0  0  0  0
    3.4480    8.9396   -3.2139 H   0  0  0  0  0  0  0  0  0  0  0  0
    4.3141   10.4193   -2.7472 H   0  0  0  0  0  0  0  0  0  0  0  0
    2.4744    8.9817   -1.0993 H   0  0  0  0  0  0  0  0  0  0  0  0
    3.0206   10.6233   -0.7691 H   0  0  0  0  0  0  0  0  0  0  0  0
    0.0095    8.6473   -1.6355 H   0  0  0  0  0  0  0  0  0  0  0  0
   -0.4718    9.5912   -3.0860 H   0  0  0  0  0  0  0  0  0  0  0  0
    1.0690    8.6678   -3.0860 H   0  0  0  0  0  0  0  0  0  0  0  0
    1.0286   11.9462   -0.3825 H   0  0  0  0  0  0  0  0  0  0  0  0
    0.7800    9.5520    0.5373 H   0  0  0  0  0  0  0  0  0  0  0  0
   -0.1147   10.9653    1.3059 H   0  0  0  0  0  0  0  0  0  0  0  0
   -1.4810    8.7290    1.0346 H   0  0  0  0  0  0  0  0  0  0  0  0
   -2.0477   10.6430   -2.4751 H   0  0  0  0  0  0  0  0  0  0  0  0
   -3.6928   12.2722   -0.4418 H   0  0  0  0  0  0  0  0  0  0  0  0
   -3.5103   12.6098   -2.2202 H   0  0  0  0  0  0  0  0  0  0  0  0
   -5.6798   11.5465   -1.6864 H   0  0  0  0  0  0  0  0  0  0  0  0
   -4.6411   10.5315   -2.7622 H   0  0  0  0  0  0  0  0  0  0  0  0
   -5.6505    9.1168   -1.1083 H   0  0  0  0  0  0  0  0  0  0  0  0
   -4.8700   11.2450    0.5490 H   0  0  0  0  0  0  0  0  0  0  0  0
   -3.1893    7.0721   -1.7607 H   0  0  0  0  0  0  0  0  0  0  0  0
   -4.3242    8.1909   -2.5896 H   0  0  0  0  0  0  0  0  0  0  0  0
   -2.5616    8.5369   -2.5896 H   0  0  0  0  0  0  0  0  0  0  0  0
   -3.6448    8.3931    1.4192 H   0  0  0  0  0  0  0  0  0  0  0  0
   -4.7169    7.4169    0.3588 H   0  0  0  0  0  0  0  0  0  0  0  0
   -2.9448    7.1233    0.3588 H   0  0  0  0  0  0  0  0  0  0  0  0
   -1.1406   12.6229    0.8276 H   0  0  0  0  0  0  0  0  0  0  0  0
   -0.5819   13.9186   -0.2840 H   0  0  0  0  0  0  0  0  0  0  0  0
   -2.3068   13.4173   -0.2840 H   0  0  0  0  0  0  0  0  0  0  0  0
   -1.6565   12.9811   -3.0733 H   0  0  0  0  0  0  0  0  0  0  0  0
   -0.1380   13.6930   -2.2852 H   0  0  0  0  0  0  0  0  0  0  0  0
   -0.3197   11.2590   -4.0833 H   0  0  0  0  0  0  0  0  0  0  0  0
    0.4902   12.8421   -4.4062 H   0  0  0  0  0  0  0  0  0  0  0  0
    2.2790   12.8019   -1.3273 H   0  0  0  0  0  0  0  0  0  0  0  0
    3.3338   12.7880   -2.7812 H   0  0  0  0  0  0  0  0  0  0  0  0
    1.8169   13.7502   -2.7812 H   0  0  0  0  0  0  0  0  0  0  0  0
  1  2  1  0
  2  3  1  0
  3  4  1  0
  4  5  1  0
  5  6  1  0
  6  7  1  0
  7  8  1  0
  7  9  1  0
  2 10  1  0
 10 11  1  0
 11 12  1  0
 12 13  1  0
 13 14  1  6
 13 15  1  0
 15 16  1  0
 16 17  1  0
 17 18  2  0
 18 19  1  0
 19 20  1  0
 20 21  1  0
 21 22  1  0
 22 23  1  0
 22 24  1  0
 24 25  1  0
 24 26  1  0
 19 27  1  0
 27 28  1  1
 27 29  1  0
 29 30  1  0
 30 31  1  0
 31 32  1  1
  7  5  1  0
 31 10  1  0
 31 13  1  0
 27 15  1  0
 24 18  1  0
  1 33  1  0
  1 34  1  0
  1 35  1  0
  2 36  1  6
  3 37  1  0
  3 38  1  0
  4 39  1  0
  4 40  1  0
  5 41  1  1
  8 42  1  0
  8 43  1  0
  8 44  1  0
  9 45  1  0
  9 46  1  0
  9 47  1  0
 10 48  1  6
 11 49  1  0
 11 50  1  0
 12 51  1  0
 12 52  1  0
 14 53  1  0
 14 54  1  0
 14 55  1  0
 15 56  1  1
 16 57  1  0
 16 58  1  0
 17 59  1  0
 19 60  1  6
 20 61  1  0
 20 62  1  0
 21 63  1  0
 21 64  1  0
 22 65  1  6
 23 66  1  0
 25 67  1  0
 25 68  1  0
 25 69  1  0
 26 70  1  0
 26 71  1  0
 26 72  1  0
 28 73  1  0
 28 74  1  0
 28 75  1  0
 29 76  1  0
 29 77  1  0
 30 78  1  0
 30 79  1  0
 32 80  1  0
 32 81  1  0
 32 82  1  0
M  END
>  <meeko>  (18) 
{"is_sidechain": [false], "intermolecular_energy": 2.731, "internal_energy": -0.839}

$$$$
EPH_relaxed_0001_pdb2pqr_Repair_118_r2_0001_out
     RDKit          3D

 82 86  0  0  0  0  0  0  0  0999 V2000
  -14.3720    5.4610    0.4010 C   0  0  0  0  0  0  0  0  0  0  0  0
  -13.8330    6.8850    0.2410 C   0  0  2  0  0  0  0  0  0  0  0  0
  -14.9510    7.8960   -0.0860 C   0  0  0  0  0  0  0  0  0  0  0  0
  -14.5640    9.3520    0.1880 C   0  0  0  0  0  0  0  0  0  0  0  0
  -15.2840   10.2980   -0.7250 C   0  0  2  0  0  0  0  0  0  0  0  0
  -15.2220    9.9530   -2.1150 O   0  0  0  0  0  0  0  0  0  0  0  0
  -14.5810   11.1820   -1.7380 C   0  0  0  0  0  0  0  0  0  0  0  0
  -13.0920   11.1620   -1.8890 C   0  0  0  0  0  0  0  0  0  0  0  0
  -15.2860   12.4060   -2.2310 C   0  0  0  0  0  0  0  0  0  0  0  0
  -12.7670    6.9180   -0.8480 C   0  0  1  0  0  0  0  0  0  0  0  0
  -13.1340    7.8720   -2.0160 C   0  0  0  0  0  0  0  0  0  0  0  0
  -11.8080    8.5010   -2.5140 C   0  0  0  0  0  0  0  0  0  0  0  0
  -10.6990    7.6490   -1.8510 C   0  0  1  0  0  0  0  0  0  0  0  0
  -10.5800    6.3770   -2.7470 C   0  0  0  0  0  0  0  0  0  0  0  0
   -9.3150    8.3490   -1.6550 C   0  0  2  0  0  0  0  0  0  0  0  0
   -8.6100    8.7770   -2.9540 C   0  0  0  0  0  0  0  0  0  0  0  0
   -7.6950    7.7590   -3.5480 C   0  0  0  0  0  0  0  0  0  0  0  0
   -7.2280    6.6650   -2.9190 C   0  0  0  0  0  0  0  0  0  0  0  0
   -7.5400    6.4150   -1.4380 C   0  0  1  0  0  0  0  0  0  0  0  0
   -6.2400    6.0050   -0.6970 C   0  0  0  0  0  0  0  0  0  0  0  0
   -5.5410    4.8180   -1.3550 C   0  0  0  0  0  0  0  0  0  0  0  0
   -5.1960    5.1270   -2.8090 C   0  0  2  0  0  0  0  0  0  0  0  0
   -4.2040    6.1580   -2.8390 O   0  0  0  0  0  0  0  0  0  0  0  0
   -6.4270    5.5610   -3.6530 C   0  0  0  0  0  0  0  0  0  0  0  0
   -7.3620    4.3460   -3.8730 C   0  0  0  0  0  0  0  0  0  0  0  0
   -5.9190    5.9780   -5.0590 C   0  0  0  0  0  0  0  0  0  0  0  0
   -8.3280    7.5740   -0.6900 C   0  0  1  0  0  0  0  0  0  0  0  0
   -7.3230    8.6310   -0.1390 C   0  0  0  0  0  0  0  0  0  0  0  0
   -9.0670    6.9690    0.5620 C   0  0  0  0  0  0  0  0  0  0  0  0
  -10.4800    6.4010    0.3270 C   0  0  0  0  0  0  0  0  0  0  0  0
  -11.3510    7.3990   -0.4420 C   0  0  2  0  0  0  0  0  0  0  0  0
  -11.5070    8.6810    0.4450 C   0  0  0  0  0  0  0  0  0  0  0  0
  -14.4627    5.2213    1.4707 H   0  0  0  0  0  0  0  0  0  0  0  0
  -15.3603    5.3872   -0.0764 H   0  0  0  0  0  0  0  0  0  0  0  0
  -13.6803    4.7513   -0.0764 H   0  0  0  0  0  0  0  0  0  0  0  0
  -13.3908    7.1813    1.2036 H   0  0  0  0  0  0  0  0  0  0  0  0
  -15.2060    7.7991   -1.1517 H   0  0  0  0  0  0  0  0  0  0  0  0
  -15.8003    7.6599    0.5720 H   0  0  0  0  0  0  0  0  0  0  0  0
  -14.8183    9.5986    1.2294 H   0  0  0  0  0  0  0  0  0  0  0  0
  -13.4838    9.4591    0.0102 H   0  0  0  0  0  0  0  0  0  0  0  0
  -16.0305   10.5167    0.0528 H   0  0  0  0  0  0  0  0  0  0  0  0
  -12.6226   11.1557   -0.8942 H   0  0  0  0  0  0  0  0  0  0  0  0
  -12.7916   10.2597   -2.4419 H   0  0  0  0  0  0  0  0  0  0  0  0
  -12.7675   12.0559   -2.4419 H   0  0  0  0  0  0  0  0  0  0  0  0
  -15.6294   13.0021   -1.3727 H   0  0  0  0  0  0  0  0  0  0  0  0
  -14.5952   13.0062   -2.8414 H   0  0  0  0  0  0  0  0  0  0  0  0
  -16.1518   12.1096   -2.8414 H   0  0  0  0  0  0  0  0  0  0  0  0
  -12.7410    5.8506   -1.1126 H   0  0  0  0  0  0  0  0  0  0  0  0
  -13.6143    7.3079   -2.8290 H   0  0  0  0  0  0  0  0  0  0  0  0
  -13.8392    8.6485   -1.6847 H   0  0  0  0  0  0  0  0  0  0  0  0
  -11.7386    8.4437   -3.6103 H   0  0  0  0  0  0  0  0  0  0  0  0
  -11.7277    9.5666   -2.2531 H   0  0  0  0  0  0  0  0  0  0  0  0
  -10.4966    5.4852   -2.1085 H   0  0  0  0  0  0  0  0  0  0  0  0
  -11.4740    6.2909   -3.3821 H   0  0  0  0  0  0  0  0  0  0  0  0
   -9.6855    6.4582   -3.3821 H   0  0  0  0  0  0  0  0  0  0  0  0
   -9.5932    9.2830   -1.1449 H   0  0  0  0  0  0  0  0  0  0  0  0
   -9.3842    9.0138   -3.6987 H   0  0  0  0  0  0  0  0  0  0  0  0
   -7.9771    9.6364   -2.6877 H   0  0  0  0  0  0  0  0  0  0  0  0
   -7.3750    7.9162   -4.5886 H   0  0  0  0  0  0  0  0  0  0  0  0
   -8.2608    5.5844   -1.4155 H   0  0  0  0  0  0  0  0  0  0  0  0
   -5.5508    6.8623   -0.6933 H   0  0  0  0  0  0  0  0  0  0  0  0
   -6.5180    5.7048    0.3241 H   0  0  0  0  0  0  0  0  0  0  0  0
   -4.6150    4.5950   -0.8047 H   0  0  0  0  0  0  0  0  0  0  0  0
   -6.2199    3.9529   -1.3311 H   0  0  0  0  0  0  0  0  0  0  0  0
   -4.8177    4.1987   -3.2619 H   0  0  0  0  0  0  0  0  0  0  0  0
   -4.6590    6.9980   -3.0190 H   0  0  0  0  0  0  0  0  0  0  0  0
   -7.6732    3.9416   -2.8985 H   0  0  0  0  0  0  0  0  0  0  0  0
   -8.2502    4.6645   -4.4384 H   0  0  0  0  0  0  0  0  0  0  0  0
   -6.8266    3.5690   -4.4384 H   0  0  0  0  0  0  0  0  0  0  0  0
   -5.0728    6.6726   -4.9520 H   0  0  0  0  0  0  0  0  0  0  0  0
   -5.5922    5.0843   -5.6108 H   0  0  0  0  0  0  0  0  0  0  0  0
   -6.7319    6.4727   -5.6108 H   0  0  0  0  0  0  0  0  0  0  0  0
   -7.3392    8.6140    0.9607 H   0  0  0  0  0  0  0  0  0  0  0  0
   -6.3095    8.3935   -0.4945 H   0  0  0  0  0  0  0  0  0  0  0  0
   -7.6113    9.6313   -0.4945 H   0  0  0  0  0  0  0  0  0  0  0  0
   -8.4419    6.1540    0.9557 H   0  0  0  0  0  0  0  0  0  0  0  0
   -9.2077    7.8155    1.2502 H   0  0  0  0  0  0  0  0  0  0  0  0
  -10.4016    5.4699   -0.2534 H   0  0  0  0  0  0  0  0  0  0  0  0
  -10.9472    6.2075    1.3039 H   0  0  0  0  0  0  0  0  0  0  0  0
  -11.4726    8.3982    1.5075 H   0  0  0  0  0  0  0  0  0  0  0  0
  -10.6874    9.3809    0.2252 H   0  0  0  0  0  0  0  0  0  0  0  0
  -12.4705    9.1640    0.2252 H   0  0  0  0  0  0  0  0  0  0  0  0
  1  2  1  0
  2  3  1  0
  3  4  1  0
  4  5  1  0
  5  6  1  0
  6  7  1  0
  7  8  1  0
  7  9  1  0
  2 10  1  0
 10 11  1  0
 11 12  1  0
 12 13  1  0
 13 14  1  6
 13 15  1  0
 15 16  1  0
 16 17  1  0
 17 18  2  0
 18 19  1  0
 19 20  1  0
 20 21  1  0
 21 22  1  0
 22 23  1  0
 22 24  1  0
 24 25  1  0
 24 26  1  0
 19 27  1  0
 27 28  1  1
 27 29  1  0
 29 30  1  0
 30 31  1  0
 31 32  1  1
  7  5  1  0
 31 10  1  0
 31 13  1  0
 27 15  1  0
 24 18  1  0
  1 33  1  0
  1 34  1  0
  1 35  1  0
  2 36  1  1
  3 37  1  0
  3 38  1  0
  4 39  1  0
  4 40  1  0
  5 41  1  1
  8 42  1  0
  8 43  1  0
  8 44  1  0
  9 45  1  0
  9 46  1  0
  9 47  1  0
 10 48  1  6
 11 49  1  0
 11 50  1  0
 12 51  1  0
 12 52  1  0
 14 53  1  0
 14 54  1  0
 14 55  1  0
 15 56  1  1
 16 57  1  0
 16 58  1  0
 17 59  1  0
 19 60  1  6
 20 61  1  0
 20 62  1  0
 21 63  1  0
 21 64  1  0
 22 65  1  6
 23 66  1  0
 25 67  1  0
 25 68  1  0
 25 69  1  0
 26 70  1  0
 26 71  1  0
 26 72  1  0
 28 73  1  0
 28 74  1  0
 28 75  1  0
 29 76  1  0
 29 77  1  0
 30 78  1  0
 30 79  1  0
 32 80  1  0
 32 81  1  0
 32 82  1  0
M  END
>  <meeko>  (19) 
{"is_sidechain": [false], "intermolecular_energy": 2.731, "internal_energy": -0.839}

$$$$
EPH_relaxed_0001_pdb2pqr_Repair_118_r2_0001_out
     RDKit          3D

 82 86  0  0  0  0  0  0  0  0999 V2000
   -1.8350   14.6950    0.2160 C   0  0  0  0  0  0  0  0  0  0  0  0
   -0.4790   15.4010    0.3090 C   0  0  2  0  0  0  0  0  0  0  0  0
   -0.3740   16.5880   -0.6690 C   0  0  0  0  0  0  0  0  0  0  0  0
    1.0470   17.1380   -0.8190 C   0  0  0  0  0  0  0  0  0  0  0  0
    1.1840   18.4950   -0.1970 C   0  0  2  0  0  0  0  0  0  0  0  0
    2.1540   19.3450   -0.8230 O   0  0  0  0  0  0  0  0  0  0  0  0
    2.4310   18.9590    0.5330 C   0  0  0  0  0  0  0  0  0  0  0  0
    3.6260   18.0690    0.6800 C   0  0  0  0  0  0  0  0  0  0  0  0
    2.3090   20.0810    1.5170 C   0  0  0  0  0  0  0  0  0  0  0  0
    0.6440   14.4060    0.0430 C   0  0  1  0  0  0  0  0  0  0  0  0
    0.8340   13.3940    1.2050 C   0  0  0  0  0  0  0  0  0  0  0  0
    1.2480   12.0460    0.5620 C   0  0  0  0  0  0  0  0  0  0  0  0
    1.6040   12.4050   -0.9000 C   0  0  1  0  0  0  0  0  0  0  0  0
    3.0600   12.9630   -0.8320 C   0  0  0  0  0  0  0  0  0  0  0  0
    1.4780   11.2490   -1.9460 C   0  0  2  0  0  0  0  0  0  0  0  0
    2.4110   10.0490   -1.7080 C   0  0  0  0  0  0  0  0  0  0  0  0
    3.7410   10.1320   -2.3800 C   0  0  0  0  0  0  0  0  0  0  0  0
    4.0660   10.9870   -3.3680 C   0  0  0  0  0  0  0  0  0  0  0  0
    3.0150   11.9250   -3.9750 C   0  0  1  0  0  0  0  0  0  0  0  0
    3.1140   11.8790   -5.5230 C   0  0  0  0  0  0  0  0  0  0  0  0
    4.5220   12.1750   -6.0290 C   0  0  0  0  0  0  0  0  0  0  0  0
    5.5290   11.1860   -5.4480 C   0  0  2  0  0  0  0  0  0  0  0  0
    5.2520    9.8840   -5.9730 O   0  0  0  0  0  0  0  0  0  0  0  0
    5.5150   11.1370   -3.8950 C   0  0  0  0  0  0  0  0  0  0  0  0
    6.1040   12.4520   -3.3270 C   0  0  0  0  0  0  0  0  0  0  0  0
    6.4730   10.0020   -3.4430 C   0  0  0  0  0  0  0  0  0  0  0  0
    1.5270   11.7300   -3.4520 C   0  0  1  0  0  0  0  0  0  0  0  0
    0.8070   10.6330   -4.2940 C   0  0  0  0  0  0  0  0  0  0  0  0
    0.7230   13.0640   -3.6810 C   0  0  0  0  0  0  0  0  0  0  0  0
    0.7920   14.1180   -2.5590 C   0  0  0  0  0  0  0  0  0  0  0  0
    0.5010   13.4850   -1.1950 C   0  0  2  0  0  0  0  0  0  0  0  0
   -0.9650   12.9340   -1.2250 C   0  0  0  0  0  0  0  0  0  0  0  0
   -2.2155   14.4969    1.2289 H   0  0  0  0  0  0  0  0  0  0  0  0
   -2.5465   15.3372   -0.3239 H   0  0  0  0  0  0  0  0  0  0  0  0
   -1.7169   13.7439   -0.3239 H   0  0  0  0  0  0  0  0  0  0  0  0
   -0.3850   15.8041    1.3282 H   0  0  0  0  0  0  0  0  0  0  0  0
   -0.7239   16.2555   -1.6575 H   0  0  0  0  0  0  0  0  0  0  0  0
   -0.9911   17.3999   -0.2566 H   0  0  0  0  0  0  0  0  0  0  0  0
    1.7499   16.4484   -0.3288 H   0  0  0  0  0  0  0  0  0  0  0  0
    1.2684   17.2286   -1.8927 H   0  0  0  0  0  0  0  0  0  0  0  0
    0.1203   18.5000    0.0832 H   0  0  0  0  0  0  0  0  0  0  0  0
    3.8370   17.9119    1.7481 H   0  0  0  0  0  0  0  0  0  0  0  0
    3.4230   17.1003    0.2000 H   0  0  0  0  0  0  0  0  0  0  0  0
    4.4960   18.5410    0.2000 H   0  0  0  0  0  0  0  0  0  0  0  0
    2.3528   19.6782    2.5397 H   0  0  0  0  0  0  0  0  0  0  0  0
    3.1352   20.7916    1.3671 H   0  0  0  0  0  0  0  0  0  0  0  0
    1.3494   20.5974    1.3671 H   0  0  0  0  0  0  0  0  0  0  0  0
    1.4791   15.1068   -0.1036 H   0  0  0  0  0  0  0  0  0  0  0  0
    1.6214   13.7453    1.8881 H   0  0  0  0  0  0  0  0  0  0  0  0
   -0.0920   13.2849    1.7886 H   0  0  0  0  0  0  0  0  0  0  0  0
    2.1194   11.6197    1.0805 H   0  0  0  0  0  0  0  0  0  0  0  0
    0.4501   11.2913    0.6241 H   0  0  0  0  0  0  0  0  0  0  0  0
    3.3599   13.0779    0.2201 H   0  0  0  0  0  0  0  0  0  0  0  0
    3.7446   12.2635   -1.3341 H   0  0  0  0  0  0  0  0  0  0  0  0
    3.1017   13.9408   -1.3341 H   0  0  0  0  0  0  0  0  0  0  0  0
    0.4596   10.8756   -1.7635 H   0  0  0  0  0  0  0  0  0  0  0  0
    2.5824    9.9613   -0.6250 H   0  0  0  0  0  0  0  0  0  0  0  0
    1.9029    9.1772   -2.1458 H   0  0  0  0  0  0  0  0  0  0  0  0
    4.5216    9.4359   -2.0394 H   0  0  0  0  0  0  0  0  0  0  0  0
    3.2625   12.9344   -3.6146 H   0  0  0  0  0  0  0  0  0  0  0  0
    2.8201   10.8758   -5.8653 H   0  0  0  0  0  0  0  0  0  0  0  0
    2.4457   12.6557   -5.9231 H   0  0  0  0  0  0  0  0  0  0  0  0
    4.5339   12.0982   -7.1263 H   0  0  0  0  0  0  0  0  0  0  0  0
    4.8032   13.1900   -5.7117 H   0  0  0  0  0  0  0  0  0  0  0  0
    6.5327   11.5276   -5.7412 H   0  0  0  0  0  0  0  0  0  0  0  0
    5.7780    9.2440   -5.4650 H   0  0  0  0  0  0  0  0  0  0  0  0
    6.0880   12.4162   -2.2277 H   0  0  0  0  0  0  0  0  0  0  0  0
    7.1409   12.5697   -3.6749 H   0  0  0  0  0  0  0  0  0  0  0  0
    5.5015   13.3040   -3.6749 H   0  0  0  0  0  0  0  0  0  0  0  0
    6.5045    9.9647   -2.3441 H   0  0  0  0  0  0  0  0  0  0  0  0
    6.1103    9.0393   -3.8323 H   0  0  0  0  0  0  0  0  0  0  0  0
    7.4830   10.1979   -3.8323 H   0  0  0  0  0  0  0  0  0  0  0  0
    0.3303    9.9068   -3.6192 H   0  0  0  0  0  0  0  0  0  0  0  0
    0.0405   11.1019   -4.9284 H   0  0  0  0  0  0  0  0  0  0  0  0
    1.5422   10.1163   -4.9284 H   0  0  0  0  0  0  0  0  0  0  0  0
    1.1073   13.5306   -4.6000 H   0  0  0  0  0  0  0  0  0  0  0  0
   -0.3331   12.7596   -3.7255 H   0  0  0  0  0  0  0  0  0  0  0  0
    1.7986   14.5613   -2.5428 H   0  0  0  0  0  0  0  0  0  0  0  0
    0.0346   14.8910   -2.7562 H   0  0  0  0  0  0  0  0  0  0  0  0
   -1.3268   12.7980   -0.1951 H   0  0  0  0  0  0  0  0  0  0  0  0
   -1.6149   13.6492   -1.7505 H   0  0  0  0  0  0  0  0  0  0  0  0
   -0.9829   11.9678   -1.7505 H   0  0  0  0  0  0  0  0  0  0  0  0
  1  2  1  0
  2  3  1  0
  3  4  1  0
  4  5  1  0
  5  6  1  0
  6  7  1  0
  7  8  1  0
  7  9  1  0
  2 10  1  0
 10 11  1  0
 11 12  1  0
 12 13  1  0
 13 14  1  1
 13 15  1  0
 15 16  1  0
 16 17  1  0
 17 18  2  0
 18 19  1  0
 19 20  1  0
 20 21  1  0
 21 22  1  0
 22 23  1  0
 22 24  1  0
 24 25  1  0
 24 26  1  0
 19 27  1  0
 27 28  1  6
 27 29  1  0
 29 30  1  0
 30 31  1  0
 31 32  1  6
  7  5  1  0
 31 10  1  0
 31 13  1  0
 27 15  1  0
 24 18  1  0
  1 33  1  0
  1 34  1  0
  1 35  1  0
  2 36  1  1
  3 37  1  0
  3 38  1  0
  4 39  1  0
  4 40  1  0
  5 41  1  1
  8 42  1  0
  8 43  1  0
  8 44  1  0
  9 45  1  0
  9 46  1  0
  9 47  1  0
 10 48  1  6
 11 49  1  0
 11 50  1  0
 12 51  1  0
 12 52  1  0
 14 53  1  0
 14 54  1  0
 14 55  1  0
 15 56  1  1
 16 57  1  0
 16 58  1  0
 17 59  1  0
 19 60  1  1
 20 61  1  0
 20 62  1  0
 21 63  1  0
 21 64  1  0
 22 65  1  1
 23 66  1  0
 25 67  1  0
 25 68  1  0
 25 69  1  0
 26 70  1  0
 26 71  1  0
 26 72  1  0
 28 73  1  0
 28 74  1  0
 28 75  1  0
 29 76  1  0
 29 77  1  0
 30 78  1  0
 30 79  1  0
 32 80  1  0
 32 81  1  0
 32 82  1  0
M  END
>  <meeko>  (20) 
{"is_sidechain": [false], "intermolecular_energy": 2.731, "internal_energy": -0.839}

$$$$
