EPH_relaxed_0001_pdb2pqr_Repair_390_r2_0001_out
     RDKit          3D

 82 86  0  0  0  0  0  0  0  0999 V2000
   -1.6640    8.5800   -1.8690 C   0  0  0  0  0  0  0  0  0  0  0  0
   -2.0390    9.1030   -0.4790 C   0  0  2  0  0  0  0  0  0  0  0  0
   -3.5340    9.4680   -0.3800 C   0  0  0  0  0  0  0  0  0  0  0  0
   -4.4580    8.2520   -0.2690 C   0  0  0  0  0  0  0  0  0  0  0  0
   -5.1320    7.9480   -1.5720 C   0  0  2  0  0  0  0  0  0  0  0  0
   -6.3410    8.6820   -1.8060 O   0  0  0  0  0  0  0  0  0  0  0  0
   -6.4790    7.2570   -1.6760 C   0  0  0  0  0  0  0  0  0  0  0  0
   -7.2320    6.8280   -0.4560 C   0  0  0  0  0  0  0  0  0  0  0  0
   -6.8320    6.5660   -2.9560 C   0  0  0  0  0  0  0  0  0  0  0  0
   -1.1830   10.3160   -0.1330 C   0  0  1  0  0  0  0  0  0  0  0  0
   -0.1410   10.0140    0.9780 C   0  0  0  0  0  0  0  0  0  0  0  0
    1.1220   10.8480    0.6450 C   0  0  0  0  0  0  0  0  0  0  0  0
    0.6560   11.8450   -0.4420 C   0  0  1  0  0  0  0  0  0  0  0  0
   -0.0500   12.9940    0.3430 C   0  0  0  0  0  0  0  0  0  0  0  0
    1.7660   12.3940   -1.3970 C   0  0  2  0  0  0  0  0  0  0  0  0
    2.8710   13.2150   -0.7090 C   0  0  0  0  0  0  0  0  0  0  0  0
    2.6130   14.6830   -0.6200 C   0  0  0  0  0  0  0  0  0  0  0  0
    1.6820   15.3570   -1.3200 C   0  0  0  0  0  0  0  0  0  0  0  0
    0.8320   14.6510   -2.3840 C   0  0  1  0  0  0  0  0  0  0  0  0
    0.7910   15.5160   -3.6710 C   0  0  0  0  0  0  0  0  0  0  0  0
    0.3220   16.9430   -3.4030 C   0  0  0  0  0  0  0  0  0  0  0  0
    1.2260   17.6310   -2.3830 C   0  0  2  0  0  0  0  0  0  0  0  0
    2.5230   17.8080   -2.9620 O   0  0  0  0  0  0  0  0  0  0  0  0
    1.3530   16.8460   -1.0480 C   0  0  0  0  0  0  0  0  0  0  0  0
    0.0120   16.9140   -0.2750 C   0  0  0  0  0  0  0  0  0  0  0  0
    2.4010   17.5740   -0.1630 C   0  0  0  0  0  0  0  0  0  0  0  0
    1.2090   13.1360   -2.6790 C   0  0  1  0  0  0  0  0  0  0  0  0
    2.3340   13.0670   -3.7570 C   0  0  0  0  0  0  0  0  0  0  0  0
   -0.0420   12.4060   -3.2960 C   0  0  0  0  0  0  0  0  0  0  0  0
   -1.0400   11.7790   -2.3040 C   0  0  0  0  0  0  0  0  0  0  0  0
   -0.3140   10.9200   -1.2640 C   0  0  2  0  0  0  0  0  0  0  0  0
    0.3870    9.7430   -2.0230 C   0  0  0  0  0  0  0  0  0  0  0  0
   -1.0258    7.6900   -1.7660 H   0  0  0  0  0  0  0  0  0  0  0  0
   -2.5783    8.3139   -2.4196 H   0  0  0  0  0  0  0  0  0  0  0  0
   -1.1185    9.3606   -2.4196 H   0  0  0  0  0  0  0  0  0  0  0  0
   -1.8481    8.2945    0.2421 H   0  0  0  0  0  0  0  0  0  0  0  0
   -3.6797   10.0974    0.5103 H   0  0  0  0  0  0  0  0  0  0  0  0
   -3.8000    9.9902   -1.3109 H   0  0  0  0  0  0  0  0  0  0  0  0
   -3.8630    7.3788    0.0369 H   0  0  0  0  0  0  0  0  0  0  0  0
   -5.2359    8.4789    0.4749 H   0  0  0  0  0  0  0  0  0  0  0  0
   -4.1631    7.7517   -2.0545 H   0  0  0  0  0  0  0  0  0  0  0  0
   -6.6819    7.1414    0.4435 H   0  0  0  0  0  0  0  0  0  0  0  0
   -8.2284    7.2940   -0.4574 H   0  0  0  0  0  0  0  0  0  0  0  0
   -7.3392    5.7332   -0.4574 H   0  0  0  0  0  0  0  0  0  0  0  0
   -7.3219    5.6070   -2.7319 H   0  0  0  0  0  0  0  0  0  0  0  0
   -7.5166    7.2002   -3.5384 H   0  0  0  0  0  0  0  0  0  0  0  0
   -5.9169    6.3830   -3.5384 H   0  0  0  0  0  0  0  0  0  0  0  0
   -1.9745   11.0246    0.1523 H   0  0  0  0  0  0  0  0  0  0  0  0
   -0.5396   10.3062    1.9607 H   0  0  0  0  0  0  0  0  0  0  0  0
    0.0940    8.9401    1.0178 H   0  0  0  0  0  0  0  0  0  0  0  0
    1.4793   11.3844    1.5364 H   0  0  0  0  0  0  0  0  0  0  0  0
    1.9585   10.2202    0.3041 H   0  0  0  0  0  0  0  0  0  0  0  0
    0.0572   12.8195    1.4238 H   0  0  0  0  0  0  0  0  0  0  0  0
    0.4128   13.9565    0.0793 H   0  0  0  0  0  0  0  0  0  0  0  0
   -1.1177   13.0161    0.0793 H   0  0  0  0  0  0  0  0  0  0  0  0
    2.2527   11.4719   -1.7476 H   0  0  0  0  0  0  0  0  0  0  0  0
    2.9945   12.8290    0.3136 H   0  0  0  0  0  0  0  0  0  0  0  0
    3.7688   13.1011   -1.3343 H   0  0  0  0  0  0  0  0  0  0  0  0
    3.2366   15.2625    0.0766 H   0  0  0  0  0  0  0  0  0  0  0  0
   -0.1789   14.5660   -1.9588 H   0  0  0  0  0  0  0  0  0  0  0  0
    1.8017   15.5525   -4.1035 H   0  0  0  0  0  0  0  0  0  0  0  0
    0.0712   15.0525   -4.3617 H   0  0  0  0  0  0  0  0  0  0  0  0
    0.3430   17.5118   -4.3443 H   0  0  0  0  0  0  0  0  0  0  0  0
   -0.7003   16.9069   -2.9987 H   0  0  0  0  0  0  0  0  0  0  0  0
    0.7658   18.5988   -2.1348 H   0  0  0  0  0  0  0  0  0  0  0  0
    2.7780   16.9650   -3.3740 H   0  0  0  0  0  0  0  0  0  0  0  0
    0.2114   16.9039    0.8067 H   0  0  0  0  0  0  0  0  0  0  0  0
   -0.5183   17.8402   -0.5415 H   0  0  0  0  0  0  0  0  0  0  0  0
   -0.6092   16.0462   -0.5415 H   0  0  0  0  0  0  0  0  0  0  0  0
    2.1630   17.4087    0.8982 H   0  0  0  0  0  0  0  0  0  0  0  0
    3.4036   17.1769   -0.3801 H   0  0  0  0  0  0  0  0  0  0  0  0
    2.3788   18.6521   -0.3801 H   0  0  0  0  0  0  0  0  0  0  0  0
    3.3140   13.0069   -3.2610 H   0  0  0  0  0  0  0  0  0  0  0  0
    2.1858   12.1763   -4.3852 H   0  0  0  0  0  0  0  0  0  0  0  0
    2.2957   13.9692   -4.3852 H   0  0  0  0  0  0  0  0  0  0  0  0
   -0.5920   13.1421   -3.9007 H   0  0  0  0  0  0  0  0  0  0  0  0
    0.3703   11.5587   -3.8635 H   0  0  0  0  0  0  0  0  0  0  0  0
   -1.5873   12.5819   -1.7885 H   0  0  0  0  0  0  0  0  0  0  0  0
   -1.7353   11.1372   -2.8649 H   0  0  0  0  0  0  0  0  0  0  0  0
    0.8083    9.0356   -1.2935 H   0  0  0  0  0  0  0  0  0  0  0  0
   -0.3491    9.2238   -2.6543 H   0  0  0  0  0  0  0  0  0  0  0  0
    1.1942   10.1429   -2.6543 H   0  0  0  0  0  0  0  0  0  0  0  0
  1  2  1  0
  2  3  1  0
  3  4  1  0
  4  5  1  0
  5  6  1  0
  6  7  1  0
  7  8  1  0
  7  9  1  0
  2 10  1  0
 10 11  1  0
 11 12  1  0
 12 13  1  0
 13 14  1  1
 13 15  1  0
 15 16  1  0
 16 17  1  0
 17 18  2  0
 18 19  1  0
 19 20  1  0
 20 21  1  0
 21 22  1  0
 22 23  1  0
 22 24  1  0
 24 25  1  0
 24 26  1  0
 19 27  1  0
 27 28  1  6
 27 29  1  0
 29 30  1  0
 30 31  1  0
 31 32  1  6
  7  5  1  0
 31 10  1  0
 31 13  1  0
 27 15  1  0
 24 18  1  0
  1 33  1  0
  1 34  1  0
  1 35  1  0
  2 36  1  1
  3 37  1  0
  3 38  1  0
  4 39  1  0
  4 40  1  0
  5 41  1  6
  8 42  1  0
  8 43  1  0
  8 44  1  0
  9 45  1  0
  9 46  1  0
  9 47  1  0
 10 48  1  1
 11 49  1  0
 11 50  1  0
 12 51  1  0
 12 52  1  0
 14 53  1  0
 14 54  1  0
 14 55  1  0
 15 56  1  6
 16 57  1  0
 16 58  1  0
 17 59  1  0
 19 60  1  1
 20 61  1  0
 20 62  1  0
 21 63  1  0
 21 64  1  0
 22 65  1  1
 23 66  1  0
 25 67  1  0
 25 68  1  0
 25 69  1  0
 26 70  1  0
 26 71  1  0
 26 72  1  0
 28 73  1  0
 28 74  1  0
 28 75  1  0
 29 76  1  0
 29 77  1  0
 30 78  1  0
 30 79  1  0
 32 80  1  0
 32 81  1  0
 32 82  1  0
M  END
>  <meeko>  (1) 
{"is_sidechain": [false], "intermolecular_energy": 2.731, "internal_energy": -0.839}

$$$$
EPH_relaxed_0001_pdb2pqr_Repair_390_r2_0001_out
     RDKit          3D

 82 86  0  0  0  0  0  0  0  0999 V2000
    4.2120   17.5760   -0.6940 C   0  0  0  0  0  0  0  0  0  0  0  0
    2.8530   18.1480   -0.2810 C   0  0  2  0  0  0  0  0  0  0  0  0
    2.9120   18.8550    1.0880 C   0  0  0  0  0  0  0  0  0  0  0  0
    4.2380   18.6540    1.8270 C   0  0  0  0  0  0  0  0  0  0  0  0
    4.1910   19.2230    3.2130 C   0  0  2  0  0  0  0  0  0  0  0  0
    5.2070   20.1940    3.4960 O   0  0  0  0  0  0  0  0  0  0  0  0
    5.2660   18.9760    4.2550 C   0  0  0  0  0  0  0  0  0  0  0  0
    6.4630   18.1300    3.9560 C   0  0  0  0  0  0  0  0  0  0  0  0
    4.9140   19.1490    5.7000 C   0  0  0  0  0  0  0  0  0  0  0  0
    1.8100   17.0370   -0.2500 C   0  0  1  0  0  0  0  0  0  0  0  0
    0.3800   17.5520   -0.5630 C   0  0  0  0  0  0  0  0  0  0  0  0
   -0.3400   16.4250   -1.3470 C   0  0  0  0  0  0  0  0  0  0  0  0
    0.5700   15.1860   -1.1720 C   0  0  1  0  0  0  0  0  0  0  0  0
    0.2030   14.6150    0.2340 C   0  0  0  0  0  0  0  0  0  0  0  0
    0.4680   14.0920   -2.2840 C   0  0  2  0  0  0  0  0  0  0  0  0
   -0.9100   13.4210   -2.4150 C   0  0  0  0  0  0  0  0  0  0  0  0
   -1.1040   12.1950   -1.5850 C   0  0  0  0  0  0  0  0  0  0  0  0
   -0.1240   11.4920   -0.9870 C   0  0  0  0  0  0  0  0  0  0  0  0
    1.3500   11.8590   -1.1990 C   0  0  1  0  0  0  0  0  0  0  0  0
    2.1650   10.5740   -1.4990 C   0  0  0  0  0  0  0  0  0  0  0  0
    1.9790    9.5000   -0.4320 C   0  0  0  0  0  0  0  0  0  0  0  0
    0.5070    9.1200   -0.2920 C   0  0  2  0  0  0  0  0  0  0  0  0
    0.0810    8.4750   -1.4960 O   0  0  0  0  0  0  0  0  0  0  0  0
   -0.4140   10.3370    0.0030 C   0  0  0  0  0  0  0  0  0  0  0  0
   -0.1540   10.8510    1.4400 C   0  0  0  0  0  0  0  0  0  0  0  0
   -1.8850    9.8390   -0.0200 C   0  0  0  0  0  0  0  0  0  0  0  0
    1.6320   13.0200   -2.2470 C   0  0  1  0  0  0  0  0  0  0  0  0
    1.7360   12.4260   -3.6840 C   0  0  0  0  0  0  0  0  0  0  0  0
    3.0320   13.6680   -1.9320 C   0  0  0  0  0  0  0  0  0  0  0  0
    3.0500   14.8240   -0.9140 C   0  0  0  0  0  0  0  0  0  0  0  0
    1.9830   15.8700   -1.2530 C   0  0  2  0  0  0  0  0  0  0  0  0
    2.3380   16.4780   -2.6530 C   0  0  0  0  0  0  0  0  0  0  0  0
    4.7952   17.3305    0.2058 H   0  0  0  0  0  0  0  0  0  0  0  0
    4.0601   16.6655   -1.2922 H   0  0  0  0  0  0  0  0  0  0  0  0
    4.7569   18.3211   -1.2922 H   0  0  0  0  0  0  0  0  0  0  0  0
    2.5699   18.9028   -1.0294 H   0  0  0  0  0  0  0  0  0  0  0  0
    2.7629   19.9332    0.9289 H   0  0  0  0  0  0  0  0  0  0  0  0
    2.1241   18.4106    1.7139 H   0  0  0  0  0  0  0  0  0  0  0  0
    4.4510   17.5767    1.8908 H   0  0  0  0  0  0  0  0  0  0  0  0
    5.0261   19.1787    1.2670 H   0  0  0  0  0  0  0  0  0  0  0  0
    3.0962   19.1210    3.2436 H   0  0  0  0  0  0  0  0  0  0  0  0
    6.9257   17.8030    4.8989 H   0  0  0  0  0  0  0  0  0  0  0  0
    6.1534   17.2490    3.3746 H   0  0  0  0  0  0  0  0  0  0  0  0
    7.1901   18.7159    3.3746 H   0  0  0  0  0  0  0  0  0  0  0  0
    5.7261   18.7499    6.3255 H   0  0  0  0  0  0  0  0  0  0  0  0
    4.7748   20.2182    5.9180 H   0  0  0  0  0  0  0  0  0  0  0  0
    3.9825   18.6060    5.9180 H   0  0  0  0  0  0  0  0  0  0  0  0
    1.9583   16.6741    0.7778 H   0  0  0  0  0  0  0  0  0  0  0  0
   -0.1584   17.7665    0.3719 H   0  0  0  0  0  0  0  0  0  0  0  0
    0.4148   18.4814   -1.1504 H   0  0  0  0  0  0  0  0  0  0  0  0
   -1.3386   16.2360   -0.9263 H   0  0  0  0  0  0  0  0  0  0  0  0
   -0.4929   16.6845   -2.4050 H   0  0  0  0  0  0  0  0  0  0  0  0
    0.6218   15.2666    1.0151 H   0  0  0  0  0  0  0  0  0  0  0  0
   -0.8912   14.5737    0.3388 H   0  0  0  0  0  0  0  0  0  0  0  0
    0.6199   13.6025    0.3388 H   0  0  0  0  0  0  0  0  0  0  0  0
    0.6029   14.6784   -3.2048 H   0  0  0  0  0  0  0  0  0  0  0  0
   -1.6748   14.1550   -2.1210 H   0  0  0  0  0  0  0  0  0  0  0  0
   -0.9915   13.0953   -3.4625 H   0  0  0  0  0  0  0  0  0  0  0  0
   -2.1350   11.8359   -1.4508 H   0  0  0  0  0  0  0  0  0  0  0  0
    1.6916   12.3053   -0.2534 H   0  0  0  0  0  0  0  0  0  0  0  0
    1.8392   10.1682   -2.4681 H   0  0  0  0  0  0  0  0  0  0  0  0
    3.2298   10.8499   -1.5125 H   0  0  0  0  0  0  0  0  0  0  0  0
    2.5560    8.6073   -0.7152 H   0  0  0  0  0  0  0  0  0  0  0  0
    2.3326    9.8966    0.5311 H   0  0  0  0  0  0  0  0  0  0  0  0
    0.4211    8.4447    0.5721 H   0  0  0  0  0  0  0  0  0  0  0  0
   -0.0150    7.5260   -1.3030 H   0  0  0  0  0  0  0  0  0  0  0  0
   -0.5269   10.1137    2.1662 H   0  0  0  0  0  0  0  0  0  0  0  0
    0.9263   10.9968    1.5874 H   0  0  0  0  0  0  0  0  0  0  0  0
   -0.6766   11.8076    1.5874 H   0  0  0  0  0  0  0  0  0  0  0  0
   -2.2468    9.7165    1.0115 H   0  0  0  0  0  0  0  0  0  0  0  0
   -2.5130   10.5746   -0.5439 H   0  0  0  0  0  0  0  0  0  0  0  0
   -1.9370    8.8732   -0.5439 H   0  0  0  0  0  0  0  0  0  0  0  0
    1.9254   11.3443   -3.6208 H   0  0  0  0  0  0  0  0  0  0  0  0
    0.7933   12.6023   -4.2228 H   0  0  0  0  0  0  0  0  0  0  0  0
    2.5627   12.9121   -4.2228 H   0  0  0  0  0  0  0  0  0  0  0  0
    3.6867   12.8734   -1.5446 H   0  0  0  0  0  0  0  0  0  0  0  0
    3.3616   14.1157   -2.8812 H   0  0  0  0  0  0  0  0  0  0  0  0
    2.8532   14.4218    0.0907 H   0  0  0  0  0  0  0  0  0  0  0  0
    4.0378   15.3067   -0.9488 H   0  0  0  0  0  0  0  0  0  0  0  0
    2.8882   17.4204   -2.5146 H   0  0  0  0  0  0  0  0  0  0  0  0
    2.9631   15.7673   -3.2136 H   0  0  0  0  0  0  0  0  0  0  0  0
    1.4119   16.6731   -3.2136 H   0  0  0  0  0  0  0  0  0  0  0  0
  1  2  1  0
  2  3  1  0
  3  4  1  0
  4  5  1  0
  5  6  1  0
  6  7  1  0
  7  8  1  0
  7  9  1  0
  2 10  1  0
 10 11  1  0
 11 12  1  0
 12 13  1  0
 13 14  1  1
 13 15  1  0
 15 16  1  0
 16 17  1  0
 17 18  2  0
 18 19  1  0
 19 20  1  0
 20 21  1  0
 21 22  1  0
 22 23  1  0
 22 24  1  0
 24 25  1  0
 24 26  1  0
 19 27  1  0
 27 28  1  6
 27 29  1  0
 29 30  1  0
 30 31  1  0
 31 32  1  6
  7  5  1  0
 31 10  1  0
 31 13  1  0
 27 15  1  0
 24 18  1  0
  1 33  1  0
  1 34  1  0
  1 35  1  0
  2 36  1  6
  3 37  1  0
  3 38  1  0
  4 39  1  0
  4 40  1  0
  5 41  1  1
  8 42  1  0
  8 43  1  0
  8 44  1  0
  9 45  1  0
  9 46  1  0
  9 47  1  0
 10 48  1  1
 11 49  1  0
 11 50  1  0
 12 51  1  0
 12 52  1  0
 14 53  1  0
 14 54  1  0
 14 55  1  0
 15 56  1  6
 16 57  1  0
 16 58  1  0
 17 59  1  0
 19 60  1  1
 20 61  1  0
 20 62  1  0
 21 63  1  0
 21 64  1  0
 22 65  1  1
 23 66  1  0
 25 67  1  0
 25 68  1  0
 25 69  1  0
 26 70  1  0
 26 71  1  0
 26 72  1  0
 28 73  1  0
 28 74  1  0
 28 75  1  0
 29 76  1  0
 29 77  1  0
 30 78  1  0
 30 79  1  0
 32 80  1  0
 32 81  1  0
 32 82  1  0
M  END
>  <meeko>  (2) 
{"is_sidechain": [false], "intermolecular_energy": 2.731, "internal_energy": -0.839}

$$$$
EPH_relaxed_0001_pdb2pqr_Repair_390_r2_0001_out
     RDKit          3D

 82 86  0  0  0  0  0  0  0  0999 V2000
    2.3390   18.0420   -2.6410 C   0  0  0  0  0  0  0  0  0  0  0  0
    1.0320   17.6640   -1.9380 C   0  0  2  0  0  0  0  0  0  0  0  0
    1.1610   17.7210   -0.4030 C   0  0  0  0  0  0  0  0  0  0  0  0
    0.8010   19.0840    0.1950 C   0  0  0  0  0  0  0  0  0  0  0  0
   -0.6650   19.1890    0.4920 C   0  0  2  0  0  0  0  0  0  0  0  0
   -1.4900   18.2650   -0.2290 O   0  0  0  0  0  0  0  0  0  0  0  0
   -1.6920   19.6570   -0.5210 C   0  0  0  0  0  0  0  0  0  0  0  0
   -1.2960   20.0520   -1.9090 C   0  0  0  0  0  0  0  0  0  0  0  0
   -2.9970   20.1940   -0.0210 C   0  0  0  0  0  0  0  0  0  0  0  0
    0.5930   16.2710   -2.3730 C   0  0  1  0  0  0  0  0  0  0  0  0
    0.6650   16.0740   -3.9110 C   0  0  0  0  0  0  0  0  0  0  0  0
    1.0790   14.6000   -4.1540 C   0  0  0  0  0  0  0  0  0  0  0  0
    0.9070   13.9150   -2.7780 C   0  0  1  0  0  0  0  0  0  0  0  0
   -0.6190   13.6020   -2.6730 C   0  0  0  0  0  0  0  0  0  0  0  0
    1.7760   12.6400   -2.5280 C   0  0  2  0  0  0  0  0  0  0  0  0
    1.4920   11.4600   -3.4740 C   0  0  0  0  0  0  0  0  0  0  0  0
    0.4510   10.5000   -3.0020 C   0  0  0  0  0  0  0  0  0  0  0  0
   -0.0250   10.4180   -1.7450 C   0  0  0  0  0  0  0  0  0  0  0  0
    0.5600   11.2850   -0.6230 C   0  0  1  0  0  0  0  0  0  0  0  0
    0.8180   10.4060    0.6290 C   0  0  0  0  0  0  0  0  0  0  0  0
   -0.4240    9.6390    1.0720 C   0  0  0  0  0  0  0  0  0  0  0  0
   -0.9430    8.7450   -0.0520 C   0  0  2  0  0  0  0  0  0  0  0  0
    0.0170    7.7130   -0.3000 O   0  0  0  0  0  0  0  0  0  0  0  0
   -1.2290    9.5200   -1.3690 C   0  0  0  0  0  0  0  0  0  0  0  0
   -2.4710   10.4250   -1.1800 C   0  0  0  0  0  0  0  0  0  0  0  0
   -1.6090    8.4830   -2.4600 C   0  0  0  0  0  0  0  0  0  0  0  0
    1.8200   12.1710   -1.0170 C   0  0  1  0  0  0  0  0  0  0  0  0
    3.1290   11.3410   -0.8460 C   0  0  0  0  0  0  0  0  0  0  0  0
    1.9280   13.3830   -0.0170 C   0  0  0  0  0  0  0  0  0  0  0  0
    1.1410   14.6560   -0.3810 C   0  0  0  0  0  0  0  0  0  0  0  0
    1.4050   15.0680   -1.8330 C   0  0  2  0  0  0  0  0  0  0  0  0
    2.9290   15.4100   -1.9630 C   0  0  0  0  0  0  0  0  0  0  0  0
    3.1093   18.2648   -1.8879 H   0  0  0  0  0  0  0  0  0  0  0  0
    2.6728   17.2036   -3.2700 H   0  0  0  0  0  0  0  0  0  0  0  0
    2.1737   18.9292   -3.2700 H   0  0  0  0  0  0  0  0  0  0  0  0
    0.2716   18.4024   -2.2324 H   0  0  0  0  0  0  0  0  0  0  0  0
    0.4908   16.9638    0.0301 H   0  0  0  0  0  0  0  0  0  0  0  0
    2.2178   17.5334   -0.1621 H   0  0  0  0  0  0  0  0  0  0  0  0
    1.3650   19.2238    1.1290 H   0  0  0  0  0  0  0  0  0  0  0  0
    1.0585   19.8603   -0.5406 H   0  0  0  0  0  0  0  0  0  0  0  0
   -0.4569   19.4962    1.5275 H   0  0  0  0  0  0  0  0  0  0  0  0
   -0.5179   20.8281   -1.8615 H   0  0  0  0  0  0  0  0  0  0  0  0
   -0.9052   19.1732   -2.4429 H   0  0  0  0  0  0  0  0  0  0  0  0
   -2.1738   20.4450   -2.4429 H   0  0  0  0  0  0  0  0  0  0  0  0
   -2.9963   20.1937    1.0790 H   0  0  0  0  0  0  0  0  0  0  0  0
   -3.1350   21.2220   -0.3873 H   0  0  0  0  0  0  0  0  0  0  0  0
   -3.8185   19.5608   -0.3873 H   0  0  0  0  0  0  0  0  0  0  0  0
   -0.4228   16.2588   -1.9511 H   0  0  0  0  0  0  0  0  0  0  0  0
   -0.3175   16.2712   -4.3646 H   0  0  0  0  0  0  0  0  0  0  0  0
    1.3884   16.7674   -4.3646 H   0  0  0  0  0  0  0  0  0  0  0  0
    0.4259   14.1319   -4.9052 H   0  0  0  0  0  0  0  0  0  0  0  0
    2.1061   14.5129   -4.5381 H   0  0  0  0  0  0  0  0  0  0  0  0
   -0.9090   13.5425   -1.6136 H   0  0  0  0  0  0  0  0  0  0  0  0
   -1.1920   14.4013   -3.1657 H   0  0  0  0  0  0  0  0  0  0  0  0
   -0.8311   12.6417   -3.1657 H   0  0  0  0  0  0  0  0  0  0  0  0
    2.7868   12.9910   -2.7833 H   0  0  0  0  0  0  0  0  0  0  0  0
    1.1627   11.8705   -4.4399 H   0  0  0  0  0  0  0  0  0  0  0  0
    2.4289   10.8869   -3.5350 H   0  0  0  0  0  0  0  0  0  0  0  0
    0.0378    9.8005   -3.7436 H   0  0  0  0  0  0  0  0  0  0  0  0
   -0.2029   12.0441   -0.3954 H   0  0  0  0  0  0  0  0  0  0  0  0
    1.6136    9.6834    0.3945 H   0  0  0  0  0  0  0  0  0  0  0  0
    1.1082   11.0752    1.4524 H   0  0  0  0  0  0  0  0  0  0  0  0
   -0.1703    9.0141    1.9410 H   0  0  0  0  0  0  0  0  0  0  0  0
   -1.2088   10.3634    1.3352 H   0  0  0  0  0  0  0  0  0  0  0  0
   -1.9037    8.3233    0.2785 H   0  0  0  0  0  0  0  0  0  0  0  0
    0.2590    7.7560   -1.2400 H   0  0  0  0  0  0  0  0  0  0  0  0
   -2.6628   10.5648   -0.1059 H   0  0  0  0  0  0  0  0  0  0  0  0
   -2.2874   11.4025   -1.6499 H   0  0  0  0  0  0  0  0  0  0  0  0
   -3.3452    9.9507   -1.6499 H   0  0  0  0  0  0  0  0  0  0  0  0
   -1.9495    7.5537   -1.9799 H   0  0  0  0  0  0  0  0  0  0  0  0
   -2.4167    8.8893   -3.0866 H   0  0  0  0  0  0  0  0  0  0  0  0
   -0.7301    8.2712   -3.0866 H   0  0  0  0  0  0  0  0  0  0  0  0
    3.3407   11.2067    0.2250 H   0  0  0  0  0  0  0  0  0  0  0  0
    3.0039   10.3569   -1.3212 H   0  0  0  0  0  0  0  0  0  0  0  0
    3.9658   11.8739   -1.3212 H   0  0  0  0  0  0  0  0  0  0  0  0
    1.5682   13.0383    0.9637 H   0  0  0  0  0  0  0  0  0  0  0  0
    2.9863   13.6822   -0.0407 H   0  0  0  0  0  0  0  0  0  0  0  0
    0.0657   14.4636   -0.2514 H   0  0  0  0  0  0  0  0  0  0  0  0
    1.4687   15.4718    0.2801 H   0  0  0  0  0  0  0  0  0  0  0  0
    3.3695   15.5088   -0.9599 H   0  0  0  0  0  0  0  0  0  0  0  0
    3.4402   14.6042   -2.5102 H   0  0  0  0  0  0  0  0  0  0  0  0
    3.0469   16.3569   -2.5102 H   0  0  0  0  0  0  0  0  0  0  0  0
  1  2  1  0
  2  3  1  0
  3  4  1  0
  4  5  1  0
  5  6  1  0
  6  7  1  0
  7  8  1  0
  7  9  1  0
  2 10  1  0
 10 11  1  0
 11 12  1  0
 12 13  1  0
 13 14  1  1
 13 15  1  0
 15 16  1  0
 16 17  1  0
 17 18  2  0
 18 19  1  0
 19 20  1  0
 20 21  1  0
 21 22  1  0
 22 23  1  0
 22 24  1  0
 24 25  1  0
 24 26  1  0
 19 27  1  0
 27 28  1  6
 27 29  1  0
 29 30  1  0
 30 31  1  0
 31 32  1  1
  7  5  1  0
 31 10  1  0
 31 13  1  0
 27 15  1  0
 24 18  1  0
  1 33  1  0
  1 34  1  0
  1 35  1  0
  2 36  1  6
  3 37  1  0
  3 38  1  0
  4 39  1  0
  4 40  1  0
  5 41  1  1
  8 42  1  0
  8 43  1  0
  8 44  1  0
  9 45  1  0
  9 46  1  0
  9 47  1  0
 10 48  1  1
 11 49  1  0
 11 50  1  0
 12 51  1  0
 12 52  1  0
 14 53  1  0
 14 54  1  0
 14 55  1  0
 15 56  1  6
 16 57  1  0
 16 58  1  0
 17 59  1  0
 19 60  1  1
 20 61  1  0
 20 62  1  0
 21 63  1  0
 21 64  1  0
 22 65  1  1
 23 66  1  0
 25 67  1  0
 25 68  1  0
 25 69  1  0
 26 70  1  0
 26 71  1  0
 26 72  1  0
 28 73  1  0
 28 74  1  0
 28 75  1  0
 29 76  1  0
 29 77  1  0
 30 78  1  0
 30 79  1  0
 32 80  1  0
 32 81  1  0
 32 82  1  0
M  END
>  <meeko>  (3) 
{"is_sidechain": [false], "intermolecular_energy": 2.731, "internal_energy": -0.839}

$$$$
EPH_relaxed_0001_pdb2pqr_Repair_390_r2_0001_out
     RDKit          3D

 82 86  0  0  0  0  0  0  0  0999 V2000
    0.4210   18.4550   -0.1110 C   0  0  0  0  0  0  0  0  0  0  0  0
    1.4930   17.3740   -0.2710 C   0  0  2  0  0  0  0  0  0  0  0  0
    2.7420   17.8990   -1.0080 C   0  0  0  0  0  0  0  0  0  0  0  0
    3.9660   18.0650   -0.1040 C   0  0  0  0  0  0  0  0  0  0  0  0
    3.5850   18.5520    1.2610 C   0  0  2  0  0  0  0  0  0  0  0  0
    3.7850   19.9560    1.4740 O   0  0  0  0  0  0  0  0  0  0  0  0
    4.5880   19.0730    2.2740 C   0  0  0  0  0  0  0  0  0  0  0  0
    6.0510   19.1320    1.9640 C   0  0  0  0  0  0  0  0  0  0  0  0
    4.2120   19.0630    3.7230 C   0  0  0  0  0  0  0  0  0  0  0  0
    0.9160   16.1750   -1.0140 C   0  0  1  0  0  0  0  0  0  0  0  0
    0.7820   16.4260   -2.5400 C   0  0  0  0  0  0  0  0  0  0  0  0
    1.0680   15.0730   -3.2420 C   0  0  0  0  0  0  0  0  0  0  0  0
    1.0270   14.0270   -2.1040 C   0  0  1  0  0  0  0  0  0  0  0  0
   -0.4900   13.7350   -1.8810 C   0  0  0  0  0  0  0  0  0  0  0  0
    1.8390   12.7120   -2.3440 C   0  0  2  0  0  0  0  0  0  0  0  0
    1.3640   11.8610   -3.5350 C   0  0  0  0  0  0  0  0  0  0  0  0
    0.3320   10.8320   -3.2120 C   0  0  0  0  0  0  0  0  0  0  0  0
    0.0130   10.4050   -1.9760 C   0  0  0  0  0  0  0  0  0  0  0  0
    0.7890   10.8990   -0.7470 C   0  0  1  0  0  0  0  0  0  0  0  0
    1.1460    9.6920    0.1590 C   0  0  0  0  0  0  0  0  0  0  0  0
   -0.0770    8.8620    0.5370 C   0  0  0  0  0  0  0  0  0  0  0  0
   -0.7880    8.3400   -0.7100 C   0  0  2  0  0  0  0  0  0  0  0  0
    0.0660    7.3990   -1.3670 O   0  0  0  0  0  0  0  0  0  0  0  0
   -1.1880    9.4670   -1.7030 C   0  0  0  0  0  0  0  0  0  0  0  0
   -2.3370   10.3110   -1.0990 C   0  0  0  0  0  0  0  0  0  0  0  0
   -1.7670    8.7950   -2.9780 C   0  0  0  0  0  0  0  0  0  0  0  0
    2.0420   11.8290   -1.0470 C   0  0  1  0  0  0  0  0  0  0  0  0
    3.3070   10.9530   -1.2980 C   0  0  0  0  0  0  0  0  0  0  0  0
    2.3520   12.7010    0.2280 C   0  0  0  0  0  0  0  0  0  0  0  0
    1.6070   14.0440    0.3480 C   0  0  0  0  0  0  0  0  0  0  0  0
    1.7120   14.8480   -0.9510 C   0  0  2  0  0  0  0  0  0  0  0  0
    3.2260   15.1760   -1.1900 C   0  0  0  0  0  0  0  0  0  0  0  0
    0.2406   18.6370    0.9587 H   0  0  0  0  0  0  0  0  0  0  0  0
    0.7638   19.3848   -0.5884 H   0  0  0  0  0  0  0  0  0  0  0  0
   -0.5117   18.1200   -0.5884 H   0  0  0  0  0  0  0  0  0  0  0  0
    1.8084   17.0695    0.7379 H   0  0  0  0  0  0  0  0  0  0  0  0
    2.9960   17.1897   -1.8095 H   0  0  0  0  0  0  0  0  0  0  0  0
    2.4906   18.8975   -1.3950 H   0  0  0  0  0  0  0  0  0  0  0  0
    4.4722   17.0932   -0.0073 H   0  0  0  0  0  0  0  0  0  0  0  0
    4.6312   18.8122   -0.5613 H   0  0  0  0  0  0  0  0  0  0  0  0
    2.7875   17.7978    1.3328 H   0  0  0  0  0  0  0  0  0  0  0  0
    6.6241   19.1551    2.9027 H   0  0  0  0  0  0  0  0  0  0  0  0
    6.3383   18.2447    1.3808 H   0  0  0  0  0  0  0  0  0  0  0  0
    6.2659   20.0395    1.3808 H   0  0  0  0  0  0  0  0  0  0  0  0
    5.1234   19.0872    4.3385 H   0  0  0  0  0  0  0  0  0  0  0  0
    3.5943   19.9450    3.9476 H   0  0  0  0  0  0  0  0  0  0  0  0
    3.6421   18.1494    3.9476 H   0  0  0  0  0  0  0  0  0  0  0  0
   -0.0374   16.0667   -0.4761 H   0  0  0  0  0  0  0  0  0  0  0  0
   -0.2351   16.7697   -2.7796 H   0  0  0  0  0  0  0  0  0  0  0  0
    1.4853   17.2022   -2.8762 H   0  0  0  0  0  0  0  0  0  0  0  0
    0.2974   14.8564   -3.9965 H   0  0  0  0  0  0  0  0  0  0  0  0
    2.0312   15.0740   -3.7733 H   0  0  0  0  0  0  0  0  0  0  0  0
   -0.7009   13.6944   -0.8022 H   0  0  0  0  0  0  0  0  0  0  0  0
   -1.0889   14.5344   -2.3418 H   0  0  0  0  0  0  0  0  0  0  0  0
   -0.7494   12.7704   -2.3418 H   0  0  0  0  0  0  0  0  0  0  0  0
    2.8306   13.0952   -2.6266 H   0  0  0  0  0  0  0  0  0  0  0  0
    0.9423   12.5397   -4.2910 H   0  0  0  0  0  0  0  0  0  0  0  0
    2.2475   11.3067   -3.8845 H   0  0  0  0  0  0  0  0  0  0  0  0
   -0.2141   10.3847   -4.0556 H   0  0  0  0  0  0  0  0  0  0  0  0
    0.1106   11.5794   -0.2115 H   0  0  0  0  0  0  0  0  0  0  0  0
    1.8578    9.0471   -0.3771 H   0  0  0  0  0  0  0  0  0  0  0  0
    1.5801   10.0892    1.0884 H   0  0  0  0  0  0  0  0  0  0  0  0
    0.2432    8.0086    1.1528 H   0  0  0  0  0  0  0  0  0  0  0  0
   -0.7751    9.5003    1.0984 H   0  0  0  0  0  0  0  0  0  0  0  0
   -1.7242    7.8644   -0.3824 H   0  0  0  0  0  0  0  0  0  0  0  0
    0.6270    6.9860   -0.6890 H   0  0  0  0  0  0  0  0  0  0  0  0
   -2.2830   10.2714   -0.0010 H   0  0  0  0  0  0  0  0  0  0  0  0
   -2.2404   11.3545   -1.4334 H   0  0  0  0  0  0  0  0  0  0  0  0
   -3.3038    9.9068   -1.4334 H   0  0  0  0  0  0  0  0  0  0  0  0
   -2.4594    7.9914   -2.6867 H   0  0  0  0  0  0  0  0  0  0  0  0
   -2.3063    9.5451   -3.5751 H   0  0  0  0  0  0  0  0  0  0  0  0
   -0.9454    8.3726   -3.5751 H   0  0  0  0  0  0  0  0  0  0  0  0
    3.7418   10.6519   -0.3335 H   0  0  0  0  0  0  0  0  0  0  0  0
    3.0246   10.0561   -1.8688 H   0  0  0  0  0  0  0  0  0  0  0  0
    4.0472   11.5329   -1.8688 H   0  0  0  0  0  0  0  0  0  0  0  0
    2.0978   12.0990    1.1129 H   0  0  0  0  0  0  0  0  0  0  0  0
    3.4157   12.9681    0.1428 H   0  0  0  0  0  0  0  0  0  0  0  0
    0.5465   13.8489    0.5655 H   0  0  0  0  0  0  0  0  0  0  0  0
    2.0658   14.6279    1.1595 H   0  0  0  0  0  0  0  0  0  0  0  0
    3.7347   15.2862   -0.2209 H   0  0  0  0  0  0  0  0  0  0  0  0
    3.6931   14.3582   -1.7584 H   0  0  0  0  0  0  0  0  0  0  0  0
    3.3127   16.1138   -1.7584 H   0  0  0  0  0  0  0  0  0  0  0  0
  1  2  1  0
  2  3  1  0
  3  4  1  0
  4  5  1  0
  5  6  1  0
  6  7  1  0
  7  8  1  0
  7  9  1  0
  2 10  1  0
 10 11  1  0
 11 12  1  0
 12 13  1  0
 13 14  1  1
 13 15  1  0
 15 16  1  0
 16 17  1  0
 17 18  2  0
 18 19  1  0
 19 20  1  0
 20 21  1  0
 21 22  1  0
 22 23  1  0
 22 24  1  0
 24 25  1  0
 24 26  1  0
 19 27  1  0
 27 28  1  6
 27 29  1  0
 29 30  1  0
 30 31  1  0
 31 32  1  6
  7  5  1  0
 31 10  1  0
 31 13  1  0
 27 15  1  0
 24 18  1  0
  1 33  1  0
  1 34  1  0
  1 35  1  0
  2 36  1  1
  3 37  1  0
  3 38  1  0
  4 39  1  0
  4 40  1  0
  5 41  1  1
  8 42  1  0
  8 43  1  0
  8 44  1  0
  9 45  1  0
  9 46  1  0
  9 47  1  0
 10 48  1  1
 11 49  1  0
 11 50  1  0
 12 51  1  0
 12 52  1  0
 14 53  1  0
 14 54  1  0
 14 55  1  0
 15 56  1  6
 16 57  1  0
 16 58  1  0
 17 59  1  0
 19 60  1  1
 20 61  1  0
 20 62  1  0
 21 63  1  0
 21 64  1  0
 22 65  1  1
 23 66  1  0
 25 67  1  0
 25 68  1  0
 25 69  1  0
 26 70  1  0
 26 71  1  0
 26 72  1  0
 28 73  1  0
 28 74  1  0
 28 75  1  0
 29 76  1  0
 29 77  1  0
 30 78  1  0
 30 79  1  0
 32 80  1  0
 32 81  1  0
 32 82  1  0
M  END
>  <meeko>  (4) 
{"is_sidechain": [false], "intermolecular_energy": 2.731, "internal_energy": -0.839}

$$$$
EPH_relaxed_0001_pdb2pqr_Repair_390_r2_0001_out
     RDKit          3D

 82 86  0  0  0  0  0  0  0  0999 V2000
    3.6220   17.7390    0.7230 C   0  0  0  0  0  0  0  0  0  0  0  0
    2.7650   18.0090   -0.5170 C   0  0  2  0  0  0  0  0  0  0  0  0
    2.0790   19.3890   -0.4600 C   0  0  0  0  0  0  0  0  0  0  0  0
    1.2100   19.5930    0.7840 C   0  0  0  0  0  0  0  0  0  0  0  0
   -0.1360   20.1520    0.4340 C   0  0  2  0  0  0  0  0  0  0  0  0
   -1.0700   20.1880    1.5210 O   0  0  0  0  0  0  0  0  0  0  0  0
   -1.4080   19.3250    0.4230 C   0  0  0  0  0  0  0  0  0  0  0  0
   -1.3950   17.8690    0.7680 C   0  0  0  0  0  0  0  0  0  0  0  0
   -2.5690   19.8080   -0.3890 C   0  0  0  0  0  0  0  0  0  0  0  0
    1.7180   16.9130   -0.6740 C   0  0  1  0  0  0  0  0  0  0  0  0
    0.4940   17.3710   -1.5110 C   0  0  0  0  0  0  0  0  0  0  0  0
    0.0180   16.1380   -2.3200 C   0  0  0  0  0  0  0  0  0  0  0  0
    0.7610   14.9410   -1.6810 C   0  0  1  0  0  0  0  0  0  0  0  0
   -0.0700   14.5850   -0.4090 C   0  0  0  0  0  0  0  0  0  0  0  0
    0.9780   13.6930   -2.5970 C   0  0  2  0  0  0  0  0  0  0  0  0
   -0.3120   13.0060   -3.0790 C   0  0  0  0  0  0  0  0  0  0  0  0
   -0.8240   11.9180   -2.1950 C   0  0  0  0  0  0  0  0  0  0  0  0
   -0.1270   11.3150   -1.2140 C   0  0  0  0  0  0  0  0  0  0  0  0
    1.3510   11.6500   -0.9770 C   0  0  1  0  0  0  0  0  0  0  0  0
    2.1590   10.3360   -0.8070 C   0  0  0  0  0  0  0  0  0  0  0  0
    1.5840    9.4330    0.2800 C   0  0  0  0  0  0  0  0  0  0  0  0
    0.1310    9.0740   -0.0210 C   0  0  2  0  0  0  0  0  0  0  0  0
    0.0920    8.2550   -1.1940 O   0  0  0  0  0  0  0  0  0  0  0  0
   -0.7780   10.3190   -0.2220 C   0  0  0  0  0  0  0  0  0  0  0  0
   -0.9770   11.0420    1.1330 C   0  0  0  0  0  0  0  0  0  0  0  0
   -2.1820    9.8200   -0.6580 C   0  0  0  0  0  0  0  0  0  0  0  0
    2.0140   12.6420   -2.0270 C   0  0  1  0  0  0  0  0  0  0  0  0
    2.5530   11.8400   -3.2500 C   0  0  0  0  0  0  0  0  0  0  0  0
    3.2630   13.3330   -1.3630 C   0  0  0  0  0  0  0  0  0  0  0  0
    3.0020   14.6280   -0.5710 C   0  0  0  0  0  0  0  0  0  0  0  0
    2.1540   15.6090   -1.3880 C   0  0  2  0  0  0  0  0  0  0  0  0
    2.9740   16.0030   -2.6630 C   0  0  0  0  0  0  0  0  0  0  0  0
    3.0262   17.9267    1.6284 H   0  0  0  0  0  0  0  0  0  0  0  0
    3.9578   16.6915    0.7156 H   0  0  0  0  0  0  0  0  0  0  0  0
    4.4976   18.4048    0.7156 H   0  0  0  0  0  0  0  0  0  0  0  0
    3.4358   18.0098   -1.3888 H   0  0  0  0  0  0  0  0  0  0  0  0
    2.8585   20.1651   -0.4703 H   0  0  0  0  0  0  0  0  0  0  0  0
    1.4119   19.4529   -1.3323 H   0  0  0  0  0  0  0  0  0  0  0  0
    1.0739   18.6241    1.2867 H   0  0  0  0  0  0  0  0  0  0  0  0
    1.7187   20.3112    1.4438 H   0  0  0  0  0  0  0  0  0  0  0  0
    0.3115   20.8271   -0.3103 H   0  0  0  0  0  0  0  0  0  0  0  0
   -1.3939   17.7513    1.8617 H   0  0  0  0  0  0  0  0  0  0  0  0
   -2.2889   17.3847    0.3480 H   0  0  0  0  0  0  0  0  0  0  0  0
   -0.4926   17.4007    0.3480 H   0  0  0  0  0  0  0  0  0  0  0  0
   -3.3728   20.1424    0.2833 H   0  0  0  0  0  0  0  0  0  0  0  0
   -2.2487   20.6475   -1.0235 H   0  0  0  0  0  0  0  0  0  0  0  0
   -2.9387   18.9890   -1.0235 H   0  0  0  0  0  0  0  0  0  0  0  0
    1.5056   16.7090    0.3858 H   0  0  0  0  0  0  0  0  0  0  0  0
   -0.3096   17.7211   -0.8464 H   0  0  0  0  0  0  0  0  0  0  0  0
    0.7620   18.2023   -2.1797 H   0  0  0  0  0  0  0  0  0  0  0  0
   -1.0710   16.0116   -2.2304 H   0  0  0  0  0  0  0  0  0  0  0  0
    0.2321   16.2362   -3.3945 H   0  0  0  0  0  0  0  0  0  0  0  0
    0.5118   14.8342    0.4907 H   0  0  0  0  0  0  0  0  0  0  0  0
   -1.0074   15.1605   -0.4105 H   0  0  0  0  0  0  0  0  0  0  0  0
   -0.3001   13.5093   -0.4105 H   0  0  0  0  0  0  0  0  0  0  0  0
    1.4347   14.1358   -3.4944 H   0  0  0  0  0  0  0  0  0  0  0  0
   -1.0954   13.7738   -3.1615 H   0  0  0  0  0  0  0  0  0  0  0  0
   -0.0617   12.5269   -4.0370 H   0  0  0  0  0  0  0  0  0  0  0  0
   -1.8580   11.5805   -2.3589 H   0  0  0  0  0  0  0  0  0  0  0  0
    1.3850   12.2327   -0.0446 H   0  0  0  0  0  0  0  0  0  0  0  0
    2.1486    9.7895   -1.7616 H   0  0  0  0  0  0  0  0  0  0  0  0
    3.1819   10.6089   -0.5083 H   0  0  0  0  0  0  0  0  0  0  0  0
    2.1794    8.5096    0.3331 H   0  0  0  0  0  0  0  0  0  0  0  0
    1.6214    9.9705    1.2390 H   0  0  0  0  0  0  0  0  0  0  0  0
   -0.2639    8.5350    0.8528 H   0  0  0  0  0  0  0  0  0  0  0  0
    0.4000    7.3680   -0.9430 H   0  0  0  0  0  0  0  0  0  0  0  0
   -0.7833   10.3383    1.9560 H   0  0  0  0  0  0  0  0  0  0  0  0
   -0.2786   11.8890    1.2027 H   0  0  0  0  0  0  0  0  0  0  0  0
   -2.0105   11.4123    1.2027 H   0  0  0  0  0  0  0  0  0  0  0  0
   -2.7880    9.6046    0.2344 H   0  0  0  0  0  0  0  0  0  0  0  0
   -2.6772   10.5972   -1.2587 H   0  0  0  0  0  0  0  0  0  0  0  0
   -2.0756    8.9046   -1.2587 H   0  0  0  0  0  0  0  0  0  0  0  0
    3.1337   10.9759   -2.8948 H   0  0  0  0  0  0  0  0  0  0  0  0
    1.7074   11.4880   -3.8592 H   0  0  0  0  0  0  0  0  0  0  0  0
    3.1983   12.4900   -3.8592 H   0  0  0  0  0  0  0  0  0  0  0  0
    3.7170   12.6068   -0.6727 H   0  0  0  0  0  0  0  0  0  0  0  0
    3.9052   13.6347   -2.2036 H   0  0  0  0  0  0  0  0  0  0  0  0
    2.4695   14.3799    0.3590 H   0  0  0  0  0  0  0  0  0  0  0  0
    3.9686   15.1026   -0.3462 H   0  0  0  0  0  0  0  0  0  0  0  0
    3.9269   16.4609   -2.3591 H   0  0  0  0  0  0  0  0  0  0  0  0
    3.1745   15.1029   -3.2627 H   0  0  0  0  0  0  0  0  0  0  0  0
    2.3965   16.7220   -3.2627 H   0  0  0  0  0  0  0  0  0  0  0  0
  1  2  1  0
  2  3  1  0
  3  4  1  0
  4  5  1  0
  5  6  1  0
  6  7  1  0
  7  8  1  0
  7  9  1  0
  2 10  1  0
 10 11  1  0
 11 12  1  0
 12 13  1  0
 13 14  1  1
 13 15  1  0
 15 16  1  0
 16 17  1  0
 17 18  2  0
 18 19  1  0
 19 20  1  0
 20 21  1  0
 21 22  1  0
 22 23  1  0
 22 24  1  0
 24 25  1  0
 24 26  1  0
 19 27  1  0
 27 28  1  6
 27 29  1  0
 29 30  1  0
 30 31  1  0
 31 32  1  6
  7  5  1  0
 31 10  1  0
 31 13  1  0
 27 15  1  0
 24 18  1  0
  1 33  1  0
  1 34  1  0
  1 35  1  0
  2 36  1  6
  3 37  1  0
  3 38  1  0
  4 39  1  0
  4 40  1  0
  5 41  1  6
  8 42  1  0
  8 43  1  0
  8 44  1  0
  9 45  1  0
  9 46  1  0
  9 47  1  0
 10 48  1  1
 11 49  1  0
 11 50  1  0
 12 51  1  0
 12 52  1  0
 14 53  1  0
 14 54  1  0
 14 55  1  0
 15 56  1  6
 16 57  1  0
 16 58  1  0
 17 59  1  0
 19 60  1  1
 20 61  1  0
 20 62  1  0
 21 63  1  0
 21 64  1  0
 22 65  1  1
 23 66  1  0
 25 67  1  0
 25 68  1  0
 25 69  1  0
 26 70  1  0
 26 71  1  0
 26 72  1  0
 28 73  1  0
 28 74  1  0
 28 75  1  0
 29 76  1  0
 29 77  1  0
 30 78  1  0
 30 79  1  0
 32 80  1  0
 32 81  1  0
 32 82  1  0
M  END
>  <meeko>  (5) 
{"is_sidechain": [false], "intermolecular_energy": 2.731, "internal_energy": -0.839}

$$$$
EPH_relaxed_0001_pdb2pqr_Repair_390_r2_0001_out
     RDKit          3D

 82 86  0  0  0  0  0  0  0  0999 V2000
   -0.5770    9.9670   -2.5440 C   0  0  0  0  0  0  0  0  0  0  0  0
   -0.8790   10.0860   -1.0470 C   0  0  2  0  0  0  0  0  0  0  0  0
   -2.3920   10.0240   -0.7540 C   0  0  0  0  0  0  0  0  0  0  0  0
   -2.9640    8.6040   -0.7730 C   0  0  0  0  0  0  0  0  0  0  0  0
   -4.4490    8.6020   -0.5680 C   0  0  2  0  0  0  0  0  0  0  0  0
   -4.9840    7.3650   -0.0790 O   0  0  0  0  0  0  0  0  0  0  0  0
   -5.4060    7.7640   -1.3940 C   0  0  0  0  0  0  0  0  0  0  0  0
   -4.9150    6.8690   -2.4880 C   0  0  0  0  0  0  0  0  0  0  0  0
   -6.8420    8.1790   -1.4650 C   0  0  0  0  0  0  0  0  0  0  0  0
   -0.2960   11.3840   -0.5010 C   0  0  1  0  0  0  0  0  0  0  0  0
    0.8790   11.1430    0.4840 C   0  0  0  0  0  0  0  0  0  0  0  0
    1.8850   12.3030    0.2730 C   0  0  0  0  0  0  0  0  0  0  0  0
    1.1120   13.3410   -0.5740 C   0  0  1  0  0  0  0  0  0  0  0  0
    0.2330   14.1220    0.4520 C   0  0  0  0  0  0  0  0  0  0  0  0
    1.9800   14.3070   -1.4440 C   0  0  2  0  0  0  0  0  0  0  0  0
    2.9230   15.2290   -0.6520 C   0  0  0  0  0  0  0  0  0  0  0  0
    2.3460   16.5500   -0.2630 C   0  0  0  0  0  0  0  0  0  0  0  0
    1.2290   17.0970   -0.7760 C   0  0  0  0  0  0  0  0  0  0  0  0
    0.4740   16.4150   -1.9240 C   0  0  1  0  0  0  0  0  0  0  0  0
    0.1250   17.4660   -3.0100 C   0  0  0  0  0  0  0  0  0  0  0  0
   -0.6320   18.6630   -2.4440 C   0  0  0  0  0  0  0  0  0  0  0  0
    0.1760   19.3490   -1.3460 C   0  0  2  0  0  0  0  0  0  0  0  0
    1.3430   19.9360   -1.9300 O   0  0  0  0  0  0  0  0  0  0  0  0
    0.5930   18.3860   -0.2000 C   0  0  0  0  0  0  0  0  0  0  0  0
   -0.6550   17.9860    0.6250 C   0  0  0  0  0  0  0  0  0  0  0  0
    1.5200   19.1690    0.7690 C   0  0  0  0  0  0  0  0  0  0  0  0
    1.1590   15.1150   -2.5300 C   0  0  1  0  0  0  0  0  0  0  0  0
    2.1730   15.5190   -3.6440 C   0  0  0  0  0  0  0  0  0  0  0  0
    0.0590   14.2320   -3.2290 C   0  0  0  0  0  0  0  0  0  0  0  0
   -0.6800   13.2120   -2.3410 C   0  0  0  0  0  0  0  0  0  0  0  0
    0.3110   12.3770   -1.5240 C   0  0  2  0  0  0  0  0  0  0  0  0
    1.1940   11.5630   -2.5290 C   0  0  0  0  0  0  0  0  0  0  0  0
    0.4383    9.5669   -2.6826 H   0  0  0  0  0  0  0  0  0  0  0  0
   -1.3055    9.2887   -3.0122 H   0  0  0  0  0  0  0  0  0  0  0  0
   -0.6469   10.9599   -3.0122 H   0  0  0  0  0  0  0  0  0  0  0  0
   -0.4094    9.2273   -0.5449 H   0  0  0  0  0  0  0  0  0  0  0  0
   -2.5713   10.4575    0.2410 H   0  0  0  0  0  0  0  0  0  0  0  0
   -2.8979   10.5855   -1.5533 H   0  0  0  0  0  0  0  0  0  0  0  0
   -2.7376    8.1414   -1.7450 H   0  0  0  0  0  0  0  0  0  0  0  0
   -2.5034    8.0376    0.0498 H   0  0  0  0  0  0  0  0  0  0  0  0
   -4.4388    9.6714   -0.3106 H   0  0  0  0  0  0  0  0  0  0  0  0
   -4.4300    5.9849   -2.0485 H   0  0  0  0  0  0  0  0  0  0  0  0
   -5.7645    6.5501   -3.1099 H   0  0  0  0  0  0  0  0  0  0  0  0
   -4.1896    7.4141   -3.1099 H   0  0  0  0  0  0  0  0  0  0  0  0
   -7.2411    8.2943   -0.4465 H   0  0  0  0  0  0  0  0  0  0  0  0
   -6.9209    9.1367   -2.0004 H   0  0  0  0  0  0  0  0  0  0  0  0
   -7.4196    7.4110   -2.0004 H   0  0  0  0  0  0  0  0  0  0  0  0
   -1.2004   11.8161   -0.0480 H   0  0  0  0  0  0  0  0  0  0  0  0
    0.5107   11.1449    1.5205 H   0  0  0  0  0  0  0  0  0  0  0  0
    1.3554   10.1688    0.2995 H   0  0  0  0  0  0  0  0  0  0  0  0
    2.1861   12.7362    1.2382 H   0  0  0  0  0  0  0  0  0  0  0  0
    2.8099   11.9685   -0.2195 H   0  0  0  0  0  0  0  0  0  0  0  0
    0.5362   13.8526    1.4745 H   0  0  0  0  0  0  0  0  0  0  0  0
    0.3682   15.2034    0.3024 H   0  0  0  0  0  0  0  0  0  0  0  0
   -0.8249   13.8605    0.3024 H   0  0  0  0  0  0  0  0  0  0  0  0
    2.6330   13.6103   -1.9901 H   0  0  0  0  0  0  0  0  0  0  0  0
    3.2188   14.7033    0.2679 H   0  0  0  0  0  0  0  0  0  0  0  0
    3.7657   15.4511   -1.3233 H   0  0  0  0  0  0  0  0  0  0  0  0
    2.8794   17.1247    0.5085 H   0  0  0  0  0  0  0  0  0  0  0  0
   -0.4499   16.0123   -1.4833 H   0  0  0  0  0  0  0  0  0  0  0  0
    1.0592   17.8239   -3.4674 H   0  0  0  0  0  0  0  0  0  0  0  0
   -0.5270   16.9780   -3.7494 H   0  0  0  0  0  0  0  0  0  0  0  0
   -0.8239   19.3830   -3.2531 H   0  0  0  0  0  0  0  0  0  0  0  0
   -1.5796   18.3076   -2.0130 H   0  0  0  0  0  0  0  0  0  0  0  0
   -0.4691   20.1157   -0.8921 H   0  0  0  0  0  0  0  0  0  0  0  0
    1.7440   19.2720   -2.5150 H   0  0  0  0  0  0  0  0  0  0  0  0
   -0.4244   18.0599    1.6980 H   0  0  0  0  0  0  0  0  0  0  0  0
   -1.4877   18.6623    0.3815 H   0  0  0  0  0  0  0  0  0  0  0  0
   -0.9394   16.9517    0.3815 H   0  0  0  0  0  0  0  0  0  0  0  0
    1.2445   18.9363    1.8082 H   0  0  0  0  0  0  0  0  0  0  0  0
    2.5656   18.8765    0.5926 H   0  0  0  0  0  0  0  0  0  0  0  0
    1.4065   20.2488    0.5926 H   0  0  0  0  0  0  0  0  0  0  0  0
    3.0996   15.8882   -3.1801 H   0  0  0  0  0  0  0  0  0  0  0  0
    2.3997   14.6425   -4.2688 H   0  0  0  0  0  0  0  0  0  0  0  0
    1.7349   16.3113   -4.2688 H   0  0  0  0  0  0  0  0  0  0  0  0
   -0.6946   14.9124   -3.6524 H   0  0  0  0  0  0  0  0  0  0  0  0
    0.6026   13.6280   -3.9704 H   0  0  0  0  0  0  0  0  0  0  0  0
   -1.3487   13.7510   -1.6538 H   0  0  0  0  0  0  0  0  0  0  0  0
   -1.2574   12.5362   -2.9890 H   0  0  0  0  0  0  0  0  0  0  0  0
    1.8901   10.9213   -1.9690 H   0  0  0  0  0  0  0  0  0  0  0  0
    0.5473   10.9376   -3.1620 H   0  0  0  0  0  0  0  0  0  0  0  0
    1.7648   12.2583   -3.1620 H   0  0  0  0  0  0  0  0  0  0  0  0
  1  2  1  0
  2  3  1  0
  3  4  1  0
  4  5  1  0
  5  6  1  0
  6  7  1  0
  7  8  1  0
  7  9  1  0
  2 10  1  0
 10 11  1  0
 11 12  1  0
 12 13  1  0
 13 14  1  1
 13 15  1  0
 15 16  1  0
 16 17  1  0
 17 18  2  0
 18 19  1  0
 19 20  1  0
 20 21  1  0
 21 22  1  0
 22 23  1  0
 22 24  1  0
 24 25  1  0
 24 26  1  0
 19 27  1  0
 27 28  1  6
 27 29  1  0
 29 30  1  0
 30 31  1  0
 31 32  1  6
  7  5  1  0
 31 10  1  0
 31 13  1  0
 27 15  1  0
 24 18  1  0
  1 33  1  0
  1 34  1  0
  1 35  1  0
  2 36  1  1
  3 37  1  0
  3 38  1  0
  4 39  1  0
  4 40  1  0
  5 41  1  1
  8 42  1  0
  8 43  1  0
  8 44  1  0
  9 45  1  0
  9 46  1  0
  9 47  1  0
 10 48  1  1
 11 49  1  0
 11 50  1  0
 12 51  1  0
 12 52  1  0
 14 53  1  0
 14 54  1  0
 14 55  1  0
 15 56  1  6
 16 57  1  0
 16 58  1  0
 17 59  1  0
 19 60  1  1
 20 61  1  0
 20 62  1  0
 21 63  1  0
 21 64  1  0
 22 65  1  1
 23 66  1  0
 25 67  1  0
 25 68  1  0
 25 69  1  0
 26 70  1  0
 26 71  1  0
 26 72  1  0
 28 73  1  0
 28 74  1  0
 28 75  1  0
 29 76  1  0
 29 77  1  0
 30 78  1  0
 30 79  1  0
 32 80  1  0
 32 81  1  0
 32 82  1  0
M  END
>  <meeko>  (6) 
{"is_sidechain": [false], "intermolecular_energy": 2.731, "internal_energy": -0.839}

$$$$
EPH_relaxed_0001_pdb2pqr_Repair_390_r2_0001_out
     RDKit          3D

 82 86  0  0  0  0  0  0  0  0999 V2000
   -5.0620    6.0260   -4.6230 C   0  0  0  0  0  0  0  0  0  0  0  0
   -5.4550    6.9430   -3.4610 C   0  0  2  0  0  0  0  0  0  0  0  0
   -4.4170    6.9140   -2.3220 C   0  0  0  0  0  0  0  0  0  0  0  0
   -3.1330    7.6850   -2.6390 C   0  0  0  0  0  0  0  0  0  0  0  0
   -2.4540    8.1690   -1.3930 C   0  0  2  0  0  0  0  0  0  0  0  0
   -2.5210    9.5860   -1.1860 O   0  0  0  0  0  0  0  0  0  0  0  0
   -1.2110    9.0380   -1.4010 C   0  0  0  0  0  0  0  0  0  0  0  0
   -0.5720    9.4740   -2.6820 C   0  0  0  0  0  0  0  0  0  0  0  0
   -0.3420    9.0560   -0.1820 C   0  0  0  0  0  0  0  0  0  0  0  0
   -6.8260    6.5460   -2.9270 C   0  0  1  0  0  0  0  0  0  0  0  0
   -6.7800    5.2600   -2.0610 C   0  0  0  0  0  0  0  0  0  0  0  0
   -7.8380    5.4370   -0.9410 C   0  0  0  0  0  0  0  0  0  0  0  0
   -8.6790    6.6550   -1.3880 C   0  0  1  0  0  0  0  0  0  0  0  0
   -9.6930    6.0820   -2.4280 C   0  0  0  0  0  0  0  0  0  0  0  0
   -9.4040    7.4480   -0.2520 C   0  0  2  0  0  0  0  0  0  0  0  0
  -10.4540    6.6470    0.5360 C   0  0  0  0  0  0  0  0  0  0  0  0
  -11.8430    6.7080   -0.0080 C   0  0  0  0  0  0  0  0  0  0  0  0
  -12.2910    7.5990   -0.9120 C   0  0  0  0  0  0  0  0  0  0  0  0
  -11.3900    8.7360   -1.4100 C   0  0  1  0  0  0  0  0  0  0  0  0
  -12.1800   10.0710   -1.3860 C   0  0  0  0  0  0  0  0  0  0  0  0
  -13.4940    9.9860   -2.1580 C   0  0  0  0  0  0  0  0  0  0  0  0
  -14.3860    8.8830   -1.5970 C   0  0  2  0  0  0  0  0  0  0  0  0
  -14.7970    9.2490   -0.2760 O   0  0  0  0  0  0  0  0  0  0  0  0
  -13.6930    7.4920   -1.5620 C   0  0  0  0  0  0  0  0  0  0  0  0
  -13.5200    6.9600   -3.0060 C   0  0  0  0  0  0  0  0  0  0  0  0
  -14.6480    6.5000   -0.8450 C   0  0  0  0  0  0  0  0  0  0  0  0
   -9.9710    8.8550   -0.7050 C   0  0  1  0  0  0  0  0  0  0  0  0
  -10.0880    9.7230    0.5850 C   0  0  0  0  0  0  0  0  0  0  0  0
   -8.9820    9.6180   -1.6640 C   0  0  0  0  0  0  0  0  0  0  0  0
   -8.2060    8.7630   -2.6840 C   0  0  0  0  0  0  0  0  0  0  0  0
   -7.5500    7.5580   -2.0030 C   0  0  2  0  0  0  0  0  0  0  0  0
   -6.5090    8.1030   -0.9670 C   0  0  0  0  0  0  0  0  0  0  0  0
   -4.6580    5.0832   -4.2256 H   0  0  0  0  0  0  0  0  0  0  0  0
   -5.9484    5.8143   -5.2390 H   0  0  0  0  0  0  0  0  0  0  0  0
   -4.2974    6.5219   -5.2390 H   0  0  0  0  0  0  0  0  0  0  0  0
   -5.4906    7.9719   -3.8485 H   0  0  0  0  0  0  0  0  0  0  0  0
   -4.8743    7.3554   -1.4242 H   0  0  0  0  0  0  0  0  0  0  0  0
   -4.1317    5.8620   -2.1741 H   0  0  0  0  0  0  0  0  0  0  0  0
   -2.4453    7.0227   -3.1853 H   0  0  0  0  0  0  0  0  0  0  0  0
   -3.4012    8.5624   -3.2459 H   0  0  0  0  0  0  0  0  0  0  0  0
   -2.6960    7.2322   -0.8696 H   0  0  0  0  0  0  0  0  0  0  0  0
    0.3179   10.0812   -2.4598 H   0  0  0  0  0  0  0  0  0  0  0  0
   -0.2759    8.5887   -3.2639 H   0  0  0  0  0  0  0  0  0  0  0  0
   -1.2883   10.0725   -3.2639 H   0  0  0  0  0  0  0  0  0  0  0  0
   -0.9734    9.0429    0.7186 H   0  0  0  0  0  0  0  0  0  0  0  0
    0.3115    8.1712   -0.1845 H   0  0  0  0  0  0  0  0  0  0  0  0
    0.2743    9.9671   -0.1845 H   0  0  0  0  0  0  0  0  0  0  0  0
   -7.3719    6.4463   -3.8768 H   0  0  0  0  0  0  0  0  0  0  0  0
   -7.0225    4.3805   -2.6756 H   0  0  0  0  0  0  0  0  0  0  0  0
   -5.7772    5.1054   -1.6363 H   0  0  0  0  0  0  0  0  0  0  0  0
   -8.4685    4.5395   -0.8570 H   0  0  0  0  0  0  0  0  0  0  0  0
   -7.3784    5.5873    0.0470 H   0  0  0  0  0  0  0  0  0  0  0  0
  -10.5325    5.6076   -1.8986 H   0  0  0  0  0  0  0  0  0  0  0  0
  -10.0723    6.8993   -3.0590 H   0  0  0  0  0  0  0  0  0  0  0  0
   -9.1886    5.3354   -3.0590 H   0  0  0  0  0  0  0  0  0  0  0  0
   -8.5862    7.6453    0.4567 H   0  0  0  0  0  0  0  0  0  0  0  0
  -10.1394    5.5930    0.5472 H   0  0  0  0  0  0  0  0  0  0  0  0
  -10.4983    7.1042    1.5355 H   0  0  0  0  0  0  0  0  0  0  0  0
  -12.5614    5.9613    0.3614 H   0  0  0  0  0  0  0  0  0  0  0  0
  -11.1211    8.4796   -2.4454 H   0  0  0  0  0  0  0  0  0  0  0  0
  -12.4013   10.3313   -0.3404 H   0  0  0  0  0  0  0  0  0  0  0  0
  -11.5567   10.8372   -1.8701 H   0  0  0  0  0  0  0  0  0  0  0  0
  -14.0201   10.9489   -2.0801 H   0  0  0  0  0  0  0  0  0  0  0  0
  -13.2689    9.7544   -3.2095 H   0  0  0  0  0  0  0  0  0  0  0  0
  -15.2510    8.7853   -2.2694 H   0  0  0  0  0  0  0  0  0  0  0  0
  -15.7020    8.9170   -0.1470 H   0  0  0  0  0  0  0  0  0  0  0  0
  -13.1800    5.9144   -2.9733 H   0  0  0  0  0  0  0  0  0  0  0  0
  -14.4827    7.0161   -3.5352 H   0  0  0  0  0  0  0  0  0  0  0  0
  -12.7744    7.5716   -3.5352 H   0  0  0  0  0  0  0  0  0  0  0  0
  -14.5414    6.6108    0.2442 H   0  0  0  0  0  0  0  0  0  0  0  0
  -15.6867    6.7161   -1.1356 H   0  0  0  0  0  0  0  0  0  0  0  0
  -14.3926    5.4703   -1.1356 H   0  0  0  0  0  0  0  0  0  0  0  0
  -10.0009    9.0768    1.4709 H   0  0  0  0  0  0  0  0  0  0  0  0
   -9.2827   10.4723    0.5971 H   0  0  0  0  0  0  0  0  0  0  0  0
  -11.0629   10.2323    0.5971 H   0  0  0  0  0  0  0  0  0  0  0  0
   -9.5694   10.3575   -2.2280 H   0  0  0  0  0  0  0  0  0  0  0  0
   -8.2137   10.0465   -1.0037 H   0  0  0  0  0  0  0  0  0  0  0  0
   -8.9021    8.4047   -3.4568 H   0  0  0  0  0  0  0  0  0  0  0  0
   -7.4173    9.3838   -3.1341 H   0  0  0  0  0  0  0  0  0  0  0  0
   -6.8730    7.9124    0.0534 H   0  0  0  0  0  0  0  0  0  0  0  0
   -5.5449    7.5939   -1.1135 H   0  0  0  0  0  0  0  0  0  0  0  0
   -6.3781    9.1853   -1.1135 H   0  0  0  0  0  0  0  0  0  0  0  0
  1  2  1  0
  2  3  1  0
  3  4  1  0
  4  5  1  0
  5  6  1  0
  6  7  1  0
  7  8  1  0
  7  9  1  0
  2 10  1  0
 10 11  1  0
 11 12  1  0
 12 13  1  0
 13 14  1  6
 13 15  1  0
 15 16  1  0
 16 17  1  0
 17 18  2  0
 18 19  1  0
 19 20  1  0
 20 21  1  0
 21 22  1  0
 22 23  1  0
 22 24  1  0
 24 25  1  0
 24 26  1  0
 19 27  1  0
 27 28  1  1
 27 29  1  0
 29 30  1  0
 30 31  1  0
 31 32  1  1
  7  5  1  0
 31 10  1  0
 31 13  1  0
 27 15  1  0
 24 18  1  0
  1 33  1  0
  1 34  1  0
  1 35  1  0
  2 36  1  6
  3 37  1  0
  3 38  1  0
  4 39  1  0
  4 40  1  0
  5 41  1  1
  8 42  1  0
  8 43  1  0
  8 44  1  0
  9 45  1  0
  9 46  1  0
  9 47  1  0
 10 48  1  6
 11 49  1  0
 11 50  1  0
 12 51  1  0
 12 52  1  0
 14 53  1  0
 14 54  1  0
 14 55  1  0
 15 56  1  1
 16 57  1  0
 16 58  1  0
 17 59  1  0
 19 60  1  6
 20 61  1  0
 20 62  1  0
 21 63  1  0
 21 64  1  0
 22 65  1  6
 23 66  1  0
 25 67  1  0
 25 68  1  0
 25 69  1  0
 26 70  1  0
 26 71  1  0
 26 72  1  0
 28 73  1  0
 28 74  1  0
 28 75  1  0
 29 76  1  0
 29 77  1  0
 30 78  1  0
 30 79  1  0
 32 80  1  0
 32 81  1  0
 32 82  1  0
M  END
>  <meeko>  (7) 
{"is_sidechain": [false], "intermolecular_energy": 2.731, "internal_energy": -0.839}

$$$$
EPH_relaxed_0001_pdb2pqr_Repair_390_r2_0001_out
     RDKit          3D

 82 86  0  0  0  0  0  0  0  0999 V2000
   -0.2330   10.3760   -3.6330 C   0  0  0  0  0  0  0  0  0  0  0  0
    0.9580   10.2410   -2.6800 C   0  0  2  0  0  0  0  0  0  0  0  0
    0.8810    8.9550   -1.8330 C   0  0  0  0  0  0  0  0  0  0  0  0
    0.2260    9.1580   -0.4630 C   0  0  0  0  0  0  0  0  0  0  0  0
   -1.1770    8.6320   -0.4360 C   0  0  2  0  0  0  0  0  0  0  0  0
   -1.8720    8.7140   -1.6880 O   0  0  0  0  0  0  0  0  0  0  0  0
   -2.4030    9.5080   -0.6140 C   0  0  0  0  0  0  0  0  0  0  0  0
   -2.2820   10.9840   -0.8320 C   0  0  0  0  0  0  0  0  0  0  0  0
   -3.7160    9.0150   -0.0930 C   0  0  0  0  0  0  0  0  0  0  0  0
    1.0350   11.4610   -1.7690 C   0  0  1  0  0  0  0  0  0  0  0  0
    2.1070   11.3090   -0.6570 C   0  0  0  0  0  0  0  0  0  0  0  0
    2.7110   12.7170   -0.4220 C   0  0  0  0  0  0  0  0  0  0  0  0
    1.7500   13.6810   -1.1570 C   0  0  1  0  0  0  0  0  0  0  0  0
    0.5590   13.8900   -0.1700 C   0  0  0  0  0  0  0  0  0  0  0  0
    2.3600   15.0430   -1.6220 C   0  0  2  0  0  0  0  0  0  0  0  0
    2.8670   15.9520   -0.4880 C   0  0  0  0  0  0  0  0  0  0  0  0
    1.8620   16.9100    0.0600 C   0  0  0  0  0  0  0  0  0  0  0  0
    0.6940   17.2370   -0.5240 C   0  0  0  0  0  0  0  0  0  0  0  0
    0.3280   16.6960   -1.9120 C   0  0  1  0  0  0  0  0  0  0  0  0
   -0.2100   17.8530   -2.7940 C   0  0  0  0  0  0  0  0  0  0  0  0
   -1.3660   18.6010   -2.1360 C   0  0  0  0  0  0  0  0  0  0  0  0
   -0.9460   19.1730   -0.7850 C   0  0  2  0  0  0  0  0  0  0  0  0
    0.0330   20.1940   -1.0010 O   0  0  0  0  0  0  0  0  0  0  0  0
   -0.3780   18.1010    0.1860 C   0  0  0  0  0  0  0  0  0  0  0  0
   -1.5200   17.1670    0.6570 C   0  0  0  0  0  0  0  0  0  0  0  0
    0.1380   18.8310    1.4550 C   0  0  0  0  0  0  0  0  0  0  0  0
    1.4540   15.8440   -2.6430 C   0  0  1  0  0  0  0  0  0  0  0  0
    2.4060   16.7910   -3.4350 C   0  0  0  0  0  0  0  0  0  0  0  0
    0.7770   14.9030   -3.7080 C   0  0  0  0  0  0  0  0  0  0  0  0
    0.3030   13.5230   -3.2140 C   0  0  0  0  0  0  0  0  0  0  0  0
    1.4070   12.8150   -2.4230 C   0  0  2  0  0  0  0  0  0  0  0  0
    2.6110   12.5710   -3.3970 C   0  0  0  0  0  0  0  0  0  0  0  0
   -1.1595   10.4810   -3.0494 H   0  0  0  0  0  0  0  0  0  0  0  0
   -0.0964   11.2644   -4.2671 H   0  0  0  0  0  0  0  0  0  0  0  0
   -0.2987    9.4795   -4.2671 H   0  0  0  0  0  0  0  0  0  0  0  0
    1.8682   10.1774   -3.2944 H   0  0  0  0  0  0  0  0  0  0  0  0
    0.2972    8.2071   -2.3896 H   0  0  0  0  0  0  0  0  0  0  0  0
    1.9153    8.6286   -1.6495 H   0  0  0  0  0  0  0  0  0  0  0  0
    0.8195    8.6297    0.2977 H   0  0  0  0  0  0  0  0  0  0  0  0
    0.1914   10.2378   -0.2561 H   0  0  0  0  0  0  0  0  0  0  0  0
   -0.9074    7.8865    0.3266 H   0  0  0  0  0  0  0  0  0  0  0  0
   -2.2400   11.4961    0.1406 H   0  0  0  0  0  0  0  0  0  0  0  0
   -1.3634   11.1969   -1.3984 H   0  0  0  0  0  0  0  0  0  0  0  0
   -3.1537   11.3437   -1.3984 H   0  0  0  0  0  0  0  0  0  0  0  0
   -3.6997    9.0211    1.0069 H   0  0  0  0  0  0  0  0  0  0  0  0
   -4.5225    9.6715   -0.4514 H   0  0  0  0  0  0  0  0  0  0  0  0
   -3.8911    7.9899   -0.4514 H   0  0  0  0  0  0  0  0  0  0  0  0
   -0.0047   11.4894   -1.4108 H   0  0  0  0  0  0  0  0  0  0  0  0
    1.6428   10.9368    0.2682 H   0  0  0  0  0  0  0  0  0  0  0  0
    2.8849   10.5903   -0.9542 H   0  0  0  0  0  0  0  0  0  0  0  0
    2.7476   12.9495    0.6525 H   0  0  0  0  0  0  0  0  0  0  0  0
    3.7440   12.7950   -0.7919 H   0  0  0  0  0  0  0  0  0  0  0  0
    0.9251   13.8257    0.8653 H   0  0  0  0  0  0  0  0  0  0  0  0
    0.1115   14.8804   -0.3399 H   0  0  0  0  0  0  0  0  0  0  0  0
   -0.1990   13.1111   -0.3399 H   0  0  0  0  0  0  0  0  0  0  0  0
    3.2569   14.7239   -2.1731 H   0  0  0  0  0  0  0  0  0  0  0  0
    3.2078   15.3086    0.3365 H   0  0  0  0  0  0  0  0  0  0  0  0
    3.6663   16.5677   -0.9263 H   0  0  0  0  0  0  0  0  0  0  0  0
    2.0955   17.3892    1.0222 H   0  0  0  0  0  0  0  0  0  0  0  0
   -0.4654   15.9518   -1.7486 H   0  0  0  0  0  0  0  0  0  0  0  0
    0.6086   18.5635   -2.9816 H   0  0  0  0  0  0  0  0  0  0  0  0
   -0.5861   17.4130   -3.7294 H   0  0  0  0  0  0  0  0  0  0  0  0
   -1.6825   19.4245   -2.7930 H   0  0  0  0  0  0  0  0  0  0  0  0
   -2.1953   17.8961   -1.9766 H   0  0  0  0  0  0  0  0  0  0  0  0
   -1.8478   19.5819   -0.3060 H   0  0  0  0  0  0  0  0  0  0  0  0
    0.0150   20.4240   -1.9450 H   0  0  0  0  0  0  0  0  0  0  0  0
   -1.5462   17.1456    1.7565 H   0  0  0  0  0  0  0  0  0  0  0  0
   -2.4811   17.5413    0.2745 H   0  0  0  0  0  0  0  0  0  0  0  0
   -1.3439   16.1508    0.2745 H   0  0  0  0  0  0  0  0  0  0  0  0
   -0.2295   18.3111    2.3520 H   0  0  0  0  0  0  0  0  0  0  0  0
    1.2380   18.8312    1.4561 H   0  0  0  0  0  0  0  0  0  0  0  0
   -0.2288   19.8680    1.4561 H   0  0  0  0  0  0  0  0  0  0  0  0
    3.0034   17.3853   -2.7280 H   0  0  0  0  0  0  0  0  0  0  0  0
    3.0766   16.1912   -4.0679 H   0  0  0  0  0  0  0  0  0  0  0  0
    1.8097   17.4647   -4.0679 H   0  0  0  0  0  0  0  0  0  0  0  0
   -0.0999   15.4319   -4.1097 H   0  0  0  0  0  0  0  0  0  0  0  0
    1.5646   14.6897   -4.4457 H   0  0  0  0  0  0  0  0  0  0  0  0
   -0.5758   13.6552   -2.5658 H   0  0  0  0  0  0  0  0  0  0  0  0
    0.0473   12.9063   -4.0883 H   0  0  0  0  0  0  0  0  0  0  0  0
    3.5241   12.3860   -2.8121 H   0  0  0  0  0  0  0  0  0  0  0  0
    2.3985   11.6977   -4.0311 H   0  0  0  0  0  0  0  0  0  0  0  0
    2.7552   13.4582   -4.0311 H   0  0  0  0  0  0  0  0  0  0  0  0
  1  2  1  0
  2  3  1  0
  3  4  1  0
  4  5  1  0
  5  6  1  0
  6  7  1  0
  7  8  1  0
  7  9  1  0
  2 10  1  0
 10 11  1  0
 11 12  1  0
 12 13  1  0
 13 14  1  1
 13 15  1  0
 15 16  1  0
 16 17  1  0
 17 18  2  0
 18 19  1  0
 19 20  1  0
 20 21  1  0
 21 22  1  0
 22 23  1  0
 22 24  1  0
 24 25  1  0
 24 26  1  0
 19 27  1  0
 27 28  1  6
 27 29  1  0
 29 30  1  0
 30 31  1  0
 31 32  1  6
  7  5  1  0
 31 10  1  0
 31 13  1  0
 27 15  1  0
 24 18  1  0
  1 33  1  0
  1 34  1  0
  1 35  1  0
  2 36  1  6
  3 37  1  0
  3 38  1  0
  4 39  1  0
  4 40  1  0
  5 41  1  1
  8 42  1  0
  8 43  1  0
  8 44  1  0
  9 45  1  0
  9 46  1  0
  9 47  1  0
 10 48  1  1
 11 49  1  0
 11 50  1  0
 12 51  1  0
 12 52  1  0
 14 53  1  0
 14 54  1  0
 14 55  1  0
 15 56  1  6
 16 57  1  0
 16 58  1  0
 17 59  1  0
 19 60  1  1
 20 61  1  0
 20 62  1  0
 21 63  1  0
 21 64  1  0
 22 65  1  1
 23 66  1  0
 25 67  1  0
 25 68  1  0
 25 69  1  0
 26 70  1  0
 26 71  1  0
 26 72  1  0
 28 73  1  0
 28 74  1  0
 28 75  1  0
 29 76  1  0
 29 77  1  0
 30 78  1  0
 30 79  1  0
 32 80  1  0
 32 81  1  0
 32 82  1  0
M  END
>  <meeko>  (8) 
{"is_sidechain": [false], "intermolecular_energy": 2.731, "internal_energy": -0.839}

$$$$
EPH_relaxed_0001_pdb2pqr_Repair_390_r2_0001_out
     RDKit          3D

 82 86  0  0  0  0  0  0  0  0999 V2000
   -5.1450    5.9910   -1.7620 C   0  0  0  0  0  0  0  0  0  0  0  0
   -5.4630    7.4870   -1.8310 C   0  0  2  0  0  0  0  0  0  0  0  0
   -5.2250    8.1940   -0.4810 C   0  0  0  0  0  0  0  0  0  0  0  0
   -4.2390    9.3630   -0.5630 C   0  0  0  0  0  0  0  0  0  0  0  0
   -2.8300    8.9180   -0.3110 C   0  0  2  0  0  0  0  0  0  0  0  0
   -2.1460    9.6510    0.7130 O   0  0  0  0  0  0  0  0  0  0  0  0
   -1.6160    9.7750   -0.6170 C   0  0  0  0  0  0  0  0  0  0  0  0
   -1.7550   11.1450   -1.2020 C   0  0  0  0  0  0  0  0  0  0  0  0
   -0.2930    9.1000   -0.8030 C   0  0  0  0  0  0  0  0  0  0  0  0
   -6.9050    7.6920   -2.2790 C   0  0  1  0  0  0  0  0  0  0  0  0
   -7.2210    6.9780   -3.6210 C   0  0  0  0  0  0  0  0  0  0  0  0
   -8.6890    6.4900   -3.5320 C   0  0  0  0  0  0  0  0  0  0  0  0
   -9.2690    7.2180   -2.2970 C   0  0  1  0  0  0  0  0  0  0  0  0
   -9.6420    8.6440   -2.8110 C   0  0  0  0  0  0  0  0  0  0  0  0
  -10.4790    6.5240   -1.5910 C   0  0  2  0  0  0  0  0  0  0  0  0
  -11.7420    6.3750   -2.4570 C   0  0  0  0  0  0  0  0  0  0  0  0
  -12.7080    7.5110   -2.3770 C   0  0  0  0  0  0  0  0  0  0  0  0
  -12.7110    8.4700   -1.4330 C   0  0  0  0  0  0  0  0  0  0  0  0
  -11.7310    8.4170   -0.2530 C   0  0  1  0  0  0  0  0  0  0  0  0
  -12.4950    8.7020    1.0670 C   0  0  0  0  0  0  0  0  0  0  0  0
  -13.2790   10.0100    1.0180 C   0  0  0  0  0  0  0  0  0  0  0  0
  -14.2830   10.0010   -0.1320 C   0  0  2  0  0  0  0  0  0  0  0  0
  -15.2870    9.0180    0.1400 O   0  0  0  0  0  0  0  0  0  0  0  0
  -13.6300    9.7130   -1.5130 C   0  0  0  0  0  0  0  0  0  0  0  0
  -12.7710   10.9270   -1.9450 C   0  0  0  0  0  0  0  0  0  0  0  0
  -14.7680    9.5920   -2.5620 C   0  0  0  0  0  0  0  0  0  0  0  0
  -10.8230    7.1160   -0.1640 C   0  0  1  0  0  0  0  0  0  0  0  0
  -11.5760    5.9940    0.6140 C   0  0  0  0  0  0  0  0  0  0  0  0
   -9.5310    7.4470    0.6730 C   0  0  0  0  0  0  0  0  0  0  0  0
   -8.3290    8.0190   -0.1010 C   0  0  0  0  0  0  0  0  0  0  0  0
   -8.0220    7.1720   -1.3410 C   0  0  2  0  0  0  0  0  0  0  0  0
   -7.6220    5.7380   -0.8540 C   0  0  0  0  0  0  0  0  0  0  0  0
   -5.0786    5.6784   -0.7094 H   0  0  0  0  0  0  0  0  0  0  0  0
   -5.9425    5.4231   -2.2635 H   0  0  0  0  0  0  0  0  0  0  0  0
   -4.1855    5.7966   -2.2635 H   0  0  0  0  0  0  0  0  0  0  0  0
   -4.7784    7.9372   -2.5649 H   0  0  0  0  0  0  0  0  0  0  0  0
   -6.1889    8.5778   -0.1154 H   0  0  0  0  0  0  0  0  0  0  0  0
   -4.7845    7.4493    0.1983 H   0  0  0  0  0  0  0  0  0  0  0  0
   -4.2978    9.8094   -1.5666 H   0  0  0  0  0  0  0  0  0  0  0  0
   -4.5109   10.0961    0.2108 H   0  0  0  0  0  0  0  0  0  0  0  0
   -3.0850    7.8802   -0.5715 H   0  0  0  0  0  0  0  0  0  0  0  0
   -1.8300   11.8842   -0.3908 H   0  0  0  0  0  0  0  0  0  0  0  0
   -0.8750   11.3697   -1.8226 H   0  0  0  0  0  0  0  0  0  0  0  0
   -2.6622   11.1884   -1.8226 H   0  0  0  0  0  0  0  0  0  0  0  0
    0.1459    8.8761    0.1805 H   0  0  0  0  0  0  0  0  0  0  0  0
   -0.4345    8.1639   -1.3631 H   0  0  0  0  0  0  0  0  0  0  0  0
    0.3819    9.7640   -1.3631 H   0  0  0  0  0  0  0  0  0  0  0  0
   -6.9303    8.7909   -2.3208 H   0  0  0  0  0  0  0  0  0  0  0  0
   -7.1052    7.6798   -4.4601 H   0  0  0  0  0  0  0  0  0  0  0  0
   -6.5342    6.1359   -3.7920 H   0  0  0  0  0  0  0  0  0  0  0  0
   -9.2449    6.7641   -4.4407 H   0  0  0  0  0  0  0  0  0  0  0  0
   -8.7598    5.3960   -3.4422 H   0  0  0  0  0  0  0  0  0  0  0  0
   -9.8160    9.3093   -1.9525 H   0  0  0  0  0  0  0  0  0  0  0  0
   -8.8175    9.0411   -3.4214 H   0  0  0  0  0  0  0  0  0  0  0  0
  -10.5553    8.5865   -3.4214 H   0  0  0  0  0  0  0  0  0  0  0  0
  -10.1045    5.5021   -1.4311 H   0  0  0  0  0  0  0  0  0  0  0  0
  -11.4251    6.2715   -3.5053 H   0  0  0  0  0  0  0  0  0  0  0  0
  -12.2749    5.4945   -2.0689 H   0  0  0  0  0  0  0  0  0  0  0  0
  -13.4828    7.5688   -3.1557 H   0  0  0  0  0  0  0  0  0  0  0  0
  -10.9915    9.2107   -0.4353 H   0  0  0  0  0  0  0  0  0  0  0  0
  -13.1977    7.8764    1.2531 H   0  0  0  0  0  0  0  0  0  0  0  0
  -11.7503    8.7888    1.8719 H   0  0  0  0  0  0  0  0  0  0  0  0
  -13.8196   10.1416    1.9669 H   0  0  0  0  0  0  0  0  0  0  0  0
  -12.5719   10.8377    0.8605 H   0  0  0  0  0  0  0  0  0  0  0  0
  -14.7205   11.0082   -0.1959 H   0  0  0  0  0  0  0  0  0  0  0  0
  -15.6850    8.7620   -0.7090 H   0  0  0  0  0  0  0  0  0  0  0  0
  -12.4005   11.4506   -1.0514 H   0  0  0  0  0  0  0  0  0  0  0  0
  -11.9180   10.5776   -2.5452 H   0  0  0  0  0  0  0  0  0  0  0  0
  -13.3843   11.6151   -2.5452 H   0  0  0  0  0  0  0  0  0  0  0  0
  -15.7336    9.4893   -2.0452 H   0  0  0  0  0  0  0  0  0  0  0  0
  -14.7833   10.4936   -3.1920 H   0  0  0  0  0  0  0  0  0  0  0  0
  -14.5934    8.7074   -3.1920 H   0  0  0  0  0  0  0  0  0  0  0  0
  -11.4647    6.1598    1.6957 H   0  0  0  0  0  0  0  0  0  0  0  0
  -12.6430    6.0158    0.3476 H   0  0  0  0  0  0  0  0  0  0  0  0
  -11.1515    5.0148    0.3476 H   0  0  0  0  0  0  0  0  0  0  0  0
   -9.8119    8.1820    1.4417 H   0  0  0  0  0  0  0  0  0  0  0  0
   -9.1863    6.4786    1.0646 H   0  0  0  0  0  0  0  0  0  0  0  0
   -8.5600    9.0474   -0.4158 H   0  0  0  0  0  0  0  0  0  0  0  0
   -7.4489    8.0070    0.5588 H   0  0  0  0  0  0  0  0  0  0  0  0
   -7.6150    5.7129    0.2457 H   0  0  0  0  0  0  0  0  0  0  0  0
   -8.3502    5.0057   -1.2328 H   0  0  0  0  0  0  0  0  0  0  0  0
   -6.6199    5.4883   -1.2328 H   0  0  0  0  0  0  0  0  0  0  0  0
  1  2  1  0
  2  3  1  0
  3  4  1  0
  4  5  1  0
  5  6  1  0
  6  7  1  0
  7  8  1  0
  7  9  1  0
  2 10  1  0
 10 11  1  0
 11 12  1  0
 12 13  1  0
 13 14  1  6
 13 15  1  0
 15 16  1  0
 16 17  1  0
 17 18  2  0
 18 19  1  0
 19 20  1  0
 20 21  1  0
 21 22  1  0
 22 23  1  0
 22 24  1  0
 24 25  1  0
 24 26  1  0
 19 27  1  0
 27 28  1  1
 27 29  1  0
 29 30  1  0
 30 31  1  0
 31 32  1  1
  7  5  1  0
 31 10  1  0
 31 13  1  0
 27 15  1  0
 24 18  1  0
  1 33  1  0
  1 34  1  0
  1 35  1  0
  2 36  1  6
  3 37  1  0
  3 38  1  0
  4 39  1  0
  4 40  1  0
  5 41  1  1
  8 42  1  0
  8 43  1  0
  8 44  1  0
  9 45  1  0
  9 46  1  0
  9 47  1  0
 10 48  1  6
 11 49  1  0
 11 50  1  0
 12 51  1  0
 12 52  1  0
 14 53  1  0
 14 54  1  0
 14 55  1  0
 15 56  1  1
 16 57  1  0
 16 58  1  0
 17 59  1  0
 19 60  1  6
 20 61  1  0
 20 62  1  0
 21 63  1  0
 21 64  1  0
 22 65  1  6
 23 66  1  0
 25 67  1  0
 25 68  1  0
 25 69  1  0
 26 70  1  0
 26 71  1  0
 26 72  1  0
 28 73  1  0
 28 74  1  0
 28 75  1  0
 29 76  1  0
 29 77  1  0
 30 78  1  0
 30 79  1  0
 32 80  1  0
 32 81  1  0
 32 82  1  0
M  END
>  <meeko>  (9) 
{"is_sidechain": [false], "intermolecular_energy": 2.731, "internal_energy": -0.839}

$$$$
EPH_relaxed_0001_pdb2pqr_Repair_390_r2_0001_out
     RDKit          3D

 82 86  0  0  0  0  0  0  0  0999 V2000
    0.4460    8.7920   -2.3500 C   0  0  0  0  0  0  0  0  0  0  0  0
    1.1820    9.9330   -3.0580 C   0  0  2  0  0  0  0  0  0  0  0  0
    2.6840    9.9580   -2.7120 C   0  0  0  0  0  0  0  0  0  0  0  0
    3.5580   10.5760   -3.8070 C   0  0  0  0  0  0  0  0  0  0  0  0
    4.9580   10.8180   -3.3280 C   0  0  2  0  0  0  0  0  0  0  0  0
    5.5580   12.0240   -3.8180 O   0  0  0  0  0  0  0  0  0  0  0  0
    6.1700   10.7950   -4.2410 C   0  0  0  0  0  0  0  0  0  0  0  0
    6.0370   10.5230   -5.7070 C   0  0  0  0  0  0  0  0  0  0  0  0
    7.5170   10.5520   -3.6360 C   0  0  0  0  0  0  0  0  0  0  0  0
    0.5420   11.2680   -2.6970 C   0  0  1  0  0  0  0  0  0  0  0  0
   -0.8370   11.1010   -2.0040 C   0  0  0  0  0  0  0  0  0  0  0  0
   -0.9550   12.2450   -0.9640 C   0  0  0  0  0  0  0  0  0  0  0  0
    0.1950   13.2160   -1.3190 C   0  0  1  0  0  0  0  0  0  0  0  0
   -0.3530   14.0690   -2.5060 C   0  0  0  0  0  0  0  0  0  0  0  0
    0.7220   14.1170   -0.1550 C   0  0  2  0  0  0  0  0  0  0  0  0
   -0.3100   15.0960    0.4310 C   0  0  0  0  0  0  0  0  0  0  0  0
   -0.3530   16.4410   -0.2150 C   0  0  0  0  0  0  0  0  0  0  0  0
    0.5900   16.9470   -1.0310 C   0  0  0  0  0  0  0  0  0  0  0  0
    1.8920   16.1820   -1.2990 C   0  0  1  0  0  0  0  0  0  0  0  0
    3.0980   17.1500   -1.1700 C   0  0  0  0  0  0  0  0  0  0  0  0
    2.9540   18.3840   -2.0550 C   0  0  0  0  0  0  0  0  0  0  0  0
    1.6770   19.1500   -1.7180 C   0  0  2  0  0  0  0  0  0  0  0  0
    1.7990   19.6940   -0.4000 O   0  0  0  0  0  0  0  0  0  0  0  0
    0.3960   18.2740   -1.8050 C   0  0  0  0  0  0  0  0  0  0  0  0
    0.0970   17.9340   -3.2860 C   0  0  0  0  0  0  0  0  0  0  0  0
   -0.8010   19.1280   -1.3050 C   0  0  0  0  0  0  0  0  0  0  0  0
    2.0940   14.8420   -0.4680 C   0  0  1  0  0  0  0  0  0  0  0  0
    2.7510   15.1650    0.9090 C   0  0  0  0  0  0  0  0  0  0  0  0
    3.1030   13.9080   -1.2340 C   0  0  0  0  0  0  0  0  0  0  0  0
    2.5060   12.9550   -2.2870 C   0  0  0  0  0  0  0  0  0  0  0  0
    1.3130   12.1840   -1.7150 C   0  0  2  0  0  0  0  0  0  0  0  0
    1.8370   11.3000   -0.5330 C   0  0  0  0  0  0  0  0  0  0  0  0
    0.5297    8.9217   -1.2609 H   0  0  0  0  0  0  0  0  0  0  0  0
   -0.6149    8.8042   -2.6403 H   0  0  0  0  0  0  0  0  0  0  0  0
    0.8946    7.8305   -2.6403 H   0  0  0  0  0  0  0  0  0  0  0  0
    1.0956    9.7605   -4.1409 H   0  0  0  0  0  0  0  0  0  0  0  0
    2.8182   10.5422   -1.7896 H   0  0  0  0  0  0  0  0  0  0  0  0
    3.0047    8.9121   -2.5969 H   0  0  0  0  0  0  0  0  0  0  0  0
    3.5889    9.8913   -4.6674 H   0  0  0  0  0  0  0  0  0  0  0  0
    3.1199   11.5446   -4.0897 H   0  0  0  0  0  0  0  0  0  0  0  0
    4.7437   10.3154   -2.3733 H   0  0  0  0  0  0  0  0  0  0  0  0
    5.5583    9.5440   -5.8563 H   0  0  0  0  0  0  0  0  0  0  0  0
    5.4206   11.3071   -6.1710 H   0  0  0  0  0  0  0  0  0  0  0  0
    7.0343   10.5181   -6.1710 H   0  0  0  0  0  0  0  0  0  0  0  0
    7.4344   10.5669   -2.5392 H   0  0  0  0  0  0  0  0  0  0  0  0
    7.8939    9.5714   -3.9620 H   0  0  0  0  0  0  0  0  0  0  0  0
    8.2128   11.3391   -3.9620 H   0  0  0  0  0  0  0  0  0  0  0  0
    0.5071   11.7314   -3.6940 H   0  0  0  0  0  0  0  0  0  0  0  0
   -1.6457   11.1781   -2.7457 H   0  0  0  0  0  0  0  0  0  0  0  0
   -0.9198   10.1166   -1.5202 H   0  0  0  0  0  0  0  0  0  0  0  0
   -1.9290   12.7489   -1.0500 H   0  0  0  0  0  0  0  0  0  0  0  0
   -0.8855   11.8770    0.0703 H   0  0  0  0  0  0  0  0  0  0  0  0
   -0.9080   14.9328   -2.1112 H   0  0  0  0  0  0  0  0  0  0  0  0
    0.4870   14.4231   -3.1216 H   0  0  0  0  0  0  0  0  0  0  0  0
   -1.0242   13.4522   -3.1216 H   0  0  0  0  0  0  0  0  0  0  0  0
    0.9219   13.3834    0.6399 H   0  0  0  0  0  0  0  0  0  0  0  0
   -1.3059   14.6395    0.3317 H   0  0  0  0  0  0  0  0  0  0  0  0
   -0.0062   15.2694    1.4739 H   0  0  0  0  0  0  0  0  0  0  0  0
   -1.2296   17.0719   -0.0064 H   0  0  0  0  0  0  0  0  0  0  0  0
    1.8188   15.8119   -2.3323 H   0  0  0  0  0  0  0  0  0  0  0  0
    3.1790   17.4749   -0.1222 H   0  0  0  0  0  0  0  0  0  0  0  0
    3.9979   16.6080   -1.4962 H   0  0  0  0  0  0  0  0  0  0  0  0
    3.8210   19.0426   -1.8985 H   0  0  0  0  0  0  0  0  0  0  0  0
    2.9026   18.0596   -3.1048 H   0  0  0  0  0  0  0  0  0  0  0  0
    1.5636   19.9471   -2.4675 H   0  0  0  0  0  0  0  0  0  0  0  0
    2.4060   20.4520   -0.4500 H   0  0  0  0  0  0  0  0  0  0  0  0
   -0.6287   17.1087   -3.3334 H   0  0  0  0  0  0  0  0  0  0  0  0
   -0.3208   18.8190   -3.7883 H   0  0  0  0  0  0  0  0  0  0  0  0
    1.0281   17.6328   -3.7883 H   0  0  0  0  0  0  0  0  0  0  0  0
   -0.8118   19.1357   -0.2051 H   0  0  0  0  0  0  0  0  0  0  0  0
   -0.6979   20.1577   -1.6779 H   0  0  0  0  0  0  0  0  0  0  0  0
   -1.7411   18.6954   -1.6779 H   0  0  0  0  0  0  0  0  0  0  0  0
    2.0837   14.8369    1.7196 H   0  0  0  0  0  0  0  0  0  0  0  0
    3.7126   14.6369    0.9893 H   0  0  0  0  0  0  0  0  0  0  0  0
    2.9201   16.2490    0.9893 H   0  0  0  0  0  0  0  0  0  0  0  0
    3.8318   14.5541   -1.7453 H   0  0  0  0  0  0  0  0  0  0  0  0
    3.5303   13.2517   -0.4616 H   0  0  0  0  0  0  0  0  0  0  0  0
    2.1722   13.5419   -3.1554 H   0  0  0  0  0  0  0  0  0  0  0  0
    3.2801   12.2325   -2.5851 H   0  0  0  0  0  0  0  0  0  0  0  0
    1.5606   11.7663    0.4242 H   0  0  0  0  0  0  0  0  0  0  0  0
    1.3866   10.2984   -0.5965 H   0  0  0  0  0  0  0  0  0  0  0  0
    2.9318   11.2144   -0.5965 H   0  0  0  0  0  0  0  0  0  0  0  0
  1  2  1  0
  2  3  1  0
  3  4  1  0
  4  5  1  0
  5  6  1  0
  6  7  1  0
  7  8  1  0
  7  9  1  0
  2 10  1  0
 10 11  1  0
 11 12  1  0
 12 13  1  0
 13 14  1  6
 13 15  1  0
 15 16  1  0
 16 17  1  0
 17 18  2  0
 18 19  1  0
 19 20  1  0
 20 21  1  0
 21 22  1  0
 22 23  1  0
 22 24  1  0
 24 25  1  0
 24 26  1  0
 19 27  1  0
 27 28  1  1
 27 29  1  0
 29 30  1  0
 30 31  1  0
 31 32  1  1
  7  5  1  0
 31 10  1  0
 31 13  1  0
 27 15  1  0
 24 18  1  0
  1 33  1  0
  1 34  1  0
  1 35  1  0
  2 36  1  6
  3 37  1  0
  3 38  1  0
  4 39  1  0
  4 40  1  0
  5 41  1  1
  8 42  1  0
  8 43  1  0
  8 44  1  0
  9 45  1  0
  9 46  1  0
  9 47  1  0
 10 48  1  6
 11 49  1  0
 11 50  1  0
 12 51  1  0
 12 52  1  0
 14 53  1  0
 14 54  1  0
 14 55  1  0
 15 56  1  1
 16 57  1  0
 16 58  1  0
 17 59  1  0
 19 60  1  6
 20 61  1  0
 20 62  1  0
 21 63  1  0
 21 64  1  0
 22 65  1  6
 23 66  1  0
 25 67  1  0
 25 68  1  0
 25 69  1  0
 26 70  1  0
 26 71  1  0
 26 72  1  0
 28 73  1  0
 28 74  1  0
 28 75  1  0
 29 76  1  0
 29 77  1  0
 30 78  1  0
 30 79  1  0
 32 80  1  0
 32 81  1  0
 32 82  1  0
M  END
>  <meeko>  (10) 
{"is_sidechain": [false], "intermolecular_energy": 2.731, "internal_energy": -0.839}

$$$$
EPH_relaxed_0001_pdb2pqr_Repair_390_r2_0001_out
     RDKit          3D

 82 86  0  0  0  0  0  0  0  0999 V2000
   -4.8870    9.2210   -0.4110 C   0  0  0  0  0  0  0  0  0  0  0  0
   -5.2380    7.9580   -1.2010 C   0  0  2  0  0  0  0  0  0  0  0  0
   -4.2210    7.6740   -2.3250 C   0  0  0  0  0  0  0  0  0  0  0  0
   -2.7860    7.4880   -1.8230 C   0  0  0  0  0  0  0  0  0  0  0  0
   -1.8590    8.5140   -2.4020 C   0  0  2  0  0  0  0  0  0  0  0  0
   -0.4810    8.3460   -2.0430 O   0  0  0  0  0  0  0  0  0  0  0  0
   -1.1200    9.5410   -1.5650 C   0  0  0  0  0  0  0  0  0  0  0  0
   -1.2760    9.5930   -0.0770 C   0  0  0  0  0  0  0  0  0  0  0  0
   -0.6350   10.7910   -2.2300 C   0  0  0  0  0  0  0  0  0  0  0  0
   -6.6390    8.0850   -1.7880 C   0  0  1  0  0  0  0  0  0  0  0  0
   -6.7740    7.3910   -3.1690 C   0  0  0  0  0  0  0  0  0  0  0  0
   -8.2090    6.8090   -3.2400 C   0  0  0  0  0  0  0  0  0  0  0  0
   -8.9540    7.4640   -2.0530 C   0  0  1  0  0  0  0  0  0  0  0  0
   -9.3670    8.8780   -2.5710 C   0  0  0  0  0  0  0  0  0  0  0  0
  -10.1800    6.6760   -1.4870 C   0  0  2  0  0  0  0  0  0  0  0  0
  -11.3390    6.4730   -2.4790 C   0  0  0  0  0  0  0  0  0  0  0  0
  -12.3800    7.5430   -2.4710 C   0  0  0  0  0  0  0  0  0  0  0  0
  -12.5390    8.4730   -1.5110 C   0  0  0  0  0  0  0  0  0  0  0  0
  -11.6790    8.4480   -0.2400 C   0  0  1  0  0  0  0  0  0  0  0  0
  -12.5860    8.6470    1.0030 C   0  0  0  0  0  0  0  0  0  0  0  0
  -13.4450    9.9040    0.9040 C   0  0  0  0  0  0  0  0  0  0  0  0
  -14.3280    9.8650   -0.3400 C   0  0  2  0  0  0  0  0  0  0  0  0
  -15.2870    8.8130   -0.1920 O   0  0  0  0  0  0  0  0  0  0  0  0
  -13.5250    9.6580   -1.6550 C   0  0  0  0  0  0  0  0  0  0  0  0
  -12.7080   10.9350   -1.9720 C   0  0  0  0  0  0  0  0  0  0  0  0
  -14.5430    9.4950   -2.8160 C   0  0  0  0  0  0  0  0  0  0  0  0
  -10.7010    7.2040   -0.0890 C   0  0  1  0  0  0  0  0  0  0  0  0
  -11.4520    6.0150    0.5840 C   0  0  0  0  0  0  0  0  0  0  0  0
   -9.5230    7.5920    0.8800 C   0  0  0  0  0  0  0  0  0  0  0  0
   -8.2890    8.2590    0.2430 C   0  0  0  0  0  0  0  0  0  0  0  0
   -7.8080    7.4690   -0.9780 C   0  0  2  0  0  0  0  0  0  0  0  0
   -7.3650    6.0500   -0.4850 C   0  0  0  0  0  0  0  0  0  0  0  0
   -4.9462    9.0078    0.6665 H   0  0  0  0  0  0  0  0  0  0  0  0
   -3.8659    9.5410   -0.6659 H   0  0  0  0  0  0  0  0  0  0  0  0
   -5.5966   10.0220   -0.6659 H   0  0  0  0  0  0  0  0  0  0  0  0
   -5.2025    7.1100   -0.5012 H   0  0  0  0  0  0  0  0  0  0  0  0
   -4.5280    6.7560   -2.8476 H   0  0  0  0  0  0  0  0  0  0  0  0
   -4.2191    8.5525   -2.9869 H   0  0  0  0  0  0  0  0  0  0  0  0
   -2.7773    7.5779   -0.7267 H   0  0  0  0  0  0  0  0  0  0  0  0
   -2.4380    6.4937   -2.1396 H   0  0  0  0  0  0  0  0  0  0  0  0
   -2.4864    8.6082   -3.3006 H   0  0  0  0  0  0  0  0  0  0  0  0
   -0.3363    9.2798    0.4014 H   0  0  0  0  0  0  0  0  0  0  0  0
   -1.5191   10.6208    0.2305 H   0  0  0  0  0  0  0  0  0  0  0  0
   -2.0872    8.9167    0.2305 H   0  0  0  0  0  0  0  0  0  0  0  0
   -0.3495   11.5268   -1.4638 H   0  0  0  0  0  0  0  0  0  0  0  0
    0.2378   10.5576   -2.8575 H   0  0  0  0  0  0  0  0  0  0  0  0
   -1.4368   11.2073   -2.8575 H   0  0  0  0  0  0  0  0  0  0  0  0
   -6.7309    9.1810   -1.8088 H   0  0  0  0  0  0  0  0  0  0  0  0
   -6.6216    8.1221   -3.9766 H   0  0  0  0  0  0  0  0  0  0  0  0
   -6.0205    6.5984   -3.2875 H   0  0  0  0  0  0  0  0  0  0  0  0
   -8.6889    7.0739   -4.1937 H   0  0  0  0  0  0  0  0  0  0  0  0
   -8.2173    5.7105   -3.1831 H   0  0  0  0  0  0  0  0  0  0  0  0
   -9.5604    9.5403   -1.7143 H   0  0  0  0  0  0  0  0  0  0  0  0
   -8.5536    9.2967   -3.1818 H   0  0  0  0  0  0  0  0  0  0  0  0
  -10.2779    8.7931   -3.1818 H   0  0  0  0  0  0  0  0  0  0  0  0
   -9.7574    5.6756   -1.3123 H   0  0  0  0  0  0  0  0  0  0  0  0
  -10.9139    6.4200   -3.4921 H   0  0  0  0  0  0  0  0  0  0  0  0
  -11.8490    5.5499   -2.1663 H   0  0  0  0  0  0  0  0  0  0  0  0
  -13.0763    7.5740   -3.3220 H   0  0  0  0  0  0  0  0  0  0  0  0
  -10.9788    9.2915   -0.3299 H   0  0  0  0  0  0  0  0  0  0  0  0
  -13.2481    7.7740    1.1000 H   0  0  0  0  0  0  0  0  0  0  0  0
  -11.9315    8.7576    1.8802 H   0  0  0  0  0  0  0  0  0  0  0  0
  -14.0838    9.9746    1.7967 H   0  0  0  0  0  0  0  0  0  0  0  0
  -12.7810   10.7783    0.8358 H   0  0  0  0  0  0  0  0  0  0  0  0
  -14.8220   10.8442   -0.4245 H   0  0  0  0  0  0  0  0  0  0  0  0
  -15.5550    8.7890    0.7420 H   0  0  0  0  0  0  0  0  0  0  0  0
  -12.4002   11.4161   -1.0319 H   0  0  0  0  0  0  0  0  0  0  0  0
  -11.8152   10.6639   -2.5546 H   0  0  0  0  0  0  0  0  0  0  0  0
  -13.3283   11.6320   -2.5546 H   0  0  0  0  0  0  0  0  0  0  0  0
  -15.5491    9.3339   -2.4015 H   0  0  0  0  0  0  0  0  0  0  0  0
  -14.5425   10.4047   -3.4345 H   0  0  0  0  0  0  0  0  0  0  0  0
  -14.2585    8.6310   -3.4345 H   0  0  0  0  0  0  0  0  0  0  0  0
  -11.3896    6.1139    1.6778 H   0  0  0  0  0  0  0  0  0  0  0  0
  -12.5075    6.0257    0.2745 H   0  0  0  0  0  0  0  0  0  0  0  0
  -10.9888    5.0665    0.2745 H   0  0  0  0  0  0  0  0  0  0  0  0
   -9.9258    8.2869    1.6316 H   0  0  0  0  0  0  0  0  0  0  0  0
   -9.1568    6.6366    1.2839 H   0  0  0  0  0  0  0  0  0  0  0  0
   -8.5532    9.2799   -0.0701 H   0  0  0  0  0  0  0  0  0  0  0  0
   -7.4793    8.2820    0.9872 H   0  0  0  0  0  0  0  0  0  0  0  0
   -7.3586    6.0294    0.6148 H   0  0  0  0  0  0  0  0  0  0  0  0
   -8.0700    5.2943   -0.8618 H   0  0  0  0  0  0  0  0  0  0  0  0
   -6.3553    5.8296   -0.8618 H   0  0  0  0  0  0  0  0  0  0  0  0
  1  2  1  0
  2  3  1  0
  3  4  1  0
  4  5  1  0
  5  6  1  0
  6  7  1  0
  7  8  1  0
  7  9  1  0
  2 10  1  0
 10 11  1  0
 11 12  1  0
 12 13  1  0
 13 14  1  6
 13 15  1  0
 15 16  1  0
 16 17  1  0
 17 18  2  0
 18 19  1  0
 19 20  1  0
 20 21  1  0
 21 22  1  0
 22 23  1  0
 22 24  1  0
 24 25  1  0
 24 26  1  0
 19 27  1  0
 27 28  1  1
 27 29  1  0
 29 30  1  0
 30 31  1  0
 31 32  1  1
  7  5  1  0
 31 10  1  0
 31 13  1  0
 27 15  1  0
 24 18  1  0
  1 33  1  0
  1 34  1  0
  1 35  1  0
  2 36  1  1
  3 37  1  0
  3 38  1  0
  4 39  1  0
  4 40  1  0
  5 41  1  6
  8 42  1  0
  8 43  1  0
  8 44  1  0
  9 45  1  0
  9 46  1  0
  9 47  1  0
 10 48  1  6
 11 49  1  0
 11 50  1  0
 12 51  1  0
 12 52  1  0
 14 53  1  0
 14 54  1  0
 14 55  1  0
 15 56  1  1
 16 57  1  0
 16 58  1  0
 17 59  1  0
 19 60  1  6
 20 61  1  0
 20 62  1  0
 21 63  1  0
 21 64  1  0
 22 65  1  6
 23 66  1  0
 25 67  1  0
 25 68  1  0
 25 69  1  0
 26 70  1  0
 26 71  1  0
 26 72  1  0
 28 73  1  0
 28 74  1  0
 28 75  1  0
 29 76  1  0
 29 77  1  0
 30 78  1  0
 30 79  1  0
 32 80  1  0
 32 81  1  0
 32 82  1  0
M  END
>  <meeko>  (11) 
{"is_sidechain": [false], "intermolecular_energy": 2.731, "internal_energy": -0.839}

$$$$
EPH_relaxed_0001_pdb2pqr_Repair_390_r2_0001_out
     RDKit          3D

 82 86  0  0  0  0  0  0  0  0999 V2000
  -14.6340    7.2940    0.5790 C   0  0  0  0  0  0  0  0  0  0  0  0
  -13.4480    8.2510    0.4210 C   0  0  2  0  0  0  0  0  0  0  0  0
  -13.8510    9.5640   -0.2790 C   0  0  0  0  0  0  0  0  0  0  0  0
  -15.2230    9.5050   -0.9560 C   0  0  0  0  0  0  0  0  0  0  0  0
  -15.1170    9.6740   -2.4410 C   0  0  2  0  0  0  0  0  0  0  0  0
  -13.8230   10.0790   -2.9060 O   0  0  0  0  0  0  0  0  0  0  0  0
  -14.8940   11.0140   -3.1170 C   0  0  0  0  0  0  0  0  0  0  0  0
  -14.7650   12.2760   -2.3240 C   0  0  0  0  0  0  0  0  0  0  0  0
  -15.2870   11.1650   -4.5530 C   0  0  0  0  0  0  0  0  0  0  0  0
  -12.3300    7.5680   -0.3570 C   0  0  1  0  0  0  0  0  0  0  0  0
  -12.8310    6.9110   -1.6710 C   0  0  0  0  0  0  0  0  0  0  0  0
  -11.6910    7.0660   -2.7110 C   0  0  0  0  0  0  0  0  0  0  0  0
  -10.4620    7.5010   -1.8810 C   0  0  1  0  0  0  0  0  0  0  0  0
   -9.8990    6.1770   -1.2740 C   0  0  0  0  0  0  0  0  0  0  0  0
   -9.3570    8.2990   -2.6470 C   0  0  2  0  0  0  0  0  0  0  0  0
   -8.6740    7.5330   -3.7930 C   0  0  0  0  0  0  0  0  0  0  0  0
   -7.4540    6.7640   -3.4070 C   0  0  0  0  0  0  0  0  0  0  0  0
   -6.7640    6.9150   -2.2620 C   0  0  0  0  0  0  0  0  0  0  0  0
   -7.1410    8.0080   -1.2530 C   0  0  1  0  0  0  0  0  0  0  0  0
   -5.8600    8.7530   -0.7950 C   0  0  0  0  0  0  0  0  0  0  0  0
   -4.7930    7.8050   -0.2560 C   0  0  0  0  0  0  0  0  0  0  0  0
   -4.4030    6.7690   -1.3070 C   0  0  2  0  0  0  0  0  0  0  0  0
   -3.7440    7.4350   -2.3890 O   0  0  0  0  0  0  0  0  0  0  0  0
   -5.6140    5.9620   -1.8510 C   0  0  0  0  0  0  0  0  0  0  0  0
   -6.1420    5.0100   -0.7490 C   0  0  0  0  0  0  0  0  0  0  0  0
   -5.1050    5.0530   -3.0020 C   0  0  0  0  0  0  0  0  0  0  0  0
   -8.2950    9.0020   -1.7070 C   0  0  1  0  0  0  0  0  0  0  0  0
   -7.6900   10.1830   -2.5250 C   0  0  0  0  0  0  0  0  0  0  0  0
   -8.9570    9.6390   -0.4280 C   0  0  0  0  0  0  0  0  0  0  0  0
  -10.1210    8.8610    0.2130 C   0  0  0  0  0  0  0  0  0  0  0  0
  -11.1560    8.4550   -0.8410 C   0  0  2  0  0  0  0  0  0  0  0  0
  -11.7550    9.7660   -1.4540 C   0  0  0  0  0  0  0  0  0  0  0  0
  -14.8346    7.1321    1.6484 H   0  0  0  0  0  0  0  0  0  0  0  0
  -15.5235    7.7304    0.1010 H   0  0  0  0  0  0  0  0  0  0  0  0
  -14.3954    6.3324    0.1010 H   0  0  0  0  0  0  0  0  0  0  0  0
  -13.0946    8.5100    1.4300 H   0  0  0  0  0  0  0  0  0  0  0  0
  -13.8690   10.3669    0.4727 H   0  0  0  0  0  0  0  0  0  0  0  0
  -13.1096    9.7466   -1.0708 H   0  0  0  0  0  0  0  0  0  0  0  0
  -15.6851    8.5303   -0.7404 H   0  0  0  0  0  0  0  0  0  0  0  0
  -15.8358   10.3284   -0.5605 H   0  0  0  0  0  0  0  0  0  0  0  0
  -15.8573    8.8778   -2.6083 H   0  0  0  0  0  0  0  0  0  0  0  0
  -14.7893   12.0384   -1.2502 H   0  0  0  0  0  0  0  0  0  0  0  0
  -13.8119   12.7674   -2.5693 H   0  0  0  0  0  0  0  0  0  0  0  0
  -15.5989   12.9501   -2.5693 H   0  0  0  0  0  0  0  0  0  0  0  0
  -16.3123   11.5589   -4.6131 H   0  0  0  0  0  0  0  0  0  0  0  0
  -14.5967   11.8619   -5.0507 H   0  0  0  0  0  0  0  0  0  0  0  0
  -15.2409   10.1851   -5.0507 H   0  0  0  0  0  0  0  0  0  0  0  0
  -11.9772    6.8619    0.4091 H   0  0  0  0  0  0  0  0  0  0  0  0
  -13.0485    5.8459   -1.5031 H   0  0  0  0  0  0  0  0  0  0  0  0
  -13.7562    7.3897   -2.0244 H   0  0  0  0  0  0  0  0  0  0  0  0
  -11.4972    6.1103   -3.2200 H   0  0  0  0  0  0  0  0  0  0  0  0
  -11.9408    7.7924   -3.4983 H   0  0  0  0  0  0  0  0  0  0  0  0
   -9.9246    6.2371   -0.1759 H   0  0  0  0  0  0  0  0  0  0  0  0
  -10.5144    5.3292   -1.6092 H   0  0  0  0  0  0  0  0  0  0  0  0
   -8.8614    6.0321   -1.6092 H   0  0  0  0  0  0  0  0  0  0  0  0
   -9.9368    9.1004   -3.1283 H   0  0  0  0  0  0  0  0  0  0  0  0
   -9.4043    6.8246   -4.2112 H   0  0  0  0  0  0  0  0  0  0  0  0
   -8.3388    8.2953   -4.5117 H   0  0  0  0  0  0  0  0  0  0  0  0
   -7.0882    6.0098   -4.1193 H   0  0  0  0  0  0  0  0  0  0  0  0
   -7.5972    7.4884   -0.3975 H   0  0  0  0  0  0  0  0  0  0  0  0
   -5.4442    9.3002   -1.6539 H   0  0  0  0  0  0  0  0  0  0  0  0
   -6.1437    9.4347    0.0204 H   0  0  0  0  0  0  0  0  0  0  0  0
   -3.9024    8.3869    0.0238 H   0  0  0  0  0  0  0  0  0  0  0  0
   -5.2001    7.2799    0.6206 H   0  0  0  0  0  0  0  0  0  0  0  0
   -3.7348    6.0426   -0.8213 H   0  0  0  0  0  0  0  0  0  0  0  0
   -2.8380    7.0860   -2.4410 H   0  0  0  0  0  0  0  0  0  0  0  0
   -5.9091    5.4299    0.2407 H   0  0  0  0  0  0  0  0  0  0  0  0
   -7.2313    4.8977   -0.8526 H   0  0  0  0  0  0  0  0  0  0  0  0
   -5.6605    4.0264   -0.8526 H   0  0  0  0  0  0  0  0  0  0  0  0
   -4.6091    4.1674   -2.5779 H   0  0  0  0  0  0  0  0  0  0  0  0
   -5.9563    4.7349   -3.6218 H   0  0  0  0  0  0  0  0  0  0  0  0
   -4.3890    5.6126   -3.6218 H   0  0  0  0  0  0  0  0  0  0  0  0
   -7.2996   10.9452   -1.8346 H   0  0  0  0  0  0  0  0  0  0  0  0
   -6.8724    9.8091   -3.1588 H   0  0  0  0  0  0  0  0  0  0  0  0
   -8.4711   10.6281   -3.1588 H   0  0  0  0  0  0  0  0  0  0  0  0
   -8.1710    9.7488    0.3337 H   0  0  0  0  0  0  0  0  0  0  0  0
   -9.3995   10.5847   -0.7742 H   0  0  0  0  0  0  0  0  0  0  0  0
   -9.7255    7.9555    0.6964 H   0  0  0  0  0  0  0  0  0  0  0  0
  -10.6109    9.5103    0.9535 H   0  0  0  0  0  0  0  0  0  0  0  0
  -12.0639   10.4421   -0.6431 H   0  0  0  0  0  0  0  0  0  0  0  0
  -10.9940   10.2616   -2.0747 H   0  0  0  0  0  0  0  0  0  0  0  0
  -12.6278    9.5151   -2.0747 H   0  0  0  0  0  0  0  0  0  0  0  0
  1  2  1  0
  2  3  1  0
  3  4  1  0
  4  5  1  0
  5  6  1  0
  6  7  1  0
  7  8  1  0
  7  9  1  0
  2 10  1  0
 10 11  1  0
 11 12  1  0
 12 13  1  0
 13 14  1  1
 13 15  1  0
 15 16  1  0
 16 17  1  0
 17 18  2  0
 18 19  1  0
 19 20  1  0
 20 21  1  0
 21 22  1  0
 22 23  1  0
 22 24  1  0
 24 25  1  0
 24 26  1  0
 19 27  1  0
 27 28  1  6
 27 29  1  0
 29 30  1  0
 30 31  1  0
 31 32  1  6
  7  5  1  0
 31 10  1  0
 31 13  1  0
 27 15  1  0
 24 18  1  0
  1 33  1  0
  1 34  1  0
  1 35  1  0
  2 36  1  1
  3 37  1  0
  3 38  1  0
  4 39  1  0
  4 40  1  0
  5 41  1  6
  8 42  1  0
  8 43  1  0
  8 44  1  0
  9 45  1  0
  9 46  1  0
  9 47  1  0
 10 48  1  1
 11 49  1  0
 11 50  1  0
 12 51  1  0
 12 52  1  0
 14 53  1  0
 14 54  1  0
 14 55  1  0
 15 56  1  6
 16 57  1  0
 16 58  1  0
 17 59  1  0
 19 60  1  1
 20 61  1  0
 20 62  1  0
 21 63  1  0
 21 64  1  0
 22 65  1  1
 23 66  1  0
 25 67  1  0
 25 68  1  0
 25 69  1  0
 26 70  1  0
 26 71  1  0
 26 72  1  0
 28 73  1  0
 28 74  1  0
 28 75  1  0
 29 76  1  0
 29 77  1  0
 30 78  1  0
 30 79  1  0
 32 80  1  0
 32 81  1  0
 32 82  1  0
M  END
>  <meeko>  (12) 
{"is_sidechain": [false], "intermolecular_energy": 2.731, "internal_energy": -0.839}

$$$$
EPH_relaxed_0001_pdb2pqr_Repair_390_r2_0001_out
     RDKit          3D

 82 86  0  0  0  0  0  0  0  0999 V2000
   -4.8600    6.6580    0.4970 C   0  0  0  0  0  0  0  0  0  0  0  0
   -4.8020    7.8080   -0.5120 C   0  0  2  0  0  0  0  0  0  0  0  0
   -3.6710    8.8060   -0.1910 C   0  0  0  0  0  0  0  0  0  0  0  0
   -2.5140    8.7680   -1.1930 C   0  0  0  0  0  0  0  0  0  0  0  0
   -1.1900    8.9570   -0.5180 C   0  0  2  0  0  0  0  0  0  0  0  0
   -1.1990    9.8940    0.5670 O   0  0  0  0  0  0  0  0  0  0  0  0
   -0.4010   10.2520   -0.5730 C   0  0  0  0  0  0  0  0  0  0  0  0
   -0.9090   11.4450   -1.3210 C   0  0  0  0  0  0  0  0  0  0  0  0
    1.0730   10.2040   -0.3150 C   0  0  0  0  0  0  0  0  0  0  0  0
   -6.1420    8.5340   -0.5490 C   0  0  1  0  0  0  0  0  0  0  0  0
   -6.0390    9.9450   -1.1890 C   0  0  0  0  0  0  0  0  0  0  0  0
   -7.3640   10.1850   -1.9580 C   0  0  0  0  0  0  0  0  0  0  0  0
   -8.3090    9.0620   -1.4670 C   0  0  1  0  0  0  0  0  0  0  0  0
   -8.8620    9.5730   -0.1000 C   0  0  0  0  0  0  0  0  0  0  0  0
   -9.4620    8.6550   -2.4400 C   0  0  2  0  0  0  0  0  0  0  0  0
  -10.4770    9.7690   -2.7530 C   0  0  0  0  0  0  0  0  0  0  0  0
  -11.6530    9.8350   -1.8360 C   0  0  0  0  0  0  0  0  0  0  0  0
  -12.0350    8.8670   -0.9830 C   0  0  0  0  0  0  0  0  0  0  0  0
  -11.3120    7.5150   -0.9500 C   0  0  1  0  0  0  0  0  0  0  0  0
  -12.3570    6.3680   -0.9360 C   0  0  0  0  0  0  0  0  0  0  0  0
  -13.3700    6.5150    0.1950 C   0  0  0  0  0  0  0  0  0  0  0  0
  -14.1100    7.8470    0.0950 C   0  0  2  0  0  0  0  0  0  0  0  0
  -14.9220    7.8350   -1.0830 O   0  0  0  0  0  0  0  0  0  0  0  0
  -13.1590    9.0750    0.0620 C   0  0  0  0  0  0  0  0  0  0  0  0
  -12.5020    9.2620    1.4520 C   0  0  0  0  0  0  0  0  0  0  0  0
  -14.0230   10.3420   -0.1830 C   0  0  0  0  0  0  0  0  0  0  0  0
  -10.1890    7.3030   -2.0550 C   0  0  1  0  0  0  0  0  0  0  0  0
  -10.8290    6.7520   -3.3650 C   0  0  0  0  0  0  0  0  0  0  0  0
   -9.1790    6.2020   -1.5560 C   0  0  0  0  0  0  0  0  0  0  0  0
   -7.9940    6.6840   -0.6980 C   0  0  0  0  0  0  0  0  0  0  0  0
   -7.2870    7.8730   -1.3560 C   0  0  2  0  0  0  0  0  0  0  0  0
   -6.7010    7.3830   -2.7240 C   0  0  0  0  0  0  0  0  0  0  0  0
   -4.8395    7.0652    1.5186 H   0  0  0  0  0  0  0  0  0  0  0  0
   -5.7881    6.0865    0.3487 H   0  0  0  0  0  0  0  0  0  0  0  0
   -3.9941    5.9960    0.3487 H   0  0  0  0  0  0  0  0  0  0  0  0
   -4.5872    7.3722   -1.4989 H   0  0  0  0  0  0  0  0  0  0  0  0
   -4.0943    9.8213   -0.1876 H   0  0  0  0  0  0  0  0  0  0  0  0
   -3.2582    8.5202    0.7877 H   0  0  0  0  0  0  0  0  0  0  0  0
   -2.5175    7.7943   -1.7048 H   0  0  0  0  0  0  0  0  0  0  0  0
   -2.6540    9.5906   -1.9098 H   0  0  0  0  0  0  0  0  0  0  0  0
   -0.9102    7.9130   -0.7221 H   0  0  0  0  0  0  0  0  0  0  0  0
   -1.2365   12.2140   -0.6059 H   0  0  0  0  0  0  0  0  0  0  0  0
   -0.1056   11.8507   -1.9534 H   0  0  0  0  0  0  0  0  0  0  0  0
   -1.7583   11.1469   -1.9534 H   0  0  0  0  0  0  0  0  0  0  0  0
    1.2554   10.1981    0.7698 H   0  0  0  0  0  0  0  0  0  0  0  0
    1.4941    9.2917   -0.7626 H   0  0  0  0  0  0  0  0  0  0  0  0
    1.5525   11.0870   -0.7626 H   0  0  0  0  0  0  0  0  0  0  0  0
   -6.3853    8.5273    0.5237 H   0  0  0  0  0  0  0  0  0  0  0  0
   -5.9117   10.7075   -0.4065 H   0  0  0  0  0  0  0  0  0  0  0  0
   -5.1730   10.0103   -1.8641 H   0  0  0  0  0  0  0  0  0  0  0  0
   -7.7790   11.1748   -1.7171 H   0  0  0  0  0  0  0  0  0  0  0  0
   -7.2230   10.1645   -3.0487 H   0  0  0  0  0  0  0  0  0  0  0  0
   -8.3247    9.0766    0.7215 H   0  0  0  0  0  0  0  0  0  0  0  0
   -8.7160   10.6610   -0.0290 H   0  0  0  0  0  0  0  0  0  0  0  0
   -9.9351    9.3417   -0.0290 H   0  0  0  0  0  0  0  0  0  0  0  0
   -8.9215    8.4707   -3.3801 H   0  0  0  0  0  0  0  0  0  0  0  0
   -9.9504   10.7334   -2.7007 H   0  0  0  0  0  0  0  0  0  0  0  0
  -10.8809    9.5417   -3.7506 H   0  0  0  0  0  0  0  0  0  0  0  0
  -12.2587   10.7529   -1.8596 H   0  0  0  0  0  0  0  0  0  0  0  0
  -10.7326    7.5030   -0.0150 H   0  0  0  0  0  0  0  0  0  0  0  0
  -12.8960    6.3700   -1.8949 H   0  0  0  0  0  0  0  0  0  0  0  0
  -11.8150    5.4238   -0.7789 H   0  0  0  0  0  0  0  0  0  0  0  0
  -14.0985    5.6930    0.1349 H   0  0  0  0  0  0  0  0  0  0  0  0
  -12.8325    6.4831    1.1542 H   0  0  0  0  0  0  0  0  0  0  0  0
  -14.7253    7.9519    1.0008 H   0  0  0  0  0  0  0  0  0  0  0  0
  -15.8230    7.5820   -0.8180 H   0  0  0  0  0  0  0  0  0  0  0  0
  -13.2417    9.0515    2.2385 H   0  0  0  0  0  0  0  0  0  0  0  0
  -11.6530    8.5698    1.5524 H   0  0  0  0  0  0  0  0  0  0  0  0
  -12.1447   10.2975    1.5524 H   0  0  0  0  0  0  0  0  0  0  0  0
  -14.3192   10.7763    0.7833 H   0  0  0  0  0  0  0  0  0  0  0  0
  -13.4389   11.0796   -0.7529 H   0  0  0  0  0  0  0  0  0  0  0  0
  -14.9229   10.0675   -0.7529 H   0  0  0  0  0  0  0  0  0  0  0  0
  -11.6401    6.0537   -3.1112 H   0  0  0  0  0  0  0  0  0  0  0  0
  -11.2353    7.5874   -3.9541 H   0  0  0  0  0  0  0  0  0  0  0  0
  -10.0633    6.2261   -3.9541 H   0  0  0  0  0  0  0  0  0  0  0  0
   -9.7482    5.4746   -0.9586 H   0  0  0  0  0  0  0  0  0  0  0  0
   -8.7246    5.7928   -2.4703 H   0  0  0  0  0  0  0  0  0  0  0  0
   -8.3667    6.9895    0.2908 H   0  0  0  0  0  0  0  0  0  0  0  0
   -7.2736    5.8585   -0.6004 H   0  0  0  0  0  0  0  0  0  0  0  0
   -5.8692    6.6875   -2.5385 H   0  0  0  0  0  0  0  0  0  0  0  0
   -7.4873    6.8697   -3.2969 H   0  0  0  0  0  0  0  0  0  0  0  0
   -6.3351    8.2478   -3.2969 H   0  0  0  0  0  0  0  0  0  0  0  0
  1  2  1  0
  2  3  1  0
  3  4  1  0
  4  5  1  0
  5  6  1  0
  6  7  1  0
  7  8  1  0
  7  9  1  0
  2 10  1  0
 10 11  1  0
 11 12  1  0
 12 13  1  0
 13 14  1  1
 13 15  1  0
 15 16  1  0
 16 17  1  0
 17 18  2  0
 18 19  1  0
 19 20  1  0
 20 21  1  0
 21 22  1  0
 22 23  1  0
 22 24  1  0
 24 25  1  0
 24 26  1  0
 19 27  1  0
 27 28  1  6
 27 29  1  0
 29 30  1  0
 30 31  1  0
 31 32  1  6
  7  5  1  0
 31 10  1  0
 31 13  1  0
 27 15  1  0
 24 18  1  0
  1 33  1  0
  1 34  1  0
  1 35  1  0
  2 36  1  6
  3 37  1  0
  3 38  1  0
  4 39  1  0
  4 40  1  0
  5 41  1  1
  8 42  1  0
  8 43  1  0
  8 44  1  0
  9 45  1  0
  9 46  1  0
  9 47  1  0
 10 48  1  1
 11 49  1  0
 11 50  1  0
 12 51  1  0
 12 52  1  0
 14 53  1  0
 14 54  1  0
 14 55  1  0
 15 56  1  6
 16 57  1  0
 16 58  1  0
 17 59  1  0
 19 60  1  1
 20 61  1  0
 20 62  1  0
 21 63  1  0
 21 64  1  0
 22 65  1  1
 23 66  1  0
 25 67  1  0
 25 68  1  0
 25 69  1  0
 26 70  1  0
 26 71  1  0
 26 72  1  0
 28 73  1  0
 28 74  1  0
 28 75  1  0
 29 76  1  0
 29 77  1  0
 30 78  1  0
 30 79  1  0
 32 80  1  0
 32 81  1  0
 32 82  1  0
M  END
>  <meeko>  (13) 
{"is_sidechain": [false], "intermolecular_energy": 2.731, "internal_energy": -0.839}

$$$$
EPH_relaxed_0001_pdb2pqr_Repair_390_r2_0001_out
     RDKit          3D

 82 86  0  0  0  0  0  0  0  0999 V2000
   -0.8490   16.3510   -5.8360 C   0  0  0  0  0  0  0  0  0  0  0  0
    0.2370   15.6450   -6.6520 C   0  0  2  0  0  0  0  0  0  0  0  0
   -0.1700   15.4670   -8.1290 C   0  0  0  0  0  0  0  0  0  0  0  0
    0.4570   16.5000   -9.0690 C   0  0  0  0  0  0  0  0  0  0  0  0
    1.8560   16.1210   -9.4540 C   0  0  2  0  0  0  0  0  0  0  0  0
    2.3110   16.6880  -10.6890 O   0  0  0  0  0  0  0  0  0  0  0  0
    2.1880   15.2570  -10.6560 C   0  0  0  0  0  0  0  0  0  0  0  0
    1.1160   14.7180  -11.5500 C   0  0  0  0  0  0  0  0  0  0  0  0
    3.5010   14.5390  -10.6800 C   0  0  0  0  0  0  0  0  0  0  0  0
    0.5550   14.2890   -6.0330 C   0  0  1  0  0  0  0  0  0  0  0  0
    1.8150   13.6290   -6.6530 C   0  0  0  0  0  0  0  0  0  0  0  0
    2.5250   12.8590   -5.5110 C   0  0  0  0  0  0  0  0  0  0  0  0
    1.4900   12.8230   -4.3620 C   0  0  1  0  0  0  0  0  0  0  0  0
    0.5280   11.6480   -4.7260 C   0  0  0  0  0  0  0  0  0  0  0  0
    2.0660   12.6700   -2.9170 C   0  0  2  0  0  0  0  0  0  0  0  0
    2.8320   11.3620   -2.6550 C   0  0  0  0  0  0  0  0  0  0  0  0
    2.0050   10.2300   -2.1420 C   0  0  0  0  0  0  0  0  0  0  0  0
    0.7640   10.3360   -1.6330 C   0  0  0  0  0  0  0  0  0  0  0  0
    0.1050   11.7080   -1.4430 C   0  0  1  0  0  0  0  0  0  0  0  0
   -0.5360   11.7850   -0.0330 C   0  0  0  0  0  0  0  0  0  0  0  0
   -1.4990   10.6330    0.2360 C   0  0  0  0  0  0  0  0  0  0  0  0
   -0.7930    9.2870    0.0950 C   0  0  2  0  0  0  0  0  0  0  0  0
    0.1760    9.1630    1.1400 O   0  0  0  0  0  0  0  0  0  0  0  0
   -0.1010    9.1000   -1.2840 C   0  0  0  0  0  0  0  0  0  0  0  0
   -1.1760    8.9320   -2.3870 C   0  0  0  0  0  0  0  0  0  0  0  0
    0.6910    7.7650   -1.2440 C   0  0  0  0  0  0  0  0  0  0  0  0
    1.0200   12.9670   -1.7670 C   0  0  1  0  0  0  0  0  0  0  0  0
    1.8450   13.3640   -0.5060 C   0  0  0  0  0  0  0  0  0  0  0  0
    0.0980   14.2000   -2.1010 C   0  0  0  0  0  0  0  0  0  0  0  0
   -0.3400   14.3630   -3.5690 C   0  0  0  0  0  0  0  0  0  0  0  0
    0.8600   14.2550   -4.5140 C   0  0  2  0  0  0  0  0  0  0  0  0
    1.8350   15.4370   -4.1870 C   0  0  0  0  0  0  0  0  0  0  0  0
   -0.6456   16.2188   -4.7631 H   0  0  0  0  0  0  0  0  0  0  0  0
   -0.8513   17.4238   -6.0793 H   0  0  0  0  0  0  0  0  0  0  0  0
   -1.8304   15.9177   -6.0793 H   0  0  0  0  0  0  0  0  0  0  0  0
    1.1332   16.2825   -6.6303 H   0  0  0  0  0  0  0  0  0  0  0  0
    0.1422   14.4645   -8.4568 H   0  0  0  0  0  0  0  0  0  0  0  0
   -1.2601   15.6050   -8.1809 H   0  0  0  0  0  0  0  0  0  0  0  0
   -0.1562   16.5725   -9.9793 H   0  0  0  0  0  0  0  0  0  0  0  0
    0.4953   17.4649   -8.5423 H   0  0  0  0  0  0  0  0  0  0  0  0
    2.1558   16.0614   -8.3973 H   0  0  0  0  0  0  0  0  0  0  0  0
    0.2997   14.3076  -10.9374 H   0  0  0  0  0  0  0  0  0  0  0  0
    0.7266   15.5275  -12.1849 H   0  0  0  0  0  0  0  0  0  0  0  0
    1.5336   13.9227  -12.1849 H   0  0  0  0  0  0  0  0  0  0  0  0
    3.8373   14.3551   -9.6489 H   0  0  0  0  0  0  0  0  0  0  0  0
    3.3845   13.5791  -11.2044 H   0  0  0  0  0  0  0  0  0  0  0  0
    4.2463   15.1551  -11.2044 H   0  0  0  0  0  0  0  0  0  0  0  0
   -0.3906   13.7662   -6.2392 H   0  0  0  0  0  0  0  0  0  0  0  0
    1.5231   12.9339   -7.4540 H   0  0  0  0  0  0  0  0  0  0  0  0
    2.4813   14.3859   -7.0924 H   0  0  0  0  0  0  0  0  0  0  0  0
    2.7838   11.8394   -5.8325 H   0  0  0  0  0  0  0  0  0  0  0  0
    3.4678   13.3381   -5.2082 H   0  0  0  0  0  0  0  0  0  0  0  0
    0.1490   11.1851   -3.8029 H   0  0  0  0  0  0  0  0  0  0  0  0
   -0.3163   12.0346   -5.3157 H   0  0  0  0  0  0  0  0  0  0  0  0
    1.0736   10.8967   -5.3157 H   0  0  0  0  0  0  0  0  0  0  0  0
    2.8194   13.4706   -2.8780 H   0  0  0  0  0  0  0  0  0  0  0  0
    3.2943   11.0436   -3.6010 H   0  0  0  0  0  0  0  0  0  0  0  0
    3.5606   11.5897   -1.8630 H   0  0  0  0  0  0  0  0  0  0  0  0
    2.4477    9.2239   -2.1836 H   0  0  0  0  0  0  0  0  0  0  0  0
   -0.6780   11.7779   -2.2124 H   0  0  0  0  0  0  0  0  0  0  0  0
    0.2651   11.7580    0.7204 H   0  0  0  0  0  0  0  0  0  0  0  0
   -1.1117   12.7207    0.0212 H   0  0  0  0  0  0  0  0  0  0  0  0
   -1.8952   10.7263    1.2579 H   0  0  0  0  0  0  0  0  0  0  0  0
   -2.3159   10.6795   -0.4992 H   0  0  0  0  0  0  0  0  0  0  0  0
   -1.5604    8.5025    0.1699 H   0  0  0  0  0  0  0  0  0  0  0  0
    0.0290    8.3080    1.5780 H   0  0  0  0  0  0  0  0  0  0  0  0
   -2.1599    8.7782   -1.9197 H   0  0  0  0  0  0  0  0  0  0  0  0
   -1.2044    9.8366   -3.0122 H   0  0  0  0  0  0  0  0  0  0  0  0
   -0.9270    8.0619   -3.0122 H   0  0  0  0  0  0  0  0  0  0  0  0
    0.8644    7.4727   -0.1978 H   0  0  0  0  0  0  0  0  0  0  0  0
    0.1124    6.9800   -1.7529 H   0  0  0  0  0  0  0  0  0  0  0  0
    1.6573    7.8965   -1.7529 H   0  0  0  0  0  0  0  0  0  0  0  0
    1.2829   13.0935    0.4000 H   0  0  0  0  0  0  0  0  0  0  0  0
    2.8067   12.8300   -0.5139 H   0  0  0  0  0  0  0  0  0  0  0  0
    2.0278   14.4487   -0.5139 H   0  0  0  0  0  0  0  0  0  0  0  0
   -0.8124   14.1097   -1.4903 H   0  0  0  0  0  0  0  0  0  0  0  0
    0.7129   15.0860   -1.8843 H   0  0  0  0  0  0  0  0  0  0  0  0
   -1.0659   13.5748   -3.8176 H   0  0  0  0  0  0  0  0  0  0  0  0
   -0.7944   15.3573   -3.6912 H   0  0  0  0  0  0  0  0  0  0  0  0
    1.9254   15.5466   -3.0962 H   0  0  0  0  0  0  0  0  0  0  0  0
    2.8249   15.2256   -4.6176 H   0  0  0  0  0  0  0  0  0  0  0  0
    1.4392   16.3686   -4.6176 H   0  0  0  0  0  0  0  0  0  0  0  0
  1  2  1  0
  2  3  1  0
  3  4  1  0
  4  5  1  0
  5  6  1  0
  6  7  1  0
  7  8  1  0
  7  9  1  0
  2 10  1  0
 10 11  1  0
 11 12  1  0
 12 13  1  0
 13 14  1  6
 13 15  1  0
 15 16  1  0
 16 17  1  0
 17 18  2  0
 18 19  1  0
 19 20  1  0
 20 21  1  0
 21 22  1  0
 22 23  1  0
 22 24  1  0
 24 25  1  0
 24 26  1  0
 19 27  1  0
 27 28  1  1
 27 29  1  0
 29 30  1  0
 30 31  1  0
 31 32  1  1
  7  5  1  0
 31 10  1  0
 31 13  1  0
 27 15  1  0
 24 18  1  0
  1 33  1  0
  1 34  1  0
  1 35  1  0
  2 36  1  6
  3 37  1  0
  3 38  1  0
  4 39  1  0
  4 40  1  0
  5 41  1  1
  8 42  1  0
  8 43  1  0
  8 44  1  0
  9 45  1  0
  9 46  1  0
  9 47  1  0
 10 48  1  1
 11 49  1  0
 11 50  1  0
 12 51  1  0
 12 52  1  0
 14 53  1  0
 14 54  1  0
 14 55  1  0
 15 56  1  6
 16 57  1  0
 16 58  1  0
 17 59  1  0
 19 60  1  6
 20 61  1  0
 20 62  1  0
 21 63  1  0
 21 64  1  0
 22 65  1  1
 23 66  1  0
 25 67  1  0
 25 68  1  0
 25 69  1  0
 26 70  1  0
 26 71  1  0
 26 72  1  0
 28 73  1  0
 28 74  1  0
 28 75  1  0
 29 76  1  0
 29 77  1  0
 30 78  1  0
 30 79  1  0
 32 80  1  0
 32 81  1  0
 32 82  1  0
M  END
>  <meeko>  (14) 
{"is_sidechain": [false], "intermolecular_energy": 2.731, "internal_energy": -0.839}

$$$$
EPH_relaxed_0001_pdb2pqr_Repair_390_r2_0001_out
     RDKit          3D

 82 86  0  0  0  0  0  0  0  0999 V2000
   -2.2230    7.8500   -2.1320 C   0  0  0  0  0  0  0  0  0  0  0  0
   -2.1360    8.4530   -0.7270 C   0  0  2  0  0  0  0  0  0  0  0  0
   -3.4970    8.4330   -0.0020 C   0  0  0  0  0  0  0  0  0  0  0  0
   -4.6840    8.7650   -0.9110 C   0  0  0  0  0  0  0  0  0  0  0  0
   -5.5810    7.5810   -1.1060 C   0  0  2  0  0  0  0  0  0  0  0  0
   -6.0570    7.4050   -2.4460 O   0  0  0  0  0  0  0  0  0  0  0  0
   -7.0540    7.6960   -1.4530 C   0  0  0  0  0  0  0  0  0  0  0  0
   -7.7130    9.0290   -1.6250 C   0  0  0  0  0  0  0  0  0  0  0  0
   -7.9540    6.5400   -1.1450 C   0  0  0  0  0  0  0  0  0  0  0  0
   -1.6090    9.8810   -0.8060 C   0  0  1  0  0  0  0  0  0  0  0  0
   -1.1360   10.4190    0.5710 C   0  0  0  0  0  0  0  0  0  0  0  0
    0.0810   11.3400    0.2970 C   0  0  0  0  0  0  0  0  0  0  0  0
    0.0630   11.5650   -1.2330 C   0  0  1  0  0  0  0  0  0  0  0  0
   -0.9970   12.6880   -1.4610 C   0  0  0  0  0  0  0  0  0  0  0  0
    1.4340   11.9230   -1.8950 C   0  0  2  0  0  0  0  0  0  0  0  0
    2.0650   13.2420   -1.4170 C   0  0  0  0  0  0  0  0  0  0  0  0
    1.6870   14.4520   -2.2060 C   0  0  0  0  0  0  0  0  0  0  0  0
    1.1060   14.4440   -3.4200 C   0  0  0  0  0  0  0  0  0  0  0  0
    0.8600   13.1270   -4.1670 C   0  0  1  0  0  0  0  0  0  0  0  0
    1.3190   13.2730   -5.6410 C   0  0  0  0  0  0  0  0  0  0  0  0
    0.6770   14.4680   -6.3380 C   0  0  0  0  0  0  0  0  0  0  0  0
    0.9930   15.7660   -5.5990 C   0  0  2  0  0  0  0  0  0  0  0  0
    2.3950   16.0280   -5.7090 O   0  0  0  0  0  0  0  0  0  0  0  0
    0.5830   15.7330   -4.1010 C   0  0  0  0  0  0  0  0  0  0  0  0
   -0.9620   15.7520   -3.9830 C   0  0  0  0  0  0  0  0  0  0  0  0
    1.0840   17.0450   -3.4390 C   0  0  0  0  0  0  0  0  0  0  0  0
    1.4380   11.8190   -3.4740 C   0  0  1  0  0  0  0  0  0  0  0  0
    2.9220   11.6010   -3.9020 C   0  0  0  0  0  0  0  0  0  0  0  0
    0.6380   10.5660   -3.9930 C   0  0  0  0  0  0  0  0  0  0  0  0
   -0.6430   10.1920   -3.2240 C   0  0  0  0  0  0  0  0  0  0  0  0
   -0.3810   10.1360   -1.7160 C   0  0  2  0  0  0  0  0  0  0  0  0
    0.6650    9.0010   -1.4540 C   0  0  0  0  0  0  0  0  0  0  0  0
   -2.3797    6.7639   -2.0558 H   0  0  0  0  0  0  0  0  0  0  0  0
   -3.0648    8.3047   -2.6747 H   0  0  0  0  0  0  0  0  0  0  0  0
   -1.2870    8.0482   -2.6747 H   0  0  0  0  0  0  0  0  0  0  0  0
   -1.4410    7.8322   -0.1425 H   0  0  0  0  0  0  0  0  0  0  0  0
   -3.6518    7.4283    0.4182 H   0  0  0  0  0  0  0  0  0  0  0  0
   -3.4591    9.2115    0.7742 H   0  0  0  0  0  0  0  0  0  0  0  0
   -5.2645    9.5808   -0.4555 H   0  0  0  0  0  0  0  0  0  0  0  0
   -4.2903    9.0624   -1.8941 H   0  0  0  0  0  0  0  0  0  0  0  0
   -5.0487    7.0190   -0.3244 H   0  0  0  0  0  0  0  0  0  0  0  0
   -7.9272    9.4623   -0.6369 H   0  0  0  0  0  0  0  0  0  0  0  0
   -7.0429    9.7001   -2.1822 H   0  0  0  0  0  0  0  0  0  0  0  0
   -8.6531    8.9041   -2.1822 H   0  0  0  0  0  0  0  0  0  0  0  0
   -8.0434    6.4252   -0.0547 H   0  0  0  0  0  0  0  0  0  0  0  0
   -8.9487    6.7244   -1.5770 H   0  0  0  0  0  0  0  0  0  0  0  0
   -7.5313    5.6209   -1.5770 H   0  0  0  0  0  0  0  0  0  0  0  0
   -2.4954   10.3832   -1.2209 H   0  0  0  0  0  0  0  0  0  0  0  0
   -1.9433   10.9909    1.0519 H   0  0  0  0  0  0  0  0  0  0  0  0
   -0.8631    9.5937    1.2451 H   0  0  0  0  0  0  0  0  0  0  0  0
   -0.0269   12.2954    0.8313 H   0  0  0  0  0  0  0  0  0  0  0  0
    1.0263   10.8961    0.6424 H   0  0  0  0  0  0  0  0  0  0  0  0
   -1.3500   13.0619   -0.4886 H   0  0  0  0  0  0  0  0  0  0  0  0
   -0.5409   13.5132   -2.0275 H   0  0  0  0  0  0  0  0  0  0  0  0
   -1.8471   12.2802   -2.0275 H   0  0  0  0  0  0  0  0  0  0  0  0
    2.0919   11.1248   -1.5208 H   0  0  0  0  0  0  0  0  0  0  0  0
    1.7584   13.4071   -0.3736 H   0  0  0  0  0  0  0  0  0  0  0  0
    3.1513   13.1233   -1.5432 H   0  0  0  0  0  0  0  0  0  0  0  0
    1.9016   15.4330   -1.7570 H   0  0  0  0  0  0  0  0  0  0  0  0
   -0.2259   12.9554   -4.1306 H   0  0  0  0  0  0  0  0  0  0  0  0
    2.4116   13.3994   -5.6592 H   0  0  0  0  0  0  0  0  0  0  0  0
    1.0073   12.3657   -6.1791 H   0  0  0  0  0  0  0  0  0  0  0  0
    1.0636   14.5356   -7.3656 H   0  0  0  0  0  0  0  0  0  0  0  0
   -0.4137   14.3253   -6.3457 H   0  0  0  0  0  0  0  0  0  0  0  0
    0.4012   16.5660   -6.0678 H   0  0  0  0  0  0  0  0  0  0  0  0
    2.8090   15.2510   -6.1200 H   0  0  0  0  0  0  0  0  0  0  0  0
   -1.2486   15.7555   -2.9210 H   0  0  0  0  0  0  0  0  0  0  0  0
   -1.3560   16.6551   -4.4721 H   0  0  0  0  0  0  0  0  0  0  0  0
   -1.3781   14.8589   -4.4721 H   0  0  0  0  0  0  0  0  0  0  0  0
    1.0446   16.9417   -2.3446 H   0  0  0  0  0  0  0  0  0  0  0  0
    2.1202   17.2410   -3.7517 H   0  0  0  0  0  0  0  0  0  0  0  0
    0.4421   17.8818   -3.7517 H   0  0  0  0  0  0  0  0  0  0  0  0
    3.5524   11.5084   -3.0053 H   0  0  0  0  0  0  0  0  0  0  0  0
    2.9995   10.6818   -4.5013 H   0  0  0  0  0  0  0  0  0  0  0  0
    3.2606   12.4590   -4.5013 H   0  0  0  0  0  0  0  0  0  0  0  0
    0.3538   10.7620   -5.0374 H   0  0  0  0  0  0  0  0  0  0  0  0
    1.3175    9.7125   -3.8522 H   0  0  0  0  0  0  0  0  0  0  0  0
   -1.4175   10.9463   -3.4268 H   0  0  0  0  0  0  0  0  0  0  0  0
   -0.9756    9.1985   -3.5592 H   0  0  0  0  0  0  0  0  0  0  0  0
    0.7924    8.8628   -0.3702 H   0  0  0  0  0  0  0  0  0  0  0  0
    0.3083    8.0627   -1.9039 H   0  0  0  0  0  0  0  0  0  0  0  0
    1.6292    9.2800   -1.9039 H   0  0  0  0  0  0  0  0  0  0  0  0
  1  2  1  0
  2  3  1  0
  3  4  1  0
  4  5  1  0
  5  6  1  0
  6  7  1  0
  7  8  1  0
  7  9  1  0
  2 10  1  0
 10 11  1  0
 11 12  1  0
 12 13  1  0
 13 14  1  1
 13 15  1  0
 15 16  1  0
 16 17  1  0
 17 18  2  0
 18 19  1  0
 19 20  1  0
 20 21  1  0
 21 22  1  0
 22 23  1  0
 22 24  1  0
 24 25  1  0
 24 26  1  0
 19 27  1  0
 27 28  1  6
 27 29  1  0
 29 30  1  0
 30 31  1  0
 31 32  1  6
  7  5  1  0
 31 10  1  0
 31 13  1  0
 27 15  1  0
 24 18  1  0
  1 33  1  0
  1 34  1  0
  1 35  1  0
  2 36  1  1
  3 37  1  0
  3 38  1  0
  4 39  1  0
  4 40  1  0
  5 41  1  1
  8 42  1  0
  8 43  1  0
  8 44  1  0
  9 45  1  0
  9 46  1  0
  9 47  1  0
 10 48  1  6
 11 49  1  0
 11 50  1  0
 12 51  1  0
 12 52  1  0
 14 53  1  0
 14 54  1  0
 14 55  1  0
 15 56  1  1
 16 57  1  0
 16 58  1  0
 17 59  1  0
 19 60  1  6
 20 61  1  0
 20 62  1  0
 21 63  1  0
 21 64  1  0
 22 65  1  6
 23 66  1  0
 25 67  1  0
 25 68  1  0
 25 69  1  0
 26 70  1  0
 26 71  1  0
 26 72  1  0
 28 73  1  0
 28 74  1  0
 28 75  1  0
 29 76  1  0
 29 77  1  0
 30 78  1  0
 30 79  1  0
 32 80  1  0
 32 81  1  0
 32 82  1  0
M  END
>  <meeko>  (15) 
{"is_sidechain": [false], "intermolecular_energy": 2.731, "internal_energy": -0.839}

$$$$
EPH_relaxed_0001_pdb2pqr_Repair_390_r2_0001_out
     RDKit          3D

 82 86  0  0  0  0  0  0  0  0999 V2000
   -4.1650    7.2830   -3.4170 C   0  0  0  0  0  0  0  0  0  0  0  0
   -3.9120    7.2620   -1.9070 C   0  0  2  0  0  0  0  0  0  0  0  0
   -5.1910    6.9390   -1.1090 C   0  0  0  0  0  0  0  0  0  0  0  0
   -6.4530    6.8600   -1.9730 C   0  0  0  0  0  0  0  0  0  0  0  0
   -7.6550    6.4740   -1.1650 C   0  0  2  0  0  0  0  0  0  0  0  0
   -8.9120    6.7140   -1.8110 O   0  0  0  0  0  0  0  0  0  0  0  0
   -8.6540    7.4770   -0.6210 C   0  0  0  0  0  0  0  0  0  0  0  0
   -8.4960    8.9460   -0.8620 C   0  0  0  0  0  0  0  0  0  0  0  0
   -9.5040    7.0800    0.5460 C   0  0  0  0  0  0  0  0  0  0  0  0
   -3.3420    8.6020   -1.4570 C   0  0  1  0  0  0  0  0  0  0  0  0
   -3.9500    9.0890   -0.1150 C   0  0  0  0  0  0  0  0  0  0  0  0
   -2.8200    9.8290    0.6460 C   0  0  0  0  0  0  0  0  0  0  0  0
   -1.7070   10.0320   -0.4090 C   0  0  1  0  0  0  0  0  0  0  0  0
   -2.1520   11.2870   -1.2230 C   0  0  0  0  0  0  0  0  0  0  0  0
   -0.2520   10.1870    0.1420 C   0  0  2  0  0  0  0  0  0  0  0  0
   -0.0230   11.4130    1.0430 C   0  0  0  0  0  0  0  0  0  0  0  0
    0.4140   12.6520    0.3340 C   0  0  0  0  0  0  0  0  0  0  0  0
    0.8880   12.7070   -0.9250 C   0  0  0  0  0  0  0  0  0  0  0  0
    1.1160   11.4260   -1.7380 C   0  0  1  0  0  0  0  0  0  0  0  0
    2.5080   11.4860   -2.4200 C   0  0  0  0  0  0  0  0  0  0  0  0
    2.6950   12.7480   -3.2560 C   0  0  0  0  0  0  0  0  0  0  0  0
    2.5190   14.0000   -2.4010 C   0  0  2  0  0  0  0  0  0  0  0  0
    3.5880   14.0650   -1.4520 O   0  0  0  0  0  0  0  0  0  0  0  0
    1.1560   14.0460   -1.6560 C   0  0  0  0  0  0  0  0  0  0  0  0
    0.0130   14.2800   -2.6750 C   0  0  0  0  0  0  0  0  0  0  0  0
    1.1640   15.2860   -0.7210 C   0  0  0  0  0  0  0  0  0  0  0  0
    0.8750   10.0600   -0.9610 C   0  0  1  0  0  0  0  0  0  0  0  0
    2.1790    9.6340   -0.2180 C   0  0  0  0  0  0  0  0  0  0  0  0
    0.5660    8.9230   -2.0050 C   0  0  0  0  0  0  0  0  0  0  0  0
   -0.9060    8.7410   -2.4190 C   0  0  0  0  0  0  0  0  0  0  0  0
   -1.8170    8.6720   -1.1900 C   0  0  2  0  0  0  0  0  0  0  0  0
   -1.4080    7.4060   -0.3620 C   0  0  0  0  0  0  0  0  0  0  0  0
   -5.2448    7.3726   -3.6066 H   0  0  0  0  0  0  0  0  0  0  0  0
   -3.6417    8.1408   -3.8646 H   0  0  0  0  0  0  0  0  0  0  0  0
   -3.7903    6.3507   -3.8646 H   0  0  0  0  0  0  0  0  0  0  0  0
   -3.1850    6.4618   -1.7041 H   0  0  0  0  0  0  0  0  0  0  0  0
   -5.0521    5.9696   -0.6080 H   0  0  0  0  0  0  0  0  0  0  0  0
   -5.3412    7.7628   -0.3957 H   0  0  0  0  0  0  0  0  0  0  0  0
   -6.6329    7.8433   -2.4320 H   0  0  0  0  0  0  0  0  0  0  0  0
   -6.2946    6.0891   -2.7416 H   0  0  0  0  0  0  0  0  0  0  0  0
   -7.1003    5.6526   -0.6879 H   0  0  0  0  0  0  0  0  0  0  0  0
   -8.4394    9.4718    0.1025 H   0  0  0  0  0  0  0  0  0  0  0  0
   -7.5732    9.1268   -1.4328 H   0  0  0  0  0  0  0  0  0  0  0  0
   -9.3592    9.3189   -1.4328 H   0  0  0  0  0  0  0  0  0  0  0  0
   -8.9798    7.3248    1.4816 H   0  0  0  0  0  0  0  0  0  0  0  0
  -10.4584    7.6255    0.5069 H   0  0  0  0  0  0  0  0  0  0  0  0
   -9.6983    5.9980    0.5069 H   0  0  0  0  0  0  0  0  0  0  0  0
   -3.5995    9.2159   -2.3326 H   0  0  0  0  0  0  0  0  0  0  0  0
   -4.7895    9.7737   -0.3059 H   0  0  0  0  0  0  0  0  0  0  0  0
   -4.3347    8.2434    0.4741 H   0  0  0  0  0  0  0  0  0  0  0  0
   -3.1771   10.7979    1.0251 H   0  0  0  0  0  0  0  0  0  0  0  0
   -2.4670    9.2639    1.5212 H   0  0  0  0  0  0  0  0  0  0  0  0
   -2.4373   12.0917   -0.5294 H   0  0  0  0  0  0  0  0  0  0  0  0
   -1.3197   11.6271   -1.8567 H   0  0  0  0  0  0  0  0  0  0  0  0
   -3.0127   11.0268   -1.8567 H   0  0  0  0  0  0  0  0  0  0  0  0
   -0.1536    9.3112    0.8002 H   0  0  0  0  0  0  0  0  0  0  0  0
   -0.9668   11.6338    1.5631 H   0  0  0  0  0  0  0  0  0  0  0  0
    0.8004   11.1434    1.7207 H   0  0  0  0  0  0  0  0  0  0  0  0
    0.3427   13.6002    0.8870 H   0  0  0  0  0  0  0  0  0  0  0  0
    0.3264   11.4069   -2.5036 H   0  0  0  0  0  0  0  0  0  0  0  0
    3.2840   11.4609   -1.6408 H   0  0  0  0  0  0  0  0  0  0  0  0
    2.5862   10.6223   -3.0966 H   0  0  0  0  0  0  0  0  0  0  0  0
    3.7064   12.7467   -3.6885 H   0  0  0  0  0  0  0  0  0  0  0  0
    1.9361   12.7572   -4.0523 H   0  0  0  0  0  0  0  0  0  0  0  0
    2.5361   14.8666   -3.0783 H   0  0  0  0  0  0  0  0  0  0  0  0
    3.4250   13.3840   -0.7780 H   0  0  0  0  0  0  0  0  0  0  0  0
   -0.9259   14.4722   -2.1351 H   0  0  0  0  0  0  0  0  0  0  0  0
    0.2568   15.1469   -3.3068 H   0  0  0  0  0  0  0  0  0  0  0  0
   -0.1035   13.3871   -3.3068 H   0  0  0  0  0  0  0  0  0  0  0  0
    1.1619   14.9544    0.3278 H   0  0  0  0  0  0  0  0  0  0  0  0
    2.0660   15.8852   -0.9143 H   0  0  0  0  0  0  0  0  0  0  0  0
    0.2698   15.8967   -0.9143 H   0  0  0  0  0  0  0  0  0  0  0  0
    2.0160    9.6873    0.8685 H   0  0  0  0  0  0  0  0  0  0  0  0
    2.4413    8.6034   -0.4993 H   0  0  0  0  0  0  0  0  0  0  0  0
    2.9991   10.3109   -0.4993 H   0  0  0  0  0  0  0  0  0  0  0  0
    1.1431    9.1417   -2.9156 H   0  0  0  0  0  0  0  0  0  0  0  0
    0.8404    7.9857   -1.4989 H   0  0  0  0  0  0  0  0  0  0  0  0
   -1.2113    9.5919   -3.0458 H   0  0  0  0  0  0  0  0  0  0  0  0
   -0.9990    7.7980   -2.9777 H   0  0  0  0  0  0  0  0  0  0  0  0
   -1.4808    7.6312    0.7122 H   0  0  0  0  0  0  0  0  0  0  0  0
   -2.0827    6.5729   -0.6085 H   0  0  0  0  0  0  0  0  0  0  0  0
   -0.3734    7.1252   -0.6085 H   0  0  0  0  0  0  0  0  0  0  0  0
  1  2  1  0
  2  3  1  0
  3  4  1  0
  4  5  1  0
  5  6  1  0
  6  7  1  0
  7  8  1  0
  7  9  1  0
  2 10  1  0
 10 11  1  0
 11 12  1  0
 12 13  1  0
 13 14  1  6
 13 15  1  0
 15 16  1  0
 16 17  1  0
 17 18  2  0
 18 19  1  0
 19 20  1  0
 20 21  1  0
 21 22  1  0
 22 23  1  0
 22 24  1  0
 24 25  1  0
 24 26  1  0
 19 27  1  0
 27 28  1  1
 27 29  1  0
 29 30  1  0
 30 31  1  0
 31 32  1  1
  7  5  1  0
 31 10  1  0
 31 13  1  0
 27 15  1  0
 24 18  1  0
  1 33  1  0
  1 34  1  0
  1 35  1  0
  2 36  1  6
  3 37  1  0
  3 38  1  0
  4 39  1  0
  4 40  1  0
  5 41  1  1
  8 42  1  0
  8 43  1  0
  8 44  1  0
  9 45  1  0
  9 46  1  0
  9 47  1  0
 10 48  1  6
 11 49  1  0
 11 50  1  0
 12 51  1  0
 12 52  1  0
 14 53  1  0
 14 54  1  0
 14 55  1  0
 15 56  1  1
 16 57  1  0
 16 58  1  0
 17 59  1  0
 19 60  1  6
 20 61  1  0
 20 62  1  0
 21 63  1  0
 21 64  1  0
 22 65  1  6
 23 66  1  0
 25 67  1  0
 25 68  1  0
 25 69  1  0
 26 70  1  0
 26 71  1  0
 26 72  1  0
 28 73  1  0
 28 74  1  0
 28 75  1  0
 29 76  1  0
 29 77  1  0
 30 78  1  0
 30 79  1  0
 32 80  1  0
 32 81  1  0
 32 82  1  0
M  END
>  <meeko>  (16) 
{"is_sidechain": [false], "intermolecular_energy": 2.731, "internal_energy": -0.839}

$$$$
EPH_relaxed_0001_pdb2pqr_Repair_390_r2_0001_out
     RDKit          3D

 82 86  0  0  0  0  0  0  0  0999 V2000
    0.1580    9.3450   -2.1690 C   0  0  0  0  0  0  0  0  0  0  0  0
    1.2370   10.3370   -2.6100 C   0  0  2  0  0  0  0  0  0  0  0  0
    2.6390    9.6940   -2.6410 C   0  0  0  0  0  0  0  0  0  0  0  0
    3.5270   10.2080   -3.7770 C   0  0  0  0  0  0  0  0  0  0  0  0
    4.8980   10.5670   -3.2900 C   0  0  2  0  0  0  0  0  0  0  0  0
    5.3710   11.8490   -3.7230 O   0  0  0  0  0  0  0  0  0  0  0  0
    6.1010   10.7080   -4.2040 C   0  0  0  0  0  0  0  0  0  0  0  0
    5.9880   10.4920   -5.6810 C   0  0  0  0  0  0  0  0  0  0  0  0
    7.4690   10.5740   -3.6130 C   0  0  0  0  0  0  0  0  0  0  0  0
    1.2400   11.5490   -1.6860 C   0  0  1  0  0  0  0  0  0  0  0  0
    2.3210   11.4520   -0.5770 C   0  0  0  0  0  0  0  0  0  0  0  0
    2.8360   12.8920   -0.3270 C   0  0  0  0  0  0  0  0  0  0  0  0
    1.8150   13.8020   -1.0500 C   0  0  1  0  0  0  0  0  0  0  0  0
    0.6150   13.9250   -0.0590 C   0  0  0  0  0  0  0  0  0  0  0  0
    2.3380   15.2060   -1.4990 C   0  0  2  0  0  0  0  0  0  0  0  0
    2.7900   16.1310   -0.3560 C   0  0  0  0  0  0  0  0  0  0  0  0
    1.7270   17.0180    0.2040 C   0  0  0  0  0  0  0  0  0  0  0  0
    0.5400   17.2780   -0.3750 C   0  0  0  0  0  0  0  0  0  0  0  0
    0.2070   16.7300   -1.7680 C   0  0  1  0  0  0  0  0  0  0  0  0
   -0.4050   17.8620   -2.6360 C   0  0  0  0  0  0  0  0  0  0  0  0
   -1.6040   18.5280   -1.9690 C   0  0  0  0  0  0  0  0  0  0  0  0
   -1.2180   19.1110   -0.6110 C   0  0  2  0  0  0  0  0  0  0  0  0
   -0.3050   20.1930   -0.8170 O   0  0  0  0  0  0  0  0  0  0  0  0
   -0.5820   18.0650    0.3460 C   0  0  0  0  0  0  0  0  0  0  0  0
   -1.6630   17.0560    0.8080 C   0  0  0  0  0  0  0  0  0  0  0  0
   -0.1110   18.8110    1.6230 C   0  0  0  0  0  0  0  0  0  0  0  0
    1.3820   15.9600   -2.5100 C   0  0  1  0  0  0  0  0  0  0  0  0
    2.2720   16.9730   -3.2930 C   0  0  0  0  0  0  0  0  0  0  0  0
    0.7630   14.9900   -3.5850 C   0  0  0  0  0  0  0  0  0  0  0  0
    0.3770   13.5770   -3.1060 C   0  0  0  0  0  0  0  0  0  0  0  0
    1.5250   12.9310   -2.3250 C   0  0  2  0  0  0  0  0  0  0  0  0
    2.7400   12.7740   -3.3020 C   0  0  0  0  0  0  0  0  0  0  0  0
    0.1195    9.3096   -1.0702 H   0  0  0  0  0  0  0  0  0  0  0  0
   -0.8183    9.6674   -2.5599 H   0  0  0  0  0  0  0  0  0  0  0  0
    0.3974    8.3451   -2.5599 H   0  0  0  0  0  0  0  0  0  0  0  0
    0.9956   10.6533   -3.6355 H   0  0  0  0  0  0  0  0  0  0  0  0
    3.1399    9.9071   -1.6851 H   0  0  0  0  0  0  0  0  0  0  0  0
    2.4947    8.6164   -2.8083 H   0  0  0  0  0  0  0  0  0  0  0  0
    3.6150    9.4238   -4.5434 H   0  0  0  0  0  0  0  0  0  0  0  0
    3.0623   11.1146   -4.1920 H   0  0  0  0  0  0  0  0  0  0  0  0
    4.7407   10.0013   -2.3598 H   0  0  0  0  0  0  0  0  0  0  0  0
    5.4860    9.5324   -5.8739 H   0  0  0  0  0  0  0  0  0  0  0  0
    5.4017   11.3088   -6.1272 H   0  0  0  0  0  0  0  0  0  0  0  0
    6.9933   10.4761   -6.1272 H   0  0  0  0  0  0  0  0  0  0  0  0
    7.3965   10.5811   -2.5154 H   0  0  0  0  0  0  0  0  0  0  0  0
    7.9205    9.6273   -3.9445 H   0  0  0  0  0  0  0  0  0  0  0  0
    8.0957   11.4151   -3.9445 H   0  0  0  0  0  0  0  0  0  0  0  0
    0.2012   11.5083   -1.3265 H   0  0  0  0  0  0  0  0  0  0  0  0
    1.8825   11.0413    0.3444 H   0  0  0  0  0  0  0  0  0  0  0  0
    3.1418   10.7867   -0.8829 H   0  0  0  0  0  0  0  0  0  0  0  0
    2.8601   13.1144    0.7500 H   0  0  0  0  0  0  0  0  0  0  0  0
    3.8614   13.0387   -0.6973 H   0  0  0  0  0  0  0  0  0  0  0  0
    0.9881   13.8868    0.9751 H   0  0  0  0  0  0  0  0  0  0  0  0
    0.0973   14.8809   -0.2269 H   0  0  0  0  0  0  0  0  0  0  0  0
   -0.0859   13.0940   -0.2269 H   0  0  0  0  0  0  0  0  0  0  0  0
    3.2526   14.9505   -2.0541 H   0  0  0  0  0  0  0  0  0  0  0  0
    3.1721   15.5008    0.4606 H   0  0  0  0  0  0  0  0  0  0  0  0
    3.5490   16.8001   -0.7876 H   0  0  0  0  0  0  0  0  0  0  0  0
    1.9314   17.4996    1.1716 H   0  0  0  0  0  0  0  0  0  0  0  0
   -0.5364   15.9344   -1.6122 H   0  0  0  0  0  0  0  0  0  0  0  0
    0.3669   18.6247   -2.8159 H   0  0  0  0  0  0  0  0  0  0  0  0
   -0.7546   17.4098   -3.5758 H   0  0  0  0  0  0  0  0  0  0  0  0
   -1.9729   19.3371   -2.6165 H   0  0  0  0  0  0  0  0  0  0  0  0
   -2.3870   17.7706   -1.8166 H   0  0  0  0  0  0  0  0  0  0  0  0
   -2.1422   19.4582   -0.1259 H   0  0  0  0  0  0  0  0  0  0  0  0
   -0.5190   20.5990   -1.6740 H   0  0  0  0  0  0  0  0  0  0  0  0
   -1.6928   17.0282    1.9072 H   0  0  0  0  0  0  0  0  0  0  0  0
   -2.6447   17.3682    0.4224 H   0  0  0  0  0  0  0  0  0  0  0  0
   -1.4191   16.0551    0.4224 H   0  0  0  0  0  0  0  0  0  0  0  0
   -0.4553   18.2657    2.5142 H   0  0  0  0  0  0  0  0  0  0  0  0
    0.9875   18.8685    1.6299 H   0  0  0  0  0  0  0  0  0  0  0  0
   -0.5314   19.8275    1.6299 H   0  0  0  0  0  0  0  0  0  0  0  0
    2.8250   17.6024   -2.5803 H   0  0  0  0  0  0  0  0  0  0  0  0
    2.9841   16.4228   -3.9256 H   0  0  0  0  0  0  0  0  0  0  0  0
    1.6347   17.6084   -3.9256 H   0  0  0  0  0  0  0  0  0  0  0  0
   -0.1460   15.4674   -3.9797 H   0  0  0  0  0  0  0  0  0  0  0  0
    1.5611   14.8346   -4.3258 H   0  0  0  0  0  0  0  0  0  0  0  0
   -0.5069   13.6466   -2.4550 H   0  0  0  0  0  0  0  0  0  0  0  0
    0.1582   12.9554   -3.9867 H   0  0  0  0  0  0  0  0  0  0  0  0
    3.6656   12.6544   -2.7198 H   0  0  0  0  0  0  0  0  0  0  0  0
    2.5886   11.8880   -3.9360 H   0  0  0  0  0  0  0  0  0  0  0  0
    2.8188   13.6694   -3.9360 H   0  0  0  0  0  0  0  0  0  0  0  0
  1  2  1  0
  2  3  1  0
  3  4  1  0
  4  5  1  0
  5  6  1  0
  6  7  1  0
  7  8  1  0
  7  9  1  0
  2 10  1  0
 10 11  1  0
 11 12  1  0
 12 13  1  0
 13 14  1  1
 13 15  1  0
 15 16  1  0
 16 17  1  0
 17 18  2  0
 18 19  1  0
 19 20  1  0
 20 21  1  0
 21 22  1  0
 22 23  1  0
 22 24  1  0
 24 25  1  0
 24 26  1  0
 19 27  1  0
 27 28  1  6
 27 29  1  0
 29 30  1  0
 30 31  1  0
 31 32  1  6
  7  5  1  0
 31 10  1  0
 31 13  1  0
 27 15  1  0
 24 18  1  0
  1 33  1  0
  1 34  1  0
  1 35  1  0
  2 36  1  6
  3 37  1  0
  3 38  1  0
  4 39  1  0
  4 40  1  0
  5 41  1  1
  8 42  1  0
  8 43  1  0
  8 44  1  0
  9 45  1  0
  9 46  1  0
  9 47  1  0
 10 48  1  1
 11 49  1  0
 11 50  1  0
 12 51  1  0
 12 52  1  0
 14 53  1  0
 14 54  1  0
 14 55  1  0
 15 56  1  6
 16 57  1  0
 16 58  1  0
 17 59  1  0
 19 60  1  1
 20 61  1  0
 20 62  1  0
 21 63  1  0
 21 64  1  0
 22 65  1  1
 23 66  1  0
 25 67  1  0
 25 68  1  0
 25 69  1  0
 26 70  1  0
 26 71  1  0
 26 72  1  0
 28 73  1  0
 28 74  1  0
 28 75  1  0
 29 76  1  0
 29 77  1  0
 30 78  1  0
 30 79  1  0
 32 80  1  0
 32 81  1  0
 32 82  1  0
M  END
>  <meeko>  (17) 
{"is_sidechain": [false], "intermolecular_energy": 2.731, "internal_energy": -0.839}

$$$$
EPH_relaxed_0001_pdb2pqr_Repair_390_r2_0001_out
     RDKit          3D

 82 86  0  0  0  0  0  0  0  0999 V2000
  -15.2710    8.5590    0.3620 C   0  0  0  0  0  0  0  0  0  0  0  0
  -14.4030    8.9890   -0.8240 C   0  0  2  0  0  0  0  0  0  0  0  0
  -14.6180    8.0890   -2.0570 C   0  0  0  0  0  0  0  0  0  0  0  0
  -14.6190    8.8540   -3.3840 C   0  0  0  0  0  0  0  0  0  0  0  0
  -15.2830   10.1910   -3.2520 C   0  0  2  0  0  0  0  0  0  0  0  0
  -14.9430   11.1320   -4.2790 O   0  0  0  0  0  0  0  0  0  0  0  0
  -14.5300   11.4720   -2.9450 C   0  0  0  0  0  0  0  0  0  0  0  0
  -13.0460   11.4780   -2.7500 C   0  0  0  0  0  0  0  0  0  0  0  0
  -15.2850   12.6220   -2.3560 C   0  0  0  0  0  0  0  0  0  0  0  0
  -12.9320    8.9790   -0.4220 C   0  0  1  0  0  0  0  0  0  0  0  0
  -12.7310    9.1120    1.1110 C   0  0  0  0  0  0  0  0  0  0  0  0
  -11.4910    8.2560    1.4760 C   0  0  0  0  0  0  0  0  0  0  0  0
  -10.8280    7.9320    0.1170 C   0  0  1  0  0  0  0  0  0  0  0  0
  -10.0000    9.2060   -0.2400 C   0  0  0  0  0  0  0  0  0  0  0  0
   -9.9490    6.6400    0.0670 C   0  0  2  0  0  0  0  0  0  0  0  0
   -8.7190    6.6520    0.9920 C   0  0  0  0  0  0  0  0  0  0  0  0
   -7.4670    7.1890    0.3810 C   0  0  0  0  0  0  0  0  0  0  0  0
   -7.2570    7.3780   -0.9350 C   0  0  0  0  0  0  0  0  0  0  0  0
   -8.3060    6.9480   -1.9690 C   0  0  1  0  0  0  0  0  0  0  0  0
   -7.6090    6.1820   -3.1240 C   0  0  0  0  0  0  0  0  0  0  0  0
   -6.4670    6.9780   -3.7480 C   0  0  0  0  0  0  0  0  0  0  0  0
   -5.4160    7.3370   -2.7000 C   0  0  2  0  0  0  0  0  0  0  0  0
   -4.7820    6.1340   -2.2520 O   0  0  0  0  0  0  0  0  0  0  0  0
   -6.0030    8.1030   -1.4820 C   0  0  0  0  0  0  0  0  0  0  0  0
   -6.4170    9.5310   -1.9160 C   0  0  0  0  0  0  0  0  0  0  0  0
   -4.8680    8.2790   -0.4370 C   0  0  0  0  0  0  0  0  0  0  0  0
   -9.5680    6.1710   -1.3950 C   0  0  1  0  0  0  0  0  0  0  0  0
   -9.2580    4.6450   -1.3060 C   0  0  0  0  0  0  0  0  0  0  0  0
  -10.7670    6.3220   -2.4040 C   0  0  0  0  0  0  0  0  0  0  0  0
  -11.6710    7.5580   -2.2280 C   0  0  0  0  0  0  0  0  0  0  0  0
  -12.1090    7.7140   -0.7690 C   0  0  2  0  0  0  0  0  0  0  0  0
  -12.9620    6.4570   -0.3880 C   0  0  0  0  0  0  0  0  0  0  0  0
  -14.7591    8.8126    1.3020 H   0  0  0  0  0  0  0  0  0  0  0  0
  -16.2374    9.0826    0.3180 H   0  0  0  0  0  0  0  0  0  0  0  0
  -15.4400    7.4730    0.3180 H   0  0  0  0  0  0  0  0  0  0  0  0
  -14.7055   10.0091   -1.1030 H   0  0  0  0  0  0  0  0  0  0  0  0
  -13.8109    7.3423   -2.0871 H   0  0  0  0  0  0  0  0  0  0  0  0
  -15.6113    7.6287   -1.9502 H   0  0  0  0  0  0  0  0  0  0  0  0
  -13.5792    9.0030   -3.7105 H   0  0  0  0  0  0  0  0  0  0  0  0
  -15.1823    8.2624   -4.1207 H   0  0  0  0  0  0  0  0  0  0  0  0
  -16.1725    9.7310   -2.7968 H   0  0  0  0  0  0  0  0  0  0  0  0
  -12.8176   11.4789   -1.6740 H   0  0  0  0  0  0  0  0  0  0  0  0
  -12.6113   10.5816   -3.2164 H   0  0  0  0  0  0  0  0  0  0  0  0
  -12.6185   12.3779   -3.2164 H   0  0  0  0  0  0  0  0  0  0  0  0
  -15.2460   12.5625   -1.2583 H   0  0  0  0  0  0  0  0  0  0  0  0
  -14.8312   13.5673   -2.6884 H   0  0  0  0  0  0  0  0  0  0  0  0
  -16.3328   12.5815   -2.6884 H   0  0  0  0  0  0  0  0  0  0  0  0
  -12.5734    9.8348   -1.0127 H   0  0  0  0  0  0  0  0  0  0  0  0
  -12.5573   10.1643    1.3803 H   0  0  0  0  0  0  0  0  0  0  0  0
  -13.6221    8.7690    1.6572 H   0  0  0  0  0  0  0  0  0  0  0  0
  -10.8023    8.8241    2.1186 H   0  0  0  0  0  0  0  0  0  0  0  0
  -11.7604    7.3484    2.0360 H   0  0  0  0  0  0  0  0  0  0  0  0
   -9.6762    9.7042    0.6857 H   0  0  0  0  0  0  0  0  0  0  0  0
   -9.1170    8.9164   -0.8287 H   0  0  0  0  0  0  0  0  0  0  0  0
  -10.6232    9.8953   -0.8287 H   0  0  0  0  0  0  0  0  0  0  0  0
  -10.6263    5.8778    0.4797 H   0  0  0  0  0  0  0  0  0  0  0  0
   -8.9602    7.2687    1.8704 H   0  0  0  0  0  0  0  0  0  0  0  0
   -8.5115    5.5997    1.2362 H   0  0  0  0  0  0  0  0  0  0  0  0
   -6.6464    7.4526    1.0645 H   0  0  0  0  0  0  0  0  0  0  0  0
   -8.7539    7.8764   -2.3530 H   0  0  0  0  0  0  0  0  0  0  0  0
   -7.2060    5.2380   -2.7284 H   0  0  0  0  0  0  0  0  0  0  0  0
   -8.3599    6.0045   -3.9080 H   0  0  0  0  0  0  0  0  0  0  0  0
   -5.9964    6.3738   -4.5376 H   0  0  0  0  0  0  0  0  0  0  0  0
   -6.8761    7.9086   -4.1683 H   0  0  0  0  0  0  0  0  0  0  0  0
   -4.6918    8.0138   -3.1769 H   0  0  0  0  0  0  0  0  0  0  0  0
   -5.1810    5.8910   -1.4000 H   0  0  0  0  0  0  0  0  0  0  0  0
   -6.5959   10.1482   -1.0232 H   0  0  0  0  0  0  0  0  0  0  0  0
   -5.6119    9.9796   -2.5165 H   0  0  0  0  0  0  0  0  0  0  0  0
   -7.3372    9.4794   -2.5165 H   0  0  0  0  0  0  0  0  0  0  0  0
   -5.2897    8.2136    0.5769 H   0  0  0  0  0  0  0  0  0  0  0  0
   -4.1175    7.4865   -0.5738 H   0  0  0  0  0  0  0  0  0  0  0  0
   -4.3928    9.2616   -0.5738 H   0  0  0  0  0  0  0  0  0  0  0  0
   -9.1969    4.3443   -0.2497 H   0  0  0  0  0  0  0  0  0  0  0  0
  -10.0594    4.0785   -1.8028 H   0  0  0  0  0  0  0  0  0  0  0  0
   -8.2991    4.4361   -1.8028 H   0  0  0  0  0  0  0  0  0  0  0  0
  -10.3451    6.3600   -3.4192 H   0  0  0  0  0  0  0  0  0  0  0  0
  -11.4189    5.4579   -2.2082 H   0  0  0  0  0  0  0  0  0  0  0  0
  -11.1156    8.4565   -2.5349 H   0  0  0  0  0  0  0  0  0  0  0  0
  -12.5680    7.4278   -2.8513 H   0  0  0  0  0  0  0  0  0  0  0  0
  -13.0200    6.3715    0.7071 H   0  0  0  0  0  0  0  0  0  0  0  0
  -13.9757    6.5627   -0.8018 H   0  0  0  0  0  0  0  0  0  0  0  0
  -12.4894    5.5540   -0.8018 H   0  0  0  0  0  0  0  0  0  0  0  0
  1  2  1  0
  2  3  1  0
  3  4  1  0
  4  5  1  0
  5  6  1  0
  6  7  1  0
  7  8  1  0
  7  9  1  0
  2 10  1  0
 10 11  1  0
 11 12  1  0
 12 13  1  0
 13 14  1  6
 13 15  1  0
 15 16  1  0
 16 17  1  0
 17 18  2  0
 18 19  1  0
 19 20  1  0
 20 21  1  0
 21 22  1  0
 22 23  1  0
 22 24  1  0
 24 25  1  0
 24 26  1  0
 19 27  1  0
 27 28  1  1
 27 29  1  0
 29 30  1  0
 30 31  1  0
 31 32  1  1
  7  5  1  0
 31 10  1  0
 31 13  1  0
 27 15  1  0
 24 18  1  0
  1 33  1  0
  1 34  1  0
  1 35  1  0
  2 36  1  6
  3 37  1  0
  3 38  1  0
  4 39  1  0
  4 40  1  0
  5 41  1  1
  8 42  1  0
  8 43  1  0
  8 44  1  0
  9 45  1  0
  9 46  1  0
  9 47  1  0
 10 48  1  6
 11 49  1  0
 11 50  1  0
 12 51  1  0
 12 52  1  0
 14 53  1  0
 14 54  1  0
 14 55  1  0
 15 56  1  1
 16 57  1  0
 16 58  1  0
 17 59  1  0
 19 60  1  6
 20 61  1  0
 20 62  1  0
 21 63  1  0
 21 64  1  0
 22 65  1  6
 23 66  1  0
 25 67  1  0
 25 68  1  0
 25 69  1  0
 26 70  1  0
 26 71  1  0
 26 72  1  0
 28 73  1  0
 28 74  1  0
 28 75  1  0
 29 76  1  0
 29 77  1  0
 30 78  1  0
 30 79  1  0
 32 80  1  0
 32 81  1  0
 32 82  1  0
M  END
>  <meeko>  (18) 
{"is_sidechain": [false], "intermolecular_energy": 2.731, "internal_energy": -0.839}

$$$$
EPH_relaxed_0001_pdb2pqr_Repair_390_r2_0001_out
     RDKit          3D

 82 86  0  0  0  0  0  0  0  0999 V2000
  -13.8920    6.4790   -0.5190 C   0  0  0  0  0  0  0  0  0  0  0  0
  -13.0450    7.6800   -0.0880 C   0  0  2  0  0  0  0  0  0  0  0  0
  -13.8620    8.9870   -0.0590 C   0  0  0  0  0  0  0  0  0  0  0  0
  -15.2520    8.8570   -0.6880 C   0  0  0  0  0  0  0  0  0  0  0  0
  -15.2540    9.2930   -2.1220 C   0  0  2  0  0  0  0  0  0  0  0  0
  -13.9530    9.5110   -2.6840 O   0  0  0  0  0  0  0  0  0  0  0  0
  -14.8000   10.6670   -2.5800 C   0  0  0  0  0  0  0  0  0  0  0  0
  -14.3130   11.6920   -1.6050 C   0  0  0  0  0  0  0  0  0  0  0  0
  -15.2870   11.1780   -3.9000 C   0  0  0  0  0  0  0  0  0  0  0  0
  -11.8490    7.8340   -1.0210 C   0  0  1  0  0  0  0  0  0  0  0  0
  -11.8260    9.2090   -1.7400 C   0  0  0  0  0  0  0  0  0  0  0  0
  -10.3360    9.6130   -1.8850 C   0  0  0  0  0  0  0  0  0  0  0  0
   -9.5480    8.3250   -1.5510 C   0  0  1  0  0  0  0  0  0  0  0  0
   -9.5780    7.4840   -2.8660 C   0  0  0  0  0  0  0  0  0  0  0  0
   -8.0890    8.5240   -1.0260 C   0  0  2  0  0  0  0  0  0  0  0  0
   -7.1260    9.2010   -2.0160 C   0  0  0  0  0  0  0  0  0  0  0  0
   -6.3770    8.2730   -2.9140 C   0  0  0  0  0  0  0  0  0  0  0  0
   -6.2560    6.9440   -2.7390 C   0  0  0  0  0  0  0  0  0  0  0  0
   -6.8270    6.2580   -1.4910 C   0  0  1  0  0  0  0  0  0  0  0  0
   -5.7690    5.2870   -0.9040 C   0  0  0  0  0  0  0  0  0  0  0  0
   -5.2560    4.2870   -1.9360 C   0  0  0  0  0  0  0  0  0  0  0  0
   -4.6430    5.0070   -3.1350 C   0  0  2  0  0  0  0  0  0  0  0  0
   -3.4580    5.6860   -2.7080 O   0  0  0  0  0  0  0  0  0  0  0  0
   -5.6140    6.0200   -3.8030 C   0  0  0  0  0  0  0  0  0  0  0  0
   -6.7480    5.2530   -4.5280 C   0  0  0  0  0  0  0  0  0  0  0  0
   -4.8280    6.7770   -4.9070 C   0  0  0  0  0  0  0  0  0  0  0  0
   -7.4460    7.2240   -0.3920 C   0  0  1  0  0  0  0  0  0  0  0  0
   -6.3270    7.7100    0.5800 C   0  0  0  0  0  0  0  0  0  0  0  0
   -8.4730    6.4150    0.4840 C   0  0  0  0  0  0  0  0  0  0  0  0
   -9.9260    6.3550   -0.0260 C   0  0  0  0  0  0  0  0  0  0  0  0
  -10.4380    7.7530   -0.3870 C   0  0  2  0  0  0  0  0  0  0  0  0
  -10.4400    8.6150    0.9210 C   0  0  0  0  0  0  0  0  0  0  0  0
  -14.2630    5.9530    0.3730 H   0  0  0  0  0  0  0  0  0  0  0  0
  -14.7447    6.8284   -1.1198 H   0  0  0  0  0  0  0  0  0  0  0  0
  -13.2767    5.7931   -1.1198 H   0  0  0  0  0  0  0  0  0  0  0  0
  -12.6951    7.4871    0.9369 H   0  0  0  0  0  0  0  0  0  0  0  0
  -13.9827    9.2981    0.9892 H   0  0  0  0  0  0  0  0  0  0  0  0
  -13.3071    9.7268   -0.6547 H   0  0  0  0  0  0  0  0  0  0  0  0
  -15.5706    7.8055   -0.6346 H   0  0  0  0  0  0  0  0  0  0  0  0
  -15.9429    9.5068   -0.1308 H   0  0  0  0  0  0  0  0  0  0  0  0
  -16.1675    8.7134   -2.3210 H   0  0  0  0  0  0  0  0  0  0  0  0
  -14.4837   11.3327   -0.5794 H   0  0  0  0  0  0  0  0  0  0  0  0
  -13.2374   11.8630   -1.7594 H   0  0  0  0  0  0  0  0  0  0  0  0
  -14.8599   12.6339   -1.7594 H   0  0  0  0  0  0  0  0  0  0  0  0
  -16.0372   11.9652   -3.7343 H   0  0  0  0  0  0  0  0  0  0  0  0
  -14.4407   11.5918   -4.4679 H   0  0  0  0  0  0  0  0  0  0  0  0
  -15.7410   10.3525   -4.4679 H   0  0  0  0  0  0  0  0  0  0  0  0
  -12.0158    6.9689   -1.6796 H   0  0  0  0  0  0  0  0  0  0  0  0
  -12.2942    9.1257   -2.7319 H   0  0  0  0  0  0  0  0  0  0  0  0
  -12.3859    9.9634   -1.1678 H   0  0  0  0  0  0  0  0  0  0  0  0
  -10.1216    9.9441   -2.9119 H   0  0  0  0  0  0  0  0  0  0  0  0
  -10.0649   10.4506   -1.2255 H   0  0  0  0  0  0  0  0  0  0  0  0
   -9.6162    6.4135   -2.6158 H   0  0  0  0  0  0  0  0  0  0  0  0
  -10.4670    7.7550   -3.4543 H   0  0  0  0  0  0  0  0  0  0  0  0
   -8.6719    7.6910   -3.4543 H   0  0  0  0  0  0  0  0  0  0  0  0
   -8.2292    9.2440   -0.2062 H   0  0  0  0  0  0  0  0  0  0  0  0
   -7.7128    9.8846   -2.6471 H   0  0  0  0  0  0  0  0  0  0  0  0
   -6.3671    9.7089   -1.4027 H   0  0  0  0  0  0  0  0  0  0  0  0
   -5.8823    8.7124   -3.7928 H   0  0  0  0  0  0  0  0  0  0  0  0
   -7.7059    5.6903   -1.8305 H   0  0  0  0  0  0  0  0  0  0  0  0
   -4.9184    5.8762   -0.5307 H   0  0  0  0  0  0  0  0  0  0  0  0
   -6.2513    4.7160   -0.0969 H   0  0  0  0  0  0  0  0  0  0  0  0
   -4.4911    3.6487   -1.4697 H   0  0  0  0  0  0  0  0  0  0  0  0
   -6.1026    3.6786   -2.2868 H   0  0  0  0  0  0  0  0  0  0  0  0
   -4.4127    4.2458   -3.8950 H   0  0  0  0  0  0  0  0  0  0  0  0
   -3.7240    6.5590   -2.3750 H   0  0  0  0  0  0  0  0  0  0  0  0
   -7.4184    4.7995   -3.7831 H   0  0  0  0  0  0  0  0  0  0  0  0
   -7.3186    5.9514   -5.1579 H   0  0  0  0  0  0  0  0  0  0  0  0
   -6.3122    4.4635   -5.1579 H   0  0  0  0  0  0  0  0  0  0  0  0
   -4.1111    7.4675   -4.4387 H   0  0  0  0  0  0  0  0  0  0  0  0
   -4.2849    6.0531   -5.5323 H   0  0  0  0  0  0  0  0  0  0  0  0
   -5.5310    7.3469   -5.5323 H   0  0  0  0  0  0  0  0  0  0  0  0
   -6.6567    7.5668    1.6196 H   0  0  0  0  0  0  0  0  0  0  0  0
   -5.4098    7.1292    0.4029 H   0  0  0  0  0  0  0  0  0  0  0  0
   -6.1254    8.7768    0.4029 H   0  0  0  0  0  0  0  0  0  0  0  0
   -8.1040    5.3815    0.5598 H   0  0  0  0  0  0  0  0  0  0  0  0
   -8.5257    6.9571    1.4397 H   0  0  0  0  0  0  0  0  0  0  0  0
   -9.9677    5.7146   -0.9194 H   0  0  0  0  0  0  0  0  0  0  0  0
  -10.5614    5.9438    0.7722 H   0  0  0  0  0  0  0  0  0  0  0  0
  -10.4385    7.9508    1.7978 H   0  0  0  0  0  0  0  0  0  0  0  0
   -9.5433    9.2518    0.9418 H   0  0  0  0  0  0  0  0  0  0  0  0
  -11.3396    9.2477    0.9418 H   0  0  0  0  0  0  0  0  0  0  0  0
  1  2  1  0
  2  3  1  0
  3  4  1  0
  4  5  1  0
  5  6  1  0
  6  7  1  0
  7  8  1  0
  7  9  1  0
  2 10  1  0
 10 11  1  0
 11 12  1  0
 12 13  1  0
 13 14  1  6
 13 15  1  0
 15 16  1  0
 16 17  1  0
 17 18  2  0
 18 19  1  0
 19 20  1  0
 20 21  1  0
 21 22  1  0
 22 23  1  0
 22 24  1  0
 24 25  1  0
 24 26  1  0
 19 27  1  0
 27 28  1  1
 27 29  1  0
 29 30  1  0
 30 31  1  0
 31 32  1  1
  7  5  1  0
 31 10  1  0
 31 13  1  0
 27 15  1  0
 24 18  1  0
  1 33  1  0
  1 34  1  0
  1 35  1  0
  2 36  1  1
  3 37  1  0
  3 38  1  0
  4 39  1  0
  4 40  1  0
  5 41  1  6
  8 42  1  0
  8 43  1  0
  8 44  1  0
  9 45  1  0
  9 46  1  0
  9 47  1  0
 10 48  1  6
 11 49  1  0
 11 50  1  0
 12 51  1  0
 12 52  1  0
 14 53  1  0
 14 54  1  0
 14 55  1  0
 15 56  1  1
 16 57  1  0
 16 58  1  0
 17 59  1  0
 19 60  1  6
 20 61  1  0
 20 62  1  0
 21 63  1  0
 21 64  1  0
 22 65  1  6
 23 66  1  0
 25 67  1  0
 25 68  1  0
 25 69  1  0
 26 70  1  0
 26 71  1  0
 26 72  1  0
 28 73  1  0
 28 74  1  0
 28 75  1  0
 29 76  1  0
 29 77  1  0
 30 78  1  0
 30 79  1  0
 32 80  1  0
 32 81  1  0
 32 82  1  0
M  END
>  <meeko>  (19) 
{"is_sidechain": [false], "intermolecular_energy": 2.731, "internal_energy": -0.839}

$$$$
EPH_relaxed_0001_pdb2pqr_Repair_390_r2_0001_out
     RDKit          3D

 82 86  0  0  0  0  0  0  0  0999 V2000
    1.5820   10.6940   -4.8500 C   0  0  0  0  0  0  0  0  0  0  0  0
    0.8630   10.5440   -3.5060 C   0  0  2  0  0  0  0  0  0  0  0  0
   -0.3020    9.5380   -3.5790 C   0  0  0  0  0  0  0  0  0  0  0  0
   -0.2250    8.4290   -2.5260 C   0  0  0  0  0  0  0  0  0  0  0  0
   -0.0130    8.9850   -1.1500 C   0  0  2  0  0  0  0  0  0  0  0  0
   -0.3820    8.1010   -0.0830 O   0  0  0  0  0  0  0  0  0  0  0  0
   -1.1470    9.3120   -0.1960 C   0  0  0  0  0  0  0  0  0  0  0  0
   -2.5770    9.0940   -0.5800 C   0  0  0  0  0  0  0  0  0  0  0  0
   -0.8940   10.2900    0.9080 C   0  0  0  0  0  0  0  0  0  0  0  0
    0.3510   11.9010   -3.0370 C   0  0  1  0  0  0  0  0  0  0  0  0
   -1.0710   11.8220   -2.4200 C   0  0  0  0  0  0  0  0  0  0  0  0
   -1.1200   12.8660   -1.2750 C   0  0  0  0  0  0  0  0  0  0  0  0
    0.1440   13.7330   -1.4830 C   0  0  1  0  0  0  0  0  0  0  0  0
   -0.2480   14.7530   -2.5980 C   0  0  0  0  0  0  0  0  0  0  0  0
    0.7040   14.4530   -0.2130 C   0  0  2  0  0  0  0  0  0  0  0  0
   -0.2470   15.4790    0.4280 C   0  0  0  0  0  0  0  0  0  0  0  0
   -0.1130   16.8770   -0.0790 C   0  0  0  0  0  0  0  0  0  0  0  0
    0.9190   17.3520   -0.8000 C   0  0  0  0  0  0  0  0  0  0  0  0
    2.1440   16.4760   -1.0930 C   0  0  1  0  0  0  0  0  0  0  0  0
    3.4380   17.2870   -0.8170 C   0  0  0  0  0  0  0  0  0  0  0  0
    3.4720   18.6100   -1.5760 C   0  0  0  0  0  0  0  0  0  0  0  0
    2.2680   19.4770   -1.2150 C   0  0  2  0  0  0  0  0  0  0  0  0
    2.3800   19.8740    0.1550 O   0  0  0  0  0  0  0  0  0  0  0  0
    0.9070   18.7610   -1.4420 C   0  0  0  0  0  0  0  0  0  0  0  0
    0.6500   18.6010   -2.9610 C   0  0  0  0  0  0  0  0  0  0  0  0
   -0.2160   19.6900   -0.9070 C   0  0  0  0  0  0  0  0  0  0  0  0
    2.1590   15.0480   -0.3940 C   0  0  1  0  0  0  0  0  0  0  0  0
    2.7750   15.1610    1.0340 C   0  0  0  0  0  0  0  0  0  0  0  0
    3.1010   14.0870   -1.2100 C   0  0  0  0  0  0  0  0  0  0  0  0
    2.4610   13.3120   -2.3780 C   0  0  0  0  0  0  0  0  0  0  0  0
    1.1650   12.6270   -1.9360 C   0  0  2  0  0  0  0  0  0  0  0  0
    1.5300   11.5790   -0.8300 C   0  0  0  0  0  0  0  0  0  0  0  0
    2.6450   10.9158   -4.6744 H   0  0  0  0  0  0  0  0  0  0  0  0
    1.4921    9.7578   -5.4204 H   0  0  0  0  0  0  0  0  0  0  0  0
    1.1253   11.5162   -5.4204 H   0  0  0  0  0  0  0  0  0  0  0  0
    1.5925   10.1510   -2.7826 H   0  0  0  0  0  0  0  0  0  0  0  0
   -1.2444   10.0872   -3.4366 H   0  0  0  0  0  0  0  0  0  0  0  0
   -0.2446    9.0508   -4.5635 H   0  0  0  0  0  0  0  0  0  0  0  0
   -1.1657    7.8589   -2.5392 H   0  0  0  0  0  0  0  0  0  0  0  0
    0.6309    7.7827   -2.7704 H   0  0  0  0  0  0  0  0  0  0  0  0
    0.8536    9.5687   -1.4940 H   0  0  0  0  0  0  0  0  0  0  0  0
   -3.1904    9.0005    0.3283 H   0  0  0  0  0  0  0  0  0  0  0  0
   -2.9312    9.9485   -1.1753 H   0  0  0  0  0  0  0  0  0  0  0  0
   -2.6605    8.1728   -1.1753 H   0  0  0  0  0  0  0  0  0  0  0  0
   -1.0236    9.7889    1.8786 H   0  0  0  0  0  0  0  0  0  0  0  0
    0.1333   10.6751    0.8285 H   0  0  0  0  0  0  0  0  0  0  0  0
   -1.6057   11.1249    0.8285 H   0  0  0  0  0  0  0  0  0  0  0  0
    0.4161   12.4594   -3.9825 H   0  0  0  0  0  0  0  0  0  0  0  0
   -1.8282   12.0593   -3.1818 H   0  0  0  0  0  0  0  0  0  0  0  0
   -1.2820   10.8108   -2.0420 H   0  0  0  0  0  0  0  0  0  0  0  0
   -2.0291   13.4809   -1.3488 H   0  0  0  0  0  0  0  0  0  0  0  0
   -1.1436   12.3946   -0.2814 H   0  0  0  0  0  0  0  0  0  0  0  0
   -0.6058   15.6840   -2.1340 H   0  0  0  0  0  0  0  0  0  0  0  0
    0.6312   14.9691   -3.2228 H   0  0  0  0  0  0  0  0  0  0  0  0
   -1.0456   14.3247   -3.2228 H   0  0  0  0  0  0  0  0  0  0  0  0
    0.7843   13.6278    0.5099 H   0  0  0  0  0  0  0  0  0  0  0  0
   -1.2794   15.1477    0.2424 H   0  0  0  0  0  0  0  0  0  0  0  0
    0.0192   15.5155    1.4947 H   0  0  0  0  0  0  0  0  0  0  0  0
   -0.9271   17.5781    0.1569 H   0  0  0  0  0  0  0  0  0  0  0  0
    2.0848   16.2179   -2.1607 H   0  0  0  0  0  0  0  0  0  0  0  0
    3.4993   17.4972    0.2610 H   0  0  0  0  0  0  0  0  0  0  0  0
    4.2905   16.6828   -1.1606 H   0  0  0  0  0  0  0  0  0  0  0  0
    4.3949   19.1498   -1.3174 H   0  0  0  0  0  0  0  0  0  0  0  0
    3.4406   18.3970   -2.6547 H   0  0  0  0  0  0  0  0  0  0  0  0
    2.2782   20.3503   -1.8838 H   0  0  0  0  0  0  0  0  0  0  0  0
    2.6160   19.0850    0.6720 H   0  0  0  0  0  0  0  0  0  0  0  0
   -0.2743   18.0256   -3.1179 H   0  0  0  0  0  0  0  0  0  0  0  0
    0.5462   19.5944   -3.4219 H   0  0  0  0  0  0  0  0  0  0  0  0
    1.4956   18.0694   -3.4219 H   0  0  0  0  0  0  0  0  0  0  0  0
   -0.2059   19.6816    0.1929 H   0  0  0  0  0  0  0  0  0  0  0  0
   -0.0464   20.7153   -1.2674 H   0  0  0  0  0  0  0  0  0  0  0  0
   -1.1914   19.3313   -1.2674 H   0  0  0  0  0  0  0  0  0  0  0  0
    1.9857   15.0162    1.7863 H   0  0  0  0  0  0  0  0  0  0  0  0
    3.5490   14.3899    1.1615 H   0  0  0  0  0  0  0  0  0  0  0  0
    3.2249   16.1567    1.1615 H   0  0  0  0  0  0  0  0  0  0  0  0
    3.9192   14.6952   -1.6231 H   0  0  0  0  0  0  0  0  0  0  0  0
    3.4163   13.3157   -0.4919 H   0  0  0  0  0  0  0  0  0  0  0  0
    2.2368   14.0133   -3.1953 H   0  0  0  0  0  0  0  0  0  0  0  0
    3.1681   12.5402   -2.7162 H   0  0  0  0  0  0  0  0  0  0  0  0
    1.3746   12.0251    0.1634 H   0  0  0  0  0  0  0  0  0  0  0  0
    0.8876   10.6927   -0.9385 H   0  0  0  0  0  0  0  0  0  0  0  0
    2.5840   11.2835   -0.9385 H   0  0  0  0  0  0  0  0  0  0  0  0
  1  2  1  0
  2  3  1  0
  3  4  1  0
  4  5  1  0
  5  6  1  0
  6  7  1  0
  7  8  1  0
  7  9  1  0
  2 10  1  0
 10 11  1  0
 11 12  1  0
 12 13  1  0
 13 14  1  6
 13 15  1  0
 15 16  1  0
 16 17  1  0
 17 18  2  0
 18 19  1  0
 19 20  1  0
 20 21  1  0
 21 22  1  0
 22 23  1  0
 22 24  1  0
 24 25  1  0
 24 26  1  0
 19 27  1  0
 27 28  1  1
 27 29  1  0
 29 30  1  0
 30 31  1  0
 31 32  1  1
  7  5  1  0
 31 10  1  0
 31 13  1  0
 27 15  1  0
 24 18  1  0
  1 33  1  0
  1 34  1  0
  1 35  1  0
  2 36  1  1
  3 37  1  0
  3 38  1  0
  4 39  1  0
  4 40  1  0
  5 41  1  1
  8 42  1  0
  8 43  1  0
  8 44  1  0
  9 45  1  0
  9 46  1  0
  9 47  1  0
 10 48  1  6
 11 49  1  0
 11 50  1  0
 12 51  1  0
 12 52  1  0
 14 53  1  0
 14 54  1  0
 14 55  1  0
 15 56  1  1
 16 57  1  0
 16 58  1  0
 17 59  1  0
 19 60  1  6
 20 61  1  0
 20 62  1  0
 21 63  1  0
 21 64  1  0
 22 65  1  6
 23 66  1  0
 25 67  1  0
 25 68  1  0
 25 69  1  0
 26 70  1  0
 26 71  1  0
 26 72  1  0
 28 73  1  0
 28 74  1  0
 28 75  1  0
 29 76  1  0
 29 77  1  0
 30 78  1  0
 30 79  1  0
 32 80  1  0
 32 81  1  0
 32 82  1  0
M  END
>  <meeko>  (20) 
{"is_sidechain": [false], "intermolecular_energy": 2.731, "internal_energy": -0.839}

$$$$
