EPH_relaxed_0001_pdb2pqr_Repair_309_r2_0001_out
     RDKit          3D

 82 86  0  0  0  0  0  0  0  0999 V2000
    5.3810   16.0000   -4.6090 C   0  0  0  0  0  0  0  0  0  0  0  0
    4.5080   15.2380   -5.6100 C   0  0  2  0  0  0  0  0  0  0  0  0
    3.2850   16.0620   -6.0600 C   0  0  0  0  0  0  0  0  0  0  0  0
    2.2830   15.2670   -6.9010 C   0  0  0  0  0  0  0  0  0  0  0  0
    2.5500   15.4140   -8.3680 C   0  0  2  0  0  0  0  0  0  0  0  0
    2.4520   16.7570   -8.8620 O   0  0  0  0  0  0  0  0  0  0  0  0
    1.4900   15.8210   -9.3750 C   0  0  0  0  0  0  0  0  0  0  0  0
    0.0820   16.1040   -8.9540 C   0  0  0  0  0  0  0  0  0  0  0  0
    1.6980   15.4690  -10.8150 C   0  0  0  0  0  0  0  0  0  0  0  0
    4.0520   13.9170   -5.0020 C   0  0  1  0  0  0  0  0  0  0  0  0
    5.2090   12.8940   -4.8580 C   0  0  0  0  0  0  0  0  0  0  0  0
    4.9350   12.0880   -3.5620 C   0  0  0  0  0  0  0  0  0  0  0  0
    3.4760   12.4390   -3.1860 C   0  0  1  0  0  0  0  0  0  0  0  0
    2.5970   11.5220   -4.0920 C   0  0  0  0  0  0  0  0  0  0  0  0
    3.0980   12.2920   -1.6760 C   0  0  2  0  0  0  0  0  0  0  0  0
    3.2050   10.8640   -1.1120 C   0  0  0  0  0  0  0  0  0  0  0  0
    1.9620   10.0430   -1.2140 C   0  0  0  0  0  0  0  0  0  0  0  0
    0.7300   10.5180   -1.4740 C   0  0  0  0  0  0  0  0  0  0  0  0
    0.4780   12.0260   -1.5990 C   0  0  1  0  0  0  0  0  0  0  0  0
   -0.7820   12.4110   -0.7790 C   0  0  0  0  0  0  0  0  0  0  0  0
   -2.0040   11.5810   -1.1610 C   0  0  0  0  0  0  0  0  0  0  0  0
   -1.7340   10.0910   -0.9680 C   0  0  2  0  0  0  0  0  0  0  0  0
   -1.5740    9.8290    0.4300 O   0  0  0  0  0  0  0  0  0  0  0  0
   -0.4810    9.5900   -1.7400 C   0  0  0  0  0  0  0  0  0  0  0  0
   -0.7710    9.5930   -3.2610 C   0  0  0  0  0  0  0  0  0  0  0  0
   -0.2390    8.1080   -1.3470 C   0  0  0  0  0  0  0  0  0  0  0  0
    1.7200   12.9660   -1.2850 C   0  0  1  0  0  0  0  0  0  0  0  0
    1.7890   13.2630    0.2450 C   0  0  0  0  0  0  0  0  0  0  0  0
    1.5090   14.3540   -1.9980 C   0  0  0  0  0  0  0  0  0  0  0  0
    2.0130   14.4720   -3.4490 C   0  0  0  0  0  0  0  0  0  0  0  0
    3.4510   13.9620   -3.5740 C   0  0  2  0  0  0  0  0  0  0  0  0
    4.3630   14.8790   -2.6900 C   0  0  0  0  0  0  0  0  0  0  0  0
    5.0793   15.7366   -3.5845 H   0  0  0  0  0  0  0  0  0  0  0  0
    6.4360   15.7287   -4.7617 H   0  0  0  0  0  0  0  0  0  0  0  0
    5.2548   17.0820   -4.7617 H   0  0  0  0  0  0  0  0  0  0  0  0
    5.1208   15.0441   -6.5027 H   0  0  0  0  0  0  0  0  0  0  0  0
    2.7678   16.4339   -5.1632 H   0  0  0  0  0  0  0  0  0  0  0  0
    3.6625   16.8770   -6.6951 H   0  0  0  0  0  0  0  0  0  0  0  0
    2.3555   14.2033   -6.6304 H   0  0  0  0  0  0  0  0  0  0  0  0
    1.2760   15.6588   -6.6951 H   0  0  0  0  0  0  0  0  0  0  0  0
    3.2643   14.5777   -8.3462 H   0  0  0  0  0  0  0  0  0  0  0  0
    0.0231   16.1158   -7.8556 H   0  0  0  0  0  0  0  0  0  0  0  0
   -0.2290   17.0826   -9.3485 H   0  0  0  0  0  0  0  0  0  0  0  0
   -0.5830   15.3215   -9.3485 H   0  0  0  0  0  0  0  0  0  0  0  0
    2.2565   14.5239  -10.8845 H   0  0  0  0  0  0  0  0  0  0  0  0
    0.7219   15.3553  -11.3094 H   0  0  0  0  0  0  0  0  0  0  0  0
    2.2684   16.2691  -11.3094 H   0  0  0  0  0  0  0  0  0  0  0  0
    3.2751   13.6378   -5.7290 H   0  0  0  0  0  0  0  0  0  0  0  0
    5.2284   12.2194   -5.7266 H   0  0  0  0  0  0  0  0  0  0  0  0
    6.1826   13.4035   -4.8078 H   0  0  0  0  0  0  0  0  0  0  0  0
    5.0397   11.0086   -3.7464 H   0  0  0  0  0  0  0  0  0  0  0  0
    5.6442   12.3358   -2.7585 H   0  0  0  0  0  0  0  0  0  0  0  0
    1.9737   10.8718   -3.4606 H   0  0  0  0  0  0  0  0  0  0  0  0
    1.9504   12.1454   -4.7271 H   0  0  0  0  0  0  0  0  0  0  0  0
    3.2472   10.9024   -4.7271 H   0  0  0  0  0  0  0  0  0  0  0  0
    3.8899   12.8699   -1.1771 H   0  0  0  0  0  0  0  0  0  0  0  0
    4.0034   10.3414   -1.6593 H   0  0  0  0  0  0  0  0  0  0  0  0
    3.4082   10.9760   -0.0368 H   0  0  0  0  0  0  0  0  0  0  0  0
    2.0618    8.9579   -1.0639 H   0  0  0  0  0  0  0  0  0  0  0  0
    0.3006   12.2158   -2.6679 H   0  0  0  0  0  0  0  0  0  0  0  0
   -0.5692   12.2547    0.2889 H   0  0  0  0  0  0  0  0  0  0  0  0
   -1.0126   13.4645   -0.9956 H   0  0  0  0  0  0  0  0  0  0  0  0
   -2.8530   11.8779   -0.5278 H   0  0  0  0  0  0  0  0  0  0  0  0
   -2.2333   11.7616   -2.2216 H   0  0  0  0  0  0  0  0  0  0  0  0
   -2.5951    9.5438   -1.3791 H   0  0  0  0  0  0  0  0  0  0  0  0
   -0.8010   10.3310    0.7370 H   0  0  0  0  0  0  0  0  0  0  0  0
   -1.8584    9.6042   -3.4269 H   0  0  0  0  0  0  0  0  0  0  0  0
   -0.3210   10.4865   -3.7183 H   0  0  0  0  0  0  0  0  0  0  0  0
   -0.3396    8.6903   -3.7183 H   0  0  0  0  0  0  0  0  0  0  0  0
   -0.2242    8.0171   -0.2509 H   0  0  0  0  0  0  0  0  0  0  0  0
   -1.0471    7.4836   -1.7558 H   0  0  0  0  0  0  0  0  0  0  0  0
    0.7257    7.7731   -1.7558 H   0  0  0  0  0  0  0  0  0  0  0  0
    1.5751   12.3421    0.8073 H   0  0  0  0  0  0  0  0  0  0  0  0
    2.7951   13.6249    0.5033 H   0  0  0  0  0  0  0  0  0  0  0  0
    1.0455   14.0314    0.5033 H   0  0  0  0  0  0  0  0  0  0  0  0
    0.4295   14.5655   -2.0022 H   0  0  0  0  0  0  0  0  0  0  0  0
    2.1159   15.0688   -1.4229 H   0  0  0  0  0  0  0  0  0  0  0  0
    1.3618   13.8762   -4.1055 H   0  0  0  0  0  0  0  0  0  0  0  0
    1.9905   15.5319   -3.7425 H   0  0  0  0  0  0  0  0  0  0  0  0
    4.1638   14.6787   -1.6269 H   0  0  0  0  0  0  0  0  0  0  0  0
    5.4196   14.6678   -2.9112 H   0  0  0  0  0  0  0  0  0  0  0  0
    4.1460   15.9345   -2.9112 H   0  0  0  0  0  0  0  0  0  0  0  0
  1  2  1  0
  2  3  1  0
  3  4  1  0
  4  5  1  0
  5  6  1  0
  6  7  1  0
  7  8  1  0
  7  9  1  0
  2 10  1  0
 10 11  1  0
 11 12  1  0
 12 13  1  0
 13 14  1  6
 13 15  1  0
 15 16  1  0
 16 17  1  0
 17 18  2  0
 18 19  1  0
 19 20  1  0
 20 21  1  0
 21 22  1  0
 22 23  1  0
 22 24  1  0
 24 25  1  0
 24 26  1  0
 19 27  1  0
 27 28  1  1
 27 29  1  0
 29 30  1  0
 30 31  1  0
 31 32  1  1
  7  5  1  0
 31 10  1  0
 31 13  1  0
 27 15  1  0
 24 18  1  0
  1 33  1  0
  1 34  1  0
  1 35  1  0
  2 36  1  6
  3 37  1  0
  3 38  1  0
  4 39  1  0
  4 40  1  0
  5 41  1  6
  8 42  1  0
  8 43  1  0
  8 44  1  0
  9 45  1  0
  9 46  1  0
  9 47  1  0
 10 48  1  6
 11 49  1  0
 11 50  1  0
 12 51  1  0
 12 52  1  0
 14 53  1  0
 14 54  1  0
 14 55  1  0
 15 56  1  1
 16 57  1  0
 16 58  1  0
 17 59  1  0
 19 60  1  6
 20 61  1  0
 20 62  1  0
 21 63  1  0
 21 64  1  0
 22 65  1  6
 23 66  1  0
 25 67  1  0
 25 68  1  0
 25 69  1  0
 26 70  1  0
 26 71  1  0
 26 72  1  0
 28 73  1  0
 28 74  1  0
 28 75  1  0
 29 76  1  0
 29 77  1  0
 30 78  1  0
 30 79  1  0
 32 80  1  0
 32 81  1  0
 32 82  1  0
M  END
>  <meeko>  (1) 
{"is_sidechain": [false], "intermolecular_energy": 2.731, "internal_energy": -0.839}

$$$$
EPH_relaxed_0001_pdb2pqr_Repair_309_r2_0001_out
     RDKit          3D

 82 86  0  0  0  0  0  0  0  0999 V2000
    3.2690   17.3520   -2.7680 C   0  0  0  0  0  0  0  0  0  0  0  0
    1.8700   17.5150   -3.3700 C   0  0  2  0  0  0  0  0  0  0  0  0
    0.9840   18.4590   -2.5340 C   0  0  0  0  0  0  0  0  0  0  0  0
    0.8750   18.0570   -1.0610 C   0  0  0  0  0  0  0  0  0  0  0  0
    1.1630   19.2110   -0.1480 C   0  0  2  0  0  0  0  0  0  0  0  0
    2.2950   20.0050   -0.5270 O   0  0  0  0  0  0  0  0  0  0  0  0
    2.4040   19.3000    0.7200 C   0  0  0  0  0  0  0  0  0  0  0  0
    3.4380   18.2180    0.7190 C   0  0  0  0  0  0  0  0  0  0  0  0
    2.3740   20.1930    1.9220 C   0  0  0  0  0  0  0  0  0  0  0  0
    1.2000   16.1520   -3.5020 C   0  0  1  0  0  0  0  0  0  0  0  0
    0.9050   15.7720   -4.9780 C   0  0  0  0  0  0  0  0  0  0  0  0
    1.0960   14.2370   -5.0900 C   0  0  0  0  0  0  0  0  0  0  0  0
    1.1650   13.7440   -3.6250 C   0  0  1  0  0  0  0  0  0  0  0  0
   -0.3230   13.6530   -3.1620 C   0  0  0  0  0  0  0  0  0  0  0  0
    1.9280   12.4020   -3.3840 C   0  0  2  0  0  0  0  0  0  0  0  0
    1.3170   11.1700   -4.0730 C   0  0  0  0  0  0  0  0  0  0  0  0
    0.3120   10.4190   -3.2640 C   0  0  0  0  0  0  0  0  0  0  0  0
    0.1230   10.5470   -1.9370 C   0  0  0  0  0  0  0  0  0  0  0  0
    1.0330   11.4510   -1.0950 C   0  0  1  0  0  0  0  0  0  0  0  0
    1.4700   10.6950    0.1870 C   0  0  0  0  0  0  0  0  0  0  0  0
    0.2840   10.1580    0.9830 C   0  0  0  0  0  0  0  0  0  0  0  0
   -0.5640    9.2180    0.1300 C   0  0  2  0  0  0  0  0  0  0  0  0
    0.2020    8.0450   -0.1630 O   0  0  0  0  0  0  0  0  0  0  0  0
   -1.0540    9.8670   -1.1950 C   0  0  0  0  0  0  0  0  0  0  0  0
   -2.1200   10.9460   -0.8820 C   0  0  0  0  0  0  0  0  0  0  0  0
   -1.7760    8.7710   -2.0240 C   0  0  0  0  0  0  0  0  0  0  0  0
    2.2590   12.1090   -1.8640 C   0  0  1  0  0  0  0  0  0  0  0  0
    3.4780   11.1360   -1.8530 C   0  0  0  0  0  0  0  0  0  0  0  0
    2.7160   13.4020   -1.0910 C   0  0  0  0  0  0  0  0  0  0  0  0
    2.0060   14.7190   -1.4600 C   0  0  0  0  0  0  0  0  0  0  0  0
    1.9810   14.9220   -2.9780 C   0  0  2  0  0  0  0  0  0  0  0  0
    3.4640   15.0400   -3.4690 C   0  0  0  0  0  0  0  0  0  0  0  0
    3.1990   17.3602   -1.6703 H   0  0  0  0  0  0  0  0  0  0  0  0
    3.7024   16.3973   -3.1007 H   0  0  0  0  0  0  0  0  0  0  0  0
    3.9103   18.1815   -3.1007 H   0  0  0  0  0  0  0  0  0  0  0  0
    1.9884   17.9695   -4.3647 H   0  0  0  0  0  0  0  0  0  0  0  0
    1.4094   19.4720   -2.5869 H   0  0  0  0  0  0  0  0  0  0  0  0
   -0.0300   18.4069   -2.9573 H   0  0  0  0  0  0  0  0  0  0  0  0
   -0.1446   17.6935   -0.8653 H   0  0  0  0  0  0  0  0  0  0  0  0
    1.6186   17.2706   -0.8644 H   0  0  0  0  0  0  0  0  0  0  0  0
    0.0934   19.3298    0.0795 H   0  0  0  0  0  0  0  0  0  0  0  0
    3.6918   17.9524    1.7558 H   0  0  0  0  0  0  0  0  0  0  0  0
    3.0418   17.3326    0.2002 H   0  0  0  0  0  0  0  0  0  0  0  0
    4.3404   18.5737    0.2002 H   0  0  0  0  0  0  0  0  0  0  0  0
    2.3946   19.5798    2.8350 H   0  0  0  0  0  0  0  0  0  0  0  0
    3.2503   20.8577    1.9069 H   0  0  0  0  0  0  0  0  0  0  0  0
    1.4550   20.7974    1.9069 H   0  0  0  0  0  0  0  0  0  0  0  0
    0.3088   16.3235   -2.8804 H   0  0  0  0  0  0  0  0  0  0  0  0
   -0.1275   16.0457   -5.2408 H   0  0  0  0  0  0  0  0  0  0  0  0
    1.5775   16.3055   -5.6658 H   0  0  0  0  0  0  0  0  0  0  0  0
    0.2456   13.7772   -5.6148 H   0  0  0  0  0  0  0  0  0  0  0  0
    1.9961   13.9695   -5.6629 H   0  0  0  0  0  0  0  0  0  0  0  0
   -0.3655   13.6504   -2.0628 H   0  0  0  0  0  0  0  0  0  0  0  0
   -0.8809   14.5187   -3.5485 H   0  0  0  0  0  0  0  0  0  0  0  0
   -0.7712   12.7258   -3.5485 H   0  0  0  0  0  0  0  0  0  0  0  0
    2.8871   12.5823   -3.8916 H   0  0  0  0  0  0  0  0  0  0  0  0
    0.8256   11.5067   -4.9978 H   0  0  0  0  0  0  0  0  0  0  0  0
    2.1506   10.4733   -4.2451 H   0  0  0  0  0  0  0  0  0  0  0  0
   -0.3281    9.7005   -3.7969 H   0  0  0  0  0  0  0  0  0  0  0  0
    0.4254   12.3266   -0.8228 H   0  0  0  0  0  0  0  0  0  0  0  0
    2.1113    9.8498   -0.1035 H   0  0  0  0  0  0  0  0  0  0  0  0
    2.0069   11.4090    0.8288 H   0  0  0  0  0  0  0  0  0  0  0  0
    0.6577    9.6096    1.8602 H   0  0  0  0  0  0  0  0  0  0  0  0
   -0.3410   11.0067    1.2979 H   0  0  0  0  0  0  0  0  0  0  0  0
   -1.4656    8.9696    0.7092 H   0  0  0  0  0  0  0  0  0  0  0  0
    0.3380    8.0160   -1.1250 H   0  0  0  0  0  0  0  0  0  0  0  0
   -2.2251   11.0524    0.2078 H   0  0  0  0  0  0  0  0  0  0  0  0
   -1.8071   11.9072   -1.3157 H   0  0  0  0  0  0  0  0  0  0  0  0
   -3.0850   10.6448   -1.3157 H   0  0  0  0  0  0  0  0  0  0  0  0
   -2.2512    8.0496   -1.3430 H   0  0  0  0  0  0  0  0  0  0  0  0
   -2.5442    9.2375   -2.6582 H   0  0  0  0  0  0  0  0  0  0  0  0
   -1.0442    8.2493   -2.6582 H   0  0  0  0  0  0  0  0  0  0  0  0
    3.7588   10.9118   -0.8133 H   0  0  0  0  0  0  0  0  0  0  0  0
    3.2071   10.2030   -2.3689 H   0  0  0  0  0  0  0  0  0  0  0  0
    4.3277   11.6069   -2.3689 H   0  0  0  0  0  0  0  0  0  0  0  0
    2.5510   13.2242   -0.0181 H   0  0  0  0  0  0  0  0  0  0  0  0
    3.7676   13.5518   -1.3768 H   0  0  0  0  0  0  0  0  0  0  0  0
    0.9727   14.6883   -1.0840 H   0  0  0  0  0  0  0  0  0  0  0  0
    2.5573   15.5543   -1.0036 H   0  0  0  0  0  0  0  0  0  0  0  0
    4.1351   15.0934   -2.5991 H   0  0  0  0  0  0  0  0  0  0  0  0
    3.7203   14.1594   -4.0763 H   0  0  0  0  0  0  0  0  0  0  0  0
    3.5779   15.9500   -4.0763 H   0  0  0  0  0  0  0  0  0  0  0  0
  1  2  1  0
  2  3  1  0
  3  4  1  0
  4  5  1  0
  5  6  1  0
  6  7  1  0
  7  8  1  0
  7  9  1  0
  2 10  1  0
 10 11  1  0
 11 12  1  0
 12 13  1  0
 13 14  1  1
 13 15  1  0
 15 16  1  0
 16 17  1  0
 17 18  2  0
 18 19  1  0
 19 20  1  0
 20 21  1  0
 21 22  1  0
 22 23  1  0
 22 24  1  0
 24 25  1  0
 24 26  1  0
 19 27  1  0
 27 28  1  6
 27 29  1  0
 29 30  1  0
 30 31  1  0
 31 32  1  6
  7  5  1  0
 31 10  1  0
 31 13  1  0
 27 15  1  0
 24 18  1  0
  1 33  1  0
  1 34  1  0
  1 35  1  0
  2 36  1  6
  3 37  1  0
  3 38  1  0
  4 39  1  0
  4 40  1  0
  5 41  1  1
  8 42  1  0
  8 43  1  0
  8 44  1  0
  9 45  1  0
  9 46  1  0
  9 47  1  0
 10 48  1  1
 11 49  1  0
 11 50  1  0
 12 51  1  0
 12 52  1  0
 14 53  1  0
 14 54  1  0
 14 55  1  0
 15 56  1  6
 16 57  1  0
 16 58  1  0
 17 59  1  0
 19 60  1  1
 20 61  1  0
 20 62  1  0
 21 63  1  0
 21 64  1  0
 22 65  1  1
 23 66  1  0
 25 67  1  0
 25 68  1  0
 25 69  1  0
 26 70  1  0
 26 71  1  0
 26 72  1  0
 28 73  1  0
 28 74  1  0
 28 75  1  0
 29 76  1  0
 29 77  1  0
 30 78  1  0
 30 79  1  0
 32 80  1  0
 32 81  1  0
 32 82  1  0
M  END
>  <meeko>  (2) 
{"is_sidechain": [false], "intermolecular_energy": 2.731, "internal_energy": -0.839}

$$$$
EPH_relaxed_0001_pdb2pqr_Repair_309_r2_0001_out
     RDKit          3D

 82 86  0  0  0  0  0  0  0  0999 V2000
    3.8300   17.4420   -3.8490 C   0  0  0  0  0  0  0  0  0  0  0  0
    2.5020   17.4620   -3.0860 C   0  0  2  0  0  0  0  0  0  0  0  0
    2.7020   17.7170   -1.5790 C   0  0  0  0  0  0  0  0  0  0  0  0
    2.1050   19.0410   -1.0940 C   0  0  0  0  0  0  0  0  0  0  0  0
    0.8140   18.8320   -0.3610 C   0  0  2  0  0  0  0  0  0  0  0  0
    0.0310   17.7280   -0.8320 O   0  0  0  0  0  0  0  0  0  0  0  0
   -0.5490   19.0330   -0.9950 C   0  0  0  0  0  0  0  0  0  0  0  0
   -0.6910   19.4620   -2.4220 C   0  0  0  0  0  0  0  0  0  0  0  0
   -1.7230   19.2860   -0.1020 C   0  0  0  0  0  0  0  0  0  0  0  0
    1.7600   16.1480   -3.2990 C   0  0  1  0  0  0  0  0  0  0  0  0
    1.5720   15.8040   -4.8000 C   0  0  0  0  0  0  0  0  0  0  0  0
    1.6730   14.2620   -4.9220 C   0  0  0  0  0  0  0  0  0  0  0  0
    1.5830   13.7490   -3.4650 C   0  0  1  0  0  0  0  0  0  0  0  0
    0.0580   13.7490   -3.1340 C   0  0  0  0  0  0  0  0  0  0  0  0
    2.2360   12.3570   -3.1810 C   0  0  2  0  0  0  0  0  0  0  0  0
    1.6090   11.1750   -3.9420 C   0  0  0  0  0  0  0  0  0  0  0  0
    0.4920   10.4820   -3.2350 C   0  0  0  0  0  0  0  0  0  0  0  0
    0.1970   10.6060   -1.9280 C   0  0  0  0  0  0  0  0  0  0  0  0
    1.0860   11.4400   -0.9960 C   0  0  1  0  0  0  0  0  0  0  0  0
    1.3610   10.6430    0.3070 C   0  0  0  0  0  0  0  0  0  0  0  0
    0.0780   10.1750    0.9880 C   0  0  0  0  0  0  0  0  0  0  0  0
   -0.7500    9.3020    0.0490 C   0  0  2  0  0  0  0  0  0  0  0  0
   -0.0390    8.0850   -0.1970 O   0  0  0  0  0  0  0  0  0  0  0  0
   -1.0810    9.9960   -1.3010 C   0  0  0  0  0  0  0  0  0  0  0  0
   -2.0990   11.1390   -1.0630 C   0  0  0  0  0  0  0  0  0  0  0  0
   -1.7970    8.9590   -2.2090 C   0  0  0  0  0  0  0  0  0  0  0  0
    2.4130   12.0260   -1.6440 C   0  0  1  0  0  0  0  0  0  0  0  0
    3.5620   10.9760   -1.5450 C   0  0  0  0  0  0  0  0  0  0  0  0
    2.8820   13.2780   -0.8130 C   0  0  0  0  0  0  0  0  0  0  0  0
    2.2930   14.6420   -1.2190 C   0  0  0  0  0  0  0  0  0  0  0  0
    2.4130   14.8630   -2.7300 C   0  0  2  0  0  0  0  0  0  0  0  0
    3.9380   14.8900   -3.0900 C   0  0  0  0  0  0  0  0  0  0  0  0
    4.6644   17.4294   -3.1324 H   0  0  0  0  0  0  0  0  0  0  0  0
    3.8761   16.5431   -4.4813 H   0  0  0  0  0  0  0  0  0  0  0  0
    3.9032   18.3391   -4.4813 H   0  0  0  0  0  0  0  0  0  0  0  0
    1.9039   18.2947   -3.4846 H   0  0  0  0  0  0  0  0  0  0  0  0
    2.2259   16.8967   -1.0218 H   0  0  0  0  0  0  0  0  0  0  0  0
    3.7866   17.7700   -1.4032 H   0  0  0  0  0  0  0  0  0  0  0  0
    2.8230   19.5297   -0.4190 H   0  0  0  0  0  0  0  0  0  0  0  0
    1.9016   19.6682   -1.9745 H   0  0  0  0  0  0  0  0  0  0  0  0
    1.2556   19.2089    0.5733 H   0  0  0  0  0  0  0  0  0  0  0  0
   -1.0365   20.5057   -2.4585 H   0  0  0  0  0  0  0  0  0  0  0  0
    0.2822   19.3800   -2.9281 H   0  0  0  0  0  0  0  0  0  0  0  0
   -1.4231   18.8155   -2.9281 H   0  0  0  0  0  0  0  0  0  0  0  0
   -1.4057   19.2176    0.9490 H   0  0  0  0  0  0  0  0  0  0  0  0
   -2.1239   20.2912   -0.2993 H   0  0  0  0  0  0  0  0  0  0  0  0
   -2.5023   18.5352   -0.2993 H   0  0  0  0  0  0  0  0  0  0  0  0
    0.8303   16.3710   -2.7550 H   0  0  0  0  0  0  0  0  0  0  0  0
    0.5862   16.1476   -5.1467 H   0  0  0  0  0  0  0  0  0  0  0  0
    2.3357   16.2997   -5.4172 H   0  0  0  0  0  0  0  0  0  0  0  0
    0.8435   13.8650   -5.5255 H   0  0  0  0  0  0  0  0  0  0  0  0
    2.6001   13.9426   -5.4204 H   0  0  0  0  0  0  0  0  0  0  0  0
   -0.3003   12.7119   -3.0562 H   0  0  0  0  0  0  0  0  0  0  0  0
   -0.1098   14.2675   -2.1785 H   0  0  0  0  0  0  0  0  0  0  0  0
   -0.4908   14.2675   -3.9339 H   0  0  0  0  0  0  0  0  0  0  0  0
    3.2459   12.4800   -3.5994 H   0  0  0  0  0  0  0  0  0  0  0  0
    1.2220   11.5540   -4.8994 H   0  0  0  0  0  0  0  0  0  0  0  0
    2.4080   10.4275   -4.0547 H   0  0  0  0  0  0  0  0  0  0  0  0
   -0.1441    9.8131   -3.8332 H   0  0  0  0  0  0  0  0  0  0  0  0
    0.5134   12.3500   -0.7637 H   0  0  0  0  0  0  0  0  0  0  0  0
    1.9706    9.7615    0.0593 H   0  0  0  0  0  0  0  0  0  0  0  0
    1.8841   11.3135    1.0047 H   0  0  0  0  0  0  0  0  0  0  0  0
    0.3378    9.5935    1.8849 H   0  0  0  0  0  0  0  0  0  0  0  0
   -0.5169   11.0588    1.2620 H   0  0  0  0  0  0  0  0  0  0  0  0
   -1.7123    9.1062    0.5446 H   0  0  0  0  0  0  0  0  0  0  0  0
    0.3210    7.7780    0.6530 H   0  0  0  0  0  0  0  0  0  0  0  0
   -2.2340   11.2906    0.0181 H   0  0  0  0  0  0  0  0  0  0  0  0
   -1.7223   12.0664   -1.5191 H   0  0  0  0  0  0  0  0  0  0  0  0
   -3.0637   10.8717   -1.5191 H   0  0  0  0  0  0  0  0  0  0  0  0
   -2.3105    8.2153   -1.5819 H   0  0  0  0  0  0  0  0  0  0  0  0
   -2.5329    9.4740   -2.8441 H   0  0  0  0  0  0  0  0  0  0  0  0
   -1.0547    8.4533   -2.8441 H   0  0  0  0  0  0  0  0  0  0  0  0
    3.7835   10.7736   -0.4867 H   0  0  0  0  0  0  0  0  0  0  0  0
    3.2505   10.0439   -2.0392 H   0  0  0  0  0  0  0  0  0  0  0  0
    4.4623   11.3699   -2.0392 H   0  0  0  0  0  0  0  0  0  0  0  0
    2.6129   13.0992    0.2385 H   0  0  0  0  0  0  0  0  0  0  0  0
    3.9618   13.3624   -1.0049 H   0  0  0  0  0  0  0  0  0  0  0  0
    1.2311   14.6747   -0.9337 H   0  0  0  0  0  0  0  0  0  0  0  0
    2.8549   15.4344   -0.7029 H   0  0  0  0  0  0  0  0  0  0  0  0
    4.5330   14.9005   -2.1649 H   0  0  0  0  0  0  0  0  0  0  0  0
    4.1916   13.9962   -3.6789 H   0  0  0  0  0  0  0  0  0  0  0  0
    4.1598   15.7922   -3.6789 H   0  0  0  0  0  0  0  0  0  0  0  0
  1  2  1  0
  2  3  1  0
  3  4  1  0
  4  5  1  0
  5  6  1  0
  6  7  1  0
  7  8  1  0
  7  9  1  0
  2 10  1  0
 10 11  1  0
 11 12  1  0
 12 13  1  0
 13 14  1  1
 13 15  1  0
 15 16  1  0
 16 17  1  0
 17 18  2  0
 18 19  1  0
 19 20  1  0
 20 21  1  0
 21 22  1  0
 22 23  1  0
 22 24  1  0
 24 25  1  0
 24 26  1  0
 19 27  1  0
 27 28  1  6
 27 29  1  0
 29 30  1  0
 30 31  1  0
 31 32  1  6
  7  5  1  0
 31 10  1  0
 31 13  1  0
 27 15  1  0
 24 18  1  0
  1 33  1  0
  1 34  1  0
  1 35  1  0
  2 36  1  6
  3 37  1  0
  3 38  1  0
  4 39  1  0
  4 40  1  0
  5 41  1  1
  8 42  1  0
  8 43  1  0
  8 44  1  0
  9 45  1  0
  9 46  1  0
  9 47  1  0
 10 48  1  1
 11 49  1  0
 11 50  1  0
 12 51  1  0
 12 52  1  0
 14 53  1  0
 14 54  1  0
 14 55  1  0
 15 56  1  6
 16 57  1  0
 16 58  1  0
 17 59  1  0
 19 60  1  1
 20 61  1  0
 20 62  1  0
 21 63  1  0
 21 64  1  0
 22 65  1  1
 23 66  1  0
 25 67  1  0
 25 68  1  0
 25 69  1  0
 26 70  1  0
 26 71  1  0
 26 72  1  0
 28 73  1  0
 28 74  1  0
 28 75  1  0
 29 76  1  0
 29 77  1  0
 30 78  1  0
 30 79  1  0
 32 80  1  0
 32 81  1  0
 32 82  1  0
M  END
>  <meeko>  (3) 
{"is_sidechain": [false], "intermolecular_energy": 2.731, "internal_energy": -0.839}

$$$$
EPH_relaxed_0001_pdb2pqr_Repair_309_r2_0001_out
     RDKit          3D

 82 86  0  0  0  0  0  0  0  0999 V2000
    4.8690   17.4750   -1.4670 C   0  0  0  0  0  0  0  0  0  0  0  0
    3.5080   18.1640   -1.3350 C   0  0  2  0  0  0  0  0  0  0  0  0
    3.4280   19.0570   -0.0810 C   0  0  0  0  0  0  0  0  0  0  0  0
    3.8590   18.3500    1.2070 C   0  0  0  0  0  0  0  0  0  0  0  0
    3.8270   19.2760    2.3850 C   0  0  2  0  0  0  0  0  0  0  0  0
    4.9270   20.1930    2.4560 O   0  0  0  0  0  0  0  0  0  0  0  0
    4.8380   19.2270    3.5160 C   0  0  0  0  0  0  0  0  0  0  0  0
    5.9510   18.2270    3.5240 C   0  0  0  0  0  0  0  0  0  0  0  0
    4.4600   19.8160    4.8390 C   0  0  0  0  0  0  0  0  0  0  0  0
    2.3980   17.1190   -1.3020 C   0  0  1  0  0  0  0  0  0  0  0  0
    1.0310   17.6840   -1.7720 C   0  0  0  0  0  0  0  0  0  0  0  0
    0.3070   16.5360   -2.5210 C   0  0  0  0  0  0  0  0  0  0  0  0
    1.1220   15.2680   -2.1730 C   0  0  1  0  0  0  0  0  0  0  0  0
    0.6120   14.8390   -0.7620 C   0  0  0  0  0  0  0  0  0  0  0  0
    1.0400   14.0910   -3.1990 C   0  0  2  0  0  0  0  0  0  0  0  0
   -0.3630   13.4890   -3.3910 C   0  0  0  0  0  0  0  0  0  0  0  0
   -0.6970   12.3500   -2.4850 C   0  0  0  0  0  0  0  0  0  0  0  0
    0.1870   11.6470   -1.7530 C   0  0  0  0  0  0  0  0  0  0  0  0
    1.6940   11.9130   -1.8700 C   0  0  1  0  0  0  0  0  0  0  0  0
    2.4490   10.5640   -1.9990 C   0  0  0  0  0  0  0  0  0  0  0  0
    2.1130    9.5950   -0.8690 C   0  0  0  0  0  0  0  0  0  0  0  0
    0.6140    9.3110   -0.8220 C   0  0  2  0  0  0  0  0  0  0  0  0
    0.2440    8.5900   -2.0020 O   0  0  0  0  0  0  0  0  0  0  0  0
   -0.2500   10.5970   -0.7020 C   0  0  0  0  0  0  0  0  0  0  0  0
   -0.0710   11.2150    0.7060 C   0  0  0  0  0  0  0  0  0  0  0  0
   -1.7420   10.1810   -0.8080 C   0  0  0  0  0  0  0  0  0  0  0  0
    2.1280   12.9640   -2.9800 C   0  0  1  0  0  0  0  0  0  0  0  0
    2.3070   12.2450   -4.3520 C   0  0  0  0  0  0  0  0  0  0  0  0
    3.5370   13.5570   -2.6030 C   0  0  0  0  0  0  0  0  0  0  0  0
    3.5470   14.7920   -1.6820 C   0  0  0  0  0  0  0  0  0  0  0  0
    2.5770   15.8630   -2.1910 C   0  0  2  0  0  0  0  0  0  0  0  0
    3.0770   16.3310   -3.6000 C   0  0  0  0  0  0  0  0  0  0  0  0
    5.2747   17.2696   -0.4654 H   0  0  0  0  0  0  0  0  0  0  0  0
    4.7494   16.5289   -2.0152 H   0  0  0  0  0  0  0  0  0  0  0  0
    5.5607   18.1315   -2.0152 H   0  0  0  0  0  0  0  0  0  0  0  0
    3.3803   18.8153   -2.2122 H   0  0  0  0  0  0  0  0  0  0  0  0
    4.0808   19.9291   -0.2335 H   0  0  0  0  0  0  0  0  0  0  0  0
    2.3725   19.3397    0.0454 H   0  0  0  0  0  0  0  0  0  0  0  0
    3.1771   17.5080    1.3968 H   0  0  0  0  0  0  0  0  0  0  0  0
    4.8928   17.9980    1.0755 H   0  0  0  0  0  0  0  0  0  0  0  0
    2.7270   19.2840    2.3784 H   0  0  0  0  0  0  0  0  0  0  0  0
    6.2196   17.9857    4.5630 H   0  0  0  0  0  0  0  0  0  0  0  0
    5.6255   17.3120    3.0074 H   0  0  0  0  0  0  0  0  0  0  0  0
    6.8261   18.6482    3.0074 H   0  0  0  0  0  0  0  0  0  0  0  0
    4.8625   19.1888    5.6481 H   0  0  0  0  0  0  0  0  0  0  0  0
    4.8757   20.8311    4.9206 H   0  0  0  0  0  0  0  0  0  0  0  0
    3.3640   19.8610    4.9206 H   0  0  0  0  0  0  0  0  0  0  0  0
    2.4421   16.8369   -0.2397 H   0  0  0  0  0  0  0  0  0  0  0  0
    0.4355   18.0054   -0.9048 H   0  0  0  0  0  0  0  0  0  0  0  0
    1.1683   18.5578   -2.4260 H   0  0  0  0  0  0  0  0  0  0  0  0
   -0.7314   16.4383   -2.1713 H   0  0  0  0  0  0  0  0  0  0  0  0
    0.2543   16.7134   -3.6053 H   0  0  0  0  0  0  0  0  0  0  0  0
    1.2098   15.3418    0.0125 H   0  0  0  0  0  0  0  0  0  0  0  0
   -0.4448   15.1237   -0.6519 H   0  0  0  0  0  0  0  0  0  0  0  0
    0.7115   13.7491   -0.6519 H   0  0  0  0  0  0  0  0  0  0  0  0
    1.2833   14.5889   -4.1492 H   0  0  0  0  0  0  0  0  0  0  0  0
   -1.1014   14.2865   -3.2211 H   0  0  0  0  0  0  0  0  0  0  0  0
   -0.3825   13.0815   -4.4126 H   0  0  0  0  0  0  0  0  0  0  0  0
   -1.7556   12.0609   -2.4094 H   0  0  0  0  0  0  0  0  0  0  0  0
    1.9876   12.4173   -0.9375 H   0  0  0  0  0  0  0  0  0  0  0  0
    2.1757   10.0971   -2.9568 H   0  0  0  0  0  0  0  0  0  0  0  0
    3.5267   10.7781   -1.9459 H   0  0  0  0  0  0  0  0  0  0  0  0
    2.6534    8.6508   -1.0317 H   0  0  0  0  0  0  0  0  0  0  0  0
    2.4142   10.0508    0.0857 H   0  0  0  0  0  0  0  0  0  0  0  0
    0.4190    8.7175    0.0834 H   0  0  0  0  0  0  0  0  0  0  0  0
   -0.1620    7.7530   -1.7200 H   0  0  0  0  0  0  0  0  0  0  0  0
   -0.2910   10.4553    1.4705 H   0  0  0  0  0  0  0  0  0  0  0  0
    0.9653   11.5645    0.8240 H   0  0  0  0  0  0  0  0  0  0  0  0
   -0.7601   12.0643    0.8240 H   0  0  0  0  0  0  0  0  0  0  0  0
   -2.1626   10.0637    0.2016 H   0  0  0  0  0  0  0  0  0  0  0  0
   -2.3015   10.9574   -1.3504 H   0  0  0  0  0  0  0  0  0  0  0  0
   -1.8190    9.2271   -1.3504 H   0  0  0  0  0  0  0  0  0  0  0  0
    2.5695   11.1904   -4.1818 H   0  0  0  0  0  0  0  0  0  0  0  0
    1.3673   12.3017   -4.9210 H   0  0  0  0  0  0  0  0  0  0  0  0
    3.1104   12.7357   -4.9210 H   0  0  0  0  0  0  0  0  0  0  0  0
    4.1088   12.7627   -2.1008 H   0  0  0  0  0  0  0  0  0  0  0  0
    3.9672   13.9037   -3.5541 H   0  0  0  0  0  0  0  0  0  0  0  0
    3.2473   14.4875   -0.6684 H   0  0  0  0  0  0  0  0  0  0  0  0
    4.5626   15.2144   -1.6725 H   0  0  0  0  0  0  0  0  0  0  0  0
    3.8750   17.0779   -3.4764 H   0  0  0  0  0  0  0  0  0  0  0  0
    3.4673   15.4661   -4.1565 H   0  0  0  0  0  0  0  0  0  0  0  0
    2.2398   16.7776   -4.1565 H   0  0  0  0  0  0  0  0  0  0  0  0
  1  2  1  0
  2  3  1  0
  3  4  1  0
  4  5  1  0
  5  6  1  0
  6  7  1  0
  7  8  1  0
  7  9  1  0
  2 10  1  0
 10 11  1  0
 11 12  1  0
 12 13  1  0
 13 14  1  1
 13 15  1  0
 15 16  1  0
 16 17  1  0
 17 18  2  0
 18 19  1  0
 19 20  1  0
 20 21  1  0
 21 22  1  0
 22 23  1  0
 22 24  1  0
 24 25  1  0
 24 26  1  0
 19 27  1  0
 27 28  1  6
 27 29  1  0
 29 30  1  0
 30 31  1  0
 31 32  1  6
  7  5  1  0
 31 10  1  0
 31 13  1  0
 27 15  1  0
 24 18  1  0
  1 33  1  0
  1 34  1  0
  1 35  1  0
  2 36  1  6
  3 37  1  0
  3 38  1  0
  4 39  1  0
  4 40  1  0
  5 41  1  1
  8 42  1  0
  8 43  1  0
  8 44  1  0
  9 45  1  0
  9 46  1  0
  9 47  1  0
 10 48  1  1
 11 49  1  0
 11 50  1  0
 12 51  1  0
 12 52  1  0
 14 53  1  0
 14 54  1  0
 14 55  1  0
 15 56  1  6
 16 57  1  0
 16 58  1  0
 17 59  1  0
 19 60  1  1
 20 61  1  0
 20 62  1  0
 21 63  1  0
 21 64  1  0
 22 65  1  1
 23 66  1  0
 25 67  1  0
 25 68  1  0
 25 69  1  0
 26 70  1  0
 26 71  1  0
 26 72  1  0
 28 73  1  0
 28 74  1  0
 28 75  1  0
 29 76  1  0
 29 77  1  0
 30 78  1  0
 30 79  1  0
 32 80  1  0
 32 81  1  0
 32 82  1  0
M  END
>  <meeko>  (4) 
{"is_sidechain": [false], "intermolecular_energy": 2.731, "internal_energy": -0.839}

$$$$
EPH_relaxed_0001_pdb2pqr_Repair_309_r2_0001_out
     RDKit          3D

 82 86  0  0  0  0  0  0  0  0999 V2000
    4.9480   15.9210   -5.9120 C   0  0  0  0  0  0  0  0  0  0  0  0
    3.8550   16.6240   -5.1030 C   0  0  2  0  0  0  0  0  0  0  0  0
    4.4050   17.2570   -3.8100 C   0  0  0  0  0  0  0  0  0  0  0  0
    3.3180   17.6580   -2.8090 C   0  0  0  0  0  0  0  0  0  0  0  0
    3.8210   17.6190   -1.3980 C   0  0  2  0  0  0  0  0  0  0  0  0
    3.1680   16.6610   -0.5560 O   0  0  0  0  0  0  0  0  0  0  0  0
    2.9890   18.0420   -0.2010 C   0  0  0  0  0  0  0  0  0  0  0  0
    1.5850   18.5350   -0.3620 C   0  0  0  0  0  0  0  0  0  0  0  0
    3.6960   18.4370    1.0580 C   0  0  0  0  0  0  0  0  0  0  0  0
    2.7410   15.6390   -4.7680 C   0  0  1  0  0  0  0  0  0  0  0  0
    1.8210   15.3410   -5.9830 C   0  0  0  0  0  0  0  0  0  0  0  0
    1.3950   13.8550   -5.8670 C   0  0  0  0  0  0  0  0  0  0  0  0
    1.8030   13.4430   -4.4340 C   0  0  1  0  0  0  0  0  0  0  0  0
    0.6540   13.9750   -3.5200 C   0  0  0  0  0  0  0  0  0  0  0  0
    2.0660   11.9190   -4.2020 C   0  0  2  0  0  0  0  0  0  0  0  0
    0.8500   11.0050   -4.4290 C   0  0  0  0  0  0  0  0  0  0  0  0
    0.0060   10.7550   -3.2230 C   0  0  0  0  0  0  0  0  0  0  0  0
    0.3650   11.0080   -1.9510 C   0  0  0  0  0  0  0  0  0  0  0  0
    1.7750   11.5100   -1.6160 C   0  0  1  0  0  0  0  0  0  0  0  0
    2.3410   10.7010   -0.4190 C   0  0  0  0  0  0  0  0  0  0  0  0
    1.4120   10.7190    0.7910 C   0  0  0  0  0  0  0  0  0  0  0  0
    0.0380   10.1590    0.4330 C   0  0  2  0  0  0  0  0  0  0  0  0
    0.1720    8.7660    0.1340 O   0  0  0  0  0  0  0  0  0  0  0  0
   -0.6270   10.8900   -0.7680 C   0  0  0  0  0  0  0  0  0  0  0  0
   -1.0460   12.3180   -0.3400 C   0  0  0  0  0  0  0  0  0  0  0  0
   -1.9400   10.1380   -1.1160 C   0  0  0  0  0  0  0  0  0  0  0  0
    2.7920   11.5870   -2.8350 C   0  0  1  0  0  0  0  0  0  0  0  0
    3.4970   10.2100   -3.0280 C   0  0  0  0  0  0  0  0  0  0  0  0
    3.9270   12.6240   -2.4930 C   0  0  0  0  0  0  0  0  0  0  0  0
    3.6550   14.0960   -2.8550 C   0  0  0  0  0  0  0  0  0  0  0  0
    3.1610   14.2240   -4.2990 C   0  0  2  0  0  0  0  0  0  0  0  0
    4.3050   13.7170   -5.2420 C   0  0  0  0  0  0  0  0  0  0  0  0
    5.6708   15.4561   -5.2253 H   0  0  0  0  0  0  0  0  0  0  0  0
    4.4935   15.1455   -6.5460 H   0  0  0  0  0  0  0  0  0  0  0  0
    5.4652   16.6562   -6.5460 H   0  0  0  0  0  0  0  0  0  0  0  0
    3.4561   17.4389   -5.7250 H   0  0  0  0  0  0  0  0  0  0  0  0
    5.0728   16.5301   -3.3245 H   0  0  0  0  0  0  0  0  0  0  0  0
    4.9287   18.1793   -4.1017 H   0  0  0  0  0  0  0  0  0  0  0  0
    2.9811   18.6796   -3.0391 H   0  0  0  0  0  0  0  0  0  0  0  0
    2.4894   16.9399   -2.8972 H   0  0  0  0  0  0  0  0  0  0  0  0
    4.8340   17.8942   -1.7267 H   0  0  0  0  0  0  0  0  0  0  0  0
    1.1358   18.6927    0.6296 H   0  0  0  0  0  0  0  0  0  0  0  0
    1.5912   19.4847   -0.9170 H   0  0  0  0  0  0  0  0  0  0  0  0
    0.9961   17.7899   -0.9170 H   0  0  0  0  0  0  0  0  0  0  0  0
    3.1077   18.1083    1.9274 H   0  0  0  0  0  0  0  0  0  0  0  0
    4.6880   17.9624    1.0858 H   0  0  0  0  0  0  0  0  0  0  0  0
    3.8118   19.5305    1.0858 H   0  0  0  0  0  0  0  0  0  0  0  0
    2.2574   16.1814   -3.9422 H   0  0  0  0  0  0  0  0  0  0  0  0
    0.9350   15.9923   -5.9561 H   0  0  0  0  0  0  0  0  0  0  0  0
    2.3457   15.5288   -6.9314 H   0  0  0  0  0  0  0  0  0  0  0  0
    0.3089   13.7503   -6.0068 H   0  0  0  0  0  0  0  0  0  0  0  0
    1.8691   13.2241   -6.6333 H   0  0  0  0  0  0  0  0  0  0  0  0
    0.9350   13.8449   -2.4645 H   0  0  0  0  0  0  0  0  0  0  0  0
    0.4862   15.0425   -3.7258 H   0  0  0  0  0  0  0  0  0  0  0  0
   -0.2686   13.4124   -3.7258 H   0  0  0  0  0  0  0  0  0  0  0  0
    2.7755   11.6771   -5.0071 H   0  0  0  0  0  0  0  0  0  0  0  0
    0.2149   11.4690   -5.1980 H   0  0  0  0  0  0  0  0  0  0  0  0
    1.2560   10.0263   -4.7245 H   0  0  0  0  0  0  0  0  0  0  0  0
   -0.9941   10.3278   -3.3883 H   0  0  0  0  0  0  0  0  0  0  0  0
    1.6623   12.5671   -1.3334 H   0  0  0  0  0  0  0  0  0  0  0  0
    2.4869    9.6578   -0.7360 H   0  0  0  0  0  0  0  0  0  0  0  0
    3.2898   11.1694   -0.1184 H   0  0  0  0  0  0  0  0  0  0  0  0
    1.8524   10.1071    1.5920 H   0  0  0  0  0  0  0  0  0  0  0  0
    1.2905   11.7602    1.1245 H   0  0  0  0  0  0  0  0  0  0  0  0
   -0.6198   10.3176    1.3003 H   0  0  0  0  0  0  0  0  0  0  0  0
   -0.7160    8.4190   -0.0530 H   0  0  0  0  0  0  0  0  0  0  0  0
   -1.0645   12.3811    0.7580 H   0  0  0  0  0  0  0  0  0  0  0  0
   -0.3238   13.0465   -0.7370 H   0  0  0  0  0  0  0  0  0  0  0  0
   -2.0474   12.5408   -0.7370 H   0  0  0  0  0  0  0  0  0  0  0  0
   -2.4518    9.8449   -0.1875 H   0  0  0  0  0  0  0  0  0  0  0  0
   -2.5956   10.7975   -1.7035 H   0  0  0  0  0  0  0  0  0  0  0  0
   -1.7029    9.2388   -1.7035 H   0  0  0  0  0  0  0  0  0  0  0  0
    3.7213    9.7719   -2.0443 H   0  0  0  0  0  0  0  0  0  0  0  0
    2.8341    9.5340   -3.5880 H   0  0  0  0  0  0  0  0  0  0  0  0
    4.4330   10.3526   -3.5880 H   0  0  0  0  0  0  0  0  0  0  0  0
    4.1062   12.5756   -1.4088 H   0  0  0  0  0  0  0  0  0  0  0  0
    4.7842   12.3282   -3.1157 H   0  0  0  0  0  0  0  0  0  0  0  0
    2.8887   14.4978   -2.1757 H   0  0  0  0  0  0  0  0  0  0  0  0
    4.5936   14.6608   -2.7544 H   0  0  0  0  0  0  0  0  0  0  0  0
    5.1433   13.3455   -4.6344 H   0  0  0  0  0  0  0  0  0  0  0  0
    3.9235   12.9037   -5.8768 H   0  0  0  0  0  0  0  0  0  0  0  0
    4.6513   14.5459   -5.8768 H   0  0  0  0  0  0  0  0  0  0  0  0
  1  2  1  0
  2  3  1  0
  3  4  1  0
  4  5  1  0
  5  6  1  0
  6  7  1  0
  7  8  1  0
  7  9  1  0
  2 10  1  0
 10 11  1  0
 11 12  1  0
 12 13  1  0
 13 14  1  1
 13 15  1  0
 15 16  1  0
 16 17  1  0
 17 18  2  0
 18 19  1  0
 19 20  1  0
 20 21  1  0
 21 22  1  0
 22 23  1  0
 22 24  1  0
 24 25  1  0
 24 26  1  0
 19 27  1  0
 27 28  1  6
 27 29  1  0
 29 30  1  0
 30 31  1  0
 31 32  1  6
  7  5  1  0
 31 10  1  0
 31 13  1  0
 27 15  1  0
 24 18  1  0
  1 33  1  0
  1 34  1  0
  1 35  1  0
  2 36  1  6
  3 37  1  0
  3 38  1  0
  4 39  1  0
  4 40  1  0
  5 41  1  6
  8 42  1  0
  8 43  1  0
  8 44  1  0
  9 45  1  0
  9 46  1  0
  9 47  1  0
 10 48  1  1
 11 49  1  0
 11 50  1  0
 12 51  1  0
 12 52  1  0
 14 53  1  0
 14 54  1  0
 14 55  1  0
 15 56  1  6
 16 57  1  0
 16 58  1  0
 17 59  1  0
 19 60  1  1
 20 61  1  0
 20 62  1  0
 21 63  1  0
 21 64  1  0
 22 65  1  1
 23 66  1  0
 25 67  1  0
 25 68  1  0
 25 69  1  0
 26 70  1  0
 26 71  1  0
 26 72  1  0
 28 73  1  0
 28 74  1  0
 28 75  1  0
 29 76  1  0
 29 77  1  0
 30 78  1  0
 30 79  1  0
 32 80  1  0
 32 81  1  0
 32 82  1  0
M  END
>  <meeko>  (5) 
{"is_sidechain": [false], "intermolecular_energy": 2.731, "internal_energy": -0.839}

$$$$
EPH_relaxed_0001_pdb2pqr_Repair_309_r2_0001_out
     RDKit          3D

 82 86  0  0  0  0  0  0  0  0999 V2000
    0.1680    9.6980    0.7510 C   0  0  0  0  0  0  0  0  0  0  0  0
   -0.6560   10.2770   -0.4020 C   0  0  2  0  0  0  0  0  0  0  0  0
   -1.5950    9.2260   -1.0290 C   0  0  0  0  0  0  0  0  0  0  0  0
   -3.0250    9.2760   -0.4840 C   0  0  0  0  0  0  0  0  0  0  0  0
   -3.7380    7.9720   -0.6790 C   0  0  2  0  0  0  0  0  0  0  0  0
   -4.0900    7.6790   -2.0380 O   0  0  0  0  0  0  0  0  0  0  0  0
   -5.1840    7.8680   -1.1260 C   0  0  0  0  0  0  0  0  0  0  0  0
   -6.0050    9.0880   -1.4040 C   0  0  0  0  0  0  0  0  0  0  0  0
   -5.9380    6.6110   -0.8220 C   0  0  0  0  0  0  0  0  0  0  0  0
    0.2710   10.8490   -1.4680 C   0  0  1  0  0  0  0  0  0  0  0  0
    0.0550   10.1970   -2.8600 C   0  0  0  0  0  0  0  0  0  0  0  0
    0.2890   11.3090   -3.9150 C   0  0  0  0  0  0  0  0  0  0  0  0
    0.9510   12.4620   -3.1260 C   0  0  1  0  0  0  0  0  0  0  0  0
    2.4570   12.0660   -3.0240 C   0  0  0  0  0  0  0  0  0  0  0  0
    0.7700   13.8980   -3.7190 C   0  0  2  0  0  0  0  0  0  0  0  0
    1.3880   14.1110   -5.1120 C   0  0  0  0  0  0  0  0  0  0  0  0
    2.8010   14.5910   -5.1160 C   0  0  0  0  0  0  0  0  0  0  0  0
    3.4530   15.1130   -4.0600 C   0  0  0  0  0  0  0  0  0  0  0  0
    2.7310   15.3530   -2.7290 C   0  0  1  0  0  0  0  0  0  0  0  0
    3.0760   16.7700   -2.2000 C   0  0  0  0  0  0  0  0  0  0  0  0
    4.5800   17.0060   -2.0990 C   0  0  0  0  0  0  0  0  0  0  0  0
    5.2540   16.8150   -3.4550 C   0  0  2  0  0  0  0  0  0  0  0  0
    4.8110   17.8490   -4.3390 O   0  0  0  0  0  0  0  0  0  0  0  0
    4.9700   15.4260   -4.0910 C   0  0  0  0  0  0  0  0  0  0  0  0
    5.7090   14.3260   -3.2900 C   0  0  0  0  0  0  0  0  0  0  0  0
    5.5890   15.4170   -5.5140 C   0  0  0  0  0  0  0  0  0  0  0  0
    1.1680   15.0640   -2.7260 C   0  0  1  0  0  0  0  0  0  0  0  0
    0.3920   16.3320   -3.1950 C   0  0  0  0  0  0  0  0  0  0  0  0
    0.7000   14.7790   -1.2500 C   0  0  0  0  0  0  0  0  0  0  0  0
    0.7910   13.3200   -0.7620 C   0  0  0  0  0  0  0  0  0  0  0  0
    0.1540   12.3630   -1.7740 C   0  0  2  0  0  0  0  0  0  0  0  0
   -1.3670   12.7230   -1.8820 C   0  0  0  0  0  0  0  0  0  0  0  0
   -0.2737   10.0084    1.7094 H   0  0  0  0  0  0  0  0  0  0  0  0
    0.1685    8.5999    0.6860 H   0  0  0  0  0  0  0  0  0  0  0  0
    1.2013   10.0697    0.6860 H   0  0  0  0  0  0  0  0  0  0  0  0
   -1.2859   11.0785    0.0112 H   0  0  0  0  0  0  0  0  0  0  0  0
   -1.6310    9.3963   -2.1151 H   0  0  0  0  0  0  0  0  0  0  0  0
   -1.1875    8.2369   -0.7729 H   0  0  0  0  0  0  0  0  0  0  0  0
   -2.9890    9.5054    0.5912 H   0  0  0  0  0  0  0  0  0  0  0  0
   -3.5750   10.0535   -1.0345 H   0  0  0  0  0  0  0  0  0  0  0  0
   -3.1913    7.5205    0.1620 H   0  0  0  0  0  0  0  0  0  0  0  0
   -6.3137    9.5467   -0.4531 H   0  0  0  0  0  0  0  0  0  0  0  0
   -5.4072    9.8084   -1.9816 H   0  0  0  0  0  0  0  0  0  0  0  0
   -6.8975    8.8056   -1.9816 H   0  0  0  0  0  0  0  0  0  0  0  0
   -6.0143    6.4837    0.2679 H   0  0  0  0  0  0  0  0  0  0  0  0
   -6.9471    6.6748   -1.2553 H   0  0  0  0  0  0  0  0  0  0  0  0
   -5.4066    5.7508   -1.2553 H   0  0  0  0  0  0  0  0  0  0  0  0
    1.2436   10.6339   -1.0013 H   0  0  0  0  0  0  0  0  0  0  0  0
    0.7718    9.3761   -3.0093 H   0  0  0  0  0  0  0  0  0  0  0  0
   -0.9578    9.7766   -2.9467 H   0  0  0  0  0  0  0  0  0  0  0  0
    0.9557   10.9522   -4.7139 H   0  0  0  0  0  0  0  0  0  0  0  0
   -0.6445   11.6215   -4.4058 H   0  0  0  0  0  0  0  0  0  0  0  0
    2.7453   11.9902   -1.9652 H   0  0  0  0  0  0  0  0  0  0  0  0
    2.6152   11.0957   -3.5175 H   0  0  0  0  0  0  0  0  0  0  0  0
    3.0720   12.8330   -3.5175 H   0  0  0  0  0  0  0  0  0  0  0  0
   -0.3189   13.9586   -3.8626 H   0  0  0  0  0  0  0  0  0  0  0  0
    1.3534   13.1519   -5.6495 H   0  0  0  0  0  0  0  0  0  0  0  0
    0.7955   14.9053   -5.5895 H   0  0  0  0  0  0  0  0  0  0  0  0
    3.3570   14.5116   -6.0618 H   0  0  0  0  0  0  0  0  0  0  0  0
    3.1149   14.5919   -2.0337 H   0  0  0  0  0  0  0  0  0  0  0  0
    2.6471   17.5163   -2.8849 H   0  0  0  0  0  0  0  0  0  0  0  0
    2.6548   16.8605   -1.1879 H   0  0  0  0  0  0  0  0  0  0  0  0
    4.7606   18.0329   -1.7486 H   0  0  0  0  0  0  0  0  0  0  0  0
    5.0030   16.2782   -1.3909 H   0  0  0  0  0  0  0  0  0  0  0  0
    6.3408   16.8686   -3.2936 H   0  0  0  0  0  0  0  0  0  0  0  0
    3.8470   17.7670   -4.4290 H   0  0  0  0  0  0  0  0  0  0  0  0
    5.5848   14.5108   -2.2128 H   0  0  0  0  0  0  0  0  0  0  0  0
    5.2881   13.3420   -3.5441 H   0  0  0  0  0  0  0  0  0  0  0  0
    6.7791   14.3437   -3.5441 H   0  0  0  0  0  0  0  0  0  0  0  0
    6.6862   15.4010   -5.4365 H   0  0  0  0  0  0  0  0  0  0  0  0
    5.2468   14.5237   -6.0571 H   0  0  0  0  0  0  0  0  0  0  0  0
    5.2729   16.3198   -6.0571 H   0  0  0  0  0  0  0  0  0  0  0  0
    0.0466   16.8964   -2.3163 H   0  0  0  0  0  0  0  0  0  0  0  0
    1.0570   16.9660   -3.7998 H   0  0  0  0  0  0  0  0  0  0  0  0
   -0.4752   16.0284   -3.7998 H   0  0  0  0  0  0  0  0  0  0  0  0
    1.3194   15.3933   -0.5800 H   0  0  0  0  0  0  0  0  0  0  0  0
   -0.3730   15.0208   -1.2363 H   0  0  0  0  0  0  0  0  0  0  0  0
    1.8491   13.0505   -0.6285 H   0  0  0  0  0  0  0  0  0  0  0  0
    0.2488   13.2344    0.1912 H   0  0  0  0  0  0  0  0  0  0  0  0
   -1.7925   12.8237   -0.8727 H   0  0  0  0  0  0  0  0  0  0  0  0
   -1.4813   13.6730   -2.4246 H   0  0  0  0  0  0  0  0  0  0  0  0
   -1.8950   11.9250   -2.4246 H   0  0  0  0  0  0  0  0  0  0  0  0
  1  2  1  0
  2  3  1  0
  3  4  1  0
  4  5  1  0
  5  6  1  0
  6  7  1  0
  7  8  1  0
  7  9  1  0
  2 10  1  0
 10 11  1  0
 11 12  1  0
 12 13  1  0
 13 14  1  1
 13 15  1  0
 15 16  1  0
 16 17  1  0
 17 18  2  0
 18 19  1  0
 19 20  1  0
 20 21  1  0
 21 22  1  0
 22 23  1  0
 22 24  1  0
 24 25  1  0
 24 26  1  0
 19 27  1  0
 27 28  1  6
 27 29  1  0
 29 30  1  0
 30 31  1  0
 31 32  1  6
  7  5  1  0
 31 10  1  0
 31 13  1  0
 27 15  1  0
 24 18  1  0
  1 33  1  0
  1 34  1  0
  1 35  1  0
  2 36  1  1
  3 37  1  0
  3 38  1  0
  4 39  1  0
  4 40  1  0
  5 41  1  1
  8 42  1  0
  8 43  1  0
  8 44  1  0
  9 45  1  0
  9 46  1  0
  9 47  1  0
 10 48  1  1
 11 49  1  0
 11 50  1  0
 12 51  1  0
 12 52  1  0
 14 53  1  0
 14 54  1  0
 14 55  1  0
 15 56  1  6
 16 57  1  0
 16 58  1  0
 17 59  1  0
 19 60  1  1
 20 61  1  0
 20 62  1  0
 21 63  1  0
 21 64  1  0
 22 65  1  1
 23 66  1  0
 25 67  1  0
 25 68  1  0
 25 69  1  0
 26 70  1  0
 26 71  1  0
 26 72  1  0
 28 73  1  0
 28 74  1  0
 28 75  1  0
 29 76  1  0
 29 77  1  0
 30 78  1  0
 30 79  1  0
 32 80  1  0
 32 81  1  0
 32 82  1  0
M  END
>  <meeko>  (6) 
{"is_sidechain": [false], "intermolecular_energy": 2.731, "internal_energy": -0.839}

$$$$
EPH_relaxed_0001_pdb2pqr_Repair_309_r2_0001_out
     RDKit          3D

 82 86  0  0  0  0  0  0  0  0999 V2000
   -1.9140    8.4120   -2.0690 C   0  0  0  0  0  0  0  0  0  0  0  0
   -1.7660    8.9820   -0.6550 C   0  0  2  0  0  0  0  0  0  0  0  0
   -3.1210    9.0960    0.0710 C   0  0  0  0  0  0  0  0  0  0  0  0
   -4.3290    9.0460   -0.8690 C   0  0  0  0  0  0  0  0  0  0  0  0
   -4.9580    7.6860   -0.8930 C   0  0  2  0  0  0  0  0  0  0  0  0
   -5.0790    7.1050   -2.1980 O   0  0  0  0  0  0  0  0  0  0  0  0
   -6.3100    7.4010   -1.5190 C   0  0  0  0  0  0  0  0  0  0  0  0
   -7.1160    8.4840   -2.1630 C   0  0  0  0  0  0  0  0  0  0  0  0
   -7.0610    6.1840   -1.0750 C   0  0  0  0  0  0  0  0  0  0  0  0
   -1.0900   10.3470   -0.7140 C   0  0  1  0  0  0  0  0  0  0  0  0
   -0.7530   10.9080    0.6930 C   0  0  0  0  0  0  0  0  0  0  0  0
    0.5760   11.6930    0.5550 C   0  0  0  0  0  0  0  0  0  0  0  0
    0.7860   11.8400   -0.9710 C   0  0  1  0  0  0  0  0  0  0  0  0
   -0.1150   13.0460   -1.3850 C   0  0  0  0  0  0  0  0  0  0  0  0
    2.2620   12.0310   -1.4500 C   0  0  2  0  0  0  0  0  0  0  0  0
    2.9530   13.3080   -0.9400 C   0  0  0  0  0  0  0  0  0  0  0  0
    2.8090   14.5060   -1.8190 C   0  0  0  0  0  0  0  0  0  0  0  0
    2.3980   14.4910   -3.1010 C   0  0  0  0  0  0  0  0  0  0  0  0
    2.1210   13.1660   -3.8240 C   0  0  1  0  0  0  0  0  0  0  0  0
    2.7860   13.1920   -5.2250 C   0  0  0  0  0  0  0  0  0  0  0  0
    2.3660   14.4060   -6.0490 C   0  0  0  0  0  0  0  0  0  0  0  0
    2.7110   15.7030   -5.3230 C   0  0  2  0  0  0  0  0  0  0  0  0
    4.1350   15.8250   -5.2480 O   0  0  0  0  0  0  0  0  0  0  0  0
    2.1030   15.7870   -3.8950 C   0  0  0  0  0  0  0  0  0  0  0  0
    0.5670   15.9590   -3.9930 C   0  0  0  0  0  0  0  0  0  0  0  0
    2.6420   17.0780   -3.2220 C   0  0  0  0  0  0  0  0  0  0  0  0
    2.4660   11.8460   -3.0080 C   0  0  1  0  0  0  0  0  0  0  0  0
    3.9640   11.4670   -3.2190 C   0  0  0  0  0  0  0  0  0  0  0  0
    1.6200   10.6500   -3.5850 C   0  0  0  0  0  0  0  0  0  0  0  0
    0.2160   10.4400   -2.9860 C   0  0  0  0  0  0  0  0  0  0  0  0
    0.2670   10.4380   -1.4560 C   0  0  2  0  0  0  0  0  0  0  0  0
    1.1490    9.2220   -1.0080 C   0  0  0  0  0  0  0  0  0  0  0  0
   -2.1900    7.3489   -2.0088 H   0  0  0  0  0  0  0  0  0  0  0  0
   -2.6984    8.9646   -2.6069 H   0  0  0  0  0  0  0  0  0  0  0  0
   -0.9598    8.5132   -2.6069 H   0  0  0  0  0  0  0  0  0  0  0  0
   -1.1423    8.2820   -0.0797 H   0  0  0  0  0  0  0  0  0  0  0  0
   -3.2028    8.2643    0.7863 H   0  0  0  0  0  0  0  0  0  0  0  0
   -3.1390   10.0783    0.5658 H   0  0  0  0  0  0  0  0  0  0  0  0
   -5.0760    9.7781   -0.5284 H   0  0  0  0  0  0  0  0  0  0  0  0
   -3.9815    9.2806   -1.8860 H   0  0  0  0  0  0  0  0  0  0  0  0
   -4.5376    7.4483    0.0953 H   0  0  0  0  0  0  0  0  0  0  0  0
   -7.5802    9.1077   -1.3848 H   0  0  0  0  0  0  0  0  0  0  0  0
   -6.4598    9.1066   -2.7889 H   0  0  0  0  0  0  0  0  0  0  0  0
   -7.9008    8.0342   -2.7889 H   0  0  0  0  0  0  0  0  0  0  0  0
   -7.0834    6.1477    0.0242 H   0  0  0  0  0  0  0  0  0  0  0  0
   -8.0900    6.2268   -1.4615 H   0  0  0  0  0  0  0  0  0  0  0  0
   -6.5613    5.2835   -1.4615 H   0  0  0  0  0  0  0  0  0  0  0  0
   -1.8581   10.9089   -1.2656 H   0  0  0  0  0  0  0  0  0  0  0  0
   -1.5550   11.5784    1.0355 H   0  0  0  0  0  0  0  0  0  0  0  0
   -0.6576   10.0963    1.4293 H   0  0  0  0  0  0  0  0  0  0  0  0
    0.4951   12.6805    1.0327 H   0  0  0  0  0  0  0  0  0  0  0  0
    1.4167   11.1792    1.0441 H   0  0  0  0  0  0  0  0  0  0  0  0
   -0.4912   13.5495   -0.4823 H   0  0  0  0  0  0  0  0  0  0  0  0
    0.4752   13.7566   -1.9822 H   0  0  0  0  0  0  0  0  0  0  0  0
   -0.9638   12.6815   -1.9822 H   0  0  0  0  0  0  0  0  0  0  0  0
    2.7804   11.1945   -0.9586 H   0  0  0  0  0  0  0  0  0  0  0  0
    2.5271   13.5551    0.0436 H   0  0  0  0  0  0  0  0  0  0  0  0
    4.0288   13.0804   -0.9100 H   0  0  0  0  0  0  0  0  0  0  0  0
    3.0600   15.4839   -1.3822 H   0  0  0  0  0  0  0  0  0  0  0  0
    1.0282   13.1001   -3.9313 H   0  0  0  0  0  0  0  0  0  0  0  0
    3.8783   13.2136   -5.0967 H   0  0  0  0  0  0  0  0  0  0  0  0
    2.4600   12.2917   -5.7664 H   0  0  0  0  0  0  0  0  0  0  0  0
    2.8904   14.3840   -7.0157 H   0  0  0  0  0  0  0  0  0  0  0  0
    1.2773   14.3676   -6.2014 H   0  0  0  0  0  0  0  0  0  0  0  0
    2.2714   16.5302   -5.8996 H   0  0  0  0  0  0  0  0  0  0  0  0
    4.3350   16.6510   -4.7760 H   0  0  0  0  0  0  0  0  0  0  0  0
    0.1381   16.0070   -2.9812 H   0  0  0  0  0  0  0  0  0  0  0  0
    0.3359   16.8886   -4.5337 H   0  0  0  0  0  0  0  0  0  0  0  0
    0.1360   15.1035   -4.5337 H   0  0  0  0  0  0  0  0  0  0  0  0
    2.5961   16.9680   -2.1285 H   0  0  0  0  0  0  0  0  0  0  0  0
    3.6847   17.2443   -3.5303 H   0  0  0  0  0  0  0  0  0  0  0  0
    2.0271   17.9364   -3.5303 H   0  0  0  0  0  0  0  0  0  0  0  0
    4.4522   11.3435   -2.2411 H   0  0  0  0  0  0  0  0  0  0  0  0
    4.0279   10.5244   -3.7824 H   0  0  0  0  0  0  0  0  0  0  0  0
    4.4685   12.2658   -3.7824 H   0  0  0  0  0  0  0  0  0  0  0  0
    1.4992   10.8185   -4.6653 H   0  0  0  0  0  0  0  0  0  0  0  0
    2.1845    9.7438   -3.3202 H   0  0  0  0  0  0  0  0  0  0  0  0
   -0.4441   11.2529   -3.3229 H   0  0  0  0  0  0  0  0  0  0  0  0
   -0.1677    9.4665   -3.3251 H   0  0  0  0  0  0  0  0  0  0  0  0
    1.1813    9.1775    0.0906 H   0  0  0  0  0  0  0  0  0  0  0  0
    0.7153    8.2903   -1.4001 H   0  0  0  0  0  0  0  0  0  0  0  0
    2.1694    9.3449   -1.4001 H   0  0  0  0  0  0  0  0  0  0  0  0
  1  2  1  0
  2  3  1  0
  3  4  1  0
  4  5  1  0
  5  6  1  0
  6  7  1  0
  7  8  1  0
  7  9  1  0
  2 10  1  0
 10 11  1  0
 11 12  1  0
 12 13  1  0
 13 14  1  6
 13 15  1  0
 15 16  1  0
 16 17  1  0
 17 18  2  0
 18 19  1  0
 19 20  1  0
 20 21  1  0
 21 22  1  0
 22 23  1  0
 22 24  1  0
 24 25  1  0
 24 26  1  0
 19 27  1  0
 27 28  1  1
 27 29  1  0
 29 30  1  0
 30 31  1  0
 31 32  1  6
  7  5  1  0
 31 10  1  0
 31 13  1  0
 27 15  1  0
 24 18  1  0
  1 33  1  0
  1 34  1  0
  1 35  1  0
  2 36  1  1
  3 37  1  0
  3 38  1  0
  4 39  1  0
  4 40  1  0
  5 41  1  1
  8 42  1  0
  8 43  1  0
  8 44  1  0
  9 45  1  0
  9 46  1  0
  9 47  1  0
 10 48  1  6
 11 49  1  0
 11 50  1  0
 12 51  1  0
 12 52  1  0
 14 53  1  0
 14 54  1  0
 14 55  1  0
 15 56  1  1
 16 57  1  0
 16 58  1  0
 17 59  1  0
 19 60  1  6
 20 61  1  0
 20 62  1  0
 21 63  1  0
 21 64  1  0
 22 65  1  6
 23 66  1  0
 25 67  1  0
 25 68  1  0
 25 69  1  0
 26 70  1  0
 26 71  1  0
 26 72  1  0
 28 73  1  0
 28 74  1  0
 28 75  1  0
 29 76  1  0
 29 77  1  0
 30 78  1  0
 30 79  1  0
 32 80  1  0
 32 81  1  0
 32 82  1  0
M  END
>  <meeko>  (7) 
{"is_sidechain": [false], "intermolecular_energy": 2.731, "internal_energy": -0.839}

$$$$
EPH_relaxed_0001_pdb2pqr_Repair_309_r2_0001_out
     RDKit          3D

 82 86  0  0  0  0  0  0  0  0999 V2000
    3.9030   12.4140   -5.1270 C   0  0  0  0  0  0  0  0  0  0  0  0
    3.0260   13.4040   -5.8980 C   0  0  2  0  0  0  0  0  0  0  0  0
    3.8620   14.4780   -6.6230 C   0  0  0  0  0  0  0  0  0  0  0  0
    3.0510   15.7050   -7.0500 C   0  0  0  0  0  0  0  0  0  0  0  0
    2.8940   15.7740   -8.5390 C   0  0  2  0  0  0  0  0  0  0  0  0
    2.3200   16.9940   -9.0250 O   0  0  0  0  0  0  0  0  0  0  0  0
    1.5480   15.8020   -9.2380 C   0  0  0  0  0  0  0  0  0  0  0  0
    0.2660   15.7600   -8.4660 C   0  0  0  0  0  0  0  0  0  0  0  0
    1.4770   15.3780  -10.6720 C   0  0  0  0  0  0  0  0  0  0  0  0
    2.0340   14.0680   -4.9500 C   0  0  1  0  0  0  0  0  0  0  0  0
    0.8650   13.1270   -4.5540 C   0  0  0  0  0  0  0  0  0  0  0  0
    0.4990   13.4620   -3.0850 C   0  0  0  0  0  0  0  0  0  0  0  0
    1.2310   14.7930   -2.7950 C   0  0  1  0  0  0  0  0  0  0  0  0
    0.3150   15.8970   -3.4080 C   0  0  0  0  0  0  0  0  0  0  0  0
    1.5640   15.0860   -1.2960 C   0  0  2  0  0  0  0  0  0  0  0  0
    0.3420   15.2220   -0.3710 C   0  0  0  0  0  0  0  0  0  0  0  0
   -0.1990   16.6060   -0.2290 C   0  0  0  0  0  0  0  0  0  0  0  0
    0.4380   17.7350   -0.5880 C   0  0  0  0  0  0  0  0  0  0  0  0
    1.8800   17.6950   -1.1100 C   0  0  1  0  0  0  0  0  0  0  0  0
    2.7180   18.7930   -0.4040 C   0  0  0  0  0  0  0  0  0  0  0  0
    2.0910   20.1780   -0.5300 C   0  0  0  0  0  0  0  0  0  0  0  0
    0.6800   20.1930    0.0530 C   0  0  2  0  0  0  0  0  0  0  0  0
    0.7630   19.9900    1.4670 O   0  0  0  0  0  0  0  0  0  0  0  0
   -0.2540   19.1210   -0.5750 C   0  0  0  0  0  0  0  0  0  0  0  0
   -0.5860   19.5110   -2.0370 C   0  0  0  0  0  0  0  0  0  0  0  0
   -1.6000   19.1480    0.1980 C   0  0  0  0  0  0  0  0  0  0  0  0
    2.5880   16.2720   -1.0790 C   0  0  1  0  0  0  0  0  0  0  0  0
    3.2520   16.0390    0.3130 C   0  0  0  0  0  0  0  0  0  0  0  0
    3.7560   16.2560   -2.1350 C   0  0  0  0  0  0  0  0  0  0  0  0
    3.3860   15.8430   -3.5730 C   0  0  0  0  0  0  0  0  0  0  0  0
    2.5720   14.5450   -3.5780 C   0  0  2  0  0  0  0  0  0  0  0  0
    3.4770   13.4110   -2.9870 C   0  0  0  0  0  0  0  0  0  0  0  0
    3.7667   12.5678   -4.0464 H   0  0  0  0  0  0  0  0  0  0  0  0
    3.6139   11.3858   -5.3903 H   0  0  0  0  0  0  0  0  0  0  0  0
    4.9585   12.5770   -5.3903 H   0  0  0  0  0  0  0  0  0  0  0  0
    2.4818   12.8350   -6.6662 H   0  0  0  0  0  0  0  0  0  0  0  0
    4.6633   14.8097   -5.9463 H   0  0  0  0  0  0  0  0  0  0  0  0
    4.2528   14.0155   -7.5413 H   0  0  0  0  0  0  0  0  0  0  0  0
    2.0540   15.6518   -6.5883 H   0  0  0  0  0  0  0  0  0  0  0  0
    3.5904   16.6049   -6.7196 H   0  0  0  0  0  0  0  0  0  0  0  0
    3.7887   15.1511   -8.6854 H   0  0  0  0  0  0  0  0  0  0  0  0
    0.4865   15.7672   -7.3884 H   0  0  0  0  0  0  0  0  0  0  0  0
   -0.3447   16.6386   -8.7212 H   0  0  0  0  0  0  0  0  0  0  0  0
   -0.2858   14.8433   -8.7212 H   0  0  0  0  0  0  0  0  0  0  0  0
    1.2955   14.2944  -10.7254 H   0  0  0  0  0  0  0  0  0  0  0  0
    0.6558   15.9124  -11.1721 H   0  0  0  0  0  0  0  0  0  0  0  0
    2.4275   15.6157  -11.1721 H   0  0  0  0  0  0  0  0  0  0  0  0
    1.7449   14.9346   -5.5628 H   0  0  0  0  0  0  0  0  0  0  0  0
   -0.0009   13.3021   -5.2095 H   0  0  0  0  0  0  0  0  0  0  0  0
    1.1555   12.0711   -4.6577 H   0  0  0  0  0  0  0  0  0  0  0  0
   -0.5885   13.5846   -2.9739 H   0  0  0  0  0  0  0  0  0  0  0  0
    0.7940   12.6631   -2.3888 H   0  0  0  0  0  0  0  0  0  0  0  0
   -0.1605   16.4701   -2.5984 H   0  0  0  0  0  0  0  0  0  0  0  0
    0.9210   16.5732   -4.0289 H   0  0  0  0  0  0  0  0  0  0  0  0
   -0.4614   15.4262   -4.0289 H   0  0  0  0  0  0  0  0  0  0  0  0
    2.0744   14.1631   -0.9832 H   0  0  0  0  0  0  0  0  0  0  0  0
   -0.4594   14.5830   -0.7703 H   0  0  0  0  0  0  0  0  0  0  0  0
    0.6842   14.9246    0.6312 H   0  0  0  0  0  0  0  0  0  0  0  0
   -1.2038   16.7115    0.2061 H   0  0  0  0  0  0  0  0  0  0  0  0
    1.8197   17.9082   -2.1875 H   0  0  0  0  0  0  0  0  0  0  0  0
    2.8032   18.5401    0.6631 H   0  0  0  0  0  0  0  0  0  0  0  0
    3.7034   18.8266   -0.8917 H   0  0  0  0  0  0  0  0  0  0  0  0
    2.7126   20.9053    0.0128 H   0  0  0  0  0  0  0  0  0  0  0  0
    2.0332   20.4417   -1.5964 H   0  0  0  0  0  0  0  0  0  0  0  0
    0.2365   21.1717   -0.1823 H   0  0  0  0  0  0  0  0  0  0  0  0
    0.4250   19.0980    1.6560 H   0  0  0  0  0  0  0  0  0  0  0  0
   -1.2990   20.3486   -2.0402 H   0  0  0  0  0  0  0  0  0  0  0  0
    0.3365   19.8129   -2.5545 H   0  0  0  0  0  0  0  0  0  0  0  0
   -1.0313   18.6485   -2.5545 H   0  0  0  0  0  0  0  0  0  0  0  0
   -1.4016   19.1440    1.2800 H   0  0  0  0  0  0  0  0  0  0  0  0
   -2.1581   20.0575   -0.0691 H   0  0  0  0  0  0  0  0  0  0  0  0
   -2.1941   18.2616   -0.0691 H   0  0  0  0  0  0  0  0  0  0  0  0
    2.5348   16.2907    1.1081 H   0  0  0  0  0  0  0  0  0  0  0  0
    3.5474   14.9835    0.4063 H   0  0  0  0  0  0  0  0  0  0  0  0
    4.1421   16.6785    0.4063 H   0  0  0  0  0  0  0  0  0  0  0  0
    4.1795   17.2703   -2.1784 H   0  0  0  0  0  0  0  0  0  0  0  0
    4.4524   15.4809   -1.7827 H   0  0  0  0  0  0  0  0  0  0  0  0
    2.7898   16.6435   -4.0353 H   0  0  0  0  0  0  0  0  0  0  0  0
    4.3138   15.6776   -4.1403 H   0  0  0  0  0  0  0  0  0  0  0  0
    3.4448   13.4514   -1.8882 H   0  0  0  0  0  0  0  0  0  0  0  0
    3.1088   12.4325   -3.3289 H   0  0  0  0  0  0  0  0  0  0  0  0
    4.5128   13.5529   -3.3289 H   0  0  0  0  0  0  0  0  0  0  0  0
  1  2  1  0
  2  3  1  0
  3  4  1  0
  4  5  1  0
  5  6  1  0
  6  7  1  0
  7  8  1  0
  7  9  1  0
  2 10  1  0
 10 11  1  0
 11 12  1  0
 12 13  1  0
 13 14  1  6
 13 15  1  0
 15 16  1  0
 16 17  1  0
 17 18  2  0
 18 19  1  0
 19 20  1  0
 20 21  1  0
 21 22  1  0
 22 23  1  0
 22 24  1  0
 24 25  1  0
 24 26  1  0
 19 27  1  0
 27 28  1  1
 27 29  1  0
 29 30  1  0
 30 31  1  0
 31 32  1  1
  7  5  1  0
 31 10  1  0
 31 13  1  0
 27 15  1  0
 24 18  1  0
  1 33  1  0
  1 34  1  0
  1 35  1  0
  2 36  1  6
  3 37  1  0
  3 38  1  0
  4 39  1  0
  4 40  1  0
  5 41  1  6
  8 42  1  0
  8 43  1  0
  8 44  1  0
  9 45  1  0
  9 46  1  0
  9 47  1  0
 10 48  1  6
 11 49  1  0
 11 50  1  0
 12 51  1  0
 12 52  1  0
 14 53  1  0
 14 54  1  0
 14 55  1  0
 15 56  1  1
 16 57  1  0
 16 58  1  0
 17 59  1  0
 19 60  1  6
 20 61  1  0
 20 62  1  0
 21 63  1  0
 21 64  1  0
 22 65  1  1
 23 66  1  0
 25 67  1  0
 25 68  1  0
 25 69  1  0
 26 70  1  0
 26 71  1  0
 26 72  1  0
 28 73  1  0
 28 74  1  0
 28 75  1  0
 29 76  1  0
 29 77  1  0
 30 78  1  0
 30 79  1  0
 32 80  1  0
 32 81  1  0
 32 82  1  0
M  END
>  <meeko>  (8) 
{"is_sidechain": [false], "intermolecular_energy": 2.731, "internal_energy": -0.839}

$$$$
EPH_relaxed_0001_pdb2pqr_Repair_309_r2_0001_out
     RDKit          3D

 82 86  0  0  0  0  0  0  0  0999 V2000
    4.6360   17.5630   -1.7330 C   0  0  0  0  0  0  0  0  0  0  0  0
    3.2490   18.1930   -1.8830 C   0  0  2  0  0  0  0  0  0  0  0  0
    2.9800   19.2670   -0.8090 C   0  0  0  0  0  0  0  0  0  0  0  0
    1.8750   18.8860    0.1790 C   0  0  0  0  0  0  0  0  0  0  0  0
    0.6960   19.8060    0.0730 C   0  0  2  0  0  0  0  0  0  0  0  0
   -0.0250   19.9980    1.2970 O   0  0  0  0  0  0  0  0  0  0  0  0
   -0.7410   19.3460    0.2360 C   0  0  0  0  0  0  0  0  0  0  0  0
   -1.0750   17.9140    0.5170 C   0  0  0  0  0  0  0  0  0  0  0  0
   -1.8320   20.1820   -0.3580 C   0  0  0  0  0  0  0  0  0  0  0  0
    2.1770   17.1120   -1.8170 C   0  0  1  0  0  0  0  0  0  0  0  0
    0.8460   17.5480   -2.4870 C   0  0  0  0  0  0  0  0  0  0  0  0
    0.2390   16.2810   -3.1430 C   0  0  0  0  0  0  0  0  0  0  0  0
    1.0560   15.1080   -2.5540 C   0  0  1  0  0  0  0  0  0  0  0  0
    0.4210   14.8400   -1.1530 C   0  0  0  0  0  0  0  0  0  0  0  0
    1.1170   13.8060   -3.4180 C   0  0  2  0  0  0  0  0  0  0  0  0
   -0.2380   13.1200   -3.6610 C   0  0  0  0  0  0  0  0  0  0  0  0
   -0.6240   12.0930   -2.6480 C   0  0  0  0  0  0  0  0  0  0  0  0
    0.2050   11.5320   -1.7490 C   0  0  0  0  0  0  0  0  0  0  0  0
    1.7060   11.8490   -1.7550 C   0  0  1  0  0  0  0  0  0  0  0  0
    2.5140   10.5310   -1.6310 C   0  0  0  0  0  0  0  0  0  0  0  0
    2.0990    9.7010   -0.4200 C   0  0  0  0  0  0  0  0  0  0  0  0
    0.6130    9.3570   -0.4790 C   0  0  2  0  0  0  0  0  0  0  0  0
    0.3880    8.4740   -1.5830 O   0  0  0  0  0  0  0  0  0  0  0  0
   -0.3010   10.6060   -0.6150 C   0  0  0  0  0  0  0  0  0  0  0  0
   -0.2860   11.4080    0.7100 C   0  0  0  0  0  0  0  0  0  0  0  0
   -1.7610   10.1120   -0.8060 C   0  0  0  0  0  0  0  0  0  0  0  0
    2.2150   12.7670   -2.9480 C   0  0  1  0  0  0  0  0  0  0  0  0
    2.5550   11.8870   -4.1900 C   0  0  0  0  0  0  0  0  0  0  0  0
    3.5580   13.4680   -2.5200 C   0  0  0  0  0  0  0  0  0  0  0  0
    3.4340   14.8110   -1.7740 C   0  0  0  0  0  0  0  0  0  0  0  0
    2.4850   15.7610   -2.5110 C   0  0  2  0  0  0  0  0  0  0  0  0
    3.1090   16.0660   -3.9160 C   0  0  0  0  0  0  0  0  0  0  0  0
    4.8757   17.4541   -0.6650 H   0  0  0  0  0  0  0  0  0  0  0  0
    4.6431   16.5733   -2.2131 H   0  0  0  0  0  0  0  0  0  0  0  0
    5.3859   18.2088   -2.2131 H   0  0  0  0  0  0  0  0  0  0  0  0
    3.2160   18.6902   -2.8636 H   0  0  0  0  0  0  0  0  0  0  0  0
    3.9090   19.4332   -0.2438 H   0  0  0  0  0  0  0  0  0  0  0  0
    2.6419   20.1712   -1.3363 H   0  0  0  0  0  0  0  0  0  0  0  0
    1.5456   17.8582   -0.0334 H   0  0  0  0  0  0  0  0  0  0  0  0
    2.2826   18.9664    1.1975 H   0  0  0  0  0  0  0  0  0  0  0  0
    1.1975   20.3977   -0.7070 H   0  0  0  0  0  0  0  0  0  0  0  0
   -1.1126   17.7528    1.6045 H   0  0  0  0  0  0  0  0  0  0  0  0
   -2.0536   17.6725    0.0765 H   0  0  0  0  0  0  0  0  0  0  0  0
   -0.3042   17.2645    0.0765 H   0  0  0  0  0  0  0  0  0  0  0  0
   -2.4257   20.6370    0.4485 H   0  0  0  0  0  0  0  0  0  0  0  0
   -1.3896   20.9745   -0.9795 H   0  0  0  0  0  0  0  0  0  0  0  0
   -2.4822   19.5487   -0.9795 H   0  0  0  0  0  0  0  0  0  0  0  0
    2.1239   16.9721   -0.7272 H   0  0  0  0  0  0  0  0  0  0  0  0
    0.1557   17.9509   -1.7312 H   0  0  0  0  0  0  0  0  0  0  0  0
    1.0200   18.3352   -3.2353 H   0  0  0  0  0  0  0  0  0  0  0  0
   -0.8255   16.1816   -2.8841 H   0  0  0  0  0  0  0  0  0  0  0  0
    0.2895   16.3147   -4.2413 H   0  0  0  0  0  0  0  0  0  0  0  0
    1.1292   15.1389   -0.3662 H   0  0  0  0  0  0  0  0  0  0  0  0
   -0.5060   15.4236   -1.0529 H   0  0  0  0  0  0  0  0  0  0  0  0
    0.1924   13.7687   -1.0529 H   0  0  0  0  0  0  0  0  0  0  0  0
    1.4379   14.1884   -4.3982 H   0  0  0  0  0  0  0  0  0  0  0  0
   -1.0159   13.8977   -3.6699 H   0  0  0  0  0  0  0  0  0  0  0  0
   -0.1403   12.5834   -4.6162 H   0  0  0  0  0  0  0  0  0  0  0  0
   -1.6747   11.7677   -2.6358 H   0  0  0  0  0  0  0  0  0  0  0  0
    1.8872   12.4817   -0.8736 H   0  0  0  0  0  0  0  0  0  0  0  0
    2.3539    9.9326   -2.5400 H   0  0  0  0  0  0  0  0  0  0  0  0
    3.5731   10.7998   -1.5040 H   0  0  0  0  0  0  0  0  0  0  0  0
    2.6840    8.7696   -0.4042 H   0  0  0  0  0  0  0  0  0  0  0  0
    2.2879   10.2888    0.4904 H   0  0  0  0  0  0  0  0  0  0  0  0
    0.3478    8.8774    0.4747 H   0  0  0  0  0  0  0  0  0  0  0  0
    1.1820    8.4940   -2.1420 H   0  0  0  0  0  0  0  0  0  0  0  0
   -0.2990   10.7108    1.5608 H   0  0  0  0  0  0  0  0  0  0  0  0
    0.6238   12.0246    0.7551 H   0  0  0  0  0  0  0  0  0  0  0  0
   -1.1721   12.0582    0.7551 H   0  0  0  0  0  0  0  0  0  0  0  0
   -2.2265    9.9545    0.1781 H   0  0  0  0  0  0  0  0  0  0  0  0
   -2.3331   10.8666   -1.3657 H   0  0  0  0  0  0  0  0  0  0  0  0
   -1.7574    9.1650   -1.3657 H   0  0  0  0  0  0  0  0  0  0  0  0
    2.9326   10.9098   -3.8547 H   0  0  0  0  0  0  0  0  0  0  0  0
    1.6483   11.7416   -4.7956 H   0  0  0  0  0  0  0  0  0  0  0  0
    3.3239   12.3890   -4.7956 H   0  0  0  0  0  0  0  0  0  0  0  0
    4.1023   12.7723   -1.8645 H   0  0  0  0  0  0  0  0  0  0  0  0
    4.0701   13.7090   -3.4632 H   0  0  0  0  0  0  0  0  0  0  0  0
    3.0442   14.6261   -0.7622 H   0  0  0  0  0  0  0  0  0  0  0  0
    4.4288   15.2778   -1.7236 H   0  0  0  0  0  0  0  0  0  0  0  0
    4.0902   16.5456   -3.7851 H   0  0  0  0  0  0  0  0  0  0  0  0
    3.2318   15.1263   -4.4745 H   0  0  0  0  0  0  0  0  0  0  0  0
    2.4429   16.7401   -4.4745 H   0  0  0  0  0  0  0  0  0  0  0  0
  1  2  1  0
  2  3  1  0
  3  4  1  0
  4  5  1  0
  5  6  1  0
  6  7  1  0
  7  8  1  0
  7  9  1  0
  2 10  1  0
 10 11  1  0
 11 12  1  0
 12 13  1  0
 13 14  1  1
 13 15  1  0
 15 16  1  0
 16 17  1  0
 17 18  2  0
 18 19  1  0
 19 20  1  0
 20 21  1  0
 21 22  1  0
 22 23  1  0
 22 24  1  0
 24 25  1  0
 24 26  1  0
 19 27  1  0
 27 28  1  6
 27 29  1  0
 29 30  1  0
 30 31  1  0
 31 32  1  6
  7  5  1  0
 31 10  1  0
 31 13  1  0
 27 15  1  0
 24 18  1  0
  1 33  1  0
  1 34  1  0
  1 35  1  0
  2 36  1  6
  3 37  1  0
  3 38  1  0
  4 39  1  0
  4 40  1  0
  5 41  1  6
  8 42  1  0
  8 43  1  0
  8 44  1  0
  9 45  1  0
  9 46  1  0
  9 47  1  0
 10 48  1  1
 11 49  1  0
 11 50  1  0
 12 51  1  0
 12 52  1  0
 14 53  1  0
 14 54  1  0
 14 55  1  0
 15 56  1  6
 16 57  1  0
 16 58  1  0
 17 59  1  0
 19 60  1  1
 20 61  1  0
 20 62  1  0
 21 63  1  0
 21 64  1  0
 22 65  1  1
 23 66  1  0
 25 67  1  0
 25 68  1  0
 25 69  1  0
 26 70  1  0
 26 71  1  0
 26 72  1  0
 28 73  1  0
 28 74  1  0
 28 75  1  0
 29 76  1  0
 29 77  1  0
 30 78  1  0
 30 79  1  0
 32 80  1  0
 32 81  1  0
 32 82  1  0
M  END
>  <meeko>  (9) 
{"is_sidechain": [false], "intermolecular_energy": 2.731, "internal_energy": -0.839}

$$$$
EPH_relaxed_0001_pdb2pqr_Repair_309_r2_0001_out
     RDKit          3D

 82 86  0  0  0  0  0  0  0  0999 V2000
   -0.6590    8.1110   -1.3280 C   0  0  0  0  0  0  0  0  0  0  0  0
   -0.9550    9.3230   -0.4400 C   0  0  2  0  0  0  0  0  0  0  0  0
   -2.2780   10.0150   -0.8230 C   0  0  0  0  0  0  0  0  0  0  0  0
   -3.4900    9.5010   -0.0420 C   0  0  0  0  0  0  0  0  0  0  0  0
   -3.8920    8.1260   -0.4830 C   0  0  2  0  0  0  0  0  0  0  0  0
   -4.0340    7.9700   -1.9010 O   0  0  0  0  0  0  0  0  0  0  0  0
   -5.2310    7.8100   -1.1220 C   0  0  0  0  0  0  0  0  0  0  0  0
   -6.2550    8.8770   -1.3550 C   0  0  0  0  0  0  0  0  0  0  0  0
   -5.7340    6.4010   -1.0710 C   0  0  0  0  0  0  0  0  0  0  0  0
    0.1970   10.3180   -0.5200 C   0  0  1  0  0  0  0  0  0  0  0  0
    1.5860    9.6330   -0.4290 C   0  0  0  0  0  0  0  0  0  0  0  0
    2.5430   10.4400   -1.3440 C   0  0  0  0  0  0  0  0  0  0  0  0
    1.7710   11.7400   -1.6660 C   0  0  1  0  0  0  0  0  0  0  0  0
    1.9880   12.6550   -0.4210 C   0  0  0  0  0  0  0  0  0  0  0  0
    2.1660   12.4680   -2.9930 C   0  0  2  0  0  0  0  0  0  0  0  0
    3.6180   12.9730   -3.0520 C   0  0  0  0  0  0  0  0  0  0  0  0
    3.8300   14.3650   -2.5560 C   0  0  0  0  0  0  0  0  0  0  0  0
    2.8620   15.2770   -2.3470 C   0  0  0  0  0  0  0  0  0  0  0  0
    1.4030   14.9740   -2.7110 C   0  0  1  0  0  0  0  0  0  0  0  0
    0.8000   16.1780   -3.4800 C   0  0  0  0  0  0  0  0  0  0  0  0
    0.9510   17.4930   -2.7200 C   0  0  0  0  0  0  0  0  0  0  0  0
    2.4200   17.7880   -2.4280 C   0  0  2  0  0  0  0  0  0  0  0  0
    3.0950   18.0370   -3.6650 O   0  0  0  0  0  0  0  0  0  0  0  0
    3.1360   16.6390   -1.6640 C   0  0  0  0  0  0  0  0  0  0  0  0
    2.6050   16.5700   -0.2110 C   0  0  0  0  0  0  0  0  0  0  0  0
    4.6420   17.0020   -1.5590 C   0  0  0  0  0  0  0  0  0  0  0  0
    1.1450   13.5890   -3.4460 C   0  0  1  0  0  0  0  0  0  0  0  0
    1.3280   13.7610   -4.9850 C   0  0  0  0  0  0  0  0  0  0  0  0
   -0.3530   13.1590   -3.2230 C   0  0  0  0  0  0  0  0  0  0  0  0
   -0.6590   12.3400   -1.9540 C   0  0  0  0  0  0  0  0  0  0  0  0
    0.3150   11.1660   -1.8110 C   0  0  2  0  0  0  0  0  0  0  0  0
    0.1030   10.2170   -3.0390 C   0  0  0  0  0  0  0  0  0  0  0  0
   -0.4454    7.2366   -0.6957 H   0  0  0  0  0  0  0  0  0  0  0  0
   -1.5320    7.8998   -1.9631 H   0  0  0  0  0  0  0  0  0  0  0  0
    0.2130    8.3260   -1.9631 H   0  0  0  0  0  0  0  0  0  0  0  0
   -1.0614    8.9593    0.5927 H   0  0  0  0  0  0  0  0  0  0  0  0
   -2.1738   11.0933   -0.6322 H   0  0  0  0  0  0  0  0  0  0  0  0
   -2.4616    9.7923   -1.8845 H   0  0  0  0  0  0  0  0  0  0  0  0
   -3.2382    9.4726    1.0284 H   0  0  0  0  0  0  0  0  0  0  0  0
   -4.3332   10.1817   -0.2310 H   0  0  0  0  0  0  0  0  0  0  0  0
   -3.3523    7.6720    0.3612 H   0  0  0  0  0  0  0  0  0  0  0  0
   -6.6176    9.2548   -0.3876 H   0  0  0  0  0  0  0  0  0  0  0  0
   -5.8019    9.7020   -1.9243 H   0  0  0  0  0  0  0  0  0  0  0  0
   -7.0979    8.4582   -1.9243 H   0  0  0  0  0  0  0  0  0  0  0  0
   -5.8453    6.0892   -0.0220 H   0  0  0  0  0  0  0  0  0  0  0  0
   -6.7090    6.3412   -1.5768 H   0  0  0  0  0  0  0  0  0  0  0  0
   -5.0173    5.7373   -1.5768 H   0  0  0  0  0  0  0  0  0  0  0  0
   -0.0578   10.9640    0.3331 H   0  0  0  0  0  0  0  0  0  0  0  0
    1.9498    9.6505    0.6090 H   0  0  0  0  0  0  0  0  0  0  0  0
    1.5294    8.5812   -0.7461 H   0  0  0  0  0  0  0  0  0  0  0  0
    3.4829   10.6664   -0.8193 H   0  0  0  0  0  0  0  0  0  0  0  0
    2.8200    9.8837   -2.2516 H   0  0  0  0  0  0  0  0  0  0  0  0
    1.8480   12.0648    0.4967 H   0  0  0  0  0  0  0  0  0  0  0  0
    3.0084   13.0654   -0.4410 H   0  0  0  0  0  0  0  0  0  0  0  0
    1.2606   13.4799   -0.4410 H   0  0  0  0  0  0  0  0  0  0  0  0
    2.1007   11.6586   -3.7350 H   0  0  0  0  0  0  0  0  0  0  0  0
    4.2377   12.2975   -2.4440 H   0  0  0  0  0  0  0  0  0  0  0  0
    3.8930   12.9844   -4.1170 H   0  0  0  0  0  0  0  0  0  0  0  0
    4.8648   14.6715   -2.3433 H   0  0  0  0  0  0  0  0  0  0  0  0
    0.8736   14.8385   -1.7563 H   0  0  0  0  0  0  0  0  0  0  0  0
    1.3125   16.2699   -4.4490 H   0  0  0  0  0  0  0  0  0  0  0  0
   -0.2759   15.9877   -3.6074 H   0  0  0  0  0  0  0  0  0  0  0  0
    0.5334   18.3098   -3.3271 H   0  0  0  0  0  0  0  0  0  0  0  0
    0.4125   17.4104   -1.7644 H   0  0  0  0  0  0  0  0  0  0  0  0
    2.4549   18.6701   -1.7717 H   0  0  0  0  0  0  0  0  0  0  0  0
    3.4740   18.9310   -3.6190 H   0  0  0  0  0  0  0  0  0  0  0  0
    3.4443   16.6791    0.4917 H   0  0  0  0  0  0  0  0  0  0  0  0
    1.8810   17.3816   -0.0463 H   0  0  0  0  0  0  0  0  0  0  0  0
    2.1125   15.6003   -0.0463 H   0  0  0  0  0  0  0  0  0  0  0  0
    4.9295   17.0713   -0.4995 H   0  0  0  0  0  0  0  0  0  0  0  0
    5.2422   16.2228   -2.0516 H   0  0  0  0  0  0  0  0  0  0  0  0
    4.8213   17.9691   -2.0516 H   0  0  0  0  0  0  0  0  0  0  0  0
    2.1169   14.5024   -5.1798 H   0  0  0  0  0  0  0  0  0  0  0  0
    1.6132   12.7965   -5.4304 H   0  0  0  0  0  0  0  0  0  0  0  0
    0.3830   14.1054   -5.4304 H   0  0  0  0  0  0  0  0  0  0  0  0
   -0.9598   14.0756   -3.1819 H   0  0  0  0  0  0  0  0  0  0  0  0
   -0.5880   12.4880   -4.0624 H   0  0  0  0  0  0  0  0  0  0  0  0
   -0.5673   12.9929   -1.0735 H   0  0  0  0  0  0  0  0  0  0  0  0
   -1.6809   11.9405   -2.0323 H   0  0  0  0  0  0  0  0  0  0  0  0
   -0.1239    9.2014   -2.6826 H   0  0  0  0  0  0  0  0  0  0  0  0
   -0.7345   10.5874   -3.6484 H   0  0  0  0  0  0  0  0  0  0  0  0
    1.0185   10.1958   -3.6484 H   0  0  0  0  0  0  0  0  0  0  0  0
  1  2  1  0
  2  3  1  0
  3  4  1  0
  4  5  1  0
  5  6  1  0
  6  7  1  0
  7  8  1  0
  7  9  1  0
  2 10  1  0
 10 11  1  0
 11 12  1  0
 12 13  1  0
 13 14  1  1
 13 15  1  0
 15 16  1  0
 16 17  1  0
 17 18  2  0
 18 19  1  0
 19 20  1  0
 20 21  1  0
 21 22  1  0
 22 23  1  0
 22 24  1  0
 24 25  1  0
 24 26  1  0
 19 27  1  0
 27 28  1  6
 27 29  1  0
 29 30  1  0
 30 31  1  0
 31 32  1  6
  7  5  1  0
 31 10  1  0
 31 13  1  0
 27 15  1  0
 24 18  1  0
  1 33  1  0
  1 34  1  0
  1 35  1  0
  2 36  1  1
  3 37  1  0
  3 38  1  0
  4 39  1  0
  4 40  1  0
  5 41  1  1
  8 42  1  0
  8 43  1  0
  8 44  1  0
  9 45  1  0
  9 46  1  0
  9 47  1  0
 10 48  1  1
 11 49  1  0
 11 50  1  0
 12 51  1  0
 12 52  1  0
 14 53  1  0
 14 54  1  0
 14 55  1  0
 15 56  1  6
 16 57  1  0
 16 58  1  0
 17 59  1  0
 19 60  1  1
 20 61  1  0
 20 62  1  0
 21 63  1  0
 21 64  1  0
 22 65  1  1
 23 66  1  0
 25 67  1  0
 25 68  1  0
 25 69  1  0
 26 70  1  0
 26 71  1  0
 26 72  1  0
 28 73  1  0
 28 74  1  0
 28 75  1  0
 29 76  1  0
 29 77  1  0
 30 78  1  0
 30 79  1  0
 32 80  1  0
 32 81  1  0
 32 82  1  0
M  END
>  <meeko>  (10) 
{"is_sidechain": [false], "intermolecular_energy": 2.731, "internal_energy": -0.839}

$$$$
EPH_relaxed_0001_pdb2pqr_Repair_309_r2_0001_out
     RDKit          3D

 82 86  0  0  0  0  0  0  0  0999 V2000
    2.8240    9.6650   -2.3730 C   0  0  0  0  0  0  0  0  0  0  0  0
    2.6310   10.9980   -1.6440 C   0  0  2  0  0  0  0  0  0  0  0  0
    1.9430   10.8170   -0.2760 C   0  0  0  0  0  0  0  0  0  0  0  0
    1.3640    9.4160   -0.0590 C   0  0  0  0  0  0  0  0  0  0  0  0
   -0.1090    9.4610    0.2120 C   0  0  2  0  0  0  0  0  0  0  0  0
   -0.8090    8.2440   -0.0780 O   0  0  0  0  0  0  0  0  0  0  0  0
   -1.1630    9.3840   -0.8770 C   0  0  0  0  0  0  0  0  0  0  0  0
   -0.7860    9.2570   -2.3200 C   0  0  0  0  0  0  0  0  0  0  0  0
   -2.5300    9.9210   -0.5890 C   0  0  0  0  0  0  0  0  0  0  0  0
    1.8210   11.9530   -2.5120 C   0  0  1  0  0  0  0  0  0  0  0  0
    0.6260   12.5850   -1.7500 C   0  0  0  0  0  0  0  0  0  0  0  0
    0.4650   14.0300   -2.2890 C   0  0  0  0  0  0  0  0  0  0  0  0
    1.3440   14.0720   -3.5610 C   0  0  1  0  0  0  0  0  0  0  0  0
    0.4670   13.4230   -4.6770 C   0  0  0  0  0  0  0  0  0  0  0  0
    1.8750   15.4790   -3.9880 C   0  0  2  0  0  0  0  0  0  0  0  0
    0.7860   16.5020   -4.3560 C   0  0  0  0  0  0  0  0  0  0  0  0
    0.3930   16.5240   -5.7960 C   0  0  0  0  0  0  0  0  0  0  0  0
    1.0840   15.9610   -6.8050 C   0  0  0  0  0  0  0  0  0  0  0  0
    2.4460   15.3000   -6.5530 C   0  0  1  0  0  0  0  0  0  0  0  0
    3.4560   15.7700   -7.6320 C   0  0  0  0  0  0  0  0  0  0  0  0
    2.9480   15.5370   -9.0520 C   0  0  0  0  0  0  0  0  0  0  0  0
    1.6210   16.2570   -9.2810 C   0  0  2  0  0  0  0  0  0  0  0  0
    1.8500   17.6690   -9.2350 O   0  0  0  0  0  0  0  0  0  0  0  0
    0.5270   15.8710   -8.2470 C   0  0  0  0  0  0  0  0  0  0  0  0
    0.0640   14.4140   -8.4990 C   0  0  0  0  0  0  0  0  0  0  0  0
   -0.7120   16.7700   -8.5040 C   0  0  0  0  0  0  0  0  0  0  0  0
    3.0210   15.4360   -5.0780 C   0  0  1  0  0  0  0  0  0  0  0  0
    3.8180   16.7690   -4.9390 C   0  0  0  0  0  0  0  0  0  0  0  0
    4.0510   14.2740   -4.8180 C   0  0  0  0  0  0  0  0  0  0  0  0
    3.4800   12.9470   -4.2840 C   0  0  0  0  0  0  0  0  0  0  0  0
    2.5560   13.1900   -3.0860 C   0  0  2  0  0  0  0  0  0  0  0  0
    3.4170   13.8210   -1.9390 C   0  0  0  0  0  0  0  0  0  0  0  0
    2.9409    8.8573   -1.6355 H   0  0  0  0  0  0  0  0  0  0  0  0
    1.9460    9.4614   -3.0036 H   0  0  0  0  0  0  0  0  0  0  0  0
    3.7237    9.7188   -3.0036 H   0  0  0  0  0  0  0  0  0  0  0  0
    3.6293   11.4211   -1.4583 H   0  0  0  0  0  0  0  0  0  0  0  0
    2.6832   11.0130    0.5137 H   0  0  0  0  0  0  0  0  0  0  0  0
    1.0993   11.5221   -0.2446 H   0  0  0  0  0  0  0  0  0  0  0  0
    1.5422    8.8129   -0.9615 H   0  0  0  0  0  0  0  0  0  0  0  0
    1.8603    8.9716    0.8163 H   0  0  0  0  0  0  0  0  0  0  0  0
    0.0421   10.1640    1.0444 H   0  0  0  0  0  0  0  0  0  0  0  0
    0.2538    8.9067   -2.3978 H   0  0  0  0  0  0  0  0  0  0  0  0
   -1.4541    8.5343   -2.8113 H   0  0  0  0  0  0  0  0  0  0  0  0
   -0.8807   10.2366   -2.8113 H   0  0  0  0  0  0  0  0  0  0  0  0
   -2.6791    9.9796    0.4993 H   0  0  0  0  0  0  0  0  0  0  0  0
   -2.6294   10.9250   -1.0273 H   0  0  0  0  0  0  0  0  0  0  0  0
   -3.2862    9.2531   -1.0273 H   0  0  0  0  0  0  0  0  0  0  0  0
    1.5423   11.2691   -3.3272 H   0  0  0  0  0  0  0  0  0  0  0  0
   -0.2909   12.0067   -1.9370 H   0  0  0  0  0  0  0  0  0  0  0  0
    0.8060   12.5862   -0.6648 H   0  0  0  0  0  0  0  0  0  0  0  0
   -0.5866   14.2372   -2.5366 H   0  0  0  0  0  0  0  0  0  0  0  0
    0.7649   14.7870   -1.5494 H   0  0  0  0  0  0  0  0  0  0  0  0
   -0.3351   12.8294   -4.2142 H   0  0  0  0  0  0  0  0  0  0  0  0
    0.0247   14.2131   -5.3017 H   0  0  0  0  0  0  0  0  0  0  0  0
    1.0933   12.7691   -5.3017 H   0  0  0  0  0  0  0  0  0  0  0  0
    2.3329   15.8509   -3.0596 H   0  0  0  0  0  0  0  0  0  0  0  0
   -0.1110   16.2721   -3.7622 H   0  0  0  0  0  0  0  0  0  0  0  0
    1.2138   17.4925   -4.1419 H   0  0  0  0  0  0  0  0  0  0  0  0
   -0.5408   17.0446   -6.0547 H   0  0  0  0  0  0  0  0  0  0  0  0
    2.2798   14.2164   -6.6434 H   0  0  0  0  0  0  0  0  0  0  0  0
    3.6416   16.8457   -7.4962 H   0  0  0  0  0  0  0  0  0  0  0  0
    4.3763   15.1807   -7.5063 H   0  0  0  0  0  0  0  0  0  0  0  0
    3.6921   15.9169   -9.7676 H   0  0  0  0  0  0  0  0  0  0  0  0
    2.7919   14.4578   -9.1967 H   0  0  0  0  0  0  0  0  0  0  0  0
    1.2431   15.9469  -10.2664 H   0  0  0  0  0  0  0  0  0  0  0  0
    2.6250   17.8600   -9.7890 H   0  0  0  0  0  0  0  0  0  0  0  0
   -0.0966   13.9085   -7.5354 H   0  0  0  0  0  0  0  0  0  0  0  0
   -0.8760   14.4216   -9.0703 H   0  0  0  0  0  0  0  0  0  0  0  0
    0.8359   13.8776   -9.0703 H   0  0  0  0  0  0  0  0  0  0  0  0
   -1.1437   17.0832   -7.5419 H   0  0  0  0  0  0  0  0  0  0  0  0
   -0.4077   17.6589   -9.0761 H   0  0  0  0  0  0  0  0  0  0  0  0
   -1.4627   16.2050   -9.0761 H   0  0  0  0  0  0  0  0  0  0  0  0
    3.9580   17.0031   -3.8734 H   0  0  0  0  0  0  0  0  0  0  0  0
    4.8000   16.6612   -5.4228 H   0  0  0  0  0  0  0  0  0  0  0  0
    3.2583   17.5830   -5.4228 H   0  0  0  0  0  0  0  0  0  0  0  0
    4.5577   14.0590   -5.7704 H   0  0  0  0  0  0  0  0  0  0  0  0
    4.7096   14.6462   -4.0194 H   0  0  0  0  0  0  0  0  0  0  0  0
    2.9093   12.4529   -5.0842 H   0  0  0  0  0  0  0  0  0  0  0  0
    4.3164   12.3111   -3.9585 H   0  0  0  0  0  0  0  0  0  0  0  0
    3.0061   13.5199   -0.9641 H   0  0  0  0  0  0  0  0  0  0  0  0
    4.4556   13.4686   -2.0239 H   0  0  0  0  0  0  0  0  0  0  0  0
    3.3937   14.9175   -2.0239 H   0  0  0  0  0  0  0  0  0  0  0  0
  1  2  1  0
  2  3  1  0
  3  4  1  0
  4  5  1  0
  5  6  1  0
  6  7  1  0
  7  8  1  0
  7  9  1  0
  2 10  1  0
 10 11  1  0
 11 12  1  0
 12 13  1  0
 13 14  1  6
 13 15  1  0
 15 16  1  0
 16 17  1  0
 17 18  2  0
 18 19  1  0
 19 20  1  0
 20 21  1  0
 21 22  1  0
 22 23  1  0
 22 24  1  0
 24 25  1  0
 24 26  1  0
 19 27  1  0
 27 28  1  6
 27 29  1  0
 29 30  1  0
 30 31  1  0
 31 32  1  1
  7  5  1  0
 31 10  1  0
 31 13  1  0
 27 15  1  0
 24 18  1  0
  1 33  1  0
  1 34  1  0
  1 35  1  0
  2 36  1  1
  3 37  1  0
  3 38  1  0
  4 39  1  0
  4 40  1  0
  5 41  1  1
  8 42  1  0
  8 43  1  0
  8 44  1  0
  9 45  1  0
  9 46  1  0
  9 47  1  0
 10 48  1  6
 11 49  1  0
 11 50  1  0
 12 51  1  0
 12 52  1  0
 14 53  1  0
 14 54  1  0
 14 55  1  0
 15 56  1  1
 16 57  1  0
 16 58  1  0
 17 59  1  0
 19 60  1  6
 20 61  1  0
 20 62  1  0
 21 63  1  0
 21 64  1  0
 22 65  1  6
 23 66  1  0
 25 67  1  0
 25 68  1  0
 25 69  1  0
 26 70  1  0
 26 71  1  0
 26 72  1  0
 28 73  1  0
 28 74  1  0
 28 75  1  0
 29 76  1  0
 29 77  1  0
 30 78  1  0
 30 79  1  0
 32 80  1  0
 32 81  1  0
 32 82  1  0
M  END
>  <meeko>  (11) 
{"is_sidechain": [false], "intermolecular_energy": 2.731, "internal_energy": -0.839}

$$$$
EPH_relaxed_0001_pdb2pqr_Repair_309_r2_0001_out
     RDKit          3D

 82 86  0  0  0  0  0  0  0  0999 V2000
   -0.5500    8.2390   -0.9740 C   0  0  0  0  0  0  0  0  0  0  0  0
   -1.1560    9.5240   -0.4000 C   0  0  2  0  0  0  0  0  0  0  0  0
   -2.6730    9.3940   -0.1620 C   0  0  0  0  0  0  0  0  0  0  0  0
   -3.3280    8.2670   -0.9660 C   0  0  0  0  0  0  0  0  0  0  0  0
   -4.8170    8.2540   -0.7900 C   0  0  2  0  0  0  0  0  0  0  0  0
   -5.3570    6.9970   -0.3610 O   0  0  0  0  0  0  0  0  0  0  0  0
   -5.7550    7.4450   -1.6670 C   0  0  0  0  0  0  0  0  0  0  0  0
   -5.2390    6.5940   -2.7850 C   0  0  0  0  0  0  0  0  0  0  0  0
   -7.1910    7.8600   -1.7510 C   0  0  0  0  0  0  0  0  0  0  0  0
   -0.8730   10.6940   -1.3340 C   0  0  1  0  0  0  0  0  0  0  0  0
   -2.0670   11.6810   -1.4340 C   0  0  0  0  0  0  0  0  0  0  0  0
   -1.4620   13.1000   -1.5900 C   0  0  0  0  0  0  0  0  0  0  0  0
    0.0320   12.8550   -1.9070 C   0  0  1  0  0  0  0  0  0  0  0  0
    0.0700   12.5330   -3.4340 C   0  0  0  0  0  0  0  0  0  0  0  0
    1.0160   14.0120   -1.5360 C   0  0  2  0  0  0  0  0  0  0  0  0
    0.7770   15.3360   -2.2820 C   0  0  0  0  0  0  0  0  0  0  0  0
    1.5240   15.4900   -3.5650 C   0  0  0  0  0  0  0  0  0  0  0  0
    2.5670   14.7340   -3.9580 C   0  0  0  0  0  0  0  0  0  0  0  0
    3.1560   13.6630   -3.0310 C   0  0  1  0  0  0  0  0  0  0  0  0
    4.7030   13.7780   -3.0250 C   0  0  0  0  0  0  0  0  0  0  0  0
    5.2990   13.7290   -4.4290 C   0  0  0  0  0  0  0  0  0  0  0  0
    4.7320   14.8450   -5.3020 C   0  0  2  0  0  0  0  0  0  0  0  0
    5.1820   16.1030   -4.7910 O   0  0  0  0  0  0  0  0  0  0  0  0
    3.1790   14.8350   -5.3760 C   0  0  0  0  0  0  0  0  0  0  0  0
    2.7050   13.6120   -6.1990 C   0  0  0  0  0  0  0  0  0  0  0  0
    2.7320   16.0920   -6.1700 C   0  0  0  0  0  0  0  0  0  0  0  0
    2.5430   13.5990   -1.5670 C   0  0  1  0  0  0  0  0  0  0  0  0
    3.2930   14.5960   -0.6320 C   0  0  0  0  0  0  0  0  0  0  0  0
    2.7860   12.1620   -0.9700 C   0  0  0  0  0  0  0  0  0  0  0  0
    1.7180   11.0940   -1.2720 C   0  0  0  0  0  0  0  0  0  0  0  0
    0.3130   11.6230   -0.9710 C   0  0  2  0  0  0  0  0  0  0  0  0
    0.2370   11.9340    0.5620 C   0  0  0  0  0  0  0  0  0  0  0  0
   -0.2393    7.5801   -0.1498 H   0  0  0  0  0  0  0  0  0  0  0  0
   -1.3002    7.7241   -1.5921 H   0  0  0  0  0  0  0  0  0  0  0  0
    0.3245    8.4903   -1.5921 H   0  0  0  0  0  0  0  0  0  0  0  0
   -0.6835    9.7057    0.5766 H   0  0  0  0  0  0  0  0  0  0  0  0
   -2.8414    9.2007    0.9077 H   0  0  0  0  0  0  0  0  0  0  0  0
   -3.1326   10.3360   -0.4957 H   0  0  0  0  0  0  0  0  0  0  0  0
   -3.0961    8.4081   -2.0320 H   0  0  0  0  0  0  0  0  0  0  0  0
   -2.9308    7.3087   -0.6000 H   0  0  0  0  0  0  0  0  0  0  0  0
   -4.8158    9.3125   -0.4908 H   0  0  0  0  0  0  0  0  0  0  0  0
   -4.7110    5.7232   -2.3693 H   0  0  0  0  0  0  0  0  0  0  0  0
   -6.0814    6.2511   -3.4037 H   0  0  0  0  0  0  0  0  0  0  0  0
   -4.5454    7.1824   -3.4037 H   0  0  0  0  0  0  0  0  0  0  0  0
   -7.5986    7.9778   -0.7361 H   0  0  0  0  0  0  0  0  0  0  0  0
   -7.2654    8.8164   -2.2893 H   0  0  0  0  0  0  0  0  0  0  0  0
   -7.7641    7.0907   -2.2893 H   0  0  0  0  0  0  0  0  0  0  0  0
   -0.6491   10.1419   -2.2587 H   0  0  0  0  0  0  0  0  0  0  0  0
   -2.6888   11.4361   -2.3077 H   0  0  0  0  0  0  0  0  0  0  0  0
   -2.7060   11.6199   -0.5407 H   0  0  0  0  0  0  0  0  0  0  0  0
   -1.9499   13.6417   -2.4137 H   0  0  0  0  0  0  0  0  0  0  0  0
   -1.6016   13.7143   -0.6882 H   0  0  0  0  0  0  0  0  0  0  0  0
    0.1978   11.4499   -3.5773 H   0  0  0  0  0  0  0  0  0  0  0  0
   -0.8725   12.8558   -3.9004 H   0  0  0  0  0  0  0  0  0  0  0  0
    0.9114   13.0664   -3.9004 H   0  0  0  0  0  0  0  0  0  0  0  0
    0.7603   14.2110   -0.4848 H   0  0  0  0  0  0  0  0  0  0  0  0
   -0.2978   15.4119   -2.5035 H   0  0  0  0  0  0  0  0  0  0  0  0
    1.1476   16.1303   -1.6174 H   0  0  0  0  0  0  0  0  0  0  0  0
    1.1950   16.2880   -4.2468 H   0  0  0  0  0  0  0  0  0  0  0  0
    2.8551   12.6942   -3.4562 H   0  0  0  0  0  0  0  0  0  0  0  0
    4.9838   14.7325   -2.5559 H   0  0  0  0  0  0  0  0  0  0  0  0
    5.0994   12.9190   -2.4639 H   0  0  0  0  0  0  0  0  0  0  0  0
    6.3908   13.8449   -4.3608 H   0  0  0  0  0  0  0  0  0  0  0  0
    5.0424   12.7617   -4.8855 H   0  0  0  0  0  0  0  0  0  0  0  0
    5.0956   14.6802   -6.3270 H   0  0  0  0  0  0  0  0  0  0  0  0
    5.8190   16.4690   -5.4280 H   0  0  0  0  0  0  0  0  0  0  0  0
    2.3936   12.8084   -5.5154 H   0  0  0  0  0  0  0  0  0  0  0  0
    1.8549   13.9039   -6.8331 H   0  0  0  0  0  0  0  0  0  0  0  0
    3.5298   13.2548   -6.8331 H   0  0  0  0  0  0  0  0  0  0  0  0
    2.4487   16.8886   -5.4663 H   0  0  0  0  0  0  0  0  0  0  0  0
    3.5615   16.4399   -6.8031 H   0  0  0  0  0  0  0  0  0  0  0  0
    1.8691   15.8381   -6.8031 H   0  0  0  0  0  0  0  0  0  0  0  0
    3.0955   14.3334    0.4178 H   0  0  0  0  0  0  0  0  0  0  0  0
    4.3741   14.5391   -0.8271 H   0  0  0  0  0  0  0  0  0  0  0  0
    2.9386   15.6189   -0.8271 H   0  0  0  0  0  0  0  0  0  0  0  0
    3.7445   11.7951   -1.3658 H   0  0  0  0  0  0  0  0  0  0  0  0
    2.7583   12.2957    0.1215 H   0  0  0  0  0  0  0  0  0  0  0  0
    1.7777   10.8159   -2.3346 H   0  0  0  0  0  0  0  0  0  0  0  0
    1.9073   10.2185   -0.6334 H   0  0  0  0  0  0  0  0  0  0  0  0
    0.4602   11.0206    1.1329 H   0  0  0  0  0  0  0  0  0  0  0  0
    0.9712   12.7131    0.8149 H   0  0  0  0  0  0  0  0  0  0  0  0
   -0.7738   12.2867    0.8149 H   0  0  0  0  0  0  0  0  0  0  0  0
  1  2  1  0
  2  3  1  0
  3  4  1  0
  4  5  1  0
  5  6  1  0
  6  7  1  0
  7  8  1  0
  7  9  1  0
  2 10  1  0
 10 11  1  0
 11 12  1  0
 12 13  1  0
 13 14  1  6
 13 15  1  0
 15 16  1  0
 16 17  1  0
 17 18  2  0
 18 19  1  0
 19 20  1  0
 20 21  1  0
 21 22  1  0
 22 23  1  0
 22 24  1  0
 24 25  1  0
 24 26  1  0
 19 27  1  0
 27 28  1  1
 27 29  1  0
 29 30  1  0
 30 31  1  0
 31 32  1  1
  7  5  1  0
 31 10  1  0
 31 13  1  0
 27 15  1  0
 24 18  1  0
  1 33  1  0
  1 34  1  0
  1 35  1  0
  2 36  1  1
  3 37  1  0
  3 38  1  0
  4 39  1  0
  4 40  1  0
  5 41  1  1
  8 42  1  0
  8 43  1  0
  8 44  1  0
  9 45  1  0
  9 46  1  0
  9 47  1  0
 10 48  1  6
 11 49  1  0
 11 50  1  0
 12 51  1  0
 12 52  1  0
 14 53  1  0
 14 54  1  0
 14 55  1  0
 15 56  1  1
 16 57  1  0
 16 58  1  0
 17 59  1  0
 19 60  1  6
 20 61  1  0
 20 62  1  0
 21 63  1  0
 21 64  1  0
 22 65  1  6
 23 66  1  0
 25 67  1  0
 25 68  1  0
 25 69  1  0
 26 70  1  0
 26 71  1  0
 26 72  1  0
 28 73  1  0
 28 74  1  0
 28 75  1  0
 29 76  1  0
 29 77  1  0
 30 78  1  0
 30 79  1  0
 32 80  1  0
 32 81  1  0
 32 82  1  0
M  END
>  <meeko>  (12) 
{"is_sidechain": [false], "intermolecular_energy": 2.731, "internal_energy": -0.839}

$$$$
EPH_relaxed_0001_pdb2pqr_Repair_309_r2_0001_out
     RDKit          3D

 82 86  0  0  0  0  0  0  0  0999 V2000
    5.6780   16.2960   -4.6280 C   0  0  0  0  0  0  0  0  0  0  0  0
    4.4770   15.6000   -5.2740 C   0  0  2  0  0  0  0  0  0  0  0  0
    3.8150   16.4710   -6.3610 C   0  0  0  0  0  0  0  0  0  0  0  0
    3.8770   15.8580   -7.7620 C   0  0  0  0  0  0  0  0  0  0  0  0
    2.5430   15.3320   -8.1970 C   0  0  2  0  0  0  0  0  0  0  0  0
    2.3800   15.2110   -9.6160 O   0  0  0  0  0  0  0  0  0  0  0  0
    1.5240   16.1590   -8.9580 C   0  0  0  0  0  0  0  0  0  0  0  0
    1.7960   17.5840   -9.3280 C   0  0  0  0  0  0  0  0  0  0  0  0
    0.0870   15.7440   -8.9120 C   0  0  0  0  0  0  0  0  0  0  0  0
    3.4530   15.2320   -4.2060 C   0  0  1  0  0  0  0  0  0  0  0  0
    2.3050   16.2710   -4.0960 C   0  0  0  0  0  0  0  0  0  0  0  0
    1.0170   15.4800   -3.7510 C   0  0  0  0  0  0  0  0  0  0  0  0
    1.5200   14.0740   -3.3480 C   0  0  1  0  0  0  0  0  0  0  0  0
    1.9790   14.2210   -1.8640 C   0  0  0  0  0  0  0  0  0  0  0  0
    0.5020   12.9000   -3.5240 C   0  0  2  0  0  0  0  0  0  0  0  0
   -0.7710   13.0070   -2.6670 C   0  0  0  0  0  0  0  0  0  0  0  0
   -0.6910   12.3630   -1.3220 C   0  0  0  0  0  0  0  0  0  0  0  0
    0.2500   11.4850   -0.9300 C   0  0  0  0  0  0  0  0  0  0  0  0
    1.3130   10.9790   -1.9140 C   0  0  1  0  0  0  0  0  0  0  0  0
    1.4410    9.4370   -1.7910 C   0  0  0  0  0  0  0  0  0  0  0  0
    1.7080    8.9840   -0.3590 C   0  0  0  0  0  0  0  0  0  0  0  0
    0.6000    9.4570    0.5780 C   0  0  2  0  0  0  0  0  0  0  0  0
   -0.6140    8.7820    0.2340 O   0  0  0  0  0  0  0  0  0  0  0  0
    0.3730   10.9940    0.5330 C   0  0  0  0  0  0  0  0  0  0  0  0
    1.5760   11.7170    1.1890 C   0  0  0  0  0  0  0  0  0  0  0  0
   -0.8620   11.3210    1.4150 C   0  0  0  0  0  0  0  0  0  0  0  0
    1.1500   11.4600   -3.4200 C   0  0  1  0  0  0  0  0  0  0  0  0
    0.2020   10.4890   -4.1880 C   0  0  0  0  0  0  0  0  0  0  0  0
    2.5470   11.3790   -4.1400 C   0  0  0  0  0  0  0  0  0  0  0  0
    3.4580   12.6160   -4.0300 C   0  0  0  0  0  0  0  0  0  0  0  0
    2.6920   13.8950   -4.3810 C   0  0  2  0  0  0  0  0  0  0  0  0
    2.2360   13.7850   -5.8760 C   0  0  0  0  0  0  0  0  0  0  0  0
    5.5870   16.2433   -3.5330 H   0  0  0  0  0  0  0  0  0  0  0  0
    6.6053   15.7953   -4.9434 H   0  0  0  0  0  0  0  0  0  0  0  0
    5.7046   17.3495   -4.9434 H   0  0  0  0  0  0  0  0  0  0  0  0
    4.8481   14.6876   -5.7637 H   0  0  0  0  0  0  0  0  0  0  0  0
    2.7584   16.6180   -6.0926 H   0  0  0  0  0  0  0  0  0  0  0  0
    4.3737   17.4178   -6.3991 H   0  0  0  0  0  0  0  0  0  0  0  0
    4.2054   16.6293   -8.4742 H   0  0  0  0  0  0  0  0  0  0  0  0
    4.5854   15.0168   -7.7369 H   0  0  0  0  0  0  0  0  0  0  0  0
    2.4637   14.7177   -7.2880 H   0  0  0  0  0  0  0  0  0  0  0  0
    1.9107   18.1847   -8.4137 H   0  0  0  0  0  0  0  0  0  0  0  0
    2.7208   17.6387   -9.9211 H   0  0  0  0  0  0  0  0  0  0  0  0
    0.9564   17.9755   -9.9211 H   0  0  0  0  0  0  0  0  0  0  0  0
   -0.2345   15.6512   -7.8641 H   0  0  0  0  0  0  0  0  0  0  0  0
   -0.5296   16.5008   -9.4190 H   0  0  0  0  0  0  0  0  0  0  0  0
   -0.0312   14.7750   -9.4190 H   0  0  0  0  0  0  0  0  0  0  0  0
    4.1140   15.1762   -3.3285 H   0  0  0  0  0  0  0  0  0  0  0  0
    2.5272   16.9982   -3.3012 H   0  0  0  0  0  0  0  0  0  0  0  0
    2.1858   16.8288   -5.0366 H   0  0  0  0  0  0  0  0  0  0  0  0
    0.4813   15.9551   -2.9159 H   0  0  0  0  0  0  0  0  0  0  0  0
    0.3103   15.4451   -4.5932 H   0  0  0  0  0  0  0  0  0  0  0  0
    1.1475   13.9547   -1.1949 H   0  0  0  0  0  0  0  0  0  0  0  0
    2.8305   13.5506   -1.6754 H   0  0  0  0  0  0  0  0  0  0  0  0
    2.2826   15.2613   -1.6754 H   0  0  0  0  0  0  0  0  0  0  0  0
    0.1721   13.0270   -4.5656 H   0  0  0  0  0  0  0  0  0  0  0  0
   -0.9930   14.0743   -2.5201 H   0  0  0  0  0  0  0  0  0  0  0  0
   -1.5545   12.4655   -3.2173 H   0  0  0  0  0  0  0  0  0  0  0  0
   -1.4674   12.6291   -0.5896 H   0  0  0  0  0  0  0  0  0  0  0  0
    2.2570   11.4570   -1.6134 H   0  0  0  0  0  0  0  0  0  0  0  0
    0.5039    8.9767   -2.1374 H   0  0  0  0  0  0  0  0  0  0  0  0
    2.2978    9.1233   -2.4054 H   0  0  0  0  0  0  0  0  0  0  0  0
    1.7576    7.8854   -0.3322 H   0  0  0  0  0  0  0  0  0  0  0  0
    2.6608    9.4202   -0.0245 H   0  0  0  0  0  0  0  0  0  0  0  0
    0.9121    9.2161    1.6049 H   0  0  0  0  0  0  0  0  0  0  0  0
   -0.4610    7.8280    0.3420 H   0  0  0  0  0  0  0  0  0  0  0  0
    1.4843   11.6619    2.2838 H   0  0  0  0  0  0  0  0  0  0  0  0
    2.5116   11.2314    0.8745 H   0  0  0  0  0  0  0  0  0  0  0  0
    1.5862   12.7710    0.8745 H   0  0  0  0  0  0  0  0  0  0  0  0
   -0.5841   11.2474    2.4768 H   0  0  0  0  0  0  0  0  0  0  0  0
   -1.2086   12.3419    1.1966 H   0  0  0  0  0  0  0  0  0  0  0  0
   -1.6684   10.6054    1.1966 H   0  0  0  0  0  0  0  0  0  0  0  0
   -0.3778    9.8952   -3.4660 H   0  0  0  0  0  0  0  0  0  0  0  0
   -0.4852   11.0708   -4.8199 H   0  0  0  0  0  0  0  0  0  0  0  0
    0.8001    9.8160   -4.8199 H   0  0  0  0  0  0  0  0  0  0  0  0
    3.0926   10.5249   -3.7125 H   0  0  0  0  0  0  0  0  0  0  0  0
    2.3138   11.2878   -5.2111 H   0  0  0  0  0  0  0  0  0  0  0  0
    3.8356   12.6941   -2.9998 H   0  0  0  0  0  0  0  0  0  0  0  0
    4.2916   12.5013   -4.7384 H   0  0  0  0  0  0  0  0  0  0  0  0
    1.1674   13.5272   -5.9154 H   0  0  0  0  0  0  0  0  0  0  0  0
    2.3996   14.7484   -6.3811 H   0  0  0  0  0  0  0  0  0  0  0  0
    2.8209   13.0022   -6.3811 H   0  0  0  0  0  0  0  0  0  0  0  0
  1  2  1  0
  2  3  1  0
  3  4  1  0
  4  5  1  0
  5  6  1  0
  6  7  1  0
  7  8  1  0
  7  9  1  0
  2 10  1  0
 10 11  1  0
 11 12  1  0
 12 13  1  0
 13 14  1  1
 13 15  1  0
 15 16  1  0
 16 17  1  0
 17 18  2  0
 18 19  1  0
 19 20  1  0
 20 21  1  0
 21 22  1  0
 22 23  1  0
 22 24  1  0
 24 25  1  0
 24 26  1  0
 19 27  1  0
 27 28  1  6
 27 29  1  0
 29 30  1  0
 30 31  1  0
 31 32  1  6
  7  5  1  0
 31 10  1  0
 31 13  1  0
 27 15  1  0
 24 18  1  0
  1 33  1  0
  1 34  1  0
  1 35  1  0
  2 36  1  6
  3 37  1  0
  3 38  1  0
  4 39  1  0
  4 40  1  0
  5 41  1  1
  8 42  1  0
  8 43  1  0
  8 44  1  0
  9 45  1  0
  9 46  1  0
  9 47  1  0
 10 48  1  1
 11 49  1  0
 11 50  1  0
 12 51  1  0
 12 52  1  0
 14 53  1  0
 14 54  1  0
 14 55  1  0
 15 56  1  6
 16 57  1  0
 16 58  1  0
 17 59  1  0
 19 60  1  1
 20 61  1  0
 20 62  1  0
 21 63  1  0
 21 64  1  0
 22 65  1  1
 23 66  1  0
 25 67  1  0
 25 68  1  0
 25 69  1  0
 26 70  1  0
 26 71  1  0
 26 72  1  0
 28 73  1  0
 28 74  1  0
 28 75  1  0
 29 76  1  0
 29 77  1  0
 30 78  1  0
 30 79  1  0
 32 80  1  0
 32 81  1  0
 32 82  1  0
M  END
>  <meeko>  (13) 
{"is_sidechain": [false], "intermolecular_energy": 2.731, "internal_energy": -0.839}

$$$$
EPH_relaxed_0001_pdb2pqr_Repair_309_r2_0001_out
     RDKit          3D

 82 86  0  0  0  0  0  0  0  0999 V2000
    0.0750   10.2520   -3.6240 C   0  0  0  0  0  0  0  0  0  0  0  0
    1.1880   10.0950   -2.5840 C   0  0  2  0  0  0  0  0  0  0  0  0
    0.9500    8.8860   -1.6580 C   0  0  0  0  0  0  0  0  0  0  0  0
    0.2430    9.2440   -0.3470 C   0  0  0  0  0  0  0  0  0  0  0  0
   -1.1810    8.7770   -0.3400 C   0  0  2  0  0  0  0  0  0  0  0  0
   -1.8230    8.7920   -1.6210 O   0  0  0  0  0  0  0  0  0  0  0  0
   -2.3600    9.6850   -0.6320 C   0  0  0  0  0  0  0  0  0  0  0  0
   -2.1680   11.1350   -0.9530 C   0  0  0  0  0  0  0  0  0  0  0  0
   -3.7130    9.2860   -0.1310 C   0  0  0  0  0  0  0  0  0  0  0  0
    1.3080   11.3690   -1.7560 C   0  0  1  0  0  0  0  0  0  0  0  0
    2.2680   11.2080   -0.5470 C   0  0  0  0  0  0  0  0  0  0  0  0
    2.9840   12.5700   -0.3580 C   0  0  0  0  0  0  0  0  0  0  0  0
    2.1820   13.5570   -1.2390 C   0  0  1  0  0  0  0  0  0  0  0  0
    0.9410   13.9470   -0.3760 C   0  0  0  0  0  0  0  0  0  0  0  0
    2.9550   14.8190   -1.7420 C   0  0  2  0  0  0  0  0  0  0  0  0
    3.4550   15.7630   -0.6340 C   0  0  0  0  0  0  0  0  0  0  0  0
    2.5060   16.8460   -0.2420 C   0  0  0  0  0  0  0  0  0  0  0  0
    1.4250   17.2310   -0.9460 C   0  0  0  0  0  0  0  0  0  0  0  0
    1.1210   16.6200   -2.3200 C   0  0  1  0  0  0  0  0  0  0  0  0
    0.7690   17.7500   -3.3230 C   0  0  0  0  0  0  0  0  0  0  0  0
   -0.3590   18.6470   -2.8210 C   0  0  0  0  0  0  0  0  0  0  0  0
    0.0050   19.2820   -1.4810 C   0  0  2  0  0  0  0  0  0  0  0  0
    1.0920   20.1910   -1.6820 O   0  0  0  0  0  0  0  0  0  0  0  0
    0.3880   18.2400   -0.3940 C   0  0  0  0  0  0  0  0  0  0  0  0
   -0.8730   17.4520    0.0400 C   0  0  0  0  0  0  0  0  0  0  0  0
    0.8680   19.0160    0.8620 C   0  0  0  0  0  0  0  0  0  0  0  0
    2.2150   15.6180   -2.8900 C   0  0  1  0  0  0  0  0  0  0  0  0
    3.3140   16.4110   -3.6600 C   0  0  0  0  0  0  0  0  0  0  0  0
    1.5380   14.6620   -3.9430 C   0  0  0  0  0  0  0  0  0  0  0  0
    0.8960   13.3720   -3.3980 C   0  0  0  0  0  0  0  0  0  0  0  0
    1.8600   12.6300   -2.4670 C   0  0  2  0  0  0  0  0  0  0  0  0
    3.1090   12.2060   -3.3130 C   0  0  0  0  0  0  0  0  0  0  0  0
   -0.8889   10.3880   -3.1118 H   0  0  0  0  0  0  0  0  0  0  0  0
    0.2827   11.1297   -4.2536 H   0  0  0  0  0  0  0  0  0  0  0  0
    0.0318    9.3511   -4.2536 H   0  0  0  0  0  0  0  0  0  0  0  0
    2.1270    9.9148   -3.1279 H   0  0  0  0  0  0  0  0  0  0  0  0
    0.3322    8.1524   -2.1966 H   0  0  0  0  0  0  0  0  0  0  0  0
    1.9393    8.4861   -1.3908 H   0  0  0  0  0  0  0  0  0  0  0  0
    0.7783    8.7685    0.4881 H   0  0  0  0  0  0  0  0  0  0  0  0
    0.2453   10.3392   -0.2440 H   0  0  0  0  0  0  0  0  0  0  0  0
   -0.9728    8.0804    0.4855 H   0  0  0  0  0  0  0  0  0  0  0  0
   -2.0918   11.7104   -0.0186 H   0  0  0  0  0  0  0  0  0  0  0  0
   -1.2452   11.2620   -1.5381 H   0  0  0  0  0  0  0  0  0  0  0  0
   -3.0260   11.4977   -1.5381 H   0  0  0  0  0  0  0  0  0  0  0  0
   -3.7115    9.2864    0.9690 H   0  0  0  0  0  0  0  0  0  0  0  0
   -4.4649   10.0006   -0.4969 H   0  0  0  0  0  0  0  0  0  0  0  0
   -3.9568    8.2777   -0.4969 H   0  0  0  0  0  0  0  0  0  0  0  0
    0.2504   11.5173   -1.4925 H   0  0  0  0  0  0  0  0  0  0  0  0
    1.6975   10.9515    0.3578 H   0  0  0  0  0  0  0  0  0  0  0  0
    2.9948   10.4018   -0.7252 H   0  0  0  0  0  0  0  0  0  0  0  0
    2.9564   12.8803    0.6970 H   0  0  0  0  0  0  0  0  0  0  0  0
    4.0461   12.5261   -0.6408 H   0  0  0  0  0  0  0  0  0  0  0  0
    1.1965   13.8667    0.6909 H   0  0  0  0  0  0  0  0  0  0  0  0
    0.6453   14.9814   -0.6054 H   0  0  0  0  0  0  0  0  0  0  0  0
    0.1068   13.2677   -0.6054 H   0  0  0  0  0  0  0  0  0  0  0  0
    3.8579   14.3785   -2.1900 H   0  0  0  0  0  0  0  0  0  0  0  0
    3.6663   15.1567    0.2592 H   0  0  0  0  0  0  0  0  0  0  0  0
    4.3417   16.2692   -1.0432 H   0  0  0  0  0  0  0  0  0  0  0  0
    2.7067   17.3742    0.7018 H   0  0  0  0  0  0  0  0  0  0  0  0
    0.2496   15.9645   -2.1753 H   0  0  0  0  0  0  0  0  0  0  0  0
    1.6644   18.3676   -3.4869 H   0  0  0  0  0  0  0  0  0  0  0  0
    0.4287   17.2753   -4.2551 H   0  0  0  0  0  0  0  0  0  0  0  0
   -0.5420   19.4423   -3.5585 H   0  0  0  0  0  0  0  0  0  0  0  0
   -1.2619   18.0335   -2.6854 H   0  0  0  0  0  0  0  0  0  0  0  0
   -0.8878   19.8070   -1.1106 H   0  0  0  0  0  0  0  0  0  0  0  0
    1.5640   20.2750   -0.8360 H   0  0  0  0  0  0  0  0  0  0  0  0
   -0.9251   17.4195    1.1383 H   0  0  0  0  0  0  0  0  0  0  0  0
   -1.7707   17.9501   -0.3550 H   0  0  0  0  0  0  0  0  0  0  0  0
   -0.8187   16.4268   -0.3550 H   0  0  0  0  0  0  0  0  0  0  0  0
    0.5400   18.4857    1.7682 H   0  0  0  0  0  0  0  0  0  0  0  0
    1.9659   19.0836    0.8539 H   0  0  0  0  0  0  0  0  0  0  0  0
    0.4382   20.0285    0.8539 H   0  0  0  0  0  0  0  0  0  0  0  0
    3.9880   16.8973   -2.9394 H   0  0  0  0  0  0  0  0  0  0  0  0
    3.8903   15.7193   -4.2920 H   0  0  0  0  0  0  0  0  0  0  0  0
    2.8393   17.1760   -4.2920 H   0  0  0  0  0  0  0  0  0  0  0  0
    0.7508   15.2350   -4.4549 H   0  0  0  0  0  0  0  0  0  0  0  0
    2.3581   14.3230   -4.5931 H   0  0  0  0  0  0  0  0  0  0  0  0
   -0.0152   13.6319   -2.8392 H   0  0  0  0  0  0  0  0  0  0  0  0
    0.6535   12.7156   -4.2467 H   0  0  0  0  0  0  0  0  0  0  0  0
    3.9314   11.9268   -2.6380 H   0  0  0  0  0  0  0  0  0  0  0  0
    2.8474   11.3463   -3.9474 H   0  0  0  0  0  0  0  0  0  0  0  0
    3.4249   13.0473   -3.9474 H   0  0  0  0  0  0  0  0  0  0  0  0
  1  2  1  0
  2  3  1  0
  3  4  1  0
  4  5  1  0
  5  6  1  0
  6  7  1  0
  7  8  1  0
  7  9  1  0
  2 10  1  0
 10 11  1  0
 11 12  1  0
 12 13  1  0
 13 14  1  1
 13 15  1  0
 15 16  1  0
 16 17  1  0
 17 18  2  0
 18 19  1  0
 19 20  1  0
 20 21  1  0
 21 22  1  0
 22 23  1  0
 22 24  1  0
 24 25  1  0
 24 26  1  0
 19 27  1  0
 27 28  1  6
 27 29  1  0
 29 30  1  0
 30 31  1  0
 31 32  1  6
  7  5  1  0
 31 10  1  0
 31 13  1  0
 27 15  1  0
 24 18  1  0
  1 33  1  0
  1 34  1  0
  1 35  1  0
  2 36  1  6
  3 37  1  0
  3 38  1  0
  4 39  1  0
  4 40  1  0
  5 41  1  1
  8 42  1  0
  8 43  1  0
  8 44  1  0
  9 45  1  0
  9 46  1  0
  9 47  1  0
 10 48  1  1
 11 49  1  0
 11 50  1  0
 12 51  1  0
 12 52  1  0
 14 53  1  0
 14 54  1  0
 14 55  1  0
 15 56  1  6
 16 57  1  0
 16 58  1  0
 17 59  1  0
 19 60  1  1
 20 61  1  0
 20 62  1  0
 21 63  1  0
 21 64  1  0
 22 65  1  1
 23 66  1  0
 25 67  1  0
 25 68  1  0
 25 69  1  0
 26 70  1  0
 26 71  1  0
 26 72  1  0
 28 73  1  0
 28 74  1  0
 28 75  1  0
 29 76  1  0
 29 77  1  0
 30 78  1  0
 30 79  1  0
 32 80  1  0
 32 81  1  0
 32 82  1  0
M  END
>  <meeko>  (14) 
{"is_sidechain": [false], "intermolecular_energy": 2.731, "internal_energy": -0.839}

$$$$
EPH_relaxed_0001_pdb2pqr_Repair_309_r2_0001_out
     RDKit          3D

 82 86  0  0  0  0  0  0  0  0999 V2000
    6.1220   16.0470   -5.6360 C   0  0  0  0  0  0  0  0  0  0  0  0
    4.8080   15.2700   -5.7440 C   0  0  2  0  0  0  0  0  0  0  0  0
    3.7450   16.0360   -6.5560 C   0  0  0  0  0  0  0  0  0  0  0  0
    3.7450   15.6940   -8.0480 C   0  0  0  0  0  0  0  0  0  0  0  0
    2.4010   15.2160   -8.5080 C   0  0  2  0  0  0  0  0  0  0  0  0
    2.1970   15.2770   -9.9260 O   0  0  0  0  0  0  0  0  0  0  0  0
    1.3570   16.1270   -9.1280 C   0  0  0  0  0  0  0  0  0  0  0  0
    1.6130   17.5890   -9.3210 C   0  0  0  0  0  0  0  0  0  0  0  0
   -0.0770   15.6980   -9.0950 C   0  0  0  0  0  0  0  0  0  0  0  0
    4.2730   14.9570   -4.3510 C   0  0  1  0  0  0  0  0  0  0  0  0
    4.2790   16.1960   -3.4160 C   0  0  0  0  0  0  0  0  0  0  0  0
    3.0330   16.0720   -2.5020 C   0  0  0  0  0  0  0  0  0  0  0  0
    2.5420   14.6200   -2.7070 C   0  0  1  0  0  0  0  0  0  0  0  0
    3.4580   13.7530   -1.7880 C   0  0  0  0  0  0  0  0  0  0  0  0
    1.0270   14.3570   -2.4240 C   0  0  2  0  0  0  0  0  0  0  0  0
    0.5800   14.6110   -0.9740 C   0  0  0  0  0  0  0  0  0  0  0  0
    0.6660   13.4300   -0.0640 C   0  0  0  0  0  0  0  0  0  0  0  0
    0.8120   12.1500   -0.4560 C   0  0  0  0  0  0  0  0  0  0  0  0
    0.8070   11.7760   -1.9440 C   0  0  1  0  0  0  0  0  0  0  0  0
   -0.1160   10.5500   -2.1660 C   0  0  0  0  0  0  0  0  0  0  0  0
    0.2510    9.3710   -1.2700 C   0  0  0  0  0  0  0  0  0  0  0  0
    0.1870    9.7660    0.2030 C   0  0  2  0  0  0  0  0  0  0  0  0
   -1.1740   10.0390    0.5490 O   0  0  0  0  0  0  0  0  0  0  0  0
    1.0710   10.9980    0.5460 C   0  0  0  0  0  0  0  0  0  0  0  0
    2.5670   10.6060    0.4590 C   0  0  0  0  0  0  0  0  0  0  0  0
    0.8070   11.3780    2.0280 C   0  0  0  0  0  0  0  0  0  0  0  0
    0.5010   12.9630   -2.9560 C   0  0  1  0  0  0  0  0  0  0  0  0
   -1.0390   13.1120   -3.1500 C   0  0  0  0  0  0  0  0  0  0  0  0
    1.0930   12.5990   -4.3690 C   0  0  0  0  0  0  0  0  0  0  0  0
    2.5590   12.9920   -4.6290 C   0  0  0  0  0  0  0  0  0  0  0  0
    2.8120   14.4530   -4.2460 C   0  0  2  0  0  0  0  0  0  0  0  0
    1.9200   15.3510   -5.1700 C   0  0  0  0  0  0  0  0  0  0  0  0
    6.3738   16.1959   -4.5756 H   0  0  0  0  0  0  0  0  0  0  0  0
    6.9255   15.4787   -6.1274 H   0  0  0  0  0  0  0  0  0  0  0  0
    6.0112   17.0249   -6.1274 H   0  0  0  0  0  0  0  0  0  0  0  0
    5.0211   14.3334   -6.2800 H   0  0  0  0  0  0  0  0  0  0  0  0
    2.7537   15.7950   -6.1446 H   0  0  0  0  0  0  0  0  0  0  0  0
    3.9860   17.1060   -6.4718 H   0  0  0  0  0  0  0  0  0  0  0  0
    4.0182   16.5932   -8.6197 H   0  0  0  0  0  0  0  0  0  0  0  0
    4.4716   14.8849   -8.2140 H   0  0  0  0  0  0  0  0  0  0  0  0
    2.3506   14.4892   -7.6838 H   0  0  0  0  0  0  0  0  0  0  0  0
    1.6988   18.0789   -8.3398 H   0  0  0  0  0  0  0  0  0  0  0  0
    2.5489   17.7264   -9.8825 H   0  0  0  0  0  0  0  0  0  0  0  0
    0.7795   18.0362   -9.8825 H   0  0  0  0  0  0  0  0  0  0  0  0
   -0.4063   15.5995   -8.0501 H   0  0  0  0  0  0  0  0  0  0  0  0
   -0.6966   16.4501   -9.6053 H   0  0  0  0  0  0  0  0  0  0  0  0
   -0.1817   14.7292   -9.6053 H   0  0  0  0  0  0  0  0  0  0  0  0
    4.9688   14.1551   -4.0631 H   0  0  0  0  0  0  0  0  0  0  0  0
    5.1955   16.2072   -2.8077 H   0  0  0  0  0  0  0  0  0  0  0  0
    4.2515   17.1296   -3.9970 H   0  0  0  0  0  0  0  0  0  0  0  0
    3.3041   16.2454   -1.4501 H   0  0  0  0  0  0  0  0  0  0  0  0
    2.2587   16.8131   -2.7494 H   0  0  0  0  0  0  0  0  0  0  0  0
    3.2297   13.9691   -0.7339 H   0  0  0  0  0  0  0  0  0  0  0  0
    3.2776   12.6871   -1.9912 H   0  0  0  0  0  0  0  0  0  0  0  0
    4.5124   13.9917   -1.9912 H   0  0  0  0  0  0  0  0  0  0  0  0
    0.5360   15.1345   -3.0276 H   0  0  0  0  0  0  0  0  0  0  0  0
    1.2137   15.4079   -0.5576 H   0  0  0  0  0  0  0  0  0  0  0  0
   -0.4858   14.8779   -1.0264 H   0  0  0  0  0  0  0  0  0  0  0  0
    0.6050   13.6218    1.0174 H   0  0  0  0  0  0  0  0  0  0  0  0
    1.8448   11.5117   -2.1953 H   0  0  0  0  0  0  0  0  0  0  0  0
   -1.1534   10.8463   -1.9515 H   0  0  0  0  0  0  0  0  0  0  0  0
    0.0050   10.2259   -3.2102 H   0  0  0  0  0  0  0  0  0  0  0  0
   -0.4539    8.5466   -1.4528 H   0  0  0  0  0  0  0  0  0  0  0  0
    1.2786    9.0570   -1.5054 H   0  0  0  0  0  0  0  0  0  0  0  0
    0.5836    8.9229    0.7878 H   0  0  0  0  0  0  0  0  0  0  0  0
   -1.6600    9.1980    0.5180 H   0  0  0  0  0  0  0  0  0  0  0  0
    2.9775   10.4984    1.4739 H   0  0  0  0  0  0  0  0  0  0  0  0
    2.6653    9.6518   -0.0793 H   0  0  0  0  0  0  0  0  0  0  0  0
    3.1206   11.3894   -0.0793 H   0  0  0  0  0  0  0  0  0  0  0  0
    1.3095   10.6547    2.6871 H   0  0  0  0  0  0  0  0  0  0  0  0
    1.1998   12.3867    2.2235 H   0  0  0  0  0  0  0  0  0  0  0  0
   -0.2754   11.3618    2.2235 H   0  0  0  0  0  0  0  0  0  0  0  0
   -1.5296   13.1595   -2.1666 H   0  0  0  0  0  0  0  0  0  0  0  0
   -1.2504   14.0348   -3.7101 H   0  0  0  0  0  0  0  0  0  0  0  0
   -1.4234   12.2469   -3.7101 H   0  0  0  0  0  0  0  0  0  0  0  0
    1.0137   11.5088   -4.4924 H   0  0  0  0  0  0  0  0  0  0  0  0
    0.5049   13.1879   -5.0882 H   0  0  0  0  0  0  0  0  0  0  0  0
    3.2166   12.3443   -4.0306 H   0  0  0  0  0  0  0  0  0  0  0  0
    2.7696   12.8695   -5.7017 H   0  0  0  0  0  0  0  0  0  0  0  0
    1.2804   15.9949   -4.5486 H   0  0  0  0  0  0  0  0  0  0  0  0
    2.5640   15.9771   -5.8050 H   0  0  0  0  0  0  0  0  0  0  0  0
    1.2896   14.7112   -5.8050 H   0  0  0  0  0  0  0  0  0  0  0  0
  1  2  1  0
  2  3  1  0
  3  4  1  0
  4  5  1  0
  5  6  1  0
  6  7  1  0
  7  8  1  0
  7  9  1  0
  2 10  1  0
 10 11  1  0
 11 12  1  0
 12 13  1  0
 13 14  1  1
 13 15  1  0
 15 16  1  0
 16 17  1  0
 17 18  2  0
 18 19  1  0
 19 20  1  0
 20 21  1  0
 21 22  1  0
 22 23  1  0
 22 24  1  0
 24 25  1  0
 24 26  1  0
 19 27  1  0
 27 28  1  6
 27 29  1  0
 29 30  1  0
 30 31  1  0
 31 32  1  6
  7  5  1  0
 31 10  1  0
 31 13  1  0
 27 15  1  0
 24 18  1  0
  1 33  1  0
  1 34  1  0
  1 35  1  0
  2 36  1  6
  3 37  1  0
  3 38  1  0
  4 39  1  0
  4 40  1  0
  5 41  1  1
  8 42  1  0
  8 43  1  0
  8 44  1  0
  9 45  1  0
  9 46  1  0
  9 47  1  0
 10 48  1  1
 11 49  1  0
 11 50  1  0
 12 51  1  0
 12 52  1  0
 14 53  1  0
 14 54  1  0
 14 55  1  0
 15 56  1  6
 16 57  1  0
 16 58  1  0
 17 59  1  0
 19 60  1  6
 20 61  1  0
 20 62  1  0
 21 63  1  0
 21 64  1  0
 22 65  1  1
 23 66  1  0
 25 67  1  0
 25 68  1  0
 25 69  1  0
 26 70  1  0
 26 71  1  0
 26 72  1  0
 28 73  1  0
 28 74  1  0
 28 75  1  0
 29 76  1  0
 29 77  1  0
 30 78  1  0
 30 79  1  0
 32 80  1  0
 32 81  1  0
 32 82  1  0
M  END
>  <meeko>  (15) 
{"is_sidechain": [false], "intermolecular_energy": 2.731, "internal_energy": -0.839}

$$$$
EPH_relaxed_0001_pdb2pqr_Repair_309_r2_0001_out
     RDKit          3D

 82 86  0  0  0  0  0  0  0  0999 V2000
   -0.7240    9.5570   -2.9940 C   0  0  0  0  0  0  0  0  0  0  0  0
    0.4850    9.2480   -2.1060 C   0  0  2  0  0  0  0  0  0  0  0  0
    0.0710    8.8940   -0.6640 C   0  0  0  0  0  0  0  0  0  0  0  0
    0.9790    9.5070    0.4050 C   0  0  0  0  0  0  0  0  0  0  0  0
    0.2190   10.4140    1.3250 C   0  0  2  0  0  0  0  0  0  0  0  0
   -0.2820   11.6080    0.7090 O   0  0  0  0  0  0  0  0  0  0  0  0
    0.7070   11.7910    1.7340 C   0  0  0  0  0  0  0  0  0  0  0  0
    2.0080   12.3380    1.2350 C   0  0  0  0  0  0  0  0  0  0  0  0
    0.1670   12.3970    2.9920 C   0  0  0  0  0  0  0  0  0  0  0  0
    1.4400   10.4360   -2.0970 C   0  0  1  0  0  0  0  0  0  0  0  0
    2.8720   10.0550   -2.5560 C   0  0  0  0  0  0  0  0  0  0  0  0
    3.4340   11.2750   -3.3300 C   0  0  0  0  0  0  0  0  0  0  0  0
    2.4510   12.4260   -3.0110 C   0  0  1  0  0  0  0  0  0  0  0  0
    2.8930   12.9530   -1.6090 C   0  0  0  0  0  0  0  0  0  0  0  0
    2.3720   13.5800   -4.0630 C   0  0  2  0  0  0  0  0  0  0  0  0
    3.6790   14.3660   -4.2680 C   0  0  0  0  0  0  0  0  0  0  0  0
    3.8510   15.5590   -3.3880 C   0  0  0  0  0  0  0  0  0  0  0  0
    2.8760   16.1500   -2.6720 C   0  0  0  0  0  0  0  0  0  0  0  0
    1.4210   15.6760   -2.7820 C   0  0  1  0  0  0  0  0  0  0  0  0
    0.4870   16.9050   -2.9410 C   0  0  0  0  0  0  0  0  0  0  0  0
    0.6830   17.9360   -1.8330 C   0  0  0  0  0  0  0  0  0  0  0  0
    2.1280   18.4250   -1.7930 C   0  0  2  0  0  0  0  0  0  0  0  0
    2.3990   19.1630   -2.9880 O   0  0  0  0  0  0  0  0  0  0  0  0
    3.1610   17.2730   -1.6450 C   0  0  0  0  0  0  0  0  0  0  0  0
    3.0660   16.6670   -0.2230 C   0  0  0  0  0  0  0  0  0  0  0  0
    4.5820   17.8880   -1.7600 C   0  0  0  0  0  0  0  0  0  0  0  0
    1.1380   14.5510   -3.8680 C   0  0  1  0  0  0  0  0  0  0  0  0
    0.8650   15.2080   -5.2560 C   0  0  0  0  0  0  0  0  0  0  0  0
   -0.1760   13.7770   -3.4770 C   0  0  0  0  0  0  0  0  0  0  0  0
   -0.0180   12.5730   -2.5290 C   0  0  0  0  0  0  0  0  0  0  0  0
    1.0920   11.6360   -3.0140 C   0  0  2  0  0  0  0  0  0  0  0  0
    0.6650   11.0730   -4.4120 C   0  0  0  0  0  0  0  0  0  0  0  0
   -1.5960    9.7799   -2.3616 H   0  0  0  0  0  0  0  0  0  0  0  0
   -0.4998   10.4267   -3.6291 H   0  0  0  0  0  0  0  0  0  0  0  0
   -0.9446    8.6864   -3.6291 H   0  0  0  0  0  0  0  0  0  0  0  0
    0.9904    8.3676   -2.5296 H   0  0  0  0  0  0  0  0  0  0  0  0
   -0.9543    9.2564   -0.4982 H   0  0  0  0  0  0  0  0  0  0  0  0
    0.1510    7.8013   -0.5657 H   0  0  0  0  0  0  0  0  0  0  0  0
    1.4307    8.6968    0.9962 H   0  0  0  0  0  0  0  0  0  0  0  0
    1.7518   10.1030   -0.1025 H   0  0  0  0  0  0  0  0  0  0  0  0
   -0.1434    9.5558    1.9100 H   0  0  0  0  0  0  0  0  0  0  0  0
    2.6454   12.6060    2.0905 H   0  0  0  0  0  0  0  0  0  0  0  0
    2.5154   11.5770    0.6239 H   0  0  0  0  0  0  0  0  0  0  0  0
    1.8192   13.2329    0.6239 H   0  0  0  0  0  0  0  0  0  0  0  0
    0.6145   11.8948    3.8624 H   0  0  0  0  0  0  0  0  0  0  0  0
    0.4154   13.4682    3.0190 H   0  0  0  0  0  0  0  0  0  0  0  0
   -0.9257   12.2732    3.0190 H   0  0  0  0  0  0  0  0  0  0  0  0
    1.3549   10.7323   -1.0411 H   0  0  0  0  0  0  0  0  0  0  0  0
    3.5041    9.8368   -1.6826 H   0  0  0  0  0  0  0  0  0  0  0  0
    2.8569    9.1573   -3.1916 H   0  0  0  0  0  0  0  0  0  0  0  0
    4.4477   11.5224   -2.9819 H   0  0  0  0  0  0  0  0  0  0  0  0
    3.5148   11.0827   -4.4100 H   0  0  0  0  0  0  0  0  0  0  0  0
    2.3985   12.3634   -0.8230 H   0  0  0  0  0  0  0  0  0  0  0  0
    3.9841   12.8563   -1.5082 H   0  0  0  0  0  0  0  0  0  0  0  0
    2.6078   14.0106   -1.5082 H   0  0  0  0  0  0  0  0  0  0  0  0
    2.2021   13.0327   -5.0019 H   0  0  0  0  0  0  0  0  0  0  0  0
    4.5198   13.6818   -4.0810 H   0  0  0  0  0  0  0  0  0  0  0  0
    3.6441   14.7506   -5.2980 H   0  0  0  0  0  0  0  0  0  0  0  0
    4.8598   15.9921   -3.3185 H   0  0  0  0  0  0  0  0  0  0  0  0
    1.1985   15.1567   -1.8382 H   0  0  0  0  0  0  0  0  0  0  0  0
    0.6958   17.3837   -3.9091 H   0  0  0  0  0  0  0  0  0  0  0  0
   -0.5509   16.5454   -2.8828 H   0  0  0  0  0  0  0  0  0  0  0  0
    0.0179   18.7927   -2.0166 H   0  0  0  0  0  0  0  0  0  0  0  0
    0.4449   17.4643   -0.8682 H   0  0  0  0  0  0  0  0  0  0  0  0
    2.2361   19.0599   -0.9012 H   0  0  0  0  0  0  0  0  0  0  0  0
    1.7160   18.9290   -3.6390 H   0  0  0  0  0  0  0  0  0  0  0  0
    3.1910   17.4643    0.5245 H   0  0  0  0  0  0  0  0  0  0  0  0
    2.0825   16.1922   -0.0917 H   0  0  0  0  0  0  0  0  0  0  0  0
    3.8571   15.9140   -0.0917 H   0  0  0  0  0  0  0  0  0  0  0  0
    4.9881   18.0637   -0.7529 H   0  0  0  0  0  0  0  0  0  0  0  0
    5.2391   17.1937   -2.3043 H   0  0  0  0  0  0  0  0  0  0  0  0
    4.5256   18.8422   -2.3043 H   0  0  0  0  0  0  0  0  0  0  0  0
    0.4467   16.2147   -5.1092 H   0  0  0  0  0  0  0  0  0  0  0  0
    1.8073   15.2810   -5.8188 H   0  0  0  0  0  0  0  0  0  0  0  0
    0.1485   14.5917   -5.8188 H   0  0  0  0  0  0  0  0  0  0  0  0
   -0.8534   14.4954   -2.9922 H   0  0  0  0  0  0  0  0  0  0  0  0
   -0.5512   13.3530   -4.4201 H   0  0  0  0  0  0  0  0  0  0  0  0
    0.2335   12.9381   -1.5223 H   0  0  0  0  0  0  0  0  0  0  0  0
   -0.9655   12.0144   -2.5102 H   0  0  0  0  0  0  0  0  0  0  0  0
    0.0057   10.2038   -4.2714 H   0  0  0  0  0  0  0  0  0  0  0  0
    0.1291   11.8527   -4.9732 H   0  0  0  0  0  0  0  0  0  0  0  0
    1.5603   10.7672   -4.9732 H   0  0  0  0  0  0  0  0  0  0  0  0
  1  2  1  0
  2  3  1  0
  3  4  1  0
  4  5  1  0
  5  6  1  0
  6  7  1  0
  7  8  1  0
  7  9  1  0
  2 10  1  0
 10 11  1  0
 11 12  1  0
 12 13  1  0
 13 14  1  1
 13 15  1  0
 15 16  1  0
 16 17  1  0
 17 18  2  0
 18 19  1  0
 19 20  1  0
 20 21  1  0
 21 22  1  0
 22 23  1  0
 22 24  1  0
 24 25  1  0
 24 26  1  0
 19 27  1  0
 27 28  1  6
 27 29  1  0
 29 30  1  0
 30 31  1  0
 31 32  1  6
  7  5  1  0
 31 10  1  0
 31 13  1  0
 27 15  1  0
 24 18  1  0
  1 33  1  0
  1 34  1  0
  1 35  1  0
  2 36  1  6
  3 37  1  0
  3 38  1  0
  4 39  1  0
  4 40  1  0
  5 41  1  1
  8 42  1  0
  8 43  1  0
  8 44  1  0
  9 45  1  0
  9 46  1  0
  9 47  1  0
 10 48  1  1
 11 49  1  0
 11 50  1  0
 12 51  1  0
 12 52  1  0
 14 53  1  0
 14 54  1  0
 14 55  1  0
 15 56  1  6
 16 57  1  0
 16 58  1  0
 17 59  1  0
 19 60  1  1
 20 61  1  0
 20 62  1  0
 21 63  1  0
 21 64  1  0
 22 65  1  1
 23 66  1  0
 25 67  1  0
 25 68  1  0
 25 69  1  0
 26 70  1  0
 26 71  1  0
 26 72  1  0
 28 73  1  0
 28 74  1  0
 28 75  1  0
 29 76  1  0
 29 77  1  0
 30 78  1  0
 30 79  1  0
 32 80  1  0
 32 81  1  0
 32 82  1  0
M  END
>  <meeko>  (16) 
{"is_sidechain": [false], "intermolecular_energy": 2.731, "internal_energy": -0.839}

$$$$
EPH_relaxed_0001_pdb2pqr_Repair_309_r2_0001_out
     RDKit          3D

 82 86  0  0  0  0  0  0  0  0999 V2000
   -0.9250    8.5940   -1.3700 C   0  0  0  0  0  0  0  0  0  0  0  0
    0.0950    9.5350   -0.7240 C   0  0  2  0  0  0  0  0  0  0  0  0
   -0.5660   10.5190    0.2630 C   0  0  0  0  0  0  0  0  0  0  0  0
    0.2780   10.8000    1.5090 C   0  0  0  0  0  0  0  0  0  0  0  0
   -0.3420   11.8590    2.3700 C   0  0  2  0  0  0  0  0  0  0  0  0
    0.2800   13.1470    2.2760 O   0  0  0  0  0  0  0  0  0  0  0  0
    0.3650   12.4950    3.5530 C   0  0  0  0  0  0  0  0  0  0  0  0
    1.7540   12.0930    3.9400 C   0  0  0  0  0  0  0  0  0  0  0  0
   -0.4640   13.1430    4.6180 C   0  0  0  0  0  0  0  0  0  0  0  0
    0.8470   10.3060   -1.8020 C   0  0  1  0  0  0  0  0  0  0  0  0
    0.4730    9.8460   -3.2360 C   0  0  0  0  0  0  0  0  0  0  0  0
    0.5190   11.1070   -4.1370 C   0  0  0  0  0  0  0  0  0  0  0  0
    1.2320   12.1760   -3.2760 C   0  0  1  0  0  0  0  0  0  0  0  0
    2.7540   11.8600   -3.4250 C   0  0  0  0  0  0  0  0  0  0  0  0
    0.9160   13.6670   -3.6230 C   0  0  2  0  0  0  0  0  0  0  0  0
    1.3320   14.1110   -5.0360 C   0  0  0  0  0  0  0  0  0  0  0  0
    2.7120   14.6710   -5.1480 C   0  0  0  0  0  0  0  0  0  0  0  0
    3.4770   15.0760   -4.1180 C   0  0  0  0  0  0  0  0  0  0  0  0
    2.9310   15.0820   -2.6850 C   0  0  1  0  0  0  0  0  0  0  0  0
    3.2850   16.4280   -2.0000 C   0  0  0  0  0  0  0  0  0  0  0  0
    4.7780   16.7370   -2.0570 C   0  0  0  0  0  0  0  0  0  0  0  0
    5.2720   16.7800   -3.5000 C   0  0  2  0  0  0  0  0  0  0  0  0
    4.6730   17.9000   -4.1590 O   0  0  0  0  0  0  0  0  0  0  0  0
    4.9620   15.4800   -4.2930 C   0  0  0  0  0  0  0  0  0  0  0  0
    5.8460   14.3240   -3.7640 C   0  0  0  0  0  0  0  0  0  0  0  0
    5.3850   15.7090   -5.7700 C   0  0  0  0  0  0  0  0  0  0  0  0
    1.3950   14.7030   -2.5270 C   0  0  1  0  0  0  0  0  0  0  0  0
    0.5120   15.9760   -2.7020 C   0  0  0  0  0  0  0  0  0  0  0  0
    1.1420   14.1850   -1.0620 C   0  0  0  0  0  0  0  0  0  0  0  0
    1.3560   12.6800   -0.8100 C   0  0  0  0  0  0  0  0  0  0  0  0
    0.6290   11.8390   -1.8640 C   0  0  2  0  0  0  0  0  0  0  0  0
   -0.9060   12.1190   -1.7230 C   0  0  0  0  0  0  0  0  0  0  0  0
   -1.4910    8.0718   -0.5845 H   0  0  0  0  0  0  0  0  0  0  0  0
   -1.6175    9.1771   -1.9948 H   0  0  0  0  0  0  0  0  0  0  0  0
   -0.3995    7.8568   -1.9948 H   0  0  0  0  0  0  0  0  0  0  0  0
    0.7996    8.9150   -0.1503 H   0  0  0  0  0  0  0  0  0  0  0  0
   -0.7408   11.4708   -0.2601 H   0  0  0  0  0  0  0  0  0  0  0  0
   -1.5006   10.0512    0.6062 H   0  0  0  0  0  0  0  0  0  0  0  0
    0.3698    9.8731    2.0941 H   0  0  0  0  0  0  0  0  0  0  0  0
    1.2652   11.1581    1.1815 H   0  0  0  0  0  0  0  0  0  0  0  0
   -1.3347   11.3971    2.2646 H   0  0  0  0  0  0  0  0  0  0  0  0
    1.8367   12.0691    5.0366 H   0  0  0  0  0  0  0  0  0  0  0  0
    1.9733   11.0945    3.5339 H   0  0  0  0  0  0  0  0  0  0  0  0
    2.4727   12.8200    3.5339 H   0  0  0  0  0  0  0  0  0  0  0  0
   -0.0858   12.8474    5.6077 H   0  0  0  0  0  0  0  0  0  0  0  0
   -0.4045   14.2365    4.5144 H   0  0  0  0  0  0  0  0  0  0  0  0
   -1.5108   12.8213    4.5144 H   0  0  0  0  0  0  0  0  0  0  0  0
    1.8811   10.0852   -1.4987 H   0  0  0  0  0  0  0  0  0  0  0  0
    1.1955    9.0980   -3.5943 H   0  0  0  0  0  0  0  0  0  0  0  0
   -0.5250    9.3837   -3.2546 H   0  0  0  0  0  0  0  0  0  0  0  0
    1.0880   10.9065   -5.0568 H   0  0  0  0  0  0  0  0  0  0  0  0
   -0.4835   11.4287   -4.4557 H   0  0  0  0  0  0  0  0  0  0  0  0
    3.2083   11.7657   -2.4276 H   0  0  0  0  0  0  0  0  0  0  0  0
    2.8803   10.9165   -3.9762 H   0  0  0  0  0  0  0  0  0  0  0  0
    3.2455   12.6753   -3.9762 H   0  0  0  0  0  0  0  0  0  0  0  0
   -0.1839   13.6820   -3.6175 H   0  0  0  0  0  0  0  0  0  0  0  0
    1.2648   13.2370   -5.7005 H   0  0  0  0  0  0  0  0  0  0  0  0
    0.6487   14.9277   -5.3120 H   0  0  0  0  0  0  0  0  0  0  0  0
    3.1390   14.7598   -6.1578 H   0  0  0  0  0  0  0  0  0  0  0  0
    3.4360   14.2549   -2.1646 H   0  0  0  0  0  0  0  0  0  0  0  0
    2.7377   17.2365   -2.5068 H   0  0  0  0  0  0  0  0  0  0  0  0
    2.9999   16.3493   -0.9405 H   0  0  0  0  0  0  0  0  0  0  0  0
    4.9617   17.7132   -1.5845 H   0  0  0  0  0  0  0  0  0  0  0  0
    5.3212   15.9429   -1.5238 H   0  0  0  0  0  0  0  0  0  0  0  0
    6.3675   16.8754   -3.4708 H   0  0  0  0  0  0  0  0  0  0  0  0
    3.9360   17.5650   -4.6970 H   0  0  0  0  0  0  0  0  0  0  0  0
    5.8401   14.3317   -2.6640 H   0  0  0  0  0  0  0  0  0  0  0  0
    5.4495   13.3640   -4.1261 H   0  0  0  0  0  0  0  0  0  0  0  0
    6.8764   14.4551   -4.1261 H   0  0  0  0  0  0  0  0  0  0  0  0
    6.3520   16.2325   -5.7975 H   0  0  0  0  0  0  0  0  0  0  0  0
    5.4788   14.7385   -6.2792 H   0  0  0  0  0  0  0  0  0  0  0  0
    4.6237   16.3181   -6.2792 H   0  0  0  0  0  0  0  0  0  0  0  0
    0.2380   16.3710   -1.7126 H   0  0  0  0  0  0  0  0  0  0  0  0
    1.0755   16.7395   -3.2584 H   0  0  0  0  0  0  0  0  0  0  0  0
   -0.4005   15.7157   -3.2584 H   0  0  0  0  0  0  0  0  0  0  0  0
    1.8210   14.7342   -0.3931 H   0  0  0  0  0  0  0  0  0  0  0  0
    0.0717   14.3583   -0.8765 H   0  0  0  0  0  0  0  0  0  0  0  0
    2.4325   12.4576   -0.8520 H   0  0  0  0  0  0  0  0  0  0  0  0
    0.9494   12.4289    0.1808 H   0  0  0  0  0  0  0  0  0  0  0  0
   -1.1734   12.1678   -0.6571 H   0  0  0  0  0  0  0  0  0  0  0  0
   -1.1500   13.0765   -2.2064 H   0  0  0  0  0  0  0  0  0  0  0  0
   -1.4723   11.3093   -2.2064 H   0  0  0  0  0  0  0  0  0  0  0  0
  1  2  1  0
  2  3  1  0
  3  4  1  0
  4  5  1  0
  5  6  1  0
  6  7  1  0
  7  8  1  0
  7  9  1  0
  2 10  1  0
 10 11  1  0
 11 12  1  0
 12 13  1  0
 13 14  1  1
 13 15  1  0
 15 16  1  0
 16 17  1  0
 17 18  2  0
 18 19  1  0
 19 20  1  0
 20 21  1  0
 21 22  1  0
 22 23  1  0
 22 24  1  0
 24 25  1  0
 24 26  1  0
 19 27  1  0
 27 28  1  6
 27 29  1  0
 29 30  1  0
 30 31  1  0
 31 32  1  6
  7  5  1  0
 31 10  1  0
 31 13  1  0
 27 15  1  0
 24 18  1  0
  1 33  1  0
  1 34  1  0
  1 35  1  0
  2 36  1  1
  3 37  1  0
  3 38  1  0
  4 39  1  0
  4 40  1  0
  5 41  1  1
  8 42  1  0
  8 43  1  0
  8 44  1  0
  9 45  1  0
  9 46  1  0
  9 47  1  0
 10 48  1  1
 11 49  1  0
 11 50  1  0
 12 51  1  0
 12 52  1  0
 14 53  1  0
 14 54  1  0
 14 55  1  0
 15 56  1  6
 16 57  1  0
 16 58  1  0
 17 59  1  0
 19 60  1  1
 20 61  1  0
 20 62  1  0
 21 63  1  0
 21 64  1  0
 22 65  1  1
 23 66  1  0
 25 67  1  0
 25 68  1  0
 25 69  1  0
 26 70  1  0
 26 71  1  0
 26 72  1  0
 28 73  1  0
 28 74  1  0
 28 75  1  0
 29 76  1  0
 29 77  1  0
 30 78  1  0
 30 79  1  0
 32 80  1  0
 32 81  1  0
 32 82  1  0
M  END
>  <meeko>  (17) 
{"is_sidechain": [false], "intermolecular_energy": 2.731, "internal_energy": -0.839}

$$$$
EPH_relaxed_0001_pdb2pqr_Repair_309_r2_0001_out
     RDKit          3D

 82 86  0  0  0  0  0  0  0  0999 V2000
    3.8510   17.9040    0.1790 C   0  0  0  0  0  0  0  0  0  0  0  0
    3.5910   17.0610   -1.0720 C   0  0  2  0  0  0  0  0  0  0  0  0
    3.3520   17.9330   -2.3210 C   0  0  0  0  0  0  0  0  0  0  0  0
    4.4550   17.8110   -3.3770 C   0  0  0  0  0  0  0  0  0  0  0  0
    5.3310   16.6210   -3.1280 C   0  0  2  0  0  0  0  0  0  0  0  0
    6.4870   16.5420   -3.9730 O   0  0  0  0  0  0  0  0  0  0  0  0
    5.5160   15.4950   -4.1270 C   0  0  0  0  0  0  0  0  0  0  0  0
    4.8170   15.5030   -5.4510 C   0  0  0  0  0  0  0  0  0  0  0  0
    5.9810   14.1630   -3.6260 C   0  0  0  0  0  0  0  0  0  0  0  0
    2.3960   16.1430   -0.8410 C   0  0  1  0  0  0  0  0  0  0  0  0
    1.0470   16.9110   -0.8320 C   0  0  0  0  0  0  0  0  0  0  0  0
   -0.0080   15.9690   -1.4670 C   0  0  0  0  0  0  0  0  0  0  0  0
    0.6820   14.5860   -1.5150 C   0  0  1  0  0  0  0  0  0  0  0  0
    0.5180   14.0050   -0.0750 C   0  0  0  0  0  0  0  0  0  0  0  0
    0.1600   13.5900   -2.6020 C   0  0  2  0  0  0  0  0  0  0  0  0
   -1.3120   13.1720   -2.4500 C   0  0  0  0  0  0  0  0  0  0  0  0
   -1.5460   11.9510   -1.6220 C   0  0  0  0  0  0  0  0  0  0  0  0
   -0.6050   11.0590   -1.2610 C   0  0  0  0  0  0  0  0  0  0  0  0
    0.8350   11.1820   -1.7750 C   0  0  1  0  0  0  0  0  0  0  0  0
    1.3280    9.7960   -2.2680 C   0  0  0  0  0  0  0  0  0  0  0  0
    1.1770    8.7100   -1.2080 C   0  0  0  0  0  0  0  0  0  0  0  0
   -0.2770    8.5780   -0.7650 C   0  0  2  0  0  0  0  0  0  0  0  0
   -1.0510    8.0850   -1.8630 O   0  0  0  0  0  0  0  0  0  0  0  0
   -0.8860    9.9150   -0.2560 C   0  0  0  0  0  0  0  0  0  0  0  0
   -0.2470   10.2940    1.1030 C   0  0  0  0  0  0  0  0  0  0  0  0
   -2.3940    9.6760    0.0250 C   0  0  0  0  0  0  0  0  0  0  0  0
    1.0970   12.3360   -2.8350 C   0  0  1  0  0  0  0  0  0  0  0  0
    0.7940   11.8160   -4.2740 C   0  0  0  0  0  0  0  0  0  0  0  0
    2.6240   12.7180   -2.8130 C   0  0  0  0  0  0  0  0  0  0  0  0
    3.0570   13.7940   -1.7990 C   0  0  0  0  0  0  0  0  0  0  0  0
    2.1470   15.0230   -1.8820 C   0  0  2  0  0  0  0  0  0  0  0  0
    2.3080   15.6410   -3.3120 C   0  0  0  0  0  0  0  0  0  0  0  0
    3.6635   17.2960    1.0763 H   0  0  0  0  0  0  0  0  0  0  0  0
    4.8964   18.2462    0.1798 H   0  0  0  0  0  0  0  0  0  0  0  0
    3.1799   18.7756    0.1798 H   0  0  0  0  0  0  0  0  0  0  0  0
    4.4923   16.4585   -1.2580 H   0  0  0  0  0  0  0  0  0  0  0  0
    2.3983   17.6308   -2.7783 H   0  0  0  0  0  0  0  0  0  0  0  0
    3.3428   18.9804   -1.9850 H   0  0  0  0  0  0  0  0  0  0  0  0
    3.9897   17.7099   -4.3686 H   0  0  0  0  0  0  0  0  0  0  0  0
    5.0806   18.7143   -3.3256 H   0  0  0  0  0  0  0  0  0  0  0  0
    5.0714   16.6236   -2.0591 H   0  0  0  0  0  0  0  0  0  0  0  0
    3.7288   15.5155   -5.2910 H   0  0  0  0  0  0  0  0  0  0  0  0
    5.1146   16.3978   -6.0174 H   0  0  0  0  0  0  0  0  0  0  0  0
    5.0941   14.6016   -6.0174 H   0  0  0  0  0  0  0  0  0  0  0  0
    5.9805   14.1644   -2.5260 H   0  0  0  0  0  0  0  0  0  0  0  0
    5.3041   13.3769   -3.9919 H   0  0  0  0  0  0  0  0  0  0  0  0
    7.0000   13.9690   -3.9919 H   0  0  0  0  0  0  0  0  0  0  0  0
    2.6862   15.7017    0.1239 H   0  0  0  0  0  0  0  0  0  0  0  0
    0.7599   17.1603    0.2002 H   0  0  0  0  0  0  0  0  0  0  0  0
    1.1250   17.8530   -1.3946 H   0  0  0  0  0  0  0  0  0  0  0  0
   -0.9157   15.9287   -0.8470 H   0  0  0  0  0  0  0  0  0  0  0  0
   -0.3267   16.3108   -2.4628 H   0  0  0  0  0  0  0  0  0  0  0  0
    0.7393   14.7890    0.6641 H   0  0  0  0  0  0  0  0  0  0  0  0
   -0.5148   13.6523    0.0627 H   0  0  0  0  0  0  0  0  0  0  0  0
    1.2139   13.1643    0.0627 H   0  0  0  0  0  0  0  0  0  0  0  0
    0.2046   14.1960   -3.5190 H   0  0  0  0  0  0  0  0  0  0  0  0
   -1.8563   14.0073   -1.9853 H   0  0  0  0  0  0  0  0  0  0  0  0
   -1.6646   12.9255   -3.4624 H   0  0  0  0  0  0  0  0  0  0  0  0
   -2.5743   11.7652   -1.2783 H   0  0  0  0  0  0  0  0  0  0  0  0
    1.4383   11.5089   -0.9153 H   0  0  0  0  0  0  0  0  0  0  0  0
    0.7424    9.5081   -3.1535 H   0  0  0  0  0  0  0  0  0  0  0  0
    2.3989    9.8868   -2.5024 H   0  0  0  0  0  0  0  0  0  0  0  0
    1.5145    7.7500   -1.6257 H   0  0  0  0  0  0  0  0  0  0  0  0
    1.7863    8.9852   -0.3345 H   0  0  0  0  0  0  0  0  0  0  0  0
   -0.3007    7.8786    0.0837 H   0  0  0  0  0  0  0  0  0  0  0  0
   -1.5780    7.3350   -1.5380 H   0  0  0  0  0  0  0  0  0  0  0  0
   -0.8784    9.9195    1.9222 H   0  0  0  0  0  0  0  0  0  0  0  0
    0.7538    9.8433    1.1760 H   0  0  0  0  0  0  0  0  0  0  0  0
   -0.1626   11.3883    1.1760 H   0  0  0  0  0  0  0  0  0  0  0  0
   -2.5648    9.6489    1.1113 H   0  0  0  0  0  0  0  0  0  0  0  0
   -2.9835   10.4919   -0.4186 H   0  0  0  0  0  0  0  0  0  0  0  0
   -2.7023    8.7178   -0.4186 H   0  0  0  0  0  0  0  0  0  0  0  0
    0.2411   10.8671   -4.2121 H   0  0  0  0  0  0  0  0  0  0  0  0
    0.1876   12.5593   -4.8124 H   0  0  0  0  0  0  0  0  0  0  0  0
    1.7396   11.6549   -4.8124 H   0  0  0  0  0  0  0  0  0  0  0  0
    3.1926   11.8031   -2.5903 H   0  0  0  0  0  0  0  0  0  0  0  0
    2.8248   13.1570   -3.8014 H   0  0  0  0  0  0  0  0  0  0  0  0
    3.0030   13.3742   -0.7837 H   0  0  0  0  0  0  0  0  0  0  0  0
    4.0863   14.1031   -2.0335 H   0  0  0  0  0  0  0  0  0  0  0  0
    2.5844   16.7021   -3.2239 H   0  0  0  0  0  0  0  0  0  0  0  0
    3.0955   15.1011   -3.8582 H   0  0  0  0  0  0  0  0  0  0  0  0
    1.3572   15.5539   -3.8582 H   0  0  0  0  0  0  0  0  0  0  0  0
  1  2  1  0
  2  3  1  0
  3  4  1  0
  4  5  1  0
  5  6  1  0
  6  7  1  0
  7  8  1  0
  7  9  1  0
  2 10  1  0
 10 11  1  0
 11 12  1  0
 12 13  1  0
 13 14  1  1
 13 15  1  0
 15 16  1  0
 16 17  1  0
 17 18  2  0
 18 19  1  0
 19 20  1  0
 20 21  1  0
 21 22  1  0
 22 23  1  0
 22 24  1  0
 24 25  1  0
 24 26  1  0
 19 27  1  0
 27 28  1  6
 27 29  1  0
 29 30  1  0
 30 31  1  0
 31 32  1  6
  7  5  1  0
 31 10  1  0
 31 13  1  0
 27 15  1  0
 24 18  1  0
  1 33  1  0
  1 34  1  0
  1 35  1  0
  2 36  1  6
  3 37  1  0
  3 38  1  0
  4 39  1  0
  4 40  1  0
  5 41  1  1
  8 42  1  0
  8 43  1  0
  8 44  1  0
  9 45  1  0
  9 46  1  0
  9 47  1  0
 10 48  1  1
 11 49  1  0
 11 50  1  0
 12 51  1  0
 12 52  1  0
 14 53  1  0
 14 54  1  0
 14 55  1  0
 15 56  1  6
 16 57  1  0
 16 58  1  0
 17 59  1  0
 19 60  1  1
 20 61  1  0
 20 62  1  0
 21 63  1  0
 21 64  1  0
 22 65  1  1
 23 66  1  0
 25 67  1  0
 25 68  1  0
 25 69  1  0
 26 70  1  0
 26 71  1  0
 26 72  1  0
 28 73  1  0
 28 74  1  0
 28 75  1  0
 29 76  1  0
 29 77  1  0
 30 78  1  0
 30 79  1  0
 32 80  1  0
 32 81  1  0
 32 82  1  0
M  END
>  <meeko>  (18) 
{"is_sidechain": [false], "intermolecular_energy": 2.731, "internal_energy": -0.839}

$$$$
EPH_relaxed_0001_pdb2pqr_Repair_309_r2_0001_out
     RDKit          3D

 82 86  0  0  0  0  0  0  0  0999 V2000
    2.7680   15.8200   -7.1790 C   0  0  0  0  0  0  0  0  0  0  0  0
    3.4790   16.1390   -5.8610 C   0  0  2  0  0  0  0  0  0  0  0  0
    4.8920   15.5240   -5.8000 C   0  0  0  0  0  0  0  0  0  0  0  0
    5.7390   16.0430   -4.6350 C   0  0  0  0  0  0  0  0  0  0  0  0
    5.0600   17.1680   -3.9140 C   0  0  2  0  0  0  0  0  0  0  0  0
    5.7930   17.6940   -2.8000 O   0  0  0  0  0  0  0  0  0  0  0  0
    4.5410   17.0590   -2.4920 C   0  0  0  0  0  0  0  0  0  0  0  0
    4.6790   15.7920   -1.7070 C   0  0  0  0  0  0  0  0  0  0  0  0
    3.4760   18.0100   -2.0440 C   0  0  0  0  0  0  0  0  0  0  0  0
    2.6440   15.6440   -4.6860 C   0  0  1  0  0  0  0  0  0  0  0  0
    1.3580   16.4860   -4.4700 C   0  0  0  0  0  0  0  0  0  0  0  0
    0.2600   15.5080   -3.9800 C   0  0  0  0  0  0  0  0  0  0  0  0
    1.0250   14.2140   -3.6140 C   0  0  1  0  0  0  0  0  0  0  0  0
    1.6020   14.4800   -2.1880 C   0  0  0  0  0  0  0  0  0  0  0  0
    0.2010   12.8860   -3.6650 C   0  0  2  0  0  0  0  0  0  0  0  0
   -0.9790   12.8120   -2.6800 C   0  0  0  0  0  0  0  0  0  0  0  0
   -0.6580   12.2320   -1.3430 C   0  0  0  0  0  0  0  0  0  0  0  0
    0.4500   11.5290   -1.0410 C   0  0  0  0  0  0  0  0  0  0  0  0
    1.4760   11.1720   -2.1240 C   0  0  1  0  0  0  0  0  0  0  0  0
    1.8660    9.6760   -1.9940 C   0  0  0  0  0  0  0  0  0  0  0  0
    2.3490    9.3170   -0.5920 C   0  0  0  0  0  0  0  0  0  0  0  0
    1.2790    9.6320    0.4500 C   0  0  2  0  0  0  0  0  0  0  0  0
    0.1640    8.7590    0.2460 O   0  0  0  0  0  0  0  0  0  0  0  0
    0.8000   11.1100    0.4090 C   0  0  0  0  0  0  0  0  0  0  0  0
    1.9290   12.0380    0.9240 C   0  0  0  0  0  0  0  0  0  0  0  0
   -0.3750   11.2600    1.4110 C   0  0  0  0  0  0  0  0  0  0  0  0
    1.0830   11.5740   -3.6100 C   0  0  1  0  0  0  0  0  0  0  0  0
    0.2340   10.4390   -4.2610 C   0  0  0  0  0  0  0  0  0  0  0  0
    2.3940   11.6980   -4.4730 C   0  0  0  0  0  0  0  0  0  0  0  0
    3.0970   13.0690   -4.4770 C   0  0  0  0  0  0  0  0  0  0  0  0
    2.0980   14.1950   -4.7620 C   0  0  2  0  0  0  0  0  0  0  0  0
    1.5180   13.9670   -6.1990 C   0  0  0  0  0  0  0  0  0  0  0  0
    1.7832   15.3782   -6.9668 H   0  0  0  0  0  0  0  0  0  0  0  0
    2.6373   16.7458   -7.7585 H   0  0  0  0  0  0  0  0  0  0  0  0
    3.3726   15.1069   -7.7585 H   0  0  0  0  0  0  0  0  0  0  0  0
    3.5916   17.2316   -5.8020 H   0  0  0  0  0  0  0  0  0  0  0  0
    4.7920   14.4333   -5.6979 H   0  0  0  0  0  0  0  0  0  0  0  0
    5.4088   15.8129   -6.7271 H   0  0  0  0  0  0  0  0  0  0  0  0
    5.9138   15.2197   -3.9268 H   0  0  0  0  0  0  0  0  0  0  0  0
    6.6884   16.4205   -5.0427 H   0  0  0  0  0  0  0  0  0  0  0  0
    4.5893   17.5125   -4.8466 H   0  0  0  0  0  0  0  0  0  0  0  0
    4.6539   16.0223   -0.6317 H   0  0  0  0  0  0  0  0  0  0  0  0
    3.8494   15.1140   -1.9562 H   0  0  0  0  0  0  0  0  0  0  0  0
    5.6351   15.3085   -1.9562 H   0  0  0  0  0  0  0  0  0  0  0  0
    3.4466   18.0362   -0.9447 H   0  0  0  0  0  0  0  0  0  0  0  0
    3.6975   19.0163   -2.4290 H   0  0  0  0  0  0  0  0  0  0  0  0
    2.5010   17.6765   -2.4290 H   0  0  0  0  0  0  0  0  0  0  0  0
    3.3909   15.7236   -3.8824 H   0  0  0  0  0  0  0  0  0  0  0  0
    1.5373   17.2640   -3.7133 H   0  0  0  0  0  0  0  0  0  0  0  0
    1.0535   16.9875   -5.4005 H   0  0  0  0  0  0  0  0  0  0  0  0
   -0.2578   15.9153   -3.0991 H   0  0  0  0  0  0  0  0  0  0  0  0
   -0.5137   15.3337   -4.7422 H   0  0  0  0  0  0  0  0  0  0  0  0
    0.8772   14.1459   -1.4310 H   0  0  0  0  0  0  0  0  0  0  0  0
    2.5437   13.9251   -2.0641 H   0  0  0  0  0  0  0  0  0  0  0  0
    1.7917   15.5564   -2.0641 H   0  0  0  0  0  0  0  0  0  0  0  0
   -0.2494   12.9260   -4.6678 H   0  0  0  0  0  0  0  0  0  0  0  0
   -1.3573   13.8333   -2.5255 H   0  0  0  0  0  0  0  0  0  0  0  0
   -1.7148   12.1340   -3.1371 H   0  0  0  0  0  0  0  0  0  0  0  0
   -1.3882   12.3923   -0.5361 H   0  0  0  0  0  0  0  0  0  0  0  0
    2.3550   11.8047   -1.9316 H   0  0  0  0  0  0  0  0  0  0  0  0
    0.9862    9.0602   -2.2323 H   0  0  0  0  0  0  0  0  0  0  0  0
    2.6947    9.4852   -2.6917 H   0  0  0  0  0  0  0  0  0  0  0  0
    2.5820    8.2426   -0.5555 H   0  0  0  0  0  0  0  0  0  0  0  0
    3.2458    9.9126   -0.3660 H   0  0  0  0  0  0  0  0  0  0  0  0
    1.7290    9.4755    1.4415 H   0  0  0  0  0  0  0  0  0  0  0  0
   -0.1700    8.9150   -0.6540 H   0  0  0  0  0  0  0  0  0  0  0  0
    1.9299   12.0387    2.0240 H   0  0  0  0  0  0  0  0  0  0  0  0
    2.8996   11.6732    0.5568 H   0  0  0  0  0  0  0  0  0  0  0  0
    1.7590   13.0609    0.5568 H   0  0  0  0  0  0  0  0  0  0  0  0
    0.0117   11.2106    2.4396 H   0  0  0  0  0  0  0  0  0  0  0  0
   -0.8712   12.2288    1.2519 H   0  0  0  0  0  0  0  0  0  0  0  0
   -1.0986   10.4469    1.2519 H   0  0  0  0  0  0  0  0  0  0  0  0
   -0.2249    9.8256   -3.4716 H   0  0  0  0  0  0  0  0  0  0  0  0
   -0.5551   10.8835   -4.8853 H   0  0  0  0  0  0  0  0  0  0  0  0
    0.8833    9.8075   -4.8853 H   0  0  0  0  0  0  0  0  0  0  0  0
    3.1130   10.9567   -4.0941 H   0  0  0  0  0  0  0  0  0  0  0  0
    2.0704   11.5379   -5.5120 H   0  0  0  0  0  0  0  0  0  0  0  0
    3.5604   13.2390   -3.4939 H   0  0  0  0  0  0  0  0  0  0  0  0
    3.8618   13.0694   -5.2676 H   0  0  0  0  0  0  0  0  0  0  0  0
    0.4967   13.5655   -6.1228 H   0  0  0  0  0  0  0  0  0  0  0  0
    1.4964   14.9236   -6.7417 H   0  0  0  0  0  0  0  0  0  0  0  0
    2.1536   13.2518   -6.7417 H   0  0  0  0  0  0  0  0  0  0  0  0
  1  2  1  0
  2  3  1  0
  3  4  1  0
  4  5  1  0
  5  6  1  0
  6  7  1  0
  7  8  1  0
  7  9  1  0
  2 10  1  0
 10 11  1  0
 11 12  1  0
 12 13  1  0
 13 14  1  1
 13 15  1  0
 15 16  1  0
 16 17  1  0
 17 18  2  0
 18 19  1  0
 19 20  1  0
 20 21  1  0
 21 22  1  0
 22 23  1  0
 22 24  1  0
 24 25  1  0
 24 26  1  0
 19 27  1  0
 27 28  1  6
 27 29  1  0
 29 30  1  0
 30 31  1  0
 31 32  1  6
  7  5  1  0
 31 10  1  0
 31 13  1  0
 27 15  1  0
 24 18  1  0
  1 33  1  0
  1 34  1  0
  1 35  1  0
  2 36  1  1
  3 37  1  0
  3 38  1  0
  4 39  1  0
  4 40  1  0
  5 41  1  6
  8 42  1  0
  8 43  1  0
  8 44  1  0
  9 45  1  0
  9 46  1  0
  9 47  1  0
 10 48  1  1
 11 49  1  0
 11 50  1  0
 12 51  1  0
 12 52  1  0
 14 53  1  0
 14 54  1  0
 14 55  1  0
 15 56  1  6
 16 57  1  0
 16 58  1  0
 17 59  1  0
 19 60  1  1
 20 61  1  0
 20 62  1  0
 21 63  1  0
 21 64  1  0
 22 65  1  1
 23 66  1  0
 25 67  1  0
 25 68  1  0
 25 69  1  0
 26 70  1  0
 26 71  1  0
 26 72  1  0
 28 73  1  0
 28 74  1  0
 28 75  1  0
 29 76  1  0
 29 77  1  0
 30 78  1  0
 30 79  1  0
 32 80  1  0
 32 81  1  0
 32 82  1  0
M  END
>  <meeko>  (19) 
{"is_sidechain": [false], "intermolecular_energy": 2.731, "internal_energy": -0.839}

$$$$
