EPH_relaxed_0001_pdb2pqr_Repair_255_r2_0001_out
     RDKit          3D

 82 86  0  0  0  0  0  0  0  0999 V2000
   -5.1530    5.8650   -1.7730 C   0  0  0  0  0  0  0  0  0  0  0  0
   -5.4650    7.3640   -1.7980 C   0  0  2  0  0  0  0  0  0  0  0  0
   -5.2420    8.0260   -0.4240 C   0  0  0  0  0  0  0  0  0  0  0  0
   -4.1500    9.0990   -0.4280 C   0  0  0  0  0  0  0  0  0  0  0  0
   -2.8440    8.5590   -0.9270 C   0  0  2  0  0  0  0  0  0  0  0  0
   -1.7390    8.7390   -0.0310 O   0  0  0  0  0  0  0  0  0  0  0  0
   -1.6580    9.4350   -1.2850 C   0  0  0  0  0  0  0  0  0  0  0  0
   -1.7230   10.9250   -1.1590 C   0  0  0  0  0  0  0  0  0  0  0  0
   -0.6180    8.8880   -2.2120 C   0  0  0  0  0  0  0  0  0  0  0  0
   -6.9000    7.5880   -2.2580 C   0  0  1  0  0  0  0  0  0  0  0  0
   -7.2130    6.8860   -3.6060 C   0  0  0  0  0  0  0  0  0  0  0  0
   -8.6880    6.4140   -3.5340 C   0  0  0  0  0  0  0  0  0  0  0  0
   -9.2700    7.1420   -2.2990 C   0  0  1  0  0  0  0  0  0  0  0  0
   -9.6220    8.5750   -2.8080 C   0  0  0  0  0  0  0  0  0  0  0  0
  -10.4940    6.4580   -1.6080 C   0  0  2  0  0  0  0  0  0  0  0  0
  -11.7510    6.3290   -2.4850 C   0  0  0  0  0  0  0  0  0  0  0  0
  -12.7040    7.4750   -2.4070 C   0  0  0  0  0  0  0  0  0  0  0  0
  -12.7040    8.4280   -1.4570 C   0  0  0  0  0  0  0  0  0  0  0  0
  -11.7360    8.3570   -0.2690 C   0  0  1  0  0  0  0  0  0  0  0  0
  -12.5070    8.6430    1.0460 C   0  0  0  0  0  0  0  0  0  0  0  0
  -13.2760    9.9600    0.9990 C   0  0  0  0  0  0  0  0  0  0  0  0
  -14.2700    9.9700   -0.1600 C   0  0  2  0  0  0  0  0  0  0  0  0
  -15.2870    8.9970    0.0970 O   0  0  0  0  0  0  0  0  0  0  0  0
  -13.6090    9.6830   -1.5370 C   0  0  0  0  0  0  0  0  0  0  0  0
  -12.7310   10.8890   -1.9540 C   0  0  0  0  0  0  0  0  0  0  0  0
  -14.7380    9.5810   -2.5970 C   0  0  0  0  0  0  0  0  0  0  0  0
  -10.8430    7.0450   -0.1800 C   0  0  1  0  0  0  0  0  0  0  0  0
  -11.6160    5.9270    0.5840 C   0  0  0  0  0  0  0  0  0  0  0  0
   -9.5550    7.3560    0.6700 C   0  0  0  0  0  0  0  0  0  0  0  0
   -8.3390    7.9180   -0.0900 C   0  0  0  0  0  0  0  0  0  0  0  0
   -8.0320    7.0760   -1.3320 C   0  0  2  0  0  0  0  0  0  0  0  0
   -7.6530    5.6340   -0.8510 C   0  0  0  0  0  0  0  0  0  0  0  0
   -5.0817    5.5227   -0.7301 H   0  0  0  0  0  0  0  0  0  0  0  0
   -5.9559    5.3148   -2.2855 H   0  0  0  0  0  0  0  0  0  0  0  0
   -4.1973    5.6808   -2.2855 H   0  0  0  0  0  0  0  0  0  0  0  0
   -4.7695    7.8355   -2.5079 H   0  0  0  0  0  0  0  0  0  0  0  0
   -6.1861    8.4924   -0.1059 H   0  0  0  0  0  0  0  0  0  0  0  0
   -4.9122    7.2342    0.2647 H   0  0  0  0  0  0  0  0  0  0  0  0
   -4.4659    9.9267   -1.0800 H   0  0  0  0  0  0  0  0  0  0  0  0
   -4.0053    9.4449    0.6061 H   0  0  0  0  0  0  0  0  0  0  0  0
   -3.3590    7.7548   -1.4730 H   0  0  0  0  0  0  0  0  0  0  0  0
   -1.7351   11.2028   -0.0947 H   0  0  0  0  0  0  0  0  0  0  0  0
   -0.8435   11.3728   -1.6448 H   0  0  0  0  0  0  0  0  0  0  0  0
   -2.6381   11.2945   -1.6448 H   0  0  0  0  0  0  0  0  0  0  0  0
    0.2053    8.4550   -1.6249 H   0  0  0  0  0  0  0  0  0  0  0  0
   -1.0656    8.1086   -2.8462 H   0  0  0  0  0  0  0  0  0  0  0  0
   -0.2294    9.6984   -2.8462 H   0  0  0  0  0  0  0  0  0  0  0  0
   -6.9114    8.6873   -2.2945 H   0  0  0  0  0  0  0  0  0  0  0  0
   -7.0815    7.5914   -4.4397 H   0  0  0  0  0  0  0  0  0  0  0  0
   -6.5348    6.0366   -3.7752 H   0  0  0  0  0  0  0  0  0  0  0  0
   -9.2324    6.7002   -4.4460 H   0  0  0  0  0  0  0  0  0  0  0  0
   -8.7729    5.3203   -3.4523 H   0  0  0  0  0  0  0  0  0  0  0  0
   -9.7854    9.2400   -1.9472 H   0  0  0  0  0  0  0  0  0  0  0  0
   -8.7921    8.9617   -3.4178 H   0  0  0  0  0  0  0  0  0  0  0  0
  -10.5366    8.5332   -3.4178 H   0  0  0  0  0  0  0  0  0  0  0  0
  -10.1329    5.4307   -1.4519 H   0  0  0  0  0  0  0  0  0  0  0  0
  -11.4265    6.2276   -3.5311 H   0  0  0  0  0  0  0  0  0  0  0  0
  -12.2975    5.4528   -2.1060 H   0  0  0  0  0  0  0  0  0  0  0  0
  -13.4710    7.5466   -3.1923 H   0  0  0  0  0  0  0  0  0  0  0  0
  -10.9867    9.1439   -0.4403 H   0  0  0  0  0  0  0  0  0  0  0  0
  -13.2203    7.8243    1.2217 H   0  0  0  0  0  0  0  0  0  0  0  0
  -11.7676    8.7169    1.8571 H   0  0  0  0  0  0  0  0  0  0  0  0
  -13.8235   10.0912    1.9440 H   0  0  0  0  0  0  0  0  0  0  0  0
  -12.5583   10.7808    0.8533 H   0  0  0  0  0  0  0  0  0  0  0  0
  -14.6949   10.9828   -0.2212 H   0  0  0  0  0  0  0  0  0  0  0  0
  -15.9560    9.4140    0.6660 H   0  0  0  0  0  0  0  0  0  0  0  0
  -12.3588   11.4002   -1.0539 H   0  0  0  0  0  0  0  0  0  0  0  0
  -11.8792   10.5330   -2.5521 H   0  0  0  0  0  0  0  0  0  0  0  0
  -13.3314   11.5902   -2.5521 H   0  0  0  0  0  0  0  0  0  0  0  0
  -15.7102    9.4932   -2.0899 H   0  0  0  0  0  0  0  0  0  0  0  0
  -14.7328   10.4833   -3.2262 H   0  0  0  0  0  0  0  0  0  0  0  0
  -14.5712    8.6943   -3.2262 H   0  0  0  0  0  0  0  0  0  0  0  0
  -11.5088    6.0821    1.6677 H   0  0  0  0  0  0  0  0  0  0  0  0
  -12.6810    5.9659    0.3116 H   0  0  0  0  0  0  0  0  0  0  0  0
  -11.2035    4.9443    0.3116 H   0  0  0  0  0  0  0  0  0  0  0  0
   -9.8341    8.0901    1.4402 H   0  0  0  0  0  0  0  0  0  0  0  0
   -9.2253    6.3814    1.0591 H   0  0  0  0  0  0  0  0  0  0  0  0
   -8.5544    8.9512   -0.3999 H   0  0  0  0  0  0  0  0  0  0  0  0
   -7.4649    7.8906    0.5773 H   0  0  0  0  0  0  0  0  0  0  0  0
   -7.6452    5.6045    0.2486 H   0  0  0  0  0  0  0  0  0  0  0  0
   -8.3925    4.9142   -1.2319 H   0  0  0  0  0  0  0  0  0  0  0  0
   -6.6552    5.3708   -1.2319 H   0  0  0  0  0  0  0  0  0  0  0  0
  1  2  1  0
  2  3  1  0
  3  4  1  0
  4  5  1  0
  5  6  1  0
  6  7  1  0
  7  8  1  0
  7  9  1  0
  2 10  1  0
 10 11  1  0
 11 12  1  0
 12 13  1  0
 13 14  1  6
 13 15  1  0
 15 16  1  0
 16 17  1  0
 17 18  2  0
 18 19  1  0
 19 20  1  0
 20 21  1  0
 21 22  1  0
 22 23  1  0
 22 24  1  0
 24 25  1  0
 24 26  1  0
 19 27  1  0
 27 28  1  1
 27 29  1  0
 29 30  1  0
 30 31  1  0
 31 32  1  1
  7  5  1  0
 31 10  1  0
 31 13  1  0
 27 15  1  0
 24 18  1  0
  1 33  1  0
  1 34  1  0
  1 35  1  0
  2 36  1  6
  3 37  1  0
  3 38  1  0
  4 39  1  0
  4 40  1  0
  5 41  1  6
  8 42  1  0
  8 43  1  0
  8 44  1  0
  9 45  1  0
  9 46  1  0
  9 47  1  0
 10 48  1  6
 11 49  1  0
 11 50  1  0
 12 51  1  0
 12 52  1  0
 14 53  1  0
 14 54  1  0
 14 55  1  0
 15 56  1  1
 16 57  1  0
 16 58  1  0
 17 59  1  0
 19 60  1  6
 20 61  1  0
 20 62  1  0
 21 63  1  0
 21 64  1  0
 22 65  1  6
 23 66  1  0
 25 67  1  0
 25 68  1  0
 25 69  1  0
 26 70  1  0
 26 71  1  0
 26 72  1  0
 28 73  1  0
 28 74  1  0
 28 75  1  0
 29 76  1  0
 29 77  1  0
 30 78  1  0
 30 79  1  0
 32 80  1  0
 32 81  1  0
 32 82  1  0
M  END
>  <meeko>  (1) 
{"is_sidechain": [false], "intermolecular_energy": 2.731, "internal_energy": -0.839}

$$$$
EPH_relaxed_0001_pdb2pqr_Repair_255_r2_0001_out
     RDKit          3D

 82 86  0  0  0  0  0  0  0  0999 V2000
   -5.0510    8.4880   -0.4760 C   0  0  0  0  0  0  0  0  0  0  0  0
   -5.3550    7.4540   -1.5640 C   0  0  2  0  0  0  0  0  0  0  0  0
   -4.3500    7.5270   -2.7310 C   0  0  0  0  0  0  0  0  0  0  0  0
   -2.8920    7.3400   -2.3000 C   0  0  0  0  0  0  0  0  0  0  0  0
   -2.0540    8.5330   -2.6470 C   0  0  2  0  0  0  0  0  0  0  0  0
   -0.6630    8.4000   -2.3290 O   0  0  0  0  0  0  0  0  0  0  0  0
   -1.3830    9.4140   -1.6110 C   0  0  0  0  0  0  0  0  0  0  0  0
   -1.5220    9.1400   -0.1460 C   0  0  0  0  0  0  0  0  0  0  0  0
   -1.0040   10.8100   -1.9960 C   0  0  0  0  0  0  0  0  0  0  0  0
   -6.7730    7.6510   -2.0860 C   0  0  1  0  0  0  0  0  0  0  0  0
   -7.0100    6.9520   -3.4520 C   0  0  0  0  0  0  0  0  0  0  0  0
   -8.4750    6.4470   -3.4480 C   0  0  0  0  0  0  0  0  0  0  0  0
   -9.1280    7.1520   -2.2360 C   0  0  1  0  0  0  0  0  0  0  0  0
   -9.4890    8.5810   -2.7500 C   0  0  0  0  0  0  0  0  0  0  0  0
  -10.3660    6.4360   -1.6040 C   0  0  2  0  0  0  0  0  0  0  0  0
  -11.5800    6.2850   -2.5380 C   0  0  0  0  0  0  0  0  0  0  0  0
  -12.5610    7.4090   -2.4940 C   0  0  0  0  0  0  0  0  0  0  0  0
  -12.6250    8.3550   -1.5390 C   0  0  0  0  0  0  0  0  0  0  0  0
  -11.7080    8.2970   -0.3100 C   0  0  1  0  0  0  0  0  0  0  0  0
  -12.5440    8.5550    0.9720 C   0  0  0  0  0  0  0  0  0  0  0  0
  -13.3390    9.8550    0.8990 C   0  0  0  0  0  0  0  0  0  0  0  0
  -14.2810    9.8510   -0.3030 C   0  0  2  0  0  0  0  0  0  0  0  0
  -15.2860    8.8540   -0.0980 O   0  0  0  0  0  0  0  0  0  0  0  0
  -13.5530    9.5900   -1.6510 C   0  0  0  0  0  0  0  0  0  0  0  0
  -12.6850   10.8180   -2.0200 C   0  0  0  0  0  0  0  0  0  0  0  0
  -14.6310    9.4710   -2.7610 C   0  0  0  0  0  0  0  0  0  0  0  0
  -10.7910    7.0040   -0.1900 C   0  0  1  0  0  0  0  0  0  0  0  0
  -11.5720    5.8630    0.5320 C   0  0  0  0  0  0  0  0  0  0  0  0
   -9.5500    7.3370    0.7190 C   0  0  0  0  0  0  0  0  0  0  0  0
   -8.3140    7.9320    0.0170 C   0  0  0  0  0  0  0  0  0  0  0  0
   -7.9330    7.1060   -1.2150 C   0  0  2  0  0  0  0  0  0  0  0  0
   -7.5430    5.6690   -0.7270 C   0  0  0  0  0  0  0  0  0  0  0  0
   -5.1860    8.0287    0.5144 H   0  0  0  0  0  0  0  0  0  0  0  0
   -4.0126    8.8357   -0.5804 H   0  0  0  0  0  0  0  0  0  0  0  0
   -5.7360    9.3423   -0.5804 H   0  0  0  0  0  0  0  0  0  0  0  0
   -5.2611    6.4571   -1.1087 H   0  0  0  0  0  0  0  0  0  0  0  0
   -4.6017    6.7390   -3.4560 H   0  0  0  0  0  0  0  0  0  0  0  0
   -4.4310    8.5355   -3.1627 H   0  0  0  0  0  0  0  0  0  0  0  0
   -2.8591    7.1857   -1.2114 H   0  0  0  0  0  0  0  0  0  0  0  0
   -2.4856    6.4685   -2.8341 H   0  0  0  0  0  0  0  0  0  0  0  0
   -2.6998    8.7658   -3.5065 H   0  0  0  0  0  0  0  0  0  0  0  0
   -1.0968    9.9781    0.4257 H   0  0  0  0  0  0  0  0  0  0  0  0
   -2.5866    9.0266    0.1064 H   0  0  0  0  0  0  0  0  0  0  0  0
   -0.9847    8.2140    0.1064 H   0  0  0  0  0  0  0  0  0  0  0  0
   -0.8413   11.4094   -1.0881 H   0  0  0  0  0  0  0  0  0  0  0  0
   -0.0793   10.7879   -2.5914 H   0  0  0  0  0  0  0  0  0  0  0  0
   -1.8129   11.2586   -2.5914 H   0  0  0  0  0  0  0  0  0  0  0  0
   -6.8076    8.7501   -2.1153 H   0  0  0  0  0  0  0  0  0  0  0  0
   -6.8579    7.6664   -4.2745 H   0  0  0  0  0  0  0  0  0  0  0  0
   -6.3058    6.1195   -3.5969 H   0  0  0  0  0  0  0  0  0  0  0  0
   -8.9849    6.7276   -4.3814 H   0  0  0  0  0  0  0  0  0  0  0  0
   -8.5381    5.3511   -3.3766 H   0  0  0  0  0  0  0  0  0  0  0  0
   -9.6574    9.2478   -1.8915 H   0  0  0  0  0  0  0  0  0  0  0  0
   -8.6612    8.9711   -3.3604 H   0  0  0  0  0  0  0  0  0  0  0  0
  -10.4028    8.5311   -3.3604 H   0  0  0  0  0  0  0  0  0  0  0  0
   -9.9891    5.4160   -1.4377 H   0  0  0  0  0  0  0  0  0  0  0  0
  -11.2070    6.1994   -3.5693 H   0  0  0  0  0  0  0  0  0  0  0  0
  -12.1225    5.3934   -2.1907 H   0  0  0  0  0  0  0  0  0  0  0  0
  -13.2941    7.4693   -3.3118 H   0  0  0  0  0  0  0  0  0  0  0  0
  -10.9695    9.1014   -0.4427 H   0  0  0  0  0  0  0  0  0  0  0  0
  -13.2460    7.7194    1.1095 H   0  0  0  0  0  0  0  0  0  0  0  0
  -11.8440    8.6381    1.8165 H   0  0  0  0  0  0  0  0  0  0  0  0
  -13.9304    9.9677    1.8196 H   0  0  0  0  0  0  0  0  0  0  0  0
  -12.6341   10.6924    0.7902 H   0  0  0  0  0  0  0  0  0  0  0  0
  -14.7262   10.8542   -0.3763 H   0  0  0  0  0  0  0  0  0  0  0  0
  -14.9660    8.2520    0.5950 H   0  0  0  0  0  0  0  0  0  0  0  0
  -12.3368   11.3106   -1.1002 H   0  0  0  0  0  0  0  0  0  0  0  0
  -11.8174   10.4895   -2.6110 H   0  0  0  0  0  0  0  0  0  0  0  0
  -13.2842   11.5263   -2.6110 H   0  0  0  0  0  0  0  0  0  0  0  0
  -15.6230    9.3615   -2.2985 H   0  0  0  0  0  0  0  0  0  0  0  0
  -14.6156   10.3763   -3.3857 H   0  0  0  0  0  0  0  0  0  0  0  0
  -14.4185    8.5909   -3.3857 H   0  0  0  0  0  0  0  0  0  0  0  0
  -11.4844    5.9909    1.6210 H   0  0  0  0  0  0  0  0  0  0  0  0
  -12.6323    5.9040    0.2421 H   0  0  0  0  0  0  0  0  0  0  0  0
  -11.1500    4.8894    0.2421 H   0  0  0  0  0  0  0  0  0  0  0  0
   -9.8797    8.0588    1.4808 H   0  0  0  0  0  0  0  0  0  0  0  0
   -9.2161    6.3672    1.1166 H   0  0  0  0  0  0  0  0  0  0  0  0
   -8.5390    8.9622   -0.2960 H   0  0  0  0  0  0  0  0  0  0  0  0
   -7.4700    7.9196    0.7224 H   0  0  0  0  0  0  0  0  0  0  0  0
   -7.5363    5.6445    0.3727 H   0  0  0  0  0  0  0  0  0  0  0  0
   -8.2762    4.9416   -1.1056 H   0  0  0  0  0  0  0  0  0  0  0  0
   -6.5426    5.4121   -1.1056 H   0  0  0  0  0  0  0  0  0  0  0  0
  1  2  1  0
  2  3  1  0
  3  4  1  0
  4  5  1  0
  5  6  1  0
  6  7  1  0
  7  8  1  0
  7  9  1  0
  2 10  1  0
 10 11  1  0
 11 12  1  0
 12 13  1  0
 13 14  1  6
 13 15  1  0
 15 16  1  0
 16 17  1  0
 17 18  2  0
 18 19  1  0
 19 20  1  0
 20 21  1  0
 21 22  1  0
 22 23  1  0
 22 24  1  0
 24 25  1  0
 24 26  1  0
 19 27  1  0
 27 28  1  1
 27 29  1  0
 29 30  1  0
 30 31  1  0
 31 32  1  1
  7  5  1  0
 31 10  1  0
 31 13  1  0
 27 15  1  0
 24 18  1  0
  1 33  1  0
  1 34  1  0
  1 35  1  0
  2 36  1  1
  3 37  1  0
  3 38  1  0
  4 39  1  0
  4 40  1  0
  5 41  1  6
  8 42  1  0
  8 43  1  0
  8 44  1  0
  9 45  1  0
  9 46  1  0
  9 47  1  0
 10 48  1  6
 11 49  1  0
 11 50  1  0
 12 51  1  0
 12 52  1  0
 14 53  1  0
 14 54  1  0
 14 55  1  0
 15 56  1  1
 16 57  1  0
 16 58  1  0
 17 59  1  0
 19 60  1  6
 20 61  1  0
 20 62  1  0
 21 63  1  0
 21 64  1  0
 22 65  1  6
 23 66  1  0
 25 67  1  0
 25 68  1  0
 25 69  1  0
 26 70  1  0
 26 71  1  0
 26 72  1  0
 28 73  1  0
 28 74  1  0
 28 75  1  0
 29 76  1  0
 29 77  1  0
 30 78  1  0
 30 79  1  0
 32 80  1  0
 32 81  1  0
 32 82  1  0
M  END
>  <meeko>  (2) 
{"is_sidechain": [false], "intermolecular_energy": 2.731, "internal_energy": -0.839}

$$$$
EPH_relaxed_0001_pdb2pqr_Repair_255_r2_0001_out
     RDKit          3D

 82 86  0  0  0  0  0  0  0  0999 V2000
   -1.7400    8.6090   -2.2330 C   0  0  0  0  0  0  0  0  0  0  0  0
   -2.0010    8.9730   -0.7680 C   0  0  2  0  0  0  0  0  0  0  0  0
   -3.4750    9.3520   -0.5190 C   0  0  0  0  0  0  0  0  0  0  0  0
   -4.4030    8.1450   -0.3630 C   0  0  0  0  0  0  0  0  0  0  0  0
   -5.1260    7.8340   -1.6390 C   0  0  2  0  0  0  0  0  0  0  0  0
   -6.3390    8.5730   -1.8350 O   0  0  0  0  0  0  0  0  0  0  0  0
   -6.4800    7.1510   -1.6870 C   0  0  0  0  0  0  0  0  0  0  0  0
   -7.1910    6.7370   -0.4370 C   0  0  0  0  0  0  0  0  0  0  0  0
   -6.8840    6.4510   -2.9480 C   0  0  0  0  0  0  0  0  0  0  0  0
   -1.0900   10.1200   -0.3480 C   0  0  1  0  0  0  0  0  0  0  0  0
   -0.1210    9.7230    0.7980 C   0  0  0  0  0  0  0  0  0  0  0  0
    1.2050   10.4870    0.5460 C   0  0  0  0  0  0  0  0  0  0  0  0
    0.8510   11.5390   -0.5300 C   0  0  1  0  0  0  0  0  0  0  0  0
    0.1810   12.7090    0.2580 C   0  0  0  0  0  0  0  0  0  0  0  0
    2.0350   12.0450   -1.4180 C   0  0  2  0  0  0  0  0  0  0  0  0
    3.1550   12.7760   -0.6570 C   0  0  0  0  0  0  0  0  0  0  0  0
    2.9840   14.2540   -0.5360 C   0  0  0  0  0  0  0  0  0  0  0  0
    2.1280   15.0040   -1.2550 C   0  0  0  0  0  0  0  0  0  0  0  0
    1.2860   14.3820   -2.3770 C   0  0  1  0  0  0  0  0  0  0  0  0
    1.3570   15.2830   -3.6380 C   0  0  0  0  0  0  0  0  0  0  0  0
    0.9640   16.7280   -3.3470 C   0  0  0  0  0  0  0  0  0  0  0  0
    1.8610   17.3300   -2.2680 C   0  0  2  0  0  0  0  0  0  0  0  0
    3.1910   17.4420   -2.7840 O   0  0  0  0  0  0  0  0  0  0  0  0
    1.8780   16.5020   -0.9530 C   0  0  0  0  0  0  0  0  0  0  0  0
    0.5100   16.6320   -0.2380 C   0  0  0  0  0  0  0  0  0  0  0  0
    2.9270   17.1390   -0.0010 C   0  0  0  0  0  0  0  0  0  0  0  0
    1.5830   12.8550   -2.7000 C   0  0  1  0  0  0  0  0  0  0  0  0
    2.7500   12.7460   -3.7290 C   0  0  0  0  0  0  0  0  0  0  0  0
    0.3200   12.2210   -3.3940 C   0  0  0  0  0  0  0  0  0  0  0  0
   -0.7590   11.6310   -2.4660 C   0  0  0  0  0  0  0  0  0  0  0  0
   -0.1350   10.7000   -1.4210 C   0  0  2  0  0  0  0  0  0  0  0  0
    0.5280    9.5020   -2.1830 C   0  0  0  0  0  0  0  0  0  0  0  0
   -1.0996    7.7159   -2.2804 H   0  0  0  0  0  0  0  0  0  0  0  0
   -2.6964    8.4015   -2.7353 H   0  0  0  0  0  0  0  0  0  0  0  0
   -1.2366    9.4482   -2.7353 H   0  0  0  0  0  0  0  0  0  0  0  0
   -1.7815    8.0827   -0.1604 H   0  0  0  0  0  0  0  0  0  0  0  0
   -3.5285    9.9523    0.4012 H   0  0  0  0  0  0  0  0  0  0  0  0
   -3.8176    9.9085   -1.4039 H   0  0  0  0  0  0  0  0  0  0  0  0
   -3.8040    7.2701   -0.0701 H   0  0  0  0  0  0  0  0  0  0  0  0
   -5.1519    8.3849    0.4062 H   0  0  0  0  0  0  0  0  0  0  0  0
   -4.1767    7.6279   -2.1550 H   0  0  0  0  0  0  0  0  0  0  0  0
   -6.6166    7.0715    0.4395 H   0  0  0  0  0  0  0  0  0  0  0  0
   -8.1915    7.1938   -0.4158 H   0  0  0  0  0  0  0  0  0  0  0  0
   -7.2876    5.6415   -0.4158 H   0  0  0  0  0  0  0  0  0  0  0  0
   -7.4194    5.5234   -2.6971 H   0  0  0  0  0  0  0  0  0  0  0  0
   -7.5426    7.1067   -3.5365 H   0  0  0  0  0  0  0  0  0  0  0  0
   -5.9868    6.2088   -3.5365 H   0  0  0  0  0  0  0  0  0  0  0  0
   -1.8489   10.8685   -0.0764 H   0  0  0  0  0  0  0  0  0  0  0  0
   -0.5458   10.0118    1.7707 H   0  0  0  0  0  0  0  0  0  0  0  0
    0.0462    8.6359    0.8157 H   0  0  0  0  0  0  0  0  0  0  0  0
    1.5524   10.9763    1.4679 H   0  0  0  0  0  0  0  0  0  0  0  0
    2.0169    9.8182    0.2241 H   0  0  0  0  0  0  0  0  0  0  0  0
    0.2837   12.5296    1.3384 H   0  0  0  0  0  0  0  0  0  0  0  0
    0.6731   13.6571   -0.0047 H   0  0  0  0  0  0  0  0  0  0  0  0
   -0.8857   12.7645   -0.0047 H   0  0  0  0  0  0  0  0  0  0  0  0
    2.4810   11.1050   -1.7752 H   0  0  0  0  0  0  0  0  0  0  0  0
    3.2067   12.3556    0.3582 H   0  0  0  0  0  0  0  0  0  0  0  0
    4.0723   12.6228   -1.2444 H   0  0  0  0  0  0  0  0  0  0  0  0
    3.6106   14.7744    0.2033 H   0  0  0  0  0  0  0  0  0  0  0  0
    0.2530   14.3490   -2.0004 H   0  0  0  0  0  0  0  0  0  0  0  0
    2.3869   15.2686   -4.0242 H   0  0  0  0  0  0  0  0  0  0  0  0
    0.6432   14.8844   -4.3739 H   0  0  0  0  0  0  0  0  0  0  0  0
    1.0620   17.3204   -4.2686 H   0  0  0  0  0  0  0  0  0  0  0  0
   -0.0759   16.7440   -2.9887 H   0  0  0  0  0  0  0  0  0  0  0  0
    1.4504   18.3176   -2.0108 H   0  0  0  0  0  0  0  0  0  0  0  0
    3.4350   18.3830   -2.7670 H   0  0  0  0  0  0  0  0  0  0  0  0
    0.6627   16.6175    0.8512 H   0  0  0  0  0  0  0  0  0  0  0  0
    0.0329   17.5795   -0.5288 H   0  0  0  0  0  0  0  0  0  0  0  0
   -0.1371   15.7913   -0.5288 H   0  0  0  0  0  0  0  0  0  0  0  0
    2.6313   16.9594    1.0432 H   0  0  0  0  0  0  0  0  0  0  0  0
    3.9125   16.6867   -0.1860 H   0  0  0  0  0  0  0  0  0  0  0  0
    2.9801   18.2220   -0.1860 H   0  0  0  0  0  0  0  0  0  0  0  0
    3.7056   12.6567   -3.1915 H   0  0  0  0  0  0  0  0  0  0  0  0
    2.6002   11.8579   -4.3606 H   0  0  0  0  0  0  0  0  0  0  0  0
    2.7672   13.6464   -4.3606 H   0  0  0  0  0  0  0  0  0  0  0  0
   -0.1556   13.0058   -4.0006 H   0  0  0  0  0  0  0  0  0  0  0  0
    0.7057   11.3654   -3.9678 H   0  0  0  0  0  0  0  0  0  0  0  0
   -1.2791   12.4523   -1.9513 H   0  0  0  0  0  0  0  0  0  0  0  0
   -1.4661   11.0495   -3.0759 H   0  0  0  0  0  0  0  0  0  0  0  0
    0.9273    8.7804   -1.4551 H   0  0  0  0  0  0  0  0  0  0  0  0
   -0.2248    9.0074   -2.8144 H   0  0  0  0  0  0  0  0  0  0  0  0
    1.3469    9.8772   -2.8144 H   0  0  0  0  0  0  0  0  0  0  0  0
  1  2  1  0
  2  3  1  0
  3  4  1  0
  4  5  1  0
  5  6  1  0
  6  7  1  0
  7  8  1  0
  7  9  1  0
  2 10  1  0
 10 11  1  0
 11 12  1  0
 12 13  1  0
 13 14  1  1
 13 15  1  0
 15 16  1  0
 16 17  1  0
 17 18  2  0
 18 19  1  0
 19 20  1  0
 20 21  1  0
 21 22  1  0
 22 23  1  0
 22 24  1  0
 24 25  1  0
 24 26  1  0
 19 27  1  0
 27 28  1  6
 27 29  1  0
 29 30  1  0
 30 31  1  0
 31 32  1  6
  7  5  1  0
 31 10  1  0
 31 13  1  0
 27 15  1  0
 24 18  1  0
  1 33  1  0
  1 34  1  0
  1 35  1  0
  2 36  1  1
  3 37  1  0
  3 38  1  0
  4 39  1  0
  4 40  1  0
  5 41  1  6
  8 42  1  0
  8 43  1  0
  8 44  1  0
  9 45  1  0
  9 46  1  0
  9 47  1  0
 10 48  1  1
 11 49  1  0
 11 50  1  0
 12 51  1  0
 12 52  1  0
 14 53  1  0
 14 54  1  0
 14 55  1  0
 15 56  1  6
 16 57  1  0
 16 58  1  0
 17 59  1  0
 19 60  1  1
 20 61  1  0
 20 62  1  0
 21 63  1  0
 21 64  1  0
 22 65  1  1
 23 66  1  0
 25 67  1  0
 25 68  1  0
 25 69  1  0
 26 70  1  0
 26 71  1  0
 26 72  1  0
 28 73  1  0
 28 74  1  0
 28 75  1  0
 29 76  1  0
 29 77  1  0
 30 78  1  0
 30 79  1  0
 32 80  1  0
 32 81  1  0
 32 82  1  0
M  END
>  <meeko>  (3) 
{"is_sidechain": [false], "intermolecular_energy": 2.731, "internal_energy": -0.839}

$$$$
EPH_relaxed_0001_pdb2pqr_Repair_255_r2_0001_out
     RDKit          3D

 82 86  0  0  0  0  0  0  0  0999 V2000
    0.8180   18.2900    0.0030 C   0  0  0  0  0  0  0  0  0  0  0  0
    1.9430   17.2740   -0.2180 C   0  0  2  0  0  0  0  0  0  0  0  0
    3.1650   17.9030   -0.9170 C   0  0  0  0  0  0  0  0  0  0  0  0
    4.3490   18.1530    0.0200 C   0  0  0  0  0  0  0  0  0  0  0  0
    3.8960   18.5630    1.3890 C   0  0  2  0  0  0  0  0  0  0  0  0
    4.0700   19.9540    1.6860 O   0  0  0  0  0  0  0  0  0  0  0  0
    4.8420   19.0360    2.4770 C   0  0  0  0  0  0  0  0  0  0  0  0
    6.3170   19.1240    2.2440 C   0  0  0  0  0  0  0  0  0  0  0  0
    4.3950   18.9450    3.9030 C   0  0  0  0  0  0  0  0  0  0  0  0
    1.4250   16.0950   -1.0340 C   0  0  1  0  0  0  0  0  0  0  0  0
    1.6070   16.3000   -2.5610 C   0  0  0  0  0  0  0  0  0  0  0  0
    1.9140   14.9060   -3.1660 C   0  0  0  0  0  0  0  0  0  0  0  0
    1.5740   13.9070   -2.0360 C   0  0  1  0  0  0  0  0  0  0  0  0
    0.0240   13.7350   -2.1050 C   0  0  0  0  0  0  0  0  0  0  0  0
    2.3100   12.5290   -2.0870 C   0  0  2  0  0  0  0  0  0  0  0  0
    2.0070   11.6730   -3.3290 C   0  0  0  0  0  0  0  0  0  0  0  0
    0.8540   10.7340   -3.1910 C   0  0  0  0  0  0  0  0  0  0  0  0
    0.2720   10.3760   -2.0310 C   0  0  0  0  0  0  0  0  0  0  0  0
    0.8340   10.8550   -0.6870 C   0  0  1  0  0  0  0  0  0  0  0  0
    0.9140    9.6590    0.2970 C   0  0  0  0  0  0  0  0  0  0  0  0
   -0.4200    8.9340    0.4470 C   0  0  0  0  0  0  0  0  0  0  0  0
   -0.9180    8.4220   -0.9020 C   0  0  2  0  0  0  0  0  0  0  0  0
   -0.0300    7.3980   -1.3620 O   0  0  0  0  0  0  0  0  0  0  0  0
   -1.0300    9.5390   -1.9780 C   0  0  0  0  0  0  0  0  0  0  0  0
   -2.2030   10.4860   -1.6240 C   0  0  0  0  0  0  0  0  0  0  0  0
   -1.4050    8.8670   -3.3260 C   0  0  0  0  0  0  0  0  0  0  0  0
    2.1910   11.6800   -0.7570 C   0  0  1  0  0  0  0  0  0  0  0  0
    3.4070   10.7050   -0.7400 C   0  0  0  0  0  0  0  0  0  0  0  0
    2.3180   12.5710    0.5350 C   0  0  0  0  0  0  0  0  0  0  0  0
    1.6730   13.9690    0.4810 C   0  0  0  0  0  0  0  0  0  0  0  0
    2.0880   14.7160   -0.7900 C   0  0  2  0  0  0  0  0  0  0  0  0
    3.6400   14.9230   -0.7370 C   0  0  0  0  0  0  0  0  0  0  0  0
    0.6598   18.4329    1.0821 H   0  0  0  0  0  0  0  0  0  0  0  0
    1.0952   19.2499   -0.4572 H   0  0  0  0  0  0  0  0  0  0  0  0
   -0.1088   17.9168   -0.4572 H   0  0  0  0  0  0  0  0  0  0  0  0
    2.2731   16.9250    0.7716 H   0  0  0  0  0  0  0  0  0  0  0  0
    3.4936   17.2250   -1.7185 H   0  0  0  0  0  0  0  0  0  0  0  0
    2.8463   18.8834   -1.3007 H   0  0  0  0  0  0  0  0  0  0  0  0
    4.9400   17.2289    0.1020 H   0  0  0  0  0  0  0  0  0  0  0  0
    4.9524   18.9709   -0.4007 H   0  0  0  0  0  0  0  0  0  0  0  0
    3.1039   17.7997    1.3806 H   0  0  0  0  0  0  0  0  0  0  0  0
    6.8398   19.1552    3.2113 H   0  0  0  0  0  0  0  0  0  0  0  0
    6.6514   18.2442    1.6747 H   0  0  0  0  0  0  0  0  0  0  0  0
    6.5444   20.0373    1.6747 H   0  0  0  0  0  0  0  0  0  0  0  0
    5.2535   19.1198    4.5682 H   0  0  0  0  0  0  0  0  0  0  0  0
    3.6224   19.7043    4.0942 H   0  0  0  0  0  0  0  0  0  0  0  0
    3.9807   17.9441    4.0942 H   0  0  0  0  0  0  0  0  0  0  0  0
    0.3804   16.0767   -0.6899 H   0  0  0  0  0  0  0  0  0  0  0  0
    0.6855   16.7092   -3.0007 H   0  0  0  0  0  0  0  0  0  0  0  0
    2.4214   17.0093   -2.7700 H   0  0  0  0  0  0  0  0  0  0  0  0
    1.2871   14.7199   -4.0505 H   0  0  0  0  0  0  0  0  0  0  0  0
    2.9580   14.8174   -3.5010 H   0  0  0  0  0  0  0  0  0  0  0  0
   -0.3856   13.6895   -1.0851 H   0  0  0  0  0  0  0  0  0  0  0  0
   -0.4164   14.5898   -2.6392 H   0  0  0  0  0  0  0  0  0  0  0  0
   -0.2182   12.8045   -2.6392 H   0  0  0  0  0  0  0  0  0  0  0  0
    3.3642   12.8288   -2.1805 H   0  0  0  0  0  0  0  0  0  0  0  0
    1.7930   12.3532   -4.1666 H   0  0  0  0  0  0  0  0  0  0  0  0
    2.8947   11.0433   -3.4884 H   0  0  0  0  0  0  0  0  0  0  0  0
    0.4459   10.2982   -4.1149 H   0  0  0  0  0  0  0  0  0  0  0  0
    0.1210   11.6022   -0.3085 H   0  0  0  0  0  0  0  0  0  0  0  0
    1.6632    8.9451   -0.0760 H   0  0  0  0  0  0  0  0  0  0  0  0
    1.1903   10.0572    1.2845 H   0  0  0  0  0  0  0  0  0  0  0  0
   -0.2915    8.0816    1.1303 H   0  0  0  0  0  0  0  0  0  0  0  0
   -1.1604    9.6413    0.8489 H   0  0  0  0  0  0  0  0  0  0  0  0
   -1.9343    8.0289   -0.7514 H   0  0  0  0  0  0  0  0  0  0  0  0
   -0.4950    6.5480   -1.2810 H   0  0  0  0  0  0  0  0  0  0  0  0
   -2.2963   10.5613   -0.5306 H   0  0  0  0  0  0  0  0  0  0  0  0
   -2.0088   11.4835   -2.0450 H   0  0  0  0  0  0  0  0  0  0  0  0
   -3.1372   10.0859   -2.0450 H   0  0  0  0  0  0  0  0  0  0  0  0
   -1.9325    7.9218   -3.1303 H   0  0  0  0  0  0  0  0  0  0  0  0
   -2.0584    9.5392   -3.9015 H   0  0  0  0  0  0  0  0  0  0  0  0
   -0.4898    8.6638   -3.9015 H   0  0  0  0  0  0  0  0  0  0  0  0
    3.6842   10.4827    0.3010 H   0  0  0  0  0  0  0  0  0  0  0  0
    3.1356    9.7714   -1.2545 H   0  0  0  0  0  0  0  0  0  0  0  0
    4.2593   11.1728   -1.2545 H   0  0  0  0  0  0  0  0  0  0  0  0
    1.8514   12.0211    1.3656 H   0  0  0  0  0  0  0  0  0  0  0  0
    3.3960   12.7558    0.6523 H   0  0  0  0  0  0  0  0  0  0  0  0
    0.5784   13.8609    0.4936 H   0  0  0  0  0  0  0  0  0  0  0  0
    2.0132   14.5460    1.3536 H   0  0  0  0  0  0  0  0  0  0  0  0
    3.9685   14.9668    0.3119 H   0  0  0  0  0  0  0  0  0  0  0  0
    4.1394   14.0835   -1.2428 H   0  0  0  0  0  0  0  0  0  0  0  0
    3.9019   15.8640   -1.2428 H   0  0  0  0  0  0  0  0  0  0  0  0
  1  2  1  0
  2  3  1  0
  3  4  1  0
  4  5  1  0
  5  6  1  0
  6  7  1  0
  7  8  1  0
  7  9  1  0
  2 10  1  0
 10 11  1  0
 11 12  1  0
 12 13  1  0
 13 14  1  1
 13 15  1  0
 15 16  1  0
 16 17  1  0
 17 18  2  0
 18 19  1  0
 19 20  1  0
 20 21  1  0
 21 22  1  0
 22 23  1  0
 22 24  1  0
 24 25  1  0
 24 26  1  0
 19 27  1  0
 27 28  1  6
 27 29  1  0
 29 30  1  0
 30 31  1  0
 31 32  1  6
  7  5  1  0
 31 10  1  0
 31 13  1  0
 27 15  1  0
 24 18  1  0
  1 33  1  0
  1 34  1  0
  1 35  1  0
  2 36  1  1
  3 37  1  0
  3 38  1  0
  4 39  1  0
  4 40  1  0
  5 41  1  1
  8 42  1  0
  8 43  1  0
  8 44  1  0
  9 45  1  0
  9 46  1  0
  9 47  1  0
 10 48  1  6
 11 49  1  0
 11 50  1  0
 12 51  1  0
 12 52  1  0
 14 53  1  0
 14 54  1  0
 14 55  1  0
 15 56  1  6
 16 57  1  0
 16 58  1  0
 17 59  1  0
 19 60  1  1
 20 61  1  0
 20 62  1  0
 21 63  1  0
 21 64  1  0
 22 65  1  1
 23 66  1  0
 25 67  1  0
 25 68  1  0
 25 69  1  0
 26 70  1  0
 26 71  1  0
 26 72  1  0
 28 73  1  0
 28 74  1  0
 28 75  1  0
 29 76  1  0
 29 77  1  0
 30 78  1  0
 30 79  1  0
 32 80  1  0
 32 81  1  0
 32 82  1  0
M  END
>  <meeko>  (4) 
{"is_sidechain": [false], "intermolecular_energy": 2.731, "internal_energy": -0.839}

$$$$
EPH_relaxed_0001_pdb2pqr_Repair_255_r2_0001_out
     RDKit          3D

 82 86  0  0  0  0  0  0  0  0999 V2000
    1.6660   17.4910   -0.1000 C   0  0  0  0  0  0  0  0  0  0  0  0
    2.1290   17.2220   -1.5340 C   0  0  2  0  0  0  0  0  0  0  0  0
    1.8030   18.3960   -2.4790 C   0  0  0  0  0  0  0  0  0  0  0  0
    1.0120   19.5230   -1.8100 C   0  0  0  0  0  0  0  0  0  0  0  0
   -0.3970   19.1090   -1.5110 C   0  0  2  0  0  0  0  0  0  0  0  0
   -1.3290   20.1930   -1.4000 O   0  0  0  0  0  0  0  0  0  0  0  0
   -1.1030   19.4270   -0.2060 C   0  0  0  0  0  0  0  0  0  0  0  0
   -0.4190   20.1890    0.8860 C   0  0  0  0  0  0  0  0  0  0  0  0
   -2.2710   18.5830    0.2000 C   0  0  0  0  0  0  0  0  0  0  0  0
    1.4890   15.9410   -2.0560 C   0  0  1  0  0  0  0  0  0  0  0  0
    1.5580   15.8250   -3.6020 C   0  0  0  0  0  0  0  0  0  0  0  0
    1.7440   14.3210   -3.9300 C   0  0  0  0  0  0  0  0  0  0  0  0
    1.4460   13.5920   -2.5990 C   0  0  1  0  0  0  0  0  0  0  0  0
   -0.1110   13.5120   -2.5260 C   0  0  0  0  0  0  0  0  0  0  0  0
    2.1050   12.1860   -2.4180 C   0  0  2  0  0  0  0  0  0  0  0  0
    1.6610   11.1210   -3.4360 C   0  0  0  0  0  0  0  0  0  0  0  0
    0.4770   10.3070   -3.0310 C   0  0  0  0  0  0  0  0  0  0  0  0
   -0.0280   10.2260   -1.7860 C   0  0  0  0  0  0  0  0  0  0  0  0
    0.6630   10.9260   -0.6090 C   0  0  1  0  0  0  0  0  0  0  0  0
    0.7620    9.9460    0.5900 C   0  0  0  0  0  0  0  0  0  0  0  0
   -0.5910    9.3560    0.9760 C   0  0  0  0  0  0  0  0  0  0  0  0
   -1.2200    8.6190   -0.2040 C   0  0  2  0  0  0  0  0  0  0  0  0
   -0.4260    7.4670   -0.5050 O   0  0  0  0  0  0  0  0  0  0  0  0
   -1.3620    9.5030   -1.4740 C   0  0  0  0  0  0  0  0  0  0  0  0
   -2.4540   10.5760   -1.2420 C   0  0  0  0  0  0  0  0  0  0  0  0
   -1.8770    8.6020   -2.6280 C   0  0  0  0  0  0  0  0  0  0  0  0
    2.0500   11.6290   -0.9380 C   0  0  1  0  0  0  0  0  0  0  0  0
    3.2130   10.5990   -0.8060 C   0  0  0  0  0  0  0  0  0  0  0  0
    2.3260   12.7490    0.1330 C   0  0  0  0  0  0  0  0  0  0  0  0
    1.7490   14.1480   -0.1600 C   0  0  0  0  0  0  0  0  0  0  0  0
    2.0980   14.5980   -1.5820 C   0  0  2  0  0  0  0  0  0  0  0  0
    3.6580   14.7090   -1.6790 C   0  0  0  0  0  0  0  0  0  0  0  0
    2.3952   17.0674    0.6063 H   0  0  0  0  0  0  0  0  0  0  0  0
    1.5862   18.5761    0.0621 H   0  0  0  0  0  0  0  0  0  0  0  0
    0.6839   17.0229    0.0621 H   0  0  0  0  0  0  0  0  0  0  0  0
    3.2229   17.1088   -1.5123 H   0  0  0  0  0  0  0  0  0  0  0  0
    2.7492   18.8119   -2.8554 H   0  0  0  0  0  0  0  0  0  0  0  0
    1.1711   17.9942   -3.2848 H   0  0  0  0  0  0  0  0  0  0  0  0
    1.5102   19.7982   -0.8687 H   0  0  0  0  0  0  0  0  0  0  0  0
    0.9790   20.3770   -2.5026 H   0  0  0  0  0  0  0  0  0  0  0  0
   -0.2646   18.1702   -2.0688 H   0  0  0  0  0  0  0  0  0  0  0  0
   -0.7568   19.8127    1.8629 H   0  0  0  0  0  0  0  0  0  0  0  0
    0.6696   20.0572    0.7988 H   0  0  0  0  0  0  0  0  0  0  0  0
   -0.6672   21.2571    0.7988 H   0  0  0  0  0  0  0  0  0  0  0  0
   -2.3291   18.5410    1.2977 H   0  0  0  0  0  0  0  0  0  0  0  0
   -3.1971   19.0219   -0.1997 H   0  0  0  0  0  0  0  0  0  0  0  0
   -2.1450   17.5660   -0.1997 H   0  0  0  0  0  0  0  0  0  0  0  0
    0.4757   16.0607   -1.6451 H   0  0  0  0  0  0  0  0  0  0  0  0
    0.6262   16.1984   -4.0518 H   0  0  0  0  0  0  0  0  0  0  0  0
    2.3881   16.4229   -4.0062 H   0  0  0  0  0  0  0  0  0  0  0  0
    1.0390   14.0041   -4.7127 H   0  0  0  0  0  0  0  0  0  0  0  0
    2.7516   14.0985   -4.3111 H   0  0  0  0  0  0  0  0  0  0  0  0
   -0.4283   13.4957   -1.4729 H   0  0  0  0  0  0  0  0  0  0  0  0
   -0.5471   14.3889   -3.0268 H   0  0  0  0  0  0  0  0  0  0  0  0
   -0.4549   12.5950   -3.0268 H   0  0  0  0  0  0  0  0  0  0  0  0
    3.1621   12.3915   -2.6422 H   0  0  0  0  0  0  0  0  0  0  0  0
    1.4155   11.6328   -4.3783 H   0  0  0  0  0  0  0  0  0  0  0  0
    2.5001   10.4152   -3.5240 H   0  0  0  0  0  0  0  0  0  0  0  0
   -0.0254    9.7238   -3.8168 H   0  0  0  0  0  0  0  0  0  0  0  0
    0.0212   11.7787   -0.3427 H   0  0  0  0  0  0  0  0  0  0  0  0
    1.4407    9.1240    0.3186 H   0  0  0  0  0  0  0  0  0  0  0  0
    1.1383   10.5127    1.4545 H   0  0  0  0  0  0  0  0  0  0  0  0
   -0.4521    8.6507    1.8086 H   0  0  0  0  0  0  0  0  0  0  0  0
   -1.2599   10.1764    1.2753 H   0  0  0  0  0  0  0  0  0  0  0  0
   -2.2395    8.3317    0.0927 H   0  0  0  0  0  0  0  0  0  0  0  0
    0.4670    7.7780   -0.7330 H   0  0  0  0  0  0  0  0  0  0  0  0
   -2.6017   10.7212   -0.1617 H   0  0  0  0  0  0  0  0  0  0  0  0
   -2.1385   11.5252   -1.6998 H   0  0  0  0  0  0  0  0  0  0  0  0
   -3.3975   10.2439   -1.6998 H   0  0  0  0  0  0  0  0  0  0  0  0
   -2.3813    7.7197   -2.2072 H   0  0  0  0  0  0  0  0  0  0  0  0
   -2.5871    9.1696   -3.2474 H   0  0  0  0  0  0  0  0  0  0  0  0
   -1.0276    8.2782   -3.2474 H   0  0  0  0  0  0  0  0  0  0  0  0
    3.4208   10.4150    0.2584 H   0  0  0  0  0  0  0  0  0  0  0  0
    2.9239    9.6553   -1.2916 H   0  0  0  0  0  0  0  0  0  0  0  0
    4.1148   11.0000   -1.2916 H   0  0  0  0  0  0  0  0  0  0  0  0
    1.9016   12.4074    1.0886 H   0  0  0  0  0  0  0  0  0  0  0  0
    3.4179   12.8826    0.1350 H   0  0  0  0  0  0  0  0  0  0  0  0
    0.6549   14.1161   -0.0510 H   0  0  0  0  0  0  0  0  0  0  0  0
    2.1861   14.8639    0.5517 H   0  0  0  0  0  0  0  0  0  0  0  0
    4.0871   14.7395   -0.6666 H   0  0  0  0  0  0  0  0  0  0  0  0
    4.0548   13.8368   -2.2192 H   0  0  0  0  0  0  0  0  0  0  0  0
    3.9273   15.6286   -2.2192 H   0  0  0  0  0  0  0  0  0  0  0  0
  1  2  1  0
  2  3  1  0
  3  4  1  0
  4  5  1  0
  5  6  1  0
  6  7  1  0
  7  8  1  0
  7  9  1  0
  2 10  1  0
 10 11  1  0
 11 12  1  0
 12 13  1  0
 13 14  1  1
 13 15  1  0
 15 16  1  0
 16 17  1  0
 17 18  2  0
 18 19  1  0
 19 20  1  0
 20 21  1  0
 21 22  1  0
 22 23  1  0
 22 24  1  0
 24 25  1  0
 24 26  1  0
 19 27  1  0
 27 28  1  6
 27 29  1  0
 29 30  1  0
 30 31  1  0
 31 32  1  1
  7  5  1  0
 31 10  1  0
 31 13  1  0
 27 15  1  0
 24 18  1  0
  1 33  1  0
  1 34  1  0
  1 35  1  0
  2 36  1  1
  3 37  1  0
  3 38  1  0
  4 39  1  0
  4 40  1  0
  5 41  1  6
  8 42  1  0
  8 43  1  0
  8 44  1  0
  9 45  1  0
  9 46  1  0
  9 47  1  0
 10 48  1  6
 11 49  1  0
 11 50  1  0
 12 51  1  0
 12 52  1  0
 14 53  1  0
 14 54  1  0
 14 55  1  0
 15 56  1  6
 16 57  1  0
 16 58  1  0
 17 59  1  0
 19 60  1  1
 20 61  1  0
 20 62  1  0
 21 63  1  0
 21 64  1  0
 22 65  1  1
 23 66  1  0
 25 67  1  0
 25 68  1  0
 25 69  1  0
 26 70  1  0
 26 71  1  0
 26 72  1  0
 28 73  1  0
 28 74  1  0
 28 75  1  0
 29 76  1  0
 29 77  1  0
 30 78  1  0
 30 79  1  0
 32 80  1  0
 32 81  1  0
 32 82  1  0
M  END
>  <meeko>  (5) 
{"is_sidechain": [false], "intermolecular_energy": 2.731, "internal_energy": -0.839}

$$$$
EPH_relaxed_0001_pdb2pqr_Repair_255_r2_0001_out
     RDKit          3D

 82 86  0  0  0  0  0  0  0  0999 V2000
   -4.3330    7.2260   -3.0860 C   0  0  0  0  0  0  0  0  0  0  0  0
   -4.1420    7.4520   -1.5840 C   0  0  2  0  0  0  0  0  0  0  0  0
   -5.4850    7.4970   -0.8280 C   0  0  0  0  0  0  0  0  0  0  0  0
   -6.5170    6.4910   -1.3460 C   0  0  0  0  0  0  0  0  0  0  0  0
   -7.9190    6.9640   -1.1100 C   0  0  2  0  0  0  0  0  0  0  0  0
   -8.8970    5.9190   -1.0270 O   0  0  0  0  0  0  0  0  0  0  0  0
   -9.0320    6.8270   -2.1330 C   0  0  0  0  0  0  0  0  0  0  0  0
   -8.7900    6.1980   -3.4690 C   0  0  0  0  0  0  0  0  0  0  0  0
  -10.2170    7.7350   -2.0260 C   0  0  0  0  0  0  0  0  0  0  0  0
   -3.3690    8.7440   -1.3470 C   0  0  1  0  0  0  0  0  0  0  0  0
   -3.8580    9.5120   -0.0900 C   0  0  0  0  0  0  0  0  0  0  0  0
   -2.6090   10.1800    0.5400 C   0  0  0  0  0  0  0  0  0  0  0  0
   -1.5120   10.0550   -0.5420 C   0  0  1  0  0  0  0  0  0  0  0  0
   -1.7930   11.2270   -1.5350 C   0  0  0  0  0  0  0  0  0  0  0  0
   -0.0330   10.0720   -0.0330 C   0  0  2  0  0  0  0  0  0  0  0  0
    0.4000   11.3710    0.6680 C   0  0  0  0  0  0  0  0  0  0  0  0
    0.9920   12.4110   -0.2240 C   0  0  0  0  0  0  0  0  0  0  0  0
    1.4300   12.2060   -1.4800 C   0  0  0  0  0  0  0  0  0  0  0  0
    1.4430   10.7990   -2.0900 C   0  0  1  0  0  0  0  0  0  0  0  0
    2.8070   10.5480   -2.7850 C   0  0  0  0  0  0  0  0  0  0  0  0
    3.1520   11.6290   -3.8050 C   0  0  0  0  0  0  0  0  0  0  0  0
    3.1860   13.0070   -3.1490 C   0  0  2  0  0  0  0  0  0  0  0  0
    4.2820   13.0520   -2.2300 O   0  0  0  0  0  0  0  0  0  0  0  0
    1.8680   13.3660   -2.4090 C   0  0  0  0  0  0  0  0  0  0  0  0
    0.7410   13.6130   -3.4420 C   0  0  0  0  0  0  0  0  0  0  0  0
    2.0850   14.7160   -1.6730 C   0  0  0  0  0  0  0  0  0  0  0  0
    1.0290    9.6160   -1.1130 C   0  0  1  0  0  0  0  0  0  0  0  0
    2.2780    9.1150   -0.3250 C   0  0  0  0  0  0  0  0  0  0  0  0
    0.5260    8.3940   -1.9690 C   0  0  0  0  0  0  0  0  0  0  0  0
   -0.9700    8.3740   -2.3390 C   0  0  0  0  0  0  0  0  0  0  0  0
   -1.8430    8.6260   -1.1060 C   0  0  2  0  0  0  0  0  0  0  0  0
   -1.5980    7.4510   -0.0990 C   0  0  0  0  0  0  0  0  0  0  0  0
   -5.0356    6.3947   -3.2453 H   0  0  0  0  0  0  0  0  0  0  0  0
   -4.7363    8.1402   -3.5460 H   0  0  0  0  0  0  0  0  0  0  0  0
   -3.3644    6.9807   -3.5460 H   0  0  0  0  0  0  0  0  0  0  0  0
   -3.5700    6.5983   -1.1915 H   0  0  0  0  0  0  0  0  0  0  0  0
   -5.2933    7.2823    0.2337 H   0  0  0  0  0  0  0  0  0  0  0  0
   -5.9080    8.5004   -0.9835 H   0  0  0  0  0  0  0  0  0  0  0  0
   -6.3657    6.3493   -2.4263 H   0  0  0  0  0  0  0  0  0  0  0  0
   -6.3778    5.5456   -0.8011 H   0  0  0  0  0  0  0  0  0  0  0  0
   -7.5563    7.8221   -0.5251 H   0  0  0  0  0  0  0  0  0  0  0  0
   -8.3982    5.1797   -3.3293 H   0  0  0  0  0  0  0  0  0  0  0  0
   -9.7352    6.1535   -4.0299 H   0  0  0  0  0  0  0  0  0  0  0  0
   -8.0587    6.7985   -4.0299 H   0  0  0  0  0  0  0  0  0  0  0  0
  -10.4484    7.9123   -0.9653 H   0  0  0  0  0  0  0  0  0  0  0  0
   -9.9905    8.6929   -2.5170 H   0  0  0  0  0  0  0  0  0  0  0  0
  -11.0830    7.2671   -2.5170 H   0  0  0  0  0  0  0  0  0  0  0  0
   -3.5612    9.2510   -2.3041 H   0  0  0  0  0  0  0  0  0  0  0  0
   -4.5934   10.2782   -0.3765 H   0  0  0  0  0  0  0  0  0  0  0  0
   -4.3445    8.8314    0.6242 H   0  0  0  0  0  0  0  0  0  0  0  0
   -2.8085   11.2369    0.7703 H   0  0  0  0  0  0  0  0  0  0  0  0
   -2.3157    9.7054    1.4880 H   0  0  0  0  0  0  0  0  0  0  0  0
   -2.0127   12.1435   -0.9677 H   0  0  0  0  0  0  0  0  0  0  0  0
   -0.9087   11.3909   -2.1684 H   0  0  0  0  0  0  0  0  0  0  0  0
   -2.6555   10.9721   -2.1684 H   0  0  0  0  0  0  0  0  0  0  0  0
   -0.0434    9.2993    0.7498 H   0  0  0  0  0  0  0  0  0  0  0  0
   -0.4853   11.8054    1.1554 H   0  0  0  0  0  0  0  0  0  0  0  0
    1.1956   11.0858    1.3720 H   0  0  0  0  0  0  0  0  0  0  0  0
    1.0775   13.4309    0.1791 H   0  0  0  0  0  0  0  0  0  0  0  0
    0.6356   10.7841   -2.8369 H   0  0  0  0  0  0  0  0  0  0  0  0
    3.5945   10.5233   -2.0174 H   0  0  0  0  0  0  0  0  0  0  0  0
    2.7362    9.5914   -3.3235 H   0  0  0  0  0  0  0  0  0  0  0  0
    4.1393   11.4125   -4.2391 H   0  0  0  0  0  0  0  0  0  0  0  0
    2.3797   11.6320   -4.5883 H   0  0  0  0  0  0  0  0  0  0  0  0
    3.3078   13.7512   -3.9498 H   0  0  0  0  0  0  0  0  0  0  0  0
    3.9730   12.6830   -1.3850 H   0  0  0  0  0  0  0  0  0  0  0  0
   -0.2016   13.8196   -2.9139 H   0  0  0  0  0  0  0  0  0  0  0  0
    1.0043   14.4748   -4.0729 H   0  0  0  0  0  0  0  0  0  0  0  0
    0.6198   12.7201   -4.0729 H   0  0  0  0  0  0  0  0  0  0  0  0
    2.0582   14.5494   -0.5860 H   0  0  0  0  0  0  0  0  0  0  0  0
    3.0620   15.1349   -1.9558 H   0  0  0  0  0  0  0  0  0  0  0  0
    1.2885   15.4200   -1.9558 H   0  0  0  0  0  0  0  0  0  0  0  0
    2.0853    9.1923    0.7552 H   0  0  0  0  0  0  0  0  0  0  0  0
    2.4805    8.0661   -0.5872 H   0  0  0  0  0  0  0  0  0  0  0  0
    3.1492    9.7332   -0.5872 H   0  0  0  0  0  0  0  0  0  0  0  0
    1.1009    8.3854   -2.9067 H   0  0  0  0  0  0  0  0  0  0  0  0
    0.6760    7.5125   -1.3284 H   0  0  0  0  0  0  0  0  0  0  0  0
   -1.1666    9.1577   -3.0854 H   0  0  0  0  0  0  0  0  0  0  0  0
   -1.2172    7.3829   -2.7472 H   0  0  0  0  0  0  0  0  0  0  0  0
   -1.6767    7.8286    0.9312 H   0  0  0  0  0  0  0  0  0  0  0  0
   -2.3519    6.6664   -0.2606 H   0  0  0  0  0  0  0  0  0  0  0  0
   -0.5934    7.0331   -0.2606 H   0  0  0  0  0  0  0  0  0  0  0  0
  1  2  1  0
  2  3  1  0
  3  4  1  0
  4  5  1  0
  5  6  1  0
  6  7  1  0
  7  8  1  0
  7  9  1  0
  2 10  1  0
 10 11  1  0
 11 12  1  0
 12 13  1  0
 13 14  1  6
 13 15  1  0
 15 16  1  0
 16 17  1  0
 17 18  2  0
 18 19  1  0
 19 20  1  0
 20 21  1  0
 21 22  1  0
 22 23  1  0
 22 24  1  0
 24 25  1  0
 24 26  1  0
 19 27  1  0
 27 28  1  1
 27 29  1  0
 29 30  1  0
 30 31  1  0
 31 32  1  1
  7  5  1  0
 31 10  1  0
 31 13  1  0
 27 15  1  0
 24 18  1  0
  1 33  1  0
  1 34  1  0
  1 35  1  0
  2 36  1  1
  3 37  1  0
  3 38  1  0
  4 39  1  0
  4 40  1  0
  5 41  1  1
  8 42  1  0
  8 43  1  0
  8 44  1  0
  9 45  1  0
  9 46  1  0
  9 47  1  0
 10 48  1  6
 11 49  1  0
 11 50  1  0
 12 51  1  0
 12 52  1  0
 14 53  1  0
 14 54  1  0
 14 55  1  0
 15 56  1  1
 16 57  1  0
 16 58  1  0
 17 59  1  0
 19 60  1  6
 20 61  1  0
 20 62  1  0
 21 63  1  0
 21 64  1  0
 22 65  1  6
 23 66  1  0
 25 67  1  0
 25 68  1  0
 25 69  1  0
 26 70  1  0
 26 71  1  0
 26 72  1  0
 28 73  1  0
 28 74  1  0
 28 75  1  0
 29 76  1  0
 29 77  1  0
 30 78  1  0
 30 79  1  0
 32 80  1  0
 32 81  1  0
 32 82  1  0
M  END
>  <meeko>  (6) 
{"is_sidechain": [false], "intermolecular_energy": 2.731, "internal_energy": -0.839}

$$$$
EPH_relaxed_0001_pdb2pqr_Repair_255_r2_0001_out
     RDKit          3D

 82 86  0  0  0  0  0  0  0  0999 V2000
    2.5750   17.7410   -3.7320 C   0  0  0  0  0  0  0  0  0  0  0  0
    1.6250   17.2430   -2.6390 C   0  0  2  0  0  0  0  0  0  0  0  0
    2.2830   17.2580   -1.2450 C   0  0  0  0  0  0  0  0  0  0  0  0
    3.3700   18.3250   -1.0900 C   0  0  0  0  0  0  0  0  0  0  0  0
    4.1870   18.1080    0.1480 C   0  0  2  0  0  0  0  0  0  0  0  0
    3.4380   17.6750    1.2910 O   0  0  0  0  0  0  0  0  0  0  0  0
    4.0620   18.9650    1.3940 C   0  0  0  0  0  0  0  0  0  0  0  0
    3.0950   20.1050    1.4630 C   0  0  0  0  0  0  0  0  0  0  0  0
    5.2110   19.0050    2.3530 C   0  0  0  0  0  0  0  0  0  0  0  0
    1.1420   15.8360   -2.9720 C   0  0  1  0  0  0  0  0  0  0  0  0
    1.3900   15.4550   -4.4560 C   0  0  0  0  0  0  0  0  0  0  0  0
    1.7220   13.9410   -4.4800 C   0  0  0  0  0  0  0  0  0  0  0  0
    1.3330   13.4340   -3.0720 C   0  0  1  0  0  0  0  0  0  0  0  0
   -0.2130   13.2250   -3.1340 C   0  0  0  0  0  0  0  0  0  0  0  0
    2.0690   12.1490   -2.5710 C   0  0  2  0  0  0  0  0  0  0  0  0
    1.8200   10.8850   -3.4110 C   0  0  0  0  0  0  0  0  0  0  0  0
    0.6610   10.0490   -2.9770 C   0  0  0  0  0  0  0  0  0  0  0  0
    0.0290   10.1440   -1.7930 C   0  0  0  0  0  0  0  0  0  0  0  0
    0.5320   11.1020   -0.7060 C   0  0  1  0  0  0  0  0  0  0  0  0
    0.5690   10.3630    0.6580 C   0  0  0  0  0  0  0  0  0  0  0  0
   -0.7710    9.7280    1.0160 C   0  0  0  0  0  0  0  0  0  0  0  0
   -1.2100    8.7390   -0.0610 C   0  0  2  0  0  0  0  0  0  0  0  0
   -0.3040    7.6310   -0.0660 O   0  0  0  0  0  0  0  0  0  0  0  0
   -1.2740    9.3680   -1.4810 C   0  0  0  0  0  0  0  0  0  0  0  0
   -2.4610   10.3590   -1.5580 C   0  0  0  0  0  0  0  0  0  0  0  0
   -1.5910    8.2330   -2.4920 C   0  0  0  0  0  0  0  0  0  0  0  0
    1.8920   11.8610   -1.0250 C   0  0  1  0  0  0  0  0  0  0  0  0
    3.1060   10.9820   -0.5940 C   0  0  0  0  0  0  0  0  0  0  0  0
    1.9630   13.1740   -0.1590 C   0  0  0  0  0  0  0  0  0  0  0  0
    1.3220   14.4390   -0.7610 C   0  0  0  0  0  0  0  0  0  0  0  0
    1.7930   14.6600   -2.2010 C   0  0  2  0  0  0  0  0  0  0  0  0
    3.3410   14.8960   -2.1680 C   0  0  0  0  0  0  0  0  0  0  0  0
    3.4580   18.2039   -3.2673 H   0  0  0  0  0  0  0  0  0  0  0  0
    2.8917   16.8929   -4.3569 H   0  0  0  0  0  0  0  0  0  0  0  0
    2.0577   18.4839   -4.3569 H   0  0  0  0  0  0  0  0  0  0  0  0
    0.7686   17.9326   -2.6063 H   0  0  0  0  0  0  0  0  0  0  0  0
    1.5017   17.4463   -0.4940 H   0  0  0  0  0  0  0  0  0  0  0  0
    2.7693   16.2809   -1.1081 H   0  0  0  0  0  0  0  0  0  0  0  0
    4.0338   18.2877   -1.9663 H   0  0  0  0  0  0  0  0  0  0  0  0
    2.8788   19.3059   -1.0093 H   0  0  0  0  0  0  0  0  0  0  0  0
    5.0564   17.7999   -0.4513 H   0  0  0  0  0  0  0  0  0  0  0  0
    2.8890   20.3479    2.5159 H   0  0  0  0  0  0  0  0  0  0  0  0
    3.5275   20.9835    0.9619 H   0  0  0  0  0  0  0  0  0  0  0  0
    2.1577   19.8216    0.9619 H   0  0  0  0  0  0  0  0  0  0  0  0
    4.8285   18.9917    3.3843 H   0  0  0  0  0  0  0  0  0  0  0  0
    5.8556   18.1287    2.1897 H   0  0  0  0  0  0  0  0  0  0  0  0
    5.7931   19.9240    2.1897 H   0  0  0  0  0  0  0  0  0  0  0  0
    0.0835   15.9321   -2.6885 H   0  0  0  0  0  0  0  0  0  0  0  0
    0.4886   15.6546   -5.0540 H   0  0  0  0  0  0  0  0  0  0  0  0
    2.2132   16.0465   -4.8832 H   0  0  0  0  0  0  0  0  0  0  0  0
    1.1337   13.4267   -5.2542 H   0  0  0  0  0  0  0  0  0  0  0  0
    2.7794   13.7495   -4.7149 H   0  0  0  0  0  0  0  0  0  0  0  0
   -0.6169   13.1704   -2.1123 H   0  0  0  0  0  0  0  0  0  0  0  0
   -0.6760   14.0687   -3.6667 H   0  0  0  0  0  0  0  0  0  0  0  0
   -0.4353   12.2886   -3.6667 H   0  0  0  0  0  0  0  0  0  0  0  0
    3.1267   12.4074   -2.7276 H   0  0  0  0  0  0  0  0  0  0  0  0
    1.6434   11.1972   -4.4509 H   0  0  0  0  0  0  0  0  0  0  0  0
    2.7133   10.2554   -3.2858 H   0  0  0  0  0  0  0  0  0  0  0  0
    0.2931    9.2918   -3.6850 H   0  0  0  0  0  0  0  0  0  0  0  0
   -0.1962   11.9254   -0.6659 H   0  0  0  0  0  0  0  0  0  0  0  0
    1.3322    9.5723    0.6100 H   0  0  0  0  0  0  0  0  0  0  0  0
    0.8041   11.1063    1.4341 H   0  0  0  0  0  0  0  0  0  0  0  0
   -0.6734    9.1970    1.9744 H   0  0  0  0  0  0  0  0  0  0  0  0
   -1.5274   10.5230    1.0927 H   0  0  0  0  0  0  0  0  0  0  0  0
   -2.2322    8.4155    0.1849 H   0  0  0  0  0  0  0  0  0  0  0  0
    0.4850    7.8940    0.4360 H   0  0  0  0  0  0  0  0  0  0  0  0
   -2.7817   10.6268   -0.5404 H   0  0  0  0  0  0  0  0  0  0  0  0
   -2.1467   11.2666   -2.0941 H   0  0  0  0  0  0  0  0  0  0  0  0
   -3.2979    9.8877   -2.0941 H   0  0  0  0  0  0  0  0  0  0  0  0
   -1.8475    7.3146   -1.9436 H   0  0  0  0  0  0  0  0  0  0  0  0
   -2.4401    8.5318   -3.1243 H   0  0  0  0  0  0  0  0  0  0  0  0
   -0.7100    8.0486   -3.1243 H   0  0  0  0  0  0  0  0  0  0  0  0
    3.1593   10.9434    0.5040 H   0  0  0  0  0  0  0  0  0  0  0  0
    2.9808    9.9638   -0.9910 H   0  0  0  0  0  0  0  0  0  0  0  0
    4.0342   11.4188   -0.9910 H   0  0  0  0  0  0  0  0  0  0  0  0
    1.4601   12.9692    0.7976 H   0  0  0  0  0  0  0  0  0  0  0  0
    3.0350   13.4063   -0.0760 H   0  0  0  0  0  0  0  0  0  0  0  0
    0.2278   14.3263   -0.7536 H   0  0  0  0  0  0  0  0  0  0  0  0
    1.6238   15.3068   -0.1562 H   0  0  0  0  0  0  0  0  0  0  0  0
    3.6818   14.9480   -1.1234 H   0  0  0  0  0  0  0  0  0  0  0  0
    3.8496   14.0650   -2.6787 H   0  0  0  0  0  0  0  0  0  0  0  0
    3.5788   15.8408   -2.6787 H   0  0  0  0  0  0  0  0  0  0  0  0
  1  2  1  0
  2  3  1  0
  3  4  1  0
  4  5  1  0
  5  6  1  0
  6  7  1  0
  7  8  1  0
  7  9  1  0
  2 10  1  0
 10 11  1  0
 11 12  1  0
 12 13  1  0
 13 14  1  6
 13 15  1  0
 15 16  1  0
 16 17  1  0
 17 18  2  0
 18 19  1  0
 19 20  1  0
 20 21  1  0
 21 22  1  0
 22 23  1  0
 22 24  1  0
 24 25  1  0
 24 26  1  0
 19 27  1  0
 27 28  1  1
 27 29  1  0
 29 30  1  0
 30 31  1  0
 31 32  1  1
  7  5  1  0
 31 10  1  0
 31 13  1  0
 27 15  1  0
 24 18  1  0
  1 33  1  0
  1 34  1  0
  1 35  1  0
  2 36  1  1
  3 37  1  0
  3 38  1  0
  4 39  1  0
  4 40  1  0
  5 41  1  6
  8 42  1  0
  8 43  1  0
  8 44  1  0
  9 45  1  0
  9 46  1  0
  9 47  1  0
 10 48  1  6
 11 49  1  0
 11 50  1  0
 12 51  1  0
 12 52  1  0
 14 53  1  0
 14 54  1  0
 14 55  1  0
 15 56  1  1
 16 57  1  0
 16 58  1  0
 17 59  1  0
 19 60  1  1
 20 61  1  0
 20 62  1  0
 21 63  1  0
 21 64  1  0
 22 65  1  1
 23 66  1  0
 25 67  1  0
 25 68  1  0
 25 69  1  0
 26 70  1  0
 26 71  1  0
 26 72  1  0
 28 73  1  0
 28 74  1  0
 28 75  1  0
 29 76  1  0
 29 77  1  0
 30 78  1  0
 30 79  1  0
 32 80  1  0
 32 81  1  0
 32 82  1  0
M  END
>  <meeko>  (7) 
{"is_sidechain": [false], "intermolecular_energy": 2.731, "internal_energy": -0.839}

$$$$
EPH_relaxed_0001_pdb2pqr_Repair_255_r2_0001_out
     RDKit          3D

 82 86  0  0  0  0  0  0  0  0999 V2000
    1.2400   14.4170   -2.6930 C   0  0  0  0  0  0  0  0  0  0  0  0
    1.3580   13.7830   -4.0820 C   0  0  2  0  0  0  0  0  0  0  0  0
    0.6240   14.6060   -5.1600 C   0  0  0  0  0  0  0  0  0  0  0  0
    1.2290   14.4660   -6.5590 C   0  0  0  0  0  0  0  0  0  0  0  0
    0.9480   15.6690   -7.4080 C   0  0  2  0  0  0  0  0  0  0  0  0
    0.3500   15.3790   -8.6780 O   0  0  0  0  0  0  0  0  0  0  0  0
    1.6650   15.9580   -8.7140 C   0  0  0  0  0  0  0  0  0  0  0  0
    2.7200   15.0390   -9.2440 C   0  0  0  0  0  0  0  0  0  0  0  0
    1.6900   17.3670   -9.2200 C   0  0  0  0  0  0  0  0  0  0  0  0
    0.8130   12.3600   -4.0520 C   0  0  1  0  0  0  0  0  0  0  0  0
    1.8740   11.3060   -4.4640 C   0  0  0  0  0  0  0  0  0  0  0  0
    1.6000   10.0390   -3.6140 C   0  0  0  0  0  0  0  0  0  0  0  0
    0.2050   10.2820   -2.9900 C   0  0  1  0  0  0  0  0  0  0  0  0
   -0.8090    9.9010   -4.1140 C   0  0  0  0  0  0  0  0  0  0  0  0
   -0.0970    9.5230   -1.6570 C   0  0  2  0  0  0  0  0  0  0  0  0
   -0.0940    7.9880   -1.7660 C   0  0  0  0  0  0  0  0  0  0  0  0
   -1.4140    7.3690   -2.0900 C   0  0  0  0  0  0  0  0  0  0  0  0
   -2.6080    7.9840   -2.0070 C   0  0  0  0  0  0  0  0  0  0  0  0
   -2.7220    9.4120   -1.4560 C   0  0  1  0  0  0  0  0  0  0  0  0
   -3.8900    9.4820   -0.4380 C   0  0  0  0  0  0  0  0  0  0  0  0
   -5.2050    8.9740   -1.0200 C   0  0  0  0  0  0  0  0  0  0  0  0
   -5.0680    7.5330   -1.5030 C   0  0  2  0  0  0  0  0  0  0  0  0
   -4.8530    6.6850   -0.3700 O   0  0  0  0  0  0  0  0  0  0  0  0
   -3.9150    7.3370   -2.5270 C   0  0  0  0  0  0  0  0  0  0  0  0
   -4.2910    8.0130   -3.8690 C   0  0  0  0  0  0  0  0  0  0  0  0
   -3.7940    5.8190   -2.8250 C   0  0  0  0  0  0  0  0  0  0  0  0
   -1.3790   10.0460   -0.8900 C   0  0  1  0  0  0  0  0  0  0  0  0
   -1.1940    9.6510    0.6070 C   0  0  0  0  0  0  0  0  0  0  0  0
   -1.4980   11.6150   -0.9240 C   0  0  0  0  0  0  0  0  0  0  0  0
   -1.0700   12.3170   -2.2280 C   0  0  0  0  0  0  0  0  0  0  0  0
    0.3030   11.8220   -2.6910 C   0  0  2  0  0  0  0  0  0  0  0  0
    1.3480   12.2120   -1.5910 C   0  0  0  0  0  0  0  0  0  0  0  0
    1.3839   13.6440   -1.9237 H   0  0  0  0  0  0  0  0  0  0  0  0
    2.0087   15.1955   -2.5788 H   0  0  0  0  0  0  0  0  0  0  0  0
    0.2427   14.8668   -2.5788 H   0  0  0  0  0  0  0  0  0  0  0  0
    2.4250   13.7666   -4.3488 H   0  0  0  0  0  0  0  0  0  0  0  0
   -0.4231   14.2713   -5.1994 H   0  0  0  0  0  0  0  0  0  0  0  0
    0.7159   15.6643   -4.8745 H   0  0  0  0  0  0  0  0  0  0  0  0
    2.3180   14.3422   -6.4656 H   0  0  0  0  0  0  0  0  0  0  0  0
    0.7726   13.5903   -7.0437 H   0  0  0  0  0  0  0  0  0  0  0  0
    0.7644   16.2850   -6.5153 H   0  0  0  0  0  0  0  0  0  0  0  0
    3.2556   14.5725   -8.4040 H   0  0  0  0  0  0  0  0  0  0  0  0
    2.2501   14.2572   -9.8588 H   0  0  0  0  0  0  0  0  0  0  0  0
    3.4300   15.6117   -9.8588 H   0  0  0  0  0  0  0  0  0  0  0  0
    1.7023   18.0625   -8.3678 H   0  0  0  0  0  0  0  0  0  0  0  0
    2.5910   17.5209   -9.8320 H   0  0  0  0  0  0  0  0  0  0  0  0
    0.7950   17.5528   -9.8320 H   0  0  0  0  0  0  0  0  0  0  0  0
   -0.0283   12.4697   -4.7521 H   0  0  0  0  0  0  0  0  0  0  0  0
    1.7792   11.0716   -5.5346 H   0  0  0  0  0  0  0  0  0  0  0  0
    2.8928   11.6836   -4.2926 H   0  0  0  0  0  0  0  0  0  0  0  0
    1.5905    9.1404   -4.2483 H   0  0  0  0  0  0  0  0  0  0  0  0
    2.3750    9.8726   -2.8513 H   0  0  0  0  0  0  0  0  0  0  0  0
   -1.7462    9.5489   -3.6584 H   0  0  0  0  0  0  0  0  0  0  0  0
   -1.0136   10.7836   -4.7379 H   0  0  0  0  0  0  0  0  0  0  0  0
   -0.3818    9.1021   -4.7379 H   0  0  0  0  0  0  0  0  0  0  0  0
    0.7735    9.7801   -1.0356 H   0  0  0  0  0  0  0  0  0  0  0  0
    0.6173    7.7047   -2.5558 H   0  0  0  0  0  0  0  0  0  0  0  0
    0.1818    7.6126   -0.7695 H   0  0  0  0  0  0  0  0  0  0  0  0
   -1.4098    6.3213   -2.4250 H   0  0  0  0  0  0  0  0  0  0  0  0
   -2.9419   10.0555   -2.3206 H   0  0  0  0  0  0  0  0  0  0  0  0
   -3.6317    8.8684    0.4376 H   0  0  0  0  0  0  0  0  0  0  0  0
   -4.0318   10.5381   -0.1650 H   0  0  0  0  0  0  0  0  0  0  0  0
   -5.9837    9.0211   -0.2445 H   0  0  0  0  0  0  0  0  0  0  0  0
   -5.4768    9.6070   -1.8776 H   0  0  0  0  0  0  0  0  0  0  0  0
   -6.0000    7.2706   -2.0250 H   0  0  0  0  0  0  0  0  0  0  0  0
   -4.5320    7.2430    0.3580 H   0  0  0  0  0  0  0  0  0  0  0  0
   -4.8168    8.9582   -3.6688 H   0  0  0  0  0  0  0  0  0  0  0  0
   -3.3767    8.2170   -4.4456 H   0  0  0  0  0  0  0  0  0  0  0  0
   -4.9465    7.3438   -4.4456 H   0  0  0  0  0  0  0  0  0  0  0  0
   -3.7496    5.2618   -1.8776 H   0  0  0  0  0  0  0  0  0  0  0  0
   -4.6686    5.4882   -3.4043 H   0  0  0  0  0  0  0  0  0  0  0  0
   -2.8780    5.6309   -3.4043 H   0  0  0  0  0  0  0  0  0  0  0  0
   -1.5728   10.4598    1.2491 H   0  0  0  0  0  0  0  0  0  0  0  0
   -1.7527    8.7263    0.8140 H   0  0  0  0  0  0  0  0  0  0  0  0
   -0.1260    9.4882    0.8140 H   0  0  0  0  0  0  0  0  0  0  0  0
   -2.5510   11.8729   -0.7375 H   0  0  0  0  0  0  0  0  0  0  0  0
   -0.7929   11.9735   -0.1596 H   0  0  0  0  0  0  0  0  0  0  0  0
   -1.8122   12.1045   -3.0115 H   0  0  0  0  0  0  0  0  0  0  0  0
   -1.0080   13.3991   -2.0401 H   0  0  0  0  0  0  0  0  0  0  0  0
    0.9103   12.0487   -0.5951 H   0  0  0  0  0  0  0  0  0  0  0  0
    2.2478   11.5891   -1.7027 H   0  0  0  0  0  0  0  0  0  0  0  0
    1.6197   13.2720   -1.7027 H   0  0  0  0  0  0  0  0  0  0  0  0
  1  2  1  0
  2  3  1  0
  3  4  1  0
  4  5  1  0
  5  6  1  0
  6  7  1  0
  7  8  1  0
  7  9  1  0
  2 10  1  0
 10 11  1  0
 11 12  1  0
 12 13  1  0
 13 14  1  6
 13 15  1  0
 15 16  1  0
 16 17  1  0
 17 18  2  0
 18 19  1  0
 19 20  1  0
 20 21  1  0
 21 22  1  0
 22 23  1  0
 22 24  1  0
 24 25  1  0
 24 26  1  0
 19 27  1  0
 27 28  1  1
 27 29  1  0
 29 30  1  0
 30 31  1  0
 31 32  1  1
  7  5  1  0
 31 10  1  0
 31 13  1  0
 27 15  1  0
 24 18  1  0
  1 33  1  0
  1 34  1  0
  1 35  1  0
  2 36  1  6
  3 37  1  0
  3 38  1  0
  4 39  1  0
  4 40  1  0
  5 41  1  1
  8 42  1  0
  8 43  1  0
  8 44  1  0
  9 45  1  0
  9 46  1  0
  9 47  1  0
 10 48  1  6
 11 49  1  0
 11 50  1  0
 12 51  1  0
 12 52  1  0
 14 53  1  0
 14 54  1  0
 14 55  1  0
 15 56  1  1
 16 57  1  0
 16 58  1  0
 17 59  1  0
 19 60  1  6
 20 61  1  0
 20 62  1  0
 21 63  1  0
 21 64  1  0
 22 65  1  6
 23 66  1  0
 25 67  1  0
 25 68  1  0
 25 69  1  0
 26 70  1  0
 26 71  1  0
 26 72  1  0
 28 73  1  0
 28 74  1  0
 28 75  1  0
 29 76  1  0
 29 77  1  0
 30 78  1  0
 30 79  1  0
 32 80  1  0
 32 81  1  0
 32 82  1  0
M  END
>  <meeko>  (8) 
{"is_sidechain": [false], "intermolecular_energy": 2.731, "internal_energy": -0.839}

$$$$
EPH_relaxed_0001_pdb2pqr_Repair_255_r2_0001_out
     RDKit          3D

 82 86  0  0  0  0  0  0  0  0999 V2000
    0.9720   14.3810   -4.6650 C   0  0  0  0  0  0  0  0  0  0  0  0
    0.9520   13.6820   -3.3030 C   0  0  2  0  0  0  0  0  0  0  0  0
    2.3380   13.6850   -2.6280 C   0  0  0  0  0  0  0  0  0  0  0  0
    2.3740   14.4440   -1.2990 C   0  0  0  0  0  0  0  0  0  0  0  0
    1.4970   15.6590   -1.3310 C   0  0  2  0  0  0  0  0  0  0  0  0
    1.9770   16.7220   -2.1660 O   0  0  0  0  0  0  0  0  0  0  0  0
    1.9090   17.0030   -0.7590 C   0  0  0  0  0  0  0  0  0  0  0  0
    3.2440   17.2000   -0.1120 C   0  0  0  0  0  0  0  0  0  0  0  0
    0.8380   17.9820   -0.3910 C   0  0  0  0  0  0  0  0  0  0  0  0
    0.4530   12.2500   -3.4610 C   0  0  1  0  0  0  0  0  0  0  0  0
    1.5800   11.2660   -3.8730 C   0  0  0  0  0  0  0  0  0  0  0  0
    1.2710    9.9160   -3.1780 C   0  0  0  0  0  0  0  0  0  0  0  0
   -0.1810   10.0640   -2.6660 C   0  0  1  0  0  0  0  0  0  0  0  0
   -1.0770    9.7720   -3.9100 C   0  0  0  0  0  0  0  0  0  0  0  0
   -0.5780    9.1690   -1.4460 C   0  0  2  0  0  0  0  0  0  0  0  0
   -0.5160    7.6530   -1.7010 C   0  0  0  0  0  0  0  0  0  0  0  0
   -1.7800    7.0390   -2.2050 C   0  0  0  0  0  0  0  0  0  0  0  0
   -2.9960    7.6150   -2.1750 C   0  0  0  0  0  0  0  0  0  0  0  0
   -3.2050    8.9780   -1.5020 C   0  0  1  0  0  0  0  0  0  0  0  0
   -4.4620    8.9200   -0.5940 C   0  0  0  0  0  0  0  0  0  0  0  0
   -5.7030    8.4420   -1.3420 C   0  0  0  0  0  0  0  0  0  0  0  0
   -5.4750    7.0590   -1.9470 C   0  0  2  0  0  0  0  0  0  0  0  0
   -5.3370    6.1090   -0.8870 O   0  0  0  0  0  0  0  0  0  0  0  0
   -4.2300    6.9930   -2.8740 C   0  0  0  0  0  0  0  0  0  0  0  0
   -4.5050    7.7890   -4.1740 C   0  0  0  0  0  0  0  0  0  0  0  0
   -4.0330    5.5140   -3.3050 C   0  0  0  0  0  0  0  0  0  0  0  0
   -1.9400    9.5840   -0.7550 C   0  0  1  0  0  0  0  0  0  0  0  0
   -1.8780    9.0470    0.7080 C   0  0  0  0  0  0  0  0  0  0  0  0
   -2.1060   11.1460   -0.6480 C   0  0  0  0  0  0  0  0  0  0  0  0
   -1.5850   11.9830   -1.8320 C   0  0  0  0  0  0  0  0  0  0  0  0
   -0.1600   11.5690   -2.2120 C   0  0  2  0  0  0  0  0  0  0  0  0
    0.7680   11.8710   -0.9860 C   0  0  0  0  0  0  0  0  0  0  0  0
    1.0032   15.4706   -4.5175 H   0  0  0  0  0  0  0  0  0  0  0  0
    1.8614   14.0616   -5.2280 H   0  0  0  0  0  0  0  0  0  0  0  0
    0.0658   14.1130   -5.2280 H   0  0  0  0  0  0  0  0  0  0  0  0
    0.2668   14.2452   -2.6523 H   0  0  0  0  0  0  0  0  0  0  0  0
    2.6352   12.6426   -2.4407 H   0  0  0  0  0  0  0  0  0  0  0  0
    3.0273   14.2018   -3.3119 H   0  0  0  0  0  0  0  0  0  0  0  0
    2.0278   13.7754   -0.4971 H   0  0  0  0  0  0  0  0  0  0  0  0
    3.4084   14.7722   -1.1193 H   0  0  0  0  0  0  0  0  0  0  0  0
    0.5968   15.0423   -1.1921 H   0  0  0  0  0  0  0  0  0  0  0  0
    3.1275   17.1828    0.9817 H   0  0  0  0  0  0  0  0  0  0  0  0
    3.9240   16.3925   -0.4211 H   0  0  0  0  0  0  0  0  0  0  0  0
    3.6618   18.1695   -0.4211 H   0  0  0  0  0  0  0  0  0  0  0  0
    0.7638   18.0498    0.7044 H   0  0  0  0  0  0  0  0  0  0  0  0
    1.0876   18.9707   -0.8035 H   0  0  0  0  0  0  0  0  0  0  0  0
   -0.1244   17.6449   -0.8035 H   0  0  0  0  0  0  0  0  0  0  0  0
   -0.3245   12.4090   -4.2227 H   0  0  0  0  0  0  0  0  0  0  0  0
    1.5891   11.1364   -4.9653 H   0  0  0  0  0  0  0  0  0  0  0  0
    2.5670   11.6479   -3.5729 H   0  0  0  0  0  0  0  0  0  0  0  0
    1.3475    9.0843   -3.8938 H   0  0  0  0  0  0  0  0  0  0  0  0
    1.9789    9.6932   -2.3661 H   0  0  0  0  0  0  0  0  0  0  0  0
   -2.0735    9.4472   -3.5760 H   0  0  0  0  0  0  0  0  0  0  0  0
   -1.1728   10.6854   -4.5154 H   0  0  0  0  0  0  0  0  0  0  0  0
   -0.6162    8.9775   -4.5154 H   0  0  0  0  0  0  0  0  0  0  0  0
    0.2246    9.3829   -0.7248 H   0  0  0  0  0  0  0  0  0  0  0  0
    0.2730    7.4653   -2.4442 H   0  0  0  0  0  0  0  0  0  0  0  0
   -0.3202    7.1877   -0.7237 H   0  0  0  0  0  0  0  0  0  0  0  0
   -1.7117    6.0300   -2.6377 H   0  0  0  0  0  0  0  0  0  0  0  0
   -3.3666    9.6981   -2.3177 H   0  0  0  0  0  0  0  0  0  0  0  0
   -4.2640    8.2287    0.2384 H   0  0  0  0  0  0  0  0  0  0  0  0
   -4.6614    9.9403   -0.2345 H   0  0  0  0  0  0  0  0  0  0  0  0
   -6.5496    8.3935   -0.6413 H   0  0  0  0  0  0  0  0  0  0  0  0
   -5.9179    9.1506   -2.1555 H   0  0  0  0  0  0  0  0  0  0  0  0
   -6.3466    6.8271   -2.5768 H   0  0  0  0  0  0  0  0  0  0  0  0
   -4.4500    5.7180   -0.9560 H   0  0  0  0  0  0  0  0  0  0  0  0
   -4.8543    8.8001   -3.9179 H   0  0  0  0  0  0  0  0  0  0  0  0
   -3.5791    7.8594   -4.7637 H   0  0  0  0  0  0  0  0  0  0  0  0
   -5.2769    7.2728   -4.7637 H   0  0  0  0  0  0  0  0  0  0  0  0
   -3.9485    4.8795   -2.4104 H   0  0  0  0  0  0  0  0  0  0  0  0
   -4.8958    5.1889   -3.9049 H   0  0  0  0  0  0  0  0  0  0  0  0
   -3.1152    5.4260   -3.9049 H   0  0  0  0  0  0  0  0  0  0  0  0
   -1.9750    9.8871    1.4114 H   0  0  0  0  0  0  0  0  0  0  0  0
   -2.6999    8.3345    0.8722 H   0  0  0  0  0  0  0  0  0  0  0  0
   -0.9154    8.5406    0.8722 H   0  0  0  0  0  0  0  0  0  0  0  0
   -3.1793   11.3597   -0.5363 H   0  0  0  0  0  0  0  0  0  0  0  0
   -1.4849   11.4432    0.2098 H   0  0  0  0  0  0  0  0  0  0  0  0
   -2.2464   11.8320   -2.6979 H   0  0  0  0  0  0  0  0  0  0  0  0
   -1.5748   13.0421   -1.5349 H   0  0  0  0  0  0  0  0  0  0  0  0
    0.2136   11.6906   -0.0532 H   0  0  0  0  0  0  0  0  0  0  0  0
    1.6489   11.2132   -1.0221 H   0  0  0  0  0  0  0  0  0  0  0  0
    1.0930   12.9213   -1.0221 H   0  0  0  0  0  0  0  0  0  0  0  0
  1  2  1  0
  2  3  1  0
  3  4  1  0
  4  5  1  0
  5  6  1  0
  6  7  1  0
  7  8  1  0
  7  9  1  0
  2 10  1  0
 10 11  1  0
 11 12  1  0
 12 13  1  0
 13 14  1  6
 13 15  1  0
 15 16  1  0
 16 17  1  0
 17 18  2  0
 18 19  1  0
 19 20  1  0
 20 21  1  0
 21 22  1  0
 22 23  1  0
 22 24  1  0
 24 25  1  0
 24 26  1  0
 19 27  1  0
 27 28  1  1
 27 29  1  0
 29 30  1  0
 30 31  1  0
 31 32  1  1
  7  5  1  0
 31 10  1  0
 31 13  1  0
 27 15  1  0
 24 18  1  0
  1 33  1  0
  1 34  1  0
  1 35  1  0
  2 36  1  1
  3 37  1  0
  3 38  1  0
  4 39  1  0
  4 40  1  0
  5 41  1  6
  8 42  1  0
  8 43  1  0
  8 44  1  0
  9 45  1  0
  9 46  1  0
  9 47  1  0
 10 48  1  6
 11 49  1  0
 11 50  1  0
 12 51  1  0
 12 52  1  0
 14 53  1  0
 14 54  1  0
 14 55  1  0
 15 56  1  1
 16 57  1  0
 16 58  1  0
 17 59  1  0
 19 60  1  6
 20 61  1  0
 20 62  1  0
 21 63  1  0
 21 64  1  0
 22 65  1  6
 23 66  1  0
 25 67  1  0
 25 68  1  0
 25 69  1  0
 26 70  1  0
 26 71  1  0
 26 72  1  0
 28 73  1  0
 28 74  1  0
 28 75  1  0
 29 76  1  0
 29 77  1  0
 30 78  1  0
 30 79  1  0
 32 80  1  0
 32 81  1  0
 32 82  1  0
M  END
>  <meeko>  (9) 
{"is_sidechain": [false], "intermolecular_energy": 2.731, "internal_energy": -0.839}

$$$$
EPH_relaxed_0001_pdb2pqr_Repair_255_r2_0001_out
     RDKit          3D

 82 86  0  0  0  0  0  0  0  0999 V2000
   -0.6270   16.1690   -6.0110 C   0  0  0  0  0  0  0  0  0  0  0  0
    0.6480   15.5270   -6.5660 C   0  0  2  0  0  0  0  0  0  0  0  0
    0.6450   15.4690   -8.1070 C   0  0  0  0  0  0  0  0  0  0  0  0
    1.7560   16.2980   -8.7560 C   0  0  0  0  0  0  0  0  0  0  0  0
    1.6850   16.2460  -10.2520 C   0  0  2  0  0  0  0  0  0  0  0  0
    1.0860   15.0560  -10.7820 O   0  0  0  0  0  0  0  0  0  0  0  0
    2.4740   15.2610  -11.0940 C   0  0  0  0  0  0  0  0  0  0  0  0
    3.3920   14.2590  -10.4670 C   0  0  0  0  0  0  0  0  0  0  0  0
    2.7260   15.5890  -12.5320 C   0  0  0  0  0  0  0  0  0  0  0  0
    0.8160   14.1250   -5.9920 C   0  0  1  0  0  0  0  0  0  0  0  0
    1.8980   13.3000   -6.7380 C   0  0  0  0  0  0  0  0  0  0  0  0
    2.5910   12.4070   -5.6760 C   0  0  0  0  0  0  0  0  0  0  0  0
    1.6760   12.4990   -4.4330 C   0  0  1  0  0  0  0  0  0  0  0  0
    0.5190   11.4880   -4.7110 C   0  0  0  0  0  0  0  0  0  0  0  0
    2.3570   12.2290   -3.0520 C   0  0  2  0  0  0  0  0  0  0  0  0
    2.9410   10.8160   -2.8770 C   0  0  0  0  0  0  0  0  0  0  0  0
    2.0060    9.8080   -2.2950 C   0  0  0  0  0  0  0  0  0  0  0  0
    0.8490   10.0850   -1.6670 C   0  0  0  0  0  0  0  0  0  0  0  0
    0.4240   11.5360   -1.4020 C   0  0  1  0  0  0  0  0  0  0  0  0
   -0.0610   11.6740    0.0650 C   0  0  0  0  0  0  0  0  0  0  0  0
   -1.1570   10.6720    0.4160 C   0  0  0  0  0  0  0  0  0  0  0  0
   -0.6770    9.2400    0.1950 C   0  0  2  0  0  0  0  0  0  0  0  0
    0.3580    8.9500    1.1400 O   0  0  0  0  0  0  0  0  0  0  0  0
   -0.1550    8.9830   -1.2460 C   0  0  0  0  0  0  0  0  0  0  0  0
   -1.3420    9.0020   -2.2400 C   0  0  0  0  0  0  0  0  0  0  0  0
    0.4290    7.5450   -1.2940 C   0  0  0  0  0  0  0  0  0  0  0  0
    1.4820   12.6520   -1.8030 C   0  0  1  0  0  0  0  0  0  0  0  0
    2.4740   12.8930   -0.6250 C   0  0  0  0  0  0  0  0  0  0  0  0
    0.7280   14.0150   -2.0350 C   0  0  0  0  0  0  0  0  0  0  0  0
    0.1810   14.2740   -3.4520 C   0  0  0  0  0  0  0  0  0  0  0  0
    1.2570   14.0120   -4.5110 C   0  0  2  0  0  0  0  0  0  0  0  0
    2.4240   15.0290   -4.2700 C   0  0  0  0  0  0  0  0  0  0  0  0
   -0.5966   16.1537   -4.9115 H   0  0  0  0  0  0  0  0  0  0  0  0
   -0.6961   17.2094   -6.3614 H   0  0  0  0  0  0  0  0  0  0  0  0
   -1.5040   15.6050   -6.3614 H   0  0  0  0  0  0  0  0  0  0  0  0
    1.4963   16.1575   -6.2611 H   0  0  0  0  0  0  0  0  0  0  0  0
    0.7689   14.4204   -8.4153 H   0  0  0  0  0  0  0  0  0  0  0  0
   -0.3120   15.8949   -8.4429 H   0  0  0  0  0  0  0  0  0  0  0  0
    1.6566   17.3441   -8.4306 H   0  0  0  0  0  0  0  0  0  0  0  0
    2.7237   15.8782   -8.4440 H   0  0  0  0  0  0  0  0  0  0  0  0
    1.5718   17.3387  -10.3077 H   0  0  0  0  0  0  0  0  0  0  0  0
    3.3234   14.3339   -9.3717 H   0  0  0  0  0  0  0  0  0  0  0  0
    3.1014   13.2466  -10.7842 H   0  0  0  0  0  0  0  0  0  0  0  0
    4.4259   14.4600  -10.7842 H   0  0  0  0  0  0  0  0  0  0  0  0
    3.3950   16.4597  -12.5977 H   0  0  0  0  0  0  0  0  0  0  0  0
    3.1964   14.7270  -13.0277 H   0  0  0  0  0  0  0  0  0  0  0  0
    1.7719   15.8214  -13.0277 H   0  0  0  0  0  0  0  0  0  0  0  0
   -0.2127   13.7530   -6.1083 H   0  0  0  0  0  0  0  0  0  0  0  0
    1.4302   12.6741   -7.5122 H   0  0  0  0  0  0  0  0  0  0  0  0
    2.6249   13.9595   -7.2346 H   0  0  0  0  0  0  0  0  0  0  0  0
    2.6628   11.3678   -6.0294 H   0  0  0  0  0  0  0  0  0  0  0  0
    3.6193   12.7340   -5.4625 H   0  0  0  0  0  0  0  0  0  0  0  0
    0.1083   11.1291   -3.7558 H   0  0  0  0  0  0  0  0  0  0  0  0
   -0.2742   11.9877   -5.2865 H   0  0  0  0  0  0  0  0  0  0  0  0
    0.9078   10.6350   -5.2865 H   0  0  0  0  0  0  0  0  0  0  0  0
    3.2219   12.9081   -3.0797 H   0  0  0  0  0  0  0  0  0  0  0  0
    3.2583   10.4543   -3.8662 H   0  0  0  0  0  0  0  0  0  0  0  0
    3.7681   10.9150   -2.1585 H   0  0  0  0  0  0  0  0  0  0  0  0
    2.2871    8.7486   -2.3876 H   0  0  0  0  0  0  0  0  0  0  0  0
   -0.4092   11.7398   -2.0907 H   0  0  0  0  0  0  0  0  0  0  0  0
    0.7949   11.5098    0.7362 H   0  0  0  0  0  0  0  0  0  0  0  0
   -0.4812   12.6836    0.1840 H   0  0  0  0  0  0  0  0  0  0  0  0
   -1.4364   10.7992    1.4723 H   0  0  0  0  0  0  0  0  0  0  0  0
   -2.0238   10.8566   -0.2356 H   0  0  0  0  0  0  0  0  0  0  0  0
   -1.5430    8.5768    0.3371 H   0  0  0  0  0  0  0  0  0  0  0  0
    1.0080    9.6710    1.0960 H   0  0  0  0  0  0  0  0  0  0  0  0
   -2.2888    9.0172   -1.6802 H   0  0  0  0  0  0  0  0  0  0  0  0
   -1.2759    9.8992   -2.8730 H   0  0  0  0  0  0  0  0  0  0  0  0
   -1.3046    8.1031   -2.8730 H   0  0  0  0  0  0  0  0  0  0  0  0
    0.5790    7.1757   -0.2687 H   0  0  0  0  0  0  0  0  0  0  0  0
   -0.2713    6.8823   -1.8236 H   0  0  0  0  0  0  0  0  0  0  0  0
    1.3930    7.5582   -1.8236 H   0  0  0  0  0  0  0  0  0  0  0  0
    1.9457   12.7647    0.3313 H   0  0  0  0  0  0  0  0  0  0  0  0
    3.3002   12.1694   -0.6875 H   0  0  0  0  0  0  0  0  0  0  0  0
    2.8761   13.9150   -0.6875 H   0  0  0  0  0  0  0  0  0  0  0  0
   -0.1230   14.0472   -1.3388 H   0  0  0  0  0  0  0  0  0  0  0  0
    1.4865   14.7948   -1.8723 H   0  0  0  0  0  0  0  0  0  0  0  0
   -0.6743   13.6070   -3.6352 H   0  0  0  0  0  0  0  0  0  0  0  0
   -0.1304   15.3267   -3.5210 H   0  0  0  0  0  0  0  0  0  0  0  0
    2.5769   15.1622   -3.1888 H   0  0  0  0  0  0  0  0  0  0  0  0
    3.3474   14.6423   -4.7260 H   0  0  0  0  0  0  0  0  0  0  0  0
    2.1672   15.9965   -4.7260 H   0  0  0  0  0  0  0  0  0  0  0  0
  1  2  1  0
  2  3  1  0
  3  4  1  0
  4  5  1  0
  5  6  1  0
  6  7  1  0
  7  8  1  0
  7  9  1  0
  2 10  1  0
 10 11  1  0
 11 12  1  0
 12 13  1  0
 13 14  1  6
 13 15  1  0
 15 16  1  0
 16 17  1  0
 17 18  2  0
 18 19  1  0
 19 20  1  0
 20 21  1  0
 21 22  1  0
 22 23  1  0
 22 24  1  0
 24 25  1  0
 24 26  1  0
 19 27  1  0
 27 28  1  1
 27 29  1  0
 29 30  1  0
 30 31  1  0
 31 32  1  1
  7  5  1  0
 31 10  1  0
 31 13  1  0
 27 15  1  0
 24 18  1  0
  1 33  1  0
  1 34  1  0
  1 35  1  0
  2 36  1  6
  3 37  1  0
  3 38  1  0
  4 39  1  0
  4 40  1  0
  5 41  1  6
  8 42  1  0
  8 43  1  0
  8 44  1  0
  9 45  1  0
  9 46  1  0
  9 47  1  0
 10 48  1  1
 11 49  1  0
 11 50  1  0
 12 51  1  0
 12 52  1  0
 14 53  1  0
 14 54  1  0
 14 55  1  0
 15 56  1  6
 16 57  1  0
 16 58  1  0
 17 59  1  0
 19 60  1  6
 20 61  1  0
 20 62  1  0
 21 63  1  0
 21 64  1  0
 22 65  1  1
 23 66  1  0
 25 67  1  0
 25 68  1  0
 25 69  1  0
 26 70  1  0
 26 71  1  0
 26 72  1  0
 28 73  1  0
 28 74  1  0
 28 75  1  0
 29 76  1  0
 29 77  1  0
 30 78  1  0
 30 79  1  0
 32 80  1  0
 32 81  1  0
 32 82  1  0
M  END
>  <meeko>  (10) 
{"is_sidechain": [false], "intermolecular_energy": 2.731, "internal_energy": -0.839}

$$$$
EPH_relaxed_0001_pdb2pqr_Repair_255_r2_0001_out
     RDKit          3D

 82 86  0  0  0  0  0  0  0  0999 V2000
   -2.5310    7.4690   -0.3870 C   0  0  0  0  0  0  0  0  0  0  0  0
   -3.0820    8.8900   -0.2400 C   0  0  2  0  0  0  0  0  0  0  0  0
   -4.5830    8.9690   -0.5830 C   0  0  0  0  0  0  0  0  0  0  0  0
   -5.2780    7.6050   -0.6220 C   0  0  0  0  0  0  0  0  0  0  0  0
   -6.0320    7.4030   -1.9010 C   0  0  2  0  0  0  0  0  0  0  0  0
   -6.9670    8.4420   -2.2160 O   0  0  0  0  0  0  0  0  0  0  0  0
   -7.5250    7.1430   -1.9610 C   0  0  0  0  0  0  0  0  0  0  0  0
   -8.3550    7.0700   -0.7170 C   0  0  0  0  0  0  0  0  0  0  0  0
   -8.0880    6.4790   -3.1790 C   0  0  0  0  0  0  0  0  0  0  0  0
   -2.2950    9.8480   -1.1260 C   0  0  1  0  0  0  0  0  0  0  0  0
   -2.9220   11.2660   -1.1780 C   0  0  0  0  0  0  0  0  0  0  0  0
   -1.7470   12.2720   -1.2790 C   0  0  0  0  0  0  0  0  0  0  0  0
   -0.5140   11.3990   -1.6150 C   0  0  1  0  0  0  0  0  0  0  0  0
   -0.6030   11.1550   -3.1540 C   0  0  0  0  0  0  0  0  0  0  0  0
    0.8770   11.9800   -1.2010 C   0  0  2  0  0  0  0  0  0  0  0  0
    1.2630   13.3010   -1.8900 C   0  0  0  0  0  0  0  0  0  0  0  0
    2.0180   13.1560   -3.1690 C   0  0  0  0  0  0  0  0  0  0  0  0
    2.6190   12.0310   -3.6000 C   0  0  0  0  0  0  0  0  0  0  0  0
    2.6570   10.7730   -2.7220 C   0  0  1  0  0  0  0  0  0  0  0  0
    4.0930   10.1870   -2.7200 C   0  0  0  0  0  0  0  0  0  0  0  0
    4.6240    9.9320   -4.1280 C   0  0  0  0  0  0  0  0  0  0  0  0
    4.6250   11.2180   -4.9500 C   0  0  2  0  0  0  0  0  0  0  0  0
    5.5820   12.1230   -4.3910 O   0  0  0  0  0  0  0  0  0  0  0  0
    3.2320   11.9050   -5.0160 C   0  0  0  0  0  0  0  0  0  0  0  0
    2.2730   11.0550   -5.8860 C   0  0  0  0  0  0  0  0  0  0  0  0
    3.4020   13.2600   -5.7540 C   0  0  0  0  0  0  0  0  0  0  0  0
    2.0600   10.9310   -1.2580 C   0  0  1  0  0  0  0  0  0  0  0  0
    3.1640   11.4520   -0.2870 C   0  0  0  0  0  0  0  0  0  0  0  0
    1.6300    9.5140   -0.7220 C   0  0  0  0  0  0  0  0  0  0  0  0
    0.2020    9.0470   -1.0630 C   0  0  0  0  0  0  0  0  0  0  0  0
   -0.8240   10.1360   -0.7320 C   0  0  2  0  0  0  0  0  0  0  0  0
   -0.7740   10.3870    0.8130 C   0  0  0  0  0  0  0  0  0  0  0  0
   -2.3631    7.0359    0.6101 H   0  0  0  0  0  0  0  0  0  0  0  0
   -3.2544    6.8504   -0.9384 H   0  0  0  0  0  0  0  0  0  0  0  0
   -1.5797    7.4998   -0.9384 H   0  0  0  0  0  0  0  0  0  0  0  0
   -2.9680    9.1808    0.8147 H   0  0  0  0  0  0  0  0  0  0  0  0
   -5.0804    9.5907    0.1760 H   0  0  0  0  0  0  0  0  0  0  0  0
   -4.6599    9.3980   -1.5930 H   0  0  0  0  0  0  0  0  0  0  0  0
   -4.5183    6.8151   -0.5276 H   0  0  0  0  0  0  0  0  0  0  0  0
   -5.9966    7.5626    0.2098 H   0  0  0  0  0  0  0  0  0  0  0  0
   -5.1740    6.8819   -2.3507 H   0  0  0  0  0  0  0  0  0  0  0  0
   -7.6999    7.1276    0.1648 H   0  0  0  0  0  0  0  0  0  0  0  0
   -9.0661    7.9091   -0.7009 H   0  0  0  0  0  0  0  0  0  0  0  0
   -8.9088    6.1197   -0.7009 H   0  0  0  0  0  0  0  0  0  0  0  0
   -8.7715    5.6728   -2.8742 H   0  0  0  0  0  0  0  0  0  0  0  0
   -8.6381    7.2190   -3.7788 H   0  0  0  0  0  0  0  0  0  0  0  0
   -7.2680    6.0573   -3.7788 H   0  0  0  0  0  0  0  0  0  0  0  0
   -2.3287    9.2911   -2.0740 H   0  0  0  0  0  0  0  0  0  0  0  0
   -3.5764   11.3586   -2.0573 H   0  0  0  0  0  0  0  0  0  0  0  0
   -3.5324   11.4606   -0.2838 H   0  0  0  0  0  0  0  0  0  0  0  0
   -1.9319   13.0064   -2.0768 H   0  0  0  0  0  0  0  0  0  0  0  0
   -1.6102   12.8483   -0.3521 H   0  0  0  0  0  0  0  0  0  0  0  0
   -0.9743   10.1370   -3.3430 H   0  0  0  0  0  0  0  0  0  0  0  0
   -1.2925   11.8858   -3.6018 H   0  0  0  0  0  0  0  0  0  0  0  0
    0.3951   11.2703   -3.6018 H   0  0  0  0  0  0  0  0  0  0  0  0
    0.7230   12.2298   -0.1409 H   0  0  0  0  0  0  0  0  0  0  0  0
    0.3377   13.8565   -2.1026 H   0  0  0  0  0  0  0  0  0  0  0  0
    1.9389   13.8206   -1.1949 H   0  0  0  0  0  0  0  0  0  0  0  0
    2.0896   14.0438   -3.8145 H   0  0  0  0  0  0  0  0  0  0  0  0
    1.9623   10.0571   -3.1855 H   0  0  0  0  0  0  0  0  0  0  0  0
    4.7630   10.8977   -2.2140 H   0  0  0  0  0  0  0  0  0  0  0  0
    4.0579    9.2201   -2.1966 H   0  0  0  0  0  0  0  0  0  0  0  0
    5.6520    9.5464   -4.0610 H   0  0  0  0  0  0  0  0  0  0  0  0
    3.9705    9.1986   -4.6230 H   0  0  0  0  0  0  0  0  0  0  0  0
    4.8904   10.9480   -5.9828 H   0  0  0  0  0  0  0  0  0  0  0  0
    6.4670   11.7890   -4.6130 H   0  0  0  0  0  0  0  0  0  0  0  0
    1.6100   10.4674   -5.2339 H   0  0  0  0  0  0  0  0  0  0  0  0
    1.6682   11.7191   -6.5210 H   0  0  0  0  0  0  0  0  0  0  0  0
    2.8597   10.3748   -6.5210 H   0  0  0  0  0  0  0  0  0  0  0  0
    3.5035   14.0693   -5.0159 H   0  0  0  0  0  0  0  0  0  0  0  0
    4.3026   13.2236   -6.3845 H   0  0  0  0  0  0  0  0  0  0  0  0
    2.5203   13.4473   -6.3845 H   0  0  0  0  0  0  0  0  0  0  0  0
    2.8397   11.2989    0.7529 H   0  0  0  0  0  0  0  0  0  0  0  0
    4.0987   10.9000   -0.4646 H   0  0  0  0  0  0  0  0  0  0  0  0
    3.3321   12.5245   -0.4646 H   0  0  0  0  0  0  0  0  0  0  0  0
    2.3302    8.7744   -1.1375 H   0  0  0  0  0  0  0  0  0  0  0  0
    1.6501    9.6024    0.3743 H   0  0  0  0  0  0  0  0  0  0  0  0
    0.1461    8.8141   -2.1366 H   0  0  0  0  0  0  0  0  0  0  0  0
   -0.0280    8.1540   -0.4633 H   0  0  0  0  0  0  0  0  0  0  0  0
   -0.9622    9.4423    1.3442 H   0  0  0  0  0  0  0  0  0  0  0  0
    0.2185   10.7720    1.0900 H   0  0  0  0  0  0  0  0  0  0  0  0
   -1.5432   11.1230    1.0900 H   0  0  0  0  0  0  0  0  0  0  0  0
  1  2  1  0
  2  3  1  0
  3  4  1  0
  4  5  1  0
  5  6  1  0
  6  7  1  0
  7  8  1  0
  7  9  1  0
  2 10  1  0
 10 11  1  0
 11 12  1  0
 12 13  1  0
 13 14  1  6
 13 15  1  0
 15 16  1  0
 16 17  1  0
 17 18  2  0
 18 19  1  0
 19 20  1  0
 20 21  1  0
 21 22  1  0
 22 23  1  0
 22 24  1  0
 24 25  1  0
 24 26  1  0
 19 27  1  0
 27 28  1  1
 27 29  1  0
 29 30  1  0
 30 31  1  0
 31 32  1  1
  7  5  1  0
 31 10  1  0
 31 13  1  0
 27 15  1  0
 24 18  1  0
  1 33  1  0
  1 34  1  0
  1 35  1  0
  2 36  1  1
  3 37  1  0
  3 38  1  0
  4 39  1  0
  4 40  1  0
  5 41  1  6
  8 42  1  0
  8 43  1  0
  8 44  1  0
  9 45  1  0
  9 46  1  0
  9 47  1  0
 10 48  1  6
 11 49  1  0
 11 50  1  0
 12 51  1  0
 12 52  1  0
 14 53  1  0
 14 54  1  0
 14 55  1  0
 15 56  1  1
 16 57  1  0
 16 58  1  0
 17 59  1  0
 19 60  1  6
 20 61  1  0
 20 62  1  0
 21 63  1  0
 21 64  1  0
 22 65  1  6
 23 66  1  0
 25 67  1  0
 25 68  1  0
 25 69  1  0
 26 70  1  0
 26 71  1  0
 26 72  1  0
 28 73  1  0
 28 74  1  0
 28 75  1  0
 29 76  1  0
 29 77  1  0
 30 78  1  0
 30 79  1  0
 32 80  1  0
 32 81  1  0
 32 82  1  0
M  END
>  <meeko>  (11) 
{"is_sidechain": [false], "intermolecular_energy": 2.731, "internal_energy": -0.839}

$$$$
EPH_relaxed_0001_pdb2pqr_Repair_255_r2_0001_out
     RDKit          3D

 82 86  0  0  0  0  0  0  0  0999 V2000
  -14.9070    9.1510    0.5710 C   0  0  0  0  0  0  0  0  0  0  0  0
  -13.9890    9.2630   -0.6490 C   0  0  2  0  0  0  0  0  0  0  0  0
  -14.3800    8.2710   -1.7620 C   0  0  0  0  0  0  0  0  0  0  0  0
  -14.5250    8.9190   -3.1420 C   0  0  0  0  0  0  0  0  0  0  0  0
  -15.2580   10.2240   -3.0660 C   0  0  2  0  0  0  0  0  0  0  0  0
  -15.2000   11.0140   -4.2620 O   0  0  0  0  0  0  0  0  0  0  0  0
  -14.5680   11.5750   -3.1000 C   0  0  0  0  0  0  0  0  0  0  0  0
  -13.0800   11.6880   -3.2110 C   0  0  0  0  0  0  0  0  0  0  0  0
  -15.2870   12.7600   -2.5350 C   0  0  0  0  0  0  0  0  0  0  0  0
  -12.5410    9.0350   -0.2320 C   0  0  1  0  0  0  0  0  0  0  0  0
  -12.3800    8.8730    1.3030 C   0  0  0  0  0  0  0  0  0  0  0  0
  -11.2400    7.8460    1.5270 C   0  0  0  0  0  0  0  0  0  0  0  0
  -10.5650    7.7040    0.1420 C   0  0  1  0  0  0  0  0  0  0  0  0
   -9.6080    8.9330    0.0340 C   0  0  0  0  0  0  0  0  0  0  0  0
   -9.8120    6.3610   -0.1250 C   0  0  2  0  0  0  0  0  0  0  0  0
   -8.6190    6.0850    0.8060 C   0  0  0  0  0  0  0  0  0  0  0  0
   -7.3010    6.5940    0.3220 C   0  0  0  0  0  0  0  0  0  0  0  0
   -7.0310    6.9920   -0.9350 C   0  0  0  0  0  0  0  0  0  0  0  0
   -8.0800    6.8600   -2.0470 C   0  0  1  0  0  0  0  0  0  0  0  0
   -7.4210    6.2460   -3.3100 C   0  0  0  0  0  0  0  0  0  0  0  0
   -6.1880    7.0220   -3.7620 C   0  0  0  0  0  0  0  0  0  0  0  0
   -5.1440    7.0820   -2.6500 C   0  0  2  0  0  0  0  0  0  0  0  0
   -4.6430    5.7620   -2.4160 O   0  0  0  0  0  0  0  0  0  0  0  0
   -5.6950    7.6740   -1.3230 C   0  0  0  0  0  0  0  0  0  0  0  0
   -5.9570    9.1900   -1.4990 C   0  0  0  0  0  0  0  0  0  0  0  0
   -4.5850    7.5470   -0.2450 C   0  0  0  0  0  0  0  0  0  0  0  0
   -9.4290    6.1230   -1.6420 C   0  0  1  0  0  0  0  0  0  0  0  0
   -9.2690    4.5830   -1.8250 C   0  0  0  0  0  0  0  0  0  0  0  0
  -10.5740    6.5700   -2.6260 C   0  0  0  0  0  0  0  0  0  0  0  0
  -11.3610    7.8390   -2.2450 C   0  0  0  0  0  0  0  0  0  0  0  0
  -11.8300    7.7760   -0.7890 C   0  0  2  0  0  0  0  0  0  0  0  0
  -12.8130    6.5630   -0.6550 C   0  0  0  0  0  0  0  0  0  0  0  0
  -14.3065    9.2243    1.4897 H   0  0  0  0  0  0  0  0  0  0  0  0
  -15.6458    9.9657    0.5500 H   0  0  0  0  0  0  0  0  0  0  0  0
  -15.4283    8.1826    0.5500 H   0  0  0  0  0  0  0  0  0  0  0  0
  -14.1024   10.2781   -1.0573 H   0  0  0  0  0  0  0  0  0  0  0  0
  -13.6036    7.4941   -1.8231 H   0  0  0  0  0  0  0  0  0  0  0  0
  -15.3649    7.8604   -1.4949 H   0  0  0  0  0  0  0  0  0  0  0  0
  -13.5230    9.0965   -3.5598 H   0  0  0  0  0  0  0  0  0  0  0  0
  -15.1034    8.2370   -3.7826 H   0  0  0  0  0  0  0  0  0  0  0  0
  -16.0022    9.7928   -2.3803 H   0  0  0  0  0  0  0  0  0  0  0  0
  -12.6387   11.7215   -2.2040 H   0  0  0  0  0  0  0  0  0  0  0  0
  -12.6857   10.8172   -3.7553 H   0  0  0  0  0  0  0  0  0  0  0  0
  -12.8218   12.6083   -3.7553 H   0  0  0  0  0  0  0  0  0  0  0  0
  -15.2601   12.7156   -1.4362 H   0  0  0  0  0  0  0  0  0  0  0  0
  -14.7968   13.6835   -2.8768 H   0  0  0  0  0  0  0  0  0  0  0  0
  -16.3325   12.7517   -2.8768 H   0  0  0  0  0  0  0  0  0  0  0  0
  -12.0829    9.9422   -0.6529 H   0  0  0  0  0  0  0  0  0  0  0  0
  -12.1158    9.8380    1.7602 H   0  0  0  0  0  0  0  0  0  0  0  0
  -13.3175    8.5295    1.7645 H   0  0  0  0  0  0  0  0  0  0  0  0
  -10.5222    8.2190    2.2724 H   0  0  0  0  0  0  0  0  0  0  0  0
  -11.6137    6.8847    1.9095 H   0  0  0  0  0  0  0  0  0  0  0  0
   -9.3392    9.2782    1.0432 H   0  0  0  0  0  0  0  0  0  0  0  0
   -8.6967    8.6415   -0.5087 H   0  0  0  0  0  0  0  0  0  0  0  0
  -10.1139    9.7451   -0.5087 H   0  0  0  0  0  0  0  0  0  0  0  0
  -10.5723    5.6094    0.1339 H   0  0  0  0  0  0  0  0  0  0  0  0
   -8.8296    6.5565    1.7772 H   0  0  0  0  0  0  0  0  0  0  0  0
   -8.5215    4.9906    0.8595 H   0  0  0  0  0  0  0  0  0  0  0  0
   -6.4821    6.6482    1.0544 H   0  0  0  0  0  0  0  0  0  0  0  0
   -8.4234    7.8819   -2.2654 H   0  0  0  0  0  0  0  0  0  0  0  0
   -7.1235    5.2112   -3.0849 H   0  0  0  0  0  0  0  0  0  0  0  0
   -8.1587    6.2868   -4.1250 H   0  0  0  0  0  0  0  0  0  0  0  0
   -5.7508    6.5238   -4.6399 H   0  0  0  0  0  0  0  0  0  0  0  0
   -6.4919    8.0486   -4.0144 H   0  0  0  0  0  0  0  0  0  0  0  0
   -4.3434    7.7573   -2.9860 H   0  0  0  0  0  0  0  0  0  0  0  0
   -4.0280    5.5480   -3.1390 H   0  0  0  0  0  0  0  0  0  0  0  0
   -6.0391    9.6651   -0.5103 H   0  0  0  0  0  0  0  0  0  0  0  0
   -5.1240    9.6438   -2.0559 H   0  0  0  0  0  0  0  0  0  0  0  0
   -6.8940    9.3379   -2.0559 H   0  0  0  0  0  0  0  0  0  0  0  0
   -5.0383    7.5989    0.7559 H   0  0  0  0  0  0  0  0  0  0  0  0
   -4.0672    6.5838   -0.3636 H   0  0  0  0  0  0  0  0  0  0  0  0
   -3.8630    8.3684   -0.3636 H   0  0  0  0  0  0  0  0  0  0  0  0
   -9.2188    4.0997   -0.8381 H   0  0  0  0  0  0  0  0  0  0  0  0
  -10.1310    4.1885   -2.3830 H   0  0  0  0  0  0  0  0  0  0  0  0
   -8.3443    4.3742   -2.3830 H   0  0  0  0  0  0  0  0  0  0  0  0
  -10.1168    6.7451   -3.6111 H   0  0  0  0  0  0  0  0  0  0  0  0
  -11.3118    5.7545   -2.5988 H   0  0  0  0  0  0  0  0  0  0  0  0
  -10.7125    8.7177   -2.3765 H   0  0  0  0  0  0  0  0  0  0  0  0
  -12.2450    7.9122   -2.8955 H   0  0  0  0  0  0  0  0  0  0  0  0
  -12.9872    6.3481    0.4096 H   0  0  0  0  0  0  0  0  0  0  0  0
  -13.7687    6.8102   -1.1403 H   0  0  0  0  0  0  0  0  0  0  0  0
  -12.3731    5.6792   -1.1403 H   0  0  0  0  0  0  0  0  0  0  0  0
  1  2  1  0
  2  3  1  0
  3  4  1  0
  4  5  1  0
  5  6  1  0
  6  7  1  0
  7  8  1  0
  7  9  1  0
  2 10  1  0
 10 11  1  0
 11 12  1  0
 12 13  1  0
 13 14  1  6
 13 15  1  0
 15 16  1  0
 16 17  1  0
 17 18  2  0
 18 19  1  0
 19 20  1  0
 20 21  1  0
 21 22  1  0
 22 23  1  0
 22 24  1  0
 24 25  1  0
 24 26  1  0
 19 27  1  0
 27 28  1  1
 27 29  1  0
 29 30  1  0
 30 31  1  0
 31 32  1  6
  7  5  1  0
 31 10  1  0
 31 13  1  0
 27 15  1  0
 24 18  1  0
  1 33  1  0
  1 34  1  0
  1 35  1  0
  2 36  1  6
  3 37  1  0
  3 38  1  0
  4 39  1  0
  4 40  1  0
  5 41  1  1
  8 42  1  0
  8 43  1  0
  8 44  1  0
  9 45  1  0
  9 46  1  0
  9 47  1  0
 10 48  1  6
 11 49  1  0
 11 50  1  0
 12 51  1  0
 12 52  1  0
 14 53  1  0
 14 54  1  0
 14 55  1  0
 15 56  1  1
 16 57  1  0
 16 58  1  0
 17 59  1  0
 19 60  1  6
 20 61  1  0
 20 62  1  0
 21 63  1  0
 21 64  1  0
 22 65  1  6
 23 66  1  0
 25 67  1  0
 25 68  1  0
 25 69  1  0
 26 70  1  0
 26 71  1  0
 26 72  1  0
 28 73  1  0
 28 74  1  0
 28 75  1  0
 29 76  1  0
 29 77  1  0
 30 78  1  0
 30 79  1  0
 32 80  1  0
 32 81  1  0
 32 82  1  0
M  END
>  <meeko>  (12) 
{"is_sidechain": [false], "intermolecular_energy": 2.731, "internal_energy": -0.839}

$$$$
EPH_relaxed_0001_pdb2pqr_Repair_255_r2_0001_out
     RDKit          3D

 82 86  0  0  0  0  0  0  0  0999 V2000
  -11.5540    8.7560   -2.6660 C   0  0  0  0  0  0  0  0  0  0  0  0
  -11.2190    7.5440   -1.7920 C   0  0  2  0  0  0  0  0  0  0  0  0
  -12.3170    7.2610   -0.7470 C   0  0  0  0  0  0  0  0  0  0  0  0
  -13.7080    7.7420   -1.1700 C   0  0  0  0  0  0  0  0  0  0  0  0
  -13.9140    9.1920   -0.8490 C   0  0  2  0  0  0  0  0  0  0  0  0
  -15.2850    9.5790   -0.6860 O   0  0  0  0  0  0  0  0  0  0  0  0
  -14.5860   10.1700   -1.7940 C   0  0  0  0  0  0  0  0  0  0  0  0
  -15.0940    9.7380   -3.1340 C   0  0  0  0  0  0  0  0  0  0  0  0
  -14.3130   11.6320   -1.6240 C   0  0  0  0  0  0  0  0  0  0  0  0
   -9.8800    7.7600   -1.0960 C   0  0  1  0  0  0  0  0  0  0  0  0
   -9.9400    7.4480    0.4230 C   0  0  0  0  0  0  0  0  0  0  0  0
   -8.5660    6.8430    0.8100 C   0  0  0  0  0  0  0  0  0  0  0  0
   -7.6570    7.1310   -0.4070 C   0  0  1  0  0  0  0  0  0  0  0  0
   -7.1980    8.6110   -0.2240 C   0  0  0  0  0  0  0  0  0  0  0  0
   -6.4390    6.1690   -0.6030 C   0  0  2  0  0  0  0  0  0  0  0  0
   -5.4070    6.1830    0.5370 C   0  0  0  0  0  0  0  0  0  0  0  0
   -4.2950    7.1670    0.3800 C   0  0  0  0  0  0  0  0  0  0  0  0
   -3.9710    7.8050   -0.7600 C   0  0  0  0  0  0  0  0  0  0  0  0
   -4.6950    7.4850   -2.0750 C   0  0  1  0  0  0  0  0  0  0  0  0
   -3.6520    7.3110   -3.2110 C   0  0  0  0  0  0  0  0  0  0  0  0
   -2.7180    8.5110   -3.3360 C   0  0  0  0  0  0  0  0  0  0  0  0
   -1.9740    8.7620   -2.0270 C   0  0  2  0  0  0  0  0  0  0  0  0
   -1.0840    7.6670   -1.7860 O   0  0  0  0  0  0  0  0  0  0  0  0
   -2.9210    8.9420   -0.8080 C   0  0  0  0  0  0  0  0  0  0  0  0
   -3.6720   10.2920   -0.9280 C   0  0  0  0  0  0  0  0  0  0  0  0
   -2.0430    9.0460    0.4680 C   0  0  0  0  0  0  0  0  0  0  0  0
   -5.7400    6.2890   -2.0180 C   0  0  1  0  0  0  0  0  0  0  0  0
   -5.0120    4.9330   -2.2710 C   0  0  0  0  0  0  0  0  0  0  0  0
   -6.7800    6.4590   -3.1870 C   0  0  0  0  0  0  0  0  0  0  0  0
   -8.0210    7.3230   -2.8930 C   0  0  0  0  0  0  0  0  0  0  0  0
   -8.6820    6.9030   -1.5770 C   0  0  2  0  0  0  0  0  0  0  0  0
   -9.1740    5.4250   -1.7390 C   0  0  0  0  0  0  0  0  0  0  0  0
  -11.7919    9.6167   -2.0237 H   0  0  0  0  0  0  0  0  0  0  0  0
  -10.6897    9.0002   -3.3011 H   0  0  0  0  0  0  0  0  0  0  0  0
  -12.4211    8.5217   -3.3011 H   0  0  0  0  0  0  0  0  0  0  0  0
  -11.1575    6.6661   -2.4519 H   0  0  0  0  0  0  0  0  0  0  0  0
  -12.3621    6.1753   -0.5760 H   0  0  0  0  0  0  0  0  0  0  0  0
  -12.0468    7.8182    0.1621 H   0  0  0  0  0  0  0  0  0  0  0  0
  -13.8208    7.5973   -2.2546 H   0  0  0  0  0  0  0  0  0  0  0  0
  -14.4567    7.1579   -0.6148 H   0  0  0  0  0  0  0  0  0  0  0  0
  -12.9603    9.2317   -0.3022 H   0  0  0  0  0  0  0  0  0  0  0  0
  -15.9257    9.0307   -3.0002 H   0  0  0  0  0  0  0  0  0  0  0  0
  -15.4466   10.6171   -3.6933 H   0  0  0  0  0  0  0  0  0  0  0  0
  -14.2830    9.2487   -3.6933 H   0  0  0  0  0  0  0  0  0  0  0  0
  -14.2677   11.8743   -0.5520 H   0  0  0  0  0  0  0  0  0  0  0  0
  -13.3524   11.8831   -2.0976 H   0  0  0  0  0  0  0  0  0  0  0  0
  -15.1182   12.2129   -2.0976 H   0  0  0  0  0  0  0  0  0  0  0  0
   -9.7102    8.8176   -1.3461 H   0  0  0  0  0  0  0  0  0  0  0  0
  -10.1212    8.3715    0.9925 H   0  0  0  0  0  0  0  0  0  0  0  0
  -10.7578    6.7484    0.6505 H   0  0  0  0  0  0  0  0  0  0  0  0
   -8.1692    7.3273    1.7144 H   0  0  0  0  0  0  0  0  0  0  0  0
   -8.6320    5.7686    1.0367 H   0  0  0  0  0  0  0  0  0  0  0  0
   -7.1262    8.8426    0.8489 H   0  0  0  0  0  0  0  0  0  0  0  0
   -6.2143    8.7508   -0.6960 H   0  0  0  0  0  0  0  0  0  0  0  0
   -7.9300    9.2829   -0.6960 H   0  0  0  0  0  0  0  0  0  0  0  0
   -6.9127    5.1770   -0.5642 H   0  0  0  0  0  0  0  0  0  0  0  0
   -5.9371    6.4159    1.4723 H   0  0  0  0  0  0  0  0  0  0  0  0
   -4.9360    5.1890    0.5326 H   0  0  0  0  0  0  0  0  0  0  0  0
   -3.6896    7.3892    1.2711 H   0  0  0  0  0  0  0  0  0  0  0  0
   -5.3376    8.3522   -2.2873 H   0  0  0  0  0  0  0  0  0  0  0  0
   -3.0490    6.4150   -3.0020 H   0  0  0  0  0  0  0  0  0  0  0  0
   -4.2027    7.2162   -4.1585 H   0  0  0  0  0  0  0  0  0  0  0  0
   -1.9866    8.3163   -4.1342 H   0  0  0  0  0  0  0  0  0  0  0  0
   -3.3195    9.4007   -3.5741 H   0  0  0  0  0  0  0  0  0  0  0  0
   -1.4221    9.7071   -2.1376 H   0  0  0  0  0  0  0  0  0  0  0  0
   -0.2810    8.0270   -1.3720 H   0  0  0  0  0  0  0  0  0  0  0  0
   -3.8888   10.6816    0.0776 H   0  0  0  0  0  0  0  0  0  0  0  0
   -3.0453   11.0130   -1.4734 H   0  0  0  0  0  0  0  0  0  0  0  0
   -4.6151   10.1397   -1.4734 H   0  0  0  0  0  0  0  0  0  0  0  0
   -2.6822    8.9703    1.3600 H   0  0  0  0  0  0  0  0  0  0  0  0
   -1.3067    8.2288    0.4741 H   0  0  0  0  0  0  0  0  0  0  0  0
   -1.5180   10.0126    0.4741 H   0  0  0  0  0  0  0  0  0  0  0  0
   -4.7613    4.4660   -1.3071 H   0  0  0  0  0  0  0  0  0  0  0  0
   -5.6720    4.2635   -2.8422 H   0  0  0  0  0  0  0  0  0  0  0  0
   -4.0893    5.1132   -2.8422 H   0  0  0  0  0  0  0  0  0  0  0  0
   -6.2522    6.9136   -4.0383 H   0  0  0  0  0  0  0  0  0  0  0  0
   -7.1711    5.4479   -3.3734 H   0  0  0  0  0  0  0  0  0  0  0  0
   -7.7166    8.3777   -2.8223 H   0  0  0  0  0  0  0  0  0  0  0  0
   -8.7456    7.1853   -3.7091 H   0  0  0  0  0  0  0  0  0  0  0  0
   -9.3231    4.9772   -0.7454 H   0  0  0  0  0  0  0  0  0  0  0  0
  -10.1244    5.4135   -2.2927 H   0  0  0  0  0  0  0  0  0  0  0  0
   -8.4201    4.8462   -2.2927 H   0  0  0  0  0  0  0  0  0  0  0  0
  1  2  1  0
  2  3  1  0
  3  4  1  0
  4  5  1  0
  5  6  1  0
  6  7  1  0
  7  8  1  0
  7  9  1  0
  2 10  1  0
 10 11  1  0
 11 12  1  0
 12 13  1  0
 13 14  1  1
 13 15  1  0
 15 16  1  0
 16 17  1  0
 17 18  2  0
 18 19  1  0
 19 20  1  0
 20 21  1  0
 21 22  1  0
 22 23  1  0
 22 24  1  0
 24 25  1  0
 24 26  1  0
 19 27  1  0
 27 28  1  6
 27 29  1  0
 29 30  1  0
 30 31  1  0
 31 32  1  6
  7  5  1  0
 31 10  1  0
 31 13  1  0
 27 15  1  0
 24 18  1  0
  1 33  1  0
  1 34  1  0
  1 35  1  0
  2 36  1  6
  3 37  1  0
  3 38  1  0
  4 39  1  0
  4 40  1  0
  5 41  1  1
  8 42  1  0
  8 43  1  0
  8 44  1  0
  9 45  1  0
  9 46  1  0
  9 47  1  0
 10 48  1  1
 11 49  1  0
 11 50  1  0
 12 51  1  0
 12 52  1  0
 14 53  1  0
 14 54  1  0
 14 55  1  0
 15 56  1  6
 16 57  1  0
 16 58  1  0
 17 59  1  0
 19 60  1  6
 20 61  1  0
 20 62  1  0
 21 63  1  0
 21 64  1  0
 22 65  1  6
 23 66  1  0
 25 67  1  0
 25 68  1  0
 25 69  1  0
 26 70  1  0
 26 71  1  0
 26 72  1  0
 28 73  1  0
 28 74  1  0
 28 75  1  0
 29 76  1  0
 29 77  1  0
 30 78  1  0
 30 79  1  0
 32 80  1  0
 32 81  1  0
 32 82  1  0
M  END
>  <meeko>  (13) 
{"is_sidechain": [false], "intermolecular_energy": 2.731, "internal_energy": -0.839}

$$$$
EPH_relaxed_0001_pdb2pqr_Repair_255_r2_0001_out
     RDKit          3D

 82 86  0  0  0  0  0  0  0  0999 V2000
    3.5430   17.2040    0.0220 C   0  0  0  0  0  0  0  0  0  0  0  0
    2.4280   16.9860   -1.0050 C   0  0  2  0  0  0  0  0  0  0  0  0
    1.0520   17.4300   -0.4710 C   0  0  0  0  0  0  0  0  0  0  0  0
    1.1230   18.5910    0.5250 C   0  0  0  0  0  0  0  0  0  0  0  0
   -0.2360   18.9790    1.0220 C   0  0  2  0  0  0  0  0  0  0  0  0
   -1.2820   18.0580    0.6860 O   0  0  0  0  0  0  0  0  0  0  0  0
   -1.3820   19.3690    0.1070 C   0  0  0  0  0  0  0  0  0  0  0  0
   -1.2200   19.3920   -1.3800 C   0  0  0  0  0  0  0  0  0  0  0  0
   -2.4980   20.1930    0.6700 C   0  0  0  0  0  0  0  0  0  0  0  0
    2.3790   15.5180   -1.4140 C   0  0  1  0  0  0  0  0  0  0  0  0
    3.7610   14.9790   -1.8700 C   0  0  0  0  0  0  0  0  0  0  0  0
    3.8380   13.5000   -1.4100 C   0  0  0  0  0  0  0  0  0  0  0  0
    2.3880   13.1410   -1.0070 C   0  0  1  0  0  0  0  0  0  0  0  0
    1.6660   12.8170   -2.3520 C   0  0  0  0  0  0  0  0  0  0  0  0
    2.2260   11.9820    0.0290 C   0  0  2  0  0  0  0  0  0  0  0  0
    2.7420   10.6100   -0.4400 C   0  0  0  0  0  0  0  0  0  0  0  0
    1.7350    9.7540   -1.1350 C   0  0  0  0  0  0  0  0  0  0  0  0
    0.4030    9.9470   -1.1230 C   0  0  0  0  0  0  0  0  0  0  0  0
   -0.2240   11.0620   -0.2770 C   0  0  1  0  0  0  0  0  0  0  0  0
   -1.4410   10.4990    0.5030 C   0  0  0  0  0  0  0  0  0  0  0  0
   -2.4570    9.8180   -0.4100 C   0  0  0  0  0  0  0  0  0  0  0  0
   -1.8090    8.6780   -1.1910 C   0  0  2  0  0  0  0  0  0  0  0  0
   -1.4370    7.6440   -0.2740 O   0  0  0  0  0  0  0  0  0  0  0  0
   -0.5650    9.1240   -2.0090 C   0  0  0  0  0  0  0  0  0  0  0  0
   -1.0130   10.0130   -3.1950 C   0  0  0  0  0  0  0  0  0  0  0  0
    0.0750    7.8550   -2.6340 C   0  0  0  0  0  0  0  0  0  0  0  0
    0.7770   11.8710    0.6560 C   0  0  1  0  0  0  0  0  0  0  0  0
    0.9390   11.1390    2.0240 C   0  0  0  0  0  0  0  0  0  0  0  0
    0.1550   13.2810    0.9780 C   0  0  0  0  0  0  0  0  0  0  0  0
    0.4500   14.4150   -0.0220 C   0  0  0  0  0  0  0  0  0  0  0  0
    1.9470   14.4930   -0.3360 C   0  0  2  0  0  0  0  0  0  0  0  0
    2.6980   14.8400    0.9950 C   0  0  0  0  0  0  0  0  0  0  0  0
    3.1274   17.1227    1.0372 H   0  0  0  0  0  0  0  0  0  0  0  0
    4.3236   16.4415   -0.1168 H   0  0  0  0  0  0  0  0  0  0  0  0
    3.9789   18.2044   -0.1168 H   0  0  0  0  0  0  0  0  0  0  0  0
    2.6584   17.6093   -1.8816 H   0  0  0  0  0  0  0  0  0  0  0  0
    0.4326   17.7423   -1.3247 H   0  0  0  0  0  0  0  0  0  0  0  0
    0.6238   16.5712    0.0667 H   0  0  0  0  0  0  0  0  0  0  0  0
    1.7428   18.2882    1.3818 H   0  0  0  0  0  0  0  0  0  0  0  0
    1.5600   19.4588    0.0093 H   0  0  0  0  0  0  0  0  0  0  0  0
    0.2009   19.4663    1.9061 H   0  0  0  0  0  0  0  0  0  0  0  0
   -0.1597   19.5425   -1.6310 H   0  0  0  0  0  0  0  0  0  0  0  0
   -1.5644   18.4360   -1.8012 H   0  0  0  0  0  0  0  0  0  0  0  0
   -1.8169   20.2144   -1.8012 H   0  0  0  0  0  0  0  0  0  0  0  0
   -2.4576   20.1632    1.7689 H   0  0  0  0  0  0  0  0  0  0  0  0
   -2.3947   21.2332    0.3274 H   0  0  0  0  0  0  0  0  0  0  0  0
   -3.4617   19.7881    0.3274 H   0  0  0  0  0  0  0  0  0  0  0  0
    1.6180   15.5726   -2.2064 H   0  0  0  0  0  0  0  0  0  0  0  0
    3.8491   15.0403   -2.9647 H   0  0  0  0  0  0  0  0  0  0  0  0
    4.5793   15.5713   -1.4346 H   0  0  0  0  0  0  0  0  0  0  0  0
    4.1837   12.8553   -2.2315 H   0  0  0  0  0  0  0  0  0  0  0  0
    4.5487   13.3568   -0.5827 H   0  0  0  0  0  0  0  0  0  0  0  0
    0.6809   12.3749   -2.1421 H   0  0  0  0  0  0  0  0  0  0  0  0
    1.5364   13.7433   -2.9310 H   0  0  0  0  0  0  0  0  0  0  0  0
    2.2718   12.1044   -2.9310 H   0  0  0  0  0  0  0  0  0  0  0  0
    2.9016   12.2940    0.8391 H   0  0  0  0  0  0  0  0  0  0  0  0
    3.5794   10.7803   -1.1326 H   0  0  0  0  0  0  0  0  0  0  0  0
    3.0284   10.0645    0.4713 H   0  0  0  0  0  0  0  0  0  0  0  0
    2.1138    8.8928   -1.7050 H   0  0  0  0  0  0  0  0  0  0  0  0
   -0.5600   11.8305   -0.9887 H   0  0  0  0  0  0  0  0  0  0  0  0
   -1.0797    9.7648    1.2381 H   0  0  0  0  0  0  0  0  0  0  0  0
   -1.9456   11.3458    0.9911 H   0  0  0  0  0  0  0  0  0  0  0  0
   -3.2775    9.4148    0.2017 H   0  0  0  0  0  0  0  0  0  0  0  0
   -2.8402   10.5607   -1.1252 H   0  0  0  0  0  0  0  0  0  0  0  0
   -2.5490    8.3155   -1.9197 H   0  0  0  0  0  0  0  0  0  0  0  0
   -2.2510    7.1860   -0.0020 H   0  0  0  0  0  0  0  0  0  0  0  0
   -1.4766   10.9329   -2.8091 H   0  0  0  0  0  0  0  0  0  0  0  0
   -0.1383   10.2730   -3.8092 H   0  0  0  0  0  0  0  0  0  0  0  0
   -1.7424    9.4646   -3.8092 H   0  0  0  0  0  0  0  0  0  0  0  0
    0.4141    7.1826   -1.8322 H   0  0  0  0  0  0  0  0  0  0  0  0
   -0.6698    7.3372   -3.2563 H   0  0  0  0  0  0  0  0  0  0  0  0
    0.9341    8.1461   -3.2563 H   0  0  0  0  0  0  0  0  0  0  0  0
    0.7806   11.8549    2.8440 H   0  0  0  0  0  0  0  0  0  0  0  0
    0.1984   10.3289    2.0963 H   0  0  0  0  0  0  0  0  0  0  0  0
    1.9523   10.7170    2.0963 H   0  0  0  0  0  0  0  0  0  0  0  0
   -0.9370   13.1590    1.0301 H   0  0  0  0  0  0  0  0  0  0  0  0
    0.6290   13.5966    1.9191 H   0  0  0  0  0  0  0  0  0  0  0  0
   -0.1038   14.2265   -0.9536 H   0  0  0  0  0  0  0  0  0  0  0  0
    0.1354   15.3689    0.4265 H   0  0  0  0  0  0  0  0  0  0  0  0
    2.0741   14.5517    1.8539 H   0  0  0  0  0  0  0  0  0  0  0  0
    3.6502   14.2906    1.0327 H   0  0  0  0  0  0  0  0  0  0  0  0
    2.8968   15.9212    1.0327 H   0  0  0  0  0  0  0  0  0  0  0  0
  1  2  1  0
  2  3  1  0
  3  4  1  0
  4  5  1  0
  5  6  1  0
  6  7  1  0
  7  8  1  0
  7  9  1  0
  2 10  1  0
 10 11  1  0
 11 12  1  0
 12 13  1  0
 13 14  1  6
 13 15  1  0
 15 16  1  0
 16 17  1  0
 17 18  2  0
 18 19  1  0
 19 20  1  0
 20 21  1  0
 21 22  1  0
 22 23  1  0
 22 24  1  0
 24 25  1  0
 24 26  1  0
 19 27  1  0
 27 28  1  1
 27 29  1  0
 29 30  1  0
 30 31  1  0
 31 32  1  1
  7  5  1  0
 31 10  1  0
 31 13  1  0
 27 15  1  0
 24 18  1  0
  1 33  1  0
  1 34  1  0
  1 35  1  0
  2 36  1  6
  3 37  1  0
  3 38  1  0
  4 39  1  0
  4 40  1  0
  5 41  1  1
  8 42  1  0
  8 43  1  0
  8 44  1  0
  9 45  1  0
  9 46  1  0
  9 47  1  0
 10 48  1  6
 11 49  1  0
 11 50  1  0
 12 51  1  0
 12 52  1  0
 14 53  1  0
 14 54  1  0
 14 55  1  0
 15 56  1  1
 16 57  1  0
 16 58  1  0
 17 59  1  0
 19 60  1  6
 20 61  1  0
 20 62  1  0
 21 63  1  0
 21 64  1  0
 22 65  1  6
 23 66  1  0
 25 67  1  0
 25 68  1  0
 25 69  1  0
 26 70  1  0
 26 71  1  0
 26 72  1  0
 28 73  1  0
 28 74  1  0
 28 75  1  0
 29 76  1  0
 29 77  1  0
 30 78  1  0
 30 79  1  0
 32 80  1  0
 32 81  1  0
 32 82  1  0
M  END
>  <meeko>  (14) 
{"is_sidechain": [false], "intermolecular_energy": 2.731, "internal_energy": -0.839}

$$$$
EPH_relaxed_0001_pdb2pqr_Repair_255_r2_0001_out
     RDKit          3D

 82 86  0  0  0  0  0  0  0  0999 V2000
   -7.4130    8.3950   -2.7320 C   0  0  0  0  0  0  0  0  0  0  0  0
   -6.4410    7.7930   -1.7130 C   0  0  2  0  0  0  0  0  0  0  0  0
   -7.1650    7.2890   -0.4480 C   0  0  0  0  0  0  0  0  0  0  0  0
   -8.6270    6.9030   -0.6880 C   0  0  0  0  0  0  0  0  0  0  0  0
   -9.4990    7.2910    0.4670 C   0  0  2  0  0  0  0  0  0  0  0  0
  -10.4990    6.3240    0.8140 O   0  0  0  0  0  0  0  0  0  0  0  0
  -10.9810    7.5890    0.3330 C   0  0  0  0  0  0  0  0  0  0  0  0
  -11.6760    7.5130   -0.9900 C   0  0  0  0  0  0  0  0  0  0  0  0
  -11.6410    8.4230    1.3870 C   0  0  0  0  0  0  0  0  0  0  0  0
   -5.3830    8.8220   -1.3330 C   0  0  1  0  0  0  0  0  0  0  0  0
   -5.6480    9.4670    0.0530 C   0  0  0  0  0  0  0  0  0  0  0  0
   -4.2620    9.7260    0.6980 C   0  0  0  0  0  0  0  0  0  0  0  0
   -3.2520    9.5330   -0.4570 C   0  0  1  0  0  0  0  0  0  0  0  0
   -3.2790   10.8820   -1.2420 C   0  0  0  0  0  0  0  0  0  0  0  0
   -1.7980    9.1350   -0.0440 C   0  0  2  0  0  0  0  0  0  0  0  0
   -1.0560   10.1720    0.8170 C   0  0  0  0  0  0  0  0  0  0  0  0
   -0.2630   11.1820    0.0560 C   0  0  0  0  0  0  0  0  0  0  0  0
    0.0840   11.0890   -1.2410 C   0  0  0  0  0  0  0  0  0  0  0  0
   -0.2470    9.8310   -2.0560 C   0  0  1  0  0  0  0  0  0  0  0  0
    1.0040    9.3950   -2.8640 C   0  0  0  0  0  0  0  0  0  0  0  0
    1.5640   10.5200   -3.7290 C   0  0  0  0  0  0  0  0  0  0  0  0
    1.9340   11.7310   -2.8760 C   0  0  2  0  0  0  0  0  0  0  0  0
    3.0340   11.3790   -2.0300 O   0  0  0  0  0  0  0  0  0  0  0  0
    0.7540   12.2540   -2.0090 C   0  0  0  0  0  0  0  0  0  0  0  0
   -0.3100   12.9110   -2.9220 C   0  0  0  0  0  0  0  0  0  0  0  0
    1.2990   13.3840   -1.0940 C   0  0  0  0  0  0  0  0  0  0  0  0
   -0.8980    8.6300   -1.2440 C   0  0  1  0  0  0  0  0  0  0  0  0
    0.2200    7.7410   -0.6200 C   0  0  0  0  0  0  0  0  0  0  0  0
   -1.6940    7.7080   -2.2420 C   0  0  0  0  0  0  0  0  0  0  0  0
   -3.1620    8.0850   -2.5170 C   0  0  0  0  0  0  0  0  0  0  0  0
   -3.9210    8.3250   -1.2080 C   0  0  2  0  0  0  0  0  0  0  0  0
   -3.9300    6.9790   -0.4070 C   0  0  0  0  0  0  0  0  0  0  0  0
   -8.2323    8.9025   -2.2017 H   0  0  0  0  0  0  0  0  0  0  0  0
   -6.8795    9.1210   -3.3631 H   0  0  0  0  0  0  0  0  0  0  0  0
   -7.8253    7.5939   -3.3631 H   0  0  0  0  0  0  0  0  0  0  0  0
   -5.9607    6.9241   -2.1867 H   0  0  0  0  0  0  0  0  0  0  0  0
   -6.6299    6.4051   -0.0706 H   0  0  0  0  0  0  0  0  0  0  0  0
   -7.1661    8.1190    0.2739 H   0  0  0  0  0  0  0  0  0  0  0  0
   -8.9866    7.4136   -1.5935 H   0  0  0  0  0  0  0  0  0  0  0  0
   -8.6786    5.8105   -0.8050 H   0  0  0  0  0  0  0  0  0  0  0  0
   -8.6733    7.8483    0.9336 H   0  0  0  0  0  0  0  0  0  0  0  0
  -12.7578    7.3947   -0.8296 H   0  0  0  0  0  0  0  0  0  0  0  0
  -11.4882    8.4370   -1.5565 H   0  0  0  0  0  0  0  0  0  0  0  0
  -11.2929    6.6514   -1.5565 H   0  0  0  0  0  0  0  0  0  0  0  0
  -11.3496    8.0548    2.3817 H   0  0  0  0  0  0  0  0  0  0  0  0
  -11.3248    9.4708    1.2768 H   0  0  0  0  0  0  0  0  0  0  0  0
  -12.7334    8.3561    1.2768 H   0  0  0  0  0  0  0  0  0  0  0  0
   -5.4759    9.5071   -2.1886 H   0  0  0  0  0  0  0  0  0  0  0  0
   -6.1925   10.4150   -0.0682 H   0  0  0  0  0  0  0  0  0  0  0  0
   -6.2608    8.8074    0.6850 H   0  0  0  0  0  0  0  0  0  0  0  0
   -4.2046   10.7494    1.0971 H   0  0  0  0  0  0  0  0  0  0  0  0
   -4.0627    9.0512    1.5435 H   0  0  0  0  0  0  0  0  0  0  0  0
   -3.2958   11.7203   -0.5300 H   0  0  0  0  0  0  0  0  0  0  0  0
   -2.3822   10.9561   -1.8746 H   0  0  0  0  0  0  0  0  0  0  0  0
   -4.1781   10.9202   -1.8746 H   0  0  0  0  0  0  0  0  0  0  0  0
   -1.9693    8.2696    0.6131 H   0  0  0  0  0  0  0  0  0  0  0  0
   -1.8024   10.7099    1.4199 H   0  0  0  0  0  0  0  0  0  0  0  0
   -0.3300    9.6050    1.4182 H   0  0  0  0  0  0  0  0  0  0  0  0
    0.0658   12.0787    0.6018 H   0  0  0  0  0  0  0  0  0  0  0  0
   -1.0556   10.1179   -2.7444 H   0  0  0  0  0  0  0  0  0  0  0  0
    1.7837    9.0710   -2.1589 H   0  0  0  0  0  0  0  0  0  0  0  0
    0.6997    8.5782   -3.5350 H   0  0  0  0  0  0  0  0  0  0  0  0
    2.4624   10.1595   -4.2513 H   0  0  0  0  0  0  0  0  0  0  0  0
    0.7937   10.8228   -4.4535 H   0  0  0  0  0  0  0  0  0  0  0  0
    2.2047   12.5476   -3.5615 H   0  0  0  0  0  0  0  0  0  0  0  0
    2.7060   11.3570   -1.1150 H   0  0  0  0  0  0  0  0  0  0  0  0
   -1.0823   13.3879   -2.3006 H   0  0  0  0  0  0  0  0  0  0  0  0
    0.1701   13.6701   -3.5570 H   0  0  0  0  0  0  0  0  0  0  0  0
   -0.7737   12.1417   -3.5570 H   0  0  0  0  0  0  0  0  0  0  0  0
    1.1622   13.1004   -0.0400 H   0  0  0  0  0  0  0  0  0  0  0  0
    2.3694   13.5359   -1.2969 H   0  0  0  0  0  0  0  0  0  0  0  0
    0.7515   14.3162   -1.2969 H   0  0  0  0  0  0  0  0  0  0  0  0
    0.1580    7.7903    0.4771 H   0  0  0  0  0  0  0  0  0  0  0  0
    0.0865    6.6997   -0.9484 H   0  0  0  0  0  0  0  0  0  0  0  0
    1.2045    8.1057   -0.9484 H   0  0  0  0  0  0  0  0  0  0  0  0
   -1.1613    7.7217   -3.2043 H   0  0  0  0  0  0  0  0  0  0  0  0
   -1.7370    6.7241   -1.7521 H   0  0  0  0  0  0  0  0  0  0  0  0
   -3.1904    9.0027   -3.1229 H   0  0  0  0  0  0  0  0  0  0  0  0
   -3.6428    7.2540   -3.0539 H   0  0  0  0  0  0  0  0  0  0  0  0
   -3.9286    7.1943    0.6717 H   0  0  0  0  0  0  0  0  0  0  0  0
   -4.8320    6.4047   -0.6651 H   0  0  0  0  0  0  0  0  0  0  0  0
   -3.0358    6.3927   -0.6651 H   0  0  0  0  0  0  0  0  0  0  0  0
  1  2  1  0
  2  3  1  0
  3  4  1  0
  4  5  1  0
  5  6  1  0
  6  7  1  0
  7  8  1  0
  7  9  1  0
  2 10  1  0
 10 11  1  0
 11 12  1  0
 12 13  1  0
 13 14  1  6
 13 15  1  0
 15 16  1  0
 16 17  1  0
 17 18  2  0
 18 19  1  0
 19 20  1  0
 20 21  1  0
 21 22  1  0
 22 23  1  0
 22 24  1  0
 24 25  1  0
 24 26  1  0
 19 27  1  0
 27 28  1  1
 27 29  1  0
 29 30  1  0
 30 31  1  0
 31 32  1  1
  7  5  1  0
 31 10  1  0
 31 13  1  0
 27 15  1  0
 24 18  1  0
  1 33  1  0
  1 34  1  0
  1 35  1  0
  2 36  1  6
  3 37  1  0
  3 38  1  0
  4 39  1  0
  4 40  1  0
  5 41  1  1
  8 42  1  0
  8 43  1  0
  8 44  1  0
  9 45  1  0
  9 46  1  0
  9 47  1  0
 10 48  1  6
 11 49  1  0
 11 50  1  0
 12 51  1  0
 12 52  1  0
 14 53  1  0
 14 54  1  0
 14 55  1  0
 15 56  1  1
 16 57  1  0
 16 58  1  0
 17 59  1  0
 19 60  1  6
 20 61  1  0
 20 62  1  0
 21 63  1  0
 21 64  1  0
 22 65  1  6
 23 66  1  0
 25 67  1  0
 25 68  1  0
 25 69  1  0
 26 70  1  0
 26 71  1  0
 26 72  1  0
 28 73  1  0
 28 74  1  0
 28 75  1  0
 29 76  1  0
 29 77  1  0
 30 78  1  0
 30 79  1  0
 32 80  1  0
 32 81  1  0
 32 82  1  0
M  END
>  <meeko>  (15) 
{"is_sidechain": [false], "intermolecular_energy": 2.731, "internal_energy": -0.839}

$$$$
EPH_relaxed_0001_pdb2pqr_Repair_255_r2_0001_out
     RDKit          3D

 82 86  0  0  0  0  0  0  0  0999 V2000
    1.1400   13.6090   -4.4500 C   0  0  0  0  0  0  0  0  0  0  0  0
    1.4020   12.9030   -3.1170 C   0  0  2  0  0  0  0  0  0  0  0  0
    2.9090   12.7640   -2.8200 C   0  0  0  0  0  0  0  0  0  0  0  0
    3.6580   11.8980   -3.8370 C   0  0  0  0  0  0  0  0  0  0  0  0
    5.1130   11.7780   -3.4970 C   0  0  2  0  0  0  0  0  0  0  0  0
    6.0020   12.3580   -4.4600 O   0  0  0  0  0  0  0  0  0  0  0  0
    6.0910   10.9340   -4.2920 C   0  0  0  0  0  0  0  0  0  0  0  0
    5.6520   10.1510   -5.4900 C   0  0  0  0  0  0  0  0  0  0  0  0
    7.3540   10.4830   -3.6260 C   0  0  0  0  0  0  0  0  0  0  0  0
    0.7410   11.5300   -3.1170 C   0  0  1  0  0  0  0  0  0  0  0  0
    1.7730   10.3710   -3.0880 C   0  0  0  0  0  0  0  0  0  0  0  0
    1.1440    9.2330   -2.2430 C   0  0  0  0  0  0  0  0  0  0  0  0
   -0.3430    9.6340   -2.0950 C   0  0  1  0  0  0  0  0  0  0  0  0
   -1.0140    9.1840   -3.4300 C   0  0  0  0  0  0  0  0  0  0  0  0
   -1.0920    9.0580   -0.8490 C   0  0  2  0  0  0  0  0  0  0  0  0
   -1.2020    7.5240   -0.8050 C   0  0  0  0  0  0  0  0  0  0  0  0
   -2.4200    6.9530   -1.4510 C   0  0  0  0  0  0  0  0  0  0  0  0
   -3.5230    7.6450   -1.7910 C   0  0  0  0  0  0  0  0  0  0  0  0
   -3.6590    9.1320   -1.4400 C   0  0  1  0  0  0  0  0  0  0  0  0
   -5.0620    9.3940   -0.8320 C   0  0  0  0  0  0  0  0  0  0  0  0
   -6.1910    8.9020   -1.7320 C   0  0  0  0  0  0  0  0  0  0  0  0
   -6.0530    7.4080   -2.0120 C   0  0  2  0  0  0  0  0  0  0  0  0
   -6.2610    6.6890   -0.7920 O   0  0  0  0  0  0  0  0  0  0  0  0
   -4.6750    7.0220   -2.6180 C   0  0  0  0  0  0  0  0  0  0  0  0
   -4.5760    7.5550   -4.0680 C   0  0  0  0  0  0  0  0  0  0  0  0
   -4.6140    5.4740   -2.7190 C   0  0  0  0  0  0  0  0  0  0  0  0
   -2.4880    9.7460   -0.5580 C   0  0  1  0  0  0  0  0  0  0  0  0
   -2.7870    9.5210    0.9560 C   0  0  0  0  0  0  0  0  0  0  0  0
   -2.4430   11.3050   -0.7750 C   0  0  0  0  0  0  0  0  0  0  0  0
   -1.5890   11.8190   -1.9500 C   0  0  0  0  0  0  0  0  0  0  0  0
   -0.1930   11.1900   -1.9290 C   0  0  2  0  0  0  0  0  0  0  0  0
    0.5160   11.6430   -0.6060 C   0  0  0  0  0  0  0  0  0  0  0  0
    0.7631   14.6246   -4.2591 H   0  0  0  0  0  0  0  0  0  0  0  0
    2.0764   13.6673   -5.0243 H   0  0  0  0  0  0  0  0  0  0  0  0
    0.3923   13.0423   -5.0243 H   0  0  0  0  0  0  0  0  0  0  0  0
    0.9653   13.5247   -2.3215 H   0  0  0  0  0  0  0  0  0  0  0  0
    3.3576   13.7684   -2.8215 H   0  0  0  0  0  0  0  0  0  0  0  0
    3.0003   12.2659   -1.8435 H   0  0  0  0  0  0  0  0  0  0  0  0
    3.2103   10.8933   -3.8482 H   0  0  0  0  0  0  0  0  0  0  0  0
    3.5745   12.3773   -4.8235 H   0  0  0  0  0  0  0  0  0  0  0  0
    4.8904   11.8322   -2.4211 H   0  0  0  0  0  0  0  0  0  0  0  0
    5.1386    9.2353   -5.1615 H   0  0  0  0  0  0  0  0  0  0  0  0
    4.9640   10.7604   -6.0944 H   0  0  0  0  0  0  0  0  0  0  0  0
    6.5308    9.8819   -6.0944 H   0  0  0  0  0  0  0  0  0  0  0  0
    7.2289   10.5277   -2.5341 H   0  0  0  0  0  0  0  0  0  0  0  0
    7.5784    9.4492   -3.9273 H   0  0  0  0  0  0  0  0  0  0  0  0
    8.1825   11.1408   -3.9273 H   0  0  0  0  0  0  0  0  0  0  0  0
    0.1555   11.6070   -4.0450 H   0  0  0  0  0  0  0  0  0  0  0  0
    1.9741   10.0172   -4.1099 H   0  0  0  0  0  0  0  0  0  0  0  0
    2.7279   10.7032   -2.6547 H   0  0  0  0  0  0  0  0  0  0  0  0
    1.2362    8.2675   -2.7619 H   0  0  0  0  0  0  0  0  0  0  0  0
    1.6424    9.1112   -1.2700 H   0  0  0  0  0  0  0  0  0  0  0  0
   -1.9086    8.5841   -3.2067 H   0  0  0  0  0  0  0  0  0  0  0  0
   -1.3035   10.0713   -4.0122 H   0  0  0  0  0  0  0  0  0  0  0  0
   -0.3030    8.5794   -4.0122 H   0  0  0  0  0  0  0  0  0  0  0  0
   -0.4209    9.3328   -0.0219 H   0  0  0  0  0  0  0  0  0  0  0  0
   -0.3203    7.1054   -1.3124 H   0  0  0  0  0  0  0  0  0  0  0  0
   -1.2675    7.2542    0.2594 H   0  0  0  0  0  0  0  0  0  0  0  0
   -2.4159    5.8746   -1.6677 H   0  0  0  0  0  0  0  0  0  0  0  0
   -3.5547    9.6792   -2.3885 H   0  0  0  0  0  0  0  0  0  0  0  0
   -5.1299    8.8740    0.1350 H   0  0  0  0  0  0  0  0  0  0  0  0
   -5.1776   10.4817   -0.7159 H   0  0  0  0  0  0  0  0  0  0  0  0
   -7.1546    9.0877   -1.2350 H   0  0  0  0  0  0  0  0  0  0  0  0
   -6.1404    9.4446   -2.6875 H   0  0  0  0  0  0  0  0  0  0  0  0
   -6.8108    7.1424   -2.7638 H   0  0  0  0  0  0  0  0  0  0  0  0
   -5.5500    6.0310   -0.7140 H   0  0  0  0  0  0  0  0  0  0  0  0
   -4.3752    8.6363   -4.0483 H   0  0  0  0  0  0  0  0  0  0  0  0
   -3.7582    7.0397   -4.5930 H   0  0  0  0  0  0  0  0  0  0  0  0
   -5.5243    7.3677   -4.5930 H   0  0  0  0  0  0  0  0  0  0  0  0
   -4.5969    5.0410   -1.7080 H   0  0  0  0  0  0  0  0  0  0  0  0
   -5.4984    5.1067   -3.2603 H   0  0  0  0  0  0  0  0  0  0  0  0
   -3.7035    5.1775   -3.2603 H   0  0  0  0  0  0  0  0  0  0  0  0
   -2.0528   10.0735    1.5608 H   0  0  0  0  0  0  0  0  0  0  0  0
   -3.7996    9.8831    1.1875 H   0  0  0  0  0  0  0  0  0  0  0  0
   -2.7195    8.4478    1.1875 H   0  0  0  0  0  0  0  0  0  0  0  0
   -3.4752   11.6480   -0.9389 H   0  0  0  0  0  0  0  0  0  0  0  0
   -1.9612   11.7073    0.1283 H   0  0  0  0  0  0  0  0  0  0  0  0
   -2.0862   11.5602   -2.8965 H   0  0  0  0  0  0  0  0  0  0  0  0
   -1.4837   12.9099   -1.8563 H   0  0  0  0  0  0  0  0  0  0  0  0
   -0.0556   11.2778    0.2599 H   0  0  0  0  0  0  0  0  0  0  0  0
    1.5341   11.2277   -0.5749 H   0  0  0  0  0  0  0  0  0  0  0  0
    0.5670   12.7414   -0.5749 H   0  0  0  0  0  0  0  0  0  0  0  0
  1  2  1  0
  2  3  1  0
  3  4  1  0
  4  5  1  0
  5  6  1  0
  6  7  1  0
  7  8  1  0
  7  9  1  0
  2 10  1  0
 10 11  1  0
 11 12  1  0
 12 13  1  0
 13 14  1  6
 13 15  1  0
 15 16  1  0
 16 17  1  0
 17 18  2  0
 18 19  1  0
 19 20  1  0
 20 21  1  0
 21 22  1  0
 22 23  1  0
 22 24  1  0
 24 25  1  0
 24 26  1  0
 19 27  1  0
 27 28  1  1
 27 29  1  0
 29 30  1  0
 30 31  1  0
 31 32  1  1
  7  5  1  0
 31 10  1  0
 31 13  1  0
 27 15  1  0
 24 18  1  0
  1 33  1  0
  1 34  1  0
  1 35  1  0
  2 36  1  1
  3 37  1  0
  3 38  1  0
  4 39  1  0
  4 40  1  0
  5 41  1  1
  8 42  1  0
  8 43  1  0
  8 44  1  0
  9 45  1  0
  9 46  1  0
  9 47  1  0
 10 48  1  6
 11 49  1  0
 11 50  1  0
 12 51  1  0
 12 52  1  0
 14 53  1  0
 14 54  1  0
 14 55  1  0
 15 56  1  1
 16 57  1  0
 16 58  1  0
 17 59  1  0
 19 60  1  6
 20 61  1  0
 20 62  1  0
 21 63  1  0
 21 64  1  0
 22 65  1  6
 23 66  1  0
 25 67  1  0
 25 68  1  0
 25 69  1  0
 26 70  1  0
 26 71  1  0
 26 72  1  0
 28 73  1  0
 28 74  1  0
 28 75  1  0
 29 76  1  0
 29 77  1  0
 30 78  1  0
 30 79  1  0
 32 80  1  0
 32 81  1  0
 32 82  1  0
M  END
>  <meeko>  (16) 
{"is_sidechain": [false], "intermolecular_energy": 2.731, "internal_energy": -0.839}

$$$$
EPH_relaxed_0001_pdb2pqr_Repair_255_r2_0001_out
     RDKit          3D

 82 86  0  0  0  0  0  0  0  0999 V2000
    2.3900   15.9910   -0.4380 C   0  0  0  0  0  0  0  0  0  0  0  0
    2.3790   15.8390   -1.9620 C   0  0  2  0  0  0  0  0  0  0  0  0
    1.9630   17.1430   -2.6720 C   0  0  0  0  0  0  0  0  0  0  0  0
    2.2140   18.4040   -1.8410 C   0  0  0  0  0  0  0  0  0  0  0  0
    1.0650   19.3620   -1.9260 C   0  0  2  0  0  0  0  0  0  0  0  0
    0.8910   20.1920   -0.7700 O   0  0  0  0  0  0  0  0  0  0  0  0
   -0.1710   19.2660   -1.0510 C   0  0  0  0  0  0  0  0  0  0  0  0
   -0.3210   18.1840   -0.0290 C   0  0  0  0  0  0  0  0  0  0  0  0
   -1.4330   19.9200   -1.5210 C   0  0  0  0  0  0  0  0  0  0  0  0
    1.4430   14.7060   -2.3640 C   0  0  1  0  0  0  0  0  0  0  0  0
    1.6080   14.2930   -3.8510 C   0  0  0  0  0  0  0  0  0  0  0  0
    1.3800   12.7610   -3.9190 C   0  0  0  0  0  0  0  0  0  0  0  0
    0.7690   12.3970   -2.5450 C   0  0  1  0  0  0  0  0  0  0  0  0
   -0.7450   12.7560   -2.6720 C   0  0  0  0  0  0  0  0  0  0  0  0
    0.9750   10.9230   -2.0660 C   0  0  2  0  0  0  0  0  0  0  0  0
    0.3310    9.8500   -2.9620 C   0  0  0  0  0  0  0  0  0  0  0  0
   -1.0690    9.4750   -2.6010 C   0  0  0  0  0  0  0  0  0  0  0  0
   -1.6810    9.7640   -1.4380 C   0  0  0  0  0  0  0  0  0  0  0  0
   -0.9210   10.4550   -0.2980 C   0  0  1  0  0  0  0  0  0  0  0  0
   -1.2140    9.7230    1.0380 C   0  0  0  0  0  0  0  0  0  0  0  0
   -2.7080    9.6010    1.3220 C   0  0  0  0  0  0  0  0  0  0  0  0
   -3.4200    8.8580    0.1940 C   0  0  2  0  0  0  0  0  0  0  0  0
   -2.9690    7.5000    0.1810 O   0  0  0  0  0  0  0  0  0  0  0  0
   -3.1880    9.4990   -1.2030 C   0  0  0  0  0  0  0  0  0  0  0  0
   -3.9390   10.8510   -1.2860 C   0  0  0  0  0  0  0  0  0  0  0  0
   -3.8410    8.5740   -2.2660 C   0  0  0  0  0  0  0  0  0  0  0  0
    0.6330   10.6840   -0.5400 C   0  0  1  0  0  0  0  0  0  0  0  0
    1.4320    9.4200   -0.0970 C   0  0  0  0  0  0  0  0  0  0  0  0
    1.1270   11.8650    0.3760 C   0  0  0  0  0  0  0  0  0  0  0  0
    1.0080   13.2890   -0.2010 C   0  0  0  0  0  0  0  0  0  0  0  0
    1.5940   13.3580   -1.6140 C   0  0  2  0  0  0  0  0  0  0  0  0
    3.1210   13.0240   -1.5160 C   0  0  0  0  0  0  0  0  0  0  0  0
    2.3181   14.9981    0.0300 H   0  0  0  0  0  0  0  0  0  0  0  0
    3.3257   16.4772   -0.1247 H   0  0  0  0  0  0  0  0  0  0  0  0
    1.5341   16.6068   -0.1247 H   0  0  0  0  0  0  0  0  0  0  0  0
    3.4056   15.6033   -2.2789 H   0  0  0  0  0  0  0  0  0  0  0  0
    2.5335   17.2254   -3.6089 H   0  0  0  0  0  0  0  0  0  0  0  0
    0.8783   17.0827   -2.8446 H   0  0  0  0  0  0  0  0  0  0  0  0
    2.3600   18.1149   -0.7898 H   0  0  0  0  0  0  0  0  0  0  0  0
    3.1083   18.9051   -2.2400 H   0  0  0  0  0  0  0  0  0  0  0  0
    1.1928   19.4555   -3.0145 H   0  0  0  0  0  0  0  0  0  0  0  0
   -0.2605   18.6206    0.9788 H   0  0  0  0  0  0  0  0  0  0  0  0
   -1.2961   17.6912   -0.1571 H   0  0  0  0  0  0  0  0  0  0  0  0
    0.4832   17.4445   -0.1571 H   0  0  0  0  0  0  0  0  0  0  0  0
   -2.0312   20.2300   -0.6515 H   0  0  0  0  0  0  0  0  0  0  0  0
   -1.1843   20.8027   -2.1284 H   0  0  0  0  0  0  0  0  0  0  0  0
   -2.0108   19.2078   -2.1284 H   0  0  0  0  0  0  0  0  0  0  0  0
    0.4767   15.1692   -2.1155 H   0  0  0  0  0  0  0  0  0  0  0  0
    0.8656   14.8142   -4.4733 H   0  0  0  0  0  0  0  0  0  0  0  0
    2.6070   14.5601   -4.2261 H   0  0  0  0  0  0  0  0  0  0  0  0
    0.6847   12.5074   -4.7328 H   0  0  0  0  0  0  0  0  0  0  0  0
    2.3096   12.2091   -4.1220 H   0  0  0  0  0  0  0  0  0  0  0  0
   -1.1827   12.8598   -1.6682 H   0  0  0  0  0  0  0  0  0  0  0  0
   -0.8523   13.7045   -3.2187 H   0  0  0  0  0  0  0  0  0  0  0  0
   -1.2668   11.9567   -3.2187 H   0  0  0  0  0  0  0  0  0  0  0  0
    2.0615   10.7890   -2.1739 H   0  0  0  0  0  0  0  0  0  0  0  0
    0.3263   10.2277   -3.9951 H   0  0  0  0  0  0  0  0  0  0  0  0
    0.9342    8.9398   -2.8290 H   0  0  0  0  0  0  0  0  0  0  0  0
   -1.6490    8.9150   -3.3494 H   0  0  0  0  0  0  0  0  0  0  0  0
   -1.3091   11.4833   -0.2531 H   0  0  0  0  0  0  0  0  0  0  0  0
   -0.7806    8.7132    0.9894 H   0  0  0  0  0  0  0  0  0  0  0  0
   -0.7670   10.3164    1.8492 H   0  0  0  0  0  0  0  0  0  0  0  0
   -2.8515    9.0495    2.2629 H   0  0  0  0  0  0  0  0  0  0  0  0
   -3.1339   10.6122    1.3995 H   0  0  0  0  0  0  0  0  0  0  0  0
   -4.5008    8.9161    0.3903 H   0  0  0  0  0  0  0  0  0  0  0  0
   -3.1390    7.1250    1.0620 H   0  0  0  0  0  0  0  0  0  0  0  0
   -4.1438   11.2197   -0.2700 H   0  0  0  0  0  0  0  0  0  0  0  0
   -3.3182   11.5829   -1.8235 H   0  0  0  0  0  0  0  0  0  0  0  0
   -4.8884   10.7107   -1.8235 H   0  0  0  0  0  0  0  0  0  0  0  0
   -4.4045    7.7757   -1.7609 H   0  0  0  0  0  0  0  0  0  0  0  0
   -4.5242    9.1635   -2.8950 H   0  0  0  0  0  0  0  0  0  0  0  0
   -3.0567    8.1276   -2.8950 H   0  0  0  0  0  0  0  0  0  0  0  0
    1.4624    9.3718    1.0015 H   0  0  0  0  0  0  0  0  0  0  0  0
    0.9394    8.5184   -0.4900 H   0  0  0  0  0  0  0  0  0  0  0  0
    2.4577    9.4782   -0.4900 H   0  0  0  0  0  0  0  0  0  0  0  0
    0.5402   11.8327    1.3058 H   0  0  0  0  0  0  0  0  0  0  0  0
    2.2063   11.6964    0.5056 H   0  0  0  0  0  0  0  0  0  0  0  0
   -0.0535   13.5751   -0.2372 H   0  0  0  0  0  0  0  0  0  0  0  0
    1.5704   13.9781    0.4462 H   0  0  0  0  0  0  0  0  0  0  0  0
    3.4151   12.9597   -0.4580 H   0  0  0  0  0  0  0  0  0  0  0  0
    3.3183   12.0615   -2.0106 H   0  0  0  0  0  0  0  0  0  0  0  0
    3.7021   13.8163   -2.0106 H   0  0  0  0  0  0  0  0  0  0  0  0
  1  2  1  0
  2  3  1  0
  3  4  1  0
  4  5  1  0
  5  6  1  0
  6  7  1  0
  7  8  1  0
  7  9  1  0
  2 10  1  0
 10 11  1  0
 11 12  1  0
 12 13  1  0
 13 14  1  6
 13 15  1  0
 15 16  1  0
 16 17  1  0
 17 18  2  0
 18 19  1  0
 19 20  1  0
 20 21  1  0
 21 22  1  0
 22 23  1  0
 22 24  1  0
 24 25  1  0
 24 26  1  0
 19 27  1  0
 27 28  1  1
 27 29  1  0
 29 30  1  0
 30 31  1  0
 31 32  1  1
  7  5  1  0
 31 10  1  0
 31 13  1  0
 27 15  1  0
 24 18  1  0
  1 33  1  0
  1 34  1  0
  1 35  1  0
  2 36  1  6
  3 37  1  0
  3 38  1  0
  4 39  1  0
  4 40  1  0
  5 41  1  6
  8 42  1  0
  8 43  1  0
  8 44  1  0
  9 45  1  0
  9 46  1  0
  9 47  1  0
 10 48  1  6
 11 49  1  0
 11 50  1  0
 12 51  1  0
 12 52  1  0
 14 53  1  0
 14 54  1  0
 14 55  1  0
 15 56  1  1
 16 57  1  0
 16 58  1  0
 17 59  1  0
 19 60  1  1
 20 61  1  0
 20 62  1  0
 21 63  1  0
 21 64  1  0
 22 65  1  1
 23 66  1  0
 25 67  1  0
 25 68  1  0
 25 69  1  0
 26 70  1  0
 26 71  1  0
 26 72  1  0
 28 73  1  0
 28 74  1  0
 28 75  1  0
 29 76  1  0
 29 77  1  0
 30 78  1  0
 30 79  1  0
 32 80  1  0
 32 81  1  0
 32 82  1  0
M  END
>  <meeko>  (17) 
{"is_sidechain": [false], "intermolecular_energy": 2.731, "internal_energy": -0.839}

$$$$
EPH_relaxed_0001_pdb2pqr_Repair_255_r2_0001_out
     RDKit          3D

 82 86  0  0  0  0  0  0  0  0999 V2000
   -5.6860    4.9960   -1.1790 C   0  0  0  0  0  0  0  0  0  0  0  0
   -5.4110    6.4270   -0.7060 C   0  0  2  0  0  0  0  0  0  0  0  0
   -6.5030    7.4120   -1.1690 C   0  0  0  0  0  0  0  0  0  0  0  0
   -7.8870    6.7730   -1.3120 C   0  0  0  0  0  0  0  0  0  0  0  0
   -8.7250    6.9880   -0.0880 C   0  0  2  0  0  0  0  0  0  0  0  0
   -9.7860    6.0390    0.0860 O   0  0  0  0  0  0  0  0  0  0  0  0
  -10.1850    7.4020   -0.1350 C   0  0  0  0  0  0  0  0  0  0  0  0
  -10.8900    7.6260   -1.4350 C   0  0  0  0  0  0  0  0  0  0  0  0
  -10.7820    8.0580    1.0710 C   0  0  0  0  0  0  0  0  0  0  0  0
   -4.0470    6.8870   -1.2080 C   0  0  1  0  0  0  0  0  0  0  0  0
   -3.8310    6.5810   -2.7140 C   0  0  0  0  0  0  0  0  0  0  0  0
   -2.9860    7.7460   -3.2910 C   0  0  0  0  0  0  0  0  0  0  0  0
   -2.4660    8.5030   -2.0460 C   0  0  1  0  0  0  0  0  0  0  0  0
   -1.2320    7.6800   -1.5620 C   0  0  0  0  0  0  0  0  0  0  0  0
   -2.1090   10.0110   -2.2540 C   0  0  2  0  0  0  0  0  0  0  0  0
   -0.9690   10.2800   -3.2520 C   0  0  0  0  0  0  0  0  0  0  0  0
    0.4000   10.3270   -2.6580 C   0  0  0  0  0  0  0  0  0  0  0  0
    0.6800   10.4450   -1.3470 C   0  0  0  0  0  0  0  0  0  0  0  0
   -0.4400   10.6440   -0.3170 C   0  0  1  0  0  0  0  0  0  0  0  0
   -0.0510   11.7860    0.6580 C   0  0  0  0  0  0  0  0  0  0  0  0
    1.3090   11.5600    1.3110 C   0  0  0  0  0  0  0  0  0  0  0  0
    2.4050   11.4250    0.2570 C   0  0  2  0  0  0  0  0  0  0  0  0
    2.5590   12.6810   -0.4100 O   0  0  0  0  0  0  0  0  0  0  0  0
    2.1180   10.3100   -0.7870 C   0  0  0  0  0  0  0  0  0  0  0  0
    2.2490    8.9210   -0.1150 C   0  0  0  0  0  0  0  0  0  0  0  0
    3.2270   10.3750   -1.8720 C   0  0  0  0  0  0  0  0  0  0  0  0
   -1.9040   10.8200   -0.9100 C   0  0  1  0  0  0  0  0  0  0  0  0
   -2.1630   12.3200   -1.2490 C   0  0  0  0  0  0  0  0  0  0  0  0
   -2.9560   10.4260    0.1920 C   0  0  0  0  0  0  0  0  0  0  0  0
   -3.3580    8.9400    0.2700 C   0  0  0  0  0  0  0  0  0  0  0  0
   -3.7290    8.4000   -1.1150 C   0  0  2  0  0  0  0  0  0  0  0  0
   -4.9820    9.1940   -1.6190 C   0  0  0  0  0  0  0  0  0  0  0  0
   -5.8122    4.3391   -0.3058 H   0  0  0  0  0  0  0  0  0  0  0  0
   -6.6036    4.9802   -1.7854 H   0  0  0  0  0  0  0  0  0  0  0  0
   -4.8396    4.6412   -1.7854 H   0  0  0  0  0  0  0  0  0  0  0  0
   -5.4191    6.4193    0.3939 H   0  0  0  0  0  0  0  0  0  0  0  0
   -6.5708    8.2265   -0.4328 H   0  0  0  0  0  0  0  0  0  0  0  0
   -6.2100    7.7715   -2.1665 H   0  0  0  0  0  0  0  0  0  0  0  0
   -8.3984    7.2198   -2.1774 H   0  0  0  0  0  0  0  0  0  0  0  0
   -7.7525    5.6900   -1.4501 H   0  0  0  0  0  0  0  0  0  0  0  0
   -7.8611    7.3907    0.4612 H   0  0  0  0  0  0  0  0  0  0  0  0
  -11.9219    7.9539   -1.2408 H   0  0  0  0  0  0  0  0  0  0  0  0
  -10.3613    8.4004   -2.0101 H   0  0  0  0  0  0  0  0  0  0  0  0
  -10.9053    6.6885   -2.0101 H   0  0  0  0  0  0  0  0  0  0  0  0
  -10.3659    7.6008    1.9808 H   0  0  0  0  0  0  0  0  0  0  0  0
  -10.5451    9.1321    1.0591 H   0  0  0  0  0  0  0  0  0  0  0  0
  -11.8736    7.9231    1.0591 H   0  0  0  0  0  0  0  0  0  0  0  0
   -3.3977    6.3230   -0.5222 H   0  0  0  0  0  0  0  0  0  0  0  0
   -3.2942    5.6283   -2.8337 H   0  0  0  0  0  0  0  0  0  0  0  0
   -4.7926    6.4923   -3.2407 H   0  0  0  0  0  0  0  0  0  0  0  0
   -2.1476    7.3590   -3.8887 H   0  0  0  0  0  0  0  0  0  0  0  0
   -3.5705    8.3945   -3.9602 H   0  0  0  0  0  0  0  0  0  0  0  0
   -1.2097    7.6651   -0.4623 H   0  0  0  0  0  0  0  0  0  0  0  0
   -1.3065    6.6501   -1.9412 H   0  0  0  0  0  0  0  0  0  0  0  0
   -0.3098    8.1445   -1.9412 H   0  0  0  0  0  0  0  0  0  0  0  0
   -3.0199   10.4058   -2.7278 H   0  0  0  0  0  0  0  0  0  0  0  0
   -0.9841    9.4817   -4.0087 H   0  0  0  0  0  0  0  0  0  0  0  0
   -1.1562   11.2820   -3.6654 H   0  0  0  0  0  0  0  0  0  0  0  0
    1.2519   10.2595   -3.3506 H   0  0  0  0  0  0  0  0  0  0  0  0
   -0.5187    9.6948    0.2332 H   0  0  0  0  0  0  0  0  0  0  0  0
   -0.0204   12.7324    0.0982 H   0  0  0  0  0  0  0  0  0  0  0  0
   -0.8052   11.8131    1.4583 H   0  0  0  0  0  0  0  0  0  0  0  0
    1.5410   12.4141    1.9642 H   0  0  0  0  0  0  0  0  0  0  0  0
    1.2674   10.6289    1.8953 H   0  0  0  0  0  0  0  0  0  0  0  0
    3.3297   11.1353    0.7776 H   0  0  0  0  0  0  0  0  0  0  0  0
    3.1920   13.2120    0.1040 H   0  0  0  0  0  0  0  0  0  0  0  0
    2.2378    9.0402    0.9785 H   0  0  0  0  0  0  0  0  0  0  0  0
    1.4070    8.2838   -0.4231 H   0  0  0  0  0  0  0  0  0  0  0  0
    3.1953    8.4524   -0.4231 H   0  0  0  0  0  0  0  0  0  0  0  0
    4.2123   10.4327   -1.3863 H   0  0  0  0  0  0  0  0  0  0  0  0
    3.1797    9.4725   -2.4992 H   0  0  0  0  0  0  0  0  0  0  0  0
    3.0746   11.2658   -2.4992 H   0  0  0  0  0  0  0  0  0  0  0  0
   -2.2623   12.8948   -0.3164 H   0  0  0  0  0  0  0  0  0  0  0  0
   -1.3197   12.7144   -1.8349 H   0  0  0  0  0  0  0  0  0  0  0  0
   -3.0898   12.4088   -1.8349 H   0  0  0  0  0  0  0  0  0  0  0  0
   -2.5365   10.7089    1.1687 H   0  0  0  0  0  0  0  0  0  0  0  0
   -3.8772   10.9590   -0.0861 H   0  0  0  0  0  0  0  0  0  0  0  0
   -2.5133    8.3589    0.6686 H   0  0  0  0  0  0  0  0  0  0  0  0
   -4.2336    8.8472    0.9293 H   0  0  0  0  0  0  0  0  0  0  0  0
   -5.5571    9.5584   -0.7550 H   0  0  0  0  0  0  0  0  0  0  0  0
   -4.6536   10.0492   -2.2279 H   0  0  0  0  0  0  0  0  0  0  0  0
   -5.6151    8.5319   -2.2279 H   0  0  0  0  0  0  0  0  0  0  0  0
  1  2  1  0
  2  3  1  0
  3  4  1  0
  4  5  1  0
  5  6  1  0
  6  7  1  0
  7  8  1  0
  7  9  1  0
  2 10  1  0
 10 11  1  0
 11 12  1  0
 12 13  1  0
 13 14  1  1
 13 15  1  0
 15 16  1  0
 16 17  1  0
 17 18  2  0
 18 19  1  0
 19 20  1  0
 20 21  1  0
 21 22  1  0
 22 23  1  0
 22 24  1  0
 24 25  1  0
 24 26  1  0
 19 27  1  0
 27 28  1  6
 27 29  1  0
 29 30  1  0
 30 31  1  0
 31 32  1  6
  7  5  1  0
 31 10  1  0
 31 13  1  0
 27 15  1  0
 24 18  1  0
  1 33  1  0
  1 34  1  0
  1 35  1  0
  2 36  1  1
  3 37  1  0
  3 38  1  0
  4 39  1  0
  4 40  1  0
  5 41  1  1
  8 42  1  0
  8 43  1  0
  8 44  1  0
  9 45  1  0
  9 46  1  0
  9 47  1  0
 10 48  1  1
 11 49  1  0
 11 50  1  0
 12 51  1  0
 12 52  1  0
 14 53  1  0
 14 54  1  0
 14 55  1  0
 15 56  1  6
 16 57  1  0
 16 58  1  0
 17 59  1  0
 19 60  1  1
 20 61  1  0
 20 62  1  0
 21 63  1  0
 21 64  1  0
 22 65  1  1
 23 66  1  0
 25 67  1  0
 25 68  1  0
 25 69  1  0
 26 70  1  0
 26 71  1  0
 26 72  1  0
 28 73  1  0
 28 74  1  0
 28 75  1  0
 29 76  1  0
 29 77  1  0
 30 78  1  0
 30 79  1  0
 32 80  1  0
 32 81  1  0
 32 82  1  0
M  END
>  <meeko>  (18) 
{"is_sidechain": [false], "intermolecular_energy": 2.731, "internal_energy": -0.839}

$$$$
