EPH_relaxed_0001_pdb2pqr_Repair_373_r2_0001_out
     RDKit          3D

 82 86  0  0  0  0  0  0  0  0999 V2000
   -1.5960    8.5790   -1.8160 C   0  0  0  0  0  0  0  0  0  0  0  0
   -1.9750    9.1480   -0.4460 C   0  0  2  0  0  0  0  0  0  0  0  0
   -3.4630    9.5470   -0.3750 C   0  0  0  0  0  0  0  0  0  0  0  0
   -4.3610    8.4670    0.2360 C   0  0  0  0  0  0  0  0  0  0  0  0
   -5.7320    8.4800   -0.3680 C   0  0  2  0  0  0  0  0  0  0  0  0
   -6.4670    7.2590   -0.2110 O   0  0  0  0  0  0  0  0  0  0  0  0
   -6.1300    7.6270   -1.5590 C   0  0  0  0  0  0  0  0  0  0  0  0
   -5.1540    6.7020   -2.2160 C   0  0  0  0  0  0  0  0  0  0  0  0
   -7.3070    8.0500   -2.3800 C   0  0  0  0  0  0  0  0  0  0  0  0
   -1.0970   10.3510   -0.1220 C   0  0  1  0  0  0  0  0  0  0  0  0
   -0.0060   10.0280    0.9330 C   0  0  0  0  0  0  0  0  0  0  0  0
    1.2450   10.8620    0.5530 C   0  0  0  0  0  0  0  0  0  0  0  0
    0.7320   11.8770   -0.4960 C   0  0  1  0  0  0  0  0  0  0  0  0
    0.0700   13.0170    0.3400 C   0  0  0  0  0  0  0  0  0  0  0  0
    1.7980   12.4370   -1.4940 C   0  0  2  0  0  0  0  0  0  0  0  0
    2.9380   13.2420   -0.8470 C   0  0  0  0  0  0  0  0  0  0  0  0
    2.6930   14.7090   -0.7240 C   0  0  0  0  0  0  0  0  0  0  0  0
    1.7330   15.3980   -1.3670 C   0  0  0  0  0  0  0  0  0  0  0  0
    0.8290   14.7130   -2.4010 C   0  0  1  0  0  0  0  0  0  0  0  0
    0.7310   15.5980   -3.6710 C   0  0  0  0  0  0  0  0  0  0  0  0
    0.2830   17.0220   -3.3580 C   0  0  0  0  0  0  0  0  0  0  0  0
    1.2380   17.6900   -2.3730 C   0  0  2  0  0  0  0  0  0  0  0  0
    2.5060   17.8700   -3.0100 O   0  0  0  0  0  0  0  0  0  0  0  0
    1.4240   16.8840   -1.0570 C   0  0  0  0  0  0  0  0  0  0  0  0
    0.1220   16.9450   -0.2200 C   0  0  0  0  0  0  0  0  0  0  0  0
    2.5170   17.5930   -0.2130 C   0  0  0  0  0  0  0  0  0  0  0  0
    1.1840   13.2000   -2.7370 C   0  0  1  0  0  0  0  0  0  0  0  0
    2.2560   13.1440   -3.8680 C   0  0  0  0  0  0  0  0  0  0  0  0
   -0.0990   12.4850   -3.3040 C   0  0  0  0  0  0  0  0  0  0  0  0
   -1.0520   11.8480   -2.2750 C   0  0  0  0  0  0  0  0  0  0  0  0
   -0.2810   10.9700   -1.2850 C   0  0  2  0  0  0  0  0  0  0  0  0
    0.3780    9.8010   -2.0940 C   0  0  0  0  0  0  0  0  0  0  0  0
   -0.9908    7.6704   -1.6810 H   0  0  0  0  0  0  0  0  0  0  0  0
   -2.5100    8.3310   -2.3756 H   0  0  0  0  0  0  0  0  0  0  0  0
   -1.0149    9.3268   -2.3756 H   0  0  0  0  0  0  0  0  0  0  0  0
   -1.8096    8.3558    0.2991 H   0  0  0  0  0  0  0  0  0  0  0  0
   -3.5497   10.4575    0.2361 H   0  0  0  0  0  0  0  0  0  0  0  0
   -3.8042    9.7019   -1.4092 H   0  0  0  0  0  0  0  0  0  0  0  0
   -3.9036    7.4820    0.0610 H   0  0  0  0  0  0  0  0  0  0  0  0
   -4.4584    8.6705    1.3126 H   0  0  0  0  0  0  0  0  0  0  0  0
   -5.8381    9.5554   -0.1624 H   0  0  0  0  0  0  0  0  0  0  0  0
   -4.5844    6.1622   -1.4451 H   0  0  0  0  0  0  0  0  0  0  0  0
   -5.6979    5.9801   -2.8429 H   0  0  0  0  0  0  0  0  0  0  0  0
   -4.4623    7.2839   -2.8429 H   0  0  0  0  0  0  0  0  0  0  0  0
   -8.1310    8.3461   -1.7142 H   0  0  0  0  0  0  0  0  0  0  0  0
   -7.0239    8.9026   -3.0147 H   0  0  0  0  0  0  0  0  0  0  0  0
   -7.6314    7.2122   -3.0147 H   0  0  0  0  0  0  0  0  0  0  0  0
   -1.8701   11.0583    0.2129 H   0  0  0  0  0  0  0  0  0  0  0  0
   -0.3563   10.3070    1.9377 H   0  0  0  0  0  0  0  0  0  0  0  0
    0.2252    8.9526    0.9454 H   0  0  0  0  0  0  0  0  0  0  0  0
    1.6466   11.3836    1.4343 H   0  0  0  0  0  0  0  0  0  0  0  0
    2.0617   10.2362    0.1640 H   0  0  0  0  0  0  0  0  0  0  0  0
    0.1934   12.8045    1.4122 H   0  0  0  0  0  0  0  0  0  0  0  0
    0.5517   13.9760    0.0985 H   0  0  0  0  0  0  0  0  0  0  0  0
   -1.0016   13.0739    0.0985 H   0  0  0  0  0  0  0  0  0  0  0  0
    2.2638   11.5189   -1.8815 H   0  0  0  0  0  0  0  0  0  0  0  0
    3.1074   12.8399    0.1628 H   0  0  0  0  0  0  0  0  0  0  0  0
    3.8046   13.1334   -1.5158 H   0  0  0  0  0  0  0  0  0  0  0  0
    3.3534   15.2749   -0.0505 H   0  0  0  0  0  0  0  0  0  0  0  0
   -0.1612   14.6266   -1.9298 H   0  0  0  0  0  0  0  0  0  0  0  0
    1.7200   15.6369   -4.1509 H   0  0  0  0  0  0  0  0  0  0  0  0
   -0.0231   15.1487   -4.3339 H   0  0  0  0  0  0  0  0  0  0  0  0
    0.2610   17.6056   -4.2902 H   0  0  0  0  0  0  0  0  0  0  0  0
   -0.7185   16.9834   -2.9047 H   0  0  0  0  0  0  0  0  0  0  0  0
    0.7956   18.6562   -2.0889 H   0  0  0  0  0  0  0  0  0  0  0  0
    2.7770   17.0110   -3.3760 H   0  0  0  0  0  0  0  0  0  0  0  0
    0.3736   16.9332    0.8508 H   0  0  0  0  0  0  0  0  0  0  0  0
   -0.4240   17.8697   -0.4582 H   0  0  0  0  0  0  0  0  0  0  0  0
   -0.5081   16.0754   -0.4582 H   0  0  0  0  0  0  0  0  0  0  0  0
    2.3021   17.4536    0.8568 H   0  0  0  0  0  0  0  0  0  0  0  0
    3.5005   17.1604   -0.4488 H   0  0  0  0  0  0  0  0  0  0  0  0
    2.5229   18.6674   -0.4488 H   0  0  0  0  0  0  0  0  0  0  0  0
    3.2593   13.0916   -3.4200 H   0  0  0  0  0  0  0  0  0  0  0  0
    2.0856   12.2535   -4.4909 H   0  0  0  0  0  0  0  0  0  0  0  0
    2.1793   14.0474   -4.4909 H   0  0  0  0  0  0  0  0  0  0  0  0
   -0.6732   13.2325   -3.8710 H   0  0  0  0  0  0  0  0  0  0  0  0
    0.2814   11.6442   -3.9026 H   0  0  0  0  0  0  0  0  0  0  0  0
   -1.5694   12.6455   -1.7216 H   0  0  0  0  0  0  0  0  0  0  0  0
   -1.7776   11.2187   -2.8111 H   0  0  0  0  0  0  0  0  0  0  0  0
    0.7951    9.0610   -1.3951 H   0  0  0  0  0  0  0  0  0  0  0  0
   -0.3817    9.3196   -2.7274 H   0  0  0  0  0  0  0  0  0  0  0  0
    1.1831   10.2017   -2.7274 H   0  0  0  0  0  0  0  0  0  0  0  0
  1  2  1  0
  2  3  1  0
  3  4  1  0
  4  5  1  0
  5  6  1  0
  6  7  1  0
  7  8  1  0
  7  9  1  0
  2 10  1  0
 10 11  1  0
 11 12  1  0
 12 13  1  0
 13 14  1  1
 13 15  1  0
 15 16  1  0
 16 17  1  0
 17 18  2  0
 18 19  1  0
 19 20  1  0
 20 21  1  0
 21 22  1  0
 22 23  1  0
 22 24  1  0
 24 25  1  0
 24 26  1  0
 19 27  1  0
 27 28  1  6
 27 29  1  0
 29 30  1  0
 30 31  1  0
 31 32  1  6
  7  5  1  0
 31 10  1  0
 31 13  1  0
 27 15  1  0
 24 18  1  0
  1 33  1  0
  1 34  1  0
  1 35  1  0
  2 36  1  1
  3 37  1  0
  3 38  1  0
  4 39  1  0
  4 40  1  0
  5 41  1  6
  8 42  1  0
  8 43  1  0
  8 44  1  0
  9 45  1  0
  9 46  1  0
  9 47  1  0
 10 48  1  1
 11 49  1  0
 11 50  1  0
 12 51  1  0
 12 52  1  0
 14 53  1  0
 14 54  1  0
 14 55  1  0
 15 56  1  6
 16 57  1  0
 16 58  1  0
 17 59  1  0
 19 60  1  1
 20 61  1  0
 20 62  1  0
 21 63  1  0
 21 64  1  0
 22 65  1  1
 23 66  1  0
 25 67  1  0
 25 68  1  0
 25 69  1  0
 26 70  1  0
 26 71  1  0
 26 72  1  0
 28 73  1  0
 28 74  1  0
 28 75  1  0
 29 76  1  0
 29 77  1  0
 30 78  1  0
 30 79  1  0
 32 80  1  0
 32 81  1  0
 32 82  1  0
M  END
>  <meeko>  (1) 
{"is_sidechain": [false], "intermolecular_energy": 2.731, "internal_energy": -0.839}

$$$$
EPH_relaxed_0001_pdb2pqr_Repair_373_r2_0001_out
     RDKit          3D

 82 86  0  0  0  0  0  0  0  0999 V2000
    4.3420   17.3320   -0.5600 C   0  0  0  0  0  0  0  0  0  0  0  0
    2.9780   17.9550   -0.2530 C   0  0  2  0  0  0  0  0  0  0  0  0
    2.9850   18.7470    1.0700 C   0  0  0  0  0  0  0  0  0  0  0  0
    4.3180   18.6800    1.8200 C   0  0  0  0  0  0  0  0  0  0  0  0
    4.1950   19.2100    3.2170 C   0  0  2  0  0  0  0  0  0  0  0  0
    5.1750   20.1940    3.5710 O   0  0  0  0  0  0  0  0  0  0  0  0
    5.2260   18.9580    4.3010 C   0  0  0  0  0  0  0  0  0  0  0  0
    6.4540   18.1450    4.0360 C   0  0  0  0  0  0  0  0  0  0  0  0
    4.8050   19.0840    5.7320 C   0  0  0  0  0  0  0  0  0  0  0  0
    1.9090   16.8700   -0.2040 C   0  0  1  0  0  0  0  0  0  0  0  0
    0.4790   17.4280   -0.4280 C   0  0  0  0  0  0  0  0  0  0  0  0
   -0.3070   16.3450   -1.2100 C   0  0  0  0  0  0  0  0  0  0  0  0
    0.5780   15.0800   -1.1210 C   0  0  1  0  0  0  0  0  0  0  0  0
    0.2680   14.4710    0.2820 C   0  0  0  0  0  0  0  0  0  0  0  0
    0.3940   14.0260   -2.2620 C   0  0  2  0  0  0  0  0  0  0  0  0
   -1.0060   13.3930   -2.3440 C   0  0  0  0  0  0  0  0  0  0  0  0
   -1.1900   12.1450   -1.5450 C   0  0  0  0  0  0  0  0  0  0  0  0
   -0.2000   11.4000   -1.0200 C   0  0  0  0  0  0  0  0  0  0  0  0
    1.2710   11.7380   -1.2940 C   0  0  1  0  0  0  0  0  0  0  0  0
    2.0380   10.4450   -1.6770 C   0  0  0  0  0  0  0  0  0  0  0  0
    1.8770    9.3400   -0.6370 C   0  0  0  0  0  0  0  0  0  0  0  0
    0.4050    8.9910   -0.4350 C   0  0  2  0  0  0  0  0  0  0  0  0
   -0.0970    8.3960   -1.6360 O   0  0  0  0  0  0  0  0  0  0  0  0
   -0.4690   10.2190   -0.0550 C   0  0  0  0  0  0  0  0  0  0  0  0
   -0.1240   10.6790    1.3830 C   0  0  0  0  0  0  0  0  0  0  0  0
   -1.9510    9.7580   -0.0190 C   0  0  0  0  0  0  0  0  0  0  0  0
    1.5300   12.9270   -2.3180 C   0  0  1  0  0  0  0  0  0  0  0  0
    1.5470   12.3780   -3.7770 C   0  0  0  0  0  0  0  0  0  0  0  0
    2.9600   13.5300   -2.0530 C   0  0  0  0  0  0  0  0  0  0  0  0
    3.0580   14.6510   -1.0010 C   0  0  0  0  0  0  0  0  0  0  0  0
    2.0030   15.7320   -1.2520 C   0  0  2  0  0  0  0  0  0  0  0  0
    2.3020   16.3780   -2.6480 C   0  0  0  0  0  0  0  0  0  0  0  0
    4.8580   17.0963    0.3825 H   0  0  0  0  0  0  0  0  0  0  0  0
    4.2010   16.4090   -1.1416 H   0  0  0  0  0  0  0  0  0  0  0  0
    4.9473   18.0429   -1.1416 H   0  0  0  0  0  0  0  0  0  0  0  0
    2.7502   18.6650   -1.0617 H   0  0  0  0  0  0  0  0  0  0  0  0
    2.7657   19.8012    0.8449 H   0  0  0  0  0  0  0  0  0  0  0  0
    2.2258   18.2905    1.7221 H   0  0  0  0  0  0  0  0  0  0  0  0
    4.6500   17.6322    1.8641 H   0  0  0  0  0  0  0  0  0  0  0  0
    5.0471   19.3020    1.2800 H   0  0  0  0  0  0  0  0  0  0  0  0
    3.1025   19.0838    3.1945 H   0  0  0  0  0  0  0  0  0  0  0  0
    6.9080   17.8444    4.9918 H   0  0  0  0  0  0  0  0  0  0  0  0
    6.1825   17.2476    3.4607 H   0  0  0  0  0  0  0  0  0  0  0  0
    7.1741   18.7454    3.4607 H   0  0  0  0  0  0  0  0  0  0  0  0
    5.6517   18.8306    6.3870 H   0  0  0  0  0  0  0  0  0  0  0  0
    4.4845   20.1174    5.9303 H   0  0  0  0  0  0  0  0  0  0  0  0
    3.9695   18.3966    5.9303 H   0  0  0  0  0  0  0  0  0  0  0  0
    2.0977   16.4713    0.8037 H   0  0  0  0  0  0  0  0  0  0  0  0
   -0.0068   17.6241    0.5392 H   0  0  0  0  0  0  0  0  0  0  0  0
    0.5080   18.3751   -0.9866 H   0  0  0  0  0  0  0  0  0  0  0  0
   -1.2880   16.1660   -0.7457 H   0  0  0  0  0  0  0  0  0  0  0  0
   -0.5053   16.6430   -2.2501 H   0  0  0  0  0  0  0  0  0  0  0  0
    0.6181   15.1588    1.0658 H   0  0  0  0  0  0  0  0  0  0  0  0
   -0.8167   14.3199    0.3846 H   0  0  0  0  0  0  0  0  0  0  0  0
    0.7841   13.5050    0.3846 H   0  0  0  0  0  0  0  0  0  0  0  0
    0.4988   14.6385   -3.1696 H   0  0  0  0  0  0  0  0  0  0  0  0
   -1.7358   14.1351   -1.9881 H   0  0  0  0  0  0  0  0  0  0  0  0
   -1.1481   13.1044   -3.3959 H   0  0  0  0  0  0  0  0  0  0  0  0
   -2.2219   11.8061   -1.3709 H   0  0  0  0  0  0  0  0  0  0  0  0
    1.6700   12.1429   -0.3523 H   0  0  0  0  0  0  0  0  0  0  0  0
    1.6549   10.0802   -2.6414 H   0  0  0  0  0  0  0  0  0  0  0  0
    3.1075   10.6958   -1.7353 H   0  0  0  0  0  0  0  0  0  0  0  0
    2.4160    8.4437   -0.9778 H   0  0  0  0  0  0  0  0  0  0  0  0
    2.2879    9.6956    0.3194 H   0  0  0  0  0  0  0  0  0  0  0  0
    0.3452    8.2898    0.4105 H   0  0  0  0  0  0  0  0  0  0  0  0
    0.3300    8.8430   -2.3860 H   0  0  0  0  0  0  0  0  0  0  0  0
   -0.6201   10.0175    2.1085 H   0  0  0  0  0  0  0  0  0  0  0  0
    0.9651   10.6342    1.5309 H   0  0  0  0  0  0  0  0  0  0  0  0
   -0.4719   11.7120    1.5309 H   0  0  0  0  0  0  0  0  0  0  0  0
   -2.2781    9.6563    1.0263 H   0  0  0  0  0  0  0  0  0  0  0  0
   -2.5793   10.5032   -0.5289 H   0  0  0  0  0  0  0  0  0  0  0  0
   -2.0457    8.7879   -0.5289 H   0  0  0  0  0  0  0  0  0  0  0  0
    1.5810   11.2788   -3.7548 H   0  0  0  0  0  0  0  0  0  0  0  0
    0.6383   12.7061   -4.3029 H   0  0  0  0  0  0  0  0  0  0  0  0
    2.4337   12.7617   -4.3029 H   0  0  0  0  0  0  0  0  0  0  0  0
    3.6121   12.7074   -1.7242 H   0  0  0  0  0  0  0  0  0  0  0  0
    3.2540   14.0006   -3.0028 H   0  0  0  0  0  0  0  0  0  0  0  0
    2.9013   14.2206   -0.0009 H   0  0  0  0  0  0  0  0  0  0  0  0
    4.0548   15.1109   -1.0704 H   0  0  0  0  0  0  0  0  0  0  0  0
    2.7600   17.3676   -2.5035 H   0  0  0  0  0  0  0  0  0  0  0  0
    2.9930   15.7327   -3.2102 H   0  0  0  0  0  0  0  0  0  0  0  0
    1.3629   16.4872   -3.2102 H   0  0  0  0  0  0  0  0  0  0  0  0
  1  2  1  0
  2  3  1  0
  3  4  1  0
  4  5  1  0
  5  6  1  0
  6  7  1  0
  7  8  1  0
  7  9  1  0
  2 10  1  0
 10 11  1  0
 11 12  1  0
 12 13  1  0
 13 14  1  1
 13 15  1  0
 15 16  1  0
 16 17  1  0
 17 18  2  0
 18 19  1  0
 19 20  1  0
 20 21  1  0
 21 22  1  0
 22 23  1  0
 22 24  1  0
 24 25  1  0
 24 26  1  0
 19 27  1  0
 27 28  1  6
 27 29  1  0
 29 30  1  0
 30 31  1  0
 31 32  1  6
  7  5  1  0
 31 10  1  0
 31 13  1  0
 27 15  1  0
 24 18  1  0
  1 33  1  0
  1 34  1  0
  1 35  1  0
  2 36  1  6
  3 37  1  0
  3 38  1  0
  4 39  1  0
  4 40  1  0
  5 41  1  1
  8 42  1  0
  8 43  1  0
  8 44  1  0
  9 45  1  0
  9 46  1  0
  9 47  1  0
 10 48  1  1
 11 49  1  0
 11 50  1  0
 12 51  1  0
 12 52  1  0
 14 53  1  0
 14 54  1  0
 14 55  1  0
 15 56  1  6
 16 57  1  0
 16 58  1  0
 17 59  1  0
 19 60  1  1
 20 61  1  0
 20 62  1  0
 21 63  1  0
 21 64  1  0
 22 65  1  1
 23 66  1  0
 25 67  1  0
 25 68  1  0
 25 69  1  0
 26 70  1  0
 26 71  1  0
 26 72  1  0
 28 73  1  0
 28 74  1  0
 28 75  1  0
 29 76  1  0
 29 77  1  0
 30 78  1  0
 30 79  1  0
 32 80  1  0
 32 81  1  0
 32 82  1  0
M  END
>  <meeko>  (2) 
{"is_sidechain": [false], "intermolecular_energy": 2.731, "internal_energy": -0.839}

$$$$
EPH_relaxed_0001_pdb2pqr_Repair_373_r2_0001_out
     RDKit          3D

 82 86  0  0  0  0  0  0  0  0999 V2000
    2.3580   17.9610   -2.6970 C   0  0  0  0  0  0  0  0  0  0  0  0
    1.0410   17.5950   -2.0060 C   0  0  2  0  0  0  0  0  0  0  0  0
    1.1520   17.6650   -0.4700 C   0  0  0  0  0  0  0  0  0  0  0  0
    0.8380   19.0470    0.1080 C   0  0  0  0  0  0  0  0  0  0  0  0
   -0.5960   19.1580    0.5310 C   0  0  2  0  0  0  0  0  0  0  0  0
   -1.4860   18.2450   -0.1240 O   0  0  0  0  0  0  0  0  0  0  0  0
   -1.7040   19.6410   -0.3860 C   0  0  0  0  0  0  0  0  0  0  0  0
   -1.4270   20.0450   -1.8000 C   0  0  0  0  0  0  0  0  0  0  0  0
   -2.9570   20.1810    0.2290 C   0  0  0  0  0  0  0  0  0  0  0  0
    0.6000   16.2000   -2.4340 C   0  0  1  0  0  0  0  0  0  0  0  0
    0.6920   15.9890   -3.9690 C   0  0  0  0  0  0  0  0  0  0  0  0
    1.1010   14.5100   -4.1930 C   0  0  0  0  0  0  0  0  0  0  0  0
    0.9080   13.8390   -2.8130 C   0  0  1  0  0  0  0  0  0  0  0  0
   -0.6200   13.5340   -2.7260 C   0  0  0  0  0  0  0  0  0  0  0  0
    1.7680   12.5620   -2.5400 C   0  0  2  0  0  0  0  0  0  0  0  0
    1.4910   11.3750   -3.4790 C   0  0  0  0  0  0  0  0  0  0  0  0
    0.4380   10.4240   -3.0120 C   0  0  0  0  0  0  0  0  0  0  0  0
   -0.0550   10.3560   -1.7610 C   0  0  0  0  0  0  0  0  0  0  0  0
    0.5200   11.2310   -0.6390 C   0  0  1  0  0  0  0  0  0  0  0  0
    0.7570   10.3620    0.6240 C   0  0  0  0  0  0  0  0  0  0  0  0
   -0.4950    9.6060    1.0570 C   0  0  0  0  0  0  0  0  0  0  0  0
   -1.0030    8.7040   -0.0650 C   0  0  2  0  0  0  0  0  0  0  0  0
   -0.0450    7.6650   -0.2900 O   0  0  0  0  0  0  0  0  0  0  0  0
   -1.2680    9.4670   -1.3920 C   0  0  0  0  0  0  0  0  0  0  0  0
   -2.5080   10.3800   -1.2290 C   0  0  0  0  0  0  0  0  0  0  0  0
   -1.6390    8.4220   -2.4790 C   0  0  0  0  0  0  0  0  0  0  0  0
    1.7890   12.1070   -1.0240 C   0  0  1  0  0  0  0  0  0  0  0  0
    3.0920   11.2720   -0.8280 C   0  0  0  0  0  0  0  0  0  0  0  0
    1.8900   13.3270   -0.0350 C   0  0  0  0  0  0  0  0  0  0  0  0
    1.1140   14.6010   -0.4200 C   0  0  0  0  0  0  0  0  0  0  0  0
    1.4000   14.9980   -1.8720 C   0  0  2  0  0  0  0  0  0  0  0  0
    2.9260   15.3320   -1.9850 C   0  0  0  0  0  0  0  0  0  0  0  0
    3.1241   18.1739   -1.9369 H   0  0  0  0  0  0  0  0  0  0  0  0
    2.6884   17.1206   -3.3252 H   0  0  0  0  0  0  0  0  0  0  0  0
    2.2074   18.8513   -3.3252 H   0  0  0  0  0  0  0  0  0  0  0  0
    0.2878   18.3343   -2.3160 H   0  0  0  0  0  0  0  0  0  0  0  0
    0.4472   16.9396   -0.0376 H   0  0  0  0  0  0  0  0  0  0  0  0
    2.1975   17.4394   -0.2130 H   0  0  0  0  0  0  0  0  0  0  0  0
    1.4822   19.2226    0.9822 H   0  0  0  0  0  0  0  0  0  0  0  0
    1.0236   19.7967   -0.6753 H   0  0  0  0  0  0  0  0  0  0  0  0
   -0.2975   19.4550    1.5472 H   0  0  0  0  0  0  0  0  0  0  0  0
   -0.8050   20.9522   -1.8070 H   0  0  0  0  0  0  0  0  0  0  0  0
   -0.8955   19.2320   -2.3162 H   0  0  0  0  0  0  0  0  0  0  0  0
   -2.3770   20.2478   -2.3162 H   0  0  0  0  0  0  0  0  0  0  0  0
   -2.8726   20.1446    1.3252 H   0  0  0  0  0  0  0  0  0  0  0  0
   -3.1042   21.2224   -0.0931 H   0  0  0  0  0  0  0  0  0  0  0  0
   -3.8151   19.5728   -0.0931 H   0  0  0  0  0  0  0  0  0  0  0  0
   -0.4215   16.1960   -2.0260 H   0  0  0  0  0  0  0  0  0  0  0  0
   -0.2830   16.1877   -4.4379 H   0  0  0  0  0  0  0  0  0  0  0  0
    1.4255   16.6743   -4.4189 H   0  0  0  0  0  0  0  0  0  0  0  0
    0.4548   14.0384   -4.9480 H   0  0  0  0  0  0  0  0  0  0  0  0
    2.1323   14.4137   -4.5633 H   0  0  0  0  0  0  0  0  0  0  0  0
   -0.9223   13.4737   -1.6701 H   0  0  0  0  0  0  0  0  0  0  0  0
   -1.1832   14.3374   -3.2233 H   0  0  0  0  0  0  0  0  0  0  0  0
   -0.8316   12.5759   -3.2233 H   0  0  0  0  0  0  0  0  0  0  0  0
    2.7839   12.9053   -2.7850 H   0  0  0  0  0  0  0  0  0  0  0  0
    1.1769   11.7783   -4.4530 H   0  0  0  0  0  0  0  0  0  0  0  0
    2.4257   10.7967   -3.5222 H   0  0  0  0  0  0  0  0  0  0  0  0
    0.0310    9.7199   -3.7527 H   0  0  0  0  0  0  0  0  0  0  0  0
   -0.2417   11.9962   -0.4287 H   0  0  0  0  0  0  0  0  0  0  0  0
    1.5516    9.6330    0.4065 H   0  0  0  0  0  0  0  0  0  0  0  0
    1.0404   11.0367    1.4452 H   0  0  0  0  0  0  0  0  0  0  0  0
   -0.2568    8.9884    1.9355 H   0  0  0  0  0  0  0  0  0  0  0  0
   -1.2795   10.3371    1.3021 H   0  0  0  0  0  0  0  0  0  0  0  0
   -1.9701    8.2900    0.2565 H   0  0  0  0  0  0  0  0  0  0  0  0
    0.8400    8.0660   -0.2460 H   0  0  0  0  0  0  0  0  0  0  0  0
   -2.7137   10.5315   -0.1591 H   0  0  0  0  0  0  0  0  0  0  0  0
   -2.3131   11.3518   -1.7061 H   0  0  0  0  0  0  0  0  0  0  0  0
   -3.3781    9.9053   -1.7061 H   0  0  0  0  0  0  0  0  0  0  0  0
   -1.9695    7.4911   -1.9951 H   0  0  0  0  0  0  0  0  0  0  0  0
   -2.4515    8.8178   -3.1060 H   0  0  0  0  0  0  0  0  0  0  0  0
   -0.7588    8.2168   -3.1060 H   0  0  0  0  0  0  0  0  0  0  0  0
    3.2886   11.1460    0.2469 H   0  0  0  0  0  0  0  0  0  0  0  0
    2.9685   10.2844   -1.2964 H   0  0  0  0  0  0  0  0  0  0  0  0
    3.9377   11.7968   -1.2964 H   0  0  0  0  0  0  0  0  0  0  0  0
    1.5162   12.9931    0.9442 H   0  0  0  0  0  0  0  0  0  0  0  0
    2.9499   13.6210   -0.0488 H   0  0  0  0  0  0  0  0  0  0  0  0
    0.0361   14.4152   -0.3031 H   0  0  0  0  0  0  0  0  0  0  0  0
    1.4363   15.4211    0.2384 H   0  0  0  0  0  0  0  0  0  0  0  0
    3.3563   15.4262   -0.9771 H   0  0  0  0  0  0  0  0  0  0  0  0
    3.4387   14.5248   -2.5286 H   0  0  0  0  0  0  0  0  0  0  0  0
    3.0547   16.2796   -2.5286 H   0  0  0  0  0  0  0  0  0  0  0  0
  1  2  1  0
  2  3  1  0
  3  4  1  0
  4  5  1  0
  5  6  1  0
  6  7  1  0
  7  8  1  0
  7  9  1  0
  2 10  1  0
 10 11  1  0
 11 12  1  0
 12 13  1  0
 13 14  1  1
 13 15  1  0
 15 16  1  0
 16 17  1  0
 17 18  2  0
 18 19  1  0
 19 20  1  0
 20 21  1  0
 21 22  1  0
 22 23  1  0
 22 24  1  0
 24 25  1  0
 24 26  1  0
 19 27  1  0
 27 28  1  6
 27 29  1  0
 29 30  1  0
 30 31  1  0
 31 32  1  1
  7  5  1  0
 31 10  1  0
 31 13  1  0
 27 15  1  0
 24 18  1  0
  1 33  1  0
  1 34  1  0
  1 35  1  0
  2 36  1  6
  3 37  1  0
  3 38  1  0
  4 39  1  0
  4 40  1  0
  5 41  1  1
  8 42  1  0
  8 43  1  0
  8 44  1  0
  9 45  1  0
  9 46  1  0
  9 47  1  0
 10 48  1  1
 11 49  1  0
 11 50  1  0
 12 51  1  0
 12 52  1  0
 14 53  1  0
 14 54  1  0
 14 55  1  0
 15 56  1  6
 16 57  1  0
 16 58  1  0
 17 59  1  0
 19 60  1  1
 20 61  1  0
 20 62  1  0
 21 63  1  0
 21 64  1  0
 22 65  1  1
 23 66  1  0
 25 67  1  0
 25 68  1  0
 25 69  1  0
 26 70  1  0
 26 71  1  0
 26 72  1  0
 28 73  1  0
 28 74  1  0
 28 75  1  0
 29 76  1  0
 29 77  1  0
 30 78  1  0
 30 79  1  0
 32 80  1  0
 32 81  1  0
 32 82  1  0
M  END
>  <meeko>  (3) 
{"is_sidechain": [false], "intermolecular_energy": 2.731, "internal_energy": -0.839}

$$$$
EPH_relaxed_0001_pdb2pqr_Repair_373_r2_0001_out
     RDKit          3D

 82 86  0  0  0  0  0  0  0  0999 V2000
    0.4160   18.4060   -0.0320 C   0  0  0  0  0  0  0  0  0  0  0  0
    1.5060   17.3550   -0.2570 C   0  0  2  0  0  0  0  0  0  0  0  0
    2.7130   17.9250   -1.0280 C   0  0  0  0  0  0  0  0  0  0  0  0
    3.9450   18.1670   -0.1520 C   0  0  0  0  0  0  0  0  0  0  0  0
    3.5650   18.6360    1.2200 C   0  0  2  0  0  0  0  0  0  0  0  0
    3.8220   20.0240    1.4710 O   0  0  0  0  0  0  0  0  0  0  0  0
    4.5750   19.0870    2.2590 C   0  0  0  0  0  0  0  0  0  0  0  0
    6.0430   19.0910    1.9700 C   0  0  0  0  0  0  0  0  0  0  0  0
    4.1780   19.0580    3.7020 C   0  0  0  0  0  0  0  0  0  0  0  0
    0.9280   16.1590   -1.0050 C   0  0  1  0  0  0  0  0  0  0  0  0
    0.7980   16.4140   -2.5310 C   0  0  0  0  0  0  0  0  0  0  0  0
    1.0830   15.0630   -3.2360 C   0  0  0  0  0  0  0  0  0  0  0  0
    1.0390   14.0140   -2.1010 C   0  0  1  0  0  0  0  0  0  0  0  0
   -0.4790   13.7230   -1.8820 C   0  0  0  0  0  0  0  0  0  0  0  0
    1.8490   12.6990   -2.3440 C   0  0  2  0  0  0  0  0  0  0  0  0
    1.3760   11.8520   -3.5380 C   0  0  0  0  0  0  0  0  0  0  0  0
    0.3420   10.8230   -3.2200 C   0  0  0  0  0  0  0  0  0  0  0  0
    0.0200   10.3930   -1.9860 C   0  0  0  0  0  0  0  0  0  0  0  0
    0.7930   10.8820   -0.7550 C   0  0  1  0  0  0  0  0  0  0  0  0
    1.1470    9.6720    0.1490 C   0  0  0  0  0  0  0  0  0  0  0  0
   -0.0780    8.8420    0.5210 C   0  0  0  0  0  0  0  0  0  0  0  0
   -0.7870    8.3250   -0.7280 C   0  0  2  0  0  0  0  0  0  0  0  0
    0.0670    7.3850   -1.3870 O   0  0  0  0  0  0  0  0  0  0  0  0
   -1.1830    9.4550   -1.7190 C   0  0  0  0  0  0  0  0  0  0  0  0
   -2.3330   10.2990   -1.1140 C   0  0  0  0  0  0  0  0  0  0  0  0
   -1.7610    8.7880   -2.9970 C   0  0  0  0  0  0  0  0  0  0  0  0
    2.0480   11.8110   -1.0490 C   0  0  1  0  0  0  0  0  0  0  0  0
    3.3130   10.9340   -1.3000 C   0  0  0  0  0  0  0  0  0  0  0  0
    2.3560   12.6790    0.2290 C   0  0  0  0  0  0  0  0  0  0  0  0
    1.6130   14.0230    0.3520 C   0  0  0  0  0  0  0  0  0  0  0  0
    1.7220   14.8300   -0.9440 C   0  0  2  0  0  0  0  0  0  0  0  0
    3.2370   15.1570   -1.1790 C   0  0  0  0  0  0  0  0  0  0  0  0
    0.2647   18.5519    1.0477 H   0  0  0  0  0  0  0  0  0  0  0  0
    0.7235   19.3572   -0.4910 H   0  0  0  0  0  0  0  0  0  0  0  0
   -0.5234   18.0641   -0.4910 H   0  0  0  0  0  0  0  0  0  0  0  0
    1.8672   17.0364    0.7320 H   0  0  0  0  0  0  0  0  0  0  0  0
    2.9855   17.2135   -1.8214 H   0  0  0  0  0  0  0  0  0  0  0  0
    2.4061   18.9027   -1.4278 H   0  0  0  0  0  0  0  0  0  0  0  0
    4.5102   17.2274   -0.0639 H   0  0  0  0  0  0  0  0  0  0  0  0
    4.5548   18.9503   -0.6260 H   0  0  0  0  0  0  0  0  0  0  0  0
    2.7345   17.9159    1.2621 H   0  0  0  0  0  0  0  0  0  0  0  0
    6.6031   19.0925    2.9167 H   0  0  0  0  0  0  0  0  0  0  0  0
    6.3050   18.1936    1.3904 H   0  0  0  0  0  0  0  0  0  0  0  0
    6.3002   19.9898    1.3904 H   0  0  0  0  0  0  0  0  0  0  0  0
    5.0778   19.1237    4.3312 H   0  0  0  0  0  0  0  0  0  0  0  0
    3.5168   19.9102    3.9176 H   0  0  0  0  0  0  0  0  0  0  0  0
    3.6476   18.1187    3.9176 H   0  0  0  0  0  0  0  0  0  0  0  0
   -0.0270   16.0515   -0.4698 H   0  0  0  0  0  0  0  0  0  0  0  0
   -0.2179   16.7602   -2.7720 H   0  0  0  0  0  0  0  0  0  0  0  0
    1.5037   17.1896   -2.8634 H   0  0  0  0  0  0  0  0  0  0  0  0
    0.3131   14.8495   -3.9921 H   0  0  0  0  0  0  0  0  0  0  0  0
    2.0470   15.0641   -3.7659 H   0  0  0  0  0  0  0  0  0  0  0  0
   -0.6927   13.6820   -0.8037 H   0  0  0  0  0  0  0  0  0  0  0  0
   -1.0761   14.5230   -2.3440 H   0  0  0  0  0  0  0  0  0  0  0  0
   -0.7379   12.7589   -2.3440 H   0  0  0  0  0  0  0  0  0  0  0  0
    2.8412   13.0825   -2.6240 H   0  0  0  0  0  0  0  0  0  0  0  0
    0.9567   12.5332   -4.2931 H   0  0  0  0  0  0  0  0  0  0  0  0
    2.2597   11.2977   -3.8870 H   0  0  0  0  0  0  0  0  0  0  0  0
   -0.2028   10.3787   -4.0660 H   0  0  0  0  0  0  0  0  0  0  0  0
    0.1136   11.5616   -0.2197 H   0  0  0  0  0  0  0  0  0  0  0  0
    1.8599    9.0280   -0.3868 H   0  0  0  0  0  0  0  0  0  0  0  0
    1.5790   10.0661    1.0807 H   0  0  0  0  0  0  0  0  0  0  0  0
    0.2399    7.9862    1.1346 H   0  0  0  0  0  0  0  0  0  0  0  0
   -0.7766    9.4797    1.0825 H   0  0  0  0  0  0  0  0  0  0  0  0
   -1.7243    7.8500   -0.4027 H   0  0  0  0  0  0  0  0  0  0  0  0
    0.6530    7.8850   -1.9800 H   0  0  0  0  0  0  0  0  0  0  0  0
   -2.2787   10.2591   -0.0161 H   0  0  0  0  0  0  0  0  0  0  0  0
   -2.2370   11.3426   -1.4482 H   0  0  0  0  0  0  0  0  0  0  0  0
   -3.2998    9.8945   -1.4482 H   0  0  0  0  0  0  0  0  0  0  0  0
   -2.4563    7.9856   -2.7094 H   0  0  0  0  0  0  0  0  0  0  0  0
   -2.2968    9.5412   -3.5934 H   0  0  0  0  0  0  0  0  0  0  0  0
   -0.9393    8.3648   -3.5934 H   0  0  0  0  0  0  0  0  0  0  0  0
    3.7476   10.6327   -0.3354 H   0  0  0  0  0  0  0  0  0  0  0  0
    3.0301   10.0373   -1.8708 H   0  0  0  0  0  0  0  0  0  0  0  0
    4.0535   11.5135   -1.8708 H   0  0  0  0  0  0  0  0  0  0  0  0
    2.0989   12.0747    1.1115 H   0  0  0  0  0  0  0  0  0  0  0  0
    3.4201   12.9451    0.1463 H   0  0  0  0  0  0  0  0  0  0  0  0
    0.5518   13.8291    0.5670 H   0  0  0  0  0  0  0  0  0  0  0  0
    2.0710   14.6037    1.1663 H   0  0  0  0  0  0  0  0  0  0  0  0
    3.7433   15.2663   -0.2086 H   0  0  0  0  0  0  0  0  0  0  0  0
    3.7049   14.3392   -1.7467 H   0  0  0  0  0  0  0  0  0  0  0  0
    3.3259   16.0950   -1.7467 H   0  0  0  0  0  0  0  0  0  0  0  0
  1  2  1  0
  2  3  1  0
  3  4  1  0
  4  5  1  0
  5  6  1  0
  6  7  1  0
  7  8  1  0
  7  9  1  0
  2 10  1  0
 10 11  1  0
 11 12  1  0
 12 13  1  0
 13 14  1  1
 13 15  1  0
 15 16  1  0
 16 17  1  0
 17 18  2  0
 18 19  1  0
 19 20  1  0
 20 21  1  0
 21 22  1  0
 22 23  1  0
 22 24  1  0
 24 25  1  0
 24 26  1  0
 19 27  1  0
 27 28  1  6
 27 29  1  0
 29 30  1  0
 30 31  1  0
 31 32  1  6
  7  5  1  0
 31 10  1  0
 31 13  1  0
 27 15  1  0
 24 18  1  0
  1 33  1  0
  1 34  1  0
  1 35  1  0
  2 36  1  1
  3 37  1  0
  3 38  1  0
  4 39  1  0
  4 40  1  0
  5 41  1  1
  8 42  1  0
  8 43  1  0
  8 44  1  0
  9 45  1  0
  9 46  1  0
  9 47  1  0
 10 48  1  1
 11 49  1  0
 11 50  1  0
 12 51  1  0
 12 52  1  0
 14 53  1  0
 14 54  1  0
 14 55  1  0
 15 56  1  6
 16 57  1  0
 16 58  1  0
 17 59  1  0
 19 60  1  1
 20 61  1  0
 20 62  1  0
 21 63  1  0
 21 64  1  0
 22 65  1  1
 23 66  1  0
 25 67  1  0
 25 68  1  0
 25 69  1  0
 26 70  1  0
 26 71  1  0
 26 72  1  0
 28 73  1  0
 28 74  1  0
 28 75  1  0
 29 76  1  0
 29 77  1  0
 30 78  1  0
 30 79  1  0
 32 80  1  0
 32 81  1  0
 32 82  1  0
M  END
>  <meeko>  (4) 
{"is_sidechain": [false], "intermolecular_energy": 2.731, "internal_energy": -0.839}

$$$$
EPH_relaxed_0001_pdb2pqr_Repair_373_r2_0001_out
     RDKit          3D

 82 86  0  0  0  0  0  0  0  0999 V2000
    1.5710   19.6630   -1.5590 C   0  0  0  0  0  0  0  0  0  0  0  0
    1.3150   18.6150   -0.4730 C   0  0  2  0  0  0  0  0  0  0  0  0
    2.5910   18.2830    0.3270 C   0  0  0  0  0  0  0  0  0  0  0  0
    3.0190   19.3930    1.2910 C   0  0  0  0  0  0  0  0  0  0  0  0
    4.4310   19.2070    1.7570 C   0  0  2  0  0  0  0  0  0  0  0  0
    4.5950   18.2330    2.7960 O   0  0  0  0  0  0  0  0  0  0  0  0
    4.9110   19.5910    3.1450 C   0  0  0  0  0  0  0  0  0  0  0  0
    3.9830   20.1920    4.1530 C   0  0  0  0  0  0  0  0  0  0  0  0
    6.3730   19.8350    3.3540 C   0  0  0  0  0  0  0  0  0  0  0  0
    0.7470   17.3460   -1.0990 C   0  0  1  0  0  0  0  0  0  0  0  0
    0.2470   17.5690   -2.5510 C   0  0  0  0  0  0  0  0  0  0  0  0
    0.5430   16.2620   -3.3310 C   0  0  0  0  0  0  0  0  0  0  0  0
    0.8930   15.2260   -2.2380 C   0  0  1  0  0  0  0  0  0  0  0  0
   -0.4860   14.7370   -1.6930 C   0  0  0  0  0  0  0  0  0  0  0  0
    1.7950   14.0290   -2.6830 C   0  0  2  0  0  0  0  0  0  0  0  0
    1.1830   13.1160   -3.7600 C   0  0  0  0  0  0  0  0  0  0  0  0
    0.3910   11.9610   -3.2420 C   0  0  0  0  0  0  0  0  0  0  0  0
    0.4130   11.5020   -1.9770 C   0  0  0  0  0  0  0  0  0  0  0  0
    1.3700   12.1010   -0.9380 C   0  0  1  0  0  0  0  0  0  0  0  0
    2.0740   10.9570   -0.1620 C   0  0  0  0  0  0  0  0  0  0  0  0
    1.0840    9.9740    0.4560 C   0  0  0  0  0  0  0  0  0  0  0  0
    0.1880    9.3570   -0.6150 C   0  0  2  0  0  0  0  0  0  0  0  0
    0.9900    8.5330   -1.4680 O   0  0  0  0  0  0  0  0  0  0  0  0
   -0.5650   10.4150   -1.4690 C   0  0  0  0  0  0  0  0  0  0  0  0
   -1.6510   11.1030   -0.6050 C   0  0  0  0  0  0  0  0  0  0  0  0
   -1.3210    9.6660   -2.6000 C   0  0  0  0  0  0  0  0  0  0  0  0
    2.3940   13.1870   -1.4840 C   0  0  1  0  0  0  0  0  0  0  0  0
    3.6750   12.4850   -2.0300 C   0  0  0  0  0  0  0  0  0  0  0  0
    2.8630   14.0990   -0.2890 C   0  0  0  0  0  0  0  0  0  0  0  0
    1.9950   15.3320    0.0260 C   0  0  0  0  0  0  0  0  0  0  0  0
    1.7040   16.1360   -1.2450 C   0  0  2  0  0  0  0  0  0  0  0  0
    3.0710   16.6600   -1.8040 C   0  0  0  0  0  0  0  0  0  0  0  0
    1.8069   20.6288   -1.0882 H   0  0  0  0  0  0  0  0  0  0  0  0
    2.4175   19.3435   -2.1846 H   0  0  0  0  0  0  0  0  0  0  0  0
    0.6725   19.7698   -2.1846 H   0  0  0  0  0  0  0  0  0  0  0  0
    0.5856   19.0405    0.2320 H   0  0  0  0  0  0  0  0  0  0  0  0
    2.4074   17.3684    0.9099 H   0  0  0  0  0  0  0  0  0  0  0  0
    3.4049   18.1592   -0.4026 H   0  0  0  0  0  0  0  0  0  0  0  0
    2.9377   20.3624    0.7775 H   0  0  0  0  0  0  0  0  0  0  0  0
    2.3596   19.3569    2.1707 H   0  0  0  0  0  0  0  0  0  0  0  0
    4.8178   19.4356    0.7529 H   0  0  0  0  0  0  0  0  0  0  0  0
    4.3420   19.9595    5.1664 H   0  0  0  0  0  0  0  0  0  0  0  0
    3.9506   21.2831    4.0168 H   0  0  0  0  0  0  0  0  0  0  0  0
    2.9741   19.7753    4.0168 H   0  0  0  0  0  0  0  0  0  0  0  0
    6.5883   19.8709    4.4321 H   0  0  0  0  0  0  0  0  0  0  0  0
    6.9504   19.0208    2.8917 H   0  0  0  0  0  0  0  0  0  0  0  0
    6.6547   20.7926    2.8917 H   0  0  0  0  0  0  0  0  0  0  0  0
   -0.0417   17.1156   -0.3676 H   0  0  0  0  0  0  0  0  0  0  0  0
   -0.8336   17.7746   -2.5523 H   0  0  0  0  0  0  0  0  0  0  0  0
    0.7517   18.4292   -3.0151 H   0  0  0  0  0  0  0  0  0  0  0  0
   -0.3414   15.9413   -3.9011 H   0  0  0  0  0  0  0  0  0  0  0  0
    1.3552   16.3875   -4.0621 H   0  0  0  0  0  0  0  0  0  0  0  0
   -0.4687   14.7432   -0.5932 H   0  0  0  0  0  0  0  0  0  0  0  0
   -1.2806   15.4082   -2.0509 H   0  0  0  0  0  0  0  0  0  0  0  0
   -0.6803   13.7152   -2.0509 H   0  0  0  0  0  0  0  0  0  0  0  0
    2.6403   14.5389   -3.1682 H   0  0  0  0  0  0  0  0  0  0  0  0
    0.5196   13.7287   -4.3881 H   0  0  0  0  0  0  0  0  0  0  0  0
    2.0316   12.6815   -4.3087 H   0  0  0  0  0  0  0  0  0  0  0  0
   -0.2661   11.4412   -3.9547 H   0  0  0  0  0  0  0  0  0  0  0  0
    0.7434   12.6882   -0.2505 H   0  0  0  0  0  0  0  0  0  0  0  0
    2.7274   10.4094   -0.8571 H   0  0  0  0  0  0  0  0  0  0  0  0
    2.6477   11.4134    0.6581 H   0  0  0  0  0  0  0  0  0  0  0  0
    1.6413    9.1733    0.9643 H   0  0  0  0  0  0  0  0  0  0  0  0
    0.4512   10.5170    1.1734 H   0  0  0  0  0  0  0  0  0  0  0  0
   -0.5823    8.7649   -0.0992 H   0  0  0  0  0  0  0  0  0  0  0  0
    1.0370    8.9670   -2.3370 H   0  0  0  0  0  0  0  0  0  0  0  0
   -1.4194   10.9563    0.4603 H   0  0  0  0  0  0  0  0  0  0  0  0
   -1.6718   12.1794   -0.8309 H   0  0  0  0  0  0  0  0  0  0  0  0
   -2.6331   10.6619   -0.8309 H   0  0  0  0  0  0  0  0  0  0  0  0
   -2.0360    8.9576   -2.1563 H   0  0  0  0  0  0  0  0  0  0  0  0
   -1.8633   10.3930   -3.2224 H   0  0  0  0  0  0  0  0  0  0  0  0
   -0.5991    9.1169   -3.2224 H   0  0  0  0  0  0  0  0  0  0  0  0
    4.2946   12.1454   -1.1869 H   0  0  0  0  0  0  0  0  0  0  0  0
    3.3854   11.6196   -2.6441 H   0  0  0  0  0  0  0  0  0  0  0  0
    4.2486   13.1948   -2.6441 H   0  0  0  0  0  0  0  0  0  0  0  0
    2.8929   13.4733    0.6152 H   0  0  0  0  0  0  0  0  0  0  0  0
    3.8366   14.5046   -0.6014 H   0  0  0  0  0  0  0  0  0  0  0  0
    1.0438   14.9994    0.4672 H   0  0  0  0  0  0  0  0  0  0  0  0
    2.5419   15.9755    0.7309 H   0  0  0  0  0  0  0  0  0  0  0  0
    3.7363   16.9150   -0.9659 H   0  0  0  0  0  0  0  0  0  0  0  0
    3.5396   15.8778   -2.4192 H   0  0  0  0  0  0  0  0  0  0  0  0
    2.8967   17.5550   -2.4192 H   0  0  0  0  0  0  0  0  0  0  0  0
  1  2  1  0
  2  3  1  0
  3  4  1  0
  4  5  1  0
  5  6  1  0
  6  7  1  0
  7  8  1  0
  7  9  1  0
  2 10  1  0
 10 11  1  0
 11 12  1  0
 12 13  1  0
 13 14  1  1
 13 15  1  0
 15 16  1  0
 16 17  1  0
 17 18  2  0
 18 19  1  0
 19 20  1  0
 20 21  1  0
 21 22  1  0
 22 23  1  0
 22 24  1  0
 24 25  1  0
 24 26  1  0
 19 27  1  0
 27 28  1  6
 27 29  1  0
 29 30  1  0
 30 31  1  0
 31 32  1  6
  7  5  1  0
 31 10  1  0
 31 13  1  0
 27 15  1  0
 24 18  1  0
  1 33  1  0
  1 34  1  0
  1 35  1  0
  2 36  1  1
  3 37  1  0
  3 38  1  0
  4 39  1  0
  4 40  1  0
  5 41  1  6
  8 42  1  0
  8 43  1  0
  8 44  1  0
  9 45  1  0
  9 46  1  0
  9 47  1  0
 10 48  1  1
 11 49  1  0
 11 50  1  0
 12 51  1  0
 12 52  1  0
 14 53  1  0
 14 54  1  0
 14 55  1  0
 15 56  1  6
 16 57  1  0
 16 58  1  0
 17 59  1  0
 19 60  1  1
 20 61  1  0
 20 62  1  0
 21 63  1  0
 21 64  1  0
 22 65  1  1
 23 66  1  0
 25 67  1  0
 25 68  1  0
 25 69  1  0
 26 70  1  0
 26 71  1  0
 26 72  1  0
 28 73  1  0
 28 74  1  0
 28 75  1  0
 29 76  1  0
 29 77  1  0
 30 78  1  0
 30 79  1  0
 32 80  1  0
 32 81  1  0
 32 82  1  0
M  END
>  <meeko>  (5) 
{"is_sidechain": [false], "intermolecular_energy": 2.731, "internal_energy": -0.839}

$$$$
EPH_relaxed_0001_pdb2pqr_Repair_373_r2_0001_out
     RDKit          3D

 82 86  0  0  0  0  0  0  0  0999 V2000
    4.4980   16.2430   -0.2960 C   0  0  0  0  0  0  0  0  0  0  0  0
    3.1470   16.9050   -0.5790 C   0  0  2  0  0  0  0  0  0  0  0  0
    2.9060   18.1390    0.3130 C   0  0  0  0  0  0  0  0  0  0  0  0
    2.5040   19.3940   -0.4670 C   0  0  0  0  0  0  0  0  0  0  0  0
    1.6630   19.0580   -1.6620 C   0  0  2  0  0  0  0  0  0  0  0  0
    1.1920   20.1930   -2.4000 O   0  0  0  0  0  0  0  0  0  0  0  0
    0.1860   19.3880   -1.7640 C   0  0  0  0  0  0  0  0  0  0  0  0
   -0.5380   20.0820   -0.6540 C   0  0  0  0  0  0  0  0  0  0  0  0
   -0.6570   18.6070   -2.7240 C   0  0  0  0  0  0  0  0  0  0  0  0
    2.0220   15.8940   -0.3850 C   0  0  1  0  0  0  0  0  0  0  0  0
    0.6410   16.5700   -0.1750 C   0  0  0  0  0  0  0  0  0  0  0  0
   -0.4120   15.6550   -0.8500 C   0  0  0  0  0  0  0  0  0  0  0  0
    0.3420   14.3340   -1.1320 C   0  0  1  0  0  0  0  0  0  0  0  0
    0.3250   13.5650    0.2260 C   0  0  0  0  0  0  0  0  0  0  0  0
   -0.2140   13.4560   -2.3000 C   0  0  2  0  0  0  0  0  0  0  0  0
   -1.6470   12.9320   -2.0970 C   0  0  0  0  0  0  0  0  0  0  0  0
   -1.7500   11.6040   -1.4240 C   0  0  0  0  0  0  0  0  0  0  0  0
   -0.7390   10.7320   -1.2540 C   0  0  0  0  0  0  0  0  0  0  0  0
    0.6470   11.0070   -1.8520 C   0  0  1  0  0  0  0  0  0  0  0  0
    1.1690    9.7300   -2.5600 C   0  0  0  0  0  0  0  0  0  0  0  0
    1.1600    8.5090   -1.6450 C   0  0  0  0  0  0  0  0  0  0  0  0
   -0.2460    8.2330   -1.1170 C   0  0  2  0  0  0  0  0  0  0  0  0
   -1.0790    7.8380   -2.2120 O   0  0  0  0  0  0  0  0  0  0  0  0
   -0.8790    9.4530   -0.3920 C   0  0  0  0  0  0  0  0  0  0  0  0
   -0.1520    9.6930    0.9540 C   0  0  0  0  0  0  0  0  0  0  0  0
   -2.3450    9.0880   -0.0360 C   0  0  0  0  0  0  0  0  0  0  0  0
    0.7630   12.3020   -2.7660 C   0  0  1  0  0  0  0  0  0  0  0  0
    0.3720   11.9540   -4.2340 C   0  0  0  0  0  0  0  0  0  0  0  0
    2.2660   12.7710   -2.8050 C   0  0  0  0  0  0  0  0  0  0  0  0
    2.7240   13.7320   -1.6920 C   0  0  0  0  0  0  0  0  0  0  0  0
    1.7480   14.9040   -1.5440 C   0  0  2  0  0  0  0  0  0  0  0  0
    1.7610   15.7090   -2.8880 C   0  0  0  0  0  0  0  0  0  0  0  0
    4.6494   16.1688    0.7910 H   0  0  0  0  0  0  0  0  0  0  0  0
    4.5125   15.2357   -0.7378 H   0  0  0  0  0  0  0  0  0  0  0  0
    5.3029   16.8488   -0.7378 H   0  0  0  0  0  0  0  0  0  0  0  0
    3.1606   17.2508   -1.6232 H   0  0  0  0  0  0  0  0  0  0  0  0
    2.1025   17.9008    1.0254 H   0  0  0  0  0  0  0  0  0  0  0  0
    3.8589   18.3639    0.8144 H   0  0  0  0  0  0  0  0  0  0  0  0
    1.9311   20.0582    0.1968 H   0  0  0  0  0  0  0  0  0  0  0  0
    3.4216   19.8867   -0.8208 H   0  0  0  0  0  0  0  0  0  0  0  0
    2.2235   18.1256   -1.8244 H   0  0  0  0  0  0  0  0  0  0  0  0
   -0.1599   19.7196    0.3133 H   0  0  0  0  0  0  0  0  0  0  0  0
   -0.3717   21.1667   -0.7296 H   0  0  0  0  0  0  0  0  0  0  0  0
   -1.6147   19.8700   -0.7296 H   0  0  0  0  0  0  0  0  0  0  0  0
   -1.3512   17.9639   -2.1632 H   0  0  0  0  0  0  0  0  0  0  0  0
   -1.2299   19.3005   -3.3570 H   0  0  0  0  0  0  0  0  0  0  0  0
   -0.0092   17.9828   -3.3570 H   0  0  0  0  0  0  0  0  0  0  0  0
    2.4107   15.3514    0.4894 H   0  0  0  0  0  0  0  0  0  0  0  0
    0.4259   16.6664    0.8995 H   0  0  0  0  0  0  0  0  0  0  0  0
    0.6250   17.5795   -0.6117 H   0  0  0  0  0  0  0  0  0  0  0  0
   -1.2634   15.4798   -0.1759 H   0  0  0  0  0  0  0  0  0  0  0  0
   -0.8272   16.1018   -1.7654 H   0  0  0  0  0  0  0  0  0  0  0  0
    0.3410   14.2865    1.0562 H   0  0  0  0  0  0  0  0  0  0  0  0
   -0.5869   12.9531    0.2895 H   0  0  0  0  0  0  0  0  0  0  0  0
    1.2090   12.9134    0.2895 H   0  0  0  0  0  0  0  0  0  0  0  0
   -0.2738   14.1767   -3.1289 H   0  0  0  0  0  0  0  0  0  0  0  0
   -2.1941   13.6658   -1.4869 H   0  0  0  0  0  0  0  0  0  0  0  0
   -2.0674   12.7964   -3.1044 H   0  0  0  0  0  0  0  0  0  0  0  0
   -2.7364   11.3130   -1.0336 H   0  0  0  0  0  0  0  0  0  0  0  0
    1.3002   11.2557   -1.0026 H   0  0  0  0  0  0  0  0  0  0  0  0
    0.5294    9.5230   -3.4306 H   0  0  0  0  0  0  0  0  0  0  0  0
    2.2112    9.9160   -2.8586 H   0  0  0  0  0  0  0  0  0  0  0  0
    1.5107    7.6329   -2.2103 H   0  0  0  0  0  0  0  0  0  0  0  0
    1.8236    8.7060   -0.7902 H   0  0  0  0  0  0  0  0  0  0  0  0
   -0.1663    7.4311   -0.3682 H   0  0  0  0  0  0  0  0  0  0  0  0
   -0.7790    8.3220   -3.0000 H   0  0  0  0  0  0  0  0  0  0  0  0
   -0.8359    9.4672    1.7855 H   0  0  0  0  0  0  0  0  0  0  0  0
    0.7297    9.0383    1.0163 H   0  0  0  0  0  0  0  0  0  0  0  0
    0.1666   10.7440    1.0163 H   0  0  0  0  0  0  0  0  0  0  0  0
   -2.4605    9.0592    1.0575 H   0  0  0  0  0  0  0  0  0  0  0  0
   -3.0237    9.8446   -0.4566 H   0  0  0  0  0  0  0  0  0  0  0  0
   -2.5897    8.1015   -0.4566 H   0  0  0  0  0  0  0  0  0  0  0  0
   -0.4497   11.2227   -4.2311 H   0  0  0  0  0  0  0  0  0  0  0  0
    0.0477   12.8678   -4.7535 H   0  0  0  0  0  0  0  0  0  0  0  0
    1.2420   11.5259   -4.7535 H   0  0  0  0  0  0  0  0  0  0  0  0
    2.8966   11.8715   -2.7480 H   0  0  0  0  0  0  0  0  0  0  0  0
    2.3637   13.3450   -3.7383 H   0  0  0  0  0  0  0  0  0  0  0  0
    2.7739   13.1828   -0.7402 H   0  0  0  0  0  0  0  0  0  0  0  0
    3.7138   14.1311   -1.9583 H   0  0  0  0  0  0  0  0  0  0  0  0
    1.7784   16.7870   -2.6696 H   0  0  0  0  0  0  0  0  0  0  0  0
    2.6549   15.4381   -3.4690 H   0  0  0  0  0  0  0  0  0  0  0  0
    0.8588   15.4671   -3.4690 H   0  0  0  0  0  0  0  0  0  0  0  0
  1  2  1  0
  2  3  1  0
  3  4  1  0
  4  5  1  0
  5  6  1  0
  6  7  1  0
  7  8  1  0
  7  9  1  0
  2 10  1  0
 10 11  1  0
 11 12  1  0
 12 13  1  0
 13 14  1  1
 13 15  1  0
 15 16  1  0
 16 17  1  0
 17 18  2  0
 18 19  1  0
 19 20  1  0
 20 21  1  0
 21 22  1  0
 22 23  1  0
 22 24  1  0
 24 25  1  0
 24 26  1  0
 19 27  1  0
 27 28  1  6
 27 29  1  0
 29 30  1  0
 30 31  1  0
 31 32  1  6
  7  5  1  0
 31 10  1  0
 31 13  1  0
 27 15  1  0
 24 18  1  0
  1 33  1  0
  1 34  1  0
  1 35  1  0
  2 36  1  6
  3 37  1  0
  3 38  1  0
  4 39  1  0
  4 40  1  0
  5 41  1  6
  8 42  1  0
  8 43  1  0
  8 44  1  0
  9 45  1  0
  9 46  1  0
  9 47  1  0
 10 48  1  1
 11 49  1  0
 11 50  1  0
 12 51  1  0
 12 52  1  0
 14 53  1  0
 14 54  1  0
 14 55  1  0
 15 56  1  6
 16 57  1  0
 16 58  1  0
 17 59  1  0
 19 60  1  1
 20 61  1  0
 20 62  1  0
 21 63  1  0
 21 64  1  0
 22 65  1  1
 23 66  1  0
 25 67  1  0
 25 68  1  0
 25 69  1  0
 26 70  1  0
 26 71  1  0
 26 72  1  0
 28 73  1  0
 28 74  1  0
 28 75  1  0
 29 76  1  0
 29 77  1  0
 30 78  1  0
 30 79  1  0
 32 80  1  0
 32 81  1  0
 32 82  1  0
M  END
>  <meeko>  (6) 
{"is_sidechain": [false], "intermolecular_energy": 2.731, "internal_energy": -0.839}

$$$$
EPH_relaxed_0001_pdb2pqr_Repair_373_r2_0001_out
     RDKit          3D

 82 86  0  0  0  0  0  0  0  0999 V2000
    0.4260    8.8400   -2.4680 C   0  0  0  0  0  0  0  0  0  0  0  0
    1.1820    9.9900   -3.1410 C   0  0  2  0  0  0  0  0  0  0  0  0
    2.6790    9.9960   -2.7700 C   0  0  0  0  0  0  0  0  0  0  0  0
    3.5780   10.6020   -3.8510 C   0  0  0  0  0  0  0  0  0  0  0  0
    4.9660   10.8500   -3.3420 C   0  0  2  0  0  0  0  0  0  0  0  0
    5.5680   12.0640   -3.8110 O   0  0  0  0  0  0  0  0  0  0  0  0
    6.1960   10.8410   -4.2300 C   0  0  0  0  0  0  0  0  0  0  0  0
    6.0960   10.5780   -5.7000 C   0  0  0  0  0  0  0  0  0  0  0  0
    7.5320   10.6040   -3.5990 C   0  0  0  0  0  0  0  0  0  0  0  0
    0.5460   11.3220   -2.7620 C   0  0  1  0  0  0  0  0  0  0  0  0
   -0.8380   11.1510   -2.0810 C   0  0  0  0  0  0  0  0  0  0  0  0
   -0.9580   12.2770   -1.0230 C   0  0  0  0  0  0  0  0  0  0  0  0
    0.1990   13.2480   -1.3540 C   0  0  1  0  0  0  0  0  0  0  0  0
   -0.3360   14.1240   -2.5300 C   0  0  0  0  0  0  0  0  0  0  0  0
    0.7230   14.1280   -0.1720 C   0  0  2  0  0  0  0  0  0  0  0  0
   -0.3090   15.1020    0.4240 C   0  0  0  0  0  0  0  0  0  0  0  0
   -0.3400   16.4570   -0.2000 C   0  0  0  0  0  0  0  0  0  0  0  0
    0.6110   16.9720   -1.0010 C   0  0  0  0  0  0  0  0  0  0  0  0
    1.9110   16.2050   -1.2730 C   0  0  1  0  0  0  0  0  0  0  0  0
    3.1210   17.1650   -1.1200 C   0  0  0  0  0  0  0  0  0  0  0  0
    2.9890   18.4150   -1.9850 C   0  0  0  0  0  0  0  0  0  0  0  0
    1.7130   19.1810   -1.6440 C   0  0  2  0  0  0  0  0  0  0  0  0
    1.8300   19.7030   -0.3170 O   0  0  0  0  0  0  0  0  0  0  0  0
    0.4290   18.3130   -1.7540 C   0  0  0  0  0  0  0  0  0  0  0  0
    0.1380   17.9990   -3.2430 C   0  0  0  0  0  0  0  0  0  0  0  0
   -0.7670   19.1640   -1.2490 C   0  0  0  0  0  0  0  0  0  0  0  0
    2.1000   14.8510   -0.4630 C   0  0  1  0  0  0  0  0  0  0  0  0
    2.7490   15.1470    0.9240 C   0  0  0  0  0  0  0  0  0  0  0  0
    3.1100   13.9250   -1.2380 C   0  0  0  0  0  0  0  0  0  0  0  0
    2.5160   12.9920   -2.3100 C   0  0  0  0  0  0  0  0  0  0  0  0
    1.3150   12.2180   -1.7590 C   0  0  2  0  0  0  0  0  0  0  0  0
    1.8270   11.3110   -0.5880 C   0  0  0  0  0  0  0  0  0  0  0  0
    0.4953    8.9455   -1.3753 H   0  0  0  0  0  0  0  0  0  0  0  0
   -0.6306    8.8678   -2.7728 H   0  0  0  0  0  0  0  0  0  0  0  0
    0.8704    7.8810   -2.7728 H   0  0  0  0  0  0  0  0  0  0  0  0
    1.1119    9.8409   -4.2286 H   0  0  0  0  0  0  0  0  0  0  0  0
    2.8055   10.5791   -1.8459 H   0  0  0  0  0  0  0  0  0  0  0  0
    2.9846    8.9463   -2.6487 H   0  0  0  0  0  0  0  0  0  0  0  0
    3.6292    9.9077   -4.7027 H   0  0  0  0  0  0  0  0  0  0  0  0
    3.1464   11.5670   -4.1550 H   0  0  0  0  0  0  0  0  0  0  0  0
    4.7356   10.3394   -2.3953 H   0  0  0  0  0  0  0  0  0  0  0  0
    5.7095    9.5615   -5.8652 H   0  0  0  0  0  0  0  0  0  0  0  0
    5.4130   11.3088   -6.1576 H   0  0  0  0  0  0  0  0  0  0  0  0
    7.0920   10.6704   -6.1576 H   0  0  0  0  0  0  0  0  0  0  0  0
    7.4288   10.6223   -2.5040 H   0  0  0  0  0  0  0  0  0  0  0  0
    7.9178    9.6234   -3.9146 H   0  0  0  0  0  0  0  0  0  0  0  0
    8.2315   11.3921   -3.9146 H   0  0  0  0  0  0  0  0  0  0  0  0
    0.5201   11.8016   -3.7516 H   0  0  0  0  0  0  0  0  0  0  0  0
   -1.6412   11.2447   -2.8267 H   0  0  0  0  0  0  0  0  0  0  0  0
   -0.9285   10.1591   -1.6141 H   0  0  0  0  0  0  0  0  0  0  0  0
   -1.9290   12.7870   -1.1070 H   0  0  0  0  0  0  0  0  0  0  0  0
   -0.8977   11.8913    0.0054 H   0  0  0  0  0  0  0  0  0  0  0  0
   -0.8689   14.9966   -2.1243 H   0  0  0  0  0  0  0  0  0  0  0  0
    0.5084   14.4645   -3.1472 H   0  0  0  0  0  0  0  0  0  0  0  0
   -1.0246   13.5282   -3.1472 H   0  0  0  0  0  0  0  0  0  0  0  0
    0.9149   13.3803    0.6116 H   0  0  0  0  0  0  0  0  0  0  0  0
   -1.3064   14.6523    0.3101 H   0  0  0  0  0  0  0  0  0  0  0  0
   -0.0127   15.2560    1.4721 H   0  0  0  0  0  0  0  0  0  0  0  0
   -1.2148   17.0889    0.0128 H   0  0  0  0  0  0  0  0  0  0  0  0
    1.8436   15.8523   -2.3127 H   0  0  0  0  0  0  0  0  0  0  0  0
    3.1968   17.4717   -0.0663 H   0  0  0  0  0  0  0  0  0  0  0  0
    4.0202   16.6241   -1.4498 H   0  0  0  0  0  0  0  0  0  0  0  0
    3.8578   19.0668   -1.8110 H   0  0  0  0  0  0  0  0  0  0  0  0
    2.9438   18.1089   -3.0406 H   0  0  0  0  0  0  0  0  0  0  0  0
    1.6070   19.9905   -2.3812 H   0  0  0  0  0  0  0  0  0  0  0  0
    2.7700   19.8860   -0.1540 H   0  0  0  0  0  0  0  0  0  0  0  0
   -0.6084   17.1936   -3.3088 H   0  0  0  0  0  0  0  0  0  0  0  0
   -0.2509   18.9007   -3.7387 H   0  0  0  0  0  0  0  0  0  0  0  0
    1.0666   17.6797   -3.7387 H   0  0  0  0  0  0  0  0  0  0  0  0
   -0.7746   19.1694   -0.1490 H   0  0  0  0  0  0  0  0  0  0  0  0
   -0.6663   20.1946   -1.6201 H   0  0  0  0  0  0  0  0  0  0  0  0
   -1.7077   18.7310   -1.6201 H   0  0  0  0  0  0  0  0  0  0  0  0
    2.0625   14.8339    1.7244 H   0  0  0  0  0  0  0  0  0  0  0  0
    3.6938   14.5908    1.0129 H   0  0  0  0  0  0  0  0  0  0  0  0
    2.9484   16.2251    1.0129 H   0  0  0  0  0  0  0  0  0  0  0  0
    3.8448   14.5762   -1.7340 H   0  0  0  0  0  0  0  0  0  0  0  0
    3.5294   13.2542   -0.4737 H   0  0  0  0  0  0  0  0  0  0  0  0
    2.1914   13.5943   -3.1713 H   0  0  0  0  0  0  0  0  0  0  0  0
    3.2887   12.2704   -2.6138 H   0  0  0  0  0  0  0  0  0  0  0  0
    1.5659   11.7736    0.3752 H   0  0  0  0  0  0  0  0  0  0  0  0
    1.3551   10.3199   -0.6586 H   0  0  0  0  0  0  0  0  0  0  0  0
    2.9194   11.2029   -0.6586 H   0  0  0  0  0  0  0  0  0  0  0  0
  1  2  1  0
  2  3  1  0
  3  4  1  0
  4  5  1  0
  5  6  1  0
  6  7  1  0
  7  8  1  0
  7  9  1  0
  2 10  1  0
 10 11  1  0
 11 12  1  0
 12 13  1  0
 13 14  1  6
 13 15  1  0
 15 16  1  0
 16 17  1  0
 17 18  2  0
 18 19  1  0
 19 20  1  0
 20 21  1  0
 21 22  1  0
 22 23  1  0
 22 24  1  0
 24 25  1  0
 24 26  1  0
 19 27  1  0
 27 28  1  1
 27 29  1  0
 29 30  1  0
 30 31  1  0
 31 32  1  1
  7  5  1  0
 31 10  1  0
 31 13  1  0
 27 15  1  0
 24 18  1  0
  1 33  1  0
  1 34  1  0
  1 35  1  0
  2 36  1  6
  3 37  1  0
  3 38  1  0
  4 39  1  0
  4 40  1  0
  5 41  1  1
  8 42  1  0
  8 43  1  0
  8 44  1  0
  9 45  1  0
  9 46  1  0
  9 47  1  0
 10 48  1  6
 11 49  1  0
 11 50  1  0
 12 51  1  0
 12 52  1  0
 14 53  1  0
 14 54  1  0
 14 55  1  0
 15 56  1  1
 16 57  1  0
 16 58  1  0
 17 59  1  0
 19 60  1  6
 20 61  1  0
 20 62  1  0
 21 63  1  0
 21 64  1  0
 22 65  1  6
 23 66  1  0
 25 67  1  0
 25 68  1  0
 25 69  1  0
 26 70  1  0
 26 71  1  0
 26 72  1  0
 28 73  1  0
 28 74  1  0
 28 75  1  0
 29 76  1  0
 29 77  1  0
 30 78  1  0
 30 79  1  0
 32 80  1  0
 32 81  1  0
 32 82  1  0
M  END
>  <meeko>  (7) 
{"is_sidechain": [false], "intermolecular_energy": 2.731, "internal_energy": -0.839}

$$$$
EPH_relaxed_0001_pdb2pqr_Repair_373_r2_0001_out
     RDKit          3D

 82 86  0  0  0  0  0  0  0  0999 V2000
    1.0340   19.5360   -1.9440 C   0  0  0  0  0  0  0  0  0  0  0  0
    1.5090   19.1320   -0.5460 C   0  0  2  0  0  0  0  0  0  0  0  0
    3.0340   19.2940   -0.3820 C   0  0  0  0  0  0  0  0  0  0  0  0
    3.6550   18.3060    0.6090 C   0  0  0  0  0  0  0  0  0  0  0  0
    3.6240   18.8340    2.0110 C   0  0  2  0  0  0  0  0  0  0  0  0
    4.0590   20.1920    2.1490 O   0  0  0  0  0  0  0  0  0  0  0  0
    4.8700   19.1980    2.7960 C   0  0  0  0  0  0  0  0  0  0  0  0
    6.2360   19.0480    2.2040 C   0  0  0  0  0  0  0  0  0  0  0  0
    4.7900   19.2340    4.2900 C   0  0  0  0  0  0  0  0  0  0  0  0
    1.1040   17.6920   -0.2560 C   0  0  1  0  0  0  0  0  0  0  0  0
   -0.2730   17.5890    0.4520 C   0  0  0  0  0  0  0  0  0  0  0  0
   -0.9530   16.3010   -0.0770 C   0  0  0  0  0  0  0  0  0  0  0  0
    0.1750   15.5360   -0.8080 C   0  0  1  0  0  0  0  0  0  0  0  0
    0.9630   14.8060    0.3230 C   0  0  0  0  0  0  0  0  0  0  0  0
   -0.2770   14.5450   -1.9300 C   0  0  2  0  0  0  0  0  0  0  0  0
   -1.1550   13.3750   -1.4510 C   0  0  0  0  0  0  0  0  0  0  0  0
   -0.4130   12.1430   -1.0510 C   0  0  0  0  0  0  0  0  0  0  0  0
    0.8750   11.8770   -1.3390 C   0  0  0  0  0  0  0  0  0  0  0  0
    1.6950   12.8240   -2.2250 C   0  0  1  0  0  0  0  0  0  0  0  0
    2.4700   11.9980   -3.2870 C   0  0  0  0  0  0  0  0  0  0  0  0
    3.3220   10.8970   -2.6630 C   0  0  0  0  0  0  0  0  0  0  0  0
    2.4620    9.9430   -1.8380 C   0  0  2  0  0  0  0  0  0  0  0  0
    1.5880    9.2320   -2.7190 O   0  0  0  0  0  0  0  0  0  0  0  0
    1.6280   10.6630   -0.7420 C   0  0  0  0  0  0  0  0  0  0  0  0
    2.5700   11.1770    0.3750 C   0  0  0  0  0  0  0  0  0  0  0  0
    0.7020    9.6090   -0.0770 C   0  0  0  0  0  0  0  0  0  0  0  0
    0.8980   14.0420   -2.8620 C   0  0  1  0  0  0  0  0  0  0  0  0
    0.2420   13.6040   -4.2080 C   0  0  0  0  0  0  0  0  0  0  0  0
    1.9140   15.1920   -3.2170 C   0  0  0  0  0  0  0  0  0  0  0  0
    2.2280   16.2090   -2.1040 C   0  0  0  0  0  0  0  0  0  0  0  0
    0.9400   16.7410   -1.4680 C   0  0  2  0  0  0  0  0  0  0  0  0
    0.1360   17.5000   -2.5780 C   0  0  0  0  0  0  0  0  0  0  0  0
    0.1987   20.2464   -1.8564 H   0  0  0  0  0  0  0  0  0  0  0  0
    1.8629   20.0101   -2.4901 H   0  0  0  0  0  0  0  0  0  0  0  0
    0.6991   18.6418   -2.4901 H   0  0  0  0  0  0  0  0  0  0  0  0
    1.0258   19.8066    0.1761 H   0  0  0  0  0  0  0  0  0  0  0  0
    3.5067   19.1443   -1.3639 H   0  0  0  0  0  0  0  0  0  0  0  0
    3.2087   20.3035    0.0185 H   0  0  0  0  0  0  0  0  0  0  0  0
    3.0920   17.3618    0.5711 H   0  0  0  0  0  0  0  0  0  0  0  0
    4.7061   18.1499    0.3245 H   0  0  0  0  0  0  0  0  0  0  0  0
    2.7573   18.2019    2.2545 H   0  0  0  0  0  0  0  0  0  0  0  0
    6.9786   18.9665    3.0114 H   0  0  0  0  0  0  0  0  0  0  0  0
    6.2688   18.1409    1.5827 H   0  0  0  0  0  0  0  0  0  0  0  0
    6.4648   19.9264    1.5827 H   0  0  0  0  0  0  0  0  0  0  0  0
    5.7145   18.8180    4.7168 H   0  0  0  0  0  0  0  0  0  0  0  0
    4.6669   20.2743    4.6256 H   0  0  0  0  0  0  0  0  0  0  0  0
    3.9298   18.6362    4.6256 H   0  0  0  0  0  0  0  0  0  0  0  0
    1.9639   17.3789    0.3544 H   0  0  0  0  0  0  0  0  0  0  0  0
   -0.1348   17.5243    1.5414 H   0  0  0  0  0  0  0  0  0  0  0  0
   -0.8908   18.4752    0.2447 H   0  0  0  0  0  0  0  0  0  0  0  0
   -1.3518   15.7026    0.7554 H   0  0  0  0  0  0  0  0  0  0  0  0
   -1.8045   16.5203   -0.7380 H   0  0  0  0  0  0  0  0  0  0  0  0
    0.5966   15.1454    1.3031 H   0  0  0  0  0  0  0  0  0  0  0  0
    0.8137   13.7200    0.2318 H   0  0  0  0  0  0  0  0  0  0  0  0
    2.0344   15.0377    0.2318 H   0  0  0  0  0  0  0  0  0  0  0  0
   -0.9303   15.1742   -2.5523 H   0  0  0  0  0  0  0  0  0  0  0  0
   -1.7356   13.7192   -0.5824 H   0  0  0  0  0  0  0  0  0  0  0  0
   -1.7774   13.0893   -2.3118 H   0  0  0  0  0  0  0  0  0  0  0  0
   -0.9654   11.3885   -0.4718 H   0  0  0  0  0  0  0  0  0  0  0  0
    2.4049   13.3299   -1.5541 H   0  0  0  0  0  0  0  0  0  0  0  0
    1.7446   11.5366   -3.9732 H   0  0  0  0  0  0  0  0  0  0  0  0
    3.1468   12.6850   -3.8161 H   0  0  0  0  0  0  0  0  0  0  0  0
    3.8212   10.3310   -3.4632 H   0  0  0  0  0  0  0  0  0  0  0  0
    4.0657   11.3622   -1.9993 H   0  0  0  0  0  0  0  0  0  0  0  0
    3.1417    9.2555   -1.3132 H   0  0  0  0  0  0  0  0  0  0  0  0
    1.2900    9.8540   -3.4040 H   0  0  0  0  0  0  0  0  0  0  0  0
    2.1365   10.9405    1.3579 H   0  0  0  0  0  0  0  0  0  0  0  0
    3.5514   10.6894    0.2802 H   0  0  0  0  0  0  0  0  0  0  0  0
    2.6910   12.2662    0.2802 H   0  0  0  0  0  0  0  0  0  0  0  0
    0.7765    9.6938    1.0172 H   0  0  0  0  0  0  0  0  0  0  0  0
   -0.3380    9.7860   -0.3885 H   0  0  0  0  0  0  0  0  0  0  0  0
    1.0115    8.6004   -0.3885 H   0  0  0  0  0  0  0  0  0  0  0  0
   -0.6563   13.0042   -4.0000 H   0  0  0  0  0  0  0  0  0  0  0  0
   -0.0388   14.4964   -4.7865 H   0  0  0  0  0  0  0  0  0  0  0  0
    0.9586   13.0025   -4.7865 H   0  0  0  0  0  0  0  0  0  0  0  0
    2.8620   14.7190   -3.5127 H   0  0  0  0  0  0  0  0  0  0  0  0
    1.4230   15.7753   -4.0098 H   0  0  0  0  0  0  0  0  0  0  0  0
    2.8358   15.7185   -1.3294 H   0  0  0  0  0  0  0  0  0  0  0  0
    2.7761   17.0543   -2.5457 H   0  0  0  0  0  0  0  0  0  0  0  0
   -0.5865   18.1820   -2.1059 H   0  0  0  0  0  0  0  0  0  0  0  0
    0.8315   18.0785   -3.2037 H   0  0  0  0  0  0  0  0  0  0  0  0
   -0.4016   16.7723   -3.2037 H   0  0  0  0  0  0  0  0  0  0  0  0
  1  2  1  0
  2  3  1  0
  3  4  1  0
  4  5  1  0
  5  6  1  0
  6  7  1  0
  7  8  1  0
  7  9  1  0
  2 10  1  0
 10 11  1  0
 11 12  1  0
 12 13  1  0
 13 14  1  1
 13 15  1  0
 15 16  1  0
 16 17  1  0
 17 18  2  0
 18 19  1  0
 19 20  1  0
 20 21  1  0
 21 22  1  0
 22 23  1  0
 22 24  1  0
 24 25  1  0
 24 26  1  0
 19 27  1  0
 27 28  1  6
 27 29  1  0
 29 30  1  0
 30 31  1  0
 31 32  1  6
  7  5  1  0
 31 10  1  0
 31 13  1  0
 27 15  1  0
 24 18  1  0
  1 33  1  0
  1 34  1  0
  1 35  1  0
  2 36  1  1
  3 37  1  0
  3 38  1  0
  4 39  1  0
  4 40  1  0
  5 41  1  1
  8 42  1  0
  8 43  1  0
  8 44  1  0
  9 45  1  0
  9 46  1  0
  9 47  1  0
 10 48  1  1
 11 49  1  0
 11 50  1  0
 12 51  1  0
 12 52  1  0
 14 53  1  0
 14 54  1  0
 14 55  1  0
 15 56  1  6
 16 57  1  0
 16 58  1  0
 17 59  1  0
 19 60  1  1
 20 61  1  0
 20 62  1  0
 21 63  1  0
 21 64  1  0
 22 65  1  1
 23 66  1  0
 25 67  1  0
 25 68  1  0
 25 69  1  0
 26 70  1  0
 26 71  1  0
 26 72  1  0
 28 73  1  0
 28 74  1  0
 28 75  1  0
 29 76  1  0
 29 77  1  0
 30 78  1  0
 30 79  1  0
 32 80  1  0
 32 81  1  0
 32 82  1  0
M  END
>  <meeko>  (8) 
{"is_sidechain": [false], "intermolecular_energy": 2.731, "internal_energy": -0.839}

$$$$
EPH_relaxed_0001_pdb2pqr_Repair_373_r2_0001_out
     RDKit          3D

 82 86  0  0  0  0  0  0  0  0999 V2000
   -2.4740    7.9350   -2.0180 C   0  0  0  0  0  0  0  0  0  0  0  0
   -2.2910    8.5240   -0.6160 C   0  0  2  0  0  0  0  0  0  0  0  0
   -3.6050    8.5240    0.1900 C   0  0  0  0  0  0  0  0  0  0  0  0
   -4.8600    8.6430   -0.6790 C   0  0  0  0  0  0  0  0  0  0  0  0
   -5.6180    7.3510   -0.7390 C   0  0  2  0  0  0  0  0  0  0  0  0
   -5.5630    6.6830   -2.0060 O   0  0  0  0  0  0  0  0  0  0  0  0
   -6.8580    7.1470   -1.5890 C   0  0  0  0  0  0  0  0  0  0  0  0
   -7.4120    8.2480   -2.4380 C   0  0  0  0  0  0  0  0  0  0  0  0
   -7.8030    6.0460   -1.2230 C   0  0  0  0  0  0  0  0  0  0  0  0
   -1.7410    9.9420   -0.7160 C   0  0  1  0  0  0  0  0  0  0  0  0
   -1.2770   10.5010    0.6560 C   0  0  0  0  0  0  0  0  0  0  0  0
   -0.0430   11.3970    0.3800 C   0  0  0  0  0  0  0  0  0  0  0  0
   -0.0380   11.5920   -1.1550 C   0  0  1  0  0  0  0  0  0  0  0  0
   -1.0780   12.7260   -1.4190 C   0  0  0  0  0  0  0  0  0  0  0  0
    1.3460   11.9160   -1.8060 C   0  0  2  0  0  0  0  0  0  0  0  0
    1.9910   13.2350   -1.3460 C   0  0  0  0  0  0  0  0  0  0  0  0
    1.6420   14.4340   -2.1640 C   0  0  0  0  0  0  0  0  0  0  0  0
    1.0770   14.4110   -3.3850 C   0  0  0  0  0  0  0  0  0  0  0  0
    0.8190   13.0830   -4.1080 C   0  0  1  0  0  0  0  0  0  0  0  0
    1.3000   13.1920   -5.5790 C   0  0  0  0  0  0  0  0  0  0  0  0
    0.6850   14.3830   -6.3080 C   0  0  0  0  0  0  0  0  0  0  0  0
    1.0110   15.6900   -5.5910 C   0  0  2  0  0  0  0  0  0  0  0  0
    2.4190   15.9290   -5.6870 O   0  0  0  0  0  0  0  0  0  0  0  0
    0.5820   15.6930   -4.0970 C   0  0  0  0  0  0  0  0  0  0  0  0
   -0.9630   15.7380   -4.0000 C   0  0  0  0  0  0  0  0  0  0  0  0
    1.0950   17.0110   -3.4560 C   0  0  0  0  0  0  0  0  0  0  0  0
    1.3690   11.7800   -3.3820 C   0  0  1  0  0  0  0  0  0  0  0  0
    2.8540   11.5320   -3.7870 C   0  0  0  0  0  0  0  0  0  0  0  0
    0.5570   10.5290   -3.8870 C   0  0  0  0  0  0  0  0  0  0  0  0
   -0.7400   10.1900   -3.1270 C   0  0  0  0  0  0  0  0  0  0  0  0
   -0.4980   10.1610   -1.6150 C   0  0  2  0  0  0  0  0  0  0  0  0
    0.5280    9.0150   -1.3170 C   0  0  0  0  0  0  0  0  0  0  0  0
   -2.7995    6.8875   -1.9360 H   0  0  0  0  0  0  0  0  0  0  0  0
   -3.2347    8.5138   -2.5624 H   0  0  0  0  0  0  0  0  0  0  0  0
   -1.5193    7.9808   -2.5624 H   0  0  0  0  0  0  0  0  0  0  0  0
   -1.5749    7.8844   -0.0792 H   0  0  0  0  0  0  0  0  0  0  0  0
   -3.6639    7.5840    0.7582 H   0  0  0  0  0  0  0  0  0  0  0  0
   -3.5813    9.4086    0.8434 H   0  0  0  0  0  0  0  0  0  0  0  0
   -5.5136    9.4204   -0.2565 H   0  0  0  0  0  0  0  0  0  0  0  0
   -4.5461    8.9039   -1.7005 H   0  0  0  0  0  0  0  0  0  0  0  0
   -5.4112    7.1533    0.3232 H   0  0  0  0  0  0  0  0  0  0  0  0
   -7.8122    9.0433   -1.7919 H   0  0  0  0  0  0  0  0  0  0  0  0
   -6.6132    8.6587   -3.0730 H   0  0  0  0  0  0  0  0  0  0  0  0
   -8.2178    7.8513   -3.0730 H   0  0  0  0  0  0  0  0  0  0  0  0
   -7.8693    5.9687   -0.1277 H   0  0  0  0  0  0  0  0  0  0  0  0
   -8.7987    6.2649   -1.6361 H   0  0  0  0  0  0  0  0  0  0  0  0
   -7.4356    5.0950   -1.6361 H   0  0  0  0  0  0  0  0  0  0  0  0
   -2.6148   10.4484   -1.1519 H   0  0  0  0  0  0  0  0  0  0  0  0
   -2.0813   11.0949    1.1146 H   0  0  0  0  0  0  0  0  0  0  0  0
   -1.0254    9.6854    1.3499 H   0  0  0  0  0  0  0  0  0  0  0  0
   -0.1427   12.3644    0.8941 H   0  0  0  0  0  0  0  0  0  0  0  0
    0.8908   10.9455    0.7463 H   0  0  0  0  0  0  0  0  0  0  0  0
   -1.4408   13.1216   -0.4588 H   0  0  0  0  0  0  0  0  0  0  0  0
   -0.6011   13.5348   -1.9921 H   0  0  0  0  0  0  0  0  0  0  0  0
   -1.9249   12.3207   -1.9921 H   0  0  0  0  0  0  0  0  0  0  0  0
    1.9867   11.1156   -1.4075 H   0  0  0  0  0  0  0  0  0  0  0  0
    1.6733   13.4258   -0.3103 H   0  0  0  0  0  0  0  0  0  0  0  0
    3.0769   13.0974   -1.4551 H   0  0  0  0  0  0  0  0  0  0  0  0
    1.8658   15.4204   -1.7317 H   0  0  0  0  0  0  0  0  0  0  0  0
   -0.2699   12.9292   -4.0814 H   0  0  0  0  0  0  0  0  0  0  0  0
    2.3945   13.3015   -5.5851 H   0  0  0  0  0  0  0  0  0  0  0  0
    0.9821   12.2787   -6.1032 H   0  0  0  0  0  0  0  0  0  0  0  0
    1.0858   14.4244   -7.3316 H   0  0  0  0  0  0  0  0  0  0  0  0
   -0.4075   14.2565   -6.3271 H   0  0  0  0  0  0  0  0  0  0  0  0
    0.4371   16.4887   -6.0838 H   0  0  0  0  0  0  0  0  0  0  0  0
    2.7500   16.1020   -4.7900 H   0  0  0  0  0  0  0  0  0  0  0  0
   -1.2639   15.7468   -2.9420 H   0  0  0  0  0  0  0  0  0  0  0  0
   -1.3351   16.6474   -4.4946 H   0  0  0  0  0  0  0  0  0  0  0  0
   -1.3874   14.8518   -4.4946 H   0  0  0  0  0  0  0  0  0  0  0  0
    1.0608   16.9233   -2.3600 H   0  0  0  0  0  0  0  0  0  0  0  0
    2.1308   17.1959   -3.7769 H   0  0  0  0  0  0  0  0  0  0  0  0
    0.4568   17.8475   -3.7769 H   0  0  0  0  0  0  0  0  0  0  0  0
    3.4690   11.4293   -2.8808 H   0  0  0  0  0  0  0  0  0  0  0  0
    2.9224   10.6100   -4.3830 H   0  0  0  0  0  0  0  0  0  0  0  0
    3.2183   12.3817   -4.3830 H   0  0  0  0  0  0  0  0  0  0  0  0
    0.2893   10.7084   -4.9387 H   0  0  0  0  0  0  0  0  0  0  0  0
    1.2214    9.6682   -3.7210 H   0  0  0  0  0  0  0  0  0  0  0  0
   -1.5002   10.9516   -3.3552 H   0  0  0  0  0  0  0  0  0  0  0  0
   -1.0836    9.1950   -3.4463 H   0  0  0  0  0  0  0  0  0  0  0  0
    0.6365    8.8938   -0.2291 H   0  0  0  0  0  0  0  0  0  0  0  0
    0.1647    8.0742   -1.7563 H   0  0  0  0  0  0  0  0  0  0  0  0
    1.5030    9.2724   -1.7563 H   0  0  0  0  0  0  0  0  0  0  0  0
  1  2  1  0
  2  3  1  0
  3  4  1  0
  4  5  1  0
  5  6  1  0
  6  7  1  0
  7  8  1  0
  7  9  1  0
  2 10  1  0
 10 11  1  0
 11 12  1  0
 12 13  1  0
 13 14  1  1
 13 15  1  0
 15 16  1  0
 16 17  1  0
 17 18  2  0
 18 19  1  0
 19 20  1  0
 20 21  1  0
 21 22  1  0
 22 23  1  0
 22 24  1  0
 24 25  1  0
 24 26  1  0
 19 27  1  0
 27 28  1  6
 27 29  1  0
 29 30  1  0
 30 31  1  0
 31 32  1  6
  7  5  1  0
 31 10  1  0
 31 13  1  0
 27 15  1  0
 24 18  1  0
  1 33  1  0
  1 34  1  0
  1 35  1  0
  2 36  1  1
  3 37  1  0
  3 38  1  0
  4 39  1  0
  4 40  1  0
  5 41  1  1
  8 42  1  0
  8 43  1  0
  8 44  1  0
  9 45  1  0
  9 46  1  0
  9 47  1  0
 10 48  1  6
 11 49  1  0
 11 50  1  0
 12 51  1  0
 12 52  1  0
 14 53  1  0
 14 54  1  0
 14 55  1  0
 15 56  1  1
 16 57  1  0
 16 58  1  0
 17 59  1  0
 19 60  1  6
 20 61  1  0
 20 62  1  0
 21 63  1  0
 21 64  1  0
 22 65  1  6
 23 66  1  0
 25 67  1  0
 25 68  1  0
 25 69  1  0
 26 70  1  0
 26 71  1  0
 26 72  1  0
 28 73  1  0
 28 74  1  0
 28 75  1  0
 29 76  1  0
 29 77  1  0
 30 78  1  0
 30 79  1  0
 32 80  1  0
 32 81  1  0
 32 82  1  0
M  END
>  <meeko>  (9) 
{"is_sidechain": [false], "intermolecular_energy": 2.731, "internal_energy": -0.839}

$$$$
EPH_relaxed_0001_pdb2pqr_Repair_373_r2_0001_out
     RDKit          3D

 82 86  0  0  0  0  0  0  0  0999 V2000
   -0.8590   16.3510   -5.8280 C   0  0  0  0  0  0  0  0  0  0  0  0
    0.2270   15.6480   -6.6480 C   0  0  2  0  0  0  0  0  0  0  0  0
   -0.1820   15.4750   -8.1250 C   0  0  0  0  0  0  0  0  0  0  0  0
    0.4540   16.5030   -9.0640 C   0  0  0  0  0  0  0  0  0  0  0  0
    1.8530   16.1180   -9.4400 C   0  0  2  0  0  0  0  0  0  0  0  0
    2.3180   16.6810  -10.6740 O   0  0  0  0  0  0  0  0  0  0  0  0
    2.1890   15.2510  -10.6390 C   0  0  0  0  0  0  0  0  0  0  0  0
    1.1200   14.7130  -11.5370 C   0  0  0  0  0  0  0  0  0  0  0  0
    3.5000   14.5270  -10.6540 C   0  0  0  0  0  0  0  0  0  0  0  0
    0.5440   14.2900   -6.0330 C   0  0  1  0  0  0  0  0  0  0  0  0
    1.8070   13.6340   -6.6530 C   0  0  0  0  0  0  0  0  0  0  0  0
    2.5150   12.8600   -5.5120 C   0  0  0  0  0  0  0  0  0  0  0  0
    1.4770   12.8180   -4.3660 C   0  0  1  0  0  0  0  0  0  0  0  0
    0.5180   11.6440   -4.7370 C   0  0  0  0  0  0  0  0  0  0  0  0
    2.0500   12.6600   -2.9200 C   0  0  2  0  0  0  0  0  0  0  0  0
    2.8170   11.3520   -2.6610 C   0  0  0  0  0  0  0  0  0  0  0  0
    1.9900   10.2170   -2.1550 C   0  0  0  0  0  0  0  0  0  0  0  0
    0.7480   10.3200   -1.6480 C   0  0  0  0  0  0  0  0  0  0  0  0
    0.0860   11.6900   -1.4550 C   0  0  1  0  0  0  0  0  0  0  0  0
   -0.5580   11.7600   -0.0460 C   0  0  0  0  0  0  0  0  0  0  0  0
   -1.5210   10.6060    0.2150 C   0  0  0  0  0  0  0  0  0  0  0  0
   -0.8130    9.2620    0.0710 C   0  0  2  0  0  0  0  0  0  0  0  0
    0.1540    9.1350    1.1180 O   0  0  0  0  0  0  0  0  0  0  0  0
   -0.1170    9.0810   -1.3070 C   0  0  0  0  0  0  0  0  0  0  0  0
   -1.1880    8.9160   -2.4140 C   0  0  0  0  0  0  0  0  0  0  0  0
    0.6770    7.7470   -1.2700 C   0  0  0  0  0  0  0  0  0  0  0  0
    1.0000   12.9520   -1.7720 C   0  0  1  0  0  0  0  0  0  0  0  0
    1.8220   13.3440   -0.5060 C   0  0  0  0  0  0  0  0  0  0  0  0
    0.0780   14.1840   -2.1030 C   0  0  0  0  0  0  0  0  0  0  0  0
   -0.3570   14.3530   -3.5710 C   0  0  0  0  0  0  0  0  0  0  0  0
    0.8460   14.2500   -4.5140 C   0  0  2  0  0  0  0  0  0  0  0  0
    1.8180   15.4330   -4.1790 C   0  0  0  0  0  0  0  0  0  0  0  0
   -0.6529   16.2176   -4.7558 H   0  0  0  0  0  0  0  0  0  0  0  0
   -0.8640   17.4241   -6.0697 H   0  0  0  0  0  0  0  0  0  0  0  0
   -1.8401   15.9162   -6.0697 H   0  0  0  0  0  0  0  0  0  0  0  0
    1.1236   16.2848   -6.6260 H   0  0  0  0  0  0  0  0  0  0  0  0
    0.1211   14.4700   -8.4539 H   0  0  0  0  0  0  0  0  0  0  0  0
   -1.2708   15.6229   -8.1765 H   0  0  0  0  0  0  0  0  0  0  0  0
   -0.1539   16.5754   -9.9779 H   0  0  0  0  0  0  0  0  0  0  0  0
    0.4929   17.4692   -8.5396 H   0  0  0  0  0  0  0  0  0  0  0  0
    2.1461   16.0590   -8.3814 H   0  0  0  0  0  0  0  0  0  0  0  0
    0.3020   14.3013  -10.9275 H   0  0  0  0  0  0  0  0  0  0  0  0
    0.7323   15.5233  -12.1718 H   0  0  0  0  0  0  0  0  0  0  0  0
    1.5398   13.9188  -12.1718 H   0  0  0  0  0  0  0  0  0  0  0  0
    3.8300   14.3447   -9.6206 H   0  0  0  0  0  0  0  0  0  0  0  0
    3.3822   13.5660  -11.1762 H   0  0  0  0  0  0  0  0  0  0  0  0
    4.2506   15.1385  -11.1762 H   0  0  0  0  0  0  0  0  0  0  0  0
   -0.4010   13.7675   -6.2426 H   0  0  0  0  0  0  0  0  0  0  0  0
    1.5180   12.9419   -7.4577 H   0  0  0  0  0  0  0  0  0  0  0  0
    2.4735   14.3935   -7.0877 H   0  0  0  0  0  0  0  0  0  0  0  0
    2.7759   11.8420   -5.8370 H   0  0  0  0  0  0  0  0  0  0  0  0
    3.4563   13.3390   -5.2047 H   0  0  0  0  0  0  0  0  0  0  0  0
    0.1367   11.1772   -3.8168 H   0  0  0  0  0  0  0  0  0  0  0  0
   -0.3249   12.0318   -5.3278 H   0  0  0  0  0  0  0  0  0  0  0  0
    1.0662   10.8954   -5.3278 H   0  0  0  0  0  0  0  0  0  0  0  0
    2.8030   13.4606   -2.8756 H   0  0  0  0  0  0  0  0  0  0  0  0
    3.2825   11.0380   -3.6069 H   0  0  0  0  0  0  0  0  0  0  0  0
    3.5430   11.5775   -1.8660 H   0  0  0  0  0  0  0  0  0  0  0  0
    2.4335    9.2114   -2.2005 H   0  0  0  0  0  0  0  0  0  0  0  0
   -0.6953   11.7620   -2.2260 H   0  0  0  0  0  0  0  0  0  0  0  0
    0.2414   11.7298    0.7090 H   0  0  0  0  0  0  0  0  0  0  0  0
   -1.1342   12.6953    0.0117 H   0  0  0  0  0  0  0  0  0  0  0  0
   -1.9209   10.6947    1.2359 H   0  0  0  0  0  0  0  0  0  0  0  0
   -2.3355   10.6547   -0.5227 H   0  0  0  0  0  0  0  0  0  0  0  0
   -1.5799    8.4765    0.1413 H   0  0  0  0  0  0  0  0  0  0  0  0
   -0.2130    8.5320    1.7860 H   0  0  0  0  0  0  0  0  0  0  0  0
   -2.1740    8.7641   -1.9505 H   0  0  0  0  0  0  0  0  0  0  0  0
   -1.2120    9.8210   -3.0388 H   0  0  0  0  0  0  0  0  0  0  0  0
   -0.9385    8.0457   -3.0388 H   0  0  0  0  0  0  0  0  0  0  0  0
    0.8518    7.4532   -0.2245 H   0  0  0  0  0  0  0  0  0  0  0  0
    0.0990    6.9620   -1.7797 H   0  0  0  0  0  0  0  0  0  0  0  0
    1.6426    7.8808   -1.7797 H   0  0  0  0  0  0  0  0  0  0  0  0
    1.2554   13.0738    0.3973 H   0  0  0  0  0  0  0  0  0  0  0  0
    2.7818   12.8067   -0.5111 H   0  0  0  0  0  0  0  0  0  0  0  0
    2.0086   14.4280   -0.5111 H   0  0  0  0  0  0  0  0  0  0  0  0
   -0.8337   14.0900   -1.4947 H   0  0  0  0  0  0  0  0  0  0  0  0
    0.6916   15.0697   -1.8814 H   0  0  0  0  0  0  0  0  0  0  0  0
   -1.0817   13.5653   -3.8247 H   0  0  0  0  0  0  0  0  0  0  0  0
   -0.8122   15.3473   -3.6900 H   0  0  0  0  0  0  0  0  0  0  0  0
    1.9047   15.5385   -3.0875 H   0  0  0  0  0  0  0  0  0  0  0  0
    2.8097   15.2252   -4.6072 H   0  0  0  0  0  0  0  0  0  0  0  0
    1.4218   16.3656   -4.6072 H   0  0  0  0  0  0  0  0  0  0  0  0
  1  2  1  0
  2  3  1  0
  3  4  1  0
  4  5  1  0
  5  6  1  0
  6  7  1  0
  7  8  1  0
  7  9  1  0
  2 10  1  0
 10 11  1  0
 11 12  1  0
 12 13  1  0
 13 14  1  6
 13 15  1  0
 15 16  1  0
 16 17  1  0
 17 18  2  0
 18 19  1  0
 19 20  1  0
 20 21  1  0
 21 22  1  0
 22 23  1  0
 22 24  1  0
 24 25  1  0
 24 26  1  0
 19 27  1  0
 27 28  1  1
 27 29  1  0
 29 30  1  0
 30 31  1  0
 31 32  1  1
  7  5  1  0
 31 10  1  0
 31 13  1  0
 27 15  1  0
 24 18  1  0
  1 33  1  0
  1 34  1  0
  1 35  1  0
  2 36  1  6
  3 37  1  0
  3 38  1  0
  4 39  1  0
  4 40  1  0
  5 41  1  1
  8 42  1  0
  8 43  1  0
  8 44  1  0
  9 45  1  0
  9 46  1  0
  9 47  1  0
 10 48  1  1
 11 49  1  0
 11 50  1  0
 12 51  1  0
 12 52  1  0
 14 53  1  0
 14 54  1  0
 14 55  1  0
 15 56  1  6
 16 57  1  0
 16 58  1  0
 17 59  1  0
 19 60  1  6
 20 61  1  0
 20 62  1  0
 21 63  1  0
 21 64  1  0
 22 65  1  1
 23 66  1  0
 25 67  1  0
 25 68  1  0
 25 69  1  0
 26 70  1  0
 26 71  1  0
 26 72  1  0
 28 73  1  0
 28 74  1  0
 28 75  1  0
 29 76  1  0
 29 77  1  0
 30 78  1  0
 30 79  1  0
 32 80  1  0
 32 81  1  0
 32 82  1  0
M  END
>  <meeko>  (10) 
{"is_sidechain": [false], "intermolecular_energy": 2.731, "internal_energy": -0.839}

$$$$
EPH_relaxed_0001_pdb2pqr_Repair_373_r2_0001_out
     RDKit          3D

 82 86  0  0  0  0  0  0  0  0999 V2000
   -3.7030    7.1600   -3.4020 C   0  0  0  0  0  0  0  0  0  0  0  0
   -3.7500    7.2460   -1.8740 C   0  0  2  0  0  0  0  0  0  0  0  0
   -5.1730    7.0240   -1.3240 C   0  0  0  0  0  0  0  0  0  0  0  0
   -6.2740    7.2050   -2.3720 C   0  0  0  0  0  0  0  0  0  0  0  0
   -7.6130    7.4270   -1.7380 C   0  0  2  0  0  0  0  0  0  0  0  0
   -8.2320    6.2430   -1.2170 O   0  0  0  0  0  0  0  0  0  0  0  0
   -8.9100    6.8850   -2.3090 C   0  0  0  0  0  0  0  0  0  0  0  0
   -8.9310    6.0790   -3.5700 C   0  0  0  0  0  0  0  0  0  0  0  0
  -10.1950    7.5450   -1.9170 C   0  0  0  0  0  0  0  0  0  0  0  0
   -3.2180    8.5980   -1.4130 C   0  0  1  0  0  0  0  0  0  0  0  0
   -3.8350    9.0540   -0.0650 C   0  0  0  0  0  0  0  0  0  0  0  0
   -2.7240    9.8200    0.6990 C   0  0  0  0  0  0  0  0  0  0  0  0
   -1.6220   10.0660   -0.3580 C   0  0  1  0  0  0  0  0  0  0  0  0
   -2.1070   11.3150   -1.1590 C   0  0  0  0  0  0  0  0  0  0  0  0
   -0.1710   10.2590    0.1890 C   0  0  2  0  0  0  0  0  0  0  0  0
    0.0260   11.4830    1.1010 C   0  0  0  0  0  0  0  0  0  0  0  0
    0.4230   12.7410    0.4020 C   0  0  0  0  0  0  0  0  0  0  0  0
    0.8910   12.8220   -0.8580 C   0  0  0  0  0  0  0  0  0  0  0  0
    1.1530   11.5560   -1.6830 C   0  0  1  0  0  0  0  0  0  0  0  0
    2.5400   11.6630   -2.3700 C   0  0  0  0  0  0  0  0  0  0  0  0
    2.6870   12.9390   -3.1950 C   0  0  0  0  0  0  0  0  0  0  0  0
    2.4760   14.1770   -2.3270 C   0  0  2  0  0  0  0  0  0  0  0  0
    3.5470   14.2640   -1.3820 O   0  0  0  0  0  0  0  0  0  0  0  0
    1.1150   14.1750   -1.5770 C   0  0  0  0  0  0  0  0  0  0  0  0
   -0.0380   14.3840   -2.5890 C   0  0  0  0  0  0  0  0  0  0  0  0
    1.0900   15.4050   -0.6300 C   0  0  0  0  0  0  0  0  0  0  0  0
    0.9560   10.1760   -0.9190 C   0  0  1  0  0  0  0  0  0  0  0  0
    2.2740    9.7820   -0.1850 C   0  0  0  0  0  0  0  0  0  0  0  0
    0.6770    9.0400   -1.9720 C   0  0  0  0  0  0  0  0  0  0  0  0
   -0.7910    8.8190   -2.3830 C   0  0  0  0  0  0  0  0  0  0  0  0
   -1.6950    8.7110   -1.1510 C   0  0  2  0  0  0  0  0  0  0  0  0
   -1.2450    7.4500   -0.3370 C   0  0  0  0  0  0  0  0  0  0  0  0
   -3.1954    6.2312   -3.7015 H   0  0  0  0  0  0  0  0  0  0  0  0
   -4.7280    7.1628   -3.8011 H   0  0  0  0  0  0  0  0  0  0  0  0
   -3.1518    8.0242   -3.8011 H   0  0  0  0  0  0  0  0  0  0  0  0
   -3.1135    6.4414   -1.4771 H   0  0  0  0  0  0  0  0  0  0  0  0
   -5.2361    5.9998   -0.9276 H   0  0  0  0  0  0  0  0  0  0  0  0
   -5.3398    7.7858   -0.5482 H   0  0  0  0  0  0  0  0  0  0  0  0
   -6.0287    8.0742   -3.0000 H   0  0  0  0  0  0  0  0  0  0  0  0
   -6.3283    6.2858   -2.9738 H   0  0  0  0  0  0  0  0  0  0  0  0
   -7.3161    8.4335   -1.4081 H   0  0  0  0  0  0  0  0  0  0  0  0
   -8.9589    5.0081   -3.3202 H   0  0  0  0  0  0  0  0  0  0  0  0
   -9.8226    6.3417   -4.1583 H   0  0  0  0  0  0  0  0  0  0  0  0
   -8.0269    6.2949   -4.1583 H   0  0  0  0  0  0  0  0  0  0  0  0
  -10.2682    7.5826   -0.8201 H   0  0  0  0  0  0  0  0  0  0  0  0
  -10.2202    8.5676   -2.3214 H   0  0  0  0  0  0  0  0  0  0  0  0
  -11.0409    6.9698   -2.3214 H   0  0  0  0  0  0  0  0  0  0  0  0
   -3.4968    9.2122   -2.2819 H   0  0  0  0  0  0  0  0  0  0  0  0
   -4.6950    9.7154   -0.2465 H   0  0  0  0  0  0  0  0  0  0  0  0
   -4.1926    8.1921    0.5174 H   0  0  0  0  0  0  0  0  0  0  0  0
   -3.1080   10.7742    1.0889 H   0  0  0  0  0  0  0  0  0  0  0  0
   -2.3509    9.2572    1.5673 H   0  0  0  0  0  0  0  0  0  0  0  0
   -2.4135   12.1044   -0.4570 H   0  0  0  0  0  0  0  0  0  0  0  0
   -1.2874   11.6855   -1.7922 H   0  0  0  0  0  0  0  0  0  0  0  0
   -2.9618   11.0352   -1.7922 H   0  0  0  0  0  0  0  0  0  0  0  0
   -0.0455    9.3801    0.8384 H   0  0  0  0  0  0  0  0  0  0  0  0
   -0.9215   11.6709    1.6273 H   0  0  0  0  0  0  0  0  0  0  0  0
    0.8601   11.2314    1.7725 H   0  0  0  0  0  0  0  0  0  0  0  0
    0.3249   13.6815    0.9639 H   0  0  0  0  0  0  0  0  0  0  0  0
    0.3602   11.5212   -2.4448 H   0  0  0  0  0  0  0  0  0  0  0  0
    3.3197   11.6528   -1.5941 H   0  0  0  0  0  0  0  0  0  0  0  0
    2.6402   10.8085   -3.0554 H   0  0  0  0  0  0  0  0  0  0  0  0
    3.6968   12.9721   -3.6300 H   0  0  0  0  0  0  0  0  0  0  0  0
    1.9261   12.9332   -3.9894 H   0  0  0  0  0  0  0  0  0  0  0  0
    2.4634   15.0508   -2.9950 H   0  0  0  0  0  0  0  0  0  0  0  0
    4.3750   14.3570   -1.8820 H   0  0  0  0  0  0  0  0  0  0  0  0
   -0.9780   14.5544   -2.0438 H   0  0  0  0  0  0  0  0  0  0  0  0
    0.1826   15.2568   -3.2211 H   0  0  0  0  0  0  0  0  0  0  0  0
   -0.1377   13.4893   -3.2211 H   0  0  0  0  0  0  0  0  0  0  0  0
    1.0970   15.0630    0.4155 H   0  0  0  0  0  0  0  0  0  0  0  0
    1.9756   16.0300   -0.8172 H   0  0  0  0  0  0  0  0  0  0  0  0
    0.1797   15.9935   -0.8172 H   0  0  0  0  0  0  0  0  0  0  0  0
    2.1162    9.8292    0.9026 H   0  0  0  0  0  0  0  0  0  0  0  0
    2.5606    8.7589   -0.4699 H   0  0  0  0  0  0  0  0  0  0  0  0
    3.0751   10.4799   -0.4699 H   0  0  0  0  0  0  0  0  0  0  0  0
    1.2444    9.2835   -2.8824 H   0  0  0  0  0  0  0  0  0  0  0  0
    0.9804    8.1065   -1.4754 H   0  0  0  0  0  0  0  0  0  0  0  0
   -1.1235    9.6668   -3.0001 H   0  0  0  0  0  0  0  0  0  0  0  0
   -0.8586    7.8795   -2.9511 H   0  0  0  0  0  0  0  0  0  0  0  0
   -1.3208    7.6623    0.7396 H   0  0  0  0  0  0  0  0  0  0  0  0
   -1.8951    6.5993   -0.5896 H   0  0  0  0  0  0  0  0  0  0  0  0
   -0.2033    7.2031   -0.5896 H   0  0  0  0  0  0  0  0  0  0  0  0
  1  2  1  0
  2  3  1  0
  3  4  1  0
  4  5  1  0
  5  6  1  0
  6  7  1  0
  7  8  1  0
  7  9  1  0
  2 10  1  0
 10 11  1  0
 11 12  1  0
 12 13  1  0
 13 14  1  6
 13 15  1  0
 15 16  1  0
 16 17  1  0
 17 18  2  0
 18 19  1  0
 19 20  1  0
 20 21  1  0
 21 22  1  0
 22 23  1  0
 22 24  1  0
 24 25  1  0
 24 26  1  0
 19 27  1  0
 27 28  1  1
 27 29  1  0
 29 30  1  0
 30 31  1  0
 31 32  1  1
  7  5  1  0
 31 10  1  0
 31 13  1  0
 27 15  1  0
 24 18  1  0
  1 33  1  0
  1 34  1  0
  1 35  1  0
  2 36  1  1
  3 37  1  0
  3 38  1  0
  4 39  1  0
  4 40  1  0
  5 41  1  1
  8 42  1  0
  8 43  1  0
  8 44  1  0
  9 45  1  0
  9 46  1  0
  9 47  1  0
 10 48  1  6
 11 49  1  0
 11 50  1  0
 12 51  1  0
 12 52  1  0
 14 53  1  0
 14 54  1  0
 14 55  1  0
 15 56  1  1
 16 57  1  0
 16 58  1  0
 17 59  1  0
 19 60  1  6
 20 61  1  0
 20 62  1  0
 21 63  1  0
 21 64  1  0
 22 65  1  6
 23 66  1  0
 25 67  1  0
 25 68  1  0
 25 69  1  0
 26 70  1  0
 26 71  1  0
 26 72  1  0
 28 73  1  0
 28 74  1  0
 28 75  1  0
 29 76  1  0
 29 77  1  0
 30 78  1  0
 30 79  1  0
 32 80  1  0
 32 81  1  0
 32 82  1  0
M  END
>  <meeko>  (11) 
{"is_sidechain": [false], "intermolecular_energy": 2.731, "internal_energy": -0.839}

$$$$
EPH_relaxed_0001_pdb2pqr_Repair_373_r2_0001_out
     RDKit          3D

 82 86  0  0  0  0  0  0  0  0999 V2000
   -6.0180    6.6330   -3.0720 C   0  0  0  0  0  0  0  0  0  0  0  0
   -6.6020    7.3410   -1.8460 C   0  0  2  0  0  0  0  0  0  0  0  0
   -8.0060    7.9150   -2.1210 C   0  0  0  0  0  0  0  0  0  0  0  0
   -9.1350    7.1270   -1.4500 C   0  0  0  0  0  0  0  0  0  0  0  0
  -10.4620    7.4060   -2.0890 C   0  0  2  0  0  0  0  0  0  0  0  0
  -11.0220    8.6870   -1.7700 O   0  0  0  0  0  0  0  0  0  0  0  0
  -11.7550    7.5410   -1.3070 C   0  0  0  0  0  0  0  0  0  0  0  0
  -11.7850    7.3990    0.1820 C   0  0  0  0  0  0  0  0  0  0  0  0
  -13.0510    7.3250   -2.0250 C   0  0  0  0  0  0  0  0  0  0  0  0
   -5.6640    8.4530   -1.3930 C   0  0  1  0  0  0  0  0  0  0  0  0
   -6.0210    8.9990    0.0160 C   0  0  0  0  0  0  0  0  0  0  0  0
   -4.6820    9.3670    0.7050 C   0  0  0  0  0  0  0  0  0  0  0  0
   -3.6360    9.3370   -0.4330 C   0  0  1  0  0  0  0  0  0  0  0  0
   -3.7880   10.7130   -1.1540 C   0  0  0  0  0  0  0  0  0  0  0  0
   -2.1560    9.0710   -0.0050 C   0  0  2  0  0  0  0  0  0  0  0  0
   -1.5430   10.1350    0.9220 C   0  0  0  0  0  0  0  0  0  0  0  0
   -0.8440   11.2580    0.2280 C   0  0  0  0  0  0  0  0  0  0  0  0
   -0.4660   11.2650   -1.0630 C   0  0  0  0  0  0  0  0  0  0  0  0
   -0.6480   10.0230   -1.9440 C   0  0  1  0  0  0  0  0  0  0  0  0
    0.6560    9.7580   -2.7420 C   0  0  0  0  0  0  0  0  0  0  0  0
    1.1110   10.9770   -3.5390 C   0  0  0  0  0  0  0  0  0  0  0  0
    1.3380   12.1750   -2.6210 C   0  0  2  0  0  0  0  0  0  0  0  0
    2.4520   11.8980   -1.7670 O   0  0  0  0  0  0  0  0  0  0  0  0
    0.0940   12.5300   -1.7590 C   0  0  0  0  0  0  0  0  0  0  0  0
   -1.0160   13.1190   -2.6650 C   0  0  0  0  0  0  0  0  0  0  0  0
    0.5000   13.6640   -0.7790 C   0  0  0  0  0  0  0  0  0  0  0  0
   -1.1860    8.7220   -1.2060 C   0  0  1  0  0  0  0  0  0  0  0  0
    0.0070    7.9230   -0.5980 C   0  0  0  0  0  0  0  0  0  0  0  0
   -1.8620    7.7730   -2.2650 C   0  0  0  0  0  0  0  0  0  0  0  0
   -3.3560    8.0100   -2.5570 C   0  0  0  0  0  0  0  0  0  0  0  0
   -4.1600    8.1050   -1.2560 C   0  0  2  0  0  0  0  0  0  0  0  0
   -4.0440    6.7270   -0.5200 C   0  0  0  0  0  0  0  0  0  0  0  0
   -5.3499    5.8230   -2.7440 H   0  0  0  0  0  0  0  0  0  0  0  0
   -6.8352    6.2122   -3.6763 H   0  0  0  0  0  0  0  0  0  0  0  0
   -5.4495    7.3552   -3.6763 H   0  0  0  0  0  0  0  0  0  0  0  0
   -6.7030    6.5913   -1.0474 H   0  0  0  0  0  0  0  0  0  0  0  0
   -8.0368    8.9501   -1.7502 H   0  0  0  0  0  0  0  0  0  0  0  0
   -8.1718    7.8533   -3.2067 H   0  0  0  0  0  0  0  0  0  0  0  0
   -8.9180    6.0519   -1.5339 H   0  0  0  0  0  0  0  0  0  0  0  0
   -9.1901    7.4371   -0.3961 H   0  0  0  0  0  0  0  0  0  0  0  0
  -10.1917    6.8041   -2.9691 H   0  0  0  0  0  0  0  0  0  0  0  0
  -11.5790    8.3741    0.6475 H   0  0  0  0  0  0  0  0  0  0  0  0
  -12.7778    7.0449    0.4966 H   0  0  0  0  0  0  0  0  0  0  0  0
  -11.0203    6.6736    0.4966 H   0  0  0  0  0  0  0  0  0  0  0  0
  -13.8589    7.1903   -1.2908 H   0  0  0  0  0  0  0  0  0  0  0  0
  -13.2708    8.1989   -2.6559 H   0  0  0  0  0  0  0  0  0  0  0  0
  -12.9754    6.4271   -2.6559 H   0  0  0  0  0  0  0  0  0  0  0  0
   -5.8116    9.1651   -2.2183 H   0  0  0  0  0  0  0  0  0  0  0  0
   -6.6586    9.8909   -0.0736 H   0  0  0  0  0  0  0  0  0  0  0  0
   -6.5739    8.2498    0.6017 H   0  0  0  0  0  0  0  0  0  0  0  0
   -4.7390   10.3697    1.1536 H   0  0  0  0  0  0  0  0  0  0  0  0
   -4.4294    8.6749    1.5218 H   0  0  0  0  0  0  0  0  0  0  0  0
   -3.8763   11.5124   -0.4036 H   0  0  0  0  0  0  0  0  0  0  0  0
   -2.9047   10.8968   -1.7833 H   0  0  0  0  0  0  0  0  0  0  0  0
   -4.6901   10.6995   -1.7833 H   0  0  0  0  0  0  0  0  0  0  0  0
   -2.2478    8.1606    0.6056 H   0  0  0  0  0  0  0  0  0  0  0  0
   -2.3530   10.5630    1.5308 H   0  0  0  0  0  0  0  0  0  0  0  0
   -0.7742    9.6170    1.5141 H   0  0  0  0  0  0  0  0  0  0  0  0
   -0.6193   12.1554    0.8231 H   0  0  0  0  0  0  0  0  0  0  0  0
   -1.4684   10.2601   -2.6373 H   0  0  0  0  0  0  0  0  0  0  0  0
    1.4521    9.4814   -2.0351 H   0  0  0  0  0  0  0  0  0  0  0  0
    0.4513    8.9481   -3.4576 H   0  0  0  0  0  0  0  0  0  0  0  0
    2.0510   10.7377   -4.0577 H   0  0  0  0  0  0  0  0  0  0  0  0
    0.3260   11.2348   -4.2652 H   0  0  0  0  0  0  0  0  0  0  0  0
    1.5362   13.0476   -3.2607 H   0  0  0  0  0  0  0  0  0  0  0  0
    2.1510   12.0010   -0.8480 H   0  0  0  0  0  0  0  0  0  0  0  0
   -1.8145   13.5427   -2.0382 H   0  0  0  0  0  0  0  0  0  0  0  0
   -0.5899   13.9096   -3.3001 H   0  0  0  0  0  0  0  0  0  0  0  0
   -1.4318   12.3229   -3.3001 H   0  0  0  0  0  0  0  0  0  0  0  0
    0.3752   13.3155    0.2569 H   0  0  0  0  0  0  0  0  0  0  0  0
    1.5518   13.9371   -0.9498 H   0  0  0  0  0  0  0  0  0  0  0  0
   -0.1394   14.5426   -0.9498 H   0  0  0  0  0  0  0  0  0  0  0  0
   -0.0485    7.9601    0.5000 H   0  0  0  0  0  0  0  0  0  0  0  0
   -0.0443    6.8764   -0.9325 H   0  0  0  0  0  0  0  0  0  0  0  0
    0.9553    8.3688   -0.9325 H   0  0  0  0  0  0  0  0  0  0  0  0
   -1.3153    7.8889   -3.2125 H   0  0  0  0  0  0  0  0  0  0  0  0
   -1.8113    6.7668   -1.8234 H   0  0  0  0  0  0  0  0  0  0  0  0
   -3.4684    8.9489   -3.1190 H   0  0  0  0  0  0  0  0  0  0  0  0
   -3.7377    7.1620   -3.1445 H   0  0  0  0  0  0  0  0  0  0  0  0
   -4.0577    6.8900    0.5678 H   0  0  0  0  0  0  0  0  0  0  0  0
   -4.8914    6.0864   -0.8055 H   0  0  0  0  0  0  0  0  0  0  0  0
   -3.1014    6.2370   -0.8055 H   0  0  0  0  0  0  0  0  0  0  0  0
  1  2  1  0
  2  3  1  0
  3  4  1  0
  4  5  1  0
  5  6  1  0
  6  7  1  0
  7  8  1  0
  7  9  1  0
  2 10  1  0
 10 11  1  0
 11 12  1  0
 12 13  1  0
 13 14  1  6
 13 15  1  0
 15 16  1  0
 16 17  1  0
 17 18  2  0
 18 19  1  0
 19 20  1  0
 20 21  1  0
 21 22  1  0
 22 23  1  0
 22 24  1  0
 24 25  1  0
 24 26  1  0
 19 27  1  0
 27 28  1  1
 27 29  1  0
 29 30  1  0
 30 31  1  0
 31 32  1  1
  7  5  1  0
 31 10  1  0
 31 13  1  0
 27 15  1  0
 24 18  1  0
  1 33  1  0
  1 34  1  0
  1 35  1  0
  2 36  1  1
  3 37  1  0
  3 38  1  0
  4 39  1  0
  4 40  1  0
  5 41  1  6
  8 42  1  0
  8 43  1  0
  8 44  1  0
  9 45  1  0
  9 46  1  0
  9 47  1  0
 10 48  1  6
 11 49  1  0
 11 50  1  0
 12 51  1  0
 12 52  1  0
 14 53  1  0
 14 54  1  0
 14 55  1  0
 15 56  1  1
 16 57  1  0
 16 58  1  0
 17 59  1  0
 19 60  1  6
 20 61  1  0
 20 62  1  0
 21 63  1  0
 21 64  1  0
 22 65  1  6
 23 66  1  0
 25 67  1  0
 25 68  1  0
 25 69  1  0
 26 70  1  0
 26 71  1  0
 26 72  1  0
 28 73  1  0
 28 74  1  0
 28 75  1  0
 29 76  1  0
 29 77  1  0
 30 78  1  0
 30 79  1  0
 32 80  1  0
 32 81  1  0
 32 82  1  0
M  END
>  <meeko>  (12) 
{"is_sidechain": [false], "intermolecular_energy": 2.731, "internal_energy": -0.839}

$$$$
EPH_relaxed_0001_pdb2pqr_Repair_373_r2_0001_out
     RDKit          3D

 82 86  0  0  0  0  0  0  0  0999 V2000
    2.0640   10.8700   -5.2280 C   0  0  0  0  0  0  0  0  0  0  0  0
    1.4330   10.7800   -3.8360 C   0  0  2  0  0  0  0  0  0  0  0  0
    0.2820    9.7550   -3.7850 C   0  0  0  0  0  0  0  0  0  0  0  0
    0.1470    9.0470   -2.4340 C   0  0  0  0  0  0  0  0  0  0  0  0
   -1.2820    8.9650   -1.9910 C   0  0  2  0  0  0  0  0  0  0  0  0
   -1.9170   10.2320   -1.7810 O   0  0  0  0  0  0  0  0  0  0  0  0
   -1.7590    9.4020   -0.6190 C   0  0  0  0  0  0  0  0  0  0  0  0
   -0.8090    9.9530    0.3980 C   0  0  0  0  0  0  0  0  0  0  0  0
   -3.0460    8.8430   -0.0970 C   0  0  0  0  0  0  0  0  0  0  0  0
    0.9280   12.1520   -3.4040 C   0  0  1  0  0  0  0  0  0  0  0  0
   -0.6030   12.1730   -3.1510 C   0  0  0  0  0  0  0  0  0  0  0  0
   -0.8490   13.1540   -1.9770 C   0  0  0  0  0  0  0  0  0  0  0  0
    0.4900   13.9100   -1.8120 C   0  0  1  0  0  0  0  0  0  0  0  0
    0.4620   15.0190   -2.9100 C   0  0  0  0  0  0  0  0  0  0  0  0
    0.7780   14.5070   -0.3960 C   0  0  2  0  0  0  0  0  0  0  0  0
   -0.2180   15.5810    0.0740 C   0  0  0  0  0  0  0  0  0  0  0  0
    0.1430   16.9850   -0.2830 C   0  0  0  0  0  0  0  0  0  0  0  0
    1.3540   17.4000   -0.7000 C   0  0  0  0  0  0  0  0  0  0  0  0
    2.5420   16.4310   -0.7550 C   0  0  1  0  0  0  0  0  0  0  0  0
    3.7880   17.1020   -0.1200 C   0  0  0  0  0  0  0  0  0  0  0  0
    4.1080   18.4550   -0.7500 C   0  0  0  0  0  0  0  0  0  0  0  0
    2.9230   19.4090   -0.6230 C   0  0  2  0  0  0  0  0  0  0  0  0
    2.7290   19.7210    0.7600 O   0  0  0  0  0  0  0  0  0  0  0  0
    1.6080   18.8360   -1.2200 C   0  0  0  0  0  0  0  0  0  0  0  0
    1.7170   18.7810   -2.7640 C   0  0  0  0  0  0  0  0  0  0  0  0
    0.4640   19.8350   -0.9010 C   0  0  0  0  0  0  0  0  0  0  0  0
    2.2750   14.9730   -0.1810 C   0  0  1  0  0  0  0  0  0  0  0  0
    2.5310   14.9520    1.3570 C   0  0  0  0  0  0  0  0  0  0  0  0
    3.3100   13.9720   -0.8170 C   0  0  0  0  0  0  0  0  0  0  0  0
    2.9160   13.3240   -2.1580 C   0  0  0  0  0  0  0  0  0  0  0  0
    1.5020   12.7390   -2.0900 C   0  0  2  0  0  0  0  0  0  0  0  0
    1.5050   11.6050   -1.0090 C   0  0  0  0  0  0  0  0  0  0  0  0
    3.1486   11.0247   -5.1296 H   0  0  0  0  0  0  0  0  0  0  0  0
    1.8752    9.9358   -5.7773 H   0  0  0  0  0  0  0  0  0  0  0  0
    1.6216   11.7141   -5.7773 H   0  0  0  0  0  0  0  0  0  0  0  0
    2.2130   10.4353   -3.1412 H   0  0  0  0  0  0  0  0  0  0  0  0
   -0.6607   10.2807   -3.9972 H   0  0  0  0  0  0  0  0  0  0  0  0
    0.5083    8.9803   -4.5324 H   0  0  0  0  0  0  0  0  0  0  0  0
    0.5513    8.0279   -2.5237 H   0  0  0  0  0  0  0  0  0  0  0  0
    0.7050    9.6283   -1.6852 H   0  0  0  0  0  0  0  0  0  0  0  0
   -1.4303    8.0368   -2.5624 H   0  0  0  0  0  0  0  0  0  0  0  0
   -1.1858    9.7344    1.4081 H   0  0  0  0  0  0  0  0  0  0  0  0
    0.1791    9.4878    0.2667 H   0  0  0  0  0  0  0  0  0  0  0  0
   -0.7221   11.0417    0.2667 H   0  0  0  0  0  0  0  0  0  0  0  0
   -3.0295    8.8502    1.0029 H   0  0  0  0  0  0  0  0  0  0  0  0
   -3.8849    9.4579   -0.4552 H   0  0  0  0  0  0  0  0  0  0  0  0
   -3.1692    7.8103   -0.4552 H   0  0  0  0  0  0  0  0  0  0  0  0
    1.2642   12.7512   -4.2630 H   0  0  0  0  0  0  0  0  0  0  0  0
   -1.1310   12.5200   -4.0515 H   0  0  0  0  0  0  0  0  0  0  0  0
   -0.9772   11.1671   -2.9100 H   0  0  0  0  0  0  0  0  0  0  0  0
   -1.6624   13.8536   -2.2197 H   0  0  0  0  0  0  0  0  0  0  0  0
   -1.1504   12.6341   -1.0556 H   0  0  0  0  0  0  0  0  0  0  0  0
    0.4370   16.0088   -2.4308 H   0  0  0  0  0  0  0  0  0  0  0  0
    1.3625   14.9375   -3.5365 H   0  0  0  0  0  0  0  0  0  0  0  0
   -0.4332   14.8922   -3.5365 H   0  0  0  0  0  0  0  0  0  0  0  0
    0.6159   13.6408    0.2624 H   0  0  0  0  0  0  0  0  0  0  0  0
   -1.1967   15.3569   -0.3753 H   0  0  0  0  0  0  0  0  0  0  0  0
   -0.2174   15.5366    1.1731 H   0  0  0  0  0  0  0  0  0  0  0  0
   -0.6477   17.7450   -0.1981 H   0  0  0  0  0  0  0  0  0  0  0  0
    2.7261   16.2365   -1.8219 H   0  0  0  0  0  0  0  0  0  0  0  0
    3.6010   17.2484    0.9541 H   0  0  0  0  0  0  0  0  0  0  0  0
    4.6492   16.4402   -0.2940 H   0  0  0  0  0  0  0  0  0  0  0  0
    4.9789   18.8927   -0.2402 H   0  0  0  0  0  0  0  0  0  0  0  0
    4.3241   18.3032   -1.8178 H   0  0  0  0  0  0  0  0  0  0  0  0
    3.1624   20.3119   -1.2039 H   0  0  0  0  0  0  0  0  0  0  0  0
    2.0460   20.4110    0.8120 H   0  0  0  0  0  0  0  0  0  0  0  0
    2.6658   18.3022   -3.0478 H   0  0  0  0  0  0  0  0  0  0  0  0
    0.8767   18.1990   -3.1704 H   0  0  0  0  0  0  0  0  0  0  0  0
    1.6859   19.8027   -3.1704 H   0  0  0  0  0  0  0  0  0  0  0  0
    0.3543   19.9308    0.1893 H   0  0  0  0  0  0  0  0  0  0  0  0
    0.7042   20.8176   -1.3331 H   0  0  0  0  0  0  0  0  0  0  0  0
   -0.4773   19.4646   -1.3331 H   0  0  0  0  0  0  0  0  0  0  0  0
    1.5717   15.0307    1.8895 H   0  0  0  0  0  0  0  0  0  0  0  0
    3.0275   14.0101    1.6332 H   0  0  0  0  0  0  0  0  0  0  0  0
    3.1744   15.8004    1.6332 H   0  0  0  0  0  0  0  0  0  0  0  0
    4.2495   14.5214   -0.9763 H   0  0  0  0  0  0  0  0  0  0  0  0
    3.3790   13.1376   -0.1035 H   0  0  0  0  0  0  0  0  0  0  0  0
    2.9523   14.0862   -2.9503 H   0  0  0  0  0  0  0  0  0  0  0  0
    3.6225   12.5092   -2.3747 H   0  0  0  0  0  0  0  0  0  0  0  0
    1.5038   12.0552   -0.0053 H   0  0  0  0  0  0  0  0  0  0  0  0
    0.6085   10.9794   -1.1313 H   0  0  0  0  0  0  0  0  0  0  0  0
    2.4048   10.9842   -1.1313 H   0  0  0  0  0  0  0  0  0  0  0  0
  1  2  1  0
  2  3  1  0
  3  4  1  0
  4  5  1  0
  5  6  1  0
  6  7  1  0
  7  8  1  0
  7  9  1  0
  2 10  1  0
 10 11  1  0
 11 12  1  0
 12 13  1  0
 13 14  1  6
 13 15  1  0
 15 16  1  0
 16 17  1  0
 17 18  2  0
 18 19  1  0
 19 20  1  0
 20 21  1  0
 21 22  1  0
 22 23  1  0
 22 24  1  0
 24 25  1  0
 24 26  1  0
 19 27  1  0
 27 28  1  1
 27 29  1  0
 29 30  1  0
 30 31  1  0
 31 32  1  1
  7  5  1  0
 31 10  1  0
 31 13  1  0
 27 15  1  0
 24 18  1  0
  1 33  1  0
  1 34  1  0
  1 35  1  0
  2 36  1  1
  3 37  1  0
  3 38  1  0
  4 39  1  0
  4 40  1  0
  5 41  1  6
  8 42  1  0
  8 43  1  0
  8 44  1  0
  9 45  1  0
  9 46  1  0
  9 47  1  0
 10 48  1  6
 11 49  1  0
 11 50  1  0
 12 51  1  0
 12 52  1  0
 14 53  1  0
 14 54  1  0
 14 55  1  0
 15 56  1  1
 16 57  1  0
 16 58  1  0
 17 59  1  0
 19 60  1  6
 20 61  1  0
 20 62  1  0
 21 63  1  0
 21 64  1  0
 22 65  1  6
 23 66  1  0
 25 67  1  0
 25 68  1  0
 25 69  1  0
 26 70  1  0
 26 71  1  0
 26 72  1  0
 28 73  1  0
 28 74  1  0
 28 75  1  0
 29 76  1  0
 29 77  1  0
 30 78  1  0
 30 79  1  0
 32 80  1  0
 32 81  1  0
 32 82  1  0
M  END
>  <meeko>  (13) 
{"is_sidechain": [false], "intermolecular_energy": 2.731, "internal_energy": -0.839}

$$$$
EPH_relaxed_0001_pdb2pqr_Repair_373_r2_0001_out
     RDKit          3D

 82 86  0  0  0  0  0  0  0  0999 V2000
   -2.8460    7.6110   -0.3910 C   0  0  0  0  0  0  0  0  0  0  0  0
   -3.1380    9.0680   -0.0230 C   0  0  2  0  0  0  0  0  0  0  0  0
   -4.6450    9.3900   -0.0760 C   0  0  0  0  0  0  0  0  0  0  0  0
   -5.5430    8.1660    0.1180 C   0  0  0  0  0  0  0  0  0  0  0  0
   -6.3950    7.9060   -1.0880 C   0  0  2  0  0  0  0  0  0  0  0  0
   -7.4440    6.9500   -0.8850 O   0  0  0  0  0  0  0  0  0  0  0  0
   -6.4210    6.5800   -1.8240 C   0  0  0  0  0  0  0  0  0  0  0  0
   -5.5790    5.4250   -1.3810 C   0  0  0  0  0  0  0  0  0  0  0  0
   -6.8870    6.5600   -3.2460 C   0  0  0  0  0  0  0  0  0  0  0  0
   -2.3730   10.0020   -0.9530 C   0  0  1  0  0  0  0  0  0  0  0  0
   -3.0200   11.4100   -1.0510 C   0  0  0  0  0  0  0  0  0  0  0  0
   -1.8590   12.4260   -1.2020 C   0  0  0  0  0  0  0  0  0  0  0  0
   -0.6190   11.5580   -1.5180 C   0  0  1  0  0  0  0  0  0  0  0  0
   -0.7200   11.2550   -3.0460 C   0  0  0  0  0  0  0  0  0  0  0  0
    0.7690   12.1720   -1.1420 C   0  0  2  0  0  0  0  0  0  0  0  0
    1.1300   13.4710   -1.8830 C   0  0  0  0  0  0  0  0  0  0  0  0
    1.8740   13.2880   -3.1650 C   0  0  0  0  0  0  0  0  0  0  0  0
    2.4860   12.1560   -3.5590 C   0  0  0  0  0  0  0  0  0  0  0  0
    2.5500   10.9320   -2.6360 C   0  0  1  0  0  0  0  0  0  0  0  0
    3.9930   10.3650   -2.6270 C   0  0  0  0  0  0  0  0  0  0  0  0
    4.5130   10.0650   -4.0300 C   0  0  0  0  0  0  0  0  0  0  0  0
    4.4880   11.3190   -4.9000 C   0  0  2  0  0  0  0  0  0  0  0  0
    5.4380   12.2560   -4.3850 O   0  0  0  0  0  0  0  0  0  0  0  0
    3.0850   11.9840   -4.9770 C   0  0  0  0  0  0  0  0  0  0  0  0
    2.1290   11.0900   -5.8040 C   0  0  0  0  0  0  0  0  0  0  0  0
    3.2300   13.3130   -5.7670 C   0  0  0  0  0  0  0  0  0  0  0  0
    1.9660   11.1370   -1.1720 C   0  0  1  0  0  0  0  0  0  0  0  0
    3.0720   11.7080   -0.2330 C   0  0  0  0  0  0  0  0  0  0  0  0
    1.5600    9.7360   -0.5800 C   0  0  0  0  0  0  0  0  0  0  0  0
    0.1350    9.2380   -0.8870 C   0  0  0  0  0  0  0  0  0  0  0  0
   -0.9020   10.3240   -0.5860 C   0  0  2  0  0  0  0  0  0  0  0  0
   -0.8400   10.6330    0.9490 C   0  0  0  0  0  0  0  0  0  0  0  0
   -2.7271    7.0176    0.5275 H   0  0  0  0  0  0  0  0  0  0  0  0
   -3.6812    7.2078   -0.9825 H   0  0  0  0  0  0  0  0  0  0  0  0
   -1.9199    7.5607   -0.9825 H   0  0  0  0  0  0  0  0  0  0  0  0
   -2.8045    9.2204    1.0141 H   0  0  0  0  0  0  0  0  0  0  0  0
   -4.8728   10.1171    0.7174 H   0  0  0  0  0  0  0  0  0  0  0  0
   -4.8539    9.7859   -1.0808 H   0  0  0  0  0  0  0  0  0  0  0  0
   -4.9102    7.2856    0.3039 H   0  0  0  0  0  0  0  0  0  0  0  0
   -6.2083    8.3610    0.9720 H   0  0  0  0  0  0  0  0  0  0  0  0
   -6.2584    8.9404   -1.4365 H   0  0  0  0  0  0  0  0  0  0  0  0
   -5.5535    5.3901   -0.2818 H   0  0  0  0  0  0  0  0  0  0  0  0
   -6.0080    4.4889   -1.7678 H   0  0  0  0  0  0  0  0  0  0  0  0
   -4.5565    5.5470   -1.7678 H   0  0  0  0  0  0  0  0  0  0  0  0
   -7.9857    6.5128   -3.2712 H   0  0  0  0  0  0  0  0  0  0  0  0
   -6.5474    7.4735   -3.7560 H   0  0  0  0  0  0  0  0  0  0  0  0
   -6.4704    5.6789   -3.7560 H   0  0  0  0  0  0  0  0  0  0  0  0
   -2.4089    9.4093   -1.8790 H   0  0  0  0  0  0  0  0  0  0  0  0
   -3.6846   11.4614   -1.9260 H   0  0  0  0  0  0  0  0  0  0  0  0
   -3.6240   11.6302   -0.1584 H   0  0  0  0  0  0  0  0  0  0  0  0
   -2.0616   13.1276   -2.0246 H   0  0  0  0  0  0  0  0  0  0  0  0
   -1.7203   13.0379   -0.2985 H   0  0  0  0  0  0  0  0  0  0  0  0
   -1.0647   10.2208   -3.1927 H   0  0  0  0  0  0  0  0  0  0  0  0
   -1.4353   11.9494   -3.5110 H   0  0  0  0  0  0  0  0  0  0  0  0
    0.2688   11.3813   -3.5110 H   0  0  0  0  0  0  0  0  0  0  0  0
    0.6224   12.4590   -0.0903 H   0  0  0  0  0  0  0  0  0  0  0  0
    0.1952   14.0063   -2.1058 H   0  0  0  0  0  0  0  0  0  0  0  0
    1.8061   14.0248   -1.2150 H   0  0  0  0  0  0  0  0  0  0  0  0
    1.9262   14.1514   -3.8446 H   0  0  0  0  0  0  0  0  0  0  0  0
    1.8606   10.1905   -3.0660 H   0  0  0  0  0  0  0  0  0  0  0  0
    4.6586   11.1024   -2.1545 H   0  0  0  0  0  0  0  0  0  0  0  0
    3.9759    9.4179   -2.0678 H   0  0  0  0  0  0  0  0  0  0  0  0
    5.5469    9.6961   -3.9596 H   0  0  0  0  0  0  0  0  0  0  0  0
    3.8643    9.3051   -4.4901 H   0  0  0  0  0  0  0  0  0  0  0  0
    4.7464   11.0147   -5.9250 H   0  0  0  0  0  0  0  0  0  0  0  0
    5.1100   12.5640   -3.5230 H   0  0  0  0  0  0  0  0  0  0  0  0
    1.4980   10.4999   -5.1231 H   0  0  0  0  0  0  0  0  0  0  0  0
    1.4914   11.7235   -6.4382 H   0  0  0  0  0  0  0  0  0  0  0  0
    2.7184   10.4115   -6.4382 H   0  0  0  0  0  0  0  0  0  0  0  0
    3.3215   14.1513   -5.0607 H   0  0  0  0  0  0  0  0  0  0  0  0
    4.1285   13.2671   -6.4000 H   0  0  0  0  0  0  0  0  0  0  0  0
    2.3428   13.4620   -6.4000 H   0  0  0  0  0  0  0  0  0  0  0  0
    2.7771   11.5558    0.8157 H   0  0  0  0  0  0  0  0  0  0  0  0
    4.0216   11.1875   -0.4261 H   0  0  0  0  0  0  0  0  0  0  0  0
    3.1976   12.7836   -0.4261 H   0  0  0  0  0  0  0  0  0  0  0  0
    2.2654    8.9905   -0.9759 H   0  0  0  0  0  0  0  0  0  0  0  0
    1.5903    9.8656    0.5119 H   0  0  0  0  0  0  0  0  0  0  0  0
    0.0709    8.9641   -1.9504 H   0  0  0  0  0  0  0  0  0  0  0  0
   -0.0762    8.3656   -0.2512 H   0  0  0  0  0  0  0  0  0  0  0  0
   -1.0253    9.7093    1.5168 H   0  0  0  0  0  0  0  0  0  0  0  0
    0.1550   11.0266    1.2039 H   0  0  0  0  0  0  0  0  0  0  0  0
   -1.6062   11.3800    1.2039 H   0  0  0  0  0  0  0  0  0  0  0  0
  1  2  1  0
  2  3  1  0
  3  4  1  0
  4  5  1  0
  5  6  1  0
  6  7  1  0
  7  8  1  0
  7  9  1  0
  2 10  1  0
 10 11  1  0
 11 12  1  0
 12 13  1  0
 13 14  1  6
 13 15  1  0
 15 16  1  0
 16 17  1  0
 17 18  2  0
 18 19  1  0
 19 20  1  0
 20 21  1  0
 21 22  1  0
 22 23  1  0
 22 24  1  0
 24 25  1  0
 24 26  1  0
 19 27  1  0
 27 28  1  1
 27 29  1  0
 29 30  1  0
 30 31  1  0
 31 32  1  1
  7  5  1  0
 31 10  1  0
 31 13  1  0
 27 15  1  0
 24 18  1  0
  1 33  1  0
  1 34  1  0
  1 35  1  0
  2 36  1  1
  3 37  1  0
  3 38  1  0
  4 39  1  0
  4 40  1  0
  5 41  1  6
  8 42  1  0
  8 43  1  0
  8 44  1  0
  9 45  1  0
  9 46  1  0
  9 47  1  0
 10 48  1  6
 11 49  1  0
 11 50  1  0
 12 51  1  0
 12 52  1  0
 14 53  1  0
 14 54  1  0
 14 55  1  0
 15 56  1  1
 16 57  1  0
 16 58  1  0
 17 59  1  0
 19 60  1  6
 20 61  1  0
 20 62  1  0
 21 63  1  0
 21 64  1  0
 22 65  1  6
 23 66  1  0
 25 67  1  0
 25 68  1  0
 25 69  1  0
 26 70  1  0
 26 71  1  0
 26 72  1  0
 28 73  1  0
 28 74  1  0
 28 75  1  0
 29 76  1  0
 29 77  1  0
 30 78  1  0
 30 79  1  0
 32 80  1  0
 32 81  1  0
 32 82  1  0
M  END
>  <meeko>  (14) 
{"is_sidechain": [false], "intermolecular_energy": 2.731, "internal_energy": -0.839}

$$$$
EPH_relaxed_0001_pdb2pqr_Repair_373_r2_0001_out
     RDKit          3D

 82 86  0  0  0  0  0  0  0  0999 V2000
    0.8440   14.8490   -2.6170 C   0  0  0  0  0  0  0  0  0  0  0  0
    1.1300   14.1590   -3.9540 C   0  0  2  0  0  0  0  0  0  0  0  0
    0.4550   14.8830   -5.1370 C   0  0  0  0  0  0  0  0  0  0  0  0
    1.1180   14.6040   -6.4880 C   0  0  0  0  0  0  0  0  0  0  0  0
    0.8510   15.7010   -7.4740 C   0  0  2  0  0  0  0  0  0  0  0  0
    0.3790   15.2560   -8.7520 O   0  0  0  0  0  0  0  0  0  0  0  0
    1.6610   15.9040   -8.7410 C   0  0  0  0  0  0  0  0  0  0  0  0
    2.8020   15.0010   -9.0900 C   0  0  0  0  0  0  0  0  0  0  0  0
    1.6590   17.2560   -9.3830 C   0  0  0  0  0  0  0  0  0  0  0  0
    0.6680   12.7080   -3.8990 C   0  0  1  0  0  0  0  0  0  0  0  0
    1.7900   11.7090   -4.2890 C   0  0  0  0  0  0  0  0  0  0  0  0
    1.5860   10.4440   -3.4150 C   0  0  0  0  0  0  0  0  0  0  0  0
    0.1770   10.6180   -2.8010 C   0  0  1  0  0  0  0  0  0  0  0  0
   -0.8080   10.1580   -3.9210 C   0  0  0  0  0  0  0  0  0  0  0  0
   -0.0870    9.8670   -1.4550 C   0  0  2  0  0  0  0  0  0  0  0  0
    0.0050    8.3340   -1.5350 C   0  0  0  0  0  0  0  0  0  0  0  0
   -1.2750    7.6330   -1.8520 C   0  0  0  0  0  0  0  0  0  0  0  0
   -2.5030    8.1800   -1.7840 C   0  0  0  0  0  0  0  0  0  0  0  0
   -2.7020    9.6080   -1.2610 C   0  0  1  0  0  0  0  0  0  0  0  0
   -3.8760    9.6300   -0.2470 C   0  0  0  0  0  0  0  0  0  0  0  0
   -5.1570    9.0360   -0.8240 C   0  0  0  0  0  0  0  0  0  0  0  0
   -4.9350    7.5960   -1.2800 C   0  0  2  0  0  0  0  0  0  0  0  0
   -4.6770    6.7840   -0.1310 O   0  0  0  0  0  0  0  0  0  0  0  0
   -3.7680    7.4490   -2.2970 C   0  0  0  0  0  0  0  0  0  0  0  0
   -4.1770    8.0770   -3.6520 C   0  0  0  0  0  0  0  0  0  0  0  0
   -3.5580    5.9340   -2.5660 C   0  0  0  0  0  0  0  0  0  0  0  0
   -1.4000   10.3290   -0.7020 C   0  0  1  0  0  0  0  0  0  0  0  0
   -1.1990    9.9740    0.8030 C   0  0  0  0  0  0  0  0  0  0  0  0
   -1.6090   11.8890   -0.7660 C   0  0  0  0  0  0  0  0  0  0  0  0
   -1.2170   12.5890   -2.0810 C   0  0  0  0  0  0  0  0  0  0  0  0
    0.1850   12.1670   -2.5310 C   0  0  2  0  0  0  0  0  0  0  0  0
    1.2000   12.6360   -1.4340 C   0  0  0  0  0  0  0  0  0  0  0  0
    1.1222   14.1778   -1.7911 H   0  0  0  0  0  0  0  0  0  0  0  0
    1.4319   15.7763   -2.5498 H   0  0  0  0  0  0  0  0  0  0  0  0
   -0.2275   15.0885   -2.5498 H   0  0  0  0  0  0  0  0  0  0  0  0
    2.2167   14.1969   -4.1205 H   0  0  0  0  0  0  0  0  0  0  0  0
   -0.5941   14.5567   -5.1910 H   0  0  0  0  0  0  0  0  0  0  0  0
    0.5494   15.9628   -4.9493 H   0  0  0  0  0  0  0  0  0  0  0  0
    2.2043   14.5143   -6.3402 H   0  0  0  0  0  0  0  0  0  0  0  0
    0.6964   13.6712   -6.8906 H   0  0  0  0  0  0  0  0  0  0  0  0
    0.5616   16.3883   -6.6654 H   0  0  0  0  0  0  0  0  0  0  0  0
    3.2713   14.6296   -8.1670 H   0  0  0  0  0  0  0  0  0  0  0  0
    2.4294   14.1505   -9.6798 H   0  0  0  0  0  0  0  0  0  0  0  0
    3.5441   15.5591   -9.6798 H   0  0  0  0  0  0  0  0  0  0  0  0
    1.6579   18.0321   -8.6034 H   0  0  0  0  0  0  0  0  0  0  0  0
    2.5570   17.3661  -10.0087 H   0  0  0  0  0  0  0  0  0  0  0  0
    0.7607   17.3635  -10.0087 H   0  0  0  0  0  0  0  0  0  0  0  0
   -0.1756   12.7562   -4.6032 H   0  0  0  0  0  0  0  0  0  0  0  0
    1.7124   11.4494   -5.3551 H   0  0  0  0  0  0  0  0  0  0  0  0
    2.7849   12.1478   -4.1229 H   0  0  0  0  0  0  0  0  0  0  0  0
    1.6313    9.5343   -4.0317 H   0  0  0  0  0  0  0  0  0  0  0  0
    2.3659   10.3372   -2.6467 H   0  0  0  0  0  0  0  0  0  0  0  0
   -1.7137    9.7351   -3.4618 H   0  0  0  0  0  0  0  0  0  0  0  0
   -1.0823   11.0212   -4.5453 H   0  0  0  0  0  0  0  0  0  0  0  0
   -0.3222    9.3936   -4.5453 H   0  0  0  0  0  0  0  0  0  0  0  0
    0.7647   10.1854   -0.8359 H   0  0  0  0  0  0  0  0  0  0  0  0
    0.7353    8.0778   -2.3167 H   0  0  0  0  0  0  0  0  0  0  0  0
    0.2969    7.9942   -0.5303 H   0  0  0  0  0  0  0  0  0  0  0  0
   -1.2087    6.5813   -2.1676 H   0  0  0  0  0  0  0  0  0  0  0  0
   -2.9557   10.2204   -2.1388 H   0  0  0  0  0  0  0  0  0  0  0  0
   -3.5863    9.0488    0.6409 H   0  0  0  0  0  0  0  0  0  0  0  0
   -4.0793   10.6809    0.0064 H   0  0  0  0  0  0  0  0  0  0  0  0
   -5.9406    9.0522   -0.0522 H   0  0  0  0  0  0  0  0  0  0  0  0
   -5.4609    9.6364   -1.6942 H   0  0  0  0  0  0  0  0  0  0  0  0
   -5.8475    7.2695   -1.8003 H   0  0  0  0  0  0  0  0  0  0  0  0
   -5.5330    6.4720    0.2070 H   0  0  0  0  0  0  0  0  0  0  0  0
   -4.7691    8.9862   -3.4709 H   0  0  0  0  0  0  0  0  0  0  0  0
   -3.2736    8.3356   -4.2238 H   0  0  0  0  0  0  0  0  0  0  0  0
   -4.7788    7.3553   -4.2238 H   0  0  0  0  0  0  0  0  0  0  0  0
   -3.4838    5.3984   -1.6081 H   0  0  0  0  0  0  0  0  0  0  0  0
   -4.4104    5.5419   -3.1402 H   0  0  0  0  0  0  0  0  0  0  0  0
   -2.6311    5.7886   -3.1402 H   0  0  0  0  0  0  0  0  0  0  0  0
   -1.6449   10.7616    1.4282 H   0  0  0  0  0  0  0  0  0  0  0  0
   -1.6867    9.0125    1.0212 H   0  0  0  0  0  0  0  0  0  0  0  0
   -0.1236    9.8975    1.0212 H   0  0  0  0  0  0  0  0  0  0  0  0
   -2.6758   12.0894   -0.5875 H   0  0  0  0  0  0  0  0  0  0  0  0
   -0.9289   12.3019   -0.0064 H   0  0  0  0  0  0  0  0  0  0  0  0
   -1.9422   12.3184   -2.8625 H   0  0  0  0  0  0  0  0  0  0  0  0
   -1.2187   13.6761   -1.9132 H   0  0  0  0  0  0  0  0  0  0  0  0
    0.7783   12.4411   -0.4369 H   0  0  0  0  0  0  0  0  0  0  0  0
    2.1440   12.0828   -1.5474 H   0  0  0  0  0  0  0  0  0  0  0  0
    1.3905   13.7134   -1.5474 H   0  0  0  0  0  0  0  0  0  0  0  0
  1  2  1  0
  2  3  1  0
  3  4  1  0
  4  5  1  0
  5  6  1  0
  6  7  1  0
  7  8  1  0
  7  9  1  0
  2 10  1  0
 10 11  1  0
 11 12  1  0
 12 13  1  0
 13 14  1  6
 13 15  1  0
 15 16  1  0
 16 17  1  0
 17 18  2  0
 18 19  1  0
 19 20  1  0
 20 21  1  0
 21 22  1  0
 22 23  1  0
 22 24  1  0
 24 25  1  0
 24 26  1  0
 19 27  1  0
 27 28  1  1
 27 29  1  0
 29 30  1  0
 30 31  1  0
 31 32  1  1
  7  5  1  0
 31 10  1  0
 31 13  1  0
 27 15  1  0
 24 18  1  0
  1 33  1  0
  1 34  1  0
  1 35  1  0
  2 36  1  6
  3 37  1  0
  3 38  1  0
  4 39  1  0
  4 40  1  0
  5 41  1  1
  8 42  1  0
  8 43  1  0
  8 44  1  0
  9 45  1  0
  9 46  1  0
  9 47  1  0
 10 48  1  6
 11 49  1  0
 11 50  1  0
 12 51  1  0
 12 52  1  0
 14 53  1  0
 14 54  1  0
 14 55  1  0
 15 56  1  1
 16 57  1  0
 16 58  1  0
 17 59  1  0
 19 60  1  6
 20 61  1  0
 20 62  1  0
 21 63  1  0
 21 64  1  0
 22 65  1  6
 23 66  1  0
 25 67  1  0
 25 68  1  0
 25 69  1  0
 26 70  1  0
 26 71  1  0
 26 72  1  0
 28 73  1  0
 28 74  1  0
 28 75  1  0
 29 76  1  0
 29 77  1  0
 30 78  1  0
 30 79  1  0
 32 80  1  0
 32 81  1  0
 32 82  1  0
M  END
>  <meeko>  (15) 
{"is_sidechain": [false], "intermolecular_energy": 2.731, "internal_energy": -0.839}

$$$$
EPH_relaxed_0001_pdb2pqr_Repair_373_r2_0001_out
     RDKit          3D

 82 86  0  0  0  0  0  0  0  0999 V2000
   -1.6820   14.8450    0.4360 C   0  0  0  0  0  0  0  0  0  0  0  0
   -0.3290   15.5410    0.2610 C   0  0  2  0  0  0  0  0  0  0  0  0
   -0.3540   16.5790   -0.8800 C   0  0  0  0  0  0  0  0  0  0  0  0
    0.0090   17.9960   -0.4290 C   0  0  0  0  0  0  0  0  0  0  0  0
    1.4480   18.0980   -0.0230 C   0  0  2  0  0  0  0  0  0  0  0  0
    2.1110   19.2910   -0.4610 O   0  0  0  0  0  0  0  0  0  0  0  0
    2.6010   18.0560   -1.0090 C   0  0  0  0  0  0  0  0  0  0  0  0
    2.3650   17.9070   -2.4800 C   0  0  0  0  0  0  0  0  0  0  0  0
    3.9570   17.6700   -0.5080 C   0  0  0  0  0  0  0  0  0  0  0  0
    0.7580   14.5060   -0.0000 C   0  0  1  0  0  0  0  0  0  0  0  0
    0.8910   13.4750    1.1520 C   0  0  0  0  0  0  0  0  0  0  0  0
    1.2620   12.1190    0.4990 C   0  0  0  0  0  0  0  0  0  0  0  0
    1.6540   12.4800   -0.9530 C   0  0  1  0  0  0  0  0  0  0  0  0
    3.1290   12.9800   -0.8580 C   0  0  0  0  0  0  0  0  0  0  0  0
    1.4980   11.3420   -2.0140 C   0  0  2  0  0  0  0  0  0  0  0  0
    2.3800   10.1030   -1.7770 C   0  0  0  0  0  0  0  0  0  0  0  0
    3.7220   10.1430   -2.4290 C   0  0  0  0  0  0  0  0  0  0  0  0
    4.0950   10.9950   -3.4020 C   0  0  0  0  0  0  0  0  0  0  0  0
    3.0910   11.9800   -4.0130 C   0  0  1  0  0  0  0  0  0  0  0  0
    3.2100   11.9480   -5.5600 C   0  0  0  0  0  0  0  0  0  0  0  0
    4.6370   12.1950   -6.0410 C   0  0  0  0  0  0  0  0  0  0  0  0
    5.5960   11.1600   -5.4580 C   0  0  2  0  0  0  0  0  0  0  0  0
    5.2760    9.8760   -6.0020 O   0  0  0  0  0  0  0  0  0  0  0  0
    5.5560   11.0950   -3.9060 C   0  0  0  0  0  0  0  0  0  0  0  0
    6.1880   12.3790   -3.3140 C   0  0  0  0  0  0  0  0  0  0  0  0
    6.4620    9.9170   -3.4540 C   0  0  0  0  0  0  0  0  0  0  0  0
    1.5890   11.8380   -3.5140 C   0  0  1  0  0  0  0  0  0  0  0  0
    0.8390   10.7790   -4.3790 C   0  0  0  0  0  0  0  0  0  0  0  0
    0.8410   13.2050   -3.7390 C   0  0  0  0  0  0  0  0  0  0  0  0
    0.9330   14.2420   -2.6040 C   0  0  0  0  0  0  0  0  0  0  0  0
    0.5980   13.6060   -1.2510 C   0  0  2  0  0  0  0  0  0  0  0  0
   -0.8880   13.1120   -1.3100 C   0  0  0  0  0  0  0  0  0  0  0  0
   -1.9005   14.7326    1.5082 H   0  0  0  0  0  0  0  0  0  0  0  0
   -2.4695   15.4499   -0.0373 H   0  0  0  0  0  0  0  0  0  0  0  0
   -1.6478   13.8526   -0.0373 H   0  0  0  0  0  0  0  0  0  0  0  0
   -0.1110   16.0810    1.1942 H   0  0  0  0  0  0  0  0  0  0  0  0
    0.3647   16.2650   -1.6513 H   0  0  0  0  0  0  0  0  0  0  0  0
   -1.3860   16.6161   -1.2591 H   0  0  0  0  0  0  0  0  0  0  0  0
   -0.1771   18.6929   -1.2595 H   0  0  0  0  0  0  0  0  0  0  0  0
   -0.6117   18.2472    0.4437 H   0  0  0  0  0  0  0  0  0  0  0  0
    1.2498   17.5408    0.9045 H   0  0  0  0  0  0  0  0  0  0  0  0
    1.4456   17.3266   -2.6469 H   0  0  0  0  0  0  0  0  0  0  0  0
    2.2585   18.9019   -2.9369 H   0  0  0  0  0  0  0  0  0  0  0  0
    3.2175   17.3830   -2.9369 H   0  0  0  0  0  0  0  0  0  0  0  0
    3.9553   17.6705    0.5920 H   0  0  0  0  0  0  0  0  0  0  0  0
    4.2104   16.6640   -0.8738 H   0  0  0  0  0  0  0  0  0  0  0  0
    4.7022   18.3917   -0.8738 H   0  0  0  0  0  0  0  0  0  0  0  0
    1.6221   15.1749   -0.1257 H   0  0  0  0  0  0  0  0  0  0  0  0
    1.6811   13.7876    1.8506 H   0  0  0  0  0  0  0  0  0  0  0  0
   -0.0472   13.3955    1.7208 H   0  0  0  0  0  0  0  0  0  0  0  0
    2.1081   11.6530    1.0253 H   0  0  0  0  0  0  0  0  0  0  0  0
    0.4343   11.3956    0.5403 H   0  0  0  0  0  0  0  0  0  0  0  0
    3.4158   13.0772    0.1995 H   0  0  0  0  0  0  0  0  0  0  0  0
    3.7939   12.2570   -1.3533 H   0  0  0  0  0  0  0  0  0  0  0  0
    3.2172   13.9582   -1.3533 H   0  0  0  0  0  0  0  0  0  0  0  0
    0.4630   11.0072   -1.8505 H   0  0  0  0  0  0  0  0  0  0  0  0
    2.5317    9.9958   -0.6928 H   0  0  0  0  0  0  0  0  0  0  0  0
    1.8451    9.2564   -2.2322 H   0  0  0  0  0  0  0  0  0  0  0  0
    4.4703    9.4138   -2.0849 H   0  0  0  0  0  0  0  0  0  0  0  0
    3.3736   12.9744   -3.6371 H   0  0  0  0  0  0  0  0  0  0  0  0
    2.8826   10.9610   -5.9188 H   0  0  0  0  0  0  0  0  0  0  0  0
    2.5777   12.7539   -5.9608 H   0  0  0  0  0  0  0  0  0  0  0  0
    4.6629   12.1316   -7.1389 H   0  0  0  0  0  0  0  0  0  0  0  0
    4.9525   13.1941   -5.7059 H   0  0  0  0  0  0  0  0  0  0  0  0
    6.6167   11.4640   -5.7333 H   0  0  0  0  0  0  0  0  0  0  0  0
    4.3640    9.9170   -6.3360 H   0  0  0  0  0  0  0  0  0  0  0  0
    6.1626   12.3273   -2.2155 H   0  0  0  0  0  0  0  0  0  0  0  0
    7.2310   12.4642   -3.6530 H   0  0  0  0  0  0  0  0  0  0  0  0
    5.6193   13.2575   -3.6530 H   0  0  0  0  0  0  0  0  0  0  0  0
    6.4919    9.8781   -2.3551 H   0  0  0  0  0  0  0  0  0  0  0  0
    6.0559    8.9718   -3.8434 H   0  0  0  0  0  0  0  0  0  0  0  0
    7.4798   10.0669   -3.8434 H   0  0  0  0  0  0  0  0  0  0  0  0
    0.3302   10.0606   -3.7194 H   0  0  0  0  0  0  0  0  0  0  0  0
    0.0959   11.2838   -5.0138 H   0  0  0  0  0  0  0  0  0  0  0  0
    1.5618   10.2456   -5.0138 H   0  0  0  0  0  0  0  0  0  0  0  0
    1.2575   13.6669   -4.6463 H   0  0  0  0  0  0  0  0  0  0  0  0
   -0.2253   12.9425   -3.8032 H   0  0  0  0  0  0  0  0  0  0  0  0
    1.9553   14.6464   -2.5682 H   0  0  0  0  0  0  0  0  0  0  0  0
    0.2079   15.0449   -2.8031 H   0  0  0  0  0  0  0  0  0  0  0  0
   -1.2727   12.9841   -0.2874 H   0  0  0  0  0  0  0  0  0  0  0  0
   -1.5005   13.8549   -1.8420 H   0  0  0  0  0  0  0  0  0  0  0  0
   -0.9338   12.1503   -1.8420 H   0  0  0  0  0  0  0  0  0  0  0  0
  1  2  1  0
  2  3  1  0
  3  4  1  0
  4  5  1  0
  5  6  1  0
  6  7  1  0
  7  8  1  0
  7  9  1  0
  2 10  1  0
 10 11  1  0
 11 12  1  0
 12 13  1  0
 13 14  1  1
 13 15  1  0
 15 16  1  0
 16 17  1  0
 17 18  2  0
 18 19  1  0
 19 20  1  0
 20 21  1  0
 21 22  1  0
 22 23  1  0
 22 24  1  0
 24 25  1  0
 24 26  1  0
 19 27  1  0
 27 28  1  6
 27 29  1  0
 29 30  1  0
 30 31  1  0
 31 32  1  6
  7  5  1  0
 31 10  1  0
 31 13  1  0
 27 15  1  0
 24 18  1  0
  1 33  1  0
  1 34  1  0
  1 35  1  0
  2 36  1  1
  3 37  1  0
  3 38  1  0
  4 39  1  0
  4 40  1  0
  5 41  1  1
  8 42  1  0
  8 43  1  0
  8 44  1  0
  9 45  1  0
  9 46  1  0
  9 47  1  0
 10 48  1  6
 11 49  1  0
 11 50  1  0
 12 51  1  0
 12 52  1  0
 14 53  1  0
 14 54  1  0
 14 55  1  0
 15 56  1  6
 16 57  1  0
 16 58  1  0
 17 59  1  0
 19 60  1  1
 20 61  1  0
 20 62  1  0
 21 63  1  0
 21 64  1  0
 22 65  1  1
 23 66  1  0
 25 67  1  0
 25 68  1  0
 25 69  1  0
 26 70  1  0
 26 71  1  0
 26 72  1  0
 28 73  1  0
 28 74  1  0
 28 75  1  0
 29 76  1  0
 29 77  1  0
 30 78  1  0
 30 79  1  0
 32 80  1  0
 32 81  1  0
 32 82  1  0
M  END
>  <meeko>  (16) 
{"is_sidechain": [false], "intermolecular_energy": 2.731, "internal_energy": -0.839}

$$$$
EPH_relaxed_0001_pdb2pqr_Repair_373_r2_0001_out
     RDKit          3D

 82 86  0  0  0  0  0  0  0  0999 V2000
    3.2120   18.7040   -2.0890 C   0  0  0  0  0  0  0  0  0  0  0  0
    2.3670   17.6430   -2.8000 C   0  0  2  0  0  0  0  0  0  0  0  0
    0.9100   18.1030   -3.0070 C   0  0  0  0  0  0  0  0  0  0  0  0
    0.5220   19.3170   -2.1580 C   0  0  0  0  0  0  0  0  0  0  0  0
   -0.6840   19.0400   -1.3130 C   0  0  2  0  0  0  0  0  0  0  0  0
   -1.2460   20.1950   -0.6740 O   0  0  0  0  0  0  0  0  0  0  0  0
   -0.7000   19.1910    0.1970 C   0  0  0  0  0  0  0  0  0  0  0  0
    0.5150   19.6340    0.9500 C   0  0  0  0  0  0  0  0  0  0  0  0
   -1.7350   18.4450    0.9800 C   0  0  0  0  0  0  0  0  0  0  0  0
    2.3940   16.3410   -2.0090 C   0  0  1  0  0  0  0  0  0  0  0  0
    2.6970   16.5630   -0.5030 C   0  0  0  0  0  0  0  0  0  0  0  0
    1.8810   15.5020    0.2790 C   0  0  0  0  0  0  0  0  0  0  0  0
    1.4030   14.5040   -0.8010 C   0  0  1  0  0  0  0  0  0  0  0  0
    2.6250   13.5650   -1.0480 C   0  0  0  0  0  0  0  0  0  0  0  0
    0.1090   13.6920   -0.4670 C   0  0  2  0  0  0  0  0  0  0  0  0
    0.2180   12.7640    0.7550 C   0  0  0  0  0  0  0  0  0  0  0  0
    0.6760   11.3740    0.4610 C   0  0  0  0  0  0  0  0  0  0  0  0
    0.7150   10.8050   -0.7580 C   0  0  0  0  0  0  0  0  0  0  0  0
    0.1780   11.5440   -1.9900 C   0  0  1  0  0  0  0  0  0  0  0  0
   -0.7170   10.5850   -2.8200 C   0  0  0  0  0  0  0  0  0  0  0  0
   -0.0020    9.2870   -3.1840 C   0  0  0  0  0  0  0  0  0  0  0  0
    0.4660    8.5520   -1.9300 C   0  0  2  0  0  0  0  0  0  0  0  0
   -0.6820    8.1100   -1.2000 O   0  0  0  0  0  0  0  0  0  0  0  0
    1.3670    9.4230   -1.0110 C   0  0  0  0  0  0  0  0  0  0  0  0
    2.7400    9.6500   -1.6910 C   0  0  0  0  0  0  0  0  0  0  0  0
    1.6530    8.6130    0.2830 C   0  0  0  0  0  0  0  0  0  0  0  0
   -0.5240   12.9420   -1.7090 C   0  0  1  0  0  0  0  0  0  0  0  0
   -2.0310   12.7230   -1.3760 C   0  0  0  0  0  0  0  0  0  0  0  0
   -0.4800   13.8120   -3.0200 C   0  0  0  0  0  0  0  0  0  0  0  0
    0.7720   14.6840   -3.2340 C   0  0  0  0  0  0  0  0  0  0  0  0
    1.0940   15.5000   -1.9780 C   0  0  2  0  0  0  0  0  0  0  0  0
   -0.1090   16.4700   -1.7170 C   0  0  0  0  0  0  0  0  0  0  0  0
    3.1144   18.5814   -1.0002 H   0  0  0  0  0  0  0  0  0  0  0  0
    4.2669   18.5868   -2.3780 H   0  0  0  0  0  0  0  0  0  0  0  0
    2.8617   19.7059   -2.3780 H   0  0  0  0  0  0  0  0  0  0  0  0
    2.8071   17.4828   -3.7953 H   0  0  0  0  0  0  0  0  0  0  0  0
    0.7751   18.3631   -4.0673 H   0  0  0  0  0  0  0  0  0  0  0  0
    0.2623   17.2710   -2.6937 H   0  0  0  0  0  0  0  0  0  0  0  0
    1.3653   19.5769   -1.5013 H   0  0  0  0  0  0  0  0  0  0  0  0
    0.2809   20.1477   -2.8376 H   0  0  0  0  0  0  0  0  0  0  0  0
   -0.9884   18.2164   -1.9756 H   0  0  0  0  0  0  0  0  0  0  0  0
    0.3224   19.5638    2.0307 H   0  0  0  0  0  0  0  0  0  0  0  0
    1.3655   18.9881    0.6864 H   0  0  0  0  0  0  0  0  0  0  0  0
    0.7502   20.6757    0.6864 H   0  0  0  0  0  0  0  0  0  0  0  0
   -1.5484   18.5795    2.0557 H   0  0  0  0  0  0  0  0  0  0  0  0
   -2.7337   18.8323    0.7298 H   0  0  0  0  0  0  0  0  0  0  0  0
   -1.6834   17.3751    0.7298 H   0  0  0  0  0  0  0  0  0  0  0  0
    3.1761   15.8040   -2.5657 H   0  0  0  0  0  0  0  0  0  0  0  0
    3.7719   16.4321   -0.3097 H   0  0  0  0  0  0  0  0  0  0  0  0
    2.4220   17.5813   -0.1909 H   0  0  0  0  0  0  0  0  0  0  0  0
    2.5141   14.9958    1.0226 H   0  0  0  0  0  0  0  0  0  0  0  0
    1.0432   15.9471    0.8358 H   0  0  0  0  0  0  0  0  0  0  0  0
    3.0422   13.2444   -0.0820 H   0  0  0  0  0  0  0  0  0  0  0  0
    2.2998   12.6822   -1.6180 H   0  0  0  0  0  0  0  0  0  0  0  0
    3.3943   14.1066   -1.6180 H   0  0  0  0  0  0  0  0  0  0  0  0
   -0.5982   14.4834   -0.1778 H   0  0  0  0  0  0  0  0  0  0  0  0
    0.9307   13.2145    1.4614 H   0  0  0  0  0  0  0  0  0  0  0  0
   -0.8013   12.6699    1.1576 H   0  0  0  0  0  0  0  0  0  0  0  0
    1.0098   10.7631    1.3127 H   0  0  0  0  0  0  0  0  0  0  0  0
    1.0607   11.8347   -2.5784 H   0  0  0  0  0  0  0  0  0  0  0  0
   -1.6134   10.3408   -2.2310 H   0  0  0  0  0  0  0  0  0  0  0  0
   -0.9767   11.0979   -3.7578 H   0  0  0  0  0  0  0  0  0  0  0  0
   -0.6933    8.6399   -3.7437 H   0  0  0  0  0  0  0  0  0  0  0  0
    0.8780    9.5308   -3.7973 H   0  0  0  0  0  0  0  0  0  0  0  0
    1.0811    7.7003   -2.2560 H   0  0  0  0  0  0  0  0  0  0  0  0
   -0.9140    7.2240   -1.5260 H   0  0  0  0  0  0  0  0  0  0  0  0
    3.5142    9.7780   -0.9202 H   0  0  0  0  0  0  0  0  0  0  0  0
    2.9869    8.7805   -2.3179 H   0  0  0  0  0  0  0  0  0  0  0  0
    2.6939   10.5527   -2.3179 H   0  0  0  0  0  0  0  0  0  0  0  0
    1.4328    9.2365    1.1621 H   0  0  0  0  0  0  0  0  0  0  0  0
    1.0175    7.7154    0.3017 H   0  0  0  0  0  0  0  0  0  0  0  0
    2.7113    8.3134    0.3017 H   0  0  0  0  0  0  0  0  0  0  0  0
   -2.1662   12.7033   -0.2845 H   0  0  0  0  0  0  0  0  0  0  0  0
   -2.6243   13.5444   -1.8042 H   0  0  0  0  0  0  0  0  0  0  0  0
   -2.3659   11.7667   -1.8042 H   0  0  0  0  0  0  0  0  0  0  0  0
   -0.5585   13.1267   -3.8768 H   0  0  0  0  0  0  0  0  0  0  0  0
   -1.3127   14.5238   -2.9208 H   0  0  0  0  0  0  0  0  0  0  0  0
    1.6273   14.0337   -3.4695 H   0  0  0  0  0  0  0  0  0  0  0  0
    0.5769   15.3797   -4.0634 H   0  0  0  0  0  0  0  0  0  0  0  0
   -0.2560   16.5885   -0.6333 H   0  0  0  0  0  0  0  0  0  0  0  0
    0.1061   17.4503   -2.1672 H   0  0  0  0  0  0  0  0  0  0  0  0
   -1.0214   16.0520   -2.1672 H   0  0  0  0  0  0  0  0  0  0  0  0
  1  2  1  0
  2  3  1  0
  3  4  1  0
  4  5  1  0
  5  6  1  0
  6  7  1  0
  7  8  1  0
  7  9  1  0
  2 10  1  0
 10 11  1  0
 11 12  1  0
 12 13  1  0
 13 14  1  6
 13 15  1  0
 15 16  1  0
 16 17  1  0
 17 18  2  0
 18 19  1  0
 19 20  1  0
 20 21  1  0
 21 22  1  0
 22 23  1  0
 22 24  1  0
 24 25  1  0
 24 26  1  0
 19 27  1  0
 27 28  1  1
 27 29  1  0
 29 30  1  0
 30 31  1  0
 31 32  1  1
  7  5  1  0
 31 10  1  0
 31 13  1  0
 27 15  1  0
 24 18  1  0
  1 33  1  0
  1 34  1  0
  1 35  1  0
  2 36  1  6
  3 37  1  0
  3 38  1  0
  4 39  1  0
  4 40  1  0
  5 41  1  1
  8 42  1  0
  8 43  1  0
  8 44  1  0
  9 45  1  0
  9 46  1  0
  9 47  1  0
 10 48  1  6
 11 49  1  0
 11 50  1  0
 12 51  1  0
 12 52  1  0
 14 53  1  0
 14 54  1  0
 14 55  1  0
 15 56  1  1
 16 57  1  0
 16 58  1  0
 17 59  1  0
 19 60  1  6
 20 61  1  0
 20 62  1  0
 21 63  1  0
 21 64  1  0
 22 65  1  6
 23 66  1  0
 25 67  1  0
 25 68  1  0
 25 69  1  0
 26 70  1  0
 26 71  1  0
 26 72  1  0
 28 73  1  0
 28 74  1  0
 28 75  1  0
 29 76  1  0
 29 77  1  0
 30 78  1  0
 30 79  1  0
 32 80  1  0
 32 81  1  0
 32 82  1  0
M  END
>  <meeko>  (17) 
{"is_sidechain": [false], "intermolecular_energy": 2.731, "internal_energy": -0.839}

$$$$
EPH_relaxed_0001_pdb2pqr_Repair_373_r2_0001_out
     RDKit          3D

 82 86  0  0  0  0  0  0  0  0999 V2000
    2.2470   17.9480   -2.5000 C   0  0  0  0  0  0  0  0  0  0  0  0
    0.7270   17.8240   -2.6410 C   0  0  2  0  0  0  0  0  0  0  0  0
   -0.0150   18.3200   -1.3840 C   0  0  0  0  0  0  0  0  0  0  0  0
    0.6640   17.9220   -0.0710 C   0  0  0  0  0  0  0  0  0  0  0  0
    1.2160   19.1130    0.6520 C   0  0  2  0  0  0  0  0  0  0  0  0
    2.1160   19.9180   -0.1210 O   0  0  0  0  0  0  0  0  0  0  0  0
    2.6800   19.2600    1.0250 C   0  0  0  0  0  0  0  0  0  0  0  0
    3.6820   18.2010    0.6890 C   0  0  0  0  0  0  0  0  0  0  0  0
    3.0430   20.1950    2.1370 C   0  0  0  0  0  0  0  0  0  0  0  0
    0.3490   16.3770   -2.9320 C   0  0  1  0  0  0  0  0  0  0  0  0
    0.4210   16.0330   -4.4440 C   0  0  0  0  0  0  0  0  0  0  0  0
    0.8990   14.5620   -4.5460 C   0  0  0  0  0  0  0  0  0  0  0  0
    0.7670   14.0080   -3.1080 C   0  0  1  0  0  0  0  0  0  0  0  0
   -0.7420   13.6400   -2.9570 C   0  0  0  0  0  0  0  0  0  0  0  0
    1.6950   12.8040   -2.7430 C   0  0  2  0  0  0  0  0  0  0  0  0
    1.4580   11.5260   -3.5670 C   0  0  0  0  0  0  0  0  0  0  0  0
    0.4650   10.5710   -2.9920 C   0  0  0  0  0  0  0  0  0  0  0  0
    0.0010   10.5920   -1.7280 C   0  0  0  0  0  0  0  0  0  0  0  0
    0.5530   11.5900   -0.7030 C   0  0  1  0  0  0  0  0  0  0  0  0
    0.8580   10.8510    0.6270 C   0  0  0  0  0  0  0  0  0  0  0  0
   -0.3450   10.0770    1.1550 C   0  0  0  0  0  0  0  0  0  0  0  0
   -0.8300    9.0550    0.1300 C   0  0  2  0  0  0  0  0  0  0  0  0
    0.1740    8.0470   -0.0250 O   0  0  0  0  0  0  0  0  0  0  0  0
   -1.1590    9.6830   -1.2530 C   0  0  0  0  0  0  0  0  0  0  0  0
   -2.4400   10.5460   -1.1410 C   0  0  0  0  0  0  0  0  0  0  0  0
   -1.4990    8.5270   -2.2330 C   0  0  0  0  0  0  0  0  0  0  0  0
    1.7690   12.4880   -1.1940 C   0  0  1  0  0  0  0  0  0  0  0  0
    3.1150   11.7380   -0.9570 C   0  0  0  0  0  0  0  0  0  0  0  0
    1.8280   13.7960   -0.3200 C   0  0  0  0  0  0  0  0  0  0  0  0
    0.9820   14.9910   -0.7980 C   0  0  0  0  0  0  0  0  0  0  0  0
    1.2180   15.2700   -2.2860 C   0  0  2  0  0  0  0  0  0  0  0  0
    2.7240   15.6650   -2.4650 C   0  0  0  0  0  0  0  0  0  0  0  0
    2.5157   17.9699   -1.4336 H   0  0  0  0  0  0  0  0  0  0  0  0
    2.7315   17.0864   -2.9826 H   0  0  0  0  0  0  0  0  0  0  0  0
    2.5855   18.8767   -2.9826 H   0  0  0  0  0  0  0  0  0  0  0  0
    0.4188   18.4648   -3.4803 H   0  0  0  0  0  0  0  0  0  0  0  0
   -0.0735   19.4176   -1.4258 H   0  0  0  0  0  0  0  0  0  0  0  0
   -1.0077   17.8461   -1.3889 H   0  0  0  0  0  0  0  0  0  0  0  0
   -0.0738   17.4236    0.5749 H   0  0  0  0  0  0  0  0  0  0  0  0
    1.5001   17.2478   -0.3085 H   0  0  0  0  0  0  0  0  0  0  0  0
    0.2910   19.2161    1.2384 H   0  0  0  0  0  0  0  0  0  0  0  0
    4.0876   17.7723    1.6173 H   0  0  0  0  0  0  0  0  0  0  0  0
    3.1951   17.4088    0.1014 H   0  0  0  0  0  0  0  0  0  0  0  0
    4.4999   18.6433    0.1014 H   0  0  0  0  0  0  0  0  0  0  0  0
    2.8532   19.7060    3.1039 H   0  0  0  0  0  0  0  0  0  0  0  0
    4.1085   20.4578    2.0620 H   0  0  0  0  0  0  0  0  0  0  0  0
    2.4340   21.1079    2.0620 H   0  0  0  0  0  0  0  0  0  0  0  0
   -0.6623   16.3614   -2.4996 H   0  0  0  0  0  0  0  0  0  0  0  0
   -0.5719   16.1414   -4.9048 H   0  0  0  0  0  0  0  0  0  0  0  0
    1.1103   16.7095   -4.9705 H   0  0  0  0  0  0  0  0  0  0  0  0
    0.2626   13.9942   -5.2408 H   0  0  0  0  0  0  0  0  0  0  0  0
    1.9265   14.4831   -4.9306 H   0  0  0  0  0  0  0  0  0  0  0  0
   -0.9991   13.5773   -1.8893 H   0  0  0  0  0  0  0  0  0  0  0  0
   -1.3581   14.4142   -3.4376 H   0  0  0  0  0  0  0  0  0  0  0  0
   -0.9325   12.6691   -3.4376 H   0  0  0  0  0  0  0  0  0  0  0  0
    2.6880   13.1723   -3.0403 H   0  0  0  0  0  0  0  0  0  0  0  0
    1.1033   11.8256   -4.5642 H   0  0  0  0  0  0  0  0  0  0  0  0
    2.4195   10.9919   -3.5832 H   0  0  0  0  0  0  0  0  0  0  0  0
    0.0799    9.7838   -3.6569 H   0  0  0  0  0  0  0  0  0  0  0  0
   -0.2424   12.3330   -0.5440 H   0  0  0  0  0  0  0  0  0  0  0  0
    1.6843   10.1452    0.4567 H   0  0  0  0  0  0  0  0  0  0  0  0
    1.1223   11.6102    1.3778 H   0  0  0  0  0  0  0  0  0  0  0  0
   -0.0583    9.5524    2.0783 H   0  0  0  0  0  0  0  0  0  0  0  0
   -1.1601   10.7885    1.3536 H   0  0  0  0  0  0  0  0  0  0  0  0
   -1.7689    8.6257    0.5099 H   0  0  0  0  0  0  0  0  0  0  0  0
   -0.2320    7.2970   -0.4920 H   0  0  0  0  0  0  0  0  0  0  0  0
   -2.6811   10.7084   -0.0801 H   0  0  0  0  0  0  0  0  0  0  0  0
   -2.2726   11.5162   -1.6317 H   0  0  0  0  0  0  0  0  0  0  0  0
   -3.2762   10.0264   -1.6317 H   0  0  0  0  0  0  0  0  0  0  0  0
   -1.7639    7.6263   -1.6598 H   0  0  0  0  0  0  0  0  0  0  0  0
   -2.3486    8.8214   -2.8666 H   0  0  0  0  0  0  0  0  0  0  0  0
   -0.6253    8.3146   -2.8666 H   0  0  0  0  0  0  0  0  0  0  0  0
    3.2938   11.6383    0.1238 H   0  0  0  0  0  0  0  0  0  0  0  0
    3.0633   10.7387   -1.4138 H   0  0  0  0  0  0  0  0  0  0  0  0
    3.9376   12.3078   -1.4138 H   0  0  0  0  0  0  0  0  0  0  0  0
    1.4906   13.5341    0.6937 H   0  0  0  0  0  0  0  0  0  0  0  0
    2.8713   14.1383   -0.3854 H   0  0  0  0  0  0  0  0  0  0  0  0
   -0.0826   14.7647   -0.6388 H   0  0  0  0  0  0  0  0  0  0  0  0
    1.2766   15.8814   -0.2233 H   0  0  0  0  0  0  0  0  0  0  0  0
    3.1909   15.7875   -1.4766 H   0  0  0  0  0  0  0  0  0  0  0  0
    3.2469   14.8736   -3.0220 H   0  0  0  0  0  0  0  0  0  0  0  0
    2.7912   16.6111   -3.0220 H   0  0  0  0  0  0  0  0  0  0  0  0
  1  2  1  0
  2  3  1  0
  3  4  1  0
  4  5  1  0
  5  6  1  0
  6  7  1  0
  7  8  1  0
  7  9  1  0
  2 10  1  0
 10 11  1  0
 11 12  1  0
 12 13  1  0
 13 14  1  1
 13 15  1  0
 15 16  1  0
 16 17  1  0
 17 18  2  0
 18 19  1  0
 19 20  1  0
 20 21  1  0
 21 22  1  0
 22 23  1  0
 22 24  1  0
 24 25  1  0
 24 26  1  0
 19 27  1  0
 27 28  1  6
 27 29  1  0
 29 30  1  0
 30 31  1  0
 31 32  1  1
  7  5  1  0
 31 10  1  0
 31 13  1  0
 27 15  1  0
 24 18  1  0
  1 33  1  0
  1 34  1  0
  1 35  1  0
  2 36  1  6
  3 37  1  0
  3 38  1  0
  4 39  1  0
  4 40  1  0
  5 41  1  1
  8 42  1  0
  8 43  1  0
  8 44  1  0
  9 45  1  0
  9 46  1  0
  9 47  1  0
 10 48  1  1
 11 49  1  0
 11 50  1  0
 12 51  1  0
 12 52  1  0
 14 53  1  0
 14 54  1  0
 14 55  1  0
 15 56  1  6
 16 57  1  0
 16 58  1  0
 17 59  1  0
 19 60  1  1
 20 61  1  0
 20 62  1  0
 21 63  1  0
 21 64  1  0
 22 65  1  1
 23 66  1  0
 25 67  1  0
 25 68  1  0
 25 69  1  0
 26 70  1  0
 26 71  1  0
 26 72  1  0
 28 73  1  0
 28 74  1  0
 28 75  1  0
 29 76  1  0
 29 77  1  0
 30 78  1  0
 30 79  1  0
 32 80  1  0
 32 81  1  0
 32 82  1  0
M  END
>  <meeko>  (18) 
{"is_sidechain": [false], "intermolecular_energy": 2.731, "internal_energy": -0.839}

$$$$
