EPH_relaxed_0001_pdb2pqr_Repair_178_r2_0001_out
     RDKit          3D

 82 86  0  0  0  0  0  0  0  0999 V2000
   -5.1460    5.8480   -1.7220 C   0  0  0  0  0  0  0  0  0  0  0  0
   -5.4490    7.3480   -1.7770 C   0  0  2  0  0  0  0  0  0  0  0  0
   -5.2250    8.0350   -0.4150 C   0  0  0  0  0  0  0  0  0  0  0  0
   -4.1810    9.1540   -0.4550 C   0  0  0  0  0  0  0  0  0  0  0  0
   -2.8190    8.6300   -0.7960 C   0  0  2  0  0  0  0  0  0  0  0  0
   -1.7970    8.9510    0.1580 O   0  0  0  0  0  0  0  0  0  0  0  0
   -1.6440    9.5210   -1.1520 C   0  0  0  0  0  0  0  0  0  0  0  0
   -1.7770   11.0120   -1.1860 C   0  0  0  0  0  0  0  0  0  0  0  0
   -0.5120    8.9340   -1.9360 C   0  0  0  0  0  0  0  0  0  0  0  0
   -6.8820    7.5720   -2.2450 C   0  0  1  0  0  0  0  0  0  0  0  0
   -7.1840    6.8770   -3.5990 C   0  0  0  0  0  0  0  0  0  0  0  0
   -8.6590    6.4020   -3.5380 C   0  0  0  0  0  0  0  0  0  0  0  0
   -9.2500    7.1220   -2.3040 C   0  0  1  0  0  0  0  0  0  0  0  0
   -9.6010    8.5570   -2.8070 C   0  0  0  0  0  0  0  0  0  0  0  0
  -10.4770    6.4330   -1.6230 C   0  0  2  0  0  0  0  0  0  0  0  0
  -11.7290    6.3060   -2.5100 C   0  0  0  0  0  0  0  0  0  0  0  0
  -12.6840    7.4500   -2.4310 C   0  0  0  0  0  0  0  0  0  0  0  0
  -12.6920    8.3990   -1.4770 C   0  0  0  0  0  0  0  0  0  0  0  0
  -11.7310    8.3230   -0.2830 C   0  0  1  0  0  0  0  0  0  0  0  0
  -12.5110    8.6010    1.0280 C   0  0  0  0  0  0  0  0  0  0  0  0
  -13.2820    9.9170    0.9830 C   0  0  0  0  0  0  0  0  0  0  0  0
  -14.2680    9.9310   -0.1820 C   0  0  2  0  0  0  0  0  0  0  0  0
  -15.2860    8.9550    0.0630 O   0  0  0  0  0  0  0  0  0  0  0  0
  -13.5980    9.6530   -1.5560 C   0  0  0  0  0  0  0  0  0  0  0  0
  -12.7200   10.8620   -1.9610 C   0  0  0  0  0  0  0  0  0  0  0  0
  -14.7200    9.5540   -2.6240 C   0  0  0  0  0  0  0  0  0  0  0  0
  -10.8370    7.0120   -0.1950 C   0  0  1  0  0  0  0  0  0  0  0  0
  -11.6120    5.8890    0.5580 C   0  0  0  0  0  0  0  0  0  0  0  0
   -9.5550    7.3210    0.6650 C   0  0  0  0  0  0  0  0  0  0  0  0
   -8.3350    7.8890   -0.0850 C   0  0  0  0  0  0  0  0  0  0  0  0
   -8.0180    7.0530   -1.3290 C   0  0  2  0  0  0  0  0  0  0  0  0
   -7.6400    5.6100   -0.8520 C   0  0  0  0  0  0  0  0  0  0  0  0
   -5.0808    5.5253   -0.6724 H   0  0  0  0  0  0  0  0  0  0  0  0
   -5.9501    5.2927   -2.2270 H   0  0  0  0  0  0  0  0  0  0  0  0
   -4.1894    5.6484   -2.2270 H   0  0  0  0  0  0  0  0  0  0  0  0
   -4.7493    7.8015   -2.4944 H   0  0  0  0  0  0  0  0  0  0  0  0
   -6.1812    8.4639   -0.0808 H   0  0  0  0  0  0  0  0  0  0  0  0
   -4.8463    7.2662    0.2746 H   0  0  0  0  0  0  0  0  0  0  0  0
   -4.4790    9.8925   -1.2138 H   0  0  0  0  0  0  0  0  0  0  0  0
   -4.1317    9.6125    0.5437 H   0  0  0  0  0  0  0  0  0  0  0  0
   -3.2564    7.7519   -1.2937 H   0  0  0  0  0  0  0  0  0  0  0  0
   -1.8117   11.4006   -0.1575 H   0  0  0  0  0  0  0  0  0  0  0  0
   -0.9139   11.4452   -1.7127 H   0  0  0  0  0  0  0  0  0  0  0  0
   -2.7031   11.2856   -1.7127 H   0  0  0  0  0  0  0  0  0  0  0  0
    0.2475    8.5402   -1.2446 H   0  0  0  0  0  0  0  0  0  0  0  0
   -0.8893    8.1179   -2.5698 H   0  0  0  0  0  0  0  0  0  0  0  0
   -0.0624    9.7126   -2.5698 H   0  0  0  0  0  0  0  0  0  0  0  0
   -6.8964    8.6715   -2.2756 H   0  0  0  0  0  0  0  0  0  0  0  0
   -7.0486    7.5872   -4.4280 H   0  0  0  0  0  0  0  0  0  0  0  0
   -6.5028    6.0303   -3.7693 H   0  0  0  0  0  0  0  0  0  0  0  0
   -9.1984    6.6917   -4.4519 H   0  0  0  0  0  0  0  0  0  0  0  0
   -8.7420    5.3078   -3.4619 H   0  0  0  0  0  0  0  0  0  0  0  0
   -9.7629    9.2189   -1.9434 H   0  0  0  0  0  0  0  0  0  0  0  0
   -8.7713    8.9452   -3.4161 H   0  0  0  0  0  0  0  0  0  0  0  0
  -10.5162    8.5184   -3.4161 H   0  0  0  0  0  0  0  0  0  0  0  0
  -10.1142    5.4062   -1.4680 H   0  0  0  0  0  0  0  0  0  0  0  0
  -11.3975    6.2113   -3.5546 H   0  0  0  0  0  0  0  0  0  0  0  0
  -12.2762    5.4263   -2.1404 H   0  0  0  0  0  0  0  0  0  0  0  0
  -13.4467    7.5238   -3.2202 H   0  0  0  0  0  0  0  0  0  0  0  0
  -10.9814    9.1115   -0.4454 H   0  0  0  0  0  0  0  0  0  0  0  0
  -13.2241    7.7802    1.1947 H   0  0  0  0  0  0  0  0  0  0  0  0
  -11.7770    8.6721    1.8442 H   0  0  0  0  0  0  0  0  0  0  0  0
  -13.8358   10.0423    1.9251 H   0  0  0  0  0  0  0  0  0  0  0  0
  -12.5650   10.7399    0.8465 H   0  0  0  0  0  0  0  0  0  0  0  0
  -14.6940   10.9435   -0.2403 H   0  0  0  0  0  0  0  0  0  0  0  0
  -16.0840    9.2350   -0.4160 H   0  0  0  0  0  0  0  0  0  0  0  0
  -12.3526   11.3679   -1.0560 H   0  0  0  0  0  0  0  0  0  0  0  0
  -11.8650   10.5108   -2.5574 H   0  0  0  0  0  0  0  0  0  0  0  0
  -13.3185   11.5664   -2.5574 H   0  0  0  0  0  0  0  0  0  0  0  0
  -15.6959    9.4679   -2.1237 H   0  0  0  0  0  0  0  0  0  0  0  0
  -14.7086   10.4566   -3.2526 H   0  0  0  0  0  0  0  0  0  0  0  0
  -14.5507    8.6673   -3.2526 H   0  0  0  0  0  0  0  0  0  0  0  0
  -11.5097    6.0372    1.6432 H   0  0  0  0  0  0  0  0  0  0  0  0
  -12.6759    5.9287    0.2812 H   0  0  0  0  0  0  0  0  0  0  0  0
  -11.1974    4.9084    0.2812 H   0  0  0  0  0  0  0  0  0  0  0  0
   -9.8403    8.0508    1.4370 H   0  0  0  0  0  0  0  0  0  0  0  0
   -9.2261    6.3452    1.0517 H   0  0  0  0  0  0  0  0  0  0  0  0
   -8.5507    8.9231   -0.3918 H   0  0  0  0  0  0  0  0  0  0  0  0
   -7.4652    7.8604    0.5878 H   0  0  0  0  0  0  0  0  0  0  0  0
   -7.6315    5.5777    0.2475 H   0  0  0  0  0  0  0  0  0  0  0  0
   -8.3803    4.8918   -1.2342 H   0  0  0  0  0  0  0  0  0  0  0  0
   -6.6426    5.3470   -1.2342 H   0  0  0  0  0  0  0  0  0  0  0  0
  1  2  1  0
  2  3  1  0
  3  4  1  0
  4  5  1  0
  5  6  1  0
  6  7  1  0
  7  8  1  0
  7  9  1  0
  2 10  1  0
 10 11  1  0
 11 12  1  0
 12 13  1  0
 13 14  1  6
 13 15  1  0
 15 16  1  0
 16 17  1  0
 17 18  2  0
 18 19  1  0
 19 20  1  0
 20 21  1  0
 21 22  1  0
 22 23  1  0
 22 24  1  0
 24 25  1  0
 24 26  1  0
 19 27  1  0
 27 28  1  1
 27 29  1  0
 29 30  1  0
 30 31  1  0
 31 32  1  1
  7  5  1  0
 31 10  1  0
 31 13  1  0
 27 15  1  0
 24 18  1  0
  1 33  1  0
  1 34  1  0
  1 35  1  0
  2 36  1  6
  3 37  1  0
  3 38  1  0
  4 39  1  0
  4 40  1  0
  5 41  1  6
  8 42  1  0
  8 43  1  0
  8 44  1  0
  9 45  1  0
  9 46  1  0
  9 47  1  0
 10 48  1  6
 11 49  1  0
 11 50  1  0
 12 51  1  0
 12 52  1  0
 14 53  1  0
 14 54  1  0
 14 55  1  0
 15 56  1  1
 16 57  1  0
 16 58  1  0
 17 59  1  0
 19 60  1  6
 20 61  1  0
 20 62  1  0
 21 63  1  0
 21 64  1  0
 22 65  1  6
 23 66  1  0
 25 67  1  0
 25 68  1  0
 25 69  1  0
 26 70  1  0
 26 71  1  0
 26 72  1  0
 28 73  1  0
 28 74  1  0
 28 75  1  0
 29 76  1  0
 29 77  1  0
 30 78  1  0
 30 79  1  0
 32 80  1  0
 32 81  1  0
 32 82  1  0
M  END
>  <meeko>  (1) 
{"is_sidechain": [false], "intermolecular_energy": 2.731, "internal_energy": -0.839}

$$$$
EPH_relaxed_0001_pdb2pqr_Repair_178_r2_0001_out
     RDKit          3D

 82 86  0  0  0  0  0  0  0  0999 V2000
   -1.6490    8.9680   -1.5710 C   0  0  0  0  0  0  0  0  0  0  0  0
   -2.2190    9.5640   -0.2810 C   0  0  2  0  0  0  0  0  0  0  0  0
   -3.7250    9.8700   -0.3990 C   0  0  0  0  0  0  0  0  0  0  0  0
   -4.6200    8.6410   -0.2130 C   0  0  0  0  0  0  0  0  0  0  0  0
   -5.1720    8.1560   -1.5190 C   0  0  2  0  0  0  0  0  0  0  0  0
   -6.4220    8.7460   -1.8980 O   0  0  0  0  0  0  0  0  0  0  0  0
   -6.4420    7.3330   -1.6370 C   0  0  0  0  0  0  0  0  0  0  0  0
   -7.2370    6.9490   -0.4280 C   0  0  0  0  0  0  0  0  0  0  0  0
   -6.6420    6.4970   -2.8620 C   0  0  0  0  0  0  0  0  0  0  0  0
   -1.4570   10.8310    0.0880 C   0  0  1  0  0  0  0  0  0  0  0  0
   -0.4570   10.6100    1.2540 C   0  0  0  0  0  0  0  0  0  0  0  0
    0.7690   11.5160    0.9710 C   0  0  0  0  0  0  0  0  0  0  0  0
    0.2990   12.4660   -0.1550 C   0  0  1  0  0  0  0  0  0  0  0  0
   -0.5150   13.5810    0.5740 C   0  0  0  0  0  0  0  0  0  0  0  0
    1.4210   13.0700   -1.0620 C   0  0  2  0  0  0  0  0  0  0  0  0
    2.4370   13.9670   -0.3330 C   0  0  0  0  0  0  0  0  0  0  0  0
    2.0860   15.4170   -0.2830 C   0  0  0  0  0  0  0  0  0  0  0  0
    1.1530   16.0230   -1.0400 C   0  0  0  0  0  0  0  0  0  0  0  0
    0.4030   15.2510   -2.1330 C   0  0  1  0  0  0  0  0  0  0  0  0
    0.3750   16.0940   -3.4350 C   0  0  0  0  0  0  0  0  0  0  0  0
   -0.1930   17.4930   -3.2150 C   0  0  0  0  0  0  0  0  0  0  0  0
    0.6140   18.2490   -2.1630 C   0  0  2  0  0  0  0  0  0  0  0  0
    1.9260   18.4970   -2.6790 O   0  0  0  0  0  0  0  0  0  0  0  0
    0.7200   17.4920   -0.8100 C   0  0  0  0  0  0  0  0  0  0  0  0
   -0.6600   17.4880   -0.1070 C   0  0  0  0  0  0  0  0  0  0  0  0
    1.6750   18.2950    0.1130 C   0  0  0  0  0  0  0  0  0  0  0  0
    0.8860   13.7580   -2.3830 C   0  0  1  0  0  0  0  0  0  0  0  0
    2.0660   13.7440   -3.4020 C   0  0  0  0  0  0  0  0  0  0  0  0
   -0.2850   12.9430   -3.0500 C   0  0  0  0  0  0  0  0  0  0  0  0
   -1.2930   12.2700   -2.0980 C   0  0  0  0  0  0  0  0  0  0  0  0
   -0.5700   11.4730   -1.0090 C   0  0  2  0  0  0  0  0  0  0  0  0
    0.2400   10.3300   -1.7110 C   0  0  0  0  0  0  0  0  0  0  0  0
   -0.9086    8.1938   -1.3213 H   0  0  0  0  0  0  0  0  0  0  0  0
   -2.4635    8.5202   -2.1592 H   0  0  0  0  0  0  0  0  0  0  0  0
   -1.1654    9.7618   -2.1592 H   0  0  0  0  0  0  0  0  0  0  0  0
   -2.0961    8.8126    0.5129 H   0  0  0  0  0  0  0  0  0  0  0  0
   -3.9898   10.6117    0.3690 H   0  0  0  0  0  0  0  0  0  0  0  0
   -3.8982   10.2420   -1.4196 H   0  0  0  0  0  0  0  0  0  0  0  0
   -4.0283    7.8350    0.2455 H   0  0  0  0  0  0  0  0  0  0  0  0
   -5.4643    8.9255    0.4322 H   0  0  0  0  0  0  0  0  0  0  0  0
   -4.1580    8.0099   -1.9195 H   0  0  0  0  0  0  0  0  0  0  0  0
   -6.6775    7.2192    0.4797 H   0  0  0  0  0  0  0  0  0  0  0  0
   -8.1994    7.4816   -0.4377 H   0  0  0  0  0  0  0  0  0  0  0  0
   -7.4182    5.8641   -0.4377 H   0  0  0  0  0  0  0  0  0  0  0  0
   -6.8885    5.4665   -2.5664 H   0  0  0  0  0  0  0  0  0  0  0  0
   -7.4657    6.9140   -3.4600 H   0  0  0  0  0  0  0  0  0  0  0  0
   -5.7187    6.4960   -3.4600 H   0  0  0  0  0  0  0  0  0  0  0  0
   -2.3040   11.4925    0.3227 H   0  0  0  0  0  0  0  0  0  0  0  0
   -0.9225   10.8907    2.2103 H   0  0  0  0  0  0  0  0  0  0  0  0
   -0.1591    9.5534    1.3234 H   0  0  0  0  0  0  0  0  0  0  0  0
    1.0464   12.0862    1.8698 H   0  0  0  0  0  0  0  0  0  0  0  0
    1.6590   10.9367    0.6842 H   0  0  0  0  0  0  0  0  0  0  0  0
   -0.4206   13.4517    1.6623 H   0  0  0  0  0  0  0  0  0  0  0  0
   -0.1236   14.5680    0.2867 H   0  0  0  0  0  0  0  0  0  0  0  0
   -1.5744   13.5089    0.2867 H   0  0  0  0  0  0  0  0  0  0  0  0
    1.9809   12.1754   -1.3721 H   0  0  0  0  0  0  0  0  0  0  0  0
    2.5305   13.6040    0.7012 H   0  0  0  0  0  0  0  0  0  0  0  0
    3.3714   13.8996   -0.9095 H   0  0  0  0  0  0  0  0  0  0  0  0
    2.6370   16.0436    0.4338 H   0  0  0  0  0  0  0  0  0  0  0  0
   -0.6212   15.1095   -1.7575 H   0  0  0  0  0  0  0  0  0  0  0  0
    1.4024   16.1867   -3.8170 H   0  0  0  0  0  0  0  0  0  0  0  0
   -0.2792   15.5775   -4.1528 H   0  0  0  0  0  0  0  0  0  0  0  0
   -0.1586   18.0490   -4.1635 H   0  0  0  0  0  0  0  0  0  0  0  0
   -1.2306   17.3996   -2.8620 H   0  0  0  0  0  0  0  0  0  0  0  0
    0.0837   19.1900   -1.9548 H   0  0  0  0  0  0  0  0  0  0  0  0
    2.5460   18.4760   -1.9310 H   0  0  0  0  0  0  0  0  0  0  0  0
   -0.5160   17.4884    0.9835 H   0  0  0  0  0  0  0  0  0  0  0  0
   -1.2247   18.3845   -0.4026 H   0  0  0  0  0  0  0  0  0  0  0  0
   -1.2195   16.5882   -0.4026 H   0  0  0  0  0  0  0  0  0  0  0  0
    1.4286   18.0878    1.1648 H   0  0  0  0  0  0  0  0  0  0  0  0
    2.7147   17.9957   -0.0858 H   0  0  0  0  0  0  0  0  0  0  0  0
    1.5586   19.3706   -0.0858 H   0  0  0  0  0  0  0  0  0  0  0  0
    3.0213   13.7327   -2.8567 H   0  0  0  0  0  0  0  0  0  0  0  0
    1.9940   12.8466   -4.0341 H   0  0  0  0  0  0  0  0  0  0  0  0
    2.0153   14.6428   -4.0341 H   0  0  0  0  0  0  0  0  0  0  0  0
   -0.8469   13.6348   -3.6947 H   0  0  0  0  0  0  0  0  0  0  0  0
    0.2067   12.1147   -3.5811 H   0  0  0  0  0  0  0  0  0  0  0  0
   -1.9136   13.0451   -1.6246 H   0  0  0  0  0  0  0  0  0  0  0  0
   -1.9189   11.5788   -2.6815 H   0  0  0  0  0  0  0  0  0  0  0  0
    0.6982    9.6835   -0.9481 H   0  0  0  0  0  0  0  0  0  0  0  0
   -0.4376    9.7328   -2.3389 H   0  0  0  0  0  0  0  0  0  0  0  0
    1.0280   10.7714   -2.3389 H   0  0  0  0  0  0  0  0  0  0  0  0
  1  2  1  0
  2  3  1  0
  3  4  1  0
  4  5  1  0
  5  6  1  0
  6  7  1  0
  7  8  1  0
  7  9  1  0
  2 10  1  0
 10 11  1  0
 11 12  1  0
 12 13  1  0
 13 14  1  1
 13 15  1  0
 15 16  1  0
 16 17  1  0
 17 18  2  0
 18 19  1  0
 19 20  1  0
 20 21  1  0
 21 22  1  0
 22 23  1  0
 22 24  1  0
 24 25  1  0
 24 26  1  0
 19 27  1  0
 27 28  1  6
 27 29  1  0
 29 30  1  0
 30 31  1  0
 31 32  1  6
  7  5  1  0
 31 10  1  0
 31 13  1  0
 27 15  1  0
 24 18  1  0
  1 33  1  0
  1 34  1  0
  1 35  1  0
  2 36  1  1
  3 37  1  0
  3 38  1  0
  4 39  1  0
  4 40  1  0
  5 41  1  6
  8 42  1  0
  8 43  1  0
  8 44  1  0
  9 45  1  0
  9 46  1  0
  9 47  1  0
 10 48  1  1
 11 49  1  0
 11 50  1  0
 12 51  1  0
 12 52  1  0
 14 53  1  0
 14 54  1  0
 14 55  1  0
 15 56  1  6
 16 57  1  0
 16 58  1  0
 17 59  1  0
 19 60  1  1
 20 61  1  0
 20 62  1  0
 21 63  1  0
 21 64  1  0
 22 65  1  1
 23 66  1  0
 25 67  1  0
 25 68  1  0
 25 69  1  0
 26 70  1  0
 26 71  1  0
 26 72  1  0
 28 73  1  0
 28 74  1  0
 28 75  1  0
 29 76  1  0
 29 77  1  0
 30 78  1  0
 30 79  1  0
 32 80  1  0
 32 81  1  0
 32 82  1  0
M  END
>  <meeko>  (2) 
{"is_sidechain": [false], "intermolecular_energy": 2.731, "internal_energy": -0.839}

$$$$
EPH_relaxed_0001_pdb2pqr_Repair_178_r2_0001_out
     RDKit          3D

 82 86  0  0  0  0  0  0  0  0999 V2000
    4.4340   16.3770   -0.7430 C   0  0  0  0  0  0  0  0  0  0  0  0
    3.0810   17.0910   -0.7940 C   0  0  2  0  0  0  0  0  0  0  0  0
    3.0090   18.2720    0.1960 C   0  0  0  0  0  0  0  0  0  0  0  0
    4.1480   18.2860    1.2190 C   0  0  0  0  0  0  0  0  0  0  0  0
    3.8200   19.1460    2.4020 C   0  0  2  0  0  0  0  0  0  0  0  0
    4.7630   20.1940    2.6600 O   0  0  0  0  0  0  0  0  0  0  0  0
    4.6520   19.1790    3.6700 C   0  0  0  0  0  0  0  0  0  0  0  0
    5.8780   18.3340    3.8200 C   0  0  0  0  0  0  0  0  0  0  0  0
    4.0100   19.6540    4.9350 C   0  0  0  0  0  0  0  0  0  0  0  0
    1.9590   16.1010   -0.5050 C   0  0  1  0  0  0  0  0  0  0  0  0
    0.6620   16.7940   -0.0090 C   0  0  0  0  0  0  0  0  0  0  0  0
   -0.5270   15.9780   -0.5780 C   0  0  0  0  0  0  0  0  0  0  0  0
    0.1110   14.6680   -1.0960 C   0  0  1  0  0  0  0  0  0  0  0  0
    0.2810   13.7750    0.1730 C   0  0  0  0  0  0  0  0  0  0  0  0
   -0.6670   13.9210   -2.2270 C   0  0  2  0  0  0  0  0  0  0  0  0
   -2.0690   13.4220   -1.8360 C   0  0  0  0  0  0  0  0  0  0  0  0
   -2.1210   12.0400   -1.2740 C   0  0  0  0  0  0  0  0  0  0  0  0
   -1.1350   11.1270   -1.3520 C   0  0  0  0  0  0  0  0  0  0  0  0
    0.1460   11.4160   -2.1450 C   0  0  1  0  0  0  0  0  0  0  0  0
    0.4880   10.1950   -3.0390 C   0  0  0  0  0  0  0  0  0  0  0  0
    0.5730    8.8950   -2.2460 C   0  0  0  0  0  0  0  0  0  0  0  0
   -0.7390    8.6120   -1.5190 C   0  0  2  0  0  0  0  0  0  0  0  0
   -1.7560    8.3460   -2.4890 O   0  0  0  0  0  0  0  0  0  0  0  0
   -1.1900    9.7770   -0.5940 C   0  0  0  0  0  0  0  0  0  0  0  0
   -0.2440    9.8680    0.6290 C   0  0  0  0  0  0  0  0  0  0  0  0
   -2.5930    9.4240   -0.0320 C   0  0  0  0  0  0  0  0  0  0  0  0
    0.1690   12.7870   -2.9490 C   0  0  1  0  0  0  0  0  0  0  0  0
   -0.4710   12.5890   -4.3570 C   0  0  0  0  0  0  0  0  0  0  0  0
    1.6650   13.2120   -3.1960 C   0  0  0  0  0  0  0  0  0  0  0  0
    2.3410   14.0500   -2.0950 C   0  0  0  0  0  0  0  0  0  0  0  0
    1.4560   15.2320   -1.6840 C   0  0  2  0  0  0  0  0  0  0  0  0
    1.2860   16.1590   -2.9360 C   0  0  0  0  0  0  0  0  0  0  0  0
    4.7275   16.2221    0.3057 H   0  0  0  0  0  0  0  0  0  0  0  0
    4.3542   15.4036   -1.2490 H   0  0  0  0  0  0  0  0  0  0  0  0
    5.1926   16.9922   -1.2490 H   0  0  0  0  0  0  0  0  0  0  0  0
    2.9626   17.5019   -1.8075 H   0  0  0  0  0  0  0  0  0  0  0  0
    3.0460   19.2095   -0.3781 H   0  0  0  0  0  0  0  0  0  0  0  0
    2.0709   18.1628    0.7599 H   0  0  0  0  0  0  0  0  0  0  0  0
    4.3290   17.2577    1.5651 H   0  0  0  0  0  0  0  0  0  0  0  0
    5.0423   18.7008    0.7309 H   0  0  0  0  0  0  0  0  0  0  0  0
    2.7419   19.0104    2.2306 H   0  0  0  0  0  0  0  0  0  0  0  0
    6.0928   18.1860    4.8886 H   0  0  0  0  0  0  0  0  0  0  0  0
    5.7115   17.3580    3.3408 H   0  0  0  0  0  0  0  0  0  0  0  0
    6.7309   18.8370    3.3408 H   0  0  0  0  0  0  0  0  0  0  0  0
    4.5576   19.2488    5.7987 H   0  0  0  0  0  0  0  0  0  0  0  0
    4.0344   20.7532    4.9682 H   0  0  0  0  0  0  0  0  0  0  0  0
    2.9660   19.3092    4.9682 H   0  0  0  0  0  0  0  0  0  0  0  0
    2.4609   15.4682    0.2418 H   0  0  0  0  0  0  0  0  0  0  0  0
    0.6294   16.7943    1.0905 H   0  0  0  0  0  0  0  0  0  0  0  0
    0.6199   17.8404   -0.3457 H   0  0  0  0  0  0  0  0  0  0  0  0
   -1.2646   15.7656    0.2100 H   0  0  0  0  0  0  0  0  0  0  0  0
   -1.0650   16.5211   -1.3690 H   0  0  0  0  0  0  0  0  0  0  0  0
    0.1633   14.3935    1.0750 H   0  0  0  0  0  0  0  0  0  0  0  0
   -0.4825   12.9832    0.1691 H   0  0  0  0  0  0  0  0  0  0  0  0
    1.2821   13.3191    0.1691 H   0  0  0  0  0  0  0  0  0  0  0  0
   -0.8296   14.7187   -2.9667 H   0  0  0  0  0  0  0  0  0  0  0  0
   -2.4768   14.1111   -1.0817 H   0  0  0  0  0  0  0  0  0  0  0  0
   -2.6523   13.3932   -2.7682 H   0  0  0  0  0  0  0  0  0  0  0  0
   -3.0426   11.7427   -0.7522 H   0  0  0  0  0  0  0  0  0  0  0  0
    0.9394   11.5652   -1.3979 H   0  0  0  0  0  0  0  0  0  0  0  0
   -0.2934   10.0897   -3.8060 H   0  0  0  0  0  0  0  0  0  0  0  0
    1.4752   10.3767   -3.4890 H   0  0  0  0  0  0  0  0  0  0  0  0
    0.7881    8.0659   -2.9361 H   0  0  0  0  0  0  0  0  0  0  0  0
    1.3744    8.9916   -1.4987 H   0  0  0  0  0  0  0  0  0  0  0  0
   -0.5742    7.7406   -0.8682 H   0  0  0  0  0  0  0  0  0  0  0  0
   -1.7560    7.3890   -2.6610 H   0  0  0  0  0  0  0  0  0  0  0  0
   -0.8352    9.8111    1.5549 H   0  0  0  0  0  0  0  0  0  0  0  0
    0.4735    9.0347    0.6004 H   0  0  0  0  0  0  0  0  0  0  0  0
    0.3015   10.8228    0.6004 H   0  0  0  0  0  0  0  0  0  0  0  0
   -2.5603    9.4322    1.0675 H   0  0  0  0  0  0  0  0  0  0  0  0
   -3.3257   10.1658   -0.3826 H   0  0  0  0  0  0  0  0  0  0  0  0
   -2.8874    8.4238   -0.3826 H   0  0  0  0  0  0  0  0  0  0  0  0
   -1.5162   12.2657   -4.2425 H   0  0  0  0  0  0  0  0  0  0  0  0
   -0.4396   13.5389   -4.9109 H   0  0  0  0  0  0  0  0  0  0  0  0
    0.0913   11.8228   -4.9109 H   0  0  0  0  0  0  0  0  0  0  0  0
    2.2552   12.2925   -3.3236 H   0  0  0  0  0  0  0  0  0  0  0  0
    1.6353   13.8678   -4.0786 H   0  0  0  0  0  0  0  0  0  0  0  0
    2.5206   13.4125   -1.2168 H   0  0  0  0  0  0  0  0  0  0  0  0
    3.2910   14.4426   -2.4865 H   0  0  0  0  0  0  0  0  0  0  0  0
    1.0968   17.1909   -2.6052 H   0  0  0  0  0  0  0  0  0  0  0  0
    2.2044   16.1304   -3.5408 H   0  0  0  0  0  0  0  0  0  0  0  0
    0.4375   15.8064   -3.5408 H   0  0  0  0  0  0  0  0  0  0  0  0
  1  2  1  0
  2  3  1  0
  3  4  1  0
  4  5  1  0
  5  6  1  0
  6  7  1  0
  7  8  1  0
  7  9  1  0
  2 10  1  0
 10 11  1  0
 11 12  1  0
 12 13  1  0
 13 14  1  1
 13 15  1  0
 15 16  1  0
 16 17  1  0
 17 18  2  0
 18 19  1  0
 19 20  1  0
 20 21  1  0
 21 22  1  0
 22 23  1  0
 22 24  1  0
 24 25  1  0
 24 26  1  0
 19 27  1  0
 27 28  1  6
 27 29  1  0
 29 30  1  0
 30 31  1  0
 31 32  1  6
  7  5  1  0
 31 10  1  0
 31 13  1  0
 27 15  1  0
 24 18  1  0
  1 33  1  0
  1 34  1  0
  1 35  1  0
  2 36  1  6
  3 37  1  0
  3 38  1  0
  4 39  1  0
  4 40  1  0
  5 41  1  1
  8 42  1  0
  8 43  1  0
  8 44  1  0
  9 45  1  0
  9 46  1  0
  9 47  1  0
 10 48  1  1
 11 49  1  0
 11 50  1  0
 12 51  1  0
 12 52  1  0
 14 53  1  0
 14 54  1  0
 14 55  1  0
 15 56  1  6
 16 57  1  0
 16 58  1  0
 17 59  1  0
 19 60  1  1
 20 61  1  0
 20 62  1  0
 21 63  1  0
 21 64  1  0
 22 65  1  1
 23 66  1  0
 25 67  1  0
 25 68  1  0
 25 69  1  0
 26 70  1  0
 26 71  1  0
 26 72  1  0
 28 73  1  0
 28 74  1  0
 28 75  1  0
 29 76  1  0
 29 77  1  0
 30 78  1  0
 30 79  1  0
 32 80  1  0
 32 81  1  0
 32 82  1  0
M  END
>  <meeko>  (3) 
{"is_sidechain": [false], "intermolecular_energy": 2.731, "internal_energy": -0.839}

$$$$
EPH_relaxed_0001_pdb2pqr_Repair_178_r2_0001_out
     RDKit          3D

 82 86  0  0  0  0  0  0  0  0999 V2000
  -15.2230    8.6800    0.5260 C   0  0  0  0  0  0  0  0  0  0  0  0
  -14.3430    9.0030   -0.6850 C   0  0  2  0  0  0  0  0  0  0  0  0
  -14.6380    8.0750   -1.8810 C   0  0  0  0  0  0  0  0  0  0  0  0
  -14.6330    8.7930   -3.2330 C   0  0  0  0  0  0  0  0  0  0  0  0
  -15.2730   10.1460   -3.1440 C   0  0  2  0  0  0  0  0  0  0  0  0
  -14.9080   11.0510   -4.1940 O   0  0  0  0  0  0  0  0  0  0  0  0
  -14.4990   11.4210   -2.8680 C   0  0  0  0  0  0  0  0  0  0  0  0
  -13.0170   11.4050   -2.6600 C   0  0  0  0  0  0  0  0  0  0  0  0
  -15.2380   12.6010   -2.3170 C   0  0  0  0  0  0  0  0  0  0  0  0
  -12.8720    8.9050   -0.2990 C   0  0  1  0  0  0  0  0  0  0  0  0
  -12.6540    8.9400    1.2370 C   0  0  0  0  0  0  0  0  0  0  0  0
  -11.4510    8.0100    1.5390 C   0  0  0  0  0  0  0  0  0  0  0  0
  -10.8130    7.7360    0.1570 C   0  0  1  0  0  0  0  0  0  0  0  0
   -9.9310    8.9900   -0.1340 C   0  0  0  0  0  0  0  0  0  0  0  0
   -9.9930    6.4110    0.0250 C   0  0  2  0  0  0  0  0  0  0  0  0
   -8.7570    6.3150    0.9360 C   0  0  0  0  0  0  0  0  0  0  0  0
   -7.4870    6.8300    0.3450 C   0  0  0  0  0  0  0  0  0  0  0  0
   -7.2790    7.0850   -0.9600 C   0  0  0  0  0  0  0  0  0  0  0  0
   -8.3530    6.7630   -2.0070 C   0  0  1  0  0  0  0  0  0  0  0  0
   -7.7010    6.0350   -3.2110 C   0  0  0  0  0  0  0  0  0  0  0  0
   -6.5280    6.8130   -3.8000 C   0  0  0  0  0  0  0  0  0  0  0  0
   -5.4550    7.0640   -2.7440 C   0  0  2  0  0  0  0  0  0  0  0  0
   -4.8720    5.8110   -2.3720 O   0  0  0  0  0  0  0  0  0  0  0  0
   -5.9970    7.7840   -1.4780 C   0  0  0  0  0  0  0  0  0  0  0  0
   -6.3500    9.2520   -1.8240 C   0  0  0  0  0  0  0  0  0  0  0  0
   -4.8480    7.8490   -0.4360 C   0  0  0  0  0  0  0  0  0  0  0  0
   -9.6440    6.0100   -1.4660 C   0  0  1  0  0  0  0  0  0  0  0  0
   -9.4030    4.4700   -1.4680 C   0  0  0  0  0  0  0  0  0  0  0  0
  -10.8430    6.2730   -2.4520 C   0  0  0  0  0  0  0  0  0  0  0  0
  -11.6890    7.5350   -2.1970 C   0  0  0  0  0  0  0  0  0  0  0  0
  -12.1090    7.6260   -0.7270 C   0  0  2  0  0  0  0  0  0  0  0  0
  -13.0150    6.3880   -0.4100 C   0  0  0  0  0  0  0  0  0  0  0  0
  -14.6638    8.8852    1.4508 H   0  0  0  0  0  0  0  0  0  0  0  0
  -16.1281    9.3045    0.4985 H   0  0  0  0  0  0  0  0  0  0  0  0
  -15.5092    7.6182    0.4985 H   0  0  0  0  0  0  0  0  0  0  0  0
  -14.5766   10.0308   -0.9998 H   0  0  0  0  0  0  0  0  0  0  0  0
  -13.8729    7.2850   -1.9045 H   0  0  0  0  0  0  0  0  0  0  0  0
  -15.6515    7.6736   -1.7340 H   0  0  0  0  0  0  0  0  0  0  0  0
  -13.5926    8.9121   -3.5697 H   0  0  0  0  0  0  0  0  0  0  0  0
  -15.2107    8.1863   -3.9459 H   0  0  0  0  0  0  0  0  0  0  0  0
  -16.1741    9.7154   -2.6829 H   0  0  0  0  0  0  0  0  0  0  0  0
  -12.7980   11.4026   -1.5820 H   0  0  0  0  0  0  0  0  0  0  0  0
  -12.5915   10.5022   -3.1226 H   0  0  0  0  0  0  0  0  0  0  0  0
  -12.5722   12.2984   -3.1226 H   0  0  0  0  0  0  0  0  0  0  0  0
  -15.2164   12.5665   -1.2178 H   0  0  0  0  0  0  0  0  0  0  0  0
  -14.7591   13.5284   -2.6642 H   0  0  0  0  0  0  0  0  0  0  0  0
  -16.2814   12.5750   -2.6642 H   0  0  0  0  0  0  0  0  0  0  0  0
  -12.4795    9.7771   -0.8426 H   0  0  0  0  0  0  0  0  0  0  0  0
  -12.4312    9.9661    1.5647 H   0  0  0  0  0  0  0  0  0  0  0  0
  -13.5555    8.6061    1.7717 H   0  0  0  0  0  0  0  0  0  0  0  0
  -10.7326    8.5086    2.2063 H   0  0  0  0  0  0  0  0  0  0  0  0
  -11.7570    7.0842    2.0481 H   0  0  0  0  0  0  0  0  0  0  0  0
   -9.6125    9.4428    0.8165 H   0  0  0  0  0  0  0  0  0  0  0  0
   -9.0448    8.6889   -0.7118 H   0  0  0  0  0  0  0  0  0  0  0  0
  -10.5140    9.7223   -0.7118 H   0  0  0  0  0  0  0  0  0  0  0  0
  -10.7009    5.6577    0.4010 H   0  0  0  0  0  0  0  0  0  0  0  0
   -8.9637    6.8899    1.8508 H   0  0  0  0  0  0  0  0  0  0  0  0
   -8.5951    5.2421    1.1166 H   0  0  0  0  0  0  0  0  0  0  0  0
   -6.6503    7.0169    1.0342 H   0  0  0  0  0  0  0  0  0  0  0  0
   -8.7603    7.7316   -2.3325 H   0  0  0  0  0  0  0  0  0  0  0  0
   -7.3390    5.0522   -2.8748 H   0  0  0  0  0  0  0  0  0  0  0  0
   -8.4652    5.9381   -3.9962 H   0  0  0  0  0  0  0  0  0  0  0  0
   -6.0909    6.2341   -4.6269 H   0  0  0  0  0  0  0  0  0  0  0  0
   -6.8972    7.7835   -4.1631 H   0  0  0  0  0  0  0  0  0  0  0  0
   -4.7054    7.7347   -3.1892 H   0  0  0  0  0  0  0  0  0  0  0  0
   -5.5710    5.1370   -2.4160 H   0  0  0  0  0  0  0  0  0  0  0  0
   -6.4877    9.8247   -0.8950 H   0  0  0  0  0  0  0  0  0  0  0  0
   -5.5332    9.6969   -2.4113 H   0  0  0  0  0  0  0  0  0  0  0  0
   -7.2797    9.2769   -2.4113 H   0  0  0  0  0  0  0  0  0  0  0  0
   -5.2716    7.8250    0.5789 H   0  0  0  0  0  0  0  0  0  0  0  0
   -4.1784    6.9873   -0.5743 H   0  0  0  0  0  0  0  0  0  0  0  0
   -4.2799    8.7807   -0.5743 H   0  0  0  0  0  0  0  0  0  0  0  0
   -9.3461    4.1064   -0.4314 H   0  0  0  0  0  0  0  0  0  0  0  0
  -10.2338    3.9695   -1.9870 H   0  0  0  0  0  0  0  0  0  0  0  0
   -8.4591    4.2473   -1.9870 H   0  0  0  0  0  0  0  0  0  0  0  0
  -10.4276    6.3506   -3.4676 H   0  0  0  0  0  0  0  0  0  0  0  0
  -11.5318    5.4292   -2.2985 H   0  0  0  0  0  0  0  0  0  0  0  0
  -11.0962    8.4242   -2.4575 H   0  0  0  0  0  0  0  0  0  0  0  0
  -12.5954    7.4808   -2.8179 H   0  0  0  0  0  0  0  0  0  0  0  0
  -13.1031    6.2676    0.6798 H   0  0  0  0  0  0  0  0  0  0  0  0
  -14.0138    6.5440   -0.8436 H   0  0  0  0  0  0  0  0  0  0  0  0
  -12.5642    5.4831   -0.8436 H   0  0  0  0  0  0  0  0  0  0  0  0
  1  2  1  0
  2  3  1  0
  3  4  1  0
  4  5  1  0
  5  6  1  0
  6  7  1  0
  7  8  1  0
  7  9  1  0
  2 10  1  0
 10 11  1  0
 11 12  1  0
 12 13  1  0
 13 14  1  6
 13 15  1  0
 15 16  1  0
 16 17  1  0
 17 18  2  0
 18 19  1  0
 19 20  1  0
 20 21  1  0
 21 22  1  0
 22 23  1  0
 22 24  1  0
 24 25  1  0
 24 26  1  0
 19 27  1  0
 27 28  1  1
 27 29  1  0
 29 30  1  0
 30 31  1  0
 31 32  1  1
  7  5  1  0
 31 10  1  0
 31 13  1  0
 27 15  1  0
 24 18  1  0
  1 33  1  0
  1 34  1  0
  1 35  1  0
  2 36  1  6
  3 37  1  0
  3 38  1  0
  4 39  1  0
  4 40  1  0
  5 41  1  1
  8 42  1  0
  8 43  1  0
  8 44  1  0
  9 45  1  0
  9 46  1  0
  9 47  1  0
 10 48  1  6
 11 49  1  0
 11 50  1  0
 12 51  1  0
 12 52  1  0
 14 53  1  0
 14 54  1  0
 14 55  1  0
 15 56  1  1
 16 57  1  0
 16 58  1  0
 17 59  1  0
 19 60  1  6
 20 61  1  0
 20 62  1  0
 21 63  1  0
 21 64  1  0
 22 65  1  6
 23 66  1  0
 25 67  1  0
 25 68  1  0
 25 69  1  0
 26 70  1  0
 26 71  1  0
 26 72  1  0
 28 73  1  0
 28 74  1  0
 28 75  1  0
 29 76  1  0
 29 77  1  0
 30 78  1  0
 30 79  1  0
 32 80  1  0
 32 81  1  0
 32 82  1  0
M  END
>  <meeko>  (4) 
{"is_sidechain": [false], "intermolecular_energy": 2.731, "internal_energy": -0.839}

$$$$
EPH_relaxed_0001_pdb2pqr_Repair_178_r2_0001_out
     RDKit          3D

 82 86  0  0  0  0  0  0  0  0999 V2000
  -13.1030    5.8180    0.6030 C   0  0  0  0  0  0  0  0  0  0  0  0
  -13.0480    7.2330    0.0220 C   0  0  2  0  0  0  0  0  0  0  0  0
  -14.3930    7.6580   -0.6010 C   0  0  0  0  0  0  0  0  0  0  0  0
  -14.7670    9.1160   -0.3210 C   0  0  0  0  0  0  0  0  0  0  0  0
  -15.2870    9.8000   -1.5500 C   0  0  2  0  0  0  0  0  0  0  0  0
  -14.5520    9.5190   -2.7480 O   0  0  0  0  0  0  0  0  0  0  0  0
  -14.5230   10.8810   -2.2920 C   0  0  0  0  0  0  0  0  0  0  0  0
  -13.1750   11.3400   -1.8320 C   0  0  0  0  0  0  0  0  0  0  0  0
  -15.2870   11.8250   -3.1660 C   0  0  0  0  0  0  0  0  0  0  0  0
  -11.9400    7.3240   -1.0210 C   0  0  1  0  0  0  0  0  0  0  0  0
  -12.1250    8.5250   -1.9860 C   0  0  0  0  0  0  0  0  0  0  0  0
  -10.7050    9.0450   -2.3300 C   0  0  0  0  0  0  0  0  0  0  0  0
   -9.7510    7.9360   -1.8270 C   0  0  1  0  0  0  0  0  0  0  0  0
   -9.7640    6.8550   -2.9530 C   0  0  0  0  0  0  0  0  0  0  0  0
   -8.2950    8.3850   -1.4750 C   0  0  2  0  0  0  0  0  0  0  0  0
   -7.4830    8.9510   -2.6530 C   0  0  0  0  0  0  0  0  0  0  0  0
   -6.6880    7.9470   -3.4200 C   0  0  0  0  0  0  0  0  0  0  0  0
   -6.4000    6.6980   -3.0080 C   0  0  0  0  0  0  0  0  0  0  0  0
   -6.8070    6.2160   -1.6100 C   0  0  1  0  0  0  0  0  0  0  0  0
   -5.6070    5.4940   -0.9420 C   0  0  0  0  0  0  0  0  0  0  0  0
   -5.0460    4.3690   -1.8070 C   0  0  0  0  0  0  0  0  0  0  0  0
   -4.5990    4.8980   -3.1670 C   0  0  2  0  0  0  0  0  0  0  0  0
   -3.4770    5.7670   -2.9780 O   0  0  0  0  0  0  0  0  0  0  0  0
   -5.7220    5.6540   -3.9300 C   0  0  0  0  0  0  0  0  0  0  0  0
   -6.8010    4.6470   -4.3990 C   0  0  0  0  0  0  0  0  0  0  0  0
   -5.1020    6.2570   -5.2190 C   0  0  0  0  0  0  0  0  0  0  0  0
   -7.4650    7.3100   -0.6630 C   0  0  1  0  0  0  0  0  0  0  0  0
   -6.3520    8.0910    0.1010 C   0  0  0  0  0  0  0  0  0  0  0  0
   -8.3320    6.5860    0.4330 C   0  0  0  0  0  0  0  0  0  0  0  0
   -9.7970    6.2770    0.0680 C   0  0  0  0  0  0  0  0  0  0  0  0
  -10.4920    7.5160   -0.5060 C   0  0  2  0  0  0  0  0  0  0  0  0
  -10.5130    8.6130    0.6120 C   0  0  0  0  0  0  0  0  0  0  0  0
  -13.1009    5.8724    1.7017 H   0  0  0  0  0  0  0  0  0  0  0  0
  -14.0213    5.3172    0.2624 H   0  0  0  0  0  0  0  0  0  0  0  0
  -12.2264    5.2475    0.2624 H   0  0  0  0  0  0  0  0  0  0  0  0
  -12.8356    7.9230    0.8519 H   0  0  0  0  0  0  0  0  0  0  0  0
  -14.3308    7.5184   -1.6903 H   0  0  0  0  0  0  0  0  0  0  0  0
  -15.1723    7.0321   -0.1417 H   0  0  0  0  0  0  0  0  0  0  0  0
  -15.5439    9.1418    0.4573 H   0  0  0  0  0  0  0  0  0  0  0  0
  -13.8612    9.6455    0.0093 H   0  0  0  0  0  0  0  0  0  0  0  0
  -16.3175    9.7545   -1.1680 H   0  0  0  0  0  0  0  0  0  0  0  0
  -13.1465   11.3497   -0.7324 H   0  0  0  0  0  0  0  0  0  0  0  0
  -12.4043   10.6536   -2.2127 H   0  0  0  0  0  0  0  0  0  0  0  0
  -12.9833   12.3541   -2.2127 H   0  0  0  0  0  0  0  0  0  0  0  0
  -15.8553   12.5272   -2.5384 H   0  0  0  0  0  0  0  0  0  0  0  0
  -14.5855   12.3859   -3.8011 H   0  0  0  0  0  0  0  0  0  0  0  0
  -15.9818   11.2559   -3.8011 H   0  0  0  0  0  0  0  0  0  0  0  0
  -12.0450    6.3334   -1.4876 H   0  0  0  0  0  0  0  0  0  0  0  0
  -12.6413    8.1996   -2.9012 H   0  0  0  0  0  0  0  0  0  0  0  0
  -12.7333    9.3151   -1.5214 H   0  0  0  0  0  0  0  0  0  0  0  0
  -10.5962    9.1881   -3.4152 H   0  0  0  0  0  0  0  0  0  0  0  0
  -10.4937   10.0194   -1.8655 H   0  0  0  0  0  0  0  0  0  0  0  0
   -9.7760    5.8530   -2.4992 H   0  0  0  0  0  0  0  0  0  0  0  0
  -10.6606    6.9859   -3.5766 H   0  0  0  0  0  0  0  0  0  0  0  0
   -8.8645    6.9643   -3.5766 H   0  0  0  0  0  0  0  0  0  0  0  0
   -8.4670    9.2343   -0.7975 H   0  0  0  0  0  0  0  0  0  0  0  0
   -8.1851    9.4326   -3.3495 H   0  0  0  0  0  0  0  0  0  0  0  0
   -6.7525    9.6460   -2.2132 H   0  0  0  0  0  0  0  0  0  0  0  0
   -6.3053    8.2534   -4.4047 H   0  0  0  0  0  0  0  0  0  0  0  0
   -7.6331    5.5057   -1.7618 H   0  0  0  0  0  0  0  0  0  0  0  0
   -4.8098    6.2297   -0.7597 H   0  0  0  0  0  0  0  0  0  0  0  0
   -5.9668    5.0463   -0.0039 H   0  0  0  0  0  0  0  0  0  0  0  0
   -4.1835    3.9173   -1.2952 H   0  0  0  0  0  0  0  0  0  0  0  0
   -5.8357    3.6196   -1.9640 H   0  0  0  0  0  0  0  0  0  0  0  0
   -4.3294    4.0295   -3.7858 H   0  0  0  0  0  0  0  0  0  0  0  0
   -3.7330    6.4390   -2.3230 H   0  0  0  0  0  0  0  0  0  0  0  0
   -7.2861    4.1943   -3.5217 H   0  0  0  0  0  0  0  0  0  0  0  0
   -7.5545    5.1723   -5.0042 H   0  0  0  0  0  0  0  0  0  0  0  0
   -6.3289    3.8591   -5.0042 H   0  0  0  0  0  0  0  0  0  0  0  0
   -4.3382    6.9999   -4.9456 H   0  0  0  0  0  0  0  0  0  0  0  0
   -4.6380    5.4554   -5.8124 H   0  0  0  0  0  0  0  0  0  0  0  0
   -5.8904    6.7431   -5.8124 H   0  0  0  0  0  0  0  0  0  0  0  0
   -6.5062    7.9828    1.1848 H   0  0  0  0  0  0  0  0  0  0  0  0
   -5.3665    7.6853   -0.1715 H   0  0  0  0  0  0  0  0  0  0  0  0
   -6.3983    9.1557   -0.1715 H   0  0  0  0  0  0  0  0  0  0  0  0
   -7.8396    5.6313    0.6697 H   0  0  0  0  0  0  0  0  0  0  0  0
   -8.3879    7.2962    1.2711 H   0  0  0  0  0  0  0  0  0  0  0  0
   -9.8191    5.4723   -0.6816 H   0  0  0  0  0  0  0  0  0  0  0  0
  -10.3281    5.9679    0.9803 H   0  0  0  0  0  0  0  0  0  0  0  0
  -10.5037    8.1297    1.6001 H   0  0  0  0  0  0  0  0  0  0  0  0
   -9.6270    9.2570    0.5105 H   0  0  0  0  0  0  0  0  0  0  0  0
  -11.4230    9.2226    0.5105 H   0  0  0  0  0  0  0  0  0  0  0  0
  1  2  1  0
  2  3  1  0
  3  4  1  0
  4  5  1  0
  5  6  1  0
  6  7  1  0
  7  8  1  0
  7  9  1  0
  2 10  1  0
 10 11  1  0
 11 12  1  0
 12 13  1  0
 13 14  1  6
 13 15  1  0
 15 16  1  0
 16 17  1  0
 17 18  2  0
 18 19  1  0
 19 20  1  0
 20 21  1  0
 21 22  1  0
 22 23  1  0
 22 24  1  0
 24 25  1  0
 24 26  1  0
 19 27  1  0
 27 28  1  1
 27 29  1  0
 29 30  1  0
 30 31  1  0
 31 32  1  1
  7  5  1  0
 31 10  1  0
 31 13  1  0
 27 15  1  0
 24 18  1  0
  1 33  1  0
  1 34  1  0
  1 35  1  0
  2 36  1  1
  3 37  1  0
  3 38  1  0
  4 39  1  0
  4 40  1  0
  5 41  1  6
  8 42  1  0
  8 43  1  0
  8 44  1  0
  9 45  1  0
  9 46  1  0
  9 47  1  0
 10 48  1  6
 11 49  1  0
 11 50  1  0
 12 51  1  0
 12 52  1  0
 14 53  1  0
 14 54  1  0
 14 55  1  0
 15 56  1  1
 16 57  1  0
 16 58  1  0
 17 59  1  0
 19 60  1  6
 20 61  1  0
 20 62  1  0
 21 63  1  0
 21 64  1  0
 22 65  1  6
 23 66  1  0
 25 67  1  0
 25 68  1  0
 25 69  1  0
 26 70  1  0
 26 71  1  0
 26 72  1  0
 28 73  1  0
 28 74  1  0
 28 75  1  0
 29 76  1  0
 29 77  1  0
 30 78  1  0
 30 79  1  0
 32 80  1  0
 32 81  1  0
 32 82  1  0
M  END
>  <meeko>  (5) 
{"is_sidechain": [false], "intermolecular_energy": 2.731, "internal_energy": -0.839}

$$$$
EPH_relaxed_0001_pdb2pqr_Repair_178_r2_0001_out
     RDKit          3D

 82 86  0  0  0  0  0  0  0  0999 V2000
  -15.2040    9.2300    0.8690 C   0  0  0  0  0  0  0  0  0  0  0  0
  -14.3500    9.2080   -0.4010 C   0  0  2  0  0  0  0  0  0  0  0  0
  -14.7660    8.0750   -1.3610 C   0  0  0  0  0  0  0  0  0  0  0  0
  -15.2570    8.5710   -2.7230 C   0  0  0  0  0  0  0  0  0  0  0  0
  -15.1040    7.5230   -3.7830 C   0  0  2  0  0  0  0  0  0  0  0  0
  -13.8210    7.5020   -4.4230 O   0  0  0  0  0  0  0  0  0  0  0  0
  -14.9410    7.8420   -5.2580 C   0  0  0  0  0  0  0  0  0  0  0  0
  -14.9230    9.2540   -5.7530 C   0  0  0  0  0  0  0  0  0  0  0  0
  -15.2870    6.7860   -6.2610 C   0  0  0  0  0  0  0  0  0  0  0  0
  -12.8770    9.0650   -0.0350 C   0  0  1  0  0  0  0  0  0  0  0  0
  -12.6430    9.0400    1.4990 C   0  0  0  0  0  0  0  0  0  0  0  0
  -11.4570    8.0750    1.7550 C   0  0  0  0  0  0  0  0  0  0  0  0
  -10.8380    7.8390    0.3570 C   0  0  1  0  0  0  0  0  0  0  0  0
   -9.9340    9.0850    0.1030 C   0  0  0  0  0  0  0  0  0  0  0  0
  -10.0470    6.5030    0.1680 C   0  0  2  0  0  0  0  0  0  0  0  0
   -8.8050    6.3490    1.0630 C   0  0  0  0  0  0  0  0  0  0  0  0
   -7.5300    6.8600    0.4780 C   0  0  0  0  0  0  0  0  0  0  0  0
   -7.3290    7.1580   -0.8190 C   0  0  0  0  0  0  0  0  0  0  0  0
   -8.4200    6.8960   -1.8660 C   0  0  1  0  0  0  0  0  0  0  0  0
   -7.7940    6.2000   -3.1030 C   0  0  0  0  0  0  0  0  0  0  0  0
   -6.6110    6.9760   -3.6750 C   0  0  0  0  0  0  0  0  0  0  0  0
   -5.5230    7.1660   -2.6210 C   0  0  2  0  0  0  0  0  0  0  0  0
   -4.9630    5.8880   -2.3010 O   0  0  0  0  0  0  0  0  0  0  0  0
   -6.0390    7.8490   -1.3240 C   0  0  0  0  0  0  0  0  0  0  0  0
   -6.3640    9.3360   -1.6130 C   0  0  0  0  0  0  0  0  0  0  0  0
   -4.8780    7.8520   -0.2920 C   0  0  0  0  0  0  0  0  0  0  0  0
   -9.7210    6.1510   -1.3390 C   0  0  1  0  0  0  0  0  0  0  0  0
   -9.5110    4.6070   -1.4000 C   0  0  0  0  0  0  0  0  0  0  0  0
  -10.9240    6.4740   -2.3030 C   0  0  0  0  0  0  0  0  0  0  0  0
  -11.7410    7.7430   -1.9930 C   0  0  0  0  0  0  0  0  0  0  0  0
  -12.1440    7.7880   -0.5160 C   0  0  2  0  0  0  0  0  0  0  0  0
  -13.0730    6.5580   -0.2360 C   0  0  0  0  0  0  0  0  0  0  0  0
  -14.5483    9.2131    1.7521 H   0  0  0  0  0  0  0  0  0  0  0  0
  -15.8156   10.1442    0.8838 H   0  0  0  0  0  0  0  0  0  0  0  0
  -15.8618    8.3485    0.8838 H   0  0  0  0  0  0  0  0  0  0  0  0
  -14.5122   10.1615   -0.9249 H   0  0  0  0  0  0  0  0  0  0  0  0
  -13.8969    7.4203   -1.5226 H   0  0  0  0  0  0  0  0  0  0  0  0
  -15.6077    7.5470   -0.8890 H   0  0  0  0  0  0  0  0  0  0  0  0
  -16.3197    8.8429   -2.6414 H   0  0  0  0  0  0  0  0  0  0  0  0
  -14.6483    9.4409   -3.0107 H   0  0  0  0  0  0  0  0  0  0  0  0
  -15.7846    6.8463   -3.2456 H   0  0  0  0  0  0  0  0  0  0  0  0
  -14.9142    9.9430   -4.8956 H   0  0  0  0  0  0  0  0  0  0  0  0
  -14.0227    9.4170   -6.3636 H   0  0  0  0  0  0  0  0  0  0  0  0
  -15.8188    9.4399   -6.3636 H   0  0  0  0  0  0  0  0  0  0  0  0
  -15.5881    5.8670   -5.7368 H   0  0  0  0  0  0  0  0  0  0  0  0
  -16.1171    7.1372   -6.8916 H   0  0  0  0  0  0  0  0  0  0  0  0
  -14.4101    6.5779   -6.8916 H   0  0  0  0  0  0  0  0  0  0  0  0
  -12.4726    9.9474   -0.5524 H   0  0  0  0  0  0  0  0  0  0  0  0
  -12.3954   10.0488    1.8609 H   0  0  0  0  0  0  0  0  0  0  0  0
  -13.5460    8.7057    2.0308 H   0  0  0  0  0  0  0  0  0  0  0  0
  -10.7221    8.5339    2.4327 H   0  0  0  0  0  0  0  0  0  0  0  0
  -11.7773    7.1376    2.2333 H   0  0  0  0  0  0  0  0  0  0  0  0
   -9.6224    9.5145    1.0666 H   0  0  0  0  0  0  0  0  0  0  0  0
   -9.0442    8.7821   -0.4683 H   0  0  0  0  0  0  0  0  0  0  0  0
  -10.4981    9.8369   -0.4683 H   0  0  0  0  0  0  0  0  0  0  0  0
  -10.7662    5.7500    0.5227 H   0  0  0  0  0  0  0  0  0  0  0  0
   -8.9916    6.8942    2.0000 H   0  0  0  0  0  0  0  0  0  0  0  0
   -8.6633    5.2672    1.2034 H   0  0  0  0  0  0  0  0  0  0  0  0
   -6.6833    7.0052    1.1651 H   0  0  0  0  0  0  0  0  0  0  0  0
   -8.8111    7.8835   -2.1522 H   0  0  0  0  0  0  0  0  0  0  0  0
   -7.4487    5.1985   -2.8069 H   0  0  0  0  0  0  0  0  0  0  0  0
   -8.5674    6.1473   -3.8834 H   0  0  0  0  0  0  0  0  0  0  0  0
   -6.1936    6.4197   -4.5272 H   0  0  0  0  0  0  0  0  0  0  0  0
   -6.9638    7.9665   -3.9983 H   0  0  0  0  0  0  0  0  0  0  0  0
   -4.7636    7.8373   -3.0484 H   0  0  0  0  0  0  0  0  0  0  0  0
   -4.1030    5.8230   -2.7510 H   0  0  0  0  0  0  0  0  0  0  0  0
   -6.4822    9.8769   -0.6625 H   0  0  0  0  0  0  0  0  0  0  0  0
   -5.5428    9.7852   -2.1908 H   0  0  0  0  0  0  0  0  0  0  0  0
   -7.2977    9.4017   -2.1908 H   0  0  0  0  0  0  0  0  0  0  0  0
   -5.2930    7.8509    0.7267 H   0  0  0  0  0  0  0  0  0  0  0  0
   -4.2571    6.9555   -0.4360 H   0  0  0  0  0  0  0  0  0  0  0  0
   -4.2618    8.7517   -0.4360 H   0  0  0  0  0  0  0  0  0  0  0  0
   -9.4562    4.2038   -0.3780 H   0  0  0  0  0  0  0  0  0  0  0  0
  -10.3543    4.1430   -1.9325 H   0  0  0  0  0  0  0  0  0  0  0  0
   -8.5744    4.3851   -1.9325 H   0  0  0  0  0  0  0  0  0  0  0  0
  -10.5168    6.5803   -3.3193 H   0  0  0  0  0  0  0  0  0  0  0  0
  -11.6286    5.6392   -2.1738 H   0  0  0  0  0  0  0  0  0  0  0  0
  -11.1325    8.6289   -2.2272 H   0  0  0  0  0  0  0  0  0  0  0  0
  -12.6545    7.7306   -2.6057 H   0  0  0  0  0  0  0  0  0  0  0  0
  -13.1787    6.4180    0.8499 H   0  0  0  0  0  0  0  0  0  0  0  0
  -14.0630    6.7375   -0.6807 H   0  0  0  0  0  0  0  0  0  0  0  0
  -12.6296    5.6549   -0.6807 H   0  0  0  0  0  0  0  0  0  0  0  0
  1  2  1  0
  2  3  1  0
  3  4  1  0
  4  5  1  0
  5  6  1  0
  6  7  1  0
  7  8  1  0
  7  9  1  0
  2 10  1  0
 10 11  1  0
 11 12  1  0
 12 13  1  0
 13 14  1  6
 13 15  1  0
 15 16  1  0
 16 17  1  0
 17 18  2  0
 18 19  1  0
 19 20  1  0
 20 21  1  0
 21 22  1  0
 22 23  1  0
 22 24  1  0
 24 25  1  0
 24 26  1  0
 19 27  1  0
 27 28  1  1
 27 29  1  0
 29 30  1  0
 30 31  1  0
 31 32  1  1
  7  5  1  0
 31 10  1  0
 31 13  1  0
 27 15  1  0
 24 18  1  0
  1 33  1  0
  1 34  1  0
  1 35  1  0
  2 36  1  6
  3 37  1  0
  3 38  1  0
  4 39  1  0
  4 40  1  0
  5 41  1  6
  8 42  1  0
  8 43  1  0
  8 44  1  0
  9 45  1  0
  9 46  1  0
  9 47  1  0
 10 48  1  6
 11 49  1  0
 11 50  1  0
 12 51  1  0
 12 52  1  0
 14 53  1  0
 14 54  1  0
 14 55  1  0
 15 56  1  1
 16 57  1  0
 16 58  1  0
 17 59  1  0
 19 60  1  6
 20 61  1  0
 20 62  1  0
 21 63  1  0
 21 64  1  0
 22 65  1  6
 23 66  1  0
 25 67  1  0
 25 68  1  0
 25 69  1  0
 26 70  1  0
 26 71  1  0
 26 72  1  0
 28 73  1  0
 28 74  1  0
 28 75  1  0
 29 76  1  0
 29 77  1  0
 30 78  1  0
 30 79  1  0
 32 80  1  0
 32 81  1  0
 32 82  1  0
M  END
>  <meeko>  (6) 
{"is_sidechain": [false], "intermolecular_energy": 2.731, "internal_energy": -0.839}

$$$$
EPH_relaxed_0001_pdb2pqr_Repair_178_r2_0001_out
     RDKit          3D

 82 86  0  0  0  0  0  0  0  0999 V2000
  -12.8780   10.6980   -2.1800 C   0  0  0  0  0  0  0  0  0  0  0  0
  -13.0710    9.4700   -1.2860 C   0  0  2  0  0  0  0  0  0  0  0  0
  -14.0060    9.7600   -0.0950 C   0  0  0  0  0  0  0  0  0  0  0  0
  -15.2690    8.8950   -0.0790 C   0  0  0  0  0  0  0  0  0  0  0  0
  -15.0700    7.6380    0.7130 C   0  0  2  0  0  0  0  0  0  0  0  0
  -13.8160    6.9810    0.4880 O   0  0  0  0  0  0  0  0  0  0  0  0
  -14.9910    6.2580    0.0860 C   0  0  0  0  0  0  0  0  0  0  0  0
  -15.1110    6.0650   -1.3930 C   0  0  0  0  0  0  0  0  0  0  0  0
  -15.2870    5.0660    0.9410 C   0  0  0  0  0  0  0  0  0  0  0  0
  -11.7200    8.9770   -0.7810 C   0  0  1  0  0  0  0  0  0  0  0  0
  -11.8120    8.3090    0.6160 C   0  0  0  0  0  0  0  0  0  0  0  0
  -10.7730    7.1580    0.6310 C   0  0  0  0  0  0  0  0  0  0  0  0
   -9.8950    7.4090   -0.6170 C   0  0  1  0  0  0  0  0  0  0  0  0
   -8.8750    8.5050   -0.1760 C   0  0  0  0  0  0  0  0  0  0  0  0
   -9.1750    6.1590   -1.2180 C   0  0  2  0  0  0  0  0  0  0  0  0
   -8.1590    5.4790   -0.2830 C   0  0  0  0  0  0  0  0  0  0  0  0
   -6.7590    5.9860   -0.3870 C   0  0  0  0  0  0  0  0  0  0  0  0
   -6.2730    6.7430   -1.3890 C   0  0  0  0  0  0  0  0  0  0  0  0
   -7.1380    7.0830   -2.6090 C   0  0  1  0  0  0  0  0  0  0  0  0
   -6.3170    6.8530   -3.9050 C   0  0  0  0  0  0  0  0  0  0  0  0
   -4.9920    7.6080   -3.9010 C   0  0  0  0  0  0  0  0  0  0  0  0
   -4.1360    7.1990   -2.7040 C   0  0  2  0  0  0  0  0  0  0  0  0
   -3.7430    5.8330   -2.8640 O   0  0  0  0  0  0  0  0  0  0  0  0
   -4.8620    7.3790   -1.3420 C   0  0  0  0  0  0  0  0  0  0  0  0
   -5.0180    8.8870   -1.0300 C   0  0  0  0  0  0  0  0  0  0  0  0
   -3.9440    6.7990   -0.2320 C   0  0  0  0  0  0  0  0  0  0  0  0
   -8.5680    6.3920   -2.6610 C   0  0  1  0  0  0  0  0  0  0  0  0
   -8.4550    4.9870   -3.3280 C   0  0  0  0  0  0  0  0  0  0  0  0
   -9.5190    7.2450   -3.5800 C   0  0  0  0  0  0  0  0  0  0  0  0
  -10.2940    8.3920   -2.9030 C   0  0  0  0  0  0  0  0  0  0  0  0
  -10.9920    7.9040   -1.6290 C   0  0  2  0  0  0  0  0  0  0  0  0
  -12.0400    6.8170   -2.0440 C   0  0  0  0  0  0  0  0  0  0  0  0
  -12.7378   11.5902   -1.5521 H   0  0  0  0  0  0  0  0  0  0  0  0
  -11.9915   10.5535   -2.8151 H   0  0  0  0  0  0  0  0  0  0  0  0
  -13.7660   10.8324   -2.8151 H   0  0  0  0  0  0  0  0  0  0  0  0
  -13.5471    8.6881   -1.8959 H   0  0  0  0  0  0  0  0  0  0  0  0
  -13.4490    9.5784    0.8360 H   0  0  0  0  0  0  0  0  0  0  0  0
  -14.3338   10.8056   -0.1910 H   0  0  0  0  0  0  0  0  0  0  0  0
  -16.0909    9.4725    0.3693 H   0  0  0  0  0  0  0  0  0  0  0  0
  -15.5049    8.6133   -1.1158 H   0  0  0  0  0  0  0  0  0  0  0  0
  -15.6704    8.0379    1.5434 H   0  0  0  0  0  0  0  0  0  0  0  0
  -15.6817    5.1472   -1.5979 H   0  0  0  0  0  0  0  0  0  0  0  0
  -15.6325    6.9272   -1.8342 H   0  0  0  0  0  0  0  0  0  0  0  0
  -14.1070    5.9787   -1.8342 H   0  0  0  0  0  0  0  0  0  0  0  0
  -15.2167    5.3490    2.0016 H   0  0  0  0  0  0  0  0  0  0  0  0
  -16.3026    4.7029    0.7249 H   0  0  0  0  0  0  0  0  0  0  0  0
  -14.5593    4.2700    0.7249 H   0  0  0  0  0  0  0  0  0  0  0  0
  -11.1578    9.9221   -0.8069 H   0  0  0  0  0  0  0  0  0  0  0  0
  -11.5772    9.0415    1.4023 H   0  0  0  0  0  0  0  0  0  0  0  0
  -12.8263    7.9279    0.8054 H   0  0  0  0  0  0  0  0  0  0  0  0
  -10.1654    7.1952    1.5472 H   0  0  0  0  0  0  0  0  0  0  0  0
  -11.2487    6.1663    0.6139 H   0  0  0  0  0  0  0  0  0  0  0  0
   -8.8350    8.5480    0.9224 H   0  0  0  0  0  0  0  0  0  0  0  0
   -7.8781    8.2578   -0.5698 H   0  0  0  0  0  0  0  0  0  0  0  0
   -9.1930    9.4816   -0.5698 H   0  0  0  0  0  0  0  0  0  0  0  0
  -10.0017    5.4424   -1.3320 H   0  0  0  0  0  0  0  0  0  0  0  0
   -8.4982    5.6270    0.7529 H   0  0  0  0  0  0  0  0  0  0  0  0
   -8.1239    4.4227   -0.5880 H   0  0  0  0  0  0  0  0  0  0  0  0
   -6.0653    5.7185    0.4237 H   0  0  0  0  0  0  0  0  0  0  0  0
   -7.3939    8.1485   -2.5128 H   0  0  0  0  0  0  0  0  0  0  0  0
   -6.1094    5.7774   -4.0044 H   0  0  0  0  0  0  0  0  0  0  0  0
   -6.9133    7.2305   -4.7488 H   0  0  0  0  0  0  0  0  0  0  0  0
   -4.4457    7.3819   -4.8286 H   0  0  0  0  0  0  0  0  0  0  0  0
   -5.2015    8.6857   -3.8318 H   0  0  0  0  0  0  0  0  0  0  0  0
   -3.2599    7.8638   -2.6818 H   0  0  0  0  0  0  0  0  0  0  0  0
   -4.3580    5.2870   -2.3460 H   0  0  0  0  0  0  0  0  0  0  0  0
   -5.0334    9.0363    0.0597 H   0  0  0  0  0  0  0  0  0  0  0  0
   -4.1723    9.4406   -1.4640 H   0  0  0  0  0  0  0  0  0  0  0  0
   -5.9591    9.2558   -1.4640 H   0  0  0  0  0  0  0  0  0  0  0  0
   -4.3540    7.0580    0.7553 H   0  0  0  0  0  0  0  0  0  0  0  0
   -3.8936    5.7048   -0.3325 H   0  0  0  0  0  0  0  0  0  0  0  0
   -2.9341    7.2233   -0.3325 H   0  0  0  0  0  0  0  0  0  0  0  0
   -8.3929    4.2145   -2.5474 H   0  0  0  0  0  0  0  0  0  0  0  0
   -9.3415    4.8057   -3.9536 H   0  0  0  0  0  0  0  0  0  0  0  0
   -7.5510    4.9497   -3.9536 H   0  0  0  0  0  0  0  0  0  0  0  0
   -8.9035    7.6851   -4.3784 H   0  0  0  0  0  0  0  0  0  0  0  0
  -10.2905    6.5419   -3.9272 H   0  0  0  0  0  0  0  0  0  0  0  0
   -9.5910    9.1970   -2.6426 H   0  0  0  0  0  0  0  0  0  0  0  0
  -11.0583    8.7605   -3.6030 H   0  0  0  0  0  0  0  0  0  0  0  0
  -12.4762    6.3646   -1.1412 H   0  0  0  0  0  0  0  0  0  0  0  0
  -12.8366    7.2848   -2.6412 H   0  0  0  0  0  0  0  0  0  0  0  0
  -11.5434    6.0380   -2.6412 H   0  0  0  0  0  0  0  0  0  0  0  0
  1  2  1  0
  2  3  1  0
  3  4  1  0
  4  5  1  0
  5  6  1  0
  6  7  1  0
  7  8  1  0
  7  9  1  0
  2 10  1  0
 10 11  1  0
 11 12  1  0
 12 13  1  0
 13 14  1  1
 13 15  1  0
 15 16  1  0
 16 17  1  0
 17 18  2  0
 18 19  1  0
 19 20  1  0
 20 21  1  0
 21 22  1  0
 22 23  1  0
 22 24  1  0
 24 25  1  0
 24 26  1  0
 19 27  1  0
 27 28  1  6
 27 29  1  0
 29 30  1  0
 30 31  1  0
 31 32  1  6
  7  5  1  0
 31 10  1  0
 31 13  1  0
 27 15  1  0
 24 18  1  0
  1 33  1  0
  1 34  1  0
  1 35  1  0
  2 36  1  6
  3 37  1  0
  3 38  1  0
  4 39  1  0
  4 40  1  0
  5 41  1  1
  8 42  1  0
  8 43  1  0
  8 44  1  0
  9 45  1  0
  9 46  1  0
  9 47  1  0
 10 48  1  1
 11 49  1  0
 11 50  1  0
 12 51  1  0
 12 52  1  0
 14 53  1  0
 14 54  1  0
 14 55  1  0
 15 56  1  6
 16 57  1  0
 16 58  1  0
 17 59  1  0
 19 60  1  1
 20 61  1  0
 20 62  1  0
 21 63  1  0
 21 64  1  0
 22 65  1  1
 23 66  1  0
 25 67  1  0
 25 68  1  0
 25 69  1  0
 26 70  1  0
 26 71  1  0
 26 72  1  0
 28 73  1  0
 28 74  1  0
 28 75  1  0
 29 76  1  0
 29 77  1  0
 30 78  1  0
 30 79  1  0
 32 80  1  0
 32 81  1  0
 32 82  1  0
M  END
>  <meeko>  (7) 
{"is_sidechain": [false], "intermolecular_energy": 2.731, "internal_energy": -0.839}

$$$$
EPH_relaxed_0001_pdb2pqr_Repair_178_r2_0001_out
     RDKit          3D

 82 86  0  0  0  0  0  0  0  0999 V2000
    1.0140   14.7140   -5.3340 C   0  0  0  0  0  0  0  0  0  0  0  0
    0.3440   14.3490   -4.0070 C   0  0  2  0  0  0  0  0  0  0  0  0
    1.2320   14.6940   -2.7940 C   0  0  0  0  0  0  0  0  0  0  0  0
    1.1850   16.1720   -2.3980 C   0  0  0  0  0  0  0  0  0  0  0  0
    1.9010   16.4230   -1.1050 C   0  0  2  0  0  0  0  0  0  0  0  0
    1.1350   17.1350   -0.1240 O   0  0  0  0  0  0  0  0  0  0  0  0
    2.3030   17.8050   -0.6250 C   0  0  0  0  0  0  0  0  0  0  0  0
    2.0030   19.0290   -1.4320 C   0  0  0  0  0  0  0  0  0  0  0  0
    3.4080   17.9200    0.3780 C   0  0  0  0  0  0  0  0  0  0  0  0
   -0.0050   12.8660   -3.9910 C   0  0  1  0  0  0  0  0  0  0  0  0
    1.1660   11.9710   -4.4770 C   0  0  0  0  0  0  0  0  0  0  0  0
    1.1010   10.6620   -3.6500 C   0  0  0  0  0  0  0  0  0  0  0  0
   -0.2820   10.7030   -2.9600 C   0  0  1  0  0  0  0  0  0  0  0  0
   -1.2880   10.2140   -4.0490 C   0  0  0  0  0  0  0  0  0  0  0  0
   -0.4200    9.8830   -1.6370 C   0  0  2  0  0  0  0  0  0  0  0  0
   -0.2190    8.3650   -1.7860 C   0  0  0  0  0  0  0  0  0  0  0  0
   -1.4580    7.5820   -2.0700 C   0  0  0  0  0  0  0  0  0  0  0  0
   -2.7180    8.0310   -1.9190 C   0  0  0  0  0  0  0  0  0  0  0  0
   -2.9950    9.4180   -1.3260 C   0  0  1  0  0  0  0  0  0  0  0  0
   -4.1130    9.3100   -0.2570 C   0  0  0  0  0  0  0  0  0  0  0  0
   -5.3750    8.6440   -0.7950 C   0  0  0  0  0  0  0  0  0  0  0  0
   -5.0700    7.2440   -1.3220 C   0  0  2  0  0  0  0  0  0  0  0  0
   -4.6940    6.4090   -0.2230 O   0  0  0  0  0  0  0  0  0  0  0  0
   -3.9510    7.2260   -2.4000 C   0  0  0  0  0  0  0  0  0  0  0  0
   -4.4740    7.8730   -3.7060 C   0  0  0  0  0  0  0  0  0  0  0  0
   -3.6430    5.7430   -2.7440 C   0  0  0  0  0  0  0  0  0  0  0  0
   -1.7230   10.2140   -0.8010 C   0  0  1  0  0  0  0  0  0  0  0  0
   -1.4180    9.8160    0.6750 C   0  0  0  0  0  0  0  0  0  0  0  0
   -2.0500   11.7540   -0.7880 C   0  0  0  0  0  0  0  0  0  0  0  0
   -1.7800   12.5330   -2.0900 C   0  0  0  0  0  0  0  0  0  0  0  0
   -0.3760   12.2370   -2.6250 C   0  0  2  0  0  0  0  0  0  0  0  0
    0.6580   12.7390   -1.5600 C   0  0  0  0  0  0  0  0  0  0  0  0
    1.9640   15.2315   -5.1349 H   0  0  0  0  0  0  0  0  0  0  0  0
    1.2094   13.7977   -5.9103 H   0  0  0  0  0  0  0  0  0  0  0  0
    0.3501   15.3751   -5.9103 H   0  0  0  0  0  0  0  0  0  0  0  0
   -0.5750   14.9480   -3.9250 H   0  0  0  0  0  0  0  0  0  0  0  0
    0.8961   14.0936   -1.9357 H   0  0  0  0  0  0  0  0  0  0  0  0
    2.2701   14.4709   -3.0815 H   0  0  0  0  0  0  0  0  0  0  0  0
    1.6606   16.7686   -3.1904 H   0  0  0  0  0  0  0  0  0  0  0  0
    0.1310   16.4585   -2.2674 H   0  0  0  0  0  0  0  0  0  0  0  0
    2.4660   15.4850   -1.2094 H   0  0  0  0  0  0  0  0  0  0  0  0
    1.7964   19.8721   -0.7564 H   0  0  0  0  0  0  0  0  0  0  0  0
    2.8684   19.2711   -2.0664 H   0  0  0  0  0  0  0  0  0  0  0  0
    1.1237   18.8435   -2.0664 H   0  0  0  0  0  0  0  0  0  0  0  0
    2.9875   17.8762    1.3935 H   0  0  0  0  0  0  0  0  0  0  0  0
    4.1173   17.0908    0.2388 H   0  0  0  0  0  0  0  0  0  0  0  0
    3.9313   18.8775    0.2388 H   0  0  0  0  0  0  0  0  0  0  0  0
   -0.8849   12.8772   -4.6511 H   0  0  0  0  0  0  0  0  0  0  0  0
    1.0532   11.7483   -5.5483 H   0  0  0  0  0  0  0  0  0  0  0  0
    2.1331   12.4770   -4.3403 H   0  0  0  0  0  0  0  0  0  0  0  0
    1.1809    9.7835   -4.3071 H   0  0  0  0  0  0  0  0  0  0  0  0
    1.9256   10.5853   -2.9260 H   0  0  0  0  0  0  0  0  0  0  0  0
   -2.1749    9.7829   -3.5617 H   0  0  0  0  0  0  0  0  0  0  0  0
   -1.5916   11.0651   -4.6763 H   0  0  0  0  0  0  0  0  0  0  0  0
   -0.8063    9.4495   -4.6763 H   0  0  0  0  0  0  0  0  0  0  0  0
    0.4368   10.2416   -1.0478 H   0  0  0  0  0  0  0  0  0  0  0  0
    0.4871    8.1952   -2.6122 H   0  0  0  0  0  0  0  0  0  0  0  0
    0.1485    8.0099   -0.8119 H   0  0  0  0  0  0  0  0  0  0  0  0
   -1.3305    6.5515   -2.4332 H   0  0  0  0  0  0  0  0  0  0  0  0
   -3.3384   10.0438   -2.1629 H   0  0  0  0  0  0  0  0  0  0  0  0
   -3.7353    8.7177    0.5895 H   0  0  0  0  0  0  0  0  0  0  0  0
   -4.3802   10.3317    0.0507 H   0  0  0  0  0  0  0  0  0  0  0  0
   -6.1164    8.5706    0.0143 H   0  0  0  0  0  0  0  0  0  0  0  0
   -5.7683    9.2529   -1.6224 H   0  0  0  0  0  0  0  0  0  0  0  0
   -5.9816    6.8695   -1.8105 H   0  0  0  0  0  0  0  0  0  0  0  0
   -5.5090    6.0500    0.1670 H   0  0  0  0  0  0  0  0  0  0  0  0
   -5.1477    8.7064   -3.4580 H   0  0  0  0  0  0  0  0  0  0  0  0
   -3.6244    8.2507   -4.2939 H   0  0  0  0  0  0  0  0  0  0  0  0
   -5.0214    7.1215   -4.2939 H   0  0  0  0  0  0  0  0  0  0  0  0
   -3.5236    5.1680   -1.8139 H   0  0  0  0  0  0  0  0  0  0  0  0
   -4.4730    5.3227   -3.3309 H   0  0  0  0  0  0  0  0  0  0  0  0
   -2.7143    5.6880   -3.3309 H   0  0  0  0  0  0  0  0  0  0  0  0
   -1.9436   10.5018    1.3558 H   0  0  0  0  0  0  0  0  0  0  0  0
   -1.7605    8.7864    0.8554 H   0  0  0  0  0  0  0  0  0  0  0  0
   -0.3347    9.8790    0.8554 H   0  0  0  0  0  0  0  0  0  0  0  0
   -3.1179   11.8654   -0.5490 H   0  0  0  0  0  0  0  0  0  0  0  0
   -1.3637   12.1876   -0.0457 H   0  0  0  0  0  0  0  0  0  0  0  0
   -2.5227   12.2384   -2.8461 H   0  0  0  0  0  0  0  0  0  0  0  0
   -1.8541   13.6095   -1.8763 H   0  0  0  0  0  0  0  0  0  0  0  0
    0.2659   12.5486   -0.5501 H   0  0  0  0  0  0  0  0  0  0  0  0
    1.6093   12.2024   -1.6912 H   0  0  0  0  0  0  0  0  0  0  0  0
    0.8247   13.8183   -1.6912 H   0  0  0  0  0  0  0  0  0  0  0  0
  1  2  1  0
  2  3  1  0
  3  4  1  0
  4  5  1  0
  5  6  1  0
  6  7  1  0
  7  8  1  0
  7  9  1  0
  2 10  1  0
 10 11  1  0
 11 12  1  0
 12 13  1  0
 13 14  1  6
 13 15  1  0
 15 16  1  0
 16 17  1  0
 17 18  2  0
 18 19  1  0
 19 20  1  0
 20 21  1  0
 21 22  1  0
 22 23  1  0
 22 24  1  0
 24 25  1  0
 24 26  1  0
 19 27  1  0
 27 28  1  1
 27 29  1  0
 29 30  1  0
 30 31  1  0
 31 32  1  1
  7  5  1  0
 31 10  1  0
 31 13  1  0
 27 15  1  0
 24 18  1  0
  1 33  1  0
  1 34  1  0
  1 35  1  0
  2 36  1  1
  3 37  1  0
  3 38  1  0
  4 39  1  0
  4 40  1  0
  5 41  1  1
  8 42  1  0
  8 43  1  0
  8 44  1  0
  9 45  1  0
  9 46  1  0
  9 47  1  0
 10 48  1  6
 11 49  1  0
 11 50  1  0
 12 51  1  0
 12 52  1  0
 14 53  1  0
 14 54  1  0
 14 55  1  0
 15 56  1  1
 16 57  1  0
 16 58  1  0
 17 59  1  0
 19 60  1  6
 20 61  1  0
 20 62  1  0
 21 63  1  0
 21 64  1  0
 22 65  1  6
 23 66  1  0
 25 67  1  0
 25 68  1  0
 25 69  1  0
 26 70  1  0
 26 71  1  0
 26 72  1  0
 28 73  1  0
 28 74  1  0
 28 75  1  0
 29 76  1  0
 29 77  1  0
 30 78  1  0
 30 79  1  0
 32 80  1  0
 32 81  1  0
 32 82  1  0
M  END
>  <meeko>  (8) 
{"is_sidechain": [false], "intermolecular_energy": 2.731, "internal_energy": -0.839}

$$$$
EPH_relaxed_0001_pdb2pqr_Repair_178_r2_0001_out
     RDKit          3D

 82 86  0  0  0  0  0  0  0  0999 V2000
  -11.6840    8.7780   -2.6440 C   0  0  0  0  0  0  0  0  0  0  0  0
  -11.2620    7.5190   -1.8810 C   0  0  2  0  0  0  0  0  0  0  0  0
  -12.3340    7.0660   -0.8690 C   0  0  0  0  0  0  0  0  0  0  0  0
  -13.7290    7.6280   -1.1580 C   0  0  0  0  0  0  0  0  0  0  0  0
  -13.8310    9.0770   -0.7880 C   0  0  2  0  0  0  0  0  0  0  0  0
  -15.1520    9.5160   -0.4450 O   0  0  0  0  0  0  0  0  0  0  0  0
  -14.5740   10.1030   -1.6220 C   0  0  0  0  0  0  0  0  0  0  0  0
  -15.2640    9.7230   -2.8940 C   0  0  0  0  0  0  0  0  0  0  0  0
  -14.2180   11.5480   -1.4620 C   0  0  0  0  0  0  0  0  0  0  0  0
   -9.9400    7.7640   -1.1640 C   0  0  1  0  0  0  0  0  0  0  0  0
  -10.0370    7.5280    0.3670 C   0  0  0  0  0  0  0  0  0  0  0  0
   -8.6760    6.9380    0.8160 C   0  0  0  0  0  0  0  0  0  0  0  0
   -7.7360    7.1620   -0.3920 C   0  0  1  0  0  0  0  0  0  0  0  0
   -7.2750    8.6490   -0.2710 C   0  0  0  0  0  0  0  0  0  0  0  0
   -6.5190    6.1880   -0.5100 C   0  0  2  0  0  0  0  0  0  0  0  0
   -5.5140    6.2550    0.6530 C   0  0  0  0  0  0  0  0  0  0  0  0
   -4.3940    7.2260    0.4730 C   0  0  0  0  0  0  0  0  0  0  0  0
   -4.0400    7.8060   -0.6890 C   0  0  0  0  0  0  0  0  0  0  0  0
   -4.7330    7.4230   -2.0030 C   0  0  1  0  0  0  0  0  0  0  0  0
   -3.6650    7.1900   -3.1030 C   0  0  0  0  0  0  0  0  0  0  0  0
   -2.7220    8.3780   -3.2650 C   0  0  0  0  0  0  0  0  0  0  0  0
   -2.0090    8.6910   -1.9530 C   0  0  2  0  0  0  0  0  0  0  0  0
   -1.1290    7.6070   -1.6360 O   0  0  0  0  0  0  0  0  0  0  0  0
   -2.9840    8.9360   -0.7680 C   0  0  0  0  0  0  0  0  0  0  0  0
   -3.7250   10.2800   -0.9720 C   0  0  0  0  0  0  0  0  0  0  0  0
   -2.1370    9.1000    0.5230 C   0  0  0  0  0  0  0  0  0  0  0  0
   -5.7850    6.2350   -1.9120 C   0  0  1  0  0  0  0  0  0  0  0  0
   -5.0570    4.8660   -2.0790 C   0  0  0  0  0  0  0  0  0  0  0  0
   -6.7960    6.3500   -3.1130 C   0  0  0  0  0  0  0  0  0  0  0  0
   -8.0400    7.2320   -2.8920 C   0  0  0  0  0  0  0  0  0  0  0  0
   -8.7340    6.8800   -1.5730 C   0  0  2  0  0  0  0  0  0  0  0  0
   -9.2290    5.3970   -1.6730 C   0  0  0  0  0  0  0  0  0  0  0  0
  -11.9492    9.5693   -1.9275 H   0  0  0  0  0  0  0  0  0  0  0  0
  -10.8514    9.1199   -3.2763 H   0  0  0  0  0  0  0  0  0  0  0  0
  -12.5545    8.5490   -3.2763 H   0  0  0  0  0  0  0  0  0  0  0  0
  -11.1412    6.7112   -2.6178 H   0  0  0  0  0  0  0  0  0  0  0  0
  -12.3905    5.9677   -0.8911 H   0  0  0  0  0  0  0  0  0  0  0  0
  -12.0298    7.4505    0.1157 H   0  0  0  0  0  0  0  0  0  0  0  0
  -13.9420    7.5185   -2.2316 H   0  0  0  0  0  0  0  0  0  0  0  0
  -14.4565    7.0676   -0.5524 H   0  0  0  0  0  0  0  0  0  0  0  0
  -12.8151    9.0649   -0.3664 H   0  0  0  0  0  0  0  0  0  0  0  0
  -16.2054    9.2045   -2.6597 H   0  0  0  0  0  0  0  0  0  0  0  0
  -15.4802   10.6293   -3.4787 H   0  0  0  0  0  0  0  0  0  0  0  0
  -14.6137    9.0558   -3.4787 H   0  0  0  0  0  0  0  0  0  0  0  0
  -14.1573   11.7943   -0.3917 H   0  0  0  0  0  0  0  0  0  0  0  0
  -13.2455   11.7410   -1.9384 H   0  0  0  0  0  0  0  0  0  0  0  0
  -14.9896   12.1707   -1.9384 H   0  0  0  0  0  0  0  0  0  0  0  0
   -9.7602    8.8075   -1.4618 H   0  0  0  0  0  0  0  0  0  0  0  0
  -10.2269    8.4793    0.8856 H   0  0  0  0  0  0  0  0  0  0  0  0
  -10.8633    6.8435    0.6094 H   0  0  0  0  0  0  0  0  0  0  0  0
   -8.2985    7.4650    1.7047 H   0  0  0  0  0  0  0  0  0  0  0  0
   -8.7528    5.8764    1.0936 H   0  0  0  0  0  0  0  0  0  0  0  0
   -7.1905    8.9214    0.7914 H   0  0  0  0  0  0  0  0  0  0  0  0
   -6.2970    8.7706   -0.7596 H   0  0  0  0  0  0  0  0  0  0  0  0
   -8.0127    9.3025   -0.7596 H   0  0  0  0  0  0  0  0  0  0  0  0
   -6.9986    5.2010   -0.4333 H   0  0  0  0  0  0  0  0  0  0  0  0
   -6.0650    6.5364    1.5625 H   0  0  0  0  0  0  0  0  0  0  0  0
   -5.0480    5.2602    0.7102 H   0  0  0  0  0  0  0  0  0  0  0  0
   -3.8083    7.4898    1.3660 H   0  0  0  0  0  0  0  0  0  0  0  0
   -5.3664    8.2807   -2.2736 H   0  0  0  0  0  0  0  0  0  0  0  0
   -3.0718    6.3030   -2.8360 H   0  0  0  0  0  0  0  0  0  0  0  0
   -4.1940    7.0516   -4.0575 H   0  0  0  0  0  0  0  0  0  0  0  0
   -1.9725    8.1404   -4.0343 H   0  0  0  0  0  0  0  0  0  0  0  0
   -3.3126    9.2572   -3.5621 H   0  0  0  0  0  0  0  0  0  0  0  0
   -1.4502    9.6274   -2.0973 H   0  0  0  0  0  0  0  0  0  0  0  0
   -1.4510    6.8200   -2.1070 H   0  0  0  0  0  0  0  0  0  0  0  0
   -3.9665   10.7180    0.0077 H   0  0  0  0  0  0  0  0  0  0  0  0
   -3.0810   10.9721   -1.5343 H   0  0  0  0  0  0  0  0  0  0  0  0
   -4.6540   10.1048   -1.5343 H   0  0  0  0  0  0  0  0  0  0  0  0
   -2.7835    8.9748    1.4041 H   0  0  0  0  0  0  0  0  0  0  0  0
   -1.3430    8.3389    0.5397 H   0  0  0  0  0  0  0  0  0  0  0  0
   -1.6844   10.1025    0.5397 H   0  0  0  0  0  0  0  0  0  0  0  0
   -4.8337    4.4461   -1.0871 H   0  0  0  0  0  0  0  0  0  0  0  0
   -5.7049    4.1715   -2.6338 H   0  0  0  0  0  0  0  0  0  0  0  0
   -4.1189    5.0148   -2.6338 H   0  0  0  0  0  0  0  0  0  0  0  0
   -6.2460    6.7599   -3.9729 H   0  0  0  0  0  0  0  0  0  0  0  0
   -7.1870    5.3322   -3.2585 H   0  0  0  0  0  0  0  0  0  0  0  0
   -7.7326    8.2879   -2.8663 H   0  0  0  0  0  0  0  0  0  0  0  0
   -8.7456    7.0565   -3.7174 H   0  0  0  0  0  0  0  0  0  0  0  0
   -9.3658    4.9871   -0.6614 H   0  0  0  0  0  0  0  0  0  0  0  0
  -10.1863    5.3657   -2.2139 H   0  0  0  0  0  0  0  0  0  0  0  0
   -8.4824    4.7969   -2.2139 H   0  0  0  0  0  0  0  0  0  0  0  0
  1  2  1  0
  2  3  1  0
  3  4  1  0
  4  5  1  0
  5  6  1  0
  6  7  1  0
  7  8  1  0
  7  9  1  0
  2 10  1  0
 10 11  1  0
 11 12  1  0
 12 13  1  0
 13 14  1  6
 13 15  1  0
 15 16  1  0
 16 17  1  0
 17 18  2  0
 18 19  1  0
 19 20  1  0
 20 21  1  0
 21 22  1  0
 22 23  1  0
 22 24  1  0
 24 25  1  0
 24 26  1  0
 19 27  1  0
 27 28  1  6
 27 29  1  0
 29 30  1  0
 30 31  1  0
 31 32  1  6
  7  5  1  0
 31 10  1  0
 31 13  1  0
 27 15  1  0
 24 18  1  0
  1 33  1  0
  1 34  1  0
  1 35  1  0
  2 36  1  6
  3 37  1  0
  3 38  1  0
  4 39  1  0
  4 40  1  0
  5 41  1  1
  8 42  1  0
  8 43  1  0
  8 44  1  0
  9 45  1  0
  9 46  1  0
  9 47  1  0
 10 48  1  1
 11 49  1  0
 11 50  1  0
 12 51  1  0
 12 52  1  0
 14 53  1  0
 14 54  1  0
 14 55  1  0
 15 56  1  1
 16 57  1  0
 16 58  1  0
 17 59  1  0
 19 60  1  6
 20 61  1  0
 20 62  1  0
 21 63  1  0
 21 64  1  0
 22 65  1  6
 23 66  1  0
 25 67  1  0
 25 68  1  0
 25 69  1  0
 26 70  1  0
 26 71  1  0
 26 72  1  0
 28 73  1  0
 28 74  1  0
 28 75  1  0
 29 76  1  0
 29 77  1  0
 30 78  1  0
 30 79  1  0
 32 80  1  0
 32 81  1  0
 32 82  1  0
M  END
>  <meeko>  (9) 
{"is_sidechain": [false], "intermolecular_energy": 2.731, "internal_energy": -0.839}

$$$$
EPH_relaxed_0001_pdb2pqr_Repair_178_r2_0001_out
     RDKit          3D

 82 86  0  0  0  0  0  0  0  0999 V2000
    0.2160    9.8500    0.3680 C   0  0  0  0  0  0  0  0  0  0  0  0
   -0.6320   10.5930   -0.6670 C   0  0  2  0  0  0  0  0  0  0  0  0
   -1.1360    9.6580   -1.7850 C   0  0  0  0  0  0  0  0  0  0  0  0
   -2.0100    8.5080   -1.2770 C   0  0  0  0  0  0  0  0  0  0  0  0
   -3.3510    8.9920   -0.8160 C   0  0  2  0  0  0  0  0  0  0  0  0
   -4.0050    8.1350    0.1300 O   0  0  0  0  0  0  0  0  0  0  0  0
   -4.6530    8.2840   -1.1440 C   0  0  0  0  0  0  0  0  0  0  0  0
   -4.6770    7.0340   -1.9650 C   0  0  0  0  0  0  0  0  0  0  0  0
   -5.9280    9.0670   -1.0830 C   0  0  0  0  0  0  0  0  0  0  0  0
    0.1720   11.7390   -1.2710 C   0  0  1  0  0  0  0  0  0  0  0  0
    0.2920   11.6370   -2.8140 C   0  0  0  0  0  0  0  0  0  0  0  0
    0.2740   13.0870   -3.3620 C   0  0  0  0  0  0  0  0  0  0  0  0
    0.4790   13.9780   -2.1140 C   0  0  1  0  0  0  0  0  0  0  0  0
    2.0190   13.9590   -1.8560 C   0  0  0  0  0  0  0  0  0  0  0  0
   -0.0730   15.4370   -2.2080 C   0  0  2  0  0  0  0  0  0  0  0  0
    0.5760   16.3120   -3.2950 C   0  0  0  0  0  0  0  0  0  0  0  0
    1.7710   17.0920   -2.8560 C   0  0  0  0  0  0  0  0  0  0  0  0
    2.1340   17.3150   -1.5800 C   0  0  0  0  0  0  0  0  0  0  0  0
    1.2540   16.8410   -0.4160 C   0  0  1  0  0  0  0  0  0  0  0  0
    1.1030   17.9860    0.6190 C   0  0  0  0  0  0  0  0  0  0  0  0
    2.4480   18.5310    1.0890 C   0  0  0  0  0  0  0  0  0  0  0  0
    3.2700   19.0460   -0.0890 C   0  0  2  0  0  0  0  0  0  0  0  0
    2.6170   20.1940   -0.6400 O   0  0  0  0  0  0  0  0  0  0  0  0
    3.4800   17.9810   -1.2020 C   0  0  0  0  0  0  0  0  0  0  0  0
    4.4420   16.8790   -0.6920 C   0  0  0  0  0  0  0  0  0  0  0  0
    4.2010   18.6690   -2.3920 C   0  0  0  0  0  0  0  0  0  0  0  0
   -0.1410   16.1950   -0.8200 C   0  0  1  0  0  0  0  0  0  0  0  0
   -1.2190   17.3120   -0.9750 C   0  0  0  0  0  0  0  0  0  0  0  0
   -0.6330   15.2620    0.3480 C   0  0  0  0  0  0  0  0  0  0  0  0
   -0.1500   13.7990    0.3200 C   0  0  0  0  0  0  0  0  0  0  0  0
   -0.3700   13.1750   -1.0620 C   0  0  2  0  0  0  0  0  0  0  0  0
   -1.9120   13.1600   -1.3390 C   0  0  0  0  0  0  0  0  0  0  0  0
   -0.1083   10.1342    1.3799 H   0  0  0  0  0  0  0  0  0  0  0  0
    0.0910    8.7654    0.2340 H   0  0  0  0  0  0  0  0  0  0  0  0
    1.2748   10.1164    0.2340 H   0  0  0  0  0  0  0  0  0  0  0  0
   -1.5153   10.9912   -0.1462 H   0  0  0  0  0  0  0  0  0  0  0  0
   -1.7256   10.2542   -2.4970 H   0  0  0  0  0  0  0  0  0  0  0  0
   -0.2481    9.2059   -2.2511 H   0  0  0  0  0  0  0  0  0  0  0  0
   -2.1536    7.7828   -2.0916 H   0  0  0  0  0  0  0  0  0  0  0  0
   -1.5004    8.0431   -0.4201 H   0  0  0  0  0  0  0  0  0  0  0  0
   -3.0344   10.0405   -0.9187 H   0  0  0  0  0  0  0  0  0  0  0  0
   -4.6938    6.1584   -1.2994 H   0  0  0  0  0  0  0  0  0  0  0  0
   -5.5754    7.0294   -2.5997 H   0  0  0  0  0  0  0  0  0  0  0  0
   -3.7794    6.9949   -2.5997 H   0  0  0  0  0  0  0  0  0  0  0  0
   -6.2042    9.2366   -0.0318 H   0  0  0  0  0  0  0  0  0  0  0  0
   -5.7882   10.0351   -1.5862 H   0  0  0  0  0  0  0  0  0  0  0  0
   -6.7282    8.5044   -1.5862 H   0  0  0  0  0  0  0  0  0  0  0  0
    1.1170   11.6095   -0.7231 H   0  0  0  0  0  0  0  0  0  0  0  0
    1.2343   11.1402   -3.0884 H   0  0  0  0  0  0  0  0  0  0  0  0
   -0.5341   11.0456   -3.2357 H   0  0  0  0  0  0  0  0  0  0  0  0
    1.0884   13.2389   -4.0857 H   0  0  0  0  0  0  0  0  0  0  0  0
   -0.6606   13.3209   -3.8928 H   0  0  0  0  0  0  0  0  0  0  0  0
    2.2093   13.9567   -0.7726 H   0  0  0  0  0  0  0  0  0  0  0  0
    2.4552   13.0554   -2.3068 H   0  0  0  0  0  0  0  0  0  0  0  0
    2.4773   14.8516   -2.3068 H   0  0  0  0  0  0  0  0  0  0  0  0
   -1.1108   15.2756   -2.5350 H   0  0  0  0  0  0  0  0  0  0  0  0
    0.8839   15.6547   -4.1216 H   0  0  0  0  0  0  0  0  0  0  0  0
   -0.1834   17.0542   -3.5821 H   0  0  0  0  0  0  0  0  0  0  0  0
    2.4089   17.5208   -3.6429 H   0  0  0  0  0  0  0  0  0  0  0  0
    1.7851   15.9931    0.0411 H   0  0  0  0  0  0  0  0  0  0  0  0
    0.5323   18.8054    0.1576 H   0  0  0  0  0  0  0  0  0  0  0  0
    0.5837   17.5755    1.4976 H   0  0  0  0  0  0  0  0  0  0  0  0
    2.2749   19.3563    1.7953 H   0  0  0  0  0  0  0  0  0  0  0  0
    3.0052   17.7175    1.5767 H   0  0  0  0  0  0  0  0  0  0  0  0
    4.2692   19.3020    0.2932 H   0  0  0  0  0  0  0  0  0  0  0  0
    3.2190   20.9510   -0.5390 H   0  0  0  0  0  0  0  0  0  0  0  0
    4.4452   16.8754    0.4080 H   0  0  0  0  0  0  0  0  0  0  0  0
    4.1053   15.8989   -1.0609 H   0  0  0  0  0  0  0  0  0  0  0  0
    5.4586   17.0802   -1.0609 H   0  0  0  0  0  0  0  0  0  0  0  0
    4.9465   19.3804   -2.0072 H   0  0  0  0  0  0  0  0  0  0  0  0
    4.7037   17.9073   -3.0060 H   0  0  0  0  0  0  0  0  0  0  0  0
    3.4637   19.2069   -3.0060 H   0  0  0  0  0  0  0  0  0  0  0  0
   -1.5439   17.6487    0.0205 H   0  0  0  0  0  0  0  0  0  0  0  0
   -0.7903   18.1612   -1.5274 H   0  0  0  0  0  0  0  0  0  0  0  0
   -2.0829   16.9138   -1.5274 H   0  0  0  0  0  0  0  0  0  0  0  0
   -0.2925   15.7066    1.2948 H   0  0  0  0  0  0  0  0  0  0  0  0
   -1.7253   15.2064    0.2308 H   0  0  0  0  0  0  0  0  0  0  0  0
    0.9228   13.7696    0.5614 H   0  0  0  0  0  0  0  0  0  0  0  0
   -0.7271   13.2250    1.0598 H   0  0  0  0  0  0  0  0  0  0  0  0
   -2.4562   13.1547   -0.3831 H   0  0  0  0  0  0  0  0  0  0  0  0
   -2.1899   14.0555   -1.9142 H   0  0  0  0  0  0  0  0  0  0  0  0
   -2.1725   12.2593   -1.9142 H   0  0  0  0  0  0  0  0  0  0  0  0
  1  2  1  0
  2  3  1  0
  3  4  1  0
  4  5  1  0
  5  6  1  0
  6  7  1  0
  7  8  1  0
  7  9  1  0
  2 10  1  0
 10 11  1  0
 11 12  1  0
 12 13  1  0
 13 14  1  1
 13 15  1  0
 15 16  1  0
 16 17  1  0
 17 18  2  0
 18 19  1  0
 19 20  1  0
 20 21  1  0
 21 22  1  0
 22 23  1  0
 22 24  1  0
 24 25  1  0
 24 26  1  0
 19 27  1  0
 27 28  1  6
 27 29  1  0
 29 30  1  0
 30 31  1  0
 31 32  1  6
  7  5  1  0
 31 10  1  0
 31 13  1  0
 27 15  1  0
 24 18  1  0
  1 33  1  0
  1 34  1  0
  1 35  1  0
  2 36  1  1
  3 37  1  0
  3 38  1  0
  4 39  1  0
  4 40  1  0
  5 41  1  1
  8 42  1  0
  8 43  1  0
  8 44  1  0
  9 45  1  0
  9 46  1  0
  9 47  1  0
 10 48  1  1
 11 49  1  0
 11 50  1  0
 12 51  1  0
 12 52  1  0
 14 53  1  0
 14 54  1  0
 14 55  1  0
 15 56  1  6
 16 57  1  0
 16 58  1  0
 17 59  1  0
 19 60  1  1
 20 61  1  0
 20 62  1  0
 21 63  1  0
 21 64  1  0
 22 65  1  1
 23 66  1  0
 25 67  1  0
 25 68  1  0
 25 69  1  0
 26 70  1  0
 26 71  1  0
 26 72  1  0
 28 73  1  0
 28 74  1  0
 28 75  1  0
 29 76  1  0
 29 77  1  0
 30 78  1  0
 30 79  1  0
 32 80  1  0
 32 81  1  0
 32 82  1  0
M  END
>  <meeko>  (10) 
{"is_sidechain": [false], "intermolecular_energy": 2.731, "internal_energy": -0.839}

$$$$
EPH_relaxed_0001_pdb2pqr_Repair_178_r2_0001_out
     RDKit          3D

 82 86  0  0  0  0  0  0  0  0999 V2000
    0.3610   14.9300   -2.8080 C   0  0  0  0  0  0  0  0  0  0  0  0
    0.7560   14.2360   -4.1150 C   0  0  2  0  0  0  0  0  0  0  0  0
    0.1560   14.9380   -5.3490 C   0  0  0  0  0  0  0  0  0  0  0  0
    0.9190   14.6590   -6.6470 C   0  0  0  0  0  0  0  0  0  0  0  0
    0.7400   15.7640   -7.6430 C   0  0  2  0  0  0  0  0  0  0  0  0
    0.4040   15.3290   -8.9670 O   0  0  0  0  0  0  0  0  0  0  0  0
    1.6720   15.9890   -8.8200 C   0  0  0  0  0  0  0  0  0  0  0  0
    2.8520   15.1000   -9.0620 C   0  0  0  0  0  0  0  0  0  0  0  0
    1.7200   17.3480   -9.4450 C   0  0  0  0  0  0  0  0  0  0  0  0
    0.3170   12.7760   -4.0810 C   0  0  1  0  0  0  0  0  0  0  0  0
    1.4310   11.8060   -4.5580 C   0  0  0  0  0  0  0  0  0  0  0  0
    1.2890   10.5130   -3.7140 C   0  0  0  0  0  0  0  0  0  0  0  0
   -0.0890   10.6470   -3.0230 C   0  0  1  0  0  0  0  0  0  0  0  0
   -1.1250   10.2060   -4.1040 C   0  0  0  0  0  0  0  0  0  0  0  0
   -0.2730    9.8530   -1.6890 C   0  0  2  0  0  0  0  0  0  0  0  0
   -0.1640    8.3240   -1.8210 C   0  0  0  0  0  0  0  0  0  0  0  0
   -1.4490    7.6140   -2.0930 C   0  0  0  0  0  0  0  0  0  0  0  0
   -2.6790    8.1400   -1.9460 C   0  0  0  0  0  0  0  0  0  0  0  0
   -2.8700    9.5490   -1.3690 C   0  0  1  0  0  0  0  0  0  0  0  0
   -3.9900    9.5220   -0.2960 C   0  0  0  0  0  0  0  0  0  0  0  0
   -5.2920    8.9270   -0.8240 C   0  0  0  0  0  0  0  0  0  0  0  0
   -5.0740    7.5050   -1.3350 C   0  0  2  0  0  0  0  0  0  0  0  0
   -4.7450    6.6620   -0.2260 O   0  0  0  0  0  0  0  0  0  0  0  0
   -3.9600    7.4060   -2.4150 C   0  0  0  0  0  0  0  0  0  0  0  0
   -4.4460    8.0680   -3.7270 C   0  0  0  0  0  0  0  0  0  0  0  0
   -3.7430    5.9030   -2.7410 C   0  0  0  0  0  0  0  0  0  0  0  0
   -1.5510   10.2720   -0.8560 C   0  0  1  0  0  0  0  0  0  0  0  0
   -1.2670    9.8740    0.6250 C   0  0  0  0  0  0  0  0  0  0  0  0
   -1.7840   11.8290   -0.8610 C   0  0  0  0  0  0  0  0  0  0  0  0
   -1.4700   12.5750   -2.1720 C   0  0  0  0  0  0  0  0  0  0  0  0
   -0.0880   12.1870   -2.7060 C   0  0  2  0  0  0  0  0  0  0  0  0
    0.9770   12.6390   -1.6500 C   0  0  0  0  0  0  0  0  0  0  0  0
    0.7042   14.3270   -1.9544 H   0  0  0  0  0  0  0  0  0  0  0  0
    0.8281   15.9250   -2.7655 H   0  0  0  0  0  0  0  0  0  0  0  0
   -0.7330   15.0364   -2.7655 H   0  0  0  0  0  0  0  0  0  0  0  0
    1.8510   14.2932   -4.2028 H   0  0  0  0  0  0  0  0  0  0  0  0
   -0.8810   14.5933   -5.4747 H   0  0  0  0  0  0  0  0  0  0  0  0
    0.2188   16.0207   -5.1653 H   0  0  0  0  0  0  0  0  0  0  0  0
    1.9897   14.5569   -6.4163 H   0  0  0  0  0  0  0  0  0  0  0  0
    0.5207   13.7328   -7.0868 H   0  0  0  0  0  0  0  0  0  0  0  0
    0.3626   16.4391   -6.8609 H   0  0  0  0  0  0  0  0  0  0  0  0
    3.2749   14.7814   -8.0978 H   0  0  0  0  0  0  0  0  0  0  0  0
    2.5336   14.2154   -9.6330 H   0  0  0  0  0  0  0  0  0  0  0  0
    3.6145   15.6501   -9.6330 H   0  0  0  0  0  0  0  0  0  0  0  0
    1.7470   18.1138   -8.6558 H   0  0  0  0  0  0  0  0  0  0  0  0
    2.6217   17.4328  -10.0693 H   0  0  0  0  0  0  0  0  0  0  0  0
    0.8265   17.4962  -10.0693 H   0  0  0  0  0  0  0  0  0  0  0  0
   -0.5621   12.8322   -4.7398 H   0  0  0  0  0  0  0  0  0  0  0  0
    1.3024   11.5772   -5.6262 H   0  0  0  0  0  0  0  0  0  0  0  0
    2.4272   12.2544   -4.4295 H   0  0  0  0  0  0  0  0  0  0  0  0
    1.3146    9.6230   -4.3599 H   0  0  0  0  0  0  0  0  0  0  0  0
    2.1089   10.3953   -2.9901 H   0  0  0  0  0  0  0  0  0  0  0  0
   -2.0292    9.8211   -3.6098 H   0  0  0  0  0  0  0  0  0  0  0  0
   -1.3897   11.0695   -4.7320 H   0  0  0  0  0  0  0  0  0  0  0  0
   -0.6862    9.4167   -4.7320 H   0  0  0  0  0  0  0  0  0  0  0  0
    0.6046   10.1662   -1.1044 H   0  0  0  0  0  0  0  0  0  0  0  0
    0.5280    8.1026   -2.6469 H   0  0  0  0  0  0  0  0  0  0  0  0
    0.1847    7.9584   -0.8439 H   0  0  0  0  0  0  0  0  0  0  0  0
   -1.3849    6.5732   -2.4431 H   0  0  0  0  0  0  0  0  0  0  0  0
   -3.1772   10.1843   -2.2128 H   0  0  0  0  0  0  0  0  0  0  0  0
   -3.6467    8.9181    0.5569 H   0  0  0  0  0  0  0  0  0  0  0  0
   -4.1939   10.5616   -0.0000 H   0  0  0  0  0  0  0  0  0  0  0  0
   -6.0344    8.9081   -0.0125 H   0  0  0  0  0  0  0  0  0  0  0  0
   -5.6496    9.5489   -1.6579 H   0  0  0  0  0  0  0  0  0  0  0  0
   -6.0080    7.1809   -1.8172 H   0  0  0  0  0  0  0  0  0  0  0  0
   -4.0950    7.1350    0.3200 H   0  0  0  0  0  0  0  0  0  0  0  0
   -5.0814    8.9334   -3.4875 H   0  0  0  0  0  0  0  0  0  0  0  0
   -3.5770    8.4020   -4.3129 H   0  0  0  0  0  0  0  0  0  0  0  0
   -5.0250    7.3390   -4.3129 H   0  0  0  0  0  0  0  0  0  0  0  0
   -3.6607    5.3327   -1.8040 H   0  0  0  0  0  0  0  0  0  0  0  0
   -4.5963    5.5276   -3.3250 H   0  0  0  0  0  0  0  0  0  0  0  0
   -2.8184    5.7842   -3.3250 H   0  0  0  0  0  0  0  0  0  0  0  0
   -1.7723   10.5821    1.2983 H   0  0  0  0  0  0  0  0  0  0  0  0
   -1.6453    8.8579    0.8106 H   0  0  0  0  0  0  0  0  0  0  0  0
   -0.1831    9.9013    0.8106 H   0  0  0  0  0  0  0  0  0  0  0  0
   -2.8428   12.0077   -0.6220 H   0  0  0  0  0  0  0  0  0  0  0  0
   -1.0710   12.2287   -0.1249 H   0  0  0  0  0  0  0  0  0  0  0  0
   -2.2312   12.3181   -2.9234 H   0  0  0  0  0  0  0  0  0  0  0  0
   -1.4773   13.6564   -1.9706 H   0  0  0  0  0  0  0  0  0  0  0  0
    0.5827   12.4717   -0.6368 H   0  0  0  0  0  0  0  0  0  0  0  0
    1.8990   12.0546   -1.7858 H   0  0  0  0  0  0  0  0  0  0  0  0
    1.1972   13.7081   -1.7858 H   0  0  0  0  0  0  0  0  0  0  0  0
  1  2  1  0
  2  3  1  0
  3  4  1  0
  4  5  1  0
  5  6  1  0
  6  7  1  0
  7  8  1  0
  7  9  1  0
  2 10  1  0
 10 11  1  0
 11 12  1  0
 12 13  1  0
 13 14  1  6
 13 15  1  0
 15 16  1  0
 16 17  1  0
 17 18  2  0
 18 19  1  0
 19 20  1  0
 20 21  1  0
 21 22  1  0
 22 23  1  0
 22 24  1  0
 24 25  1  0
 24 26  1  0
 19 27  1  0
 27 28  1  1
 27 29  1  0
 29 30  1  0
 30 31  1  0
 31 32  1  1
  7  5  1  0
 31 10  1  0
 31 13  1  0
 27 15  1  0
 24 18  1  0
  1 33  1  0
  1 34  1  0
  1 35  1  0
  2 36  1  6
  3 37  1  0
  3 38  1  0
  4 39  1  0
  4 40  1  0
  5 41  1  1
  8 42  1  0
  8 43  1  0
  8 44  1  0
  9 45  1  0
  9 46  1  0
  9 47  1  0
 10 48  1  6
 11 49  1  0
 11 50  1  0
 12 51  1  0
 12 52  1  0
 14 53  1  0
 14 54  1  0
 14 55  1  0
 15 56  1  1
 16 57  1  0
 16 58  1  0
 17 59  1  0
 19 60  1  6
 20 61  1  0
 20 62  1  0
 21 63  1  0
 21 64  1  0
 22 65  1  6
 23 66  1  0
 25 67  1  0
 25 68  1  0
 25 69  1  0
 26 70  1  0
 26 71  1  0
 26 72  1  0
 28 73  1  0
 28 74  1  0
 28 75  1  0
 29 76  1  0
 29 77  1  0
 30 78  1  0
 30 79  1  0
 32 80  1  0
 32 81  1  0
 32 82  1  0
M  END
>  <meeko>  (11) 
{"is_sidechain": [false], "intermolecular_energy": 2.731, "internal_energy": -0.839}

$$$$
EPH_relaxed_0001_pdb2pqr_Repair_178_r2_0001_out
     RDKit          3D

 82 86  0  0  0  0  0  0  0  0999 V2000
    2.2860   12.2020   -5.1850 C   0  0  0  0  0  0  0  0  0  0  0  0
    1.3860   13.1940   -5.9280 C   0  0  2  0  0  0  0  0  0  0  0  0
    2.0330   13.6980   -7.2340 C   0  0  0  0  0  0  0  0  0  0  0  0
    2.0840   15.2240   -7.3460 C   0  0  0  0  0  0  0  0  0  0  0  0
    2.4940   15.6650   -8.7190 C   0  0  2  0  0  0  0  0  0  0  0  0
    1.9070   16.9000   -9.1510 O   0  0  0  0  0  0  0  0  0  0  0  0
    1.5390   15.7290   -9.8970 C   0  0  0  0  0  0  0  0  0  0  0  0
    0.0990   15.3450   -9.7560 C   0  0  0  0  0  0  0  0  0  0  0  0
    2.1070   15.6930  -11.2810 C   0  0  0  0  0  0  0  0  0  0  0  0
    1.0550   14.3740   -5.0220 C   0  0  1  0  0  0  0  0  0  0  0  0
   -0.4390   14.7880   -5.1030 C   0  0  0  0  0  0  0  0  0  0  0  0
   -0.8500   15.2590   -3.6840 C   0  0  0  0  0  0  0  0  0  0  0  0
    0.4870   15.4170   -2.9230 C   0  0  1  0  0  0  0  0  0  0  0  0
    1.0380   16.8100   -3.3640 C   0  0  0  0  0  0  0  0  0  0  0  0
    0.4160   15.2910   -1.3660 C   0  0  2  0  0  0  0  0  0  0  0  0
   -0.4430   16.3580   -0.6640 C   0  0  0  0  0  0  0  0  0  0  0  0
    0.2870   17.5930   -0.2500 C   0  0  0  0  0  0  0  0  0  0  0  0
    1.6250   17.7220   -0.1750 C   0  0  0  0  0  0  0  0  0  0  0  0
    2.5480   16.5240   -0.4320 C   0  0  1  0  0  0  0  0  0  0  0  0
    3.6300   16.4570    0.6780 C   0  0  0  0  0  0  0  0  0  0  0  0
    4.4000   17.7660    0.8240 C   0  0  0  0  0  0  0  0  0  0  0  0
    3.4540   18.9230    1.1370 C   0  0  2  0  0  0  0  0  0  0  0  0
    2.8900   18.7190    2.4360 O   0  0  0  0  0  0  0  0  0  0  0  0
    2.3150   19.0830    0.0910 C   0  0  0  0  0  0  0  0  0  0  0  0
    2.9040   19.5990   -1.2450 C   0  0  0  0  0  0  0  0  0  0  0  0
    1.3530   20.1910    0.5980 C   0  0  0  0  0  0  0  0  0  0  0  0
    1.8240   15.1290   -0.6640 C   0  0  1  0  0  0  0  0  0  0  0  0
    1.5610   14.4320    0.7060 C   0  0  0  0  0  0  0  0  0  0  0  0
    2.7880   14.1770   -1.4670 C   0  0  0  0  0  0  0  0  0  0  0  0
    2.7260   14.2640   -3.0040 C   0  0  0  0  0  0  0  0  0  0  0  0
    1.2790   14.1880   -3.5000 C   0  0  2  0  0  0  0  0  0  0  0  0
    0.7060   12.7880   -3.0910 C   0  0  0  0  0  0  0  0  0  0  0  0
    2.1634   12.3371   -4.1002 H   0  0  0  0  0  0  0  0  0  0  0  0
    2.0053   11.1747   -5.4606 H   0  0  0  0  0  0  0  0  0  0  0  0
    3.3356   12.3817   -5.4606 H   0  0  0  0  0  0  0  0  0  0  0  0
    0.4617   12.6635   -6.2003 H   0  0  0  0  0  0  0  0  0  0  0  0
    3.0617   13.3115   -7.2837 H   0  0  0  0  0  0  0  0  0  0  0  0
    1.4081   13.3353   -8.0634 H   0  0  0  0  0  0  0  0  0  0  0  0
    1.0868   15.6315   -7.1235 H   0  0  0  0  0  0  0  0  0  0  0  0
    2.8304   15.5961   -6.6288 H   0  0  0  0  0  0  0  0  0  0  0  0
    3.4855   15.2046   -8.5969 H   0  0  0  0  0  0  0  0  0  0  0  0
   -0.1593   15.2761   -8.6890 H   0  0  0  0  0  0  0  0  0  0  0  0
   -0.5323   16.1062  -10.2377 H   0  0  0  0  0  0  0  0  0  0  0  0
   -0.0695   14.3705  -10.2377 H   0  0  0  0  0  0  0  0  0  0  0  0
    3.2034   15.6235  -11.2257 H   0  0  0  0  0  0  0  0  0  0  0  0
    1.7107   14.8182  -11.8173 H   0  0  0  0  0  0  0  0  0  0  0  0
    1.8244   16.6109  -11.8173 H   0  0  0  0  0  0  0  0  0  0  0  0
    1.7645   15.1153   -5.4184 H   0  0  0  0  0  0  0  0  0  0  0  0
   -0.5664   15.6073   -5.8258 H   0  0  0  0  0  0  0  0  0  0  0  0
   -1.0645   13.9469   -5.4367 H   0  0  0  0  0  0  0  0  0  0  0  0
   -1.3847   16.2191   -3.7332 H   0  0  0  0  0  0  0  0  0  0  0  0
   -1.5301   14.5497   -3.1897 H   0  0  0  0  0  0  0  0  0  0  0  0
    1.2751   17.4094   -2.4727 H   0  0  0  0  0  0  0  0  0  0  0  0
    1.9487   16.6706   -3.9650 H   0  0  0  0  0  0  0  0  0  0  0  0
    0.2783   17.3313   -3.9650 H   0  0  0  0  0  0  0  0  0  0  0  0
   -0.1191   14.3395   -1.2303 H   0  0  0  0  0  0  0  0  0  0  0  0
   -1.2479   16.6537   -1.3530 H   0  0  0  0  0  0  0  0  0  0  0  0
   -0.8066   15.8936    0.2645 H   0  0  0  0  0  0  0  0  0  0  0  0
   -0.3195   18.4713    0.0161 H   0  0  0  0  0  0  0  0  0  0  0  0
    3.0240   16.7095   -1.4062 H   0  0  0  0  0  0  0  0  0  0  0  0
    3.1393   16.2279    1.6354 H   0  0  0  0  0  0  0  0  0  0  0  0
    4.3506   15.6754    0.3952 H   0  0  0  0  0  0  0  0  0  0  0  0
    5.1290   17.6657    1.6416 H   0  0  0  0  0  0  0  0  0  0  0  0
    4.9137   17.9791   -0.1250 H   0  0  0  0  0  0  0  0  0  0  0  0
    4.0441   19.8506    1.1020 H   0  0  0  0  0  0  0  0  0  0  0  0
    2.7110   17.7690    2.5330 H   0  0  0  0  0  0  0  0  0  0  0  0
    3.7165   20.3108   -1.0369 H   0  0  0  0  0  0  0  0  0  0  0  0
    3.2988   18.7508   -1.8235 H   0  0  0  0  0  0  0  0  0  0  0  0
    2.1151   20.1020   -1.8235 H   0  0  0  0  0  0  0  0  0  0  0  0
    1.3478   20.1969    1.6980 H   0  0  0  0  0  0  0  0  0  0  0  0
    1.6930   21.1694    0.2276 H   0  0  0  0  0  0  0  0  0  0  0  0
    0.3366   19.9917    0.2276 H   0  0  0  0  0  0  0  0  0  0  0  0
    1.8208   15.1206    1.5236 H   0  0  0  0  0  0  0  0  0  0  0  0
    0.4980   14.1590    0.7804 H   0  0  0  0  0  0  0  0  0  0  0  0
    2.1786   13.5248    0.7804 H   0  0  0  0  0  0  0  0  0  0  0  0
    3.8183   14.4115   -1.1614 H   0  0  0  0  0  0  0  0  0  0  0  0
    2.4563   13.1572   -1.2221 H   0  0  0  0  0  0  0  0  0  0  0  0
    3.1679   15.2177   -3.3284 H   0  0  0  0  0  0  0  0  0  0  0  0
    3.2861   13.4165   -3.4259 H   0  0  0  0  0  0  0  0  0  0  0  0
    0.6745   12.7109   -1.9942 H   0  0  0  0  0  0  0  0  0  0  0  0
   -0.3106   12.6754   -3.4959 H   0  0  0  0  0  0  0  0  0  0  0  0
    1.3519   11.9950   -3.4959 H   0  0  0  0  0  0  0  0  0  0  0  0
  1  2  1  0
  2  3  1  0
  3  4  1  0
  4  5  1  0
  5  6  1  0
  6  7  1  0
  7  8  1  0
  7  9  1  0
  2 10  1  0
 10 11  1  0
 11 12  1  0
 12 13  1  0
 13 14  1  1
 13 15  1  0
 15 16  1  0
 16 17  1  0
 17 18  2  0
 18 19  1  0
 19 20  1  0
 20 21  1  0
 21 22  1  0
 22 23  1  0
 22 24  1  0
 24 25  1  0
 24 26  1  0
 19 27  1  0
 27 28  1  1
 27 29  1  0
 29 30  1  0
 30 31  1  0
 31 32  1  1
  7  5  1  0
 31 10  1  0
 31 13  1  0
 27 15  1  0
 24 18  1  0
  1 33  1  0
  1 34  1  0
  1 35  1  0
  2 36  1  6
  3 37  1  0
  3 38  1  0
  4 39  1  0
  4 40  1  0
  5 41  1  6
  8 42  1  0
  8 43  1  0
  8 44  1  0
  9 45  1  0
  9 46  1  0
  9 47  1  0
 10 48  1  6
 11 49  1  0
 11 50  1  0
 12 51  1  0
 12 52  1  0
 14 53  1  0
 14 54  1  0
 14 55  1  0
 15 56  1  6
 16 57  1  0
 16 58  1  0
 17 59  1  0
 19 60  1  6
 20 61  1  0
 20 62  1  0
 21 63  1  0
 21 64  1  0
 22 65  1  1
 23 66  1  0
 25 67  1  0
 25 68  1  0
 25 69  1  0
 26 70  1  0
 26 71  1  0
 26 72  1  0
 28 73  1  0
 28 74  1  0
 28 75  1  0
 29 76  1  0
 29 77  1  0
 30 78  1  0
 30 79  1  0
 32 80  1  0
 32 81  1  0
 32 82  1  0
M  END
>  <meeko>  (12) 
{"is_sidechain": [false], "intermolecular_energy": 2.731, "internal_energy": -0.839}

$$$$
EPH_relaxed_0001_pdb2pqr_Repair_178_r2_0001_out
     RDKit          3D

 82 86  0  0  0  0  0  0  0  0999 V2000
   -0.2670    7.7970   -2.0740 C   0  0  0  0  0  0  0  0  0  0  0  0
   -1.6180    8.3350   -1.5950 C   0  0  2  0  0  0  0  0  0  0  0  0
   -2.7910    7.7810   -2.4280 C   0  0  0  0  0  0  0  0  0  0  0  0
   -4.0210    7.4150   -1.5920 C   0  0  0  0  0  0  0  0  0  0  0  0
   -5.0360    6.6640   -2.3990 C   0  0  2  0  0  0  0  0  0  0  0  0
   -5.5050    7.3550   -3.5640 O   0  0  0  0  0  0  0  0  0  0  0  0
   -6.4820    7.1020   -2.5410 C   0  0  0  0  0  0  0  0  0  0  0  0
   -6.9920    8.3380   -1.8690 C   0  0  0  0  0  0  0  0  0  0  0  0
   -7.5050    6.0790   -2.9250 C   0  0  0  0  0  0  0  0  0  0  0  0
   -1.6180    9.8580   -1.6440 C   0  0  1  0  0  0  0  0  0  0  0  0
   -3.0440   10.4600   -1.5300 C   0  0  0  0  0  0  0  0  0  0  0  0
   -2.9090   11.7840   -0.7350 C   0  0  0  0  0  0  0  0  0  0  0  0
   -1.3890   12.0680   -0.7060 C   0  0  1  0  0  0  0  0  0  0  0  0
   -1.0770   12.7210   -2.0890 C   0  0  0  0  0  0  0  0  0  0  0  0
   -0.8730   12.9500    0.4770 C   0  0  2  0  0  0  0  0  0  0  0  0
   -1.4350   14.3820    0.5170 C   0  0  0  0  0  0  0  0  0  0  0  0
   -0.6340   15.4020   -0.2220 C   0  0  0  0  0  0  0  0  0  0  0  0
    0.6320   15.2420   -0.6510 C   0  0  0  0  0  0  0  0  0  0  0  0
    1.4230   13.9710   -0.3150 C   0  0  1  0  0  0  0  0  0  0  0  0
    2.8410   14.3590    0.1790 C   0  0  0  0  0  0  0  0  0  0  0  0
    3.5780   15.2610   -0.8070 C   0  0  0  0  0  0  0  0  0  0  0  0
    2.7880   16.5400   -1.0700 C   0  0  2  0  0  0  0  0  0  0  0  0
    2.7520   17.3160    0.1310 O   0  0  0  0  0  0  0  0  0  0  0  0
    1.3380   16.2740   -1.5640 C   0  0  0  0  0  0  0  0  0  0  0  0
    1.3740   15.7050   -3.0040 C   0  0  0  0  0  0  0  0  0  0  0  0
    0.6070   17.6410   -1.6560 C   0  0  0  0  0  0  0  0  0  0  0  0
    0.6990   12.9410    0.6560 C   0  0  1  0  0  0  0  0  0  0  0  0
    0.9810   13.3210    2.1410 C   0  0  0  0  0  0  0  0  0  0  0  0
    1.3170   11.5090    0.4380 C   0  0  0  0  0  0  0  0  0  0  0  0
    0.6860   10.6400   -0.6660 C   0  0  0  0  0  0  0  0  0  0  0  0
   -0.8390   10.6060   -0.5330 C   0  0  2  0  0  0  0  0  0  0  0  0
   -1.1840    9.9340    0.8400 C   0  0  0  0  0  0  0  0  0  0  0  0
    0.3580    7.5481   -1.2037 H   0  0  0  0  0  0  0  0  0  0  0  0
   -0.4265    6.8938   -2.6812 H   0  0  0  0  0  0  0  0  0  0  0  0
    0.2381    8.5626   -2.6812 H   0  0  0  0  0  0  0  0  0  0  0  0
   -1.7604    7.9968   -0.5580 H   0  0  0  0  0  0  0  0  0  0  0  0
   -3.0855    8.5441   -3.1635 H   0  0  0  0  0  0  0  0  0  0  0  0
   -2.4380    6.8540   -2.9035 H   0  0  0  0  0  0  0  0  0  0  0  0
   -3.7033    6.7878   -0.7460 H   0  0  0  0  0  0  0  0  0  0  0  0
   -4.4855    8.3475   -1.2388 H   0  0  0  0  0  0  0  0  0  0  0  0
   -4.5803    5.7023   -2.1209 H   0  0  0  0  0  0  0  0  0  0  0  0
   -6.9393    8.2103   -0.7777 H   0  0  0  0  0  0  0  0  0  0  0  0
   -6.3755    9.1987   -2.1677 H   0  0  0  0  0  0  0  0  0  0  0  0
   -8.0360    8.5135   -2.1677 H   0  0  0  0  0  0  0  0  0  0  0  0
   -7.9437    5.6403   -2.0167 H   0  0  0  0  0  0  0  0  0  0  0  0
   -8.2966    6.5576   -3.5203 H   0  0  0  0  0  0  0  0  0  0  0  0
   -7.0264    5.2874   -3.5203 H   0  0  0  0  0  0  0  0  0  0  0  0
   -1.1264   10.0103   -2.6162 H   0  0  0  0  0  0  0  0  0  0  0  0
   -3.4519   10.6598   -2.5318 H   0  0  0  0  0  0  0  0  0  0  0  0
   -3.7273    9.7630   -1.0228 H   0  0  0  0  0  0  0  0  0  0  0  0
   -3.4466   12.5984   -1.2427 H   0  0  0  0  0  0  0  0  0  0  0  0
   -3.3390   11.7101    0.2748 H   0  0  0  0  0  0  0  0  0  0  0  0
   -0.6076   13.7035   -1.9330 H   0  0  0  0  0  0  0  0  0  0  0  0
   -0.3914   12.0726   -2.6543 H   0  0  0  0  0  0  0  0  0  0  0  0
   -2.0122   12.8470   -2.6543 H   0  0  0  0  0  0  0  0  0  0  0  0
   -1.2964   12.4381    1.3537 H   0  0  0  0  0  0  0  0  0  0  0  0
   -2.4453   14.3629    0.0823 H   0  0  0  0  0  0  0  0  0  0  0  0
   -1.4158   14.6871    1.5737 H   0  0  0  0  0  0  0  0  0  0  0  0
   -1.1193   16.3661   -0.4340 H   0  0  0  0  0  0  0  0  0  0  0  0
    1.4978   13.4019   -1.2534 H   0  0  0  0  0  0  0  0  0  0  0  0
    2.7474   14.8881    1.1388 H   0  0  0  0  0  0  0  0  0  0  0  0
    3.4236   13.4318    0.2828 H   0  0  0  0  0  0  0  0  0  0  0  0
    4.5609   15.5242   -0.3890 H   0  0  0  0  0  0  0  0  0  0  0  0
    3.6972   14.7197   -1.7572 H   0  0  0  0  0  0  0  0  0  0  0  0
    3.3002   17.0830   -1.8779 H   0  0  0  0  0  0  0  0  0  0  0  0
    3.2510   16.8300    0.8100 H   0  0  0  0  0  0  0  0  0  0  0  0
    1.4434   14.6080   -2.9631 H   0  0  0  0  0  0  0  0  0  0  0  0
    0.4557   15.9947   -3.5358 H   0  0  0  0  0  0  0  0  0  0  0  0
    2.2484   16.1082   -3.5358 H   0  0  0  0  0  0  0  0  0  0  0  0
    0.4054   18.0179   -0.6425 H   0  0  0  0  0  0  0  0  0  0  0  0
    1.2409   18.3602   -2.1954 H   0  0  0  0  0  0  0  0  0  0  0  0
   -0.3431   17.5132   -2.1954 H   0  0  0  0  0  0  0  0  0  0  0  0
    0.4585   12.6169    2.8052 H   0  0  0  0  0  0  0  0  0  0  0  0
    2.0630   13.2719    2.3329 H   0  0  0  0  0  0  0  0  0  0  0  0
    0.6205   14.3424    2.3329 H   0  0  0  0  0  0  0  0  0  0  0  0
    2.3808   11.6400    0.1908 H   0  0  0  0  0  0  0  0  0  0  0  0
    1.1243   10.9671    1.3756 H   0  0  0  0  0  0  0  0  0  0  0  0
    0.9522   11.0572   -1.6484 H   0  0  0  0  0  0  0  0  0  0  0  0
    1.0695    9.6138   -0.5664 H   0  0  0  0  0  0  0  0  0  0  0  0
   -0.8497   10.5851    1.6612 H   0  0  0  0  0  0  0  0  0  0  0  0
   -2.2712    9.7828    0.9113 H   0  0  0  0  0  0  0  0  0  0  0  0
   -0.6732    8.9624    0.9113 H   0  0  0  0  0  0  0  0  0  0  0  0
  1  2  1  0
  2  3  1  0
  3  4  1  0
  4  5  1  0
  5  6  1  0
  6  7  1  0
  7  8  1  0
  7  9  1  0
  2 10  1  0
 10 11  1  0
 11 12  1  0
 12 13  1  0
 13 14  1  6
 13 15  1  0
 15 16  1  0
 16 17  1  0
 17 18  2  0
 18 19  1  0
 19 20  1  0
 20 21  1  0
 21 22  1  0
 22 23  1  0
 22 24  1  0
 24 25  1  0
 24 26  1  0
 19 27  1  0
 27 28  1  1
 27 29  1  0
 29 30  1  0
 30 31  1  0
 31 32  1  1
  7  5  1  0
 31 10  1  0
 31 13  1  0
 27 15  1  0
 24 18  1  0
  1 33  1  0
  1 34  1  0
  1 35  1  0
  2 36  1  1
  3 37  1  0
  3 38  1  0
  4 39  1  0
  4 40  1  0
  5 41  1  6
  8 42  1  0
  8 43  1  0
  8 44  1  0
  9 45  1  0
  9 46  1  0
  9 47  1  0
 10 48  1  6
 11 49  1  0
 11 50  1  0
 12 51  1  0
 12 52  1  0
 14 53  1  0
 14 54  1  0
 14 55  1  0
 15 56  1  1
 16 57  1  0
 16 58  1  0
 17 59  1  0
 19 60  1  6
 20 61  1  0
 20 62  1  0
 21 63  1  0
 21 64  1  0
 22 65  1  6
 23 66  1  0
 25 67  1  0
 25 68  1  0
 25 69  1  0
 26 70  1  0
 26 71  1  0
 26 72  1  0
 28 73  1  0
 28 74  1  0
 28 75  1  0
 29 76  1  0
 29 77  1  0
 30 78  1  0
 30 79  1  0
 32 80  1  0
 32 81  1  0
 32 82  1  0
M  END
>  <meeko>  (13) 
{"is_sidechain": [false], "intermolecular_energy": 2.731, "internal_energy": -0.839}

$$$$
EPH_relaxed_0001_pdb2pqr_Repair_178_r2_0001_out
     RDKit          3D

 82 86  0  0  0  0  0  0  0  0999 V2000
    2.0460   12.1790   -5.3730 C   0  0  0  0  0  0  0  0  0  0  0  0
    1.1380   13.3390   -5.7880 C   0  0  2  0  0  0  0  0  0  0  0  0
    1.9210   14.4670   -6.4910 C   0  0  0  0  0  0  0  0  0  0  0  0
    1.1250   15.1760   -7.5900 C   0  0  0  0  0  0  0  0  0  0  0  0
    2.0030   15.5870   -8.7330 C   0  0  2  0  0  0  0  0  0  0  0  0
    1.5180   16.7040   -9.4890 O   0  0  0  0  0  0  0  0  0  0  0  0
    1.5990   15.4520  -10.1890 C   0  0  0  0  0  0  0  0  0  0  0  0
    0.2690   14.8870  -10.5810 C   0  0  0  0  0  0  0  0  0  0  0  0
    2.6740   15.4110  -11.2300 C   0  0  0  0  0  0  0  0  0  0  0  0
    0.4110   13.8920   -4.5680 C   0  0  1  0  0  0  0  0  0  0  0  0
   -0.3850   12.8020   -3.8020 C   0  0  0  0  0  0  0  0  0  0  0  0
   -0.3050   13.1650   -2.2970 C   0  0  0  0  0  0  0  0  0  0  0  0
    0.2420   14.6110   -2.2720 C   0  0  1  0  0  0  0  0  0  0  0  0
   -0.9990   15.5140   -2.5520 C   0  0  0  0  0  0  0  0  0  0  0  0
    0.9900   15.0450   -0.9700 C   0  0  2  0  0  0  0  0  0  0  0  0
    0.1320   15.0400    0.3080 C   0  0  0  0  0  0  0  0  0  0  0  0
   -0.5630   16.3250    0.6140 C   0  0  0  0  0  0  0  0  0  0  0  0
   -0.2810   17.5190    0.0580 C   0  0  0  0  0  0  0  0  0  0  0  0
    0.8960   17.6770   -0.9120 C   0  0  1  0  0  0  0  0  0  0  0  0
    1.7160   18.9370   -0.5300 C   0  0  0  0  0  0  0  0  0  0  0  0
    0.8540   20.1930   -0.4470 C   0  0  0  0  0  0  0  0  0  0  0  0
   -0.2700   20.0180    0.5700 C   0  0  2  0  0  0  0  0  0  0  0  0
    0.3030   19.9180    1.8770 O   0  0  0  0  0  0  0  0  0  0  0  0
   -1.1590   18.7730    0.2920 C   0  0  0  0  0  0  0  0  0  0  0  0
   -2.0100   19.0150   -0.9780 C   0  0  0  0  0  0  0  0  0  0  0  0
   -2.1630   18.6320    1.4680 C   0  0  0  0  0  0  0  0  0  0  0  0
    1.8090   16.3920   -1.1100 C   0  0  1  0  0  0  0  0  0  0  0  0
    2.9190   16.3540   -0.0160 C   0  0  0  0  0  0  0  0  0  0  0  0
    2.5530   16.4980   -2.4940 C   0  0  0  0  0  0  0  0  0  0  0  0
    1.8120   15.9430   -3.7260 C   0  0  0  0  0  0  0  0  0  0  0  0
    1.2760   14.5340   -3.4540 C   0  0  2  0  0  0  0  0  0  0  0  0
    2.5040   13.5980   -3.1910 C   0  0  0  0  0  0  0  0  0  0  0  0
    2.0902   12.1225   -4.2753 H   0  0  0  0  0  0  0  0  0  0  0  0
    1.6430   11.2368   -5.7727 H   0  0  0  0  0  0  0  0  0  0  0  0
    3.0575   12.3440   -5.7727 H   0  0  0  0  0  0  0  0  0  0  0  0
    0.4071   12.9452   -6.5096 H   0  0  0  0  0  0  0  0  0  0  0  0
    2.2098   15.2124   -5.7354 H   0  0  0  0  0  0  0  0  0  0  0  0
    2.7920   14.0007   -6.9747 H   0  0  0  0  0  0  0  0  0  0  0  0
    0.3484   14.4930   -7.9647 H   0  0  0  0  0  0  0  0  0  0  0  0
    0.6772   16.0832   -7.1581 H   0  0  0  0  0  0  0  0  0  0  0  0
    2.9034   15.2723   -8.1850 H   0  0  0  0  0  0  0  0  0  0  0  0
   -0.3066   14.6425   -9.6761 H   0  0  0  0  0  0  0  0  0  0  0  0
   -0.2829   15.6284  -11.1775 H   0  0  0  0  0  0  0  0  0  0  0  0
    0.4194   13.9751  -11.1775 H   0  0  0  0  0  0  0  0  0  0  0  0
    3.6580   15.3735  -10.7397 H   0  0  0  0  0  0  0  0  0  0  0  0
    2.5427   14.5172  -11.8576 H   0  0  0  0  0  0  0  0  0  0  0  0
    2.6112   16.3122  -11.8576 H   0  0  0  0  0  0  0  0  0  0  0  0
   -0.2063   14.6613   -5.0549 H   0  0  0  0  0  0  0  0  0  0  0  0
   -1.4335   12.7944   -4.1347 H   0  0  0  0  0  0  0  0  0  0  0  0
    0.0330   11.8020   -3.9900 H   0  0  0  0  0  0  0  0  0  0  0  0
   -1.3013   13.1188   -1.8331 H   0  0  0  0  0  0  0  0  0  0  0  0
    0.3331   12.4683   -1.7336 H   0  0  0  0  0  0  0  0  0  0  0  0
   -1.4412   15.8357   -1.5976 H   0  0  0  0  0  0  0  0  0  0  0  0
   -0.6870   16.3977   -3.1279 H   0  0  0  0  0  0  0  0  0  0  0  0
   -1.7439   14.9452   -3.1279 H   0  0  0  0  0  0  0  0  0  0  0  0
    1.7249   14.2368   -0.8407 H   0  0  0  0  0  0  0  0  0  0  0  0
   -0.6330   14.2569    0.2008 H   0  0  0  0  0  0  0  0  0  0  0  0
    0.8282   14.8644    1.1414 H   0  0  0  0  0  0  0  0  0  0  0  0
   -1.3741   16.2943    1.3564 H   0  0  0  0  0  0  0  0  0  0  0  0
    0.4519   17.8087   -1.9097 H   0  0  0  0  0  0  0  0  0  0  0  0
    2.1873   18.7674    0.4493 H   0  0  0  0  0  0  0  0  0  0  0  0
    2.4664   19.0985   -1.3179 H   0  0  0  0  0  0  0  0  0  0  0  0
    1.4840   21.0424   -0.1444 H   0  0  0  0  0  0  0  0  0  0  0  0
    0.4073   20.3776   -1.4351 H   0  0  0  0  0  0  0  0  0  0  0  0
   -0.9271   20.8966    0.4906 H   0  0  0  0  0  0  0  0  0  0  0  0
    1.0520   19.3010    1.8240 H   0  0  0  0  0  0  0  0  0  0  0  0
   -3.0301   19.3051   -0.6860 H   0  0  0  0  0  0  0  0  0  0  0  0
   -1.5567   19.8198   -1.5753 H   0  0  0  0  0  0  0  0  0  0  0  0
   -2.0480   18.0921   -1.5753 H   0  0  0  0  0  0  0  0  0  0  0  0
   -1.6222   18.7079    2.4229 H   0  0  0  0  0  0  0  0  0  0  0  0
   -2.9139   19.4335    1.4071 H   0  0  0  0  0  0  0  0  0  0  0  0
   -2.6641   17.6547    1.4071 H   0  0  0  0  0  0  0  0  0  0  0  0
    2.4527   16.3700    0.9802 H   0  0  0  0  0  0  0  0  0  0  0  0
    3.5130   15.4350   -0.1281 H   0  0  0  0  0  0  0  0  0  0  0  0
    3.5745   17.2302   -0.1281 H   0  0  0  0  0  0  0  0  0  0  0  0
    2.7582   17.5624   -2.6808 H   0  0  0  0  0  0  0  0  0  0  0  0
    3.4481   15.8674   -2.3884 H   0  0  0  0  0  0  0  0  0  0  0  0
    0.9700   16.6077   -3.9692 H   0  0  0  0  0  0  0  0  0  0  0  0
    2.5185   15.8933   -4.5676 H   0  0  0  0  0  0  0  0  0  0  0  0
    2.6530   13.4844   -2.1071 H   0  0  0  0  0  0  0  0  0  0  0  0
    2.3163   12.6118   -3.6406 H   0  0  0  0  0  0  0  0  0  0  0  0
    3.4052   14.0404   -3.6406 H   0  0  0  0  0  0  0  0  0  0  0  0
  1  2  1  0
  2  3  1  0
  3  4  1  0
  4  5  1  0
  5  6  1  0
  6  7  1  0
  7  8  1  0
  7  9  1  0
  2 10  1  0
 10 11  1  0
 11 12  1  0
 12 13  1  0
 13 14  1  6
 13 15  1  0
 15 16  1  0
 16 17  1  0
 17 18  2  0
 18 19  1  0
 19 20  1  0
 20 21  1  0
 21 22  1  0
 22 23  1  0
 22 24  1  0
 24 25  1  0
 24 26  1  0
 19 27  1  0
 27 28  1  1
 27 29  1  0
 29 30  1  0
 30 31  1  0
 31 32  1  1
  7  5  1  0
 31 10  1  0
 31 13  1  0
 27 15  1  0
 24 18  1  0
  1 33  1  0
  1 34  1  0
  1 35  1  0
  2 36  1  6
  3 37  1  0
  3 38  1  0
  4 39  1  0
  4 40  1  0
  5 41  1  6
  8 42  1  0
  8 43  1  0
  8 44  1  0
  9 45  1  0
  9 46  1  0
  9 47  1  0
 10 48  1  6
 11 49  1  0
 11 50  1  0
 12 51  1  0
 12 52  1  0
 14 53  1  0
 14 54  1  0
 14 55  1  0
 15 56  1  1
 16 57  1  0
 16 58  1  0
 17 59  1  0
 19 60  1  6
 20 61  1  0
 20 62  1  0
 21 63  1  0
 21 64  1  0
 22 65  1  1
 23 66  1  0
 25 67  1  0
 25 68  1  0
 25 69  1  0
 26 70  1  0
 26 71  1  0
 26 72  1  0
 28 73  1  0
 28 74  1  0
 28 75  1  0
 29 76  1  0
 29 77  1  0
 30 78  1  0
 30 79  1  0
 32 80  1  0
 32 81  1  0
 32 82  1  0
M  END
>  <meeko>  (14) 
{"is_sidechain": [false], "intermolecular_energy": 2.731, "internal_energy": -0.839}

$$$$
EPH_relaxed_0001_pdb2pqr_Repair_178_r2_0001_out
     RDKit          3D

 82 86  0  0  0  0  0  0  0  0999 V2000
   -5.5700    6.9580   -3.0490 C   0  0  0  0  0  0  0  0  0  0  0  0
   -5.5520    7.1460   -1.5290 C   0  0  2  0  0  0  0  0  0  0  0  0
   -6.9720    7.2710   -0.9420 C   0  0  0  0  0  0  0  0  0  0  0  0
   -7.9290    6.1710   -1.4090 C   0  0  0  0  0  0  0  0  0  0  0  0
   -9.1890    6.7410   -1.9880 C   0  0  2  0  0  0  0  0  0  0  0  0
   -9.3210    8.1620   -1.8500 O   0  0  0  0  0  0  0  0  0  0  0  0
  -10.2880    7.3640   -1.1480 C   0  0  0  0  0  0  0  0  0  0  0  0
  -10.1790    7.4480    0.3420 C   0  0  0  0  0  0  0  0  0  0  0  0
  -11.6680    7.4460   -1.7220 C   0  0  0  0  0  0  0  0  0  0  0  0
   -4.7290    8.3770   -1.1680 C   0  0  1  0  0  0  0  0  0  0  0  0
   -4.8400    8.7500    0.3350 C   0  0  0  0  0  0  0  0  0  0  0  0
   -3.4570    9.3080    0.7600 C   0  0  0  0  0  0  0  0  0  0  0  0
   -2.7070    9.5480   -0.5710 C   0  0  1  0  0  0  0  0  0  0  0  0
   -3.2410   10.9190   -1.0900 C   0  0  0  0  0  0  0  0  0  0  0  0
   -1.1450    9.5270   -0.4970 C   0  0  2  0  0  0  0  0  0  0  0  0
   -0.5190   10.6190    0.3870 C   0  0  0  0  0  0  0  0  0  0  0  0
   -0.1890   11.8950   -0.3130 C   0  0  0  0  0  0  0  0  0  0  0  0
   -0.1210   12.0610   -1.6470 C   0  0  0  0  0  0  0  0  0  0  0  0
   -0.2940   10.8700   -2.5980 C   0  0  1  0  0  0  0  0  0  0  0  0
    0.8190   10.9030   -3.6780 C   0  0  0  0  0  0  0  0  0  0  0  0
    0.8770   12.2370   -4.4170 C   0  0  0  0  0  0  0  0  0  0  0  0
    1.1080   13.3900   -3.4440 C   0  0  2  0  0  0  0  0  0  0  0  0
    2.4170   13.2620   -2.8810 O   0  0  0  0  0  0  0  0  0  0  0  0
    0.0530   13.4520   -2.3050 C   0  0  0  0  0  0  0  0  0  0  0  0
   -1.3150   13.8890   -2.8860 C   0  0  0  0  0  0  0  0  0  0  0  0
    0.4820   14.5700   -1.3170 C   0  0  0  0  0  0  0  0  0  0  0  0
   -0.4310    9.4450   -1.9070 C   0  0  1  0  0  0  0  0  0  0  0  0
    0.9830    8.8370   -1.6550 C   0  0  0  0  0  0  0  0  0  0  0  0
   -1.1670    8.4630   -2.8940 C   0  0  0  0  0  0  0  0  0  0  0  0
   -2.7060    8.4430   -2.8350 C   0  0  0  0  0  0  0  0  0  0  0  0
   -3.1980    8.3000   -1.3920 C   0  0  2  0  0  0  0  0  0  0  0  0
   -2.6950    6.9190   -0.8500 C   0  0  0  0  0  0  0  0  0  0  0  0
   -5.6724    5.8885   -3.2850 H   0  0  0  0  0  0  0  0  0  0  0  0
   -6.4193    7.5108   -3.4768 H   0  0  0  0  0  0  0  0  0  0  0  0
   -4.6312    7.3396   -3.4768 H   0  0  0  0  0  0  0  0  0  0  0  0
   -5.0917    6.2486   -1.0900 H   0  0  0  0  0  0  0  0  0  0  0  0
   -6.8998    7.2262    0.1547 H   0  0  0  0  0  0  0  0  0  0  0  0
   -7.3837    8.2276   -1.2963 H   0  0  0  0  0  0  0  0  0  0  0  0
   -7.4268    5.5639   -2.1766 H   0  0  0  0  0  0  0  0  0  0  0  0
   -8.1992    5.5584   -0.5362 H   0  0  0  0  0  0  0  0  0  0  0  0
   -9.2071    5.9688   -2.7712 H   0  0  0  0  0  0  0  0  0  0  0  0
  -10.9703    6.8382    0.8025 H   0  0  0  0  0  0  0  0  0  0  0  0
   -9.1951    7.0724    0.6594 H   0  0  0  0  0  0  0  0  0  0  0  0
  -10.2915    8.4952    0.6594 H   0  0  0  0  0  0  0  0  0  0  0  0
  -12.4030    7.4897   -0.9048 H   0  0  0  0  0  0  0  0  0  0  0  0
  -11.7543    8.3509   -2.3415 H   0  0  0  0  0  0  0  0  0  0  0  0
  -11.8608    6.5577   -2.3415 H   0  0  0  0  0  0  0  0  0  0  0  0
   -5.1741    9.1061   -1.8611 H   0  0  0  0  0  0  0  0  0  0  0  0
   -5.6177    9.5145    0.4793 H   0  0  0  0  0  0  0  0  0  0  0  0
   -5.1157    7.8739    0.9404 H   0  0  0  0  0  0  0  0  0  0  0  0
   -3.5726   10.2501    1.3159 H   0  0  0  0  0  0  0  0  0  0  0  0
   -2.9159    8.6190    1.4252 H   0  0  0  0  0  0  0  0  0  0  0  0
   -3.4917   11.5627   -0.2339 H   0  0  0  0  0  0  0  0  0  0  0  0
   -2.4670   11.4064   -1.7010 H   0  0  0  0  0  0  0  0  0  0  0  0
   -4.1408   10.7545   -1.7010 H   0  0  0  0  0  0  0  0  0  0  0  0
   -0.9458    8.5756    0.0180 H   0  0  0  0  0  0  0  0  0  0  0  0
   -1.2277   10.8488    1.1962 H   0  0  0  0  0  0  0  0  0  0  0  0
    0.4386   10.2107    0.7424 H   0  0  0  0  0  0  0  0  0  0  0  0
    0.0161   12.7748    0.3146 H   0  0  0  0  0  0  0  0  0  0  0  0
   -1.2780   11.0005   -3.0720 H   0  0  0  0  0  0  0  0  0  0  0  0
    1.7892   10.7275   -3.1902 H   0  0  0  0  0  0  0  0  0  0  0  0
    0.5906   10.1211   -4.4172 H   0  0  0  0  0  0  0  0  0  0  0  0
    1.7012   12.2097   -5.1450 H   0  0  0  0  0  0  0  0  0  0  0  0
   -0.0834   12.3968   -4.9290 H   0  0  0  0  0  0  0  0  0  0  0  0
    1.0096   14.3263   -4.0129 H   0  0  0  0  0  0  0  0  0  0  0  0
    3.0050   13.8710   -3.3600 H   0  0  0  0  0  0  0  0  0  0  0  0
   -2.0093   14.1108   -2.0621 H   0  0  0  0  0  0  0  0  0  0  0  0
   -1.1802   14.7888   -3.5042 H   0  0  0  0  0  0  0  0  0  0  0  0
   -1.7268   13.0777   -3.5042 H   0  0  0  0  0  0  0  0  0  0  0  0
    0.3469   14.2178   -0.2837 H   0  0  0  0  0  0  0  0  0  0  0  0
    1.5401   14.8204   -1.4836 H   0  0  0  0  0  0  0  0  0  0  0  0
   -0.1370   15.4639   -1.4836 H   0  0  0  0  0  0  0  0  0  0  0  0
    1.1615    8.7603   -0.5723 H   0  0  0  0  0  0  0  0  0  0  0  0
    1.0376    7.8359   -2.1075 H   0  0  0  0  0  0  0  0  0  0  0  0
    1.7472    9.4861   -2.1075 H   0  0  0  0  0  0  0  0  0  0  0  0
   -0.8769    8.7411   -3.9180 H   0  0  0  0  0  0  0  0  0  0  0  0
   -0.8541    7.4551   -2.5837 H   0  0  0  0  0  0  0  0  0  0  0  0
   -3.0944    9.3821   -3.2561 H   0  0  0  0  0  0  0  0  0  0  0  0
   -3.0678    7.5816   -3.4156 H   0  0  0  0  0  0  0  0  0  0  0  0
   -2.7001    6.9329    0.2499 H   0  0  0  0  0  0  0  0  0  0  0  0
   -3.3598    6.1198   -1.2097 H   0  0  0  0  0  0  0  0  0  0  0  0
   -1.6720    6.7345   -1.2097 H   0  0  0  0  0  0  0  0  0  0  0  0
  1  2  1  0
  2  3  1  0
  3  4  1  0
  4  5  1  0
  5  6  1  0
  6  7  1  0
  7  8  1  0
  7  9  1  0
  2 10  1  0
 10 11  1  0
 11 12  1  0
 12 13  1  0
 13 14  1  6
 13 15  1  0
 15 16  1  0
 16 17  1  0
 17 18  2  0
 18 19  1  0
 19 20  1  0
 20 21  1  0
 21 22  1  0
 22 23  1  0
 22 24  1  0
 24 25  1  0
 24 26  1  0
 19 27  1  0
 27 28  1  1
 27 29  1  0
 29 30  1  0
 30 31  1  0
 31 32  1  1
  7  5  1  0
 31 10  1  0
 31 13  1  0
 27 15  1  0
 24 18  1  0
  1 33  1  0
  1 34  1  0
  1 35  1  0
  2 36  1  1
  3 37  1  0
  3 38  1  0
  4 39  1  0
  4 40  1  0
  5 41  1  6
  8 42  1  0
  8 43  1  0
  8 44  1  0
  9 45  1  0
  9 46  1  0
  9 47  1  0
 10 48  1  6
 11 49  1  0
 11 50  1  0
 12 51  1  0
 12 52  1  0
 14 53  1  0
 14 54  1  0
 14 55  1  0
 15 56  1  1
 16 57  1  0
 16 58  1  0
 17 59  1  0
 19 60  1  6
 20 61  1  0
 20 62  1  0
 21 63  1  0
 21 64  1  0
 22 65  1  6
 23 66  1  0
 25 67  1  0
 25 68  1  0
 25 69  1  0
 26 70  1  0
 26 71  1  0
 26 72  1  0
 28 73  1  0
 28 74  1  0
 28 75  1  0
 29 76  1  0
 29 77  1  0
 30 78  1  0
 30 79  1  0
 32 80  1  0
 32 81  1  0
 32 82  1  0
M  END
>  <meeko>  (15) 
{"is_sidechain": [false], "intermolecular_energy": 2.731, "internal_energy": -0.839}

$$$$
EPH_relaxed_0001_pdb2pqr_Repair_178_r2_0001_out
     RDKit          3D

 82 86  0  0  0  0  0  0  0  0999 V2000
   -0.0370   16.9960   -0.4810 C   0  0  0  0  0  0  0  0  0  0  0  0
    0.9010   16.1570   -1.3540 C   0  0  2  0  0  0  0  0  0  0  0  0
    1.4130   16.9430   -2.5770 C   0  0  0  0  0  0  0  0  0  0  0  0
    2.3860   18.0700   -2.2220 C   0  0  0  0  0  0  0  0  0  0  0  0
    1.7540   19.0820   -1.3150 C   0  0  2  0  0  0  0  0  0  0  0  0
    2.5940   20.1940   -0.9810 O   0  0  0  0  0  0  0  0  0  0  0  0
    2.2170   19.3360    0.1070 C   0  0  0  0  0  0  0  0  0  0  0  0
    3.3580   18.5730    0.7040 C   0  0  0  0  0  0  0  0  0  0  0  0
    1.2600   19.9670    1.0700 C   0  0  0  0  0  0  0  0  0  0  0  0
    0.1900   14.8880   -1.8090 C   0  0  1  0  0  0  0  0  0  0  0  0
    0.6290   14.4330   -3.2260 C   0  0  0  0  0  0  0  0  0  0  0  0
    0.6130   12.8830   -3.2240 C   0  0  0  0  0  0  0  0  0  0  0  0
   -0.1460   12.5030   -1.9310 C   0  0  1  0  0  0  0  0  0  0  0  0
   -1.6570   12.6440   -2.2960 C   0  0  0  0  0  0  0  0  0  0  0  0
    0.1740   11.0950   -1.3300 C   0  0  2  0  0  0  0  0  0  0  0  0
   -0.1840    9.9030   -2.2350 C   0  0  0  0  0  0  0  0  0  0  0  0
   -1.5610    9.3570   -2.0540 C   0  0  0  0  0  0  0  0  0  0  0  0
   -2.3740    9.6130   -1.0120 C   0  0  0  0  0  0  0  0  0  0  0  0
   -1.8900   10.4540    0.1770 C   0  0  1  0  0  0  0  0  0  0  0  0
   -2.2840    9.7520    1.5030 C   0  0  0  0  0  0  0  0  0  0  0  0
   -3.7750    9.4400    1.5780 C   0  0  0  0  0  0  0  0  0  0  0  0
   -4.2070    8.5540    0.4120 C   0  0  2  0  0  0  0  0  0  0  0  0
   -3.5880    7.2720    0.5540 O   0  0  0  0  0  0  0  0  0  0  0  0
   -3.8530    9.1550   -0.9770 C   0  0  0  0  0  0  0  0  0  0  0  0
   -4.7500   10.3850   -1.2560 C   0  0  0  0  0  0  0  0  0  0  0  0
   -4.2130    8.1010   -2.0580 C   0  0  0  0  0  0  0  0  0  0  0  0
   -0.3600   10.8830    0.1440 C   0  0  1  0  0  0  0  0  0  0  0  0
    0.5200    9.7630    0.7800 C   0  0  0  0  0  0  0  0  0  0  0  0
   -0.1650   12.1630    1.0410 C   0  0  0  0  0  0  0  0  0  0  0  0
   -0.3790   13.5280    0.3590 C   0  0  0  0  0  0  0  0  0  0  0  0
    0.3990   13.6110   -0.9570 C   0  0  2  0  0  0  0  0  0  0  0  0
    1.9250   13.4950   -0.6190 C   0  0  0  0  0  0  0  0  0  0  0  0
    0.1790   16.8028    0.5801 H   0  0  0  0  0  0  0  0  0  0  0  0
    0.1169   18.0633   -0.6981 H   0  0  0  0  0  0  0  0  0  0  0  0
   -1.0806   16.7245   -0.6981 H   0  0  0  0  0  0  0  0  0  0  0  0
    1.7762   15.8931   -0.7421 H   0  0  0  0  0  0  0  0  0  0  0  0
    1.9259   16.2410   -3.2509 H   0  0  0  0  0  0  0  0  0  0  0  0
    0.5362   17.4121   -3.0472 H   0  0  0  0  0  0  0  0  0  0  0  0
    3.2633   17.6382   -1.7181 H   0  0  0  0  0  0  0  0  0  0  0  0
    2.6770   18.5781   -3.1532 H   0  0  0  0  0  0  0  0  0  0  0  0
    0.7610   18.8792   -1.7425 H   0  0  0  0  0  0  0  0  0  0  0  0
    3.2937   18.6160    1.8013 H   0  0  0  0  0  0  0  0  0  0  0  0
    3.3102   17.5245    0.3747 H   0  0  0  0  0  0  0  0  0  0  0  0
    4.3087   19.0177    0.3747 H   0  0  0  0  0  0  0  0  0  0  0  0
    1.5825   19.7543    2.0999 H   0  0  0  0  0  0  0  0  0  0  0  0
    1.2415   21.0550    0.9088 H   0  0  0  0  0  0  0  0  0  0  0  0
    0.2528   19.5553    0.9088 H   0  0  0  0  0  0  0  0  0  0  0  0
   -0.8545   15.2245   -1.7325 H   0  0  0  0  0  0  0  0  0  0  0  0
   -0.0719   14.8179   -3.9814 H   0  0  0  0  0  0  0  0  0  0  0  0
    1.6302   14.8169   -3.4712 H   0  0  0  0  0  0  0  0  0  0  0  0
    0.0869   12.4988   -4.1104 H   0  0  0  0  0  0  0  0  0  0  0  0
    1.6259   12.4551   -3.2545 H   0  0  0  0  0  0  0  0  0  0  0  0
   -2.2534   12.6997   -1.3734 H   0  0  0  0  0  0  0  0  0  0  0  0
   -1.8078   13.5601   -2.8859 H   0  0  0  0  0  0  0  0  0  0  0  0
   -1.9747   11.7716   -2.8859 H   0  0  0  0  0  0  0  0  0  0  0  0
    1.2724   11.1068   -1.2724 H   0  0  0  0  0  0  0  0  0  0  0  0
   -0.0817   10.2275   -3.2811 H   0  0  0  0  0  0  0  0  0  0  0  0
    0.5045    9.0916   -1.9565 H   0  0  0  0  0  0  0  0  0  0  0  0
   -1.9443    8.6884   -2.8389 H   0  0  0  0  0  0  0  0  0  0  0  0
   -2.4101   11.4201    0.0986 H   0  0  0  0  0  0  0  0  0  0  0  0
   -1.7219    8.8099    1.5839 H   0  0  0  0  0  0  0  0  0  0  0  0
   -2.0442   10.4382    2.3286 H   0  0  0  0  0  0  0  0  0  0  0  0
   -3.9866    8.9191    2.5235 H   0  0  0  0  0  0  0  0  0  0  0  0
   -4.3344   10.3857    1.5260 H   0  0  0  0  0  0  0  0  0  0  0  0
   -5.3033    8.4716    0.4477 H   0  0  0  0  0  0  0  0  0  0  0  0
   -4.1880    6.6110    0.1670 H   0  0  0  0  0  0  0  0  0  0  0  0
   -5.0727   10.8275   -0.3020 H   0  0  0  0  0  0  0  0  0  0  0  0
   -4.1818   11.1301   -1.8321 H   0  0  0  0  0  0  0  0  0  0  0  0
   -5.6331   10.0717   -1.8321 H   0  0  0  0  0  0  0  0  0  0  0  0
   -4.5315    7.1685   -1.5692 H   0  0  0  0  0  0  0  0  0  0  0  0
   -5.0312    8.4841   -2.6855 H   0  0  0  0  0  0  0  0  0  0  0  0
   -3.3314    7.9035   -2.6855 H   0  0  0  0  0  0  0  0  0  0  0  0
    0.4656    9.8322    1.8765 H   0  0  0  0  0  0  0  0  0  0  0  0
    0.1512    8.7786    0.4560 H   0  0  0  0  0  0  0  0  0  0  0  0
    1.5637    9.8884    0.4560 H   0  0  0  0  0  0  0  0  0  0  0  0
   -0.8753   12.0942    1.8781 H   0  0  0  0  0  0  0  0  0  0  0  0
    0.8952   12.1505    1.3340 H   0  0  0  0  0  0  0  0  0  0  0  0
   -1.4510   13.6629    0.1524 H   0  0  0  0  0  0  0  0  0  0  0  0
   -0.0143   14.3176    1.0325 H   0  0  0  0  0  0  0  0  0  0  0  0
    2.0590   13.4848    0.4728 H   0  0  0  0  0  0  0  0  0  0  0  0
    2.3254   12.5638   -1.0463 H   0  0  0  0  0  0  0  0  0  0  0  0
    2.4616   14.3549   -1.0463 H   0  0  0  0  0  0  0  0  0  0  0  0
  1  2  1  0
  2  3  1  0
  3  4  1  0
  4  5  1  0
  5  6  1  0
  6  7  1  0
  7  8  1  0
  7  9  1  0
  2 10  1  0
 10 11  1  0
 11 12  1  0
 12 13  1  0
 13 14  1  6
 13 15  1  0
 15 16  1  0
 16 17  1  0
 17 18  2  0
 18 19  1  0
 19 20  1  0
 20 21  1  0
 21 22  1  0
 22 23  1  0
 22 24  1  0
 24 25  1  0
 24 26  1  0
 19 27  1  0
 27 28  1  1
 27 29  1  0
 29 30  1  0
 30 31  1  0
 31 32  1  1
  7  5  1  0
 31 10  1  0
 31 13  1  0
 27 15  1  0
 24 18  1  0
  1 33  1  0
  1 34  1  0
  1 35  1  0
  2 36  1  1
  3 37  1  0
  3 38  1  0
  4 39  1  0
  4 40  1  0
  5 41  1  1
  8 42  1  0
  8 43  1  0
  8 44  1  0
  9 45  1  0
  9 46  1  0
  9 47  1  0
 10 48  1  6
 11 49  1  0
 11 50  1  0
 12 51  1  0
 12 52  1  0
 14 53  1  0
 14 54  1  0
 14 55  1  0
 15 56  1  1
 16 57  1  0
 16 58  1  0
 17 59  1  0
 19 60  1  1
 20 61  1  0
 20 62  1  0
 21 63  1  0
 21 64  1  0
 22 65  1  6
 23 66  1  0
 25 67  1  0
 25 68  1  0
 25 69  1  0
 26 70  1  0
 26 71  1  0
 26 72  1  0
 28 73  1  0
 28 74  1  0
 28 75  1  0
 29 76  1  0
 29 77  1  0
 30 78  1  0
 30 79  1  0
 32 80  1  0
 32 81  1  0
 32 82  1  0
M  END
>  <meeko>  (16) 
{"is_sidechain": [false], "intermolecular_energy": 2.731, "internal_energy": -0.839}

$$$$
