EPH_relaxed_0001_pdb2pqr_Repair_213_r2_0001_out
     RDKit          3D

 82 86  0  0  0  0  0  0  0  0999 V2000
   -1.7020    8.5820   -1.8840 C   0  0  0  0  0  0  0  0  0  0  0  0
   -2.0810    9.1070   -0.4960 C   0  0  2  0  0  0  0  0  0  0  0  0
   -3.5750    9.4770   -0.4040 C   0  0  0  0  0  0  0  0  0  0  0  0
   -4.5010    8.2660   -0.2610 C   0  0  0  0  0  0  0  0  0  0  0  0
   -5.1910    7.9410   -1.5520 C   0  0  2  0  0  0  0  0  0  0  0  0
   -6.3460    8.7420   -1.8320 O   0  0  0  0  0  0  0  0  0  0  0  0
   -6.5810    7.3390   -1.6290 C   0  0  0  0  0  0  0  0  0  0  0  0
   -7.3660    7.0260   -0.3930 C   0  0  0  0  0  0  0  0  0  0  0  0
   -6.9770    6.6080   -2.8740 C   0  0  0  0  0  0  0  0  0  0  0  0
   -1.2220   10.3160   -0.1450 C   0  0  1  0  0  0  0  0  0  0  0  0
   -0.1950   10.0130    0.9780 C   0  0  0  0  0  0  0  0  0  0  0  0
    1.0770   10.8390    0.6560 C   0  0  0  0  0  0  0  0  0  0  0  0
    0.6280   11.8340   -0.4410 C   0  0  1  0  0  0  0  0  0  0  0  0
   -0.0800   12.9900    0.3320 C   0  0  0  0  0  0  0  0  0  0  0  0
    1.7510   12.3740   -1.3850 C   0  0  2  0  0  0  0  0  0  0  0  0
    2.8530   13.1910   -0.6880 C   0  0  0  0  0  0  0  0  0  0  0  0
    2.6020   14.6610   -0.6080 C   0  0  0  0  0  0  0  0  0  0  0  0
    1.6820   15.3370   -1.3210 C   0  0  0  0  0  0  0  0  0  0  0  0
    0.8410   14.6310   -2.3920 C   0  0  1  0  0  0  0  0  0  0  0  0
    0.8180   15.4910   -3.6830 C   0  0  0  0  0  0  0  0  0  0  0  0
    0.3540   16.9220   -3.4250 C   0  0  0  0  0  0  0  0  0  0  0  0
    1.2510   17.6090   -2.3980 C   0  0  2  0  0  0  0  0  0  0  0  0
    2.5550   17.7760   -2.9630 O   0  0  0  0  0  0  0  0  0  0  0  0
    1.3580   16.8280   -1.0580 C   0  0  0  0  0  0  0  0  0  0  0  0
    0.0100   16.9070   -0.3010 C   0  0  0  0  0  0  0  0  0  0  0  0
    2.4000   17.5540   -0.1650 C   0  0  0  0  0  0  0  0  0  0  0  0
    1.2130   13.1130   -2.6760 C   0  0  1  0  0  0  0  0  0  0  0  0
    2.3490   13.0340   -3.7410 C   0  0  0  0  0  0  0  0  0  0  0  0
   -0.0360   12.3870   -3.3040 C   0  0  0  0  0  0  0  0  0  0  0  0
   -1.0480   11.7700   -2.3200 C   0  0  0  0  0  0  0  0  0  0  0  0
   -0.3380   10.9110   -1.2690 C   0  0  2  0  0  0  0  0  0  0  0  0
    0.3660    9.7270   -2.0150 C   0  0  0  0  0  0  0  0  0  0  0  0
   -1.0612    7.6943   -1.7778 H   0  0  0  0  0  0  0  0  0  0  0  0
   -2.6145    8.3116   -2.4355 H   0  0  0  0  0  0  0  0  0  0  0  0
   -1.1581    9.3630   -2.4355 H   0  0  0  0  0  0  0  0  0  0  0  0
   -1.8960    8.2980    0.2260 H   0  0  0  0  0  0  0  0  0  0  0  0
   -3.7182   10.1289    0.4704 H   0  0  0  0  0  0  0  0  0  0  0  0
   -3.8414    9.9760   -1.3474 H   0  0  0  0  0  0  0  0  0  0  0  0
   -3.9051    7.3966    0.0536 H   0  0  0  0  0  0  0  0  0  0  0  0
   -5.2697    8.5082    0.4876 H   0  0  0  0  0  0  0  0  0  0  0  0
   -4.2362    7.6545   -2.0171 H   0  0  0  0  0  0  0  0  0  0  0  0
   -6.7630    7.2664    0.4950 H   0  0  0  0  0  0  0  0  0  0  0  0
   -8.2885    7.6251   -0.3830 H   0  0  0  0  0  0  0  0  0  0  0  0
   -7.6232    5.9565   -0.3830 H   0  0  0  0  0  0  0  0  0  0  0  0
   -7.4848    5.6706   -2.6030 H   0  0  0  0  0  0  0  0  0  0  0  0
   -7.6583    7.2359   -3.4669 H   0  0  0  0  0  0  0  0  0  0  0  0
   -6.0789    6.3803   -3.4669 H   0  0  0  0  0  0  0  0  0  0  0  0
   -2.0124   11.0301    0.1294 H   0  0  0  0  0  0  0  0  0  0  0  0
   -0.6031   10.3113    1.9550 H   0  0  0  0  0  0  0  0  0  0  0  0
    0.0335    8.9380    1.0245 H   0  0  0  0  0  0  0  0  0  0  0  0
    1.4270   11.3774    1.5491 H   0  0  0  0  0  0  0  0  0  0  0  0
    1.9142   10.2055    0.3277 H   0  0  0  0  0  0  0  0  0  0  0  0
    0.0220   12.8235    1.4145 H   0  0  0  0  0  0  0  0  0  0  0  0
    0.3854   13.9498    0.0632 H   0  0  0  0  0  0  0  0  0  0  0  0
   -1.1464   13.0116    0.0632 H   0  0  0  0  0  0  0  0  0  0  0  0
    2.2366   11.4480   -1.7265 H   0  0  0  0  0  0  0  0  0  0  0  0
    2.9629   12.8085    0.3375 H   0  0  0  0  0  0  0  0  0  0  0  0
    3.7573   13.0693   -1.3023 H   0  0  0  0  0  0  0  0  0  0  0  0
    3.2212   15.2402    0.0928 H   0  0  0  0  0  0  0  0  0  0  0  0
   -0.1751   14.5529   -1.9781 H   0  0  0  0  0  0  0  0  0  0  0  0
    1.8333   15.5203   -4.1053 H   0  0  0  0  0  0  0  0  0  0  0  0
    0.1030   15.0287   -4.3794 H   0  0  0  0  0  0  0  0  0  0  0  0
    0.3880   17.4872   -4.3681 H   0  0  0  0  0  0  0  0  0  0  0  0
   -0.6727   16.8929   -3.0312 H   0  0  0  0  0  0  0  0  0  0  0  0
    0.7944   18.5808   -2.1589 H   0  0  0  0  0  0  0  0  0  0  0  0
    2.5770   17.2860   -3.8020 H   0  0  0  0  0  0  0  0  0  0  0  0
    0.1970   16.8960    0.7829 H   0  0  0  0  0  0  0  0  0  0  0  0
   -0.5099   17.8372   -0.5740 H   0  0  0  0  0  0  0  0  0  0  0  0
   -0.6150   16.0439   -0.5740 H   0  0  0  0  0  0  0  0  0  0  0  0
    2.1566   17.3844    0.8943 H   0  0  0  0  0  0  0  0  0  0  0  0
    3.4043   17.1591   -0.3783 H   0  0  0  0  0  0  0  0  0  0  0  0
    2.3774   18.6329   -0.3783 H   0  0  0  0  0  0  0  0  0  0  0  0
    3.3228   12.9663   -3.2340 H   0  0  0  0  0  0  0  0  0  0  0  0
    2.2005   12.1440   -4.3702 H   0  0  0  0  0  0  0  0  0  0  0  0
    2.3251   13.9360   -4.3702 H   0  0  0  0  0  0  0  0  0  0  0  0
   -0.5753   13.1235   -3.9178 H   0  0  0  0  0  0  0  0  0  0  0  0
    0.3775   11.5350   -3.8636 H   0  0  0  0  0  0  0  0  0  0  0  0
   -1.5959   12.5783   -1.8135 H   0  0  0  0  0  0  0  0  0  0  0  0
   -1.7412   11.1300   -2.8856 H   0  0  0  0  0  0  0  0  0  0  0  0
    0.7832    9.0254   -1.2777 H   0  0  0  0  0  0  0  0  0  0  0  0
   -0.3674    9.2031   -2.6456 H   0  0  0  0  0  0  0  0  0  0  0  0
    1.1766   10.1211   -2.6456 H   0  0  0  0  0  0  0  0  0  0  0  0
  1  2  1  0
  2  3  1  0
  3  4  1  0
  4  5  1  0
  5  6  1  0
  6  7  1  0
  7  8  1  0
  7  9  1  0
  2 10  1  0
 10 11  1  0
 11 12  1  0
 12 13  1  0
 13 14  1  1
 13 15  1  0
 15 16  1  0
 16 17  1  0
 17 18  2  0
 18 19  1  0
 19 20  1  0
 20 21  1  0
 21 22  1  0
 22 23  1  0
 22 24  1  0
 24 25  1  0
 24 26  1  0
 19 27  1  0
 27 28  1  6
 27 29  1  0
 29 30  1  0
 30 31  1  0
 31 32  1  6
  7  5  1  0
 31 10  1  0
 31 13  1  0
 27 15  1  0
 24 18  1  0
  1 33  1  0
  1 34  1  0
  1 35  1  0
  2 36  1  1
  3 37  1  0
  3 38  1  0
  4 39  1  0
  4 40  1  0
  5 41  1  6
  8 42  1  0
  8 43  1  0
  8 44  1  0
  9 45  1  0
  9 46  1  0
  9 47  1  0
 10 48  1  1
 11 49  1  0
 11 50  1  0
 12 51  1  0
 12 52  1  0
 14 53  1  0
 14 54  1  0
 14 55  1  0
 15 56  1  6
 16 57  1  0
 16 58  1  0
 17 59  1  0
 19 60  1  1
 20 61  1  0
 20 62  1  0
 21 63  1  0
 21 64  1  0
 22 65  1  1
 23 66  1  0
 25 67  1  0
 25 68  1  0
 25 69  1  0
 26 70  1  0
 26 71  1  0
 26 72  1  0
 28 73  1  0
 28 74  1  0
 28 75  1  0
 29 76  1  0
 29 77  1  0
 30 78  1  0
 30 79  1  0
 32 80  1  0
 32 81  1  0
 32 82  1  0
M  END
>  <meeko>  (1) 
{"is_sidechain": [false], "intermolecular_energy": 2.731, "internal_energy": -0.839}

$$$$
EPH_relaxed_0001_pdb2pqr_Repair_213_r2_0001_out
     RDKit          3D

 82 86  0  0  0  0  0  0  0  0999 V2000
    2.3230   18.0670   -2.7050 C   0  0  0  0  0  0  0  0  0  0  0  0
    1.0380   17.6770   -1.9690 C   0  0  2  0  0  0  0  0  0  0  0  0
    1.2080   17.7300   -0.4370 C   0  0  0  0  0  0  0  0  0  0  0  0
    0.8730   19.0930    0.1730 C   0  0  0  0  0  0  0  0  0  0  0  0
   -0.5710   19.1860    0.5630 C   0  0  2  0  0  0  0  0  0  0  0  0
   -1.4370   18.2760   -0.1280 O   0  0  0  0  0  0  0  0  0  0  0  0
   -1.6610   19.6740   -0.3730 C   0  0  0  0  0  0  0  0  0  0  0  0
   -1.3520   20.1030   -1.7740 C   0  0  0  0  0  0  0  0  0  0  0  0
   -2.9330   20.1940    0.2190 C   0  0  0  0  0  0  0  0  0  0  0  0
    0.5970   16.2830   -2.3970 C   0  0  1  0  0  0  0  0  0  0  0  0
    0.6970   16.0690   -3.9300 C   0  0  0  0  0  0  0  0  0  0  0  0
    1.1040   14.5890   -4.1500 C   0  0  0  0  0  0  0  0  0  0  0  0
    0.9020   13.9200   -2.7700 C   0  0  1  0  0  0  0  0  0  0  0  0
   -0.6280   13.6190   -2.6900 C   0  0  0  0  0  0  0  0  0  0  0  0
    1.7570   12.6420   -2.4900 C   0  0  2  0  0  0  0  0  0  0  0  0
    1.4820   11.4540   -3.4290 C   0  0  0  0  0  0  0  0  0  0  0  0
    0.4260   10.5060   -2.9660 C   0  0  0  0  0  0  0  0  0  0  0  0
   -0.0740   10.4410   -1.7180 C   0  0  0  0  0  0  0  0  0  0  0  0
    0.4970   11.3160   -0.5940 C   0  0  1  0  0  0  0  0  0  0  0  0
    0.7260   10.4490    0.6720 C   0  0  0  0  0  0  0  0  0  0  0  0
   -0.5300    9.6960    1.1000 C   0  0  0  0  0  0  0  0  0  0  0  0
   -1.0340    8.7930   -0.0240 C   0  0  2  0  0  0  0  0  0  0  0  0
   -0.0780    7.7520   -0.2420 O   0  0  0  0  0  0  0  0  0  0  0  0
   -1.2910    9.5550   -1.3540 C   0  0  0  0  0  0  0  0  0  0  0  0
   -2.5300   10.4720   -1.1980 C   0  0  0  0  0  0  0  0  0  0  0  0
   -1.6590    8.5090   -2.4400 C   0  0  0  0  0  0  0  0  0  0  0  0
    1.7700   12.1890   -0.9740 C   0  0  1  0  0  0  0  0  0  0  0  0
    3.0690   11.3520   -0.7700 C   0  0  0  0  0  0  0  0  0  0  0  0
    1.8690   13.4110    0.0140 C   0  0  0  0  0  0  0  0  0  0  0  0
    1.0970   14.6860   -0.3780 C   0  0  0  0  0  0  0  0  0  0  0  0
    1.3910   15.0800   -1.8280 C   0  0  2  0  0  0  0  0  0  0  0  0
    2.9190   15.4100   -1.9340 C   0  0  0  0  0  0  0  0  0  0  0  0
    3.1076   18.3051   -1.9718 H   0  0  0  0  0  0  0  0  0  0  0  0
    2.6530   17.2286   -3.3360 H   0  0  0  0  0  0  0  0  0  0  0  0
    2.1314   18.9474   -3.3360 H   0  0  0  0  0  0  0  0  0  0  0  0
    0.2647   18.4106   -2.2406 H   0  0  0  0  0  0  0  0  0  0  0  0
    0.5447   16.9762    0.0122 H   0  0  0  0  0  0  0  0  0  0  0  0
    2.2696   17.5353   -0.2247 H   0  0  0  0  0  0  0  0  0  0  0  0
    1.4944   19.2455    1.0677 H   0  0  0  0  0  0  0  0  0  0  0  0
    1.0744   19.8659   -0.5833 H   0  0  0  0  0  0  0  0  0  0  0  0
   -0.2997   19.4697    1.5906 H   0  0  0  0  0  0  0  0  0  0  0  0
   -0.7092   20.9954   -1.7509 H   0  0  0  0  0  0  0  0  0  0  0  0
   -0.8311   19.2895   -2.3001 H   0  0  0  0  0  0  0  0  0  0  0  0
   -2.2887   20.3393   -2.3001 H   0  0  0  0  0  0  0  0  0  0  0  0
   -2.8649   20.1662    1.3165 H   0  0  0  0  0  0  0  0  0  0  0  0
   -3.0948   21.2304   -0.1122 H   0  0  0  0  0  0  0  0  0  0  0  0
   -3.7745   19.5677   -0.1122 H   0  0  0  0  0  0  0  0  0  0  0  0
   -0.4269   16.2821   -1.9949 H   0  0  0  0  0  0  0  0  0  0  0  0
   -0.2750   16.2690   -4.4045 H   0  0  0  0  0  0  0  0  0  0  0  0
    1.4347   16.7519   -4.3766 H   0  0  0  0  0  0  0  0  0  0  0  0
    0.4609   14.1179   -4.9079 H   0  0  0  0  0  0  0  0  0  0  0  0
    2.1371   14.4900   -4.5145 H   0  0  0  0  0  0  0  0  0  0  0  0
   -0.9352   13.5586   -1.6355 H   0  0  0  0  0  0  0  0  0  0  0  0
   -1.1867   14.4244   -3.1891 H   0  0  0  0  0  0  0  0  0  0  0  0
   -0.8400   12.6619   -3.1891 H   0  0  0  0  0  0  0  0  0  0  0  0
    2.7749   12.9832   -2.7295 H   0  0  0  0  0  0  0  0  0  0  0  0
    1.1730   11.8567   -4.4049 H   0  0  0  0  0  0  0  0  0  0  0  0
    2.4159   10.8740   -3.4672 H   0  0  0  0  0  0  0  0  0  0  0  0
    0.0223    9.8009   -3.7075 H   0  0  0  0  0  0  0  0  0  0  0  0
   -0.2648   12.0825   -0.3885 H   0  0  0  0  0  0  0  0  0  0  0  0
    1.5203    9.7182    0.4600 H   0  0  0  0  0  0  0  0  0  0  0  0
    1.0066   11.1247    1.4934 H   0  0  0  0  0  0  0  0  0  0  0  0
   -0.2975    9.0792    1.9806 H   0  0  0  0  0  0  0  0  0  0  0  0
   -1.3143   10.4289    1.3403 H   0  0  0  0  0  0  0  0  0  0  0  0
   -2.0037    8.3815    0.2929 H   0  0  0  0  0  0  0  0  0  0  0  0
    0.7030    8.1530   -0.6610 H   0  0  0  0  0  0  0  0  0  0  0  0
   -2.7393   10.6269   -0.1293 H   0  0  0  0  0  0  0  0  0  0  0  0
   -2.3309   11.4420   -1.6770 H   0  0  0  0  0  0  0  0  0  0  0  0
   -3.3995    9.9982   -1.6770 H   0  0  0  0  0  0  0  0  0  0  0  0
   -1.9868    7.5774   -1.9556 H   0  0  0  0  0  0  0  0  0  0  0  0
   -2.4728    8.9022   -3.0670 H   0  0  0  0  0  0  0  0  0  0  0  0
   -0.7783    8.3061   -3.0670 H   0  0  0  0  0  0  0  0  0  0  0  0
    3.2605   11.2286    0.3062 H   0  0  0  0  0  0  0  0  0  0  0  0
    2.9452   10.3634   -1.2361 H   0  0  0  0  0  0  0  0  0  0  0  0
    3.9181   11.8733   -1.2361 H   0  0  0  0  0  0  0  0  0  0  0  0
    1.4897   13.0798    0.9920 H   0  0  0  0  0  0  0  0  0  0  0  0
    2.9296   13.7027    0.0056 H   0  0  0  0  0  0  0  0  0  0  0  0
    0.0182   14.5021   -0.2666 H   0  0  0  0  0  0  0  0  0  0  0  0
    1.4174   15.5067    0.2806 H   0  0  0  0  0  0  0  0  0  0  0  0
    3.3452   15.5020   -0.9241 H   0  0  0  0  0  0  0  0  0  0  0  0
    3.4319   14.6019   -2.4762 H   0  0  0  0  0  0  0  0  0  0  0  0
    3.0527   16.3577   -2.4762 H   0  0  0  0  0  0  0  0  0  0  0  0
  1  2  1  0
  2  3  1  0
  3  4  1  0
  4  5  1  0
  5  6  1  0
  6  7  1  0
  7  8  1  0
  7  9  1  0
  2 10  1  0
 10 11  1  0
 11 12  1  0
 12 13  1  0
 13 14  1  1
 13 15  1  0
 15 16  1  0
 16 17  1  0
 17 18  2  0
 18 19  1  0
 19 20  1  0
 20 21  1  0
 21 22  1  0
 22 23  1  0
 22 24  1  0
 24 25  1  0
 24 26  1  0
 19 27  1  0
 27 28  1  6
 27 29  1  0
 29 30  1  0
 30 31  1  0
 31 32  1  1
  7  5  1  0
 31 10  1  0
 31 13  1  0
 27 15  1  0
 24 18  1  0
  1 33  1  0
  1 34  1  0
  1 35  1  0
  2 36  1  6
  3 37  1  0
  3 38  1  0
  4 39  1  0
  4 40  1  0
  5 41  1  1
  8 42  1  0
  8 43  1  0
  8 44  1  0
  9 45  1  0
  9 46  1  0
  9 47  1  0
 10 48  1  1
 11 49  1  0
 11 50  1  0
 12 51  1  0
 12 52  1  0
 14 53  1  0
 14 54  1  0
 14 55  1  0
 15 56  1  6
 16 57  1  0
 16 58  1  0
 17 59  1  0
 19 60  1  1
 20 61  1  0
 20 62  1  0
 21 63  1  0
 21 64  1  0
 22 65  1  1
 23 66  1  0
 25 67  1  0
 25 68  1  0
 25 69  1  0
 26 70  1  0
 26 71  1  0
 26 72  1  0
 28 73  1  0
 28 74  1  0
 28 75  1  0
 29 76  1  0
 29 77  1  0
 30 78  1  0
 30 79  1  0
 32 80  1  0
 32 81  1  0
 32 82  1  0
M  END
>  <meeko>  (2) 
{"is_sidechain": [false], "intermolecular_energy": 2.731, "internal_energy": -0.839}

$$$$
EPH_relaxed_0001_pdb2pqr_Repair_213_r2_0001_out
     RDKit          3D

 82 86  0  0  0  0  0  0  0  0999 V2000
    4.1280   17.5140   -0.0380 C   0  0  0  0  0  0  0  0  0  0  0  0
    2.7190   18.1040   -0.1370 C   0  0  2  0  0  0  0  0  0  0  0  0
    2.4150   19.0800    1.0170 C   0  0  0  0  0  0  0  0  0  0  0  0
    3.6450   19.8420    1.5190 C   0  0  0  0  0  0  0  0  0  0  0  0
    4.1640   19.2730    2.8040 C   0  0  2  0  0  0  0  0  0  0  0  0
    4.9170   20.1920    3.6050 O   0  0  0  0  0  0  0  0  0  0  0  0
    5.6390   19.0620    3.0910 C   0  0  0  0  0  0  0  0  0  0  0  0
    6.6880   19.4160    2.0840 C   0  0  0  0  0  0  0  0  0  0  0  0
    6.0290   18.0670    4.1400 C   0  0  0  0  0  0  0  0  0  0  0  0
    1.6870   16.9830   -0.1570 C   0  0  1  0  0  0  0  0  0  0  0  0
    0.2620   17.4890   -0.5110 C   0  0  0  0  0  0  0  0  0  0  0  0
   -0.4190   16.3670   -1.3350 C   0  0  0  0  0  0  0  0  0  0  0  0
    0.4970   15.1340   -1.1490 C   0  0  1  0  0  0  0  0  0  0  0  0
    0.0900   14.5380    0.2350 C   0  0  0  0  0  0  0  0  0  0  0  0
    0.4440   14.0560   -2.2800 C   0  0  2  0  0  0  0  0  0  0  0  0
   -0.9220   13.3740   -2.4680 C   0  0  0  0  0  0  0  0  0  0  0  0
   -1.1320   12.1340   -1.6630 C   0  0  0  0  0  0  0  0  0  0  0  0
   -0.1650   11.4320   -1.0430 C   0  0  0  0  0  0  0  0  0  0  0  0
    1.3120   11.8160   -1.1990 C   0  0  1  0  0  0  0  0  0  0  0  0
    2.1500   10.5430   -1.4920 C   0  0  0  0  0  0  0  0  0  0  0  0
    1.9380    9.4510   -0.4480 C   0  0  0  0  0  0  0  0  0  0  0  0
    0.4660    9.0550   -0.3630 C   0  0  2  0  0  0  0  0  0  0  0  0
    0.0870    8.4240   -1.5900 O   0  0  0  0  0  0  0  0  0  0  0  0
   -0.4760   10.2580   -0.0810 C   0  0  0  0  0  0  0  0  0  0  0  0
   -0.2690   10.7520    1.3720 C   0  0  0  0  0  0  0  0  0  0  0  0
   -1.9400    9.7470   -0.1610 C   0  0  0  0  0  0  0  0  0  0  0  0
    1.6170   12.9960   -2.2200 C   0  0  1  0  0  0  0  0  0  0  0  0
    1.7750   12.4240   -3.6620 C   0  0  0  0  0  0  0  0  0  0  0  0
    2.9990   13.6520   -1.8480 C   0  0  0  0  0  0  0  0  0  0  0  0
    2.9710   14.7920   -0.8130 C   0  0  0  0  0  0  0  0  0  0  0  0
    1.9050   15.8330   -1.1720 C   0  0  2  0  0  0  0  0  0  0  0  0
    2.3000   16.4660   -2.5490 C   0  0  0  0  0  0  0  0  0  0  0  0
    4.4036   17.3986    1.0206 H   0  0  0  0  0  0  0  0  0  0  0  0
    4.1495   16.5313   -0.5317 H   0  0  0  0  0  0  0  0  0  0  0  0
    4.8433   18.1882   -0.5317 H   0  0  0  0  0  0  0  0  0  0  0  0
    2.6650   18.6761   -1.0750 H   0  0  0  0  0  0  0  0  0  0  0  0
    1.6723   19.8118    0.6664 H   0  0  0  0  0  0  0  0  0  0  0  0
    2.0447   18.4768    1.8591 H   0  0  0  0  0  0  0  0  0  0  0  0
    4.4365   19.7823    0.7574 H   0  0  0  0  0  0  0  0  0  0  0  0
    3.3504   20.8861    1.7009 H   0  0  0  0  0  0  0  0  0  0  0  0
    3.2934   18.6058    2.8869 H   0  0  0  0  0  0  0  0  0  0  0  0
    7.6062   19.7259    2.6045 H   0  0  0  0  0  0  0  0  0  0  0  0
    6.9016   18.5402    1.4537 H   0  0  0  0  0  0  0  0  0  0  0  0
    6.3272   20.2422    1.4537 H   0  0  0  0  0  0  0  0  0  0  0  0
    5.8594   18.4998    5.1370 H   0  0  0  0  0  0  0  0  0  0  0  0
    5.4208   17.1574    4.0268 H   0  0  0  0  0  0  0  0  0  0  0  0
    7.0933   17.8129    4.0268 H   0  0  0  0  0  0  0  0  0  0  0  0
    1.8045   16.6063    0.8698 H   0  0  0  0  0  0  0  0  0  0  0  0
   -0.3098   17.6842    0.4082 H   0  0  0  0  0  0  0  0  0  0  0  0
    0.3069   18.4274   -1.0831 H   0  0  0  0  0  0  0  0  0  0  0  0
   -1.4290   16.1617   -0.9507 H   0  0  0  0  0  0  0  0  0  0  0  0
   -0.5387   16.6414   -2.3935 H   0  0  0  0  0  0  0  0  0  0  0  0
    0.5130   15.1574    1.0396 H   0  0  0  0  0  0  0  0  0  0  0  0
   -1.0066   14.5248    0.3204 H   0  0  0  0  0  0  0  0  0  0  0  0
    0.4768   13.5118    0.3204 H   0  0  0  0  0  0  0  0  0  0  0  0
    0.6039   14.6574   -3.1871 H   0  0  0  0  0  0  0  0  0  0  0  0
   -1.7036   14.0963   -2.1898 H   0  0  0  0  0  0  0  0  0  0  0  0
   -0.9644   13.0632   -3.5223 H   0  0  0  0  0  0  0  0  0  0  0  0
   -2.1633   11.7631   -1.5687 H   0  0  0  0  0  0  0  0  0  0  0  0
    1.6173   12.2499   -0.2354 H   0  0  0  0  0  0  0  0  0  0  0  0
    1.8610   10.1495   -2.4777 H   0  0  0  0  0  0  0  0  0  0  0  0
    3.2120   10.8286   -1.4661 H   0  0  0  0  0  0  0  0  0  0  0  0
    2.5328    8.5681   -0.7248 H   0  0  0  0  0  0  0  0  0  0  0  0
    2.2548    9.8366    0.5323 H   0  0  0  0  0  0  0  0  0  0  0  0
    0.3579    8.3660    0.4877 H   0  0  0  0  0  0  0  0  0  0  0  0
    0.8310    7.8660   -1.8760 H   0  0  0  0  0  0  0  0  0  0  0  0
   -0.5961    9.9715    2.0747 H   0  0  0  0  0  0  0  0  0  0  0  0
    0.7964   10.9706    1.5367 H   0  0  0  0  0  0  0  0  0  0  0  0
   -0.8603   11.6648    1.5367 H   0  0  0  0  0  0  0  0  0  0  0  0
   -2.3362    9.6087    0.8558 H   0  0  0  0  0  0  0  0  0  0  0  0
   -2.5565   10.4831   -0.6977 H   0  0  0  0  0  0  0  0  0  0  0  0
   -1.9645    8.7872   -0.6977 H   0  0  0  0  0  0  0  0  0  0  0  0
    2.0675   11.3651   -3.6064 H   0  0  0  0  0  0  0  0  0  0  0  0
    0.8188   12.5126   -4.1984 H   0  0  0  0  0  0  0  0  0  0  0  0
    2.5502   12.9908   -4.1984 H   0  0  0  0  0  0  0  0  0  0  0  0
    3.6480   12.8577   -1.4506 H   0  0  0  0  0  0  0  0  0  0  0  0
    3.3562   14.1172   -2.7786 H   0  0  0  0  0  0  0  0  0  0  0  0
    2.7447   14.3725    0.1784 H   0  0  0  0  0  0  0  0  0  0  0  0
    3.9545   15.2847   -0.8073 H   0  0  0  0  0  0  0  0  0  0  0  0
    2.8752   17.3878   -2.3773 H   0  0  0  0  0  0  0  0  0  0  0  0
    2.9131   15.7519   -3.1184 H   0  0  0  0  0  0  0  0  0  0  0  0
    1.3892   16.7029   -3.1184 H   0  0  0  0  0  0  0  0  0  0  0  0
  1  2  1  0
  2  3  1  0
  3  4  1  0
  4  5  1  0
  5  6  1  0
  6  7  1  0
  7  8  1  0
  7  9  1  0
  2 10  1  0
 10 11  1  0
 11 12  1  0
 12 13  1  0
 13 14  1  1
 13 15  1  0
 15 16  1  0
 16 17  1  0
 17 18  2  0
 18 19  1  0
 19 20  1  0
 20 21  1  0
 21 22  1  0
 22 23  1  0
 22 24  1  0
 24 25  1  0
 24 26  1  0
 19 27  1  0
 27 28  1  6
 27 29  1  0
 29 30  1  0
 30 31  1  0
 31 32  1  6
  7  5  1  0
 31 10  1  0
 31 13  1  0
 27 15  1  0
 24 18  1  0
  1 33  1  0
  1 34  1  0
  1 35  1  0
  2 36  1  6
  3 37  1  0
  3 38  1  0
  4 39  1  0
  4 40  1  0
  5 41  1  1
  8 42  1  0
  8 43  1  0
  8 44  1  0
  9 45  1  0
  9 46  1  0
  9 47  1  0
 10 48  1  1
 11 49  1  0
 11 50  1  0
 12 51  1  0
 12 52  1  0
 14 53  1  0
 14 54  1  0
 14 55  1  0
 15 56  1  6
 16 57  1  0
 16 58  1  0
 17 59  1  0
 19 60  1  1
 20 61  1  0
 20 62  1  0
 21 63  1  0
 21 64  1  0
 22 65  1  1
 23 66  1  0
 25 67  1  0
 25 68  1  0
 25 69  1  0
 26 70  1  0
 26 71  1  0
 26 72  1  0
 28 73  1  0
 28 74  1  0
 28 75  1  0
 29 76  1  0
 29 77  1  0
 30 78  1  0
 30 79  1  0
 32 80  1  0
 32 81  1  0
 32 82  1  0
M  END
>  <meeko>  (3) 
{"is_sidechain": [false], "intermolecular_energy": 2.731, "internal_energy": -0.839}

$$$$
EPH_relaxed_0001_pdb2pqr_Repair_213_r2_0001_out
     RDKit          3D

 82 86  0  0  0  0  0  0  0  0999 V2000
    2.2010   18.0130   -2.5540 C   0  0  0  0  0  0  0  0  0  0  0  0
    0.6790   17.8600   -2.6270 C   0  0  2  0  0  0  0  0  0  0  0  0
   -0.0140   18.3280   -1.3310 C   0  0  0  0  0  0  0  0  0  0  0  0
    0.7260   17.9180   -0.0550 C   0  0  0  0  0  0  0  0  0  0  0  0
    1.2660   19.1080    0.6790 C   0  0  2  0  0  0  0  0  0  0  0  0
    2.1590   19.9290   -0.0860 O   0  0  0  0  0  0  0  0  0  0  0  0
    2.7270   19.2670    1.0560 C   0  0  0  0  0  0  0  0  0  0  0  0
    3.7400   18.2210    0.7100 C   0  0  0  0  0  0  0  0  0  0  0  0
    3.0800   20.1940    2.1760 C   0  0  0  0  0  0  0  0  0  0  0  0
    0.3160   16.4090   -2.9180 C   0  0  1  0  0  0  0  0  0  0  0  0
    0.3990   16.0640   -4.4290 C   0  0  0  0  0  0  0  0  0  0  0  0
    0.8920   14.5970   -4.5260 C   0  0  0  0  0  0  0  0  0  0  0  0
    0.7580   14.0450   -3.0880 C   0  0  1  0  0  0  0  0  0  0  0  0
   -0.7480   13.6610   -2.9440 C   0  0  0  0  0  0  0  0  0  0  0  0
    1.6960   12.8500   -2.7170 C   0  0  2  0  0  0  0  0  0  0  0  0
    1.4760   11.5680   -3.5390 C   0  0  0  0  0  0  0  0  0  0  0  0
    0.4890   10.6050   -2.9680 C   0  0  0  0  0  0  0  0  0  0  0  0
    0.0190   10.6230   -1.7070 C   0  0  0  0  0  0  0  0  0  0  0  0
    0.5570   11.6280   -0.6800 C   0  0  1  0  0  0  0  0  0  0  0  0
    0.8620   10.8940    0.6520 C   0  0  0  0  0  0  0  0  0  0  0  0
   -0.3360   10.1090    1.1760 C   0  0  0  0  0  0  0  0  0  0  0  0
   -0.8050    9.0810    0.1510 C   0  0  2  0  0  0  0  0  0  0  0  0
    0.2090    8.0830    0.0010 O   0  0  0  0  0  0  0  0  0  0  0  0
   -1.1340    9.7030   -1.2350 C   0  0  0  0  0  0  0  0  0  0  0  0
   -2.4240   10.5540   -1.1310 C   0  0  0  0  0  0  0  0  0  0  0  0
   -1.4580    8.5430   -2.2150 C   0  0  0  0  0  0  0  0  0  0  0  0
    1.7650   12.5370   -1.1670 C   0  0  1  0  0  0  0  0  0  0  0  0
    3.1180   11.8010   -0.9220 C   0  0  0  0  0  0  0  0  0  0  0  0
    1.8080   13.8470   -0.2940 C   0  0  0  0  0  0  0  0  0  0  0  0
    0.9530   15.0330   -0.7780 C   0  0  0  0  0  0  0  0  0  0  0  0
    1.1930   15.3120   -2.2650 C   0  0  2  0  0  0  0  0  0  0  0  0
    2.6960   15.7220   -2.4380 C   0  0  0  0  0  0  0  0  0  0  0  0
    2.5162   18.0447   -1.5006 H   0  0  0  0  0  0  0  0  0  0  0  0
    2.6798   17.1585   -3.0545 H   0  0  0  0  0  0  0  0  0  0  0  0
    2.5002   18.9457   -3.0545 H   0  0  0  0  0  0  0  0  0  0  0  0
    0.3200   18.5033   -3.4438 H   0  0  0  0  0  0  0  0  0  0  0  0
   -0.0868   19.4254   -1.3529 H   0  0  0  0  0  0  0  0  0  0  0  0
   -1.0006   17.8425   -1.3006 H   0  0  0  0  0  0  0  0  0  0  0  0
    0.0292   17.3789    0.6036 H   0  0  0  0  0  0  0  0  0  0  0  0
    1.5735   17.2776   -0.3407 H   0  0  0  0  0  0  0  0  0  0  0  0
    0.3392   19.1963    1.2649 H   0  0  0  0  0  0  0  0  0  0  0  0
    4.1550   17.7925    1.6342 H   0  0  0  0  0  0  0  0  0  0  0  0
    3.2596   17.4260    0.1207 H   0  0  0  0  0  0  0  0  0  0  0  0
    4.5500   18.6757    0.1207 H   0  0  0  0  0  0  0  0  0  0  0  0
    2.8902   19.6956    3.1381 H   0  0  0  0  0  0  0  0  0  0  0  0
    4.1440   20.4643    2.1067 H   0  0  0  0  0  0  0  0  0  0  0  0
    2.4653   21.1036    2.1067 H   0  0  0  0  0  0  0  0  0  0  0  0
   -0.6976   16.3834   -2.4915 H   0  0  0  0  0  0  0  0  0  0  0  0
   -0.5926   16.1621   -4.8950 H   0  0  0  0  0  0  0  0  0  0  0  0
    1.0841   16.7466   -4.9531 H   0  0  0  0  0  0  0  0  0  0  0  0
    0.2647   14.0217   -5.2229 H   0  0  0  0  0  0  0  0  0  0  0  0
    1.9221   14.5272   -4.9055 H   0  0  0  0  0  0  0  0  0  0  0  0
   -1.0091   13.5944   -1.8775 H   0  0  0  0  0  0  0  0  0  0  0  0
   -1.3701   14.4293   -3.4265 H   0  0  0  0  0  0  0  0  0  0  0  0
   -0.9262   12.6887   -3.4265 H   0  0  0  0  0  0  0  0  0  0  0  0
    2.6863   13.2278   -3.0113 H   0  0  0  0  0  0  0  0  0  0  0  0
    1.1245   11.8618   -4.5391 H   0  0  0  0  0  0  0  0  0  0  0  0
    2.4426   11.0430   -3.5478 H   0  0  0  0  0  0  0  0  0  0  0  0
    0.1141    9.8138   -3.6340 H   0  0  0  0  0  0  0  0  0  0  0  0
   -0.2458   12.3638   -0.5248 H   0  0  0  0  0  0  0  0  0  0  0  0
    1.6958   10.1959    0.4867 H   0  0  0  0  0  0  0  0  0  0  0  0
    1.1149   11.6571    1.4029 H   0  0  0  0  0  0  0  0  0  0  0  0
   -0.0486    9.5890    2.1018 H   0  0  0  0  0  0  0  0  0  0  0  0
   -1.1592   10.8125    1.3696 H   0  0  0  0  0  0  0  0  0  0  0  0
   -1.7408    8.6432    0.5286 H   0  0  0  0  0  0  0  0  0  0  0  0
    1.0690    8.5350   -0.0000 H   0  0  0  0  0  0  0  0  0  0  0  0
   -2.6712   10.7171   -0.0716 H   0  0  0  0  0  0  0  0  0  0  0  0
   -2.2639   11.5243   -1.6238 H   0  0  0  0  0  0  0  0  0  0  0  0
   -3.2530   10.0249   -1.6238 H   0  0  0  0  0  0  0  0  0  0  0  0
   -1.7106    7.6387   -1.6420 H   0  0  0  0  0  0  0  0  0  0  0  0
   -2.3115    8.8259   -2.8486 H   0  0  0  0  0  0  0  0  0  0  0  0
   -0.5814    8.3427   -2.8486 H   0  0  0  0  0  0  0  0  0  0  0  0
    3.2930   11.7058    0.1598 H   0  0  0  0  0  0  0  0  0  0  0  0
    3.0785   10.8001   -1.3765 H   0  0  0  0  0  0  0  0  0  0  0  0
    3.9368   12.3780   -1.3765 H   0  0  0  0  0  0  0  0  0  0  0  0
    1.4684   13.5833    0.7185 H   0  0  0  0  0  0  0  0  0  0  0  0
    2.8484   14.1989   -0.3545 H   0  0  0  0  0  0  0  0  0  0  0  0
   -0.1102   14.7968   -0.6233 H   0  0  0  0  0  0  0  0  0  0  0  0
    1.2367   15.9271   -0.2034 H   0  0  0  0  0  0  0  0  0  0  0  0
    3.1580   15.8480   -1.4477 H   0  0  0  0  0  0  0  0  0  0  0  0
    3.2287   14.9364   -2.9938 H   0  0  0  0  0  0  0  0  0  0  0  0
    2.7560   16.6693   -2.9938 H   0  0  0  0  0  0  0  0  0  0  0  0
  1  2  1  0
  2  3  1  0
  3  4  1  0
  4  5  1  0
  5  6  1  0
  6  7  1  0
  7  8  1  0
  7  9  1  0
  2 10  1  0
 10 11  1  0
 11 12  1  0
 12 13  1  0
 13 14  1  1
 13 15  1  0
 15 16  1  0
 16 17  1  0
 17 18  2  0
 18 19  1  0
 19 20  1  0
 20 21  1  0
 21 22  1  0
 22 23  1  0
 22 24  1  0
 24 25  1  0
 24 26  1  0
 19 27  1  0
 27 28  1  6
 27 29  1  0
 29 30  1  0
 30 31  1  0
 31 32  1  1
  7  5  1  0
 31 10  1  0
 31 13  1  0
 27 15  1  0
 24 18  1  0
  1 33  1  0
  1 34  1  0
  1 35  1  0
  2 36  1  6
  3 37  1  0
  3 38  1  0
  4 39  1  0
  4 40  1  0
  5 41  1  1
  8 42  1  0
  8 43  1  0
  8 44  1  0
  9 45  1  0
  9 46  1  0
  9 47  1  0
 10 48  1  1
 11 49  1  0
 11 50  1  0
 12 51  1  0
 12 52  1  0
 14 53  1  0
 14 54  1  0
 14 55  1  0
 15 56  1  6
 16 57  1  0
 16 58  1  0
 17 59  1  0
 19 60  1  1
 20 61  1  0
 20 62  1  0
 21 63  1  0
 21 64  1  0
 22 65  1  1
 23 66  1  0
 25 67  1  0
 25 68  1  0
 25 69  1  0
 26 70  1  0
 26 71  1  0
 26 72  1  0
 28 73  1  0
 28 74  1  0
 28 75  1  0
 29 76  1  0
 29 77  1  0
 30 78  1  0
 30 79  1  0
 32 80  1  0
 32 81  1  0
 32 82  1  0
M  END
>  <meeko>  (4) 
{"is_sidechain": [false], "intermolecular_energy": 2.731, "internal_energy": -0.839}

$$$$
EPH_relaxed_0001_pdb2pqr_Repair_213_r2_0001_out
     RDKit          3D

 82 86  0  0  0  0  0  0  0  0999 V2000
   -3.4000    9.3130    0.5350 C   0  0  0  0  0  0  0  0  0  0  0  0
   -2.5740    9.6770   -0.7020 C   0  0  2  0  0  0  0  0  0  0  0  0
   -1.9080    8.4410   -1.3400 C   0  0  0  0  0  0  0  0  0  0  0  0
   -2.8270    7.6680   -2.2900 C   0  0  0  0  0  0  0  0  0  0  0  0
   -4.2640    7.7730   -1.8790 C   0  0  2  0  0  0  0  0  0  0  0  0
   -4.8120    6.5780   -1.3070 O   0  0  0  0  0  0  0  0  0  0  0  0
   -5.3850    7.0040   -2.5530 C   0  0  0  0  0  0  0  0  0  0  0  0
   -5.1170    6.0750   -3.6950 C   0  0  0  0  0  0  0  0  0  0  0  0
   -6.7840    7.5210   -2.4270 C   0  0  0  0  0  0  0  0  0  0  0  0
   -1.5140   10.7080   -0.3340 C   0  0  1  0  0  0  0  0  0  0  0  0
   -0.4130   10.1270    0.5930 C   0  0  0  0  0  0  0  0  0  0  0  0
    0.9170   10.8200    0.1970 C   0  0  0  0  0  0  0  0  0  0  0  0
    0.4870   12.0020   -0.7030 C   0  0  1  0  0  0  0  0  0  0  0  0
    0.0510   13.1250    0.2900 C   0  0  0  0  0  0  0  0  0  0  0  0
    1.5540   12.5170   -1.7240 C   0  0  2  0  0  0  0  0  0  0  0  0
    2.8380   13.0860   -1.0950 C   0  0  0  0  0  0  0  0  0  0  0  0
    2.8130   14.5510   -0.8100 C   0  0  0  0  0  0  0  0  0  0  0  0
    1.9210   15.4290   -1.3050 C   0  0  0  0  0  0  0  0  0  0  0  0
    0.8630   14.9870   -2.3240 C   0  0  1  0  0  0  0  0  0  0  0  0
    0.8090   16.0090   -3.4900 C   0  0  0  0  0  0  0  0  0  0  0  0
    0.5910   17.4390   -3.0050 C   0  0  0  0  0  0  0  0  0  0  0  0
    1.6950   17.8620   -2.0390 C   0  0  2  0  0  0  0  0  0  0  0  0
    2.9310   17.9360   -2.7550 O   0  0  0  0  0  0  0  0  0  0  0  0
    1.8500   16.9010   -0.8270 C   0  0  0  0  0  0  0  0  0  0  0  0
    0.6280   17.0480    0.1130 C   0  0  0  0  0  0  0  0  0  0  0  0
    3.0860   17.3600   -0.0080 C   0  0  0  0  0  0  0  0  0  0  0  0
    0.9750   13.4860   -2.8330 C   0  0  1  0  0  0  0  0  0  0  0  0
    1.9510   13.4070   -4.0460 C   0  0  0  0  0  0  0  0  0  0  0  0
   -0.4310   13.0170   -3.3630 C   0  0  0  0  0  0  0  0  0  0  0  0
   -1.3960   12.4070   -2.3280 C   0  0  0  0  0  0  0  0  0  0  0  0
   -0.6950   11.3310   -1.4920 C   0  0  2  0  0  0  0  0  0  0  0  0
   -0.2650   10.1780   -2.4620 C   0  0  0  0  0  0  0  0  0  0  0  0
   -2.8312    9.5637    1.4425 H   0  0  0  0  0  0  0  0  0  0  0  0
   -4.3433    9.8788    0.5255 H   0  0  0  0  0  0  0  0  0  0  0  0
   -3.6189    8.2350    0.5255 H   0  0  0  0  0  0  0  0  0  0  0  0
   -3.2631   10.1018   -1.4468 H   0  0  0  0  0  0  0  0  0  0  0  0
   -1.0257    8.7751   -1.9057 H   0  0  0  0  0  0  0  0  0  0  0  0
   -1.6461    7.7573   -0.5190 H   0  0  0  0  0  0  0  0  0  0  0  0
   -2.7158    8.0772   -3.3050 H   0  0  0  0  0  0  0  0  0  0  0  0
   -2.5382    6.6071   -2.2586 H   0  0  0  0  0  0  0  0  0  0  0  0
   -4.1416    8.8391   -1.6374 H   0  0  0  0  0  0  0  0  0  0  0  0
   -4.8319    5.0869   -3.3047 H   0  0  0  0  0  0  0  0  0  0  0  0
   -6.0240    5.9787   -4.3099 H   0  0  0  0  0  0  0  0  0  0  0  0
   -4.2981    6.4765   -4.3099 H   0  0  0  0  0  0  0  0  0  0  0  0
   -7.0448    7.6174   -1.3627 H   0  0  0  0  0  0  0  0  0  0  0  0
   -6.8563    8.5052   -2.9128 H   0  0  0  0  0  0  0  0  0  0  0  0
   -7.4790    6.8203   -2.9128 H   0  0  0  0  0  0  0  0  0  0  0  0
   -2.1542   11.4737    0.1284 H   0  0  0  0  0  0  0  0  0  0  0  0
   -0.6525   10.3401    1.6452 H   0  0  0  0  0  0  0  0  0  0  0  0
   -0.3381    9.0353    0.4811 H   0  0  0  0  0  0  0  0  0  0  0  0
    1.4462   11.1841    1.0899 H   0  0  0  0  0  0  0  0  0  0  0  0
    1.6083   10.1349   -0.3156 H   0  0  0  0  0  0  0  0  0  0  0  0
    0.1873   12.7738    1.3235 H   0  0  0  0  0  0  0  0  0  0  0  0
    0.6665   14.0213    0.1231 H   0  0  0  0  0  0  0  0  0  0  0  0
   -1.0080   13.3712    0.1231 H   0  0  0  0  0  0  0  0  0  0  0  0
    1.8570   11.5915   -2.2354 H   0  0  0  0  0  0  0  0  0  0  0  0
    3.0146   12.5581   -0.1463 H   0  0  0  0  0  0  0  0  0  0  0  0
    3.6344   12.9340   -1.8384 H   0  0  0  0  0  0  0  0  0  0  0  0
    3.5893   14.9465   -0.1386 H   0  0  0  0  0  0  0  0  0  0  0  0
   -0.0960   14.9841   -1.7851 H   0  0  0  0  0  0  0  0  0  0  0  0
    1.7595   15.9649   -4.0419 H   0  0  0  0  0  0  0  0  0  0  0  0
   -0.0439   15.7400   -4.1305 H   0  0  0  0  0  0  0  0  0  0  0  0
    0.5915   18.1169   -3.8713 H   0  0  0  0  0  0  0  0  0  0  0  0
   -0.3737   17.4879   -2.4787 H   0  0  0  0  0  0  0  0  0  0  0  0
    1.4150   18.8430   -1.6277 H   0  0  0  0  0  0  0  0  0  0  0  0
    3.1090   17.0560   -3.1280 H   0  0  0  0  0  0  0  0  0  0  0  0
    0.9637   17.0076    1.1598 H   0  0  0  0  0  0  0  0  0  0  0  0
    0.1335   18.0121   -0.0766 H   0  0  0  0  0  0  0  0  0  0  0  0
   -0.0811   16.2287   -0.0766 H   0  0  0  0  0  0  0  0  0  0  0  0
    2.8650   17.2779    1.0664 H   0  0  0  0  0  0  0  0  0  0  0  0
    3.9472   16.7217   -0.2550 H   0  0  0  0  0  0  0  0  0  0  0  0
    3.3218   18.4056   -0.2550 H   0  0  0  0  0  0  0  0  0  0  0  0
    2.9849   13.3233   -3.6799 H   0  0  0  0  0  0  0  0  0  0  0  0
    1.7059   12.5258   -4.6570 H   0  0  0  0  0  0  0  0  0  0  0  0
    1.8509   14.3162   -4.6570 H   0  0  0  0  0  0  0  0  0  0  0  0
   -0.9284   13.8923   -3.8062 H   0  0  0  0  0  0  0  0  0  0  0  0
   -0.2148   12.2023   -4.0698 H   0  0  0  0  0  0  0  0  0  0  0  0
   -1.7574   13.2029   -1.6602 H   0  0  0  0  0  0  0  0  0  0  0  0
   -2.2370   11.9424   -2.8637 H   0  0  0  0  0  0  0  0  0  0  0  0
    0.0600    9.3067   -1.8745 H   0  0  0  0  0  0  0  0  0  0  0  0
   -1.1181    9.8951   -3.0962 H   0  0  0  0  0  0  0  0  0  0  0  0
    0.5650   10.5228   -3.0962 H   0  0  0  0  0  0  0  0  0  0  0  0
  1  2  1  0
  2  3  1  0
  3  4  1  0
  4  5  1  0
  5  6  1  0
  6  7  1  0
  7  8  1  0
  7  9  1  0
  2 10  1  0
 10 11  1  0
 11 12  1  0
 12 13  1  0
 13 14  1  1
 13 15  1  0
 15 16  1  0
 16 17  1  0
 17 18  2  0
 18 19  1  0
 19 20  1  0
 20 21  1  0
 21 22  1  0
 22 23  1  0
 22 24  1  0
 24 25  1  0
 24 26  1  0
 19 27  1  0
 27 28  1  6
 27 29  1  0
 29 30  1  0
 30 31  1  0
 31 32  1  6
  7  5  1  0
 31 10  1  0
 31 13  1  0
 27 15  1  0
 24 18  1  0
  1 33  1  0
  1 34  1  0
  1 35  1  0
  2 36  1  6
  3 37  1  0
  3 38  1  0
  4 39  1  0
  4 40  1  0
  5 41  1  1
  8 42  1  0
  8 43  1  0
  8 44  1  0
  9 45  1  0
  9 46  1  0
  9 47  1  0
 10 48  1  1
 11 49  1  0
 11 50  1  0
 12 51  1  0
 12 52  1  0
 14 53  1  0
 14 54  1  0
 14 55  1  0
 15 56  1  6
 16 57  1  0
 16 58  1  0
 17 59  1  0
 19 60  1  1
 20 61  1  0
 20 62  1  0
 21 63  1  0
 21 64  1  0
 22 65  1  1
 23 66  1  0
 25 67  1  0
 25 68  1  0
 25 69  1  0
 26 70  1  0
 26 71  1  0
 26 72  1  0
 28 73  1  0
 28 74  1  0
 28 75  1  0
 29 76  1  0
 29 77  1  0
 30 78  1  0
 30 79  1  0
 32 80  1  0
 32 81  1  0
 32 82  1  0
M  END
>  <meeko>  (5) 
{"is_sidechain": [false], "intermolecular_energy": 2.731, "internal_energy": -0.839}

$$$$
EPH_relaxed_0001_pdb2pqr_Repair_213_r2_0001_out
     RDKit          3D

 82 86  0  0  0  0  0  0  0  0999 V2000
   -5.1530    5.8510   -1.7730 C   0  0  0  0  0  0  0  0  0  0  0  0
   -5.4580    7.3510   -1.8160 C   0  0  2  0  0  0  0  0  0  0  0  0
   -5.2380    8.0270   -0.4470 C   0  0  0  0  0  0  0  0  0  0  0  0
   -4.1980    9.1500   -0.4760 C   0  0  0  0  0  0  0  0  0  0  0  0
   -2.8220    8.6250   -0.7560 C   0  0  2  0  0  0  0  0  0  0  0  0
   -1.8320    8.9930    0.2140 O   0  0  0  0  0  0  0  0  0  0  0  0
   -1.6440    9.5130   -1.1120 C   0  0  0  0  0  0  0  0  0  0  0  0
   -1.7890   10.9990   -1.2090 C   0  0  0  0  0  0  0  0  0  0  0  0
   -0.4850    8.9060   -1.8390 C   0  0  0  0  0  0  0  0  0  0  0  0
   -6.8900    7.5770   -2.2840 C   0  0  1  0  0  0  0  0  0  0  0  0
   -7.1960    6.8730   -3.6330 C   0  0  0  0  0  0  0  0  0  0  0  0
   -8.6720    6.4040   -3.5680 C   0  0  0  0  0  0  0  0  0  0  0  0
   -9.2600    7.1350   -2.3380 C   0  0  1  0  0  0  0  0  0  0  0  0
   -9.6060    8.5680   -2.8520 C   0  0  0  0  0  0  0  0  0  0  0  0
  -10.4900    6.4560   -1.6520 C   0  0  2  0  0  0  0  0  0  0  0  0
  -11.7420    6.3270   -2.5370 C   0  0  0  0  0  0  0  0  0  0  0  0
  -12.6930    7.4750   -2.4670 C   0  0  0  0  0  0  0  0  0  0  0  0
  -12.6970    8.4310   -1.5190 C   0  0  0  0  0  0  0  0  0  0  0  0
  -11.7350    8.3610   -0.3250 C   0  0  1  0  0  0  0  0  0  0  0  0
  -12.5140    8.6510    0.9850 C   0  0  0  0  0  0  0  0  0  0  0  0
  -13.2800    9.9690    0.9300 C   0  0  0  0  0  0  0  0  0  0  0  0
  -14.2670    9.9790   -0.2350 C   0  0  2  0  0  0  0  0  0  0  0  0
  -15.2870    9.0080    0.0190 O   0  0  0  0  0  0  0  0  0  0  0  0
  -13.5980    9.6870   -1.6070 C   0  0  0  0  0  0  0  0  0  0  0  0
  -12.7160   10.8910   -2.0220 C   0  0  0  0  0  0  0  0  0  0  0  0
  -14.7220    9.5850   -2.6740 C   0  0  0  0  0  0  0  0  0  0  0  0
  -10.8460    7.0470   -0.2280 C   0  0  1  0  0  0  0  0  0  0  0  0
  -11.6250    5.9320    0.5340 C   0  0  0  0  0  0  0  0  0  0  0  0
   -9.5620    7.3570    0.6290 C   0  0  0  0  0  0  0  0  0  0  0  0
   -8.3410    7.9150   -0.1260 C   0  0  0  0  0  0  0  0  0  0  0  0
   -8.0280    7.0690   -1.3640 C   0  0  2  0  0  0  0  0  0  0  0  0
   -7.6550    5.6280   -0.8770 C   0  0  0  0  0  0  0  0  0  0  0  0
   -5.0858    5.5204   -0.7260 H   0  0  0  0  0  0  0  0  0  0  0  0
   -5.9572    5.2986   -2.2810 H   0  0  0  0  0  0  0  0  0  0  0  0
   -4.1969    5.6565   -2.2810 H   0  0  0  0  0  0  0  0  0  0  0  0
   -4.7575    7.8112   -2.5284 H   0  0  0  0  0  0  0  0  0  0  0  0
   -6.1962    8.4495   -0.1102 H   0  0  0  0  0  0  0  0  0  0  0  0
   -4.8574    7.2536    0.2363 H   0  0  0  0  0  0  0  0  0  0  0  0
   -4.4718    9.8691   -1.2620 H   0  0  0  0  0  0  0  0  0  0  0  0
   -4.1863    9.6318    0.5128 H   0  0  0  0  0  0  0  0  0  0  0  0
   -3.2369    7.7239   -1.2312 H   0  0  0  0  0  0  0  0  0  0  0  0
   -1.8311   11.4301   -0.1979 H   0  0  0  0  0  0  0  0  0  0  0  0
   -0.9274   11.4169   -1.7502 H   0  0  0  0  0  0  0  0  0  0  0  0
   -2.7152   11.2425   -1.7502 H   0  0  0  0  0  0  0  0  0  0  0  0
    0.2452    8.5236   -1.1106 H   0  0  0  0  0  0  0  0  0  0  0  0
   -0.8409    8.0785   -2.4704 H   0  0  0  0  0  0  0  0  0  0  0  0
   -0.0075    9.6698   -2.4704 H   0  0  0  0  0  0  0  0  0  0  0  0
   -6.8997    8.6763   -2.3218 H   0  0  0  0  0  0  0  0  0  0  0  0
   -7.0585    7.5767   -4.4672 H   0  0  0  0  0  0  0  0  0  0  0  0
   -6.5182    6.0224   -3.7972 H   0  0  0  0  0  0  0  0  0  0  0  0
   -9.2108    6.6894   -4.4836 H   0  0  0  0  0  0  0  0  0  0  0  0
   -8.7590    5.3106   -3.4844 H   0  0  0  0  0  0  0  0  0  0  0  0
   -9.7674    9.2365   -1.9934 H   0  0  0  0  0  0  0  0  0  0  0  0
   -8.7741    8.9494   -3.4624 H   0  0  0  0  0  0  0  0  0  0  0  0
  -10.5202    8.5278   -3.4624 H   0  0  0  0  0  0  0  0  0  0  0  0
  -10.1323    5.4284   -1.4902 H   0  0  0  0  0  0  0  0  0  0  0  0
  -11.4111    6.2229   -3.5809 H   0  0  0  0  0  0  0  0  0  0  0  0
  -12.2924    5.4524   -2.1600 H   0  0  0  0  0  0  0  0  0  0  0  0
  -13.4553    7.5461   -3.2569 H   0  0  0  0  0  0  0  0  0  0  0  0
  -10.9828    9.1458   -0.4934 H   0  0  0  0  0  0  0  0  0  0  0  0
  -13.2299    7.8339    1.1578 H   0  0  0  0  0  0  0  0  0  0  0  0
  -11.7799    8.7251    1.8008 H   0  0  0  0  0  0  0  0  0  0  0  0
  -13.8330   10.1034    1.8713 H   0  0  0  0  0  0  0  0  0  0  0  0
  -12.5596   10.7878    0.7865 H   0  0  0  0  0  0  0  0  0  0  0  0
  -14.6896   10.9924   -0.3019 H   0  0  0  0  0  0  0  0  0  0  0  0
  -15.9250    9.0540   -0.7140 H   0  0  0  0  0  0  0  0  0  0  0  0
  -12.3431   11.4001   -1.1210 H   0  0  0  0  0  0  0  0  0  0  0  0
  -11.8648   10.5332   -2.6198 H   0  0  0  0  0  0  0  0  0  0  0  0
  -13.3139   11.5947   -2.6198 H   0  0  0  0  0  0  0  0  0  0  0  0
  -15.6969    9.4965   -2.1723 H   0  0  0  0  0  0  0  0  0  0  0  0
  -14.7137   10.4876   -3.3027 H   0  0  0  0  0  0  0  0  0  0  0  0
  -14.5514    8.6986   -3.3027 H   0  0  0  0  0  0  0  0  0  0  0  0
  -11.5179    6.0853    1.6180 H   0  0  0  0  0  0  0  0  0  0  0  0
  -12.6896    5.9764    0.2608 H   0  0  0  0  0  0  0  0  0  0  0  0
  -11.2171    4.9476    0.2608 H   0  0  0  0  0  0  0  0  0  0  0  0
   -9.8438    8.0932    1.3962 H   0  0  0  0  0  0  0  0  0  0  0  0
   -9.2365    6.3827    1.0224 H   0  0  0  0  0  0  0  0  0  0  0  0
   -8.5533    8.9476   -0.4401 H   0  0  0  0  0  0  0  0  0  0  0  0
   -7.4707    7.8881    0.5462 H   0  0  0  0  0  0  0  0  0  0  0  0
   -7.6485    5.6028    0.2227 H   0  0  0  0  0  0  0  0  0  0  0  0
   -8.3968    4.9095   -1.2558 H   0  0  0  0  0  0  0  0  0  0  0  0
   -6.6578    5.3596   -1.2558 H   0  0  0  0  0  0  0  0  0  0  0  0
  1  2  1  0
  2  3  1  0
  3  4  1  0
  4  5  1  0
  5  6  1  0
  6  7  1  0
  7  8  1  0
  7  9  1  0
  2 10  1  0
 10 11  1  0
 11 12  1  0
 12 13  1  0
 13 14  1  6
 13 15  1  0
 15 16  1  0
 16 17  1  0
 17 18  2  0
 18 19  1  0
 19 20  1  0
 20 21  1  0
 21 22  1  0
 22 23  1  0
 22 24  1  0
 24 25  1  0
 24 26  1  0
 19 27  1  0
 27 28  1  1
 27 29  1  0
 29 30  1  0
 30 31  1  0
 31 32  1  1
  7  5  1  0
 31 10  1  0
 31 13  1  0
 27 15  1  0
 24 18  1  0
  1 33  1  0
  1 34  1  0
  1 35  1  0
  2 36  1  6
  3 37  1  0
  3 38  1  0
  4 39  1  0
  4 40  1  0
  5 41  1  6
  8 42  1  0
  8 43  1  0
  8 44  1  0
  9 45  1  0
  9 46  1  0
  9 47  1  0
 10 48  1  6
 11 49  1  0
 11 50  1  0
 12 51  1  0
 12 52  1  0
 14 53  1  0
 14 54  1  0
 14 55  1  0
 15 56  1  1
 16 57  1  0
 16 58  1  0
 17 59  1  0
 19 60  1  6
 20 61  1  0
 20 62  1  0
 21 63  1  0
 21 64  1  0
 22 65  1  6
 23 66  1  0
 25 67  1  0
 25 68  1  0
 25 69  1  0
 26 70  1  0
 26 71  1  0
 26 72  1  0
 28 73  1  0
 28 74  1  0
 28 75  1  0
 29 76  1  0
 29 77  1  0
 30 78  1  0
 30 79  1  0
 32 80  1  0
 32 81  1  0
 32 82  1  0
M  END
>  <meeko>  (6) 
{"is_sidechain": [false], "intermolecular_energy": 2.731, "internal_energy": -0.839}

$$$$
EPH_relaxed_0001_pdb2pqr_Repair_213_r2_0001_out
     RDKit          3D

 82 86  0  0  0  0  0  0  0  0999 V2000
    0.4160    8.8840   -2.5200 C   0  0  0  0  0  0  0  0  0  0  0  0
    1.1790   10.0440   -3.1650 C   0  0  2  0  0  0  0  0  0  0  0  0
    2.6720   10.0440   -2.7780 C   0  0  0  0  0  0  0  0  0  0  0  0
    3.5880   10.6240   -3.8590 C   0  0  0  0  0  0  0  0  0  0  0  0
    4.9830   10.8310   -3.3520 C   0  0  2  0  0  0  0  0  0  0  0  0
    5.6090   12.0400   -3.7990 O   0  0  0  0  0  0  0  0  0  0  0  0
    6.2090   10.8130   -4.2450 C   0  0  0  0  0  0  0  0  0  0  0  0
    6.0970   10.5810   -5.7190 C   0  0  0  0  0  0  0  0  0  0  0  0
    7.5420   10.5330   -3.6240 C   0  0  0  0  0  0  0  0  0  0  0  0
    0.5400   11.3700   -2.7690 C   0  0  1  0  0  0  0  0  0  0  0  0
   -0.8330   11.1860   -2.0700 C   0  0  0  0  0  0  0  0  0  0  0  0
   -0.9460   12.3060   -1.0040 C   0  0  0  0  0  0  0  0  0  0  0  0
    0.2000   13.2870   -1.3460 C   0  0  1  0  0  0  0  0  0  0  0  0
   -0.3570   14.1650   -2.5090 C   0  0  0  0  0  0  0  0  0  0  0  0
    0.7350   14.1630   -0.1660 C   0  0  2  0  0  0  0  0  0  0  0  0
   -0.2940   15.1270    0.4490 C   0  0  0  0  0  0  0  0  0  0  0  0
   -0.3440   16.4860   -0.1670 C   0  0  0  0  0  0  0  0  0  0  0  0
    0.5930   17.0110   -0.9780 C   0  0  0  0  0  0  0  0  0  0  0  0
    1.8940   16.2540   -1.2730 C   0  0  1  0  0  0  0  0  0  0  0  0
    3.0990   17.2210   -1.1320 C   0  0  0  0  0  0  0  0  0  0  0  0
    2.9470   18.4750   -1.9870 C   0  0  0  0  0  0  0  0  0  0  0  0
    1.6720   19.2310   -1.6240 C   0  0  2  0  0  0  0  0  0  0  0  0
    1.8030   19.7460   -0.2960 O   0  0  0  0  0  0  0  0  0  0  0  0
    0.3910   18.3550   -1.7210 C   0  0  0  0  0  0  0  0  0  0  0  0
    0.0820   18.0470   -3.2070 C   0  0  0  0  0  0  0  0  0  0  0  0
   -0.8030   19.1950   -1.1940 C   0  0  0  0  0  0  0  0  0  0  0  0
    2.1030   14.8970   -0.4730 C   0  0  1  0  0  0  0  0  0  0  0  0
    2.7700   15.1900    0.9060 C   0  0  0  0  0  0  0  0  0  0  0  0
    3.1090   13.9820   -1.2670 C   0  0  0  0  0  0  0  0  0  0  0  0
    2.5050   13.0510   -2.3360 C   0  0  0  0  0  0  0  0  0  0  0  0
    1.3170   12.2660   -1.7730 C   0  0  2  0  0  0  0  0  0  0  0  0
    1.8510   11.3560   -0.6140 C   0  0  0  0  0  0  0  0  0  0  0  0
    0.4734    8.9712   -1.4250 H   0  0  0  0  0  0  0  0  0  0  0  0
   -0.6372    8.9172   -2.8358 H   0  0  0  0  0  0  0  0  0  0  0  0
    0.8636    7.9301   -2.8358 H   0  0  0  0  0  0  0  0  0  0  0  0
    1.1200    9.9127   -4.2555 H   0  0  0  0  0  0  0  0  0  0  0  0
    2.7935   10.6417   -1.8626 H   0  0  0  0  0  0  0  0  0  0  0  0
    2.9673    8.9939   -2.6359 H   0  0  0  0  0  0  0  0  0  0  0  0
    3.6180    9.9290   -4.7111 H   0  0  0  0  0  0  0  0  0  0  0  0
    3.1848   11.6018   -4.1613 H   0  0  0  0  0  0  0  0  0  0  0  0
    4.7453   10.3063   -2.4149 H   0  0  0  0  0  0  0  0  0  0  0  0
    5.6254    9.6041   -5.9016 H   0  0  0  0  0  0  0  0  0  0  0  0
    5.4828   11.3746   -6.1695 H   0  0  0  0  0  0  0  0  0  0  0  0
    7.1005   10.5937   -6.1695 H   0  0  0  0  0  0  0  0  0  0  0  0
    7.4475   10.5529   -2.5282 H   0  0  0  0  0  0  0  0  0  0  0  0
    7.8944    9.5412   -3.9437 H   0  0  0  0  0  0  0  0  0  0  0  0
    8.2637   11.2992   -3.9437 H   0  0  0  0  0  0  0  0  0  0  0  0
    0.4974   11.8550   -3.7554 H   0  0  0  0  0  0  0  0  0  0  0  0
   -1.6471   11.2782   -2.8040 H   0  0  0  0  0  0  0  0  0  0  0  0
   -0.9104   10.1911   -1.6072 H   0  0  0  0  0  0  0  0  0  0  0  0
   -1.9216   12.8097   -1.0718 H   0  0  0  0  0  0  0  0  0  0  0  0
   -0.8687   11.9154    0.0214 H   0  0  0  0  0  0  0  0  0  0  0  0
   -0.9021   15.0242   -2.0911 H   0  0  0  0  0  0  0  0  0  0  0  0
    0.4776   14.5261   -3.1280 H   0  0  0  0  0  0  0  0  0  0  0  0
   -1.0392   13.5638   -3.1280 H   0  0  0  0  0  0  0  0  0  0  0  0
    0.9425   13.4122    0.6107 H   0  0  0  0  0  0  0  0  0  0  0  0
   -1.2898   14.6710    0.3471 H   0  0  0  0  0  0  0  0  0  0  0  0
    0.0174   15.2780    1.4931 H   0  0  0  0  0  0  0  0  0  0  0  0
   -1.2202   17.1107    0.0611 H   0  0  0  0  0  0  0  0  0  0  0  0
    1.8146   15.9063   -2.3136 H   0  0  0  0  0  0  0  0  0  0  0  0
    3.1879   17.5219   -0.0777 H   0  0  0  0  0  0  0  0  0  0  0  0
    3.9967   16.6879   -1.4785 H   0  0  0  0  0  0  0  0  0  0  0  0
    3.8142   19.1311   -1.8212 H   0  0  0  0  0  0  0  0  0  0  0  0
    2.8885   18.1747   -3.0436 H   0  0  0  0  0  0  0  0  0  0  0  0
    1.5519   20.0441   -2.3550 H   0  0  0  0  0  0  0  0  0  0  0  0
    1.9930   20.6970   -0.3660 H   0  0  0  0  0  0  0  0  0  0  0  0
   -0.6959   17.2716   -3.2667 H   0  0  0  0  0  0  0  0  0  0  0  0
   -0.2728   18.9614   -3.7049 H   0  0  0  0  0  0  0  0  0  0  0  0
    0.9953   17.6892   -3.7049 H   0  0  0  0  0  0  0  0  0  0  0  0
   -0.7971   19.1908   -0.0940 H   0  0  0  0  0  0  0  0  0  0  0  0
   -0.7123   20.2293   -1.5572 H   0  0  0  0  0  0  0  0  0  0  0  0
   -1.7459   18.7602   -1.5572 H   0  0  0  0  0  0  0  0  0  0  0  0
    2.0873   14.8901    1.7146 H   0  0  0  0  0  0  0  0  0  0  0  0
    3.7078   14.6210    0.9880 H   0  0  0  0  0  0  0  0  0  0  0  0
    2.9854   16.2656    0.9880 H   0  0  0  0  0  0  0  0  0  0  0  0
    3.8325   14.6407   -1.7696 H   0  0  0  0  0  0  0  0  0  0  0  0
    3.5444   13.3102   -0.5126 H   0  0  0  0  0  0  0  0  0  0  0  0
    2.1643   13.6563   -3.1890 H   0  0  0  0  0  0  0  0  0  0  0  0
    3.2778   12.3360   -2.6547 H   0  0  0  0  0  0  0  0  0  0  0  0
    1.5878   11.8045    0.3553 H   0  0  0  0  0  0  0  0  0  0  0  0
    1.3954   10.3578   -0.6919 H   0  0  0  0  0  0  0  0  0  0  0  0
    2.9446   11.2670   -0.6919 H   0  0  0  0  0  0  0  0  0  0  0  0
  1  2  1  0
  2  3  1  0
  3  4  1  0
  4  5  1  0
  5  6  1  0
  6  7  1  0
  7  8  1  0
  7  9  1  0
  2 10  1  0
 10 11  1  0
 11 12  1  0
 12 13  1  0
 13 14  1  6
 13 15  1  0
 15 16  1  0
 16 17  1  0
 17 18  2  0
 18 19  1  0
 19 20  1  0
 20 21  1  0
 21 22  1  0
 22 23  1  0
 22 24  1  0
 24 25  1  0
 24 26  1  0
 19 27  1  0
 27 28  1  1
 27 29  1  0
 29 30  1  0
 30 31  1  0
 31 32  1  1
  7  5  1  0
 31 10  1  0
 31 13  1  0
 27 15  1  0
 24 18  1  0
  1 33  1  0
  1 34  1  0
  1 35  1  0
  2 36  1  6
  3 37  1  0
  3 38  1  0
  4 39  1  0
  4 40  1  0
  5 41  1  1
  8 42  1  0
  8 43  1  0
  8 44  1  0
  9 45  1  0
  9 46  1  0
  9 47  1  0
 10 48  1  6
 11 49  1  0
 11 50  1  0
 12 51  1  0
 12 52  1  0
 14 53  1  0
 14 54  1  0
 14 55  1  0
 15 56  1  1
 16 57  1  0
 16 58  1  0
 17 59  1  0
 19 60  1  6
 20 61  1  0
 20 62  1  0
 21 63  1  0
 21 64  1  0
 22 65  1  6
 23 66  1  0
 25 67  1  0
 25 68  1  0
 25 69  1  0
 26 70  1  0
 26 71  1  0
 26 72  1  0
 28 73  1  0
 28 74  1  0
 28 75  1  0
 29 76  1  0
 29 77  1  0
 30 78  1  0
 30 79  1  0
 32 80  1  0
 32 81  1  0
 32 82  1  0
M  END
>  <meeko>  (7) 
{"is_sidechain": [false], "intermolecular_energy": 2.731, "internal_energy": -0.839}

$$$$
EPH_relaxed_0001_pdb2pqr_Repair_213_r2_0001_out
     RDKit          3D

 82 86  0  0  0  0  0  0  0  0999 V2000
    3.6400   17.6780    0.3700 C   0  0  0  0  0  0  0  0  0  0  0  0
    2.7840   17.5320   -0.8920 C   0  0  2  0  0  0  0  0  0  0  0  0
    2.1020   18.8570   -1.2880 C   0  0  0  0  0  0  0  0  0  0  0  0
    1.9930   19.8610   -0.1370 C   0  0  0  0  0  0  0  0  0  0  0  0
    0.6410   19.8200    0.5090 C   0  0  2  0  0  0  0  0  0  0  0  0
   -0.0650   18.5840    0.3410 O   0  0  0  0  0  0  0  0  0  0  0  0
   -0.6570   19.7400   -0.2730 C   0  0  0  0  0  0  0  0  0  0  0  0
   -0.6660   19.6970   -1.7690 C   0  0  0  0  0  0  0  0  0  0  0  0
   -1.9200   20.1940    0.3890 C   0  0  0  0  0  0  0  0  0  0  0  0
    1.7340   16.4470   -0.6850 C   0  0  1  0  0  0  0  0  0  0  0  0
    0.2840   16.9880   -0.8060 C   0  0  0  0  0  0  0  0  0  0  0  0
   -0.5620   15.8600   -1.4520 C   0  0  0  0  0  0  0  0  0  0  0  0
    0.3390   14.6050   -1.3750 C   0  0  1  0  0  0  0  0  0  0  0  0
    0.1640   14.0750    0.0830 C   0  0  0  0  0  0  0  0  0  0  0  0
    0.0600   13.4880   -2.4320 C   0  0  2  0  0  0  0  0  0  0  0  0
   -1.3360   12.8460   -2.3510 C   0  0  0  0  0  0  0  0  0  0  0  0
   -1.4360   11.6450   -1.4700 C   0  0  0  0  0  0  0  0  0  0  0  0
   -0.3950   10.9330   -0.9980 C   0  0  0  0  0  0  0  0  0  0  0  0
    1.0410   11.2610   -1.4250 C   0  0  1  0  0  0  0  0  0  0  0  0
    1.7800    9.9500   -1.8040 C   0  0  0  0  0  0  0  0  0  0  0  0
    1.7250    8.9050   -0.6940 C   0  0  0  0  0  0  0  0  0  0  0  0
    0.2800    8.5640   -0.3380 C   0  0  2  0  0  0  0  0  0  0  0  0
   -0.3240    7.9010   -1.4520 O   0  0  0  0  0  0  0  0  0  0  0  0
   -0.5650    9.8080    0.0520 C   0  0  0  0  0  0  0  0  0  0  0  0
   -0.0940   10.3480    1.4250 C   0  0  0  0  0  0  0  0  0  0  0  0
   -2.0340    9.3440    0.2500 C   0  0  0  0  0  0  0  0  0  0  0  0
    1.1950   12.3910   -2.5320 C   0  0  1  0  0  0  0  0  0  0  0  0
    1.0830   11.7610   -3.9540 C   0  0  0  0  0  0  0  0  0  0  0  0
    2.6390   13.0130   -2.4340 C   0  0  0  0  0  0  0  0  0  0  0  0
    2.8230   14.1910   -1.4590 C   0  0  0  0  0  0  0  0  0  0  0  0
    1.7400   15.2530   -1.6720 C   0  0  2  0  0  0  0  0  0  0  0  0
    1.9050   15.8210   -3.1230 C   0  0  0  0  0  0  0  0  0  0  0  0
    3.0027   17.5693    1.2599 H   0  0  0  0  0  0  0  0  0  0  0  0
    4.4170   16.8994    0.3781 H   0  0  0  0  0  0  0  0  0  0  0  0
    4.1150   18.6701    0.3781 H   0  0  0  0  0  0  0  0  0  0  0  0
    3.4551   17.2475   -1.7159 H   0  0  0  0  0  0  0  0  0  0  0  0
    2.6852   19.3193   -2.0980 H   0  0  0  0  0  0  0  0  0  0  0  0
    1.0758   18.6104   -1.5978 H   0  0  0  0  0  0  0  0  0  0  0  0
    2.7562   19.6217    0.6182 H   0  0  0  0  0  0  0  0  0  0  0  0
    2.1465   20.8702   -0.5469 H   0  0  0  0  0  0  0  0  0  0  0  0
    0.9781   20.4910    1.3128 H   0  0  0  0  0  0  0  0  0  0  0  0
   -0.8806   18.6718   -2.1051 H   0  0  0  0  0  0  0  0  0  0  0  0
   -1.4411   20.3778   -2.1507 H   0  0  0  0  0  0  0  0  0  0  0  0
    0.3171   20.0098   -2.1507 H   0  0  0  0  0  0  0  0  0  0  0  0
   -1.7977   20.1500    1.4813 H   0  0  0  0  0  0  0  0  0  0  0  0
   -2.1415   21.2280    0.0862 H   0  0  0  0  0  0  0  0  0  0  0  0
   -2.7491   19.5376    0.0862 H   0  0  0  0  0  0  0  0  0  0  0  0
    2.0191   16.1046    0.3207 H   0  0  0  0  0  0  0  0  0  0  0  0
   -0.1122   17.2357    0.1898 H   0  0  0  0  0  0  0  0  0  0  0  0
    0.2535   17.9031   -1.4157 H   0  0  0  0  0  0  0  0  0  0  0  0
   -1.4947   15.7037   -0.8902 H   0  0  0  0  0  0  0  0  0  0  0  0
   -0.8578   16.0989   -2.4842 H   0  0  0  0  0  0  0  0  0  0  0  0
    0.4266   14.8702    0.7962 H   0  0  0  0  0  0  0  0  0  0  0  0
   -0.8818   13.7723    0.2400 H   0  0  0  0  0  0  0  0  0  0  0  0
    0.8239   13.2091    0.2400 H   0  0  0  0  0  0  0  0  0  0  0  0
    0.0758   14.0505   -3.3772 H   0  0  0  0  0  0  0  0  0  0  0  0
   -2.0373   13.6043   -1.9726 H   0  0  0  0  0  0  0  0  0  0  0  0
   -1.5699   12.4975   -3.3678 H   0  0  0  0  0  0  0  0  0  0  0  0
   -2.4447   11.3138   -1.1822 H   0  0  0  0  0  0  0  0  0  0  0  0
    1.5215   11.7209   -0.5489 H   0  0  0  0  0  0  0  0  0  0  0  0
    1.3125    9.5302   -2.7069 H   0  0  0  0  0  0  0  0  0  0  0  0
    2.8375   10.2004   -1.9744 H   0  0  0  0  0  0  0  0  0  0  0  0
    2.2374    7.9925   -1.0327 H   0  0  0  0  0  0  0  0  0  0  0  0
    2.2198    9.3145    0.1991 H   0  0  0  0  0  0  0  0  0  0  0  0
    0.3030    7.9119    0.5475 H   0  0  0  0  0  0  0  0  0  0  0  0
   -0.1440    8.4340   -2.2450 H   0  0  0  0  0  0  0  0  0  0  0  0
   -0.5868    9.7830    2.2299 H   0  0  0  0  0  0  0  0  0  0  0  0
    0.9965   10.2319    1.5101 H   0  0  0  0  0  0  0  0  0  0  0  0
   -0.3572   11.4127    1.5101 H   0  0  0  0  0  0  0  0  0  0  0  0
   -2.2547    9.2743    1.3254 H   0  0  0  0  0  0  0  0  0  0  0  0
   -2.7143   10.0710   -0.2176 H   0  0  0  0  0  0  0  0  0  0  0  0
   -2.1733    8.3581   -0.2176 H   0  0  0  0  0  0  0  0  0  0  0  0
    0.8911   10.6817   -3.8628 H   0  0  0  0  0  0  0  0  0  0  0  0
    0.2552   12.2356   -4.5012 H   0  0  0  0  0  0  0  0  0  0  0  0
    2.0237   11.9212   -4.5012 H   0  0  0  0  0  0  0  0  0  0  0  0
    3.3257   12.2124   -2.1219 H   0  0  0  0  0  0  0  0  0  0  0  0
    2.8408   13.4307   -3.4314 H   0  0  0  0  0  0  0  0  0  0  0  0
    2.7617   13.8165   -0.4265 H   0  0  0  0  0  0  0  0  0  0  0  0
    3.8054   14.6497   -1.6444 H   0  0  0  0  0  0  0  0  0  0  0  0
    2.2115   16.8762   -3.0711 H   0  0  0  0  0  0  0  0  0  0  0  0
    2.6721   15.2422   -3.6583 H   0  0  0  0  0  0  0  0  0  0  0  0
    0.9472   15.7433   -3.6583 H   0  0  0  0  0  0  0  0  0  0  0  0
  1  2  1  0
  2  3  1  0
  3  4  1  0
  4  5  1  0
  5  6  1  0
  6  7  1  0
  7  8  1  0
  7  9  1  0
  2 10  1  0
 10 11  1  0
 11 12  1  0
 12 13  1  0
 13 14  1  1
 13 15  1  0
 15 16  1  0
 16 17  1  0
 17 18  2  0
 18 19  1  0
 19 20  1  0
 20 21  1  0
 21 22  1  0
 22 23  1  0
 22 24  1  0
 24 25  1  0
 24 26  1  0
 19 27  1  0
 27 28  1  6
 27 29  1  0
 29 30  1  0
 30 31  1  0
 31 32  1  6
  7  5  1  0
 31 10  1  0
 31 13  1  0
 27 15  1  0
 24 18  1  0
  1 33  1  0
  1 34  1  0
  1 35  1  0
  2 36  1  6
  3 37  1  0
  3 38  1  0
  4 39  1  0
  4 40  1  0
  5 41  1  1
  8 42  1  0
  8 43  1  0
  8 44  1  0
  9 45  1  0
  9 46  1  0
  9 47  1  0
 10 48  1  1
 11 49  1  0
 11 50  1  0
 12 51  1  0
 12 52  1  0
 14 53  1  0
 14 54  1  0
 14 55  1  0
 15 56  1  6
 16 57  1  0
 16 58  1  0
 17 59  1  0
 19 60  1  1
 20 61  1  0
 20 62  1  0
 21 63  1  0
 21 64  1  0
 22 65  1  1
 23 66  1  0
 25 67  1  0
 25 68  1  0
 25 69  1  0
 26 70  1  0
 26 71  1  0
 26 72  1  0
 28 73  1  0
 28 74  1  0
 28 75  1  0
 29 76  1  0
 29 77  1  0
 30 78  1  0
 30 79  1  0
 32 80  1  0
 32 81  1  0
 32 82  1  0
M  END
>  <meeko>  (8) 
{"is_sidechain": [false], "intermolecular_energy": 2.731, "internal_energy": -0.839}

$$$$
EPH_relaxed_0001_pdb2pqr_Repair_213_r2_0001_out
     RDKit          3D

 82 86  0  0  0  0  0  0  0  0999 V2000
    1.7390   19.7400   -1.8610 C   0  0  0  0  0  0  0  0  0  0  0  0
    1.4820   19.5190   -0.3680 C   0  0  2  0  0  0  0  0  0  0  0  0
    2.7020   19.8990    0.4950 C   0  0  0  0  0  0  0  0  0  0  0  0
    3.4520   18.6920    1.0650 C   0  0  0  0  0  0  0  0  0  0  0  0
    3.8270   18.9000    2.5010 C   0  0  2  0  0  0  0  0  0  0  0  0
    4.3680   20.1940    2.7970 O   0  0  0  0  0  0  0  0  0  0  0  0
    5.2570   19.0790    2.9760 C   0  0  0  0  0  0  0  0  0  0  0  0
    6.4050   19.0570    2.0170 C   0  0  0  0  0  0  0  0  0  0  0  0
    5.5770   18.7870    4.4080 C   0  0  0  0  0  0  0  0  0  0  0  0
    1.0980   18.0660   -0.1160 C   0  0  1  0  0  0  0  0  0  0  0  0
   -0.2650   17.9250    0.6120 C   0  0  0  0  0  0  0  0  0  0  0  0
   -0.9400   16.6460    0.0540 C   0  0  0  0  0  0  0  0  0  0  0  0
    0.1830   15.9180   -0.7210 C   0  0  1  0  0  0  0  0  0  0  0  0
    1.0000   15.1620    0.3740 C   0  0  0  0  0  0  0  0  0  0  0  0
   -0.2770   14.9570   -1.8650 C   0  0  2  0  0  0  0  0  0  0  0  0
   -1.1330   13.7630   -1.4080 C   0  0  0  0  0  0  0  0  0  0  0  0
   -0.3700   12.5280   -1.0600 C   0  0  0  0  0  0  0  0  0  0  0  0
    0.9160   12.2860   -1.3790 C   0  0  0  0  0  0  0  0  0  0  0  0
    1.7090   13.2700   -2.2490 C   0  0  1  0  0  0  0  0  0  0  0  0
    2.4740   12.4880   -3.3490 C   0  0  0  0  0  0  0  0  0  0  0  0
    3.3490   11.3770   -2.7760 C   0  0  0  0  0  0  0  0  0  0  0  0
    2.5150   10.3880   -1.9660 C   0  0  2  0  0  0  0  0  0  0  0  0
    1.6330    9.6940   -2.8540 O   0  0  0  0  0  0  0  0  0  0  0  0
    1.6930   11.0630   -0.8330 C   0  0  0  0  0  0  0  0  0  0  0  0
    2.6480   11.5530    0.2830 C   0  0  0  0  0  0  0  0  0  0  0  0
    0.7900    9.9780   -0.1870 C   0  0  0  0  0  0  0  0  0  0  0  0
    0.8870   14.4980   -2.8330 C   0  0  1  0  0  0  0  0  0  0  0  0
    0.2120   14.0940   -4.1800 C   0  0  0  0  0  0  0  0  0  0  0  0
    1.8830   15.6700   -3.1690 C   0  0  0  0  0  0  0  0  0  0  0  0
    2.2050   16.6560   -2.0300 C   0  0  0  0  0  0  0  0  0  0  0  0
    0.9230   17.1520   -1.3550 C   0  0  2  0  0  0  0  0  0  0  0  0
    0.0910   17.9360   -2.4260 C   0  0  0  0  0  0  0  0  0  0  0  0
    2.5674   20.4523   -1.9890 H   0  0  0  0  0  0  0  0  0  0  0  0
    2.0027   18.7822   -2.3334 H   0  0  0  0  0  0  0  0  0  0  0  0
    0.8315   20.1442   -2.3334 H   0  0  0  0  0  0  0  0  0  0  0  0
    0.6525   20.1791   -0.0746 H   0  0  0  0  0  0  0  0  0  0  0  0
    3.3997   20.4797   -0.1263 H   0  0  0  0  0  0  0  0  0  0  0  0
    2.3230   20.4760    1.3514 H   0  0  0  0  0  0  0  0  0  0  0  0
    2.8074   17.8038    0.9900 H   0  0  0  0  0  0  0  0  0  0  0  0
    4.3770   18.5579    0.4850 H   0  0  0  0  0  0  0  0  0  0  0  0
    3.0178   18.2328    2.8329 H   0  0  0  0  0  0  0  0  0  0  0  0
    7.3511   19.0389    2.5779 H   0  0  0  0  0  0  0  0  0  0  0  0
    6.3368   18.1600    1.3840 H   0  0  0  0  0  0  0  0  0  0  0  0
    6.3712   19.9560    1.3840 H   0  0  0  0  0  0  0  0  0  0  0  0
    4.9222   19.3845    5.0593 H   0  0  0  0  0  0  0  0  0  0  0  0
    5.4167   17.7174    4.6088 H   0  0  0  0  0  0  0  0  0  0  0  0
    6.6275   19.0443    4.6088 H   0  0  0  0  0  0  0  0  0  0  0  0
    1.9715   17.7437    0.4697 H   0  0  0  0  0  0  0  0  0  0  0  0
   -0.1070   17.8277    1.6962 H   0  0  0  0  0  0  0  0  0  0  0  0
   -0.8961   18.8101    0.4436 H   0  0  0  0  0  0  0  0  0  0  0  0
   -1.3169   16.0167    0.8737 H   0  0  0  0  0  0  0  0  0  0  0  0
   -1.8057   16.8761   -0.5845 H   0  0  0  0  0  0  0  0  0  0  0  0
    0.6580   15.4784    1.3705 H   0  0  0  0  0  0  0  0  0  0  0  0
    0.8488   14.0783    0.2615 H   0  0  0  0  0  0  0  0  0  0  0  0
    2.0688   15.3967    0.2615 H   0  0  0  0  0  0  0  0  0  0  0  0
   -0.9486   15.5970   -2.4561 H   0  0  0  0  0  0  0  0  0  0  0  0
   -1.7018   14.0730   -0.5190 H   0  0  0  0  0  0  0  0  0  0  0  0
   -1.7676   13.4971   -2.2662 H   0  0  0  0  0  0  0  0  0  0  0  0
   -0.9034   11.7494   -0.4950 H   0  0  0  0  0  0  0  0  0  0  0  0
    2.4249   13.7629   -1.5748 H   0  0  0  0  0  0  0  0  0  0  0  0
    1.7419   12.0406   -4.0374 H   0  0  0  0  0  0  0  0  0  0  0  0
    3.1342   13.1995   -3.8665 H   0  0  0  0  0  0  0  0  0  0  0  0
    3.8389   10.8421   -3.6029 H   0  0  0  0  0  0  0  0  0  0  0  0
    4.1001   11.8293   -2.1116 H   0  0  0  0  0  0  0  0  0  0  0  0
    3.2118    9.6929   -1.4748 H   0  0  0  0  0  0  0  0  0  0  0  0
    1.7580   10.0660   -3.7430 H   0  0  0  0  0  0  0  0  0  0  0  0
    2.2091   11.3278    1.2662 H   0  0  0  0  0  0  0  0  0  0  0  0
    3.6167   11.0405    0.1878 H   0  0  0  0  0  0  0  0  0  0  0  0
    2.7967   12.6387    0.1878 H   0  0  0  0  0  0  0  0  0  0  0  0
    0.8528   10.0534    0.9086 H   0  0  0  0  0  0  0  0  0  0  0  0
   -0.2517   10.1304   -0.5059 H   0  0  0  0  0  0  0  0  0  0  0  0
    1.1290    8.9813   -0.5059 H   0  0  0  0  0  0  0  0  0  0  0  0
   -0.7151   13.5391   -3.9736 H   0  0  0  0  0  0  0  0  0  0  0  0
   -0.0237   14.9997   -4.7581 H   0  0  0  0  0  0  0  0  0  0  0  0
    0.8988   13.4583   -4.7581 H   0  0  0  0  0  0  0  0  0  0  0  0
    2.8310   15.2177   -3.4955 H   0  0  0  0  0  0  0  0  0  0  0  0
    1.3715   16.2718   -3.9346 H   0  0  0  0  0  0  0  0  0  0  0  0
    2.8325   16.1492   -1.2821 H   0  0  0  0  0  0  0  0  0  0  0  0
    2.7349   17.5213   -2.4548 H   0  0  0  0  0  0  0  0  0  0  0  0
   -0.6198   18.6058   -1.9198 H   0  0  0  0  0  0  0  0  0  0  0  0
    0.7702   18.5300   -3.0551 H   0  0  0  0  0  0  0  0  0  0  0  0
   -0.4617   17.2227   -3.0551 H   0  0  0  0  0  0  0  0  0  0  0  0
  1  2  1  0
  2  3  1  0
  3  4  1  0
  4  5  1  0
  5  6  1  0
  6  7  1  0
  7  8  1  0
  7  9  1  0
  2 10  1  0
 10 11  1  0
 11 12  1  0
 12 13  1  0
 13 14  1  1
 13 15  1  0
 15 16  1  0
 16 17  1  0
 17 18  2  0
 18 19  1  0
 19 20  1  0
 20 21  1  0
 21 22  1  0
 22 23  1  0
 22 24  1  0
 24 25  1  0
 24 26  1  0
 19 27  1  0
 27 28  1  6
 27 29  1  0
 29 30  1  0
 30 31  1  0
 31 32  1  6
  7  5  1  0
 31 10  1  0
 31 13  1  0
 27 15  1  0
 24 18  1  0
  1 33  1  0
  1 34  1  0
  1 35  1  0
  2 36  1  1
  3 37  1  0
  3 38  1  0
  4 39  1  0
  4 40  1  0
  5 41  1  1
  8 42  1  0
  8 43  1  0
  8 44  1  0
  9 45  1  0
  9 46  1  0
  9 47  1  0
 10 48  1  1
 11 49  1  0
 11 50  1  0
 12 51  1  0
 12 52  1  0
 14 53  1  0
 14 54  1  0
 14 55  1  0
 15 56  1  6
 16 57  1  0
 16 58  1  0
 17 59  1  0
 19 60  1  1
 20 61  1  0
 20 62  1  0
 21 63  1  0
 21 64  1  0
 22 65  1  1
 23 66  1  0
 25 67  1  0
 25 68  1  0
 25 69  1  0
 26 70  1  0
 26 71  1  0
 26 72  1  0
 28 73  1  0
 28 74  1  0
 28 75  1  0
 29 76  1  0
 29 77  1  0
 30 78  1  0
 30 79  1  0
 32 80  1  0
 32 81  1  0
 32 82  1  0
M  END
>  <meeko>  (9) 
{"is_sidechain": [false], "intermolecular_energy": 2.731, "internal_energy": -0.839}

$$$$
EPH_relaxed_0001_pdb2pqr_Repair_213_r2_0001_out
     RDKit          3D

 82 86  0  0  0  0  0  0  0  0999 V2000
    0.8190   10.8680   -4.5510 C   0  0  0  0  0  0  0  0  0  0  0  0
    0.6780   10.3450   -3.1200 C   0  0  2  0  0  0  0  0  0  0  0  0
   -0.6570    9.6040   -2.9010 C   0  0  0  0  0  0  0  0  0  0  0  0
   -0.5480    8.4060   -1.9530 C   0  0  0  0  0  0  0  0  0  0  0  0
   -0.5560    8.8340   -0.5170 C   0  0  2  0  0  0  0  0  0  0  0  0
   -1.8230    8.7020    0.1410 O   0  0  0  0  0  0  0  0  0  0  0  0
   -1.3220   10.0400   -0.0070 C   0  0  0  0  0  0  0  0  0  0  0  0
   -2.1340   10.8950   -0.9290 C   0  0  0  0  0  0  0  0  0  0  0  0
   -0.8920   10.6690    1.2810 C   0  0  0  0  0  0  0  0  0  0  0  0
    0.8010   11.4970   -2.1300 C   0  0  1  0  0  0  0  0  0  0  0  0
    1.8620   11.2280   -1.0290 C   0  0  0  0  0  0  0  0  0  0  0  0
    2.5220   12.5920   -0.7010 C   0  0  0  0  0  0  0  0  0  0  0  0
    1.6040   13.6410   -1.3720 C   0  0  1  0  0  0  0  0  0  0  0  0
    0.4180   13.8330   -0.3750 C   0  0  0  0  0  0  0  0  0  0  0  0
    2.2700   15.0050   -1.7450 C   0  0  2  0  0  0  0  0  0  0  0  0
    2.8100   15.8150   -0.5530 C   0  0  0  0  0  0  0  0  0  0  0  0
    1.8430   16.7750    0.0560 C   0  0  0  0  0  0  0  0  0  0  0  0
    0.6910   17.1880   -0.5060 C   0  0  0  0  0  0  0  0  0  0  0  0
    0.3090   16.7550   -1.9270 C   0  0  1  0  0  0  0  0  0  0  0  0
   -0.1780   17.9890   -2.7310 C   0  0  0  0  0  0  0  0  0  0  0  0
   -1.3050   18.7380   -2.0260 C   0  0  0  0  0  0  0  0  0  0  0  0
   -0.8670   19.2030   -0.6390 C   0  0  2  0  0  0  0  0  0  0  0  0
    0.1540   20.1940   -0.7870 O   0  0  0  0  0  0  0  0  0  0  0  0
   -0.3470   18.0460    0.2580 C   0  0  0  0  0  0  0  0  0  0  0  0
   -1.5280   17.1310    0.6660 C   0  0  0  0  0  0  0  0  0  0  0  0
    0.1940   18.6690    1.5740 C   0  0  0  0  0  0  0  0  0  0  0  0
    1.4020   15.9080   -2.7110 C   0  0  1  0  0  0  0  0  0  0  0  0
    2.3950   16.8650   -3.4390 C   0  0  0  0  0  0  0  0  0  0  0  0
    0.6910   15.0680   -3.8370 C   0  0  0  0  0  0  0  0  0  0  0  0
    0.1590   13.6790   -3.4360 C   0  0  0  0  0  0  0  0  0  0  0  0
    1.2310   12.8750   -2.6930 C   0  0  2  0  0  0  0  0  0  0  0  0
    2.4270   12.6470   -3.6790 C   0  0  0  0  0  0  0  0  0  0  0  0
    1.1053   11.9298   -4.5268 H   0  0  0  0  0  0  0  0  0  0  0  0
    1.5937   10.2913   -5.0775 H   0  0  0  0  0  0  0  0  0  0  0  0
   -0.1406   10.7589   -5.0775 H   0  0  0  0  0  0  0  0  0  0  0  0
    1.4895    9.6217   -2.9517 H   0  0  0  0  0  0  0  0  0  0  0  0
   -1.3837   10.3147   -2.4804 H   0  0  0  0  0  0  0  0  0  0  0  0
   -0.9713    9.2120   -3.8795 H   0  0  0  0  0  0  0  0  0  0  0  0
   -1.4001    7.7330   -2.1293 H   0  0  0  0  0  0  0  0  0  0  0  0
    0.4053    7.8952   -2.1536 H   0  0  0  0  0  0  0  0  0  0  0  0
    0.4905    8.5183   -0.3935 H   0  0  0  0  0  0  0  0  0  0  0  0
   -2.7728   11.5677   -0.3379 H   0  0  0  0  0  0  0  0  0  0  0  0
   -1.4617   11.4913   -1.5634 H   0  0  0  0  0  0  0  0  0  0  0  0
   -2.7642   10.2543   -1.5634 H   0  0  0  0  0  0  0  0  0  0  0  0
   -1.2904   10.0862    2.1246 H   0  0  0  0  0  0  0  0  0  0  0  0
    0.2067   10.6847    1.3326 H   0  0  0  0  0  0  0  0  0  0  0  0
   -1.2762   11.6984    1.3326 H   0  0  0  0  0  0  0  0  0  0  0  0
   -0.2378   11.5440   -1.7714 H   0  0  0  0  0  0  0  0  0  0  0  0
    1.3796   10.8149   -0.1309 H   0  0  0  0  0  0  0  0  0  0  0  0
    2.6111   10.4991   -1.3720 H   0  0  0  0  0  0  0  0  0  0  0  0
    2.5639   12.7516    0.3866 H   0  0  0  0  0  0  0  0  0  0  0  0
    3.5587   12.6518   -1.0639 H   0  0  0  0  0  0  0  0  0  0  0  0
    0.7932   13.7723    0.6572 H   0  0  0  0  0  0  0  0  0  0  0  0
   -0.0439   14.8176   -0.5399 H   0  0  0  0  0  0  0  0  0  0  0  0
   -0.3310   13.0444   -0.5399 H   0  0  0  0  0  0  0  0  0  0  0  0
    3.1548   14.6866   -2.3157 H   0  0  0  0  0  0  0  0  0  0  0  0
    3.1211   15.1049    0.2274 H   0  0  0  0  0  0  0  0  0  0  0  0
    3.6357   16.4247   -0.9485 H   0  0  0  0  0  0  0  0  0  0  0  0
    2.0925   17.1795    1.0480 H   0  0  0  0  0  0  0  0  0  0  0  0
   -0.5145   16.0344   -1.8145 H   0  0  0  0  0  0  0  0  0  0  0  0
    0.6695   18.6764   -2.8700 H   0  0  0  0  0  0  0  0  0  0  0  0
   -0.5679   17.6278   -3.6941 H   0  0  0  0  0  0  0  0  0  0  0  0
   -1.5860   19.6150   -2.6277 H   0  0  0  0  0  0  0  0  0  0  0  0
   -2.1623   18.0579   -1.9139 H   0  0  0  0  0  0  0  0  0  0  0  0
   -1.7521   19.6173   -0.1342 H   0  0  0  0  0  0  0  0  0  0  0  0
    0.0150   20.8640   -0.0960 H   0  0  0  0  0  0  0  0  0  0  0  0
   -1.5916   17.0817    1.7631 H   0  0  0  0  0  0  0  0  0  0  0  0
   -2.4657   17.5407    0.2624 H   0  0  0  0  0  0  0  0  0  0  0  0
   -1.3655   16.1207    0.2624 H   0  0  0  0  0  0  0  0  0  0  0  0
   -0.2544   18.1526    2.4356 H   0  0  0  0  0  0  0  0  0  0  0  0
    1.2879   18.5589    1.6092 H   0  0  0  0  0  0  0  0  0  0  0  0
   -0.0684   19.7367    1.6092 H   0  0  0  0  0  0  0  0  0  0  0  0
    2.9771   17.4260   -2.6930 H   0  0  0  0  0  0  0  0  0  0  0  0
    3.0774   16.2753   -4.0687 H   0  0  0  0  0  0  0  0  0  0  0  0
    1.8309   17.5687   -4.0687 H   0  0  0  0  0  0  0  0  0  0  0  0
   -0.1619   15.6579   -4.2038 H   0  0  0  0  0  0  0  0  0  0  0  0
    1.4720   14.8718   -4.5863 H   0  0  0  0  0  0  0  0  0  0  0  0
   -0.7157   13.8040   -2.7808 H   0  0  0  0  0  0  0  0  0  0  0  0
   -0.1192   13.1327   -4.3494 H   0  0  0  0  0  0  0  0  0  0  0  0
    3.3480   12.4714   -3.1038 H   0  0  0  0  0  0  0  0  0  0  0  0
    2.2181   11.7725   -4.3127 H   0  0  0  0  0  0  0  0  0  0  0  0
    2.5545   13.5370   -4.3127 H   0  0  0  0  0  0  0  0  0  0  0  0
  1  2  1  0
  2  3  1  0
  3  4  1  0
  4  5  1  0
  5  6  1  0
  6  7  1  0
  7  8  1  0
  7  9  1  0
  2 10  1  0
 10 11  1  0
 11 12  1  0
 12 13  1  0
 13 14  1  1
 13 15  1  0
 15 16  1  0
 16 17  1  0
 17 18  2  0
 18 19  1  0
 19 20  1  0
 20 21  1  0
 21 22  1  0
 22 23  1  0
 22 24  1  0
 24 25  1  0
 24 26  1  0
 19 27  1  0
 27 28  1  6
 27 29  1  0
 29 30  1  0
 30 31  1  0
 31 32  1  6
  7  5  1  0
 31 10  1  0
 31 13  1  0
 27 15  1  0
 24 18  1  0
  1 33  1  0
  1 34  1  0
  1 35  1  0
  2 36  1  1
  3 37  1  0
  3 38  1  0
  4 39  1  0
  4 40  1  0
  5 41  1  1
  8 42  1  0
  8 43  1  0
  8 44  1  0
  9 45  1  0
  9 46  1  0
  9 47  1  0
 10 48  1  1
 11 49  1  0
 11 50  1  0
 12 51  1  0
 12 52  1  0
 14 53  1  0
 14 54  1  0
 14 55  1  0
 15 56  1  6
 16 57  1  0
 16 58  1  0
 17 59  1  0
 19 60  1  1
 20 61  1  0
 20 62  1  0
 21 63  1  0
 21 64  1  0
 22 65  1  1
 23 66  1  0
 25 67  1  0
 25 68  1  0
 25 69  1  0
 26 70  1  0
 26 71  1  0
 26 72  1  0
 28 73  1  0
 28 74  1  0
 28 75  1  0
 29 76  1  0
 29 77  1  0
 30 78  1  0
 30 79  1  0
 32 80  1  0
 32 81  1  0
 32 82  1  0
M  END
>  <meeko>  (10) 
{"is_sidechain": [false], "intermolecular_energy": 2.731, "internal_energy": -0.839}

$$$$
EPH_relaxed_0001_pdb2pqr_Repair_213_r2_0001_out
     RDKit          3D

 82 86  0  0  0  0  0  0  0  0999 V2000
    2.8000   18.9420   -1.0540 C   0  0  0  0  0  0  0  0  0  0  0  0
    2.5620   17.9080   -2.1580 C   0  0  2  0  0  0  0  0  0  0  0  0
    1.1710   18.0590   -2.8060 C   0  0  0  0  0  0  0  0  0  0  0  0
    0.4340   19.3350   -2.3900 C   0  0  0  0  0  0  0  0  0  0  0  0
   -0.9110   19.0310   -1.8030 C   0  0  2  0  0  0  0  0  0  0  0  0
   -1.7320   20.1820   -1.5610 O   0  0  0  0  0  0  0  0  0  0  0  0
   -1.3230   19.4390   -0.4000 C   0  0  0  0  0  0  0  0  0  0  0  0
   -0.3900   20.1840    0.5020 C   0  0  0  0  0  0  0  0  0  0  0  0
   -2.4400   18.6940    0.2620 C   0  0  0  0  0  0  0  0  0  0  0  0
    2.7250   16.5000   -1.5960 C   0  0  1  0  0  0  0  0  0  0  0  0
    3.4530   16.4850   -0.2260 C   0  0  0  0  0  0  0  0  0  0  0  0
    2.8220   15.3370    0.6030 C   0  0  0  0  0  0  0  0  0  0  0  0
    1.9940   14.5260   -0.4210 C   0  0  1  0  0  0  0  0  0  0  0  0
    3.0320   13.6060   -1.1370 C   0  0  0  0  0  0  0  0  0  0  0  0
    0.7950   13.7040    0.1560 C   0  0  2  0  0  0  0  0  0  0  0  0
    1.1820   12.5990    1.1540 C   0  0  0  0  0  0  0  0  0  0  0  0
    1.4460   11.2590    0.5510 C   0  0  0  0  0  0  0  0  0  0  0  0
    1.1020   10.8800   -0.6940 C   0  0  0  0  0  0  0  0  0  0  0  0
    0.2900   11.8100   -1.6050 C   0  0  1  0  0  0  0  0  0  0  0  0
   -0.8630   11.0100   -2.2660 C   0  0  0  0  0  0  0  0  0  0  0  0
   -0.3680    9.7660   -2.9960 C   0  0  0  0  0  0  0  0  0  0  0  0
    0.3850    8.8390   -2.0450 C   0  0  2  0  0  0  0  0  0  0  0  0
   -0.5380    8.3180   -1.0830 O   0  0  0  0  0  0  0  0  0  0  0  0
    1.5640    9.5380   -1.3130 C   0  0  0  0  0  0  0  0  0  0  0  0
    2.7020    9.8330   -2.3220 C   0  0  0  0  0  0  0  0  0  0  0  0
    2.1480    8.5340   -0.2820 C   0  0  0  0  0  0  0  0  0  0  0  0
   -0.2090   13.1660   -0.9420 C   0  0  1  0  0  0  0  0  0  0  0  0
   -1.5740   12.9360   -0.2230 C   0  0  0  0  0  0  0  0  0  0  0  0
   -0.4790   14.2240   -2.0770 C   0  0  0  0  0  0  0  0  0  0  0  0
    0.7180   15.0880   -2.5190 C   0  0  0  0  0  0  0  0  0  0  0  0
    1.4330   15.6960   -1.3090 C   0  0  2  0  0  0  0  0  0  0  0  0
    0.4200   16.6440   -0.5810 C   0  0  0  0  0  0  0  0  0  0  0  0
    2.6893   18.4609   -0.0710 H   0  0  0  0  0  0  0  0  0  0  0  0
    3.8161   19.3525   -1.1490 H   0  0  0  0  0  0  0  0  0  0  0  0
    2.0656   19.7554   -1.1490 H   0  0  0  0  0  0  0  0  0  0  0  0
    3.3123   18.0842   -2.9429 H   0  0  0  0  0  0  0  0  0  0  0  0
    1.2963   18.0708   -3.8988 H   0  0  0  0  0  0  0  0  0  0  0  0
    0.5623   17.2095   -2.4628 H   0  0  0  0  0  0  0  0  0  0  0  0
    1.0381   19.8675   -1.6406 H   0  0  0  0  0  0  0  0  0  0  0  0
    0.2850   19.9534   -3.2874 H   0  0  0  0  0  0  0  0  0  0  0  0
   -0.9516   18.0680   -2.3330 H   0  0  0  0  0  0  0  0  0  0  0  0
   -0.6499   19.9765    1.5505 H   0  0  0  0  0  0  0  0  0  0  0  0
    0.6433   19.8597    0.3093 H   0  0  0  0  0  0  0  0  0  0  0  0
   -0.4775   21.2634    0.3093 H   0  0  0  0  0  0  0  0  0  0  0  0
   -2.3320   18.7660    1.3543 H   0  0  0  0  0  0  0  0  0  0  0  0
   -3.4027   19.1315   -0.0409 H   0  0  0  0  0  0  0  0  0  0  0  0
   -2.4060   17.6371   -0.0409 H   0  0  0  0  0  0  0  0  0  0  0  0
    3.2822   16.0342   -2.4221 H   0  0  0  0  0  0  0  0  0  0  0  0
    4.5280   16.3016   -0.3702 H   0  0  0  0  0  0  0  0  0  0  0  0
    3.3444   17.4505    0.2897 H   0  0  0  0  0  0  0  0  0  0  0  0
    3.6040   14.7089    1.0547 H   0  0  0  0  0  0  0  0  0  0  0  0
    2.2064   15.7120    1.4339 H   0  0  0  0  0  0  0  0  0  0  0  0
    3.6318   13.0744   -0.3836 H   0  0  0  0  0  0  0  0  0  0  0  0
    2.5021   12.8755   -1.7660 H   0  0  0  0  0  0  0  0  0  0  0  0
    3.6936   14.2198   -1.7660 H   0  0  0  0  0  0  0  0  0  0  0  0
    0.2514   14.4590    0.7430 H   0  0  0  0  0  0  0  0  0  0  0  0
    2.0929   12.9202    1.6804 H   0  0  0  0  0  0  0  0  0  0  0  0
    0.3132   12.4690    1.8160 H   0  0  0  0  0  0  0  0  0  0  0  0
    1.9656   10.5187    1.1771 H   0  0  0  0  0  0  0  0  0  0  0  0
    0.9877   12.1653   -2.3777 H   0  0  0  0  0  0  0  0  0  0  0  0
   -1.5717   10.7011   -1.4835 H   0  0  0  0  0  0  0  0  0  0  0  0
   -1.3409   11.6653   -3.0091 H   0  0  0  0  0  0  0  0  0  0  0  0
   -1.2306    9.2277   -3.4157 H   0  0  0  0  0  0  0  0  0  0  0  0
    0.3173   10.0786   -3.7977 H   0  0  0  0  0  0  0  0  0  0  0  0
    0.8261    8.0331   -2.6500 H   0  0  0  0  0  0  0  0  0  0  0  0
   -1.2560    8.9660   -0.9830 H   0  0  0  0  0  0  0  0  0  0  0  0
    3.6252   10.0723   -1.7738 H   0  0  0  0  0  0  0  0  0  0  0  0
    2.8698    8.9487   -2.9543 H   0  0  0  0  0  0  0  0  0  0  0  0
    2.4190   10.6875   -2.9543 H   0  0  0  0  0  0  0  0  0  0  0  0
    1.9397    8.8921    0.7370 H   0  0  0  0  0  0  0  0  0  0  0  0
    1.6826    7.5478   -0.4264 H   0  0  0  0  0  0  0  0  0  0  0  0
    3.2353    8.4510   -0.4264 H   0  0  0  0  0  0  0  0  0  0  0  0
   -1.4235   12.9614    0.8664 H   0  0  0  0  0  0  0  0  0  0  0  0
   -2.2798   13.7279   -0.5142 H   0  0  0  0  0  0  0  0  0  0  0  0
   -1.9813   11.9566   -0.5142 H   0  0  0  0  0  0  0  0  0  0  0  0
   -0.8407   13.6788   -2.9613 H   0  0  0  0  0  0  0  0  0  0  0  0
   -1.2017   14.9320   -1.6452 H   0  0  0  0  0  0  0  0  0  0  0  0
    1.4276   14.4604   -3.0781 H   0  0  0  0  0  0  0  0  0  0  0  0
    0.3445   15.9060   -3.1526 H   0  0  0  0  0  0  0  0  0  0  0  0
    0.5348   16.5366    0.5077 H   0  0  0  0  0  0  0  0  0  0  0  0
    0.6207   17.6863   -0.8698 H   0  0  0  0  0  0  0  0  0  0  0  0
   -0.6067   16.3747   -0.8698 H   0  0  0  0  0  0  0  0  0  0  0  0
  1  2  1  0
  2  3  1  0
  3  4  1  0
  4  5  1  0
  5  6  1  0
  6  7  1  0
  7  8  1  0
  7  9  1  0
  2 10  1  0
 10 11  1  0
 11 12  1  0
 12 13  1  0
 13 14  1  6
 13 15  1  0
 15 16  1  0
 16 17  1  0
 17 18  2  0
 18 19  1  0
 19 20  1  0
 20 21  1  0
 21 22  1  0
 22 23  1  0
 22 24  1  0
 24 25  1  0
 24 26  1  0
 19 27  1  0
 27 28  1  1
 27 29  1  0
 29 30  1  0
 30 31  1  0
 31 32  1  1
  7  5  1  0
 31 10  1  0
 31 13  1  0
 27 15  1  0
 24 18  1  0
  1 33  1  0
  1 34  1  0
  1 35  1  0
  2 36  1  6
  3 37  1  0
  3 38  1  0
  4 39  1  0
  4 40  1  0
  5 41  1  6
  8 42  1  0
  8 43  1  0
  8 44  1  0
  9 45  1  0
  9 46  1  0
  9 47  1  0
 10 48  1  6
 11 49  1  0
 11 50  1  0
 12 51  1  0
 12 52  1  0
 14 53  1  0
 14 54  1  0
 14 55  1  0
 15 56  1  1
 16 57  1  0
 16 58  1  0
 17 59  1  0
 19 60  1  6
 20 61  1  0
 20 62  1  0
 21 63  1  0
 21 64  1  0
 22 65  1  6
 23 66  1  0
 25 67  1  0
 25 68  1  0
 25 69  1  0
 26 70  1  0
 26 71  1  0
 26 72  1  0
 28 73  1  0
 28 74  1  0
 28 75  1  0
 29 76  1  0
 29 77  1  0
 30 78  1  0
 30 79  1  0
 32 80  1  0
 32 81  1  0
 32 82  1  0
M  END
>  <meeko>  (11) 
{"is_sidechain": [false], "intermolecular_energy": 2.731, "internal_energy": -0.839}

$$$$
EPH_relaxed_0001_pdb2pqr_Repair_213_r2_0001_out
     RDKit          3D

 82 86  0  0  0  0  0  0  0  0999 V2000
   -3.7440    7.2340   -3.4160 C   0  0  0  0  0  0  0  0  0  0  0  0
   -3.7500    7.2990   -1.8870 C   0  0  2  0  0  0  0  0  0  0  0  0
   -5.1590    7.0700   -1.3020 C   0  0  0  0  0  0  0  0  0  0  0  0
   -6.2830    7.2070   -2.3320 C   0  0  0  0  0  0  0  0  0  0  0  0
   -7.6100    7.4440   -1.6760 C   0  0  2  0  0  0  0  0  0  0  0  0
   -8.2220    6.2720   -1.1230 O   0  0  0  0  0  0  0  0  0  0  0  0
   -8.9180    6.8960   -2.2140 C   0  0  0  0  0  0  0  0  0  0  0  0
   -8.9640    6.0680   -3.4600 C   0  0  0  0  0  0  0  0  0  0  0  0
  -10.1940    7.5660   -1.8100 C   0  0  0  0  0  0  0  0  0  0  0  0
   -3.2060    8.6450   -1.4220 C   0  0  1  0  0  0  0  0  0  0  0  0
   -3.8200    9.1040   -0.0730 C   0  0  0  0  0  0  0  0  0  0  0  0
   -2.7030    9.8570    0.6940 C   0  0  0  0  0  0  0  0  0  0  0  0
   -1.5970   10.0950   -0.3610 C   0  0  1  0  0  0  0  0  0  0  0  0
   -2.0690   11.3510   -1.1600 C   0  0  0  0  0  0  0  0  0  0  0  0
   -0.1440   10.2730    0.1880 C   0  0  2  0  0  0  0  0  0  0  0  0
    0.0630   11.4930    1.1030 C   0  0  0  0  0  0  0  0  0  0  0  0
    0.4730   12.7480    0.4070 C   0  0  0  0  0  0  0  0  0  0  0  0
    0.9430   12.8280   -0.8520 C   0  0  0  0  0  0  0  0  0  0  0  0
    1.1940   11.5610   -1.6800 C   0  0  1  0  0  0  0  0  0  0  0  0
    2.5820   11.6570   -2.3650 C   0  0  0  0  0  0  0  0  0  0  0  0
    2.7420   12.9320   -3.1870 C   0  0  0  0  0  0  0  0  0  0  0  0
    2.5430   14.1700   -2.3160 C   0  0  2  0  0  0  0  0  0  0  0  0
    3.6130   14.2450   -1.3690 O   0  0  0  0  0  0  0  0  0  0  0  0
    1.1810   14.1800   -1.5670 C   0  0  0  0  0  0  0  0  0  0  0  0
    0.0320   14.4030   -2.5810 C   0  0  0  0  0  0  0  0  0  0  0  0
    1.1670   15.4090   -0.6180 C   0  0  0  0  0  0  0  0  0  0  0  0
    0.9830   10.1820   -0.9190 C   0  0  1  0  0  0  0  0  0  0  0  0
    2.2960    9.7730   -0.1850 C   0  0  0  0  0  0  0  0  0  0  0  0
    0.6940    9.0510   -1.9750 C   0  0  0  0  0  0  0  0  0  0  0  0
   -0.7760    8.8450   -2.3880 C   0  0  0  0  0  0  0  0  0  0  0  0
   -1.6820    8.7420   -1.1580 C   0  0  2  0  0  0  0  0  0  0  0  0
   -1.2460    7.4750   -0.3460 C   0  0  0  0  0  0  0  0  0  0  0  0
   -3.6473    6.1867   -3.7381 H   0  0  0  0  0  0  0  0  0  0  0  0
   -4.6845    7.6518   -3.8045 H   0  0  0  0  0  0  0  0  0  0  0  0
   -2.8958    7.8169   -3.8045 H   0  0  0  0  0  0  0  0  0  0  0  0
   -3.1033    6.4891   -1.5185 H   0  0  0  0  0  0  0  0  0  0  0  0
   -5.1983    6.0557   -0.8780 H   0  0  0  0  0  0  0  0  0  0  0  0
   -5.3222    7.8491   -0.5428 H   0  0  0  0  0  0  0  0  0  0  0  0
   -6.0570    8.0545   -2.9958 H   0  0  0  0  0  0  0  0  0  0  0  0
   -6.3442    6.2670   -2.9000 H   0  0  0  0  0  0  0  0  0  0  0  0
   -7.3044    8.4550   -1.3687 H   0  0  0  0  0  0  0  0  0  0  0  0
   -9.0232    5.0031   -3.1906 H   0  0  0  0  0  0  0  0  0  0  0  0
   -9.8481    6.3460   -4.0525 H   0  0  0  0  0  0  0  0  0  0  0  0
   -8.0546    6.2464   -4.0525 H   0  0  0  0  0  0  0  0  0  0  0  0
  -10.2587    7.6000   -0.7124 H   0  0  0  0  0  0  0  0  0  0  0  0
  -10.2130    8.5904   -2.2103 H   0  0  0  0  0  0  0  0  0  0  0  0
  -11.0480    7.0000   -2.2103 H   0  0  0  0  0  0  0  0  0  0  0  0
   -3.4785    9.2642   -2.2894 H   0  0  0  0  0  0  0  0  0  0  0  0
   -4.6733    9.7742   -0.2538 H   0  0  0  0  0  0  0  0  0  0  0  0
   -4.1864    8.2441    0.5069 H   0  0  0  0  0  0  0  0  0  0  0  0
   -3.0783   10.8139    1.0858 H   0  0  0  0  0  0  0  0  0  0  0  0
   -2.3365    9.2883    1.5614 H   0  0  0  0  0  0  0  0  0  0  0  0
   -2.3665   12.1426   -0.4565 H   0  0  0  0  0  0  0  0  0  0  0  0
   -1.2458   11.7135   -1.7931 H   0  0  0  0  0  0  0  0  0  0  0  0
   -2.9272   11.0816   -1.7931 H   0  0  0  0  0  0  0  0  0  0  0  0
   -0.0267    9.3914    0.8353 H   0  0  0  0  0  0  0  0  0  0  0  0
   -0.8835   11.6889    1.6281 H   0  0  0  0  0  0  0  0  0  0  0  0
    0.8933   11.2322    1.7757 H   0  0  0  0  0  0  0  0  0  0  0  0
    0.3835   13.6881    0.9711 H   0  0  0  0  0  0  0  0  0  0  0  0
    0.4021   11.5346   -2.4431 H   0  0  0  0  0  0  0  0  0  0  0  0
    3.3606   11.6383   -1.5882 H   0  0  0  0  0  0  0  0  0  0  0  0
    2.6749   10.8030   -3.0521 H   0  0  0  0  0  0  0  0  0  0  0  0
    3.7522   12.9560   -3.6216 H   0  0  0  0  0  0  0  0  0  0  0  0
    1.9817   12.9355   -3.9819 H   0  0  0  0  0  0  0  0  0  0  0  0
    2.5408   15.0448   -2.9828 H   0  0  0  0  0  0  0  0  0  0  0  0
    4.4300   13.9820   -1.8270 H   0  0  0  0  0  0  0  0  0  0  0  0
   -0.9067   14.5852   -2.0372 H   0  0  0  0  0  0  0  0  0  0  0  0
    0.2644   15.2728   -3.2130 H   0  0  0  0  0  0  0  0  0  0  0  0
   -0.0779   13.5094   -3.2130 H   0  0  0  0  0  0  0  0  0  0  0  0
    1.1709   15.0654    0.4270 H   0  0  0  0  0  0  0  0  0  0  0  0
    2.0582   16.0263   -0.8043 H   0  0  0  0  0  0  0  0  0  0  0  0
    0.2620   16.0059   -0.8043 H   0  0  0  0  0  0  0  0  0  0  0  0
    2.1386    9.8220    0.9026 H   0  0  0  0  0  0  0  0  0  0  0  0
    2.5708    8.7467   -0.4698 H   0  0  0  0  0  0  0  0  0  0  0  0
    3.1051   10.4617   -0.4698 H   0  0  0  0  0  0  0  0  0  0  0  0
    1.2646    9.2911   -2.8843 H   0  0  0  0  0  0  0  0  0  0  0  0
    0.9879    8.1135   -1.4803 H   0  0  0  0  0  0  0  0  0  0  0  0
   -1.0998    9.6976   -3.0029 H   0  0  0  0  0  0  0  0  0  0  0  0
   -0.8517    7.9077   -2.9587 H   0  0  0  0  0  0  0  0  0  0  0  0
   -1.3189    7.6867    0.7310 H   0  0  0  0  0  0  0  0  0  0  0  0
   -1.9058    6.6321   -0.5994 H   0  0  0  0  0  0  0  0  0  0  0  0
   -0.2072    7.2166   -0.5994 H   0  0  0  0  0  0  0  0  0  0  0  0
  1  2  1  0
  2  3  1  0
  3  4  1  0
  4  5  1  0
  5  6  1  0
  6  7  1  0
  7  8  1  0
  7  9  1  0
  2 10  1  0
 10 11  1  0
 11 12  1  0
 12 13  1  0
 13 14  1  6
 13 15  1  0
 15 16  1  0
 16 17  1  0
 17 18  2  0
 18 19  1  0
 19 20  1  0
 20 21  1  0
 21 22  1  0
 22 23  1  0
 22 24  1  0
 24 25  1  0
 24 26  1  0
 19 27  1  0
 27 28  1  1
 27 29  1  0
 29 30  1  0
 30 31  1  0
 31 32  1  1
  7  5  1  0
 31 10  1  0
 31 13  1  0
 27 15  1  0
 24 18  1  0
  1 33  1  0
  1 34  1  0
  1 35  1  0
  2 36  1  1
  3 37  1  0
  3 38  1  0
  4 39  1  0
  4 40  1  0
  5 41  1  1
  8 42  1  0
  8 43  1  0
  8 44  1  0
  9 45  1  0
  9 46  1  0
  9 47  1  0
 10 48  1  6
 11 49  1  0
 11 50  1  0
 12 51  1  0
 12 52  1  0
 14 53  1  0
 14 54  1  0
 14 55  1  0
 15 56  1  1
 16 57  1  0
 16 58  1  0
 17 59  1  0
 19 60  1  6
 20 61  1  0
 20 62  1  0
 21 63  1  0
 21 64  1  0
 22 65  1  6
 23 66  1  0
 25 67  1  0
 25 68  1  0
 25 69  1  0
 26 70  1  0
 26 71  1  0
 26 72  1  0
 28 73  1  0
 28 74  1  0
 28 75  1  0
 29 76  1  0
 29 77  1  0
 30 78  1  0
 30 79  1  0
 32 80  1  0
 32 81  1  0
 32 82  1  0
M  END
>  <meeko>  (12) 
{"is_sidechain": [false], "intermolecular_energy": 2.731, "internal_energy": -0.839}

$$$$
EPH_relaxed_0001_pdb2pqr_Repair_213_r2_0001_out
     RDKit          3D

 82 86  0  0  0  0  0  0  0  0999 V2000
   -0.8730   16.3560   -5.8410 C   0  0  0  0  0  0  0  0  0  0  0  0
    0.2180   15.6580   -6.6580 C   0  0  2  0  0  0  0  0  0  0  0  0
   -0.1870   15.4820   -8.1360 C   0  0  0  0  0  0  0  0  0  0  0  0
    0.4600   16.5020   -9.0770 C   0  0  0  0  0  0  0  0  0  0  0  0
    1.8600   16.1100   -9.4420 C   0  0  2  0  0  0  0  0  0  0  0  0
    2.3340   16.6620  -10.6770 O   0  0  0  0  0  0  0  0  0  0  0  0
    2.2000   15.2320  -10.6320 C   0  0  0  0  0  0  0  0  0  0  0  0
    1.1340   14.6920  -11.5320 C   0  0  0  0  0  0  0  0  0  0  0  0
    3.5080   14.5050  -10.6330 C   0  0  0  0  0  0  0  0  0  0  0  0
    0.5430   14.3030   -6.0420 C   0  0  1  0  0  0  0  0  0  0  0  0
    1.8120   13.6550   -6.6560 C   0  0  0  0  0  0  0  0  0  0  0  0
    2.5210   12.8860   -5.5120 C   0  0  0  0  0  0  0  0  0  0  0  0
    1.4780   12.8370   -4.3710 C   0  0  1  0  0  0  0  0  0  0  0  0
    0.5290   11.6560   -4.7460 C   0  0  0  0  0  0  0  0  0  0  0  0
    2.0460   12.6840   -2.9220 C   0  0  2  0  0  0  0  0  0  0  0  0
    2.8210   11.3810   -2.6600 C   0  0  0  0  0  0  0  0  0  0  0  0
    2.0000   10.2400   -2.1570 C   0  0  0  0  0  0  0  0  0  0  0  0
    0.7540   10.3340   -1.6560 C   0  0  0  0  0  0  0  0  0  0  0  0
    0.0830   11.7000   -1.4650 C   0  0  1  0  0  0  0  0  0  0  0  0
   -0.5680   11.7660   -0.0590 C   0  0  0  0  0  0  0  0  0  0  0  0
   -1.5240   10.6050    0.1980 C   0  0  0  0  0  0  0  0  0  0  0  0
   -0.8060    9.2660    0.0570 C   0  0  2  0  0  0  0  0  0  0  0  0
    0.1570    9.1460    1.1080 O   0  0  0  0  0  0  0  0  0  0  0  0
   -0.1030    9.0890   -1.3180 C   0  0  0  0  0  0  0  0  0  0  0  0
   -1.1680    8.9170   -2.4290 C   0  0  0  0  0  0  0  0  0  0  0  0
    0.7000    7.7610   -1.2770 C   0  0  0  0  0  0  0  0  0  0  0  0
    0.9890   12.9680   -1.7780 C   0  0  1  0  0  0  0  0  0  0  0  0
    1.8030   13.3660   -0.5100 C   0  0  0  0  0  0  0  0  0  0  0  0
    0.0600   14.1940   -2.1130 C   0  0  0  0  0  0  0  0  0  0  0  0
   -0.3690   14.3590   -3.5840 C   0  0  0  0  0  0  0  0  0  0  0  0
    0.8380   14.2650   -4.5210 C   0  0  2  0  0  0  0  0  0  0  0  0
    1.8010   15.4540   -4.1830 C   0  0  0  0  0  0  0  0  0  0  0  0
   -0.6681   16.2249   -4.7682 H   0  0  0  0  0  0  0  0  0  0  0  0
   -0.8832   17.4288   -6.0840 H   0  0  0  0  0  0  0  0  0  0  0  0
   -1.8513   15.9157   -6.0840 H   0  0  0  0  0  0  0  0  0  0  0  0
    1.1109   16.3000   -6.6342 H   0  0  0  0  0  0  0  0  0  0  0  0
    0.1100   14.4736   -8.4598 H   0  0  0  0  0  0  0  0  0  0  0  0
   -1.2745   15.6374   -8.1921 H   0  0  0  0  0  0  0  0  0  0  0  0
   -0.1416   16.5714   -9.9953 H   0  0  0  0  0  0  0  0  0  0  0  0
    0.4997   17.4707   -8.5574 H   0  0  0  0  0  0  0  0  0  0  0  0
    2.1468   16.0586   -8.3813 H   0  0  0  0  0  0  0  0  0  0  0  0
    0.3161   14.2777  -10.9242 H   0  0  0  0  0  0  0  0  0  0  0  0
    0.7451   15.5018  -12.1668 H   0  0  0  0  0  0  0  0  0  0  0  0
    1.5569   13.8994  -12.1668 H   0  0  0  0  0  0  0  0  0  0  0  0
    3.8291   14.3265   -9.5962 H   0  0  0  0  0  0  0  0  0  0  0  0
    3.3919   13.5420  -11.1518 H   0  0  0  0  0  0  0  0  0  0  0  0
    4.2645   15.1121  -11.1518 H   0  0  0  0  0  0  0  0  0  0  0  0
   -0.3973   13.7740   -6.2565 H   0  0  0  0  0  0  0  0  0  0  0  0
    1.5306   12.9606   -7.4614 H   0  0  0  0  0  0  0  0  0  0  0  0
    2.4752   14.4188   -7.0882 H   0  0  0  0  0  0  0  0  0  0  0  0
    2.7906   11.8699   -5.8358 H   0  0  0  0  0  0  0  0  0  0  0  0
    3.4578   13.3713   -5.2007 H   0  0  0  0  0  0  0  0  0  0  0  0
    0.1500   11.1843   -3.8274 H   0  0  0  0  0  0  0  0  0  0  0  0
   -0.3160   12.0383   -5.3375 H   0  0  0  0  0  0  0  0  0  0  0  0
    1.0842   10.9131   -5.3375 H   0  0  0  0  0  0  0  0  0  0  0  0
    2.7923   13.4907   -2.8743 H   0  0  0  0  0  0  0  0  0  0  0  0
    3.2922   11.0703   -3.6041 H   0  0  0  0  0  0  0  0  0  0  0  0
    3.5423   11.6115   -1.8621 H   0  0  0  0  0  0  0  0  0  0  0  0
    2.4514    9.2378   -2.1993 H   0  0  0  0  0  0  0  0  0  0  0  0
   -0.6950   11.7666   -2.2398 H   0  0  0  0  0  0  0  0  0  0  0  0
    0.2281   11.7418    0.6997 H   0  0  0  0  0  0  0  0  0  0  0  0
   -1.1511   12.6971   -0.0043 H   0  0  0  0  0  0  0  0  0  0  0  0
   -1.9288   10.6908    1.2172 H   0  0  0  0  0  0  0  0  0  0  0  0
   -2.3357   10.6479   -0.5431 H   0  0  0  0  0  0  0  0  0  0  0  0
   -1.5678    8.4753    0.1239 H   0  0  0  0  0  0  0  0  0  0  0  0
    1.0360    9.2930    0.7210 H   0  0  0  0  0  0  0  0  0  0  0  0
   -2.1547    8.7576   -1.9696 H   0  0  0  0  0  0  0  0  0  0  0  0
   -1.1961    9.8222   -3.0533 H   0  0  0  0  0  0  0  0  0  0  0  0
   -0.9097    8.0489   -3.0533 H   0  0  0  0  0  0  0  0  0  0  0  0
    0.8755    7.4708   -0.2306 H   0  0  0  0  0  0  0  0  0  0  0  0
    0.1282    6.9709   -1.7857 H   0  0  0  0  0  0  0  0  0  0  0  0
    1.6653    7.9004   -1.7857 H   0  0  0  0  0  0  0  0  0  0  0  0
    1.2365   13.0890    0.3913 H   0  0  0  0  0  0  0  0  0  0  0  0
    2.7680   12.8381   -0.5132 H   0  0  0  0  0  0  0  0  0  0  0  0
    1.9790   14.4518   -0.5132 H   0  0  0  0  0  0  0  0  0  0  0  0
   -0.8539   14.0939   -1.5090 H   0  0  0  0  0  0  0  0  0  0  0  0
    0.6658   15.0842   -1.8882 H   0  0  0  0  0  0  0  0  0  0  0  0
   -1.0864   13.5656   -3.8407 H   0  0  0  0  0  0  0  0  0  0  0  0
   -0.8308   15.3500   -3.7055 H   0  0  0  0  0  0  0  0  0  0  0  0
    1.8855   15.5584   -3.0912 H   0  0  0  0  0  0  0  0  0  0  0  0
    2.7947   15.2539   -4.6102 H   0  0  0  0  0  0  0  0  0  0  0  0
    1.3988   16.3844   -4.6102 H   0  0  0  0  0  0  0  0  0  0  0  0
  1  2  1  0
  2  3  1  0
  3  4  1  0
  4  5  1  0
  5  6  1  0
  6  7  1  0
  7  8  1  0
  7  9  1  0
  2 10  1  0
 10 11  1  0
 11 12  1  0
 12 13  1  0
 13 14  1  6
 13 15  1  0
 15 16  1  0
 16 17  1  0
 17 18  2  0
 18 19  1  0
 19 20  1  0
 20 21  1  0
 21 22  1  0
 22 23  1  0
 22 24  1  0
 24 25  1  0
 24 26  1  0
 19 27  1  0
 27 28  1  1
 27 29  1  0
 29 30  1  0
 30 31  1  0
 31 32  1  1
  7  5  1  0
 31 10  1  0
 31 13  1  0
 27 15  1  0
 24 18  1  0
  1 33  1  0
  1 34  1  0
  1 35  1  0
  2 36  1  6
  3 37  1  0
  3 38  1  0
  4 39  1  0
  4 40  1  0
  5 41  1  1
  8 42  1  0
  8 43  1  0
  8 44  1  0
  9 45  1  0
  9 46  1  0
  9 47  1  0
 10 48  1  1
 11 49  1  0
 11 50  1  0
 12 51  1  0
 12 52  1  0
 14 53  1  0
 14 54  1  0
 14 55  1  0
 15 56  1  1
 16 57  1  0
 16 58  1  0
 17 59  1  0
 19 60  1  6
 20 61  1  0
 20 62  1  0
 21 63  1  0
 21 64  1  0
 22 65  1  1
 23 66  1  0
 25 67  1  0
 25 68  1  0
 25 69  1  0
 26 70  1  0
 26 71  1  0
 26 72  1  0
 28 73  1  0
 28 74  1  0
 28 75  1  0
 29 76  1  0
 29 77  1  0
 30 78  1  0
 30 79  1  0
 32 80  1  0
 32 81  1  0
 32 82  1  0
M  END
>  <meeko>  (13) 
{"is_sidechain": [false], "intermolecular_energy": 2.731, "internal_energy": -0.839}

$$$$
EPH_relaxed_0001_pdb2pqr_Repair_213_r2_0001_out
     RDKit          3D

 82 86  0  0  0  0  0  0  0  0999 V2000
   -0.1890    9.2530   -1.8260 C   0  0  0  0  0  0  0  0  0  0  0  0
    0.8660   10.2030   -2.4000 C   0  0  2  0  0  0  0  0  0  0  0  0
    2.2460    9.5270   -2.5330 C   0  0  0  0  0  0  0  0  0  0  0  0
    3.1040   10.0970   -3.6650 C   0  0  0  0  0  0  0  0  0  0  0  0
    4.4830   10.4460   -3.1940 C   0  0  2  0  0  0  0  0  0  0  0  0
    4.9240   11.7610   -3.5540 O   0  0  0  0  0  0  0  0  0  0  0  0
    5.6560   10.6680   -4.1300 C   0  0  0  0  0  0  0  0  0  0  0  0
    5.5040   10.5480   -5.6140 C   0  0  0  0  0  0  0  0  0  0  0  0
    7.0430   10.5180   -3.5870 C   0  0  0  0  0  0  0  0  0  0  0  0
    0.9770   11.4460   -1.5260 C   0  0  1  0  0  0  0  0  0  0  0  0
    2.0950   11.3260   -0.4560 C   0  0  0  0  0  0  0  0  0  0  0  0
    2.7030   12.7420   -0.2840 C   0  0  0  0  0  0  0  0  0  0  0  0
    1.7080   13.6840   -1.0020 C   0  0  1  0  0  0  0  0  0  0  0  0
    0.5590   13.9150    0.0280 C   0  0  0  0  0  0  0  0  0  0  0  0
    2.2930   15.0350   -1.5280 C   0  0  2  0  0  0  0  0  0  0  0  0
    2.8440   15.9740   -0.4410 C   0  0  0  0  0  0  0  0  0  0  0  0
    1.8590   16.9430    0.1250 C   0  0  0  0  0  0  0  0  0  0  0  0
    0.6660   17.2520   -0.4170 C   0  0  0  0  0  0  0  0  0  0  0  0
    0.2440   16.6740   -1.7740 C   0  0  1  0  0  0  0  0  0  0  0  0
   -0.3360   17.8060   -2.6620 C   0  0  0  0  0  0  0  0  0  0  0  0
   -1.4650   18.5670   -1.9750 C   0  0  0  0  0  0  0  0  0  0  0  0
   -0.9910   19.1760   -0.6580 C   0  0  2  0  0  0  0  0  0  0  0  0
   -0.0260   20.1940   -0.9420 O   0  0  0  0  0  0  0  0  0  0  0  0
   -0.3780   18.1310    0.3150 C   0  0  0  0  0  0  0  0  0  0  0  0
   -1.4960   17.2070    0.8580 C   0  0  0  0  0  0  0  0  0  0  0  0
    0.1880   18.8950    1.5420 C   0  0  0  0  0  0  0  0  0  0  0  0
    1.3410   15.8070   -2.5300 C   0  0  1  0  0  0  0  0  0  0  0  0
    2.2560   16.7350   -3.3860 C   0  0  0  0  0  0  0  0  0  0  0  0
    0.6230   14.8360   -3.5400 C   0  0  0  0  0  0  0  0  0  0  0  0
    0.1760   13.4680   -2.9910 C   0  0  0  0  0  0  0  0  0  0  0  0
    1.3160   12.7840   -2.2300 C   0  0  2  0  0  0  0  0  0  0  0  0
    2.4780   12.5190   -3.2470 C   0  0  0  0  0  0  0  0  0  0  0  0
   -0.1527    9.2857   -0.7271 H   0  0  0  0  0  0  0  0  0  0  0  0
   -1.1871    9.5629   -2.1693 H   0  0  0  0  0  0  0  0  0  0  0  0
    0.0150    8.2280   -2.1693 H   0  0  0  0  0  0  0  0  0  0  0  0
    0.5393   10.4877   -3.4111 H   0  0  0  0  0  0  0  0  0  0  0  0
    2.7895    9.6579   -1.5857 H   0  0  0  0  0  0  0  0  0  0  0  0
    2.0638    8.4683   -2.7697 H   0  0  0  0  0  0  0  0  0  0  0  0
    3.1802    9.3475   -4.4665 H   0  0  0  0  0  0  0  0  0  0  0  0
    2.6233   11.0168   -4.0295 H   0  0  0  0  0  0  0  0  0  0  0  0
    4.3615    9.8174   -2.2995 H   0  0  0  0  0  0  0  0  0  0  0  0
    4.6596    9.8814   -5.8434 H   0  0  0  0  0  0  0  0  0  0  0  0
    5.3138   11.5422   -6.0447 H   0  0  0  0  0  0  0  0  0  0  0  0
    6.4269   10.1323   -6.0447 H   0  0  0  0  0  0  0  0  0  0  0  0
    7.0087   10.5217   -2.4875 H   0  0  0  0  0  0  0  0  0  0  0  0
    7.4731    9.5681   -3.9372 H   0  0  0  0  0  0  0  0  0  0  0  0
    7.6663   11.3540   -3.9372 H   0  0  0  0  0  0  0  0  0  0  0  0
   -0.0470   11.4810   -1.1257 H   0  0  0  0  0  0  0  0  0  0  0  0
    1.6712   10.9773    0.4973 H   0  0  0  0  0  0  0  0  0  0  0  0
    2.8625   10.6015   -0.7660 H   0  0  0  0  0  0  0  0  0  0  0  0
    2.7846   13.0027    0.7815 H   0  0  0  0  0  0  0  0  0  0  0  0
    3.7188   12.8130   -0.7000 H   0  0  0  0  0  0  0  0  0  0  0  0
    0.9602   13.8343    1.0491 H   0  0  0  0  0  0  0  0  0  0  0  0
    0.1304   14.9173   -0.1194 H   0  0  0  0  0  0  0  0  0  0  0  0
   -0.2236   13.1562   -0.1194 H   0  0  0  0  0  0  0  0  0  0  0  0
    3.1668   14.7040   -2.1084 H   0  0  0  0  0  0  0  0  0  0  0  0
    3.2225   15.3531    0.3844 H   0  0  0  0  0  0  0  0  0  0  0  0
    3.6212   16.5806   -0.9288 H   0  0  0  0  0  0  0  0  0  0  0  0
    2.1311   17.4470    1.0641 H   0  0  0  0  0  0  0  0  0  0  0  0
   -0.5384   15.9317   -1.5576 H   0  0  0  0  0  0  0  0  0  0  0  0
    0.4709   18.5137   -2.9030 H   0  0  0  0  0  0  0  0  0  0  0  0
   -0.7500   17.3406   -3.5686 H   0  0  0  0  0  0  0  0  0  0  0  0
   -1.8127   19.3720   -2.6392 H   0  0  0  0  0  0  0  0  0  0  0  0
   -2.2833   17.8635   -1.7617 H   0  0  0  0  0  0  0  0  0  0  0  0
   -1.8732   19.5950   -0.1519 H   0  0  0  0  0  0  0  0  0  0  0  0
    0.4190   20.4190   -0.1070 H   0  0  0  0  0  0  0  0  0  0  0  0
   -1.4804   17.2199    1.9578 H   0  0  0  0  0  0  0  0  0  0  0  0
   -2.4730   17.5647    0.5009 H   0  0  0  0  0  0  0  0  0  0  0  0
   -1.3287   16.1801    0.5009 H   0  0  0  0  0  0  0  0  0  0  0  0
   -0.1663   18.4168    2.4671 H   0  0  0  0  0  0  0  0  0  0  0  0
    1.2874   18.8702    1.5142 H   0  0  0  0  0  0  0  0  0  0  0  0
   -0.1560   19.9395    1.5142 H   0  0  0  0  0  0  0  0  0  0  0  0
    2.8709   17.3587   -2.7205 H   0  0  0  0  0  0  0  0  0  0  0  0
    2.9108   16.1199   -4.0207 H   0  0  0  0  0  0  0  0  0  0  0  0
    1.6318   17.3811   -4.0207 H   0  0  0  0  0  0  0  0  0  0  0  0
   -0.2724   15.3515   -3.9176 H   0  0  0  0  0  0  0  0  0  0  0  0
    1.3797   14.6056   -4.3044 H   0  0  0  0  0  0  0  0  0  0  0  0
   -0.6749   13.6143   -2.3094 H   0  0  0  0  0  0  0  0  0  0  0  0
   -0.1145   12.8282   -3.8373 H   0  0  0  0  0  0  0  0  0  0  0  0
    3.4063   12.3073   -2.6961 H   0  0  0  0  0  0  0  0  0  0  0  0
    2.2221   11.6562   -3.8795 H   0  0  0  0  0  0  0  0  0  0  0  0
    2.6215   13.4075   -3.8795 H   0  0  0  0  0  0  0  0  0  0  0  0
  1  2  1  0
  2  3  1  0
  3  4  1  0
  4  5  1  0
  5  6  1  0
  6  7  1  0
  7  8  1  0
  7  9  1  0
  2 10  1  0
 10 11  1  0
 11 12  1  0
 12 13  1  0
 13 14  1  1
 13 15  1  0
 15 16  1  0
 16 17  1  0
 17 18  2  0
 18 19  1  0
 19 20  1  0
 20 21  1  0
 21 22  1  0
 22 23  1  0
 22 24  1  0
 24 25  1  0
 24 26  1  0
 19 27  1  0
 27 28  1  6
 27 29  1  0
 29 30  1  0
 30 31  1  0
 31 32  1  6
  7  5  1  0
 31 10  1  0
 31 13  1  0
 27 15  1  0
 24 18  1  0
  1 33  1  0
  1 34  1  0
  1 35  1  0
  2 36  1  6
  3 37  1  0
  3 38  1  0
  4 39  1  0
  4 40  1  0
  5 41  1  1
  8 42  1  0
  8 43  1  0
  8 44  1  0
  9 45  1  0
  9 46  1  0
  9 47  1  0
 10 48  1  1
 11 49  1  0
 11 50  1  0
 12 51  1  0
 12 52  1  0
 14 53  1  0
 14 54  1  0
 14 55  1  0
 15 56  1  6
 16 57  1  0
 16 58  1  0
 17 59  1  0
 19 60  1  1
 20 61  1  0
 20 62  1  0
 21 63  1  0
 21 64  1  0
 22 65  1  1
 23 66  1  0
 25 67  1  0
 25 68  1  0
 25 69  1  0
 26 70  1  0
 26 71  1  0
 26 72  1  0
 28 73  1  0
 28 74  1  0
 28 75  1  0
 29 76  1  0
 29 77  1  0
 30 78  1  0
 30 79  1  0
 32 80  1  0
 32 81  1  0
 32 82  1  0
M  END
>  <meeko>  (14) 
{"is_sidechain": [false], "intermolecular_energy": 2.731, "internal_energy": -0.839}

$$$$
EPH_relaxed_0001_pdb2pqr_Repair_213_r2_0001_out
     RDKit          3D

 82 86  0  0  0  0  0  0  0  0999 V2000
   -2.3120    7.8450   -2.1900 C   0  0  0  0  0  0  0  0  0  0  0  0
   -2.2300    8.4370   -0.7800 C   0  0  2  0  0  0  0  0  0  0  0  0
   -3.5910    8.4050   -0.0570 C   0  0  0  0  0  0  0  0  0  0  0  0
   -4.7920    8.5160   -1.0010 C   0  0  0  0  0  0  0  0  0  0  0  0
   -5.5390    7.2210   -1.1020 C   0  0  2  0  0  0  0  0  0  0  0  0
   -5.6710    6.7080   -2.4340 O   0  0  0  0  0  0  0  0  0  0  0  0
   -6.8910    7.0860   -1.7770 C   0  0  0  0  0  0  0  0  0  0  0  0
   -7.5760    8.2640   -2.3950 C   0  0  0  0  0  0  0  0  0  0  0  0
   -7.7620    5.9250   -1.4090 C   0  0  0  0  0  0  0  0  0  0  0  0
   -1.7080    9.8670   -0.8460 C   0  0  1  0  0  0  0  0  0  0  0  0
   -1.2830   10.4130    0.5430 C   0  0  0  0  0  0  0  0  0  0  0  0
   -0.0630   11.3400    0.3060 C   0  0  0  0  0  0  0  0  0  0  0  0
   -0.0320   11.5600   -1.2250 C   0  0  1  0  0  0  0  0  0  0  0  0
   -1.0910   12.6750   -1.4910 C   0  0  0  0  0  0  0  0  0  0  0  0
    1.3570   11.9230   -1.8430 C   0  0  2  0  0  0  0  0  0  0  0  0
    1.9640   13.2480   -1.3500 C   0  0  0  0  0  0  0  0  0  0  0  0
    1.6060   14.4530   -2.1550 C   0  0  0  0  0  0  0  0  0  0  0  0
    1.0650   14.4370   -3.3870 C   0  0  0  0  0  0  0  0  0  0  0  0
    0.8490   13.1160   -4.1370 C   0  0  1  0  0  0  0  0  0  0  0  0
    1.3560   13.2600   -5.5960 C   0  0  0  0  0  0  0  0  0  0  0  0
    0.7290   14.4490   -6.3180 C   0  0  0  0  0  0  0  0  0  0  0  0
    1.0140   15.7510   -5.5730 C   0  0  2  0  0  0  0  0  0  0  0  0
    2.4180   16.0220   -5.6380 O   0  0  0  0  0  0  0  0  0  0  0  0
    0.5560   15.7210   -4.0890 C   0  0  0  0  0  0  0  0  0  0  0  0
   -0.9910   15.7310   -4.0210 C   0  0  0  0  0  0  0  0  0  0  0  0
    1.0280   17.0380   -3.4160 C   0  0  0  0  0  0  0  0  0  0  0  0
    1.4120   11.8140   -3.4210 C   0  0  1  0  0  0  0  0  0  0  0  0
    2.9100   11.6040   -3.8000 C   0  0  0  0  0  0  0  0  0  0  0  0
    0.6370   10.5540   -3.9610 C   0  0  0  0  0  0  0  0  0  0  0  0
   -0.6670   10.1760   -3.2330 C   0  0  0  0  0  0  0  0  0  0  0  0
   -0.4530   10.1270   -1.7170 C   0  0  2  0  0  0  0  0  0  0  0  0
    0.5910    8.9980   -1.4170 C   0  0  0  0  0  0  0  0  0  0  0  0
   -2.4626    6.7574   -2.1229 H   0  0  0  0  0  0  0  0  0  0  0  0
   -3.1558    8.2994   -2.7300 H   0  0  0  0  0  0  0  0  0  0  0  0
   -1.3765    8.0529   -2.7300 H   0  0  0  0  0  0  0  0  0  0  0  0
   -1.5335    7.8141   -0.1995 H   0  0  0  0  0  0  0  0  0  0  0  0
   -3.6692    7.4564    0.4944 H   0  0  0  0  0  0  0  0  0  0  0  0
   -3.6226    9.2807    0.6080 H   0  0  0  0  0  0  0  0  0  0  0  0
   -5.4732    9.2918   -0.6215 H   0  0  0  0  0  0  0  0  0  0  0  0
   -4.4182    8.7753   -2.0025 H   0  0  0  0  0  0  0  0  0  0  0  0
   -5.1725    6.9054   -0.1140 H   0  0  0  0  0  0  0  0  0  0  0  0
   -7.9592    8.9230   -1.6019 H   0  0  0  0  0  0  0  0  0  0  0  0
   -6.8598    8.8190   -3.0187 H   0  0  0  0  0  0  0  0  0  0  0  0
   -8.4126    7.9160   -3.0187 H   0  0  0  0  0  0  0  0  0  0  0  0
   -7.8223    5.8446   -0.3136 H   0  0  0  0  0  0  0  0  0  0  0  0
   -8.7702    6.0777   -1.8215 H   0  0  0  0  0  0  0  0  0  0  0  0
   -7.3333    4.9998   -1.8215 H   0  0  0  0  0  0  0  0  0  0  0  0
   -2.5839   10.3620   -1.2907 H   0  0  0  0  0  0  0  0  0  0  0  0
   -2.1088   10.9820    0.9950 H   0  0  0  0  0  0  0  0  0  0  0  0
   -1.0272    9.5916    1.2285 H   0  0  0  0  0  0  0  0  0  0  0  0
   -0.1938   12.2965    0.8332 H   0  0  0  0  0  0  0  0  0  0  0  0
    0.8730   10.9027    0.6837 H   0  0  0  0  0  0  0  0  0  0  0  0
   -1.4615   13.0651   -0.5316 H   0  0  0  0  0  0  0  0  0  0  0  0
   -0.6277   13.4914   -2.0645 H   0  0  0  0  0  0  0  0  0  0  0  0
   -1.9302   12.2544   -2.0645 H   0  0  0  0  0  0  0  0  0  0  0  0
    2.0073   11.1301   -1.4449 H   0  0  0  0  0  0  0  0  0  0  0  0
    1.6221   13.4151   -0.3179 H   0  0  0  0  0  0  0  0  0  0  0  0
    3.0544   13.1350   -1.4406 H   0  0  0  0  0  0  0  0  0  0  0  0
    1.8008   15.4368   -1.7031 H   0  0  0  0  0  0  0  0  0  0  0  0
   -0.2366   12.9385   -4.1355 H   0  0  0  0  0  0  0  0  0  0  0  0
    2.4477   13.3937   -5.5785 H   0  0  0  0  0  0  0  0  0  0  0  0
    1.0687   12.3487   -6.1410 H   0  0  0  0  0  0  0  0  0  0  0  0
    1.1479   14.5157   -7.3329 H   0  0  0  0  0  0  0  0  0  0  0  0
   -0.3600   14.2997   -6.3608 H   0  0  0  0  0  0  0  0  0  0  0  0
    0.4329   16.5454   -6.0641 H   0  0  0  0  0  0  0  0  0  0  0  0
    2.7470   15.6680   -6.4820 H   0  0  0  0  0  0  0  0  0  0  0  0
   -1.3118   15.7331   -2.9688 H   0  0  0  0  0  0  0  0  0  0  0  0
   -1.3743   16.6316   -4.5229 H   0  0  0  0  0  0  0  0  0  0  0  0
   -1.3859   14.8354   -4.5229 H   0  0  0  0  0  0  0  0  0  0  0  0
    0.9878   16.9258   -2.3225 H   0  0  0  0  0  0  0  0  0  0  0  0
    2.0608   17.2576   -3.7243 H   0  0  0  0  0  0  0  0  0  0  0  0
    0.3698   17.8637   -3.7243 H   0  0  0  0  0  0  0  0  0  0  0  0
    3.5118   11.5196   -2.8831 H   0  0  0  0  0  0  0  0  0  0  0  0
    3.0127   10.6827   -4.3921 H   0  0  0  0  0  0  0  0  0  0  0  0
    3.2621   12.4616   -4.3921 H   0  0  0  0  0  0  0  0  0  0  0  0
    0.3866   10.7439   -5.0152 H   0  0  0  0  0  0  0  0  0  0  0  0
    1.3163    9.7050   -3.7943 H   0  0  0  0  0  0  0  0  0  0  0  0
   -1.4384   10.9255   -3.4637 H   0  0  0  0  0  0  0  0  0  0  0  0
   -0.9842    9.1799   -3.5752 H   0  0  0  0  0  0  0  0  0  0  0  0
    0.7005    8.8796   -0.3289 H   0  0  0  0  0  0  0  0  0  0  0  0
    0.2433    8.0511   -1.8557 H   0  0  0  0  0  0  0  0  0  0  0  0
    1.5622    9.2706   -1.8557 H   0  0  0  0  0  0  0  0  0  0  0  0
  1  2  1  0
  2  3  1  0
  3  4  1  0
  4  5  1  0
  5  6  1  0
  6  7  1  0
  7  8  1  0
  7  9  1  0
  2 10  1  0
 10 11  1  0
 11 12  1  0
 12 13  1  0
 13 14  1  1
 13 15  1  0
 15 16  1  0
 16 17  1  0
 17 18  2  0
 18 19  1  0
 19 20  1  0
 20 21  1  0
 21 22  1  0
 22 23  1  0
 22 24  1  0
 24 25  1  0
 24 26  1  0
 19 27  1  0
 27 28  1  1
 27 29  1  0
 29 30  1  0
 30 31  1  0
 31 32  1  6
  7  5  1  0
 31 10  1  0
 31 13  1  0
 27 15  1  0
 24 18  1  0
  1 33  1  0
  1 34  1  0
  1 35  1  0
  2 36  1  1
  3 37  1  0
  3 38  1  0
  4 39  1  0
  4 40  1  0
  5 41  1  1
  8 42  1  0
  8 43  1  0
  8 44  1  0
  9 45  1  0
  9 46  1  0
  9 47  1  0
 10 48  1  6
 11 49  1  0
 11 50  1  0
 12 51  1  0
 12 52  1  0
 14 53  1  0
 14 54  1  0
 14 55  1  0
 15 56  1  1
 16 57  1  0
 16 58  1  0
 17 59  1  0
 19 60  1  6
 20 61  1  0
 20 62  1  0
 21 63  1  0
 21 64  1  0
 22 65  1  6
 23 66  1  0
 25 67  1  0
 25 68  1  0
 25 69  1  0
 26 70  1  0
 26 71  1  0
 26 72  1  0
 28 73  1  0
 28 74  1  0
 28 75  1  0
 29 76  1  0
 29 77  1  0
 30 78  1  0
 30 79  1  0
 32 80  1  0
 32 81  1  0
 32 82  1  0
M  END
>  <meeko>  (15) 
{"is_sidechain": [false], "intermolecular_energy": 2.731, "internal_energy": -0.839}

$$$$
EPH_relaxed_0001_pdb2pqr_Repair_213_r2_0001_out
     RDKit          3D

 82 86  0  0  0  0  0  0  0  0999 V2000
   -2.2060    9.6830   -0.2560 C   0  0  0  0  0  0  0  0  0  0  0  0
   -1.6160   10.5640   -1.3610 C   0  0  2  0  0  0  0  0  0  0  0  0
   -0.6370    9.7850   -2.2620 C   0  0  0  0  0  0  0  0  0  0  0  0
    0.7550    9.6070   -1.6490 C   0  0  0  0  0  0  0  0  0  0  0  0
    1.8350   10.0530   -2.5880 C   0  0  2  0  0  0  0  0  0  0  0  0
    2.9580    9.1660   -2.6720 O   0  0  0  0  0  0  0  0  0  0  0  0
    3.2200   10.4710   -2.1310 C   0  0  0  0  0  0  0  0  0  0  0  0
    3.5990   10.4640   -0.6830 C   0  0  0  0  0  0  0  0  0  0  0  0
    4.0370   11.3440   -3.0310 C   0  0  0  0  0  0  0  0  0  0  0  0
   -0.9130   11.7680   -0.7460 C   0  0  1  0  0  0  0  0  0  0  0  0
    0.2340   11.3620    0.2180 C   0  0  0  0  0  0  0  0  0  0  0  0
    1.3450   12.4330    0.0680 C   0  0  0  0  0  0  0  0  0  0  0  0
    0.6730   13.5840   -0.7170 C   0  0  1  0  0  0  0  0  0  0  0  0
   -0.1290   14.3860    0.3560 C   0  0  0  0  0  0  0  0  0  0  0  0
    1.6280   14.5120   -1.5360 C   0  0  2  0  0  0  0  0  0  0  0  0
    2.6540   15.2950   -0.6980 C   0  0  0  0  0  0  0  0  0  0  0  0
    2.2040   16.6400   -0.2330 C   0  0  0  0  0  0  0  0  0  0  0  0
    1.1430   17.3180   -0.7090 C   0  0  0  0  0  0  0  0  0  0  0  0
    0.3280   16.7760   -1.8890 C   0  0  1  0  0  0  0  0  0  0  0  0
    0.0800   17.9140   -2.9140 C   0  0  0  0  0  0  0  0  0  0  0  0
   -0.5610   19.1440   -2.2780 C   0  0  0  0  0  0  0  0  0  0  0  0
    0.3080   19.6880   -1.1470 C   0  0  2  0  0  0  0  0  0  0  0  0
    1.5250   20.1940   -1.7030 O   0  0  0  0  0  0  0  0  0  0  0  0
    0.6320   18.6270   -0.0580 C   0  0  0  0  0  0  0  0  0  0  0  0
   -0.6490   18.3010    0.7490 C   0  0  0  0  0  0  0  0  0  0  0  0
    1.6280   19.2640    0.9480 C   0  0  0  0  0  0  0  0  0  0  0  0
    0.8880   15.4540   -2.5700 C   0  0  1  0  0  0  0  0  0  0  0  0
    1.9350   15.8220   -3.6650 C   0  0  0  0  0  0  0  0  0  0  0  0
   -0.2900   14.7180   -3.3120 C   0  0  0  0  0  0  0  0  0  0  0  0
   -1.1220   13.7240   -2.4790 C   0  0  0  0  0  0  0  0  0  0  0  0
   -0.2150   12.7550   -1.7140 C   0  0  2  0  0  0  0  0  0  0  0  0
    0.5880   11.9190   -2.7680 C   0  0  0  0  0  0  0  0  0  0  0  0
   -1.9309   10.0938    0.7266 H   0  0  0  0  0  0  0  0  0  0  0  0
   -3.3017    9.6609   -0.3505 H   0  0  0  0  0  0  0  0  0  0  0  0
   -1.8092    8.6614   -0.3505 H   0  0  0  0  0  0  0  0  0  0  0  0
   -2.4487   10.9041   -1.9942 H   0  0  0  0  0  0  0  0  0  0  0  0
   -1.0611    8.7887   -2.4557 H   0  0  0  0  0  0  0  0  0  0  0  0
   -0.5100   10.3733   -3.1827 H   0  0  0  0  0  0  0  0  0  0  0  0
    0.8169   10.2021   -0.7260 H   0  0  0  0  0  0  0  0  0  0  0  0
    0.9032    8.5375   -1.4389 H   0  0  0  0  0  0  0  0  0  0  0  0
    1.0975   10.5373   -3.2448 H   0  0  0  0  0  0  0  0  0  0  0  0
    2.6887   10.4808   -0.0656 H   0  0  0  0  0  0  0  0  0  0  0  0
    4.1768    9.5550   -0.4596 H   0  0  0  0  0  0  0  0  0  0  0  0
    4.2100   11.3510   -0.4596 H   0  0  0  0  0  0  0  0  0  0  0  0
    4.6633   12.0133   -2.4229 H   0  0  0  0  0  0  0  0  0  0  0  0
    4.6799   10.7165   -3.6658 H   0  0  0  0  0  0  0  0  0  0  0  0
    3.3683   11.9439   -3.6658 H   0  0  0  0  0  0  0  0  0  0  0  0
   -1.7727   12.2571   -0.2648 H   0  0  0  0  0  0  0  0  0  0  0  0
   -0.1328   11.3394    1.2548 H   0  0  0  0  0  0  0  0  0  0  0  0
    0.6168   10.3595   -0.0239 H   0  0  0  0  0  0  0  0  0  0  0  0
    1.6840   12.7818    1.0546 H   0  0  0  0  0  0  0  0  0  0  0  0
    2.2355   12.0416   -0.4457 H   0  0  0  0  0  0  0  0  0  0  0  0
    0.1866   14.0704    1.3614 H   0  0  0  0  0  0  0  0  0  0  0  0
    0.0658   15.4614    0.2313 H   0  0  0  0  0  0  0  0  0  0  0  0
   -1.2044   14.1912    0.2313 H   0  0  0  0  0  0  0  0  0  0  0  0
    2.2116   13.7885   -2.1242 H   0  0  0  0  0  0  0  0  0  0  0  0
    2.8985   14.6928    0.1895 H   0  0  0  0  0  0  0  0  0  0  0  0
    3.5143   15.4739   -1.3597 H   0  0  0  0  0  0  0  0  0  0  0  0
    2.7891   17.1178    0.5666 H   0  0  0  0  0  0  0  0  0  0  0  0
   -0.6299   16.4386   -1.4664 H   0  0  0  0  0  0  0  0  0  0  0  0
    1.0438   18.2071   -3.3557 H   0  0  0  0  0  0  0  0  0  0  0  0
   -0.6147   17.5316   -3.6763 H   0  0  0  0  0  0  0  0  0  0  0  0
   -0.6836   19.9232   -3.0446 H   0  0  0  0  0  0  0  0  0  0  0  0
   -1.5382   18.8561   -1.8630 H   0  0  0  0  0  0  0  0  0  0  0  0
   -0.2621   20.4853   -0.6477 H   0  0  0  0  0  0  0  0  0  0  0  0
    1.8710   19.5220   -2.3140 H   0  0  0  0  0  0  0  0  0  0  0  0
   -0.4286   18.3571    1.8252 H   0  0  0  0  0  0  0  0  0  0  0  0
   -1.4357   19.0276    0.4975 H   0  0  0  0  0  0  0  0  0  0  0  0
   -0.9926   17.2868    0.4975 H   0  0  0  0  0  0  0  0  0  0  0  0
    1.2971   19.0523    1.9755 H   0  0  0  0  0  0  0  0  0  0  0  0
    2.6303   18.8389    0.7907 H   0  0  0  0  0  0  0  0  0  0  0  0
    1.6624   20.3521    0.7907 H   0  0  0  0  0  0  0  0  0  0  0  0
    2.8684   16.1501   -3.1843 H   0  0  0  0  0  0  0  0  0  0  0  0
    2.1355   14.9405   -4.2916 H   0  0  0  0  0  0  0  0  0  0  0  0
    1.5398   16.6351   -4.2916 H   0  0  0  0  0  0  0  0  0  0  0  0
   -0.9761   15.4886   -3.6934 H   0  0  0  0  0  0  0  0  0  0  0  0
    0.1951   14.1079   -4.0882 H   0  0  0  0  0  0  0  0  0  0  0  0
   -1.7376   14.2843   -1.7599 H   0  0  0  0  0  0  0  0  0  0  0  0
   -1.7596   13.1426   -3.1613 H   0  0  0  0  0  0  0  0  0  0  0  0
    1.2592   11.2202   -2.2473 H   0  0  0  0  0  0  0  0  0  0  0  0
   -0.1135   11.3528   -3.3983 H   0  0  0  0  0  0  0  0  0  0  0  0
    1.1820   12.5971   -3.3983 H   0  0  0  0  0  0  0  0  0  0  0  0
  1  2  1  0
  2  3  1  0
  3  4  1  0
  4  5  1  0
  5  6  1  0
  6  7  1  0
  7  8  1  0
  7  9  1  0
  2 10  1  0
 10 11  1  0
 11 12  1  0
 12 13  1  0
 13 14  1  1
 13 15  1  0
 15 16  1  0
 16 17  1  0
 17 18  2  0
 18 19  1  0
 19 20  1  0
 20 21  1  0
 21 22  1  0
 22 23  1  0
 22 24  1  0
 24 25  1  0
 24 26  1  0
 19 27  1  0
 27 28  1  6
 27 29  1  0
 29 30  1  0
 30 31  1  0
 31 32  1  6
  7  5  1  0
 31 10  1  0
 31 13  1  0
 27 15  1  0
 24 18  1  0
  1 33  1  0
  1 34  1  0
  1 35  1  0
  2 36  1  6
  3 37  1  0
  3 38  1  0
  4 39  1  0
  4 40  1  0
  5 41  1  6
  8 42  1  0
  8 43  1  0
  8 44  1  0
  9 45  1  0
  9 46  1  0
  9 47  1  0
 10 48  1  1
 11 49  1  0
 11 50  1  0
 12 51  1  0
 12 52  1  0
 14 53  1  0
 14 54  1  0
 14 55  1  0
 15 56  1  6
 16 57  1  0
 16 58  1  0
 17 59  1  0
 19 60  1  1
 20 61  1  0
 20 62  1  0
 21 63  1  0
 21 64  1  0
 22 65  1  1
 23 66  1  0
 25 67  1  0
 25 68  1  0
 25 69  1  0
 26 70  1  0
 26 71  1  0
 26 72  1  0
 28 73  1  0
 28 74  1  0
 28 75  1  0
 29 76  1  0
 29 77  1  0
 30 78  1  0
 30 79  1  0
 32 80  1  0
 32 81  1  0
 32 82  1  0
M  END
>  <meeko>  (16) 
{"is_sidechain": [false], "intermolecular_energy": 2.731, "internal_energy": -0.839}

$$$$
EPH_relaxed_0001_pdb2pqr_Repair_213_r2_0001_out
     RDKit          3D

 82 86  0  0  0  0  0  0  0  0999 V2000
    0.2710    9.8920   -4.6790 C   0  0  0  0  0  0  0  0  0  0  0  0
    1.3010   10.5810   -3.7790 C   0  0  2  0  0  0  0  0  0  0  0  0
    1.6680    9.7200   -2.5530 C   0  0  0  0  0  0  0  0  0  0  0  0
    0.6000    8.6870   -2.1850 C   0  0  0  0  0  0  0  0  0  0  0  0
   -0.2530    9.1530   -1.0450 C   0  0  2  0  0  0  0  0  0  0  0  0
   -0.7780    8.1040   -0.2210 O   0  0  0  0  0  0  0  0  0  0  0  0
   -1.7430    8.8800   -0.9480 C   0  0  0  0  0  0  0  0  0  0  0  0
   -2.4660    8.1130   -2.0100 C   0  0  0  0  0  0  0  0  0  0  0  0
   -2.5780    9.7690   -0.0810 C   0  0  0  0  0  0  0  0  0  0  0  0
    0.7700   11.9350   -3.3240 C   0  0  1  0  0  0  0  0  0  0  0  0
   -0.7330   11.8900   -2.9410 C   0  0  0  0  0  0  0  0  0  0  0  0
   -0.9240   12.8810   -1.7630 C   0  0  0  0  0  0  0  0  0  0  0  0
    0.3870   13.7000   -1.7260 C   0  0  1  0  0  0  0  0  0  0  0  0
    0.2120   14.7870   -2.8330 C   0  0  0  0  0  0  0  0  0  0  0  0
    0.7670   14.3360   -0.3490 C   0  0  2  0  0  0  0  0  0  0  0  0
   -0.2360   15.3710    0.1900 C   0  0  0  0  0  0  0  0  0  0  0  0
    0.0260   16.7840   -0.2160 C   0  0  0  0  0  0  0  0  0  0  0  0
    1.1760   17.2460   -0.7430 C   0  0  0  0  0  0  0  0  0  0  0  0
    2.3990   16.3320   -0.8870 C   0  0  1  0  0  0  0  0  0  0  0  0
    3.6620   17.0720   -0.3720 C   0  0  0  0  0  0  0  0  0  0  0  0
    3.8620   18.4260   -1.0460 C   0  0  0  0  0  0  0  0  0  0  0  0
    2.6490   19.3270   -0.8310 C   0  0  2  0  0  0  0  0  0  0  0  0
    2.5590   19.6550    0.5590 O   0  0  0  0  0  0  0  0  0  0  0  0
    1.3160   18.6830   -1.3030 C   0  0  0  0  0  0  0  0  0  0  0  0
    1.2950   18.6050   -2.8500 C   0  0  0  0  0  0  0  0  0  0  0  0
    0.1570   19.6340   -0.9010 C   0  0  0  0  0  0  0  0  0  0  0  0
    2.2530   14.8740   -0.2710 C   0  0  1  0  0  0  0  0  0  0  0  0
    2.6400   14.8930    1.2390 C   0  0  0  0  0  0  0  0  0  0  0  0
    3.2760   13.9110   -0.9800 C   0  0  0  0  0  0  0  0  0  0  0  0
    2.8000   13.2210   -2.2730 C   0  0  0  0  0  0  0  0  0  0  0  0
    1.4260   12.5730   -2.0740 C   0  0  2  0  0  0  0  0  0  0  0  0
    1.5760   11.4600   -0.9810 C   0  0  0  0  0  0  0  0  0  0  0  0
   -0.4821    9.3882   -4.0553 H   0  0  0  0  0  0  0  0  0  0  0  0
   -0.2217   10.6430   -5.3140 H   0  0  0  0  0  0  0  0  0  0  0  0
    0.7771    9.1500   -5.3140 H   0  0  0  0  0  0  0  0  0  0  0  0
    2.2175   10.7210   -4.3710 H   0  0  0  0  0  0  0  0  0  0  0  0
    2.6057    9.1877   -2.7706 H   0  0  0  0  0  0  0  0  0  0  0  0
    1.7627   10.4038   -1.6965 H   0  0  0  0  0  0  0  0  0  0  0  0
   -0.0414    8.5101   -3.0609 H   0  0  0  0  0  0  0  0  0  0  0  0
    1.1096    7.7625   -1.8760 H   0  0  0  0  0  0  0  0  0  0  0  0
    0.3357   10.0776   -0.9526 H   0  0  0  0  0  0  0  0  0  0  0  0
   -3.1481    7.3894   -1.5397 H   0  0  0  0  0  0  0  0  0  0  0  0
   -3.0443    8.8089   -2.6355 H   0  0  0  0  0  0  0  0  0  0  0  0
   -1.7372    7.5768   -2.6355 H   0  0  0  0  0  0  0  0  0  0  0  0
   -2.3712    9.5489    0.9767 H   0  0  0  0  0  0  0  0  0  0  0  0
   -2.3336   10.8207   -0.2912 H   0  0  0  0  0  0  0  0  0  0  0  0
   -3.6429    9.5909   -0.2912 H   0  0  0  0  0  0  0  0  0  0  0  0
    1.0027   12.5332   -4.2173 H   0  0  0  0  0  0  0  0  0  0  0  0
   -1.3516   12.1959   -3.7976 H   0  0  0  0  0  0  0  0  0  0  0  0
   -1.0375   10.8725   -2.6547 H   0  0  0  0  0  0  0  0  0  0  0  0
   -1.7874   13.5380   -1.9443 H   0  0  0  0  0  0  0  0  0  0  0  0
   -1.1207   12.3652   -0.8116 H   0  0  0  0  0  0  0  0  0  0  0  0
    0.0540   15.7683   -2.3616 H   0  0  0  0  0  0  0  0  0  0  0  0
    1.1161   14.8220   -3.4586 H   0  0  0  0  0  0  0  0  0  0  0  0
   -0.6574   14.5365   -3.4586 H   0  0  0  0  0  0  0  0  0  0  0  0
    0.7041   13.4759    0.3339 H   0  0  0  0  0  0  0  0  0  0  0  0
   -1.2375   15.0938   -0.1707 H   0  0  0  0  0  0  0  0  0  0  0  0
   -0.1401   15.3462    1.2855 H   0  0  0  0  0  0  0  0  0  0  0  0
   -0.7891   17.5086   -0.0725 H   0  0  0  0  0  0  0  0  0  0  0  0
    2.4988   16.1262   -1.9630 H   0  0  0  0  0  0  0  0  0  0  0  0
    3.5612   17.2291    0.7120 H   0  0  0  0  0  0  0  0  0  0  0  0
    4.5356   16.4477   -0.6109 H   0  0  0  0  0  0  0  0  0  0  0  0
    4.7518   18.9124   -0.6197 H   0  0  0  0  0  0  0  0  0  0  0  0
    3.9923   18.2645   -2.1263 H   0  0  0  0  0  0  0  0  0  0  0  0
    2.7955   20.2289   -1.4435 H   0  0  0  0  0  0  0  0  0  0  0  0
    2.8010   18.8610    1.0650 H   0  0  0  0  0  0  0  0  0  0  0  0
    1.0208   17.5865   -3.1621 H   0  0  0  0  0  0  0  0  0  0  0  0
    0.5574   19.3201   -3.2432 H   0  0  0  0  0  0  0  0  0  0  0  0
    2.2919   18.8531   -3.2432 H   0  0  0  0  0  0  0  0  0  0  0  0
    0.0909   19.6883    0.1957 H   0  0  0  0  0  0  0  0  0  0  0  0
    0.3491   20.6382   -1.3069 H   0  0  0  0  0  0  0  0  0  0  0  0
   -0.7903   19.2495   -1.3069 H   0  0  0  0  0  0  0  0  0  0  0  0
    1.7277   14.8482    1.8519 H   0  0  0  0  0  0  0  0  0  0  0  0
    3.2767   14.0250    1.4653 H   0  0  0  0  0  0  0  0  0  0  0  0
    3.1887   15.8192    1.4653 H   0  0  0  0  0  0  0  0  0  0  0  0
    4.1711   14.5005   -1.2276 H   0  0  0  0  0  0  0  0  0  0  0  0
    3.4456   13.0937   -0.2636 H   0  0  0  0  0  0  0  0  0  0  0  0
    2.7321   13.9693   -3.0764 H   0  0  0  0  0  0  0  0  0  0  0  0
    3.5232   12.4359   -2.5387 H   0  0  0  0  0  0  0  0  0  0  0  0
    1.5145   11.9164    0.0179 H   0  0  0  0  0  0  0  0  0  0  0  0
    0.7693   10.7212   -1.0969 H   0  0  0  0  0  0  0  0  0  0  0  0
    2.5495   10.9611   -1.0969 H   0  0  0  0  0  0  0  0  0  0  0  0
  1  2  1  0
  2  3  1  0
  3  4  1  0
  4  5  1  0
  5  6  1  0
  6  7  1  0
  7  8  1  0
  7  9  1  0
  2 10  1  0
 10 11  1  0
 11 12  1  0
 12 13  1  0
 13 14  1  6
 13 15  1  0
 15 16  1  0
 16 17  1  0
 17 18  2  0
 18 19  1  0
 19 20  1  0
 20 21  1  0
 21 22  1  0
 22 23  1  0
 22 24  1  0
 24 25  1  0
 24 26  1  0
 19 27  1  0
 27 28  1  1
 27 29  1  0
 29 30  1  0
 30 31  1  0
 31 32  1  1
  7  5  1  0
 31 10  1  0
 31 13  1  0
 27 15  1  0
 24 18  1  0
  1 33  1  0
  1 34  1  0
  1 35  1  0
  2 36  1  6
  3 37  1  0
  3 38  1  0
  4 39  1  0
  4 40  1  0
  5 41  1  1
  8 42  1  0
  8 43  1  0
  8 44  1  0
  9 45  1  0
  9 46  1  0
  9 47  1  0
 10 48  1  6
 11 49  1  0
 11 50  1  0
 12 51  1  0
 12 52  1  0
 14 53  1  0
 14 54  1  0
 14 55  1  0
 15 56  1  1
 16 57  1  0
 16 58  1  0
 17 59  1  0
 19 60  1  6
 20 61  1  0
 20 62  1  0
 21 63  1  0
 21 64  1  0
 22 65  1  6
 23 66  1  0
 25 67  1  0
 25 68  1  0
 25 69  1  0
 26 70  1  0
 26 71  1  0
 26 72  1  0
 28 73  1  0
 28 74  1  0
 28 75  1  0
 29 76  1  0
 29 77  1  0
 30 78  1  0
 30 79  1  0
 32 80  1  0
 32 81  1  0
 32 82  1  0
M  END
>  <meeko>  (17) 
{"is_sidechain": [false], "intermolecular_energy": 2.731, "internal_energy": -0.839}

$$$$
EPH_relaxed_0001_pdb2pqr_Repair_213_r2_0001_out
     RDKit          3D

 82 86  0  0  0  0  0  0  0  0999 V2000
    0.9050   14.8720   -2.6250 C   0  0  0  0  0  0  0  0  0  0  0  0
    1.1830   14.1960   -3.9700 C   0  0  2  0  0  0  0  0  0  0  0  0
    0.4950   14.9270   -5.1400 C   0  0  0  0  0  0  0  0  0  0  0  0
    1.0940   14.5940   -6.5100 C   0  0  0  0  0  0  0  0  0  0  0  0
    0.8550   15.6930   -7.5010 C   0  0  2  0  0  0  0  0  0  0  0  0
    0.4110   15.2510   -8.7900 O   0  0  0  0  0  0  0  0  0  0  0  0
    1.6960   15.8920   -8.7480 C   0  0  0  0  0  0  0  0  0  0  0  0
    2.8400   14.9840   -9.0710 C   0  0  0  0  0  0  0  0  0  0  0  0
    1.7160   17.2450   -9.3890 C   0  0  0  0  0  0  0  0  0  0  0  0
    0.7280   12.7420   -3.9240 C   0  0  1  0  0  0  0  0  0  0  0  0
    1.8550   11.7500   -4.3150 C   0  0  0  0  0  0  0  0  0  0  0  0
    1.6540   10.4800   -3.4490 C   0  0  0  0  0  0  0  0  0  0  0  0
    0.2420   10.6440   -2.8380 C   0  0  1  0  0  0  0  0  0  0  0  0
   -0.7380   10.1860   -3.9630 C   0  0  0  0  0  0  0  0  0  0  0  0
   -0.0230    9.8850   -1.4970 C   0  0  2  0  0  0  0  0  0  0  0  0
    0.0770    8.3520   -1.5840 C   0  0  0  0  0  0  0  0  0  0  0  0
   -1.1990    7.6480   -1.9090 C   0  0  0  0  0  0  0  0  0  0  0  0
   -2.4300    8.1890   -1.8430 C   0  0  0  0  0  0  0  0  0  0  0  0
   -2.6370    9.6130   -1.3120 C   0  0  1  0  0  0  0  0  0  0  0  0
   -3.8140    9.6240   -0.3020 C   0  0  0  0  0  0  0  0  0  0  0  0
   -5.0910    9.0280   -0.8860 C   0  0  0  0  0  0  0  0  0  0  0  0
   -4.8600    7.5910   -1.3490 C   0  0  2  0  0  0  0  0  0  0  0  0
   -4.6020    6.7740   -0.2030 O   0  0  0  0  0  0  0  0  0  0  0  0
   -3.6900    7.4550   -2.3630 C   0  0  0  0  0  0  0  0  0  0  0  0
   -4.0980    8.0880   -3.7160 C   0  0  0  0  0  0  0  0  0  0  0  0
   -3.4720    5.9430   -2.6390 C   0  0  0  0  0  0  0  0  0  0  0  0
   -1.3400   10.3370   -0.7460 C   0  0  1  0  0  0  0  0  0  0  0  0
   -1.1420    9.9740    0.7580 C   0  0  0  0  0  0  0  0  0  0  0  0
   -1.5560   11.8960   -0.8020 C   0  0  0  0  0  0  0  0  0  0  0  0
   -1.1630   12.6050   -2.1120 C   0  0  0  0  0  0  0  0  0  0  0  0
    0.2420   12.1910   -2.5600 C   0  0  2  0  0  0  0  0  0  0  0  0
    1.2520   12.6590   -1.4570 C   0  0  0  0  0  0  0  0  0  0  0  0
    1.1850   14.1912   -1.8076 H   0  0  0  0  0  0  0  0  0  0  0  0
    1.4958   15.7969   -2.5504 H   0  0  0  0  0  0  0  0  0  0  0  0
   -0.1655   15.1137   -2.5504 H   0  0  0  0  0  0  0  0  0  0  0  0
    2.2680   14.2407   -4.1455 H   0  0  0  0  0  0  0  0  0  0  0  0
   -0.5685   14.6460   -5.1481 H   0  0  0  0  0  0  0  0  0  0  0  0
    0.6424   16.0049   -4.9775 H   0  0  0  0  0  0  0  0  0  0  0  0
    2.1780   14.4441   -6.3983 H   0  0  0  0  0  0  0  0  0  0  0  0
    0.6067   13.6819   -6.8850 H   0  0  0  0  0  0  0  0  0  0  0  0
    0.5495   16.3814   -6.6993 H   0  0  0  0  0  0  0  0  0  0  0  0
    3.2958   14.6222   -8.1375 H   0  0  0  0  0  0  0  0  0  0  0  0
    2.4744   14.1275   -9.6565 H   0  0  0  0  0  0  0  0  0  0  0  0
    3.5911   15.5345   -9.6565 H   0  0  0  0  0  0  0  0  0  0  0  0
    1.7275   18.0203   -8.6087 H   0  0  0  0  0  0  0  0  0  0  0  0
    2.6157   17.3411  -10.0146 H   0  0  0  0  0  0  0  0  0  0  0  0
    0.8196   17.3676  -10.0146 H   0  0  0  0  0  0  0  0  0  0  0  0
   -0.1130   12.7906   -4.6314 H   0  0  0  0  0  0  0  0  0  0  0  0
    1.7821   11.4957   -5.3827 H   0  0  0  0  0  0  0  0  0  0  0  0
    2.8474   12.1922   -4.1428 H   0  0  0  0  0  0  0  0  0  0  0  0
    1.7053    9.5739   -4.0706 H   0  0  0  0  0  0  0  0  0  0  0  0
    2.4320   10.3727   -2.6788 H   0  0  0  0  0  0  0  0  0  0  0  0
   -1.6455    9.7619   -3.5085 H   0  0  0  0  0  0  0  0  0  0  0  0
   -1.0099   11.0503   -4.5867 H   0  0  0  0  0  0  0  0  0  0  0  0
   -0.2493    9.4230   -4.5867 H   0  0  0  0  0  0  0  0  0  0  0  0
    0.8252   10.2043   -0.8736 H   0  0  0  0  0  0  0  0  0  0  0  0
    0.8112    8.1028   -2.3643 H   0  0  0  0  0  0  0  0  0  0  0  0
    0.3677    8.0081   -0.5804 H   0  0  0  0  0  0  0  0  0  0  0  0
   -1.1271    6.5982   -2.2296 H   0  0  0  0  0  0  0  0  0  0  0  0
   -2.8911   10.2295   -2.1869 H   0  0  0  0  0  0  0  0  0  0  0  0
   -3.5245    9.0389    0.5833 H   0  0  0  0  0  0  0  0  0  0  0  0
   -4.0226   10.6727   -0.0435 H   0  0  0  0  0  0  0  0  0  0  0  0
   -5.8770    9.0364   -0.1165 H   0  0  0  0  0  0  0  0  0  0  0  0
   -5.3958    9.6319   -1.7534 H   0  0  0  0  0  0  0  0  0  0  0  0
   -5.7691    7.2627   -1.8741 H   0  0  0  0  0  0  0  0  0  0  0  0
   -4.9290    5.8800   -0.4000 H   0  0  0  0  0  0  0  0  0  0  0  0
   -4.6855    8.9996   -3.5320 H   0  0  0  0  0  0  0  0  0  0  0  0
   -3.1942    8.3436   -4.2886 H   0  0  0  0  0  0  0  0  0  0  0  0
   -4.7041    7.3705   -4.2886 H   0  0  0  0  0  0  0  0  0  0  0  0
   -3.3942    5.4034   -1.6836 H   0  0  0  0  0  0  0  0  0  0  0  0
   -4.3226    5.5489   -3.2145 H   0  0  0  0  0  0  0  0  0  0  0  0
   -2.5447    5.8053   -3.2145 H   0  0  0  0  0  0  0  0  0  0  0  0
   -1.5743   10.7666    1.3865 H   0  0  0  0  0  0  0  0  0  0  0  0
   -1.6445    9.0196    0.9741 H   0  0  0  0  0  0  0  0  0  0  0  0
   -0.0676    9.8798    0.9741 H   0  0  0  0  0  0  0  0  0  0  0  0
   -2.6242   12.0905   -0.6259 H   0  0  0  0  0  0  0  0  0  0  0  0
   -0.8804   12.3079   -0.0379 H   0  0  0  0  0  0  0  0  0  0  0  0
   -1.8848   12.3359   -2.8972 H   0  0  0  0  0  0  0  0  0  0  0  0
   -1.1696   13.6912   -1.9383 H   0  0  0  0  0  0  0  0  0  0  0  0
    0.8260   12.4616   -0.4622 H   0  0  0  0  0  0  0  0  0  0  0  0
    2.1971   12.1070   -1.5673 H   0  0  0  0  0  0  0  0  0  0  0  0
    1.4419   13.7369   -1.5673 H   0  0  0  0  0  0  0  0  0  0  0  0
  1  2  1  0
  2  3  1  0
  3  4  1  0
  4  5  1  0
  5  6  1  0
  6  7  1  0
  7  8  1  0
  7  9  1  0
  2 10  1  0
 10 11  1  0
 11 12  1  0
 12 13  1  0
 13 14  1  6
 13 15  1  0
 15 16  1  0
 16 17  1  0
 17 18  2  0
 18 19  1  0
 19 20  1  0
 20 21  1  0
 21 22  1  0
 22 23  1  0
 22 24  1  0
 24 25  1  0
 24 26  1  0
 19 27  1  0
 27 28  1  1
 27 29  1  0
 29 30  1  0
 30 31  1  0
 31 32  1  1
  7  5  1  0
 31 10  1  0
 31 13  1  0
 27 15  1  0
 24 18  1  0
  1 33  1  0
  1 34  1  0
  1 35  1  0
  2 36  1  6
  3 37  1  0
  3 38  1  0
  4 39  1  0
  4 40  1  0
  5 41  1  1
  8 42  1  0
  8 43  1  0
  8 44  1  0
  9 45  1  0
  9 46  1  0
  9 47  1  0
 10 48  1  6
 11 49  1  0
 11 50  1  0
 12 51  1  0
 12 52  1  0
 14 53  1  0
 14 54  1  0
 14 55  1  0
 15 56  1  1
 16 57  1  0
 16 58  1  0
 17 59  1  0
 19 60  1  6
 20 61  1  0
 20 62  1  0
 21 63  1  0
 21 64  1  0
 22 65  1  6
 23 66  1  0
 25 67  1  0
 25 68  1  0
 25 69  1  0
 26 70  1  0
 26 71  1  0
 26 72  1  0
 28 73  1  0
 28 74  1  0
 28 75  1  0
 29 76  1  0
 29 77  1  0
 30 78  1  0
 30 79  1  0
 32 80  1  0
 32 81  1  0
 32 82  1  0
M  END
>  <meeko>  (18) 
{"is_sidechain": [false], "intermolecular_energy": 2.731, "internal_energy": -0.839}

$$$$
EPH_relaxed_0001_pdb2pqr_Repair_213_r2_0001_out
     RDKit          3D

 82 86  0  0  0  0  0  0  0  0999 V2000
   -1.7640   14.7220    0.2630 C   0  0  0  0  0  0  0  0  0  0  0  0
   -0.3970   15.4080    0.3450 C   0  0  2  0  0  0  0  0  0  0  0  0
   -0.2850   16.5970   -0.6300 C   0  0  0  0  0  0  0  0  0  0  0  0
    1.1280   17.1780   -0.7320 C   0  0  0  0  0  0  0  0  0  0  0  0
    1.2100   18.5470   -0.1280 C   0  0  2  0  0  0  0  0  0  0  0  0
    2.1590   19.4210   -0.7520 O   0  0  0  0  0  0  0  0  0  0  0  0
    2.4290   19.0630    0.6140 C   0  0  0  0  0  0  0  0  0  0  0  0
    3.6500   18.2170    0.7910 C   0  0  0  0  0  0  0  0  0  0  0  0
    2.2530   20.1940    1.5790 C   0  0  0  0  0  0  0  0  0  0  0  0
    0.7090   14.3980    0.0640 C   0  0  1  0  0  0  0  0  0  0  0  0
    0.8750   13.3610    1.2070 C   0  0  0  0  0  0  0  0  0  0  0  0
    1.2670   12.0180    0.5390 C   0  0  0  0  0  0  0  0  0  0  0  0
    1.6370   12.3980   -0.9140 C   0  0  1  0  0  0  0  0  0  0  0  0
    3.1020   12.9290   -0.8290 C   0  0  0  0  0  0  0  0  0  0  0  0
    1.4940   11.2660   -1.9830 C   0  0  2  0  0  0  0  0  0  0  0  0
    2.4030   10.0440   -1.7650 C   0  0  0  0  0  0  0  0  0  0  0  0
    3.7380   10.1170   -2.4290 C   0  0  0  0  0  0  0  0  0  0  0  0
    4.0830   10.9840   -3.3990 C   0  0  0  0  0  0  0  0  0  0  0  0
    3.0520   11.9530   -3.9920 C   0  0  1  0  0  0  0  0  0  0  0  0
    3.1570   11.9360   -5.5400 C   0  0  0  0  0  0  0  0  0  0  0  0
    4.5730   12.2160   -6.0340 C   0  0  0  0  0  0  0  0  0  0  0  0
    5.5590   11.1970   -5.4690 C   0  0  2  0  0  0  0  0  0  0  0  0
    5.2600    9.9110   -6.0200 O   0  0  0  0  0  0  0  0  0  0  0  0
    5.5370   11.1190   -3.9170 C   0  0  0  0  0  0  0  0  0  0  0  0
    6.1470   12.4110   -3.3210 C   0  0  0  0  0  0  0  0  0  0  0  0
    6.4720    9.9570   -3.4840 C   0  0  0  0  0  0  0  0  0  0  0  0
    1.5590   11.7750   -3.4790 C   0  0  1  0  0  0  0  0  0  0  0  0
    0.8220   10.7080   -4.3450 C   0  0  0  0  0  0  0  0  0  0  0  0
    0.7800   13.1280   -3.6850 C   0  0  0  0  0  0  0  0  0  0  0  0
    0.8620   14.1580   -2.5430 C   0  0  0  0  0  0  0  0  0  0  0  0
    0.5550   13.5040   -1.1920 C   0  0  2  0  0  0  0  0  0  0  0  0
   -0.9210   12.9810   -1.2400 C   0  0  0  0  0  0  0  0  0  0  0  0
   -2.1409   14.5329    1.2790 H   0  0  0  0  0  0  0  0  0  0  0  0
   -2.4693   15.3730   -0.2744 H   0  0  0  0  0  0  0  0  0  0  0  0
   -1.6636   13.7675   -0.2744 H   0  0  0  0  0  0  0  0  0  0  0  0
   -0.2868   15.8057    1.3647 H   0  0  0  0  0  0  0  0  0  0  0  0
   -0.5937   16.2568   -1.6295 H   0  0  0  0  0  0  0  0  0  0  0  0
   -0.9335   17.3952   -0.2396 H   0  0  0  0  0  0  0  0  0  0  0  0
    1.8260   16.5126   -0.2028 H   0  0  0  0  0  0  0  0  0  0  0  0
    1.3897   17.2573   -1.7975 H   0  0  0  0  0  0  0  0  0  0  0  0
    0.1426   18.5195    0.1364 H   0  0  0  0  0  0  0  0  0  0  0  0
    3.8484   18.0795    1.8642 H   0  0  0  0  0  0  0  0  0  0  0  0
    3.4882   17.2364    0.3195 H   0  0  0  0  0  0  0  0  0  0  0  0
    4.5112   18.7129    0.3195 H   0  0  0  0  0  0  0  0  0  0  0  0
    2.3127   19.8105    2.6082 H   0  0  0  0  0  0  0  0  0  0  0  0
    3.0460   20.9394    1.4189 H   0  0  0  0  0  0  0  0  0  0  0  0
    1.2710   20.6632    1.4189 H   0  0  0  0  0  0  0  0  0  0  0  0
    1.5574   15.0859   -0.0661 H   0  0  0  0  0  0  0  0  0  0  0  0
    1.6657   13.6844    1.9000 H   0  0  0  0  0  0  0  0  0  0  0  0
   -0.0552   13.2579    1.7850 H   0  0  0  0  0  0  0  0  0  0  0  0
    2.1277   11.5653    1.0531 H   0  0  0  0  0  0  0  0  0  0  0  0
    0.4545   11.2778    0.5825 H   0  0  0  0  0  0  0  0  0  0  0  0
    3.3931   13.0345    0.2265 H   0  0  0  0  0  0  0  0  0  0  0  0
    3.7788   12.2190   -1.3268 H   0  0  0  0  0  0  0  0  0  0  0  0
    3.1667   13.9078   -1.3268 H   0  0  0  0  0  0  0  0  0  0  0  0
    0.4677   10.9091   -1.8120 H   0  0  0  0  0  0  0  0  0  0  0  0
    2.5670    9.9308   -0.6832 H   0  0  0  0  0  0  0  0  0  0  0  0
    1.8813    9.1906   -2.2227 H   0  0  0  0  0  0  0  0  0  0  0  0
    4.5049    9.4015   -2.0974 H   0  0  0  0  0  0  0  0  0  0  0  0
    3.3164   12.9505   -3.6111 H   0  0  0  0  0  0  0  0  0  0  0  0
    2.8463   10.9454   -5.9035 H   0  0  0  0  0  0  0  0  0  0  0  0
    2.5049   12.7326   -5.9274 H   0  0  0  0  0  0  0  0  0  0  0  0
    4.5885   12.1612   -7.1325 H   0  0  0  0  0  0  0  0  0  0  0  0
    4.8714   13.2189   -5.6948 H   0  0  0  0  0  0  0  0  0  0  0  0
    6.5702   11.5245   -5.7521 H   0  0  0  0  0  0  0  0  0  0  0  0
    4.3080    9.8890   -6.2150 H   0  0  0  0  0  0  0  0  0  0  0  0
    6.1210   12.3560   -2.2227 H   0  0  0  0  0  0  0  0  0  0  0  0
    7.1889   12.5141   -3.6584 H   0  0  0  0  0  0  0  0  0  0  0  0
    5.5645   13.2810   -3.6584 H   0  0  0  0  0  0  0  0  0  0  0  0
    6.5115    9.9079   -2.3858 H   0  0  0  0  0  0  0  0  0  0  0  0
    6.0836    9.0070   -3.8798 H   0  0  0  0  0  0  0  0  0  0  0  0
    7.4831   10.1331   -3.8798 H   0  0  0  0  0  0  0  0  0  0  0  0
    0.3214    9.9832   -3.6862 H   0  0  0  0  0  0  0  0  0  0  0  0
    0.0734   11.2045   -4.9799 H   0  0  0  0  0  0  0  0  0  0  0  0
    1.5514   10.1836   -4.9799 H   0  0  0  0  0  0  0  0  0  0  0  0
    1.1771   13.6056   -4.5929 H   0  0  0  0  0  0  0  0  0  0  0  0
   -0.2811   12.8434   -3.7399 H   0  0  0  0  0  0  0  0  0  0  0  0
    1.8758   14.5839   -2.5146 H   0  0  0  0  0  0  0  0  0  0  0  0
    0.1181   14.9470   -2.7280 H   0  0  0  0  0  0  0  0  0  0  0  0
   -1.2964   12.8480   -0.2146 H   0  0  0  0  0  0  0  0  0  0  0  0
   -1.5514   13.7105   -1.7695 H   0  0  0  0  0  0  0  0  0  0  0  0
   -0.9515   12.0173   -1.7695 H   0  0  0  0  0  0  0  0  0  0  0  0
  1  2  1  0
  2  3  1  0
  3  4  1  0
  4  5  1  0
  5  6  1  0
  6  7  1  0
  7  8  1  0
  7  9  1  0
  2 10  1  0
 10 11  1  0
 11 12  1  0
 12 13  1  0
 13 14  1  1
 13 15  1  0
 15 16  1  0
 16 17  1  0
 17 18  2  0
 18 19  1  0
 19 20  1  0
 20 21  1  0
 21 22  1  0
 22 23  1  0
 22 24  1  0
 24 25  1  0
 24 26  1  0
 19 27  1  0
 27 28  1  6
 27 29  1  0
 29 30  1  0
 30 31  1  0
 31 32  1  6
  7  5  1  0
 31 10  1  0
 31 13  1  0
 27 15  1  0
 24 18  1  0
  1 33  1  0
  1 34  1  0
  1 35  1  0
  2 36  1  1
  3 37  1  0
  3 38  1  0
  4 39  1  0
  4 40  1  0
  5 41  1  1
  8 42  1  0
  8 43  1  0
  8 44  1  0
  9 45  1  0
  9 46  1  0
  9 47  1  0
 10 48  1  6
 11 49  1  0
 11 50  1  0
 12 51  1  0
 12 52  1  0
 14 53  1  0
 14 54  1  0
 14 55  1  0
 15 56  1  6
 16 57  1  0
 16 58  1  0
 17 59  1  0
 19 60  1  1
 20 61  1  0
 20 62  1  0
 21 63  1  0
 21 64  1  0
 22 65  1  1
 23 66  1  0
 25 67  1  0
 25 68  1  0
 25 69  1  0
 26 70  1  0
 26 71  1  0
 26 72  1  0
 28 73  1  0
 28 74  1  0
 28 75  1  0
 29 76  1  0
 29 77  1  0
 30 78  1  0
 30 79  1  0
 32 80  1  0
 32 81  1  0
 32 82  1  0
M  END
>  <meeko>  (19) 
{"is_sidechain": [false], "intermolecular_energy": 2.731, "internal_energy": -0.839}

$$$$
