EPH_relaxed_0001_pdb2pqr_Repair_175_r2_0001_out
     RDKit          3D

 82 86  0  0  0  0  0  0  0  0999 V2000
   -5.1180    5.8890   -1.8220 C   0  0  0  0  0  0  0  0  0  0  0  0
   -5.4470    7.3840   -1.8300 C   0  0  2  0  0  0  0  0  0  0  0  0
   -5.2340    8.0320   -0.4470 C   0  0  0  0  0  0  0  0  0  0  0  0
   -4.1840    9.1460   -0.4440 C   0  0  0  0  0  0  0  0  0  0  0  0
   -2.8200    8.6230   -0.7790 C   0  0  2  0  0  0  0  0  0  0  0  0
   -1.8000    8.9570    0.1710 O   0  0  0  0  0  0  0  0  0  0  0  0
   -1.6480    9.5150   -1.1440 C   0  0  0  0  0  0  0  0  0  0  0  0
   -1.7870   11.0040   -1.1930 C   0  0  0  0  0  0  0  0  0  0  0  0
   -0.5140    8.9240   -1.9220 C   0  0  0  0  0  0  0  0  0  0  0  0
   -6.8840    7.5980   -2.2900 C   0  0  1  0  0  0  0  0  0  0  0  0
   -7.1880    6.8980   -3.6410 C   0  0  0  0  0  0  0  0  0  0  0  0
   -8.6590    6.4130   -3.5720 C   0  0  0  0  0  0  0  0  0  0  0  0
   -9.2490    7.1310   -2.3360 C   0  0  1  0  0  0  0  0  0  0  0  0
   -9.6130    8.5630   -2.8390 C   0  0  0  0  0  0  0  0  0  0  0  0
  -10.4680    6.4340   -1.6470 C   0  0  2  0  0  0  0  0  0  0  0  0
  -11.7230    6.2970   -2.5270 C   0  0  0  0  0  0  0  0  0  0  0  0
  -12.6860    7.4340   -2.4450 C   0  0  0  0  0  0  0  0  0  0  0  0
  -12.6950    8.3840   -1.4920 C   0  0  0  0  0  0  0  0  0  0  0  0
  -11.7280    8.3170   -0.3040 C   0  0  1  0  0  0  0  0  0  0  0  0
  -12.5030    8.5920    1.0120 C   0  0  0  0  0  0  0  0  0  0  0  0
  -13.2830    9.9020    0.9680 C   0  0  0  0  0  0  0  0  0  0  0  0
  -14.2760    9.9070   -0.1910 C   0  0  2  0  0  0  0  0  0  0  0  0
  -15.2850    8.9240    0.0610 O   0  0  0  0  0  0  0  0  0  0  0  0
  -13.6110    9.6310   -1.5690 C   0  0  0  0  0  0  0  0  0  0  0  0
  -12.7430   10.8460   -1.9810 C   0  0  0  0  0  0  0  0  0  0  0  0
  -14.7380    9.5230   -2.6300 C   0  0  0  0  0  0  0  0  0  0  0  0
  -10.8240    7.0130   -0.2180 C   0  0  1  0  0  0  0  0  0  0  0  0
  -11.5870    5.8850    0.5410 C   0  0  0  0  0  0  0  0  0  0  0  0
   -9.5390    7.3320    0.6350 C   0  0  0  0  0  0  0  0  0  0  0  0
   -8.3270    7.9070   -0.1230 C   0  0  0  0  0  0  0  0  0  0  0  0
   -8.0120    7.0720   -1.3670 C   0  0  2  0  0  0  0  0  0  0  0  0
   -7.6200    5.6320   -0.8900 C   0  0  0  0  0  0  0  0  0  0  0  0
   -5.0404    5.5362   -0.7830 H   0  0  0  0  0  0  0  0  0  0  0  0
   -5.9158    5.3352   -2.3386 H   0  0  0  0  0  0  0  0  0  0  0  0
   -4.1615    5.7213   -2.3386 H   0  0  0  0  0  0  0  0  0  0  0  0
   -4.7558    7.8714   -2.5333 H   0  0  0  0  0  0  0  0  0  0  0  0
   -6.1916    8.4566   -0.1113 H   0  0  0  0  0  0  0  0  0  0  0  0
   -4.8664    7.2422    0.2246 H   0  0  0  0  0  0  0  0  0  0  0  0
   -4.4674    9.9050   -1.1880 H   0  0  0  0  0  0  0  0  0  0  0  0
   -4.1465    9.5792    0.5664 H   0  0  0  0  0  0  0  0  0  0  0  0
   -3.2541    7.7381   -1.2675 H   0  0  0  0  0  0  0  0  0  0  0  0
   -1.8242   11.4027   -0.1685 H   0  0  0  0  0  0  0  0  0  0  0  0
   -0.9252   11.4355   -1.7233 H   0  0  0  0  0  0  0  0  0  0  0  0
   -2.7137   11.2685   -1.7233 H   0  0  0  0  0  0  0  0  0  0  0  0
    0.2418    8.5301   -1.2266 H   0  0  0  0  0  0  0  0  0  0  0  0
   -0.8903    8.1073   -2.5556 H   0  0  0  0  0  0  0  0  0  0  0  0
   -0.0601    9.7003   -2.5556 H   0  0  0  0  0  0  0  0  0  0  0  0
   -6.9065    8.6973   -2.3217 H   0  0  0  0  0  0  0  0  0  0  0  0
   -7.0616    7.6074   -4.4721 H   0  0  0  0  0  0  0  0  0  0  0  0
   -6.5018    6.0555   -3.8127 H   0  0  0  0  0  0  0  0  0  0  0  0
   -9.2048    6.6975   -4.4837 H   0  0  0  0  0  0  0  0  0  0  0  0
   -8.7341    5.3184   -3.4938 H   0  0  0  0  0  0  0  0  0  0  0  0
   -9.7808    9.2233   -1.9754 H   0  0  0  0  0  0  0  0  0  0  0  0
   -8.7869    8.9587   -3.4480 H   0  0  0  0  0  0  0  0  0  0  0  0
  -10.5278    8.5162   -3.4480 H   0  0  0  0  0  0  0  0  0  0  0  0
  -10.0978    5.4098   -1.4921 H   0  0  0  0  0  0  0  0  0  0  0  0
  -11.3961    6.2032   -3.5731 H   0  0  0  0  0  0  0  0  0  0  0  0
  -12.2620    5.4140   -2.1531 H   0  0  0  0  0  0  0  0  0  0  0  0
  -13.4535    7.5012   -3.2301 H   0  0  0  0  0  0  0  0  0  0  0  0
  -10.9853    9.1107   -0.4725 H   0  0  0  0  0  0  0  0  0  0  0  0
  -13.2093    7.7666    1.1844 H   0  0  0  0  0  0  0  0  0  0  0  0
  -11.7653    8.6695    1.8242 H   0  0  0  0  0  0  0  0  0  0  0  0
  -13.8321   10.0259    1.9130 H   0  0  0  0  0  0  0  0  0  0  0  0
  -12.5722   10.7292    0.8248 H   0  0  0  0  0  0  0  0  0  0  0  0
  -14.7101   10.9161   -0.2482 H   0  0  0  0  0  0  0  0  0  0  0  0
  -14.8350    8.0970    0.3030 H   0  0  0  0  0  0  0  0  0  0  0  0
  -12.3772   11.3581   -1.0788 H   0  0  0  0  0  0  0  0  0  0  0  0
  -11.8869   10.4993   -2.5784 H   0  0  0  0  0  0  0  0  0  0  0  0
  -13.3485   11.5435   -2.5784 H   0  0  0  0  0  0  0  0  0  0  0  0
  -15.7103    9.4298   -2.1240 H   0  0  0  0  0  0  0  0  0  0  0  0
  -14.7370   10.4254   -3.2591 H   0  0  0  0  0  0  0  0  0  0  0  0
  -14.5657    8.6373   -3.2591 H   0  0  0  0  0  0  0  0  0  0  0  0
  -11.4836    6.0379    1.6254 H   0  0  0  0  0  0  0  0  0  0  0  0
  -12.6518    5.9138    0.2666 H   0  0  0  0  0  0  0  0  0  0  0  0
  -11.1640    4.9074    0.2666 H   0  0  0  0  0  0  0  0  0  0  0  0
   -9.8249    8.0611    1.4074 H   0  0  0  0  0  0  0  0  0  0  0  0
   -9.2015    6.3591    1.0217 H   0  0  0  0  0  0  0  0  0  0  0  0
   -8.5512    8.9393   -0.4298 H   0  0  0  0  0  0  0  0  0  0  0  0
   -7.4531    7.8849    0.5447 H   0  0  0  0  0  0  0  0  0  0  0  0
   -7.6112    5.5997    0.2095 H   0  0  0  0  0  0  0  0  0  0  0  0
   -8.3534    4.9068   -1.2723 H   0  0  0  0  0  0  0  0  0  0  0  0
   -6.6202    5.3786   -1.2723 H   0  0  0  0  0  0  0  0  0  0  0  0
  1  2  1  0
  2  3  1  0
  3  4  1  0
  4  5  1  0
  5  6  1  0
  6  7  1  0
  7  8  1  0
  7  9  1  0
  2 10  1  0
 10 11  1  0
 11 12  1  0
 12 13  1  0
 13 14  1  6
 13 15  1  0
 15 16  1  0
 16 17  1  0
 17 18  2  0
 18 19  1  0
 19 20  1  0
 20 21  1  0
 21 22  1  0
 22 23  1  0
 22 24  1  0
 24 25  1  0
 24 26  1  0
 19 27  1  0
 27 28  1  1
 27 29  1  0
 29 30  1  0
 30 31  1  0
 31 32  1  1
  7  5  1  0
 31 10  1  0
 31 13  1  0
 27 15  1  0
 24 18  1  0
  1 33  1  0
  1 34  1  0
  1 35  1  0
  2 36  1  6
  3 37  1  0
  3 38  1  0
  4 39  1  0
  4 40  1  0
  5 41  1  6
  8 42  1  0
  8 43  1  0
  8 44  1  0
  9 45  1  0
  9 46  1  0
  9 47  1  0
 10 48  1  6
 11 49  1  0
 11 50  1  0
 12 51  1  0
 12 52  1  0
 14 53  1  0
 14 54  1  0
 14 55  1  0
 15 56  1  1
 16 57  1  0
 16 58  1  0
 17 59  1  0
 19 60  1  6
 20 61  1  0
 20 62  1  0
 21 63  1  0
 21 64  1  0
 22 65  1  6
 23 66  1  0
 25 67  1  0
 25 68  1  0
 25 69  1  0
 26 70  1  0
 26 71  1  0
 26 72  1  0
 28 73  1  0
 28 74  1  0
 28 75  1  0
 29 76  1  0
 29 77  1  0
 30 78  1  0
 30 79  1  0
 32 80  1  0
 32 81  1  0
 32 82  1  0
M  END
>  <meeko>  (1) 
{"is_sidechain": [false], "intermolecular_energy": 2.731, "internal_energy": -0.839}

$$$$
EPH_relaxed_0001_pdb2pqr_Repair_175_r2_0001_out
     RDKit          3D

 82 86  0  0  0  0  0  0  0  0999 V2000
   -0.7470    8.7900   -1.2220 C   0  0  0  0  0  0  0  0  0  0  0  0
   -1.5950    9.6010   -0.2380 C   0  0  2  0  0  0  0  0  0  0  0  0
   -2.9990    9.9070   -0.7970 C   0  0  0  0  0  0  0  0  0  0  0  0
   -4.1250    9.1620   -0.0740 C   0  0  0  0  0  0  0  0  0  0  0  0
   -4.3290    7.7870   -0.6330 C   0  0  2  0  0  0  0  0  0  0  0  0
   -4.4130    7.7290   -2.0630 O   0  0  0  0  0  0  0  0  0  0  0  0
   -5.5970    7.3520   -1.3430 C   0  0  0  0  0  0  0  0  0  0  0  0
   -6.7480    8.2900   -1.5300 C   0  0  0  0  0  0  0  0  0  0  0  0
   -5.9090    5.8900   -1.4190 C   0  0  0  0  0  0  0  0  0  0  0  0
   -0.8810   10.9000    0.1160 C   0  0  1  0  0  0  0  0  0  0  0  0
    0.2650   10.6920    1.1410 C   0  0  0  0  0  0  0  0  0  0  0  0
    1.3840   11.7000    0.7720 C   0  0  0  0  0  0  0  0  0  0  0  0
    0.7190   12.6710   -0.2310 C   0  0  1  0  0  0  0  0  0  0  0  0
   -0.0740   13.6820    0.6560 C   0  0  0  0  0  0  0  0  0  0  0  0
    1.6790   13.4040   -1.2240 C   0  0  2  0  0  0  0  0  0  0  0  0
    2.7130   14.3330   -0.5660 C   0  0  0  0  0  0  0  0  0  0  0  0
    2.2750   15.7490   -0.3860 C   0  0  0  0  0  0  0  0  0  0  0  0
    1.2180   16.3230   -0.9900 C   0  0  0  0  0  0  0  0  0  0  0  0
    0.3940   15.5570   -2.0330 C   0  0  1  0  0  0  0  0  0  0  0  0
    0.1520   16.4630   -3.2690 C   0  0  0  0  0  0  0  0  0  0  0  0
   -0.4770   17.8020   -2.8980 C   0  0  0  0  0  0  0  0  0  0  0  0
    0.3990   18.5600   -1.9040 C   0  0  2  0  0  0  0  0  0  0  0  0
    1.6180   18.9310   -2.5540 O   0  0  0  0  0  0  0  0  0  0  0  0
    0.7180   17.7420   -0.6210 C   0  0  0  0  0  0  0  0  0  0  0  0
   -0.5630   17.5990    0.2370 C   0  0  0  0  0  0  0  0  0  0  0  0
    1.7220   18.5640    0.2310 C   0  0  0  0  0  0  0  0  0  0  0  0
    0.9430   14.1190   -2.4290 C   0  0  1  0  0  0  0  0  0  0  0  0
    1.9900   14.2460   -3.5770 C   0  0  0  0  0  0  0  0  0  0  0  0
   -0.2430   13.2560   -3.0020 C   0  0  0  0  0  0  0  0  0  0  0  0
   -1.0810   12.4610   -1.9820 C   0  0  0  0  0  0  0  0  0  0  0  0
   -0.1790   11.6630   -1.0360 C   0  0  2  0  0  0  0  0  0  0  0  0
    0.6150   10.6220   -1.8970 C   0  0  0  0  0  0  0  0  0  0  0  0
   -0.0624    8.1352   -0.6630 H   0  0  0  0  0  0  0  0  0  0  0  0
   -1.4055    8.1770   -1.8549 H   0  0  0  0  0  0  0  0  0  0  0  0
   -0.1640    9.4752   -1.8549 H   0  0  0  0  0  0  0  0  0  0  0  0
   -1.7258    8.9903    0.6675 H   0  0  0  0  0  0  0  0  0  0  0  0
   -3.1819   10.9877   -0.7041 H   0  0  0  0  0  0  0  0  0  0  0  0
   -3.0094    9.5682   -1.8435 H   0  0  0  0  0  0  0  0  0  0  0  0
   -3.8696    9.0787    0.9927 H   0  0  0  0  0  0  0  0  0  0  0  0
   -5.0565    9.7302   -0.2136 H   0  0  0  0  0  0  0  0  0  0  0  0
   -3.7557    7.3406    0.1929 H   0  0  0  0  0  0  0  0  0  0  0  0
   -7.1305    8.6017   -0.5469 H   0  0  0  0  0  0  0  0  0  0  0  0
   -6.4124    9.1751   -2.0903 H   0  0  0  0  0  0  0  0  0  0  0  0
   -7.5472    7.7827   -2.0903 H   0  0  0  0  0  0  0  0  0  0  0  0
   -5.9964    5.4804   -0.4019 H   0  0  0  0  0  0  0  0  0  0  0  0
   -6.8583    5.7451   -1.9555 H   0  0  0  0  0  0  0  0  0  0  0  0
   -5.1016    5.3702   -1.9555 H   0  0  0  0  0  0  0  0  0  0  0  0
   -1.7356   11.4840    0.4882 H   0  0  0  0  0  0  0  0  0  0  0  0
   -0.0989   10.8866    2.1607 H   0  0  0  0  0  0  0  0  0  0  0  0
    0.6392    9.6580    1.1105 H   0  0  0  0  0  0  0  0  0  0  0  0
    1.7294   12.2409    1.6653 H   0  0  0  0  0  0  0  0  0  0  0  0
    2.2693   11.2037    0.3477 H   0  0  0  0  0  0  0  0  0  0  0  0
    0.1034   13.4558    1.7178 H   0  0  0  0  0  0  0  0  0  0  0  0
    0.2646   14.7055    0.4376 H   0  0  0  0  0  0  0  0  0  0  0  0
   -1.1487   13.5969    0.4376 H   0  0  0  0  0  0  0  0  0  0  0  0
    2.2560   12.5710   -1.6519 H   0  0  0  0  0  0  0  0  0  0  0  0
    2.9553   13.9235    0.4258 H   0  0  0  0  0  0  0  0  0  0  0  0
    3.5727   14.3653   -1.2514 H   0  0  0  0  0  0  0  0  0  0  0  0
    2.8660   16.3759    0.2979 H   0  0  0  0  0  0  0  0  0  0  0  0
   -0.5656   15.3213   -1.5497 H   0  0  0  0  0  0  0  0  0  0  0  0
    1.1168   16.6513   -3.7626 H   0  0  0  0  0  0  0  0  0  0  0  0
   -0.5481   15.9384   -3.9358 H   0  0  0  0  0  0  0  0  0  0  0  0
   -0.5960   18.4082   -3.8081 H   0  0  0  0  0  0  0  0  0  0  0  0
   -1.4548   17.6129   -2.4309 H   0  0  0  0  0  0  0  0  0  0  0  0
   -0.1631   19.4476   -1.5781 H   0  0  0  0  0  0  0  0  0  0  0  0
    2.3430   18.7950   -1.9200 H   0  0  0  0  0  0  0  0  0  0  0  0
   -0.2952   17.6289    1.3035 H   0  0  0  0  0  0  0  0  0  0  0  0
   -1.2515   18.4259    0.0085 H   0  0  0  0  0  0  0  0  0  0  0  0
   -1.0523   16.6407    0.0085 H   0  0  0  0  0  0  0  0  0  0  0  0
    1.5187   18.3976    1.2992 H   0  0  0  0  0  0  0  0  0  0  0  0
    2.7483   18.2435   -0.0012 H   0  0  0  0  0  0  0  0  0  0  0  0
    1.6104   19.6334   -0.0012 H   0  0  0  0  0  0  0  0  0  0  0  0
    2.9944   14.3678   -3.1454 H   0  0  0  0  0  0  0  0  0  0  0  0
    1.9653   13.3383   -4.1978 H   0  0  0  0  0  0  0  0  0  0  0  0
    1.7490   15.1215   -4.1978 H   0  0  0  0  0  0  0  0  0  0  0  0
   -0.9240   13.9375   -3.5328 H   0  0  0  0  0  0  0  0  0  0  0  0
    0.2354   12.4951   -3.6362 H   0  0  0  0  0  0  0  0  0  0  0  0
   -1.6904   13.1618   -1.3925 H   0  0  0  0  0  0  0  0  0  0  0  0
   -1.7254   11.7574   -2.5294 H   0  0  0  0  0  0  0  0  0  0  0  0
    1.1464    9.9253   -1.2320 H   0  0  0  0  0  0  0  0  0  0  0  0
   -0.0861   10.0603   -2.5317 H   0  0  0  0  0  0  0  0  0  0  0  0
    1.3421   11.1496   -2.5317 H   0  0  0  0  0  0  0  0  0  0  0  0
  1  2  1  0
  2  3  1  0
  3  4  1  0
  4  5  1  0
  5  6  1  0
  6  7  1  0
  7  8  1  0
  7  9  1  0
  2 10  1  0
 10 11  1  0
 11 12  1  0
 12 13  1  0
 13 14  1  1
 13 15  1  0
 15 16  1  0
 16 17  1  0
 17 18  2  0
 18 19  1  0
 19 20  1  0
 20 21  1  0
 21 22  1  0
 22 23  1  0
 22 24  1  0
 24 25  1  0
 24 26  1  0
 19 27  1  0
 27 28  1  6
 27 29  1  0
 29 30  1  0
 30 31  1  0
 31 32  1  6
  7  5  1  0
 31 10  1  0
 31 13  1  0
 27 15  1  0
 24 18  1  0
  1 33  1  0
  1 34  1  0
  1 35  1  0
  2 36  1  1
  3 37  1  0
  3 38  1  0
  4 39  1  0
  4 40  1  0
  5 41  1  1
  8 42  1  0
  8 43  1  0
  8 44  1  0
  9 45  1  0
  9 46  1  0
  9 47  1  0
 10 48  1  1
 11 49  1  0
 11 50  1  0
 12 51  1  0
 12 52  1  0
 14 53  1  0
 14 54  1  0
 14 55  1  0
 15 56  1  6
 16 57  1  0
 16 58  1  0
 17 59  1  0
 19 60  1  1
 20 61  1  0
 20 62  1  0
 21 63  1  0
 21 64  1  0
 22 65  1  1
 23 66  1  0
 25 67  1  0
 25 68  1  0
 25 69  1  0
 26 70  1  0
 26 71  1  0
 26 72  1  0
 28 73  1  0
 28 74  1  0
 28 75  1  0
 29 76  1  0
 29 77  1  0
 30 78  1  0
 30 79  1  0
 32 80  1  0
 32 81  1  0
 32 82  1  0
M  END
>  <meeko>  (2) 
{"is_sidechain": [false], "intermolecular_energy": 2.731, "internal_energy": -0.839}

$$$$
EPH_relaxed_0001_pdb2pqr_Repair_175_r2_0001_out
     RDKit          3D

 82 86  0  0  0  0  0  0  0  0999 V2000
   -4.9740    8.7150   -0.5990 C   0  0  0  0  0  0  0  0  0  0  0  0
   -5.3320    7.5570   -1.5340 C   0  0  2  0  0  0  0  0  0  0  0  0
   -4.3460    7.4360   -2.7130 C   0  0  0  0  0  0  0  0  0  0  0  0
   -2.9120    7.1100   -2.2860 C   0  0  0  0  0  0  0  0  0  0  0  0
   -1.9540    8.1860   -2.6970 C   0  0  2  0  0  0  0  0  0  0  0  0
   -0.5950    7.9630   -2.2970 O   0  0  0  0  0  0  0  0  0  0  0  0
   -1.2500    9.1010   -1.7120 C   0  0  0  0  0  0  0  0  0  0  0  0
   -1.4760    8.9810   -0.2370 C   0  0  0  0  0  0  0  0  0  0  0  0
   -0.7270   10.4150   -2.2030 C   0  0  0  0  0  0  0  0  0  0  0  0
   -6.7520    7.7330   -2.0580 C   0  0  1  0  0  0  0  0  0  0  0  0
   -6.9750    7.0350   -3.4270 C   0  0  0  0  0  0  0  0  0  0  0  0
   -8.4320    6.5070   -3.4280 C   0  0  0  0  0  0  0  0  0  0  0  0
   -9.0990    7.1980   -2.2150 C   0  0  1  0  0  0  0  0  0  0  0  0
   -9.4810    8.6230   -2.7260 C   0  0  0  0  0  0  0  0  0  0  0  0
  -10.3270    6.4610   -1.5890 C   0  0  2  0  0  0  0  0  0  0  0  0
  -11.5360    6.2940   -2.5250 C   0  0  0  0  0  0  0  0  0  0  0  0
  -12.5350    7.4030   -2.4800 C   0  0  0  0  0  0  0  0  0  0  0  0
  -12.6150    8.3450   -1.5220 C   0  0  0  0  0  0  0  0  0  0  0  0
  -11.7010    8.2960   -0.2910 C   0  0  1  0  0  0  0  0  0  0  0  0
  -12.5430    8.5380    0.9890 C   0  0  0  0  0  0  0  0  0  0  0  0
  -13.3580    9.8250    0.9190 C   0  0  0  0  0  0  0  0  0  0  0  0
  -14.2970    9.8110   -0.2850 C   0  0  2  0  0  0  0  0  0  0  0  0
  -15.2870    8.7980   -0.0860 O   0  0  0  0  0  0  0  0  0  0  0  0
  -13.5620    9.5650   -1.6320 C   0  0  0  0  0  0  0  0  0  0  0  0
  -12.7120   10.8080   -1.9960 C   0  0  0  0  0  0  0  0  0  0  0  0
  -14.6360    9.4330   -2.7450 C   0  0  0  0  0  0  0  0  0  0  0  0
  -10.7640    7.0180   -0.1730 C   0  0  1  0  0  0  0  0  0  0  0  0
  -11.5280    5.8630    0.5430 C   0  0  0  0  0  0  0  0  0  0  0  0
   -9.5300    7.3670    0.7400 C   0  0  0  0  0  0  0  0  0  0  0  0
   -8.3020    7.9830    0.0420 C   0  0  0  0  0  0  0  0  0  0  0  0
   -7.9060    7.1670   -1.1920 C   0  0  2  0  0  0  0  0  0  0  0  0
   -7.4940    5.7350   -0.7070 C   0  0  0  0  0  0  0  0  0  0  0  0
   -5.0753    8.3872    0.4461 H   0  0  0  0  0  0  0  0  0  0  0  0
   -3.9366    9.0297   -0.7856 H   0  0  0  0  0  0  0  0  0  0  0  0
   -5.6528    9.5602   -0.7856 H   0  0  0  0  0  0  0  0  0  0  0  0
   -5.2635    6.6270   -0.9505 H   0  0  0  0  0  0  0  0  0  0  0  0
   -4.6997    6.6365   -3.3807 H   0  0  0  0  0  0  0  0  0  0  0  0
   -4.3180    8.4168   -3.2102 H   0  0  0  0  0  0  0  0  0  0  0  0
   -2.8812    7.0041   -1.1915 H   0  0  0  0  0  0  0  0  0  0  0  0
   -2.6107    6.1749   -2.7808 H   0  0  0  0  0  0  0  0  0  0  0  0
   -2.5380    8.3908   -3.6064 H   0  0  0  0  0  0  0  0  0  0  0  0
   -0.6289    9.4308    0.3015 H   0  0  0  0  0  0  0  0  0  0  0  0
   -2.4038    9.5053    0.0356 H   0  0  0  0  0  0  0  0  0  0  0  0
   -1.5614    7.9188    0.0356 H   0  0  0  0  0  0  0  0  0  0  0  0
   -0.4731   11.0529   -1.3435 H   0  0  0  0  0  0  0  0  0  0  0  0
    0.1727   10.2467   -2.8131 H   0  0  0  0  0  0  0  0  0  0  0  0
   -1.4963   10.9110   -2.8131 H   0  0  0  0  0  0  0  0  0  0  0  0
   -6.8036    8.8315   -2.0828 H   0  0  0  0  0  0  0  0  0  0  0  0
   -6.8324    7.7546   -4.2467 H   0  0  0  0  0  0  0  0  0  0  0  0
   -6.2575    6.2141   -3.5731 H   0  0  0  0  0  0  0  0  0  0  0  0
   -8.9441    6.7825   -4.3617 H   0  0  0  0  0  0  0  0  0  0  0  0
   -8.4780    5.4101   -3.3602 H   0  0  0  0  0  0  0  0  0  0  0  0
   -9.6586    9.2855   -1.8660 H   0  0  0  0  0  0  0  0  0  0  0  0
   -8.6593    9.0263   -3.3360 H   0  0  0  0  0  0  0  0  0  0  0  0
  -10.3943    8.5612   -3.3360 H   0  0  0  0  0  0  0  0  0  0  0  0
   -9.9346    5.4463   -1.4263 H   0  0  0  0  0  0  0  0  0  0  0  0
  -11.1598    6.2169   -3.5558 H   0  0  0  0  0  0  0  0  0  0  0  0
  -12.0653    5.3932   -2.1809 H   0  0  0  0  0  0  0  0  0  0  0  0
  -13.2675    7.4544   -3.2991 H   0  0  0  0  0  0  0  0  0  0  0  0
  -10.9743    9.1117   -0.4194 H   0  0  0  0  0  0  0  0  0  0  0  0
  -13.2322    7.6912    1.1229 H   0  0  0  0  0  0  0  0  0  0  0  0
  -11.8455    8.6304    1.8346 H   0  0  0  0  0  0  0  0  0  0  0  0
  -13.9532    9.9248    1.8387 H   0  0  0  0  0  0  0  0  0  0  0  0
  -12.6660   10.6737    0.8150 H   0  0  0  0  0  0  0  0  0  0  0  0
  -14.7571   10.8077   -0.3558 H   0  0  0  0  0  0  0  0  0  0  0  0
  -14.9590    7.9800   -0.4970 H   0  0  0  0  0  0  0  0  0  0  0  0
  -12.3733   11.3033   -1.0741 H   0  0  0  0  0  0  0  0  0  0  0  0
  -11.8382   10.4946   -2.5862 H   0  0  0  0  0  0  0  0  0  0  0  0
  -13.3210   11.5086   -2.5862 H   0  0  0  0  0  0  0  0  0  0  0  0
  -15.6277    9.3111   -2.2850 H   0  0  0  0  0  0  0  0  0  0  0  0
  -14.6302   10.3386   -3.3694 H   0  0  0  0  0  0  0  0  0  0  0  0
  -14.4111    8.5557   -3.3694 H   0  0  0  0  0  0  0  0  0  0  0  0
  -11.4449    5.9886    1.6326 H   0  0  0  0  0  0  0  0  0  0  0  0
  -12.5882    5.8882    0.2508 H   0  0  0  0  0  0  0  0  0  0  0  0
  -11.0900    4.8972    0.2508 H   0  0  0  0  0  0  0  0  0  0  0  0
   -9.8722    8.0813    1.5033 H   0  0  0  0  0  0  0  0  0  0  0  0
   -9.1822    6.4013    1.1356 H   0  0  0  0  0  0  0  0  0  0  0  0
   -8.5423    9.0107   -0.2681 H   0  0  0  0  0  0  0  0  0  0  0  0
   -7.4592    7.9811    0.7489 H   0  0  0  0  0  0  0  0  0  0  0  0
   -7.4863    5.7084    0.3927 H   0  0  0  0  0  0  0  0  0  0  0  0
   -8.2164    4.9974   -1.0866 H   0  0  0  0  0  0  0  0  0  0  0  0
   -6.4901    5.4940   -1.0866 H   0  0  0  0  0  0  0  0  0  0  0  0
  1  2  1  0
  2  3  1  0
  3  4  1  0
  4  5  1  0
  5  6  1  0
  6  7  1  0
  7  8  1  0
  7  9  1  0
  2 10  1  0
 10 11  1  0
 11 12  1  0
 12 13  1  0
 13 14  1  6
 13 15  1  0
 15 16  1  0
 16 17  1  0
 17 18  2  0
 18 19  1  0
 19 20  1  0
 20 21  1  0
 21 22  1  0
 22 23  1  0
 22 24  1  0
 24 25  1  0
 24 26  1  0
 19 27  1  0
 27 28  1  1
 27 29  1  0
 29 30  1  0
 30 31  1  0
 31 32  1  1
  7  5  1  0
 31 10  1  0
 31 13  1  0
 27 15  1  0
 24 18  1  0
  1 33  1  0
  1 34  1  0
  1 35  1  0
  2 36  1  1
  3 37  1  0
  3 38  1  0
  4 39  1  0
  4 40  1  0
  5 41  1  6
  8 42  1  0
  8 43  1  0
  8 44  1  0
  9 45  1  0
  9 46  1  0
  9 47  1  0
 10 48  1  6
 11 49  1  0
 11 50  1  0
 12 51  1  0
 12 52  1  0
 14 53  1  0
 14 54  1  0
 14 55  1  0
 15 56  1  1
 16 57  1  0
 16 58  1  0
 17 59  1  0
 19 60  1  6
 20 61  1  0
 20 62  1  0
 21 63  1  0
 21 64  1  0
 22 65  1  6
 23 66  1  0
 25 67  1  0
 25 68  1  0
 25 69  1  0
 26 70  1  0
 26 71  1  0
 26 72  1  0
 28 73  1  0
 28 74  1  0
 28 75  1  0
 29 76  1  0
 29 77  1  0
 30 78  1  0
 30 79  1  0
 32 80  1  0
 32 81  1  0
 32 82  1  0
M  END
>  <meeko>  (3) 
{"is_sidechain": [false], "intermolecular_energy": 2.731, "internal_energy": -0.839}

$$$$
EPH_relaxed_0001_pdb2pqr_Repair_175_r2_0001_out
     RDKit          3D

 82 86  0  0  0  0  0  0  0  0999 V2000
    4.1550   17.2030   -0.8560 C   0  0  0  0  0  0  0  0  0  0  0  0
    2.7710   17.7730   -0.5290 C   0  0  2  0  0  0  0  0  0  0  0  0
    2.8000   18.6950    0.7060 C   0  0  0  0  0  0  0  0  0  0  0  0
    4.1380   18.6870    1.4490 C   0  0  0  0  0  0  0  0  0  0  0  0
    4.0080   19.2500    2.8320 C   0  0  2  0  0  0  0  0  0  0  0  0
    5.0240   20.1940    3.1930 O   0  0  0  0  0  0  0  0  0  0  0  0
    5.0000   18.9710    3.9460 C   0  0  0  0  0  0  0  0  0  0  0  0
    6.1950   18.0980    3.7260 C   0  0  0  0  0  0  0  0  0  0  0  0
    4.5520   19.1450    5.3640 C   0  0  0  0  0  0  0  0  0  0  0  0
    1.7810   16.6360   -0.3070 C   0  0  1  0  0  0  0  0  0  0  0  0
    0.3800   17.1410    0.1300 C   0  0  0  0  0  0  0  0  0  0  0  0
   -0.6590   16.1820   -0.5070 C   0  0  0  0  0  0  0  0  0  0  0  0
    0.1740   14.9790   -1.0060 C   0  0  1  0  0  0  0  0  0  0  0  0
    0.4010   14.0950    0.2610 C   0  0  0  0  0  0  0  0  0  0  0  0
   -0.4400   14.1540   -2.1830 C   0  0  2  0  0  0  0  0  0  0  0  0
   -1.7800   13.4650   -1.8680 C   0  0  0  0  0  0  0  0  0  0  0  0
   -1.6720   12.0790   -1.3240 C   0  0  0  0  0  0  0  0  0  0  0  0
   -0.5700   11.3070   -1.3620 C   0  0  0  0  0  0  0  0  0  0  0  0
    0.6970   11.7790   -2.0870 C   0  0  1  0  0  0  0  0  0  0  0  0
    1.2430   10.6310   -2.9760 C   0  0  0  0  0  0  0  0  0  0  0  0
    1.4650    9.3400   -2.1930 C   0  0  0  0  0  0  0  0  0  0  0  0
    0.1690    8.8720   -1.5360 C   0  0  2  0  0  0  0  0  0  0  0  0
   -0.7550    8.4890   -2.5590 O   0  0  0  0  0  0  0  0  0  0  0  0
   -0.4790    9.9500   -0.6230 C   0  0  0  0  0  0  0  0  0  0  0  0
    0.3860   10.1450    0.6470 C   0  0  0  0  0  0  0  0  0  0  0  0
   -1.8470    9.4020   -0.1350 C   0  0  0  0  0  0  0  0  0  0  0  0
    0.5750   13.1550   -2.8730 C   0  0  1  0  0  0  0  0  0  0  0  0
    0.0360   12.8980   -4.3140 C   0  0  0  0  0  0  0  0  0  0  0  0
    2.0090   13.7810   -3.0410 C   0  0  0  0  0  0  0  0  0  0  0  0
    2.5120   14.6830   -1.8980 C   0  0  0  0  0  0  0  0  0  0  0  0
    1.4570   15.7280   -1.5200 C   0  0  2  0  0  0  0  0  0  0  0  0
    1.2240   16.6460   -2.7680 C   0  0  0  0  0  0  0  0  0  0  0  0
    4.6909   16.9823    0.0789 H   0  0  0  0  0  0  0  0  0  0  0  0
    4.0419   16.2783   -1.4409 H   0  0  0  0  0  0  0  0  0  0  0  0
    4.7259   17.9392   -1.4409 H   0  0  0  0  0  0  0  0  0  0  0  0
    2.4519   18.3819   -1.3877 H   0  0  0  0  0  0  0  0  0  0  0  0
    2.5921   19.7236    0.3763 H   0  0  0  0  0  0  0  0  0  0  0  0
    2.0410   18.3172    1.4069 H   0  0  0  0  0  0  0  0  0  0  0  0
    4.5008   17.6509    1.5186 H   0  0  0  0  0  0  0  0  0  0  0  0
    4.8452   19.3157    0.8881 H   0  0  0  0  0  0  0  0  0  0  0  0
    2.9116   19.1749    2.7841 H   0  0  0  0  0  0  0  0  0  0  0  0
    6.6110   17.7941    4.6979 H   0  0  0  0  0  0  0  0  0  0  0  0
    5.8965   17.2038    3.1592 H   0  0  0  0  0  0  0  0  0  0  0  0
    6.9561   18.6543    3.1592 H   0  0  0  0  0  0  0  0  0  0  0  0
    5.3579   18.8320    6.0442 H   0  0  0  0  0  0  0  0  0  0  0  0
    4.3097   20.2026    5.5448 H   0  0  0  0  0  0  0  0  0  0  0  0
    3.6593   18.5282    5.5448 H   0  0  0  0  0  0  0  0  0  0  0  0
    2.3267   16.0627    0.4569 H   0  0  0  0  0  0  0  0  0  0  0  0
    0.2941   17.1186    1.2264 H   0  0  0  0  0  0  0  0  0  0  0  0
    0.2137   18.1779   -0.1974 H   0  0  0  0  0  0  0  0  0  0  0  0
   -1.3984   15.8588    0.2405 H   0  0  0  0  0  0  0  0  0  0  0  0
   -1.2262   16.6615   -1.3184 H   0  0  0  0  0  0  0  0  0  0  0  0
    0.2450   14.7025    1.1647 H   0  0  0  0  0  0  0  0  0  0  0  0
   -0.3110   13.2565    0.2554 H   0  0  0  0  0  0  0  0  0  0  0  0
    1.4289   13.7033    0.2554 H   0  0  0  0  0  0  0  0  0  0  0  0
   -0.6720   14.9349   -2.9222 H   0  0  0  0  0  0  0  0  0  0  0  0
   -2.3127   14.0801   -1.1278 H   0  0  0  0  0  0  0  0  0  0  0  0
   -2.3088   13.3746   -2.8283 H   0  0  0  0  0  0  0  0  0  0  0  0
   -2.5693   11.6523   -0.8520 H   0  0  0  0  0  0  0  0  0  0  0  0
    1.4260   12.0199   -1.2992 H   0  0  0  0  0  0  0  0  0  0  0  0
    0.5205   10.4349   -3.7819 H   0  0  0  0  0  0  0  0  0  0  0  0
    2.2168   10.9515   -3.3747 H   0  0  0  0  0  0  0  0  0  0  0  0
    1.8230    8.5591   -2.8800 H   0  0  0  0  0  0  0  0  0  0  0  0
    2.2096    9.5298   -1.4059 H   0  0  0  0  0  0  0  0  0  0  0  0
    0.4178    8.0196   -0.8867 H   0  0  0  0  0  0  0  0  0  0  0  0
   -0.2390    8.2600   -3.3510 H   0  0  0  0  0  0  0  0  0  0  0  0
   -0.2388   10.0042    1.5413 H   0  0  0  0  0  0  0  0  0  0  0  0
    1.2030    9.4085    0.6508 H   0  0  0  0  0  0  0  0  0  0  0  0
    0.8080   11.1608    0.6508 H   0  0  0  0  0  0  0  0  0  0  0  0
   -1.8675    9.3938    0.9648 H   0  0  0  0  0  0  0  0  0  0  0  0
   -2.6554   10.0457   -0.5120 H   0  0  0  0  0  0  0  0  0  0  0  0
   -1.9875    8.3782   -0.5120 H   0  0  0  0  0  0  0  0  0  0  0  0
   -0.9555   12.4252   -4.2557 H   0  0  0  0  0  0  0  0  0  0  0  0
   -0.0448   13.8545   -4.8512 H   0  0  0  0  0  0  0  0  0  0  0  0
    0.7283   12.2331   -4.8512 H   0  0  0  0  0  0  0  0  0  0  0  0
    2.7234   12.9516   -3.1492 H   0  0  0  0  0  0  0  0  0  0  0  0
    1.9334   14.4420   -3.9170 H   0  0  0  0  0  0  0  0  0  0  0  0
    2.7330   14.0602   -1.0186 H   0  0  0  0  0  0  0  0  0  0  0  0
    3.4185   15.2060   -2.2366 H   0  0  0  0  0  0  0  0  0  0  0  0
    0.9662   17.6616   -2.4331 H   0  0  0  0  0  0  0  0  0  0  0  0
    2.1416   16.6814   -3.3736 H   0  0  0  0  0  0  0  0  0  0  0  0
    0.4005   16.2395   -3.3736 H   0  0  0  0  0  0  0  0  0  0  0  0
  1  2  1  0
  2  3  1  0
  3  4  1  0
  4  5  1  0
  5  6  1  0
  6  7  1  0
  7  8  1  0
  7  9  1  0
  2 10  1  0
 10 11  1  0
 11 12  1  0
 12 13  1  0
 13 14  1  1
 13 15  1  0
 15 16  1  0
 16 17  1  0
 17 18  2  0
 18 19  1  0
 19 20  1  0
 20 21  1  0
 21 22  1  0
 22 23  1  0
 22 24  1  0
 24 25  1  0
 24 26  1  0
 19 27  1  0
 27 28  1  6
 27 29  1  0
 29 30  1  0
 30 31  1  0
 31 32  1  6
  7  5  1  0
 31 10  1  0
 31 13  1  0
 27 15  1  0
 24 18  1  0
  1 33  1  0
  1 34  1  0
  1 35  1  0
  2 36  1  6
  3 37  1  0
  3 38  1  0
  4 39  1  0
  4 40  1  0
  5 41  1  1
  8 42  1  0
  8 43  1  0
  8 44  1  0
  9 45  1  0
  9 46  1  0
  9 47  1  0
 10 48  1  1
 11 49  1  0
 11 50  1  0
 12 51  1  0
 12 52  1  0
 14 53  1  0
 14 54  1  0
 14 55  1  0
 15 56  1  6
 16 57  1  0
 16 58  1  0
 17 59  1  0
 19 60  1  1
 20 61  1  0
 20 62  1  0
 21 63  1  0
 21 64  1  0
 22 65  1  1
 23 66  1  0
 25 67  1  0
 25 68  1  0
 25 69  1  0
 26 70  1  0
 26 71  1  0
 26 72  1  0
 28 73  1  0
 28 74  1  0
 28 75  1  0
 29 76  1  0
 29 77  1  0
 30 78  1  0
 30 79  1  0
 32 80  1  0
 32 81  1  0
 32 82  1  0
M  END
>  <meeko>  (4) 
{"is_sidechain": [false], "intermolecular_energy": 2.731, "internal_energy": -0.839}

$$$$
EPH_relaxed_0001_pdb2pqr_Repair_175_r2_0001_out
     RDKit          3D

 82 86  0  0  0  0  0  0  0  0999 V2000
   -0.5000   18.5450   -2.0460 C   0  0  0  0  0  0  0  0  0  0  0  0
    0.6020   17.5450   -1.6860 C   0  0  2  0  0  0  0  0  0  0  0  0
    1.9690   17.9510   -2.2740 C   0  0  0  0  0  0  0  0  0  0  0  0
    2.6870   19.0370   -1.4690 C   0  0  0  0  0  0  0  0  0  0  0  0
    3.4780   18.4550   -0.3360 C   0  0  2  0  0  0  0  0  0  0  0  0
    2.6880   17.8380    0.6890 O   0  0  0  0  0  0  0  0  0  0  0  0
    3.4370   19.0010    1.0790 C   0  0  0  0  0  0  0  0  0  0  0  0
    2.5870   20.1800    1.4360 C   0  0  0  0  0  0  0  0  0  0  0  0
    4.5830   18.7020    1.9940 C   0  0  0  0  0  0  0  0  0  0  0  0
    0.2190   16.1520   -2.1710 C   0  0  1  0  0  0  0  0  0  0  0  0
    0.4840   15.9530   -3.6880 C   0  0  0  0  0  0  0  0  0  0  0  0
    0.9230   14.4780   -3.8760 C   0  0  0  0  0  0  0  0  0  0  0  0
    0.5790   13.7950   -2.5310 C   0  0  1  0  0  0  0  0  0  0  0  0
   -0.9480   13.4830   -2.6180 C   0  0  0  0  0  0  0  0  0  0  0  0
    1.4090   12.5190   -2.1730 C   0  0  2  0  0  0  0  0  0  0  0  0
    1.2450   11.3390   -3.1470 C   0  0  0  0  0  0  0  0  0  0  0  0
    0.1520   10.3800   -2.8080 C   0  0  0  0  0  0  0  0  0  0  0  0
   -0.4780   10.3000   -1.6210 C   0  0  0  0  0  0  0  0  0  0  0  0
   -0.0370   11.1670   -0.4350 C   0  0  1  0  0  0  0  0  0  0  0  0
    0.0610   10.2900    0.8400 C   0  0  0  0  0  0  0  0  0  0  0  0
   -1.2280    9.5240    1.1250 C   0  0  0  0  0  0  0  0  0  0  0  0
   -1.6020    8.6300   -0.0540 C   0  0  2  0  0  0  0  0  0  0  0  0
   -0.6200    7.5970   -0.1790 O   0  0  0  0  0  0  0  0  0  0  0  0
   -1.7210    9.4030   -1.3970 C   0  0  0  0  0  0  0  0  0  0  0  0
   -2.9760   10.3100   -1.3660 C   0  0  0  0  0  0  0  0  0  0  0  0
   -1.9620    8.3650   -2.5260 C   0  0  0  0  0  0  0  0  0  0  0  0
    1.2630   12.0520   -0.6680 C   0  0  1  0  0  0  0  0  0  0  0  0
    2.5390   11.2210   -0.3340 C   0  0  0  0  0  0  0  0  0  0  0  0
    1.2470   13.2650    0.3360 C   0  0  0  0  0  0  0  0  0  0  0  0
    0.5120   14.5380   -0.1250 C   0  0  0  0  0  0  0  0  0  0  0  0
    0.9570   14.9480   -1.5320 C   0  0  2  0  0  0  0  0  0  0  0  0
    2.4850   15.2900   -1.4710 C   0  0  0  0  0  0  0  0  0  0  0  0
   -0.9445   18.9484   -1.1242 H   0  0  0  0  0  0  0  0  0  0  0  0
   -0.0701   19.3677   -2.6362 H   0  0  0  0  0  0  0  0  0  0  0  0
   -1.2772   18.0374   -2.6362 H   0  0  0  0  0  0  0  0  0  0  0  0
    0.7015   17.5423   -0.5905 H   0  0  0  0  0  0  0  0  0  0  0  0
    2.6123   17.0593   -2.3051 H   0  0  0  0  0  0  0  0  0  0  0  0
    1.7781   18.3659   -3.2747 H   0  0  0  0  0  0  0  0  0  0  0  0
    3.3694   19.5833   -2.1367 H   0  0  0  0  0  0  0  0  0  0  0  0
    1.9266   19.7102   -1.0464 H   0  0  0  0  0  0  0  0  0  0  0  0
    4.3135   18.2149   -1.0100 H   0  0  0  0  0  0  0  0  0  0  0  0
    2.5234   20.2682    2.5306 H   0  0  0  0  0  0  0  0  0  0  0  0
    3.0350   21.0944    1.0199 H   0  0  0  0  0  0  0  0  0  0  0  0
    1.5779   20.0439    1.0199 H   0  0  0  0  0  0  0  0  0  0  0  0
    4.2503   18.7888    3.0389 H   0  0  0  0  0  0  0  0  0  0  0  0
    4.9438   17.6797    1.8078 H   0  0  0  0  0  0  0  0  0  0  0  0
    5.3973   19.4178    1.8078 H   0  0  0  0  0  0  0  0  0  0  0  0
   -0.8417   16.1412   -1.8799 H   0  0  0  0  0  0  0  0  0  0  0  0
   -0.4332   16.1512   -4.2619 H   0  0  0  0  0  0  0  0  0  0  0  0
    1.2601   16.6448   -4.0473 H   0  0  0  0  0  0  0  0  0  0  0  0
    0.3682   14.0099   -4.7025 H   0  0  0  0  0  0  0  0  0  0  0  0
    1.9899   14.3889   -4.1287 H   0  0  0  0  0  0  0  0  0  0  0  0
   -1.3633   13.3981   -1.6030 H   0  0  0  0  0  0  0  0  0  0  0  0
   -1.4582   14.2955   -3.1562 H   0  0  0  0  0  0  0  0  0  0  0  0
   -1.0986   12.5355   -3.1562 H   0  0  0  0  0  0  0  0  0  0  0  0
    2.4445   12.8680   -2.2995 H   0  0  0  0  0  0  0  0  0  0  0  0
    1.0393   11.7494   -4.1467 H   0  0  0  0  0  0  0  0  0  0  0  0
    2.1818   10.7653   -3.0908 H   0  0  0  0  0  0  0  0  0  0  0  0
   -0.1653    9.6796   -3.5946 H   0  0  0  0  0  0  0  0  0  0  0  0
   -0.8221   11.9266   -0.3060 H   0  0  0  0  0  0  0  0  0  0  0  0
    0.8791    9.5666    0.7082 H   0  0  0  0  0  0  0  0  0  0  0  0
    0.2461   10.9602    1.6924 H   0  0  0  0  0  0  0  0  0  0  0  0
   -1.0857    8.8997    2.0195 H   0  0  0  0  0  0  0  0  0  0  0  0
   -2.0391   10.2490    1.2876 H   0  0  0  0  0  0  0  0  0  0  0  0
   -2.5969    8.2096    0.1543 H   0  0  0  0  0  0  0  0  0  0  0  0
   -0.9440    6.8220    0.3110 H   0  0  0  0  0  0  0  0  0  0  0  0
   -3.2563   10.5126   -0.3218 H   0  0  0  0  0  0  0  0  0  0  0  0
   -2.7554   11.2588   -1.8771 H   0  0  0  0  0  0  0  0  0  0  0  0
   -3.8076    9.8029   -1.8771 H   0  0  0  0  0  0  0  0  0  0  0  0
   -2.1895    7.3852   -2.0808 H   0  0  0  0  0  0  0  0  0  0  0  0
   -2.8085    8.6903   -3.1486 H   0  0  0  0  0  0  0  0  0  0  0  0
   -1.0588    8.2840   -3.1486 H   0  0  0  0  0  0  0  0  0  0  0  0
    2.6529   11.1468    0.7576 H   0  0  0  0  0  0  0  0  0  0  0  0
    2.4421   10.2123   -0.7619 H   0  0  0  0  0  0  0  0  0  0  0  0
    3.4224   11.7175   -0.7619 H   0  0  0  0  0  0  0  0  0  0  0  0
    0.7679   12.9220    1.2649 H   0  0  0  0  0  0  0  0  0  0  0  0
    2.3002   13.5636    0.4438 H   0  0  0  0  0  0  0  0  0  0  0  0
   -0.5711   14.3459   -0.1317 H   0  0  0  0  0  0  0  0  0  0  0  0
    0.7536   15.3545    0.5714 H   0  0  0  0  0  0  0  0  0  0  0  0
    2.8031   15.3612   -0.4204 H   0  0  0  0  0  0  0  0  0  0  0  0
    3.0584   14.4980   -1.9749 H   0  0  0  0  0  0  0  0  0  0  0  0
    2.6661   16.2509   -1.9749 H   0  0  0  0  0  0  0  0  0  0  0  0
  1  2  1  0
  2  3  1  0
  3  4  1  0
  4  5  1  0
  5  6  1  0
  6  7  1  0
  7  8  1  0
  7  9  1  0
  2 10  1  0
 10 11  1  0
 11 12  1  0
 12 13  1  0
 13 14  1  6
 13 15  1  0
 15 16  1  0
 16 17  1  0
 17 18  2  0
 18 19  1  0
 19 20  1  0
 20 21  1  0
 21 22  1  0
 22 23  1  0
 22 24  1  0
 24 25  1  0
 24 26  1  0
 19 27  1  0
 27 28  1  1
 27 29  1  0
 29 30  1  0
 30 31  1  0
 31 32  1  1
  7  5  1  0
 31 10  1  0
 31 13  1  0
 27 15  1  0
 24 18  1  0
  1 33  1  0
  1 34  1  0
  1 35  1  0
  2 36  1  1
  3 37  1  0
  3 38  1  0
  4 39  1  0
  4 40  1  0
  5 41  1  6
  8 42  1  0
  8 43  1  0
  8 44  1  0
  9 45  1  0
  9 46  1  0
  9 47  1  0
 10 48  1  6
 11 49  1  0
 11 50  1  0
 12 51  1  0
 12 52  1  0
 14 53  1  0
 14 54  1  0
 14 55  1  0
 15 56  1  1
 16 57  1  0
 16 58  1  0
 17 59  1  0
 19 60  1  1
 20 61  1  0
 20 62  1  0
 21 63  1  0
 21 64  1  0
 22 65  1  1
 23 66  1  0
 25 67  1  0
 25 68  1  0
 25 69  1  0
 26 70  1  0
 26 71  1  0
 26 72  1  0
 28 73  1  0
 28 74  1  0
 28 75  1  0
 29 76  1  0
 29 77  1  0
 30 78  1  0
 30 79  1  0
 32 80  1  0
 32 81  1  0
 32 82  1  0
M  END
>  <meeko>  (5) 
{"is_sidechain": [false], "intermolecular_energy": 2.731, "internal_energy": -0.839}

$$$$
EPH_relaxed_0001_pdb2pqr_Repair_175_r2_0001_out
     RDKit          3D

 82 86  0  0  0  0  0  0  0  0999 V2000
    2.2050   17.9690   -2.6870 C   0  0  0  0  0  0  0  0  0  0  0  0
    0.9300   17.5890   -1.9290 C   0  0  2  0  0  0  0  0  0  0  0  0
    1.1300   17.6250   -0.4010 C   0  0  0  0  0  0  0  0  0  0  0  0
    0.8210   18.9860    0.2280 C   0  0  0  0  0  0  0  0  0  0  0  0
   -0.6290   19.1160    0.5860 C   0  0  2  0  0  0  0  0  0  0  0  0
   -1.5040   18.2380   -0.1350 O   0  0  0  0  0  0  0  0  0  0  0  0
   -1.6820   19.6440   -0.3700 C   0  0  0  0  0  0  0  0  0  0  0  0
   -1.3290   20.0790   -1.7580 C   0  0  0  0  0  0  0  0  0  0  0  0
   -2.9530   20.1940    0.1990 C   0  0  0  0  0  0  0  0  0  0  0  0
    0.4630   16.2030   -2.3610 C   0  0  1  0  0  0  0  0  0  0  0  0
    0.7010   15.9360   -3.8710 C   0  0  0  0  0  0  0  0  0  0  0  0
    1.0540   14.4330   -4.0090 C   0  0  0  0  0  0  0  0  0  0  0  0
    0.6860   13.8180   -2.6380 C   0  0  1  0  0  0  0  0  0  0  0  0
   -0.8580   13.5910   -2.7020 C   0  0  0  0  0  0  0  0  0  0  0  0
    1.4450   12.5110   -2.2410 C   0  0  2  0  0  0  0  0  0  0  0  0
    1.2040   11.3080   -3.1700 C   0  0  0  0  0  0  0  0  0  0  0  0
    0.0620   10.4260   -2.7880 C   0  0  0  0  0  0  0  0  0  0  0  0
   -0.5600   10.4240   -1.5940 C   0  0  0  0  0  0  0  0  0  0  0  0
   -0.0580   11.3060   -0.4430 C   0  0  1  0  0  0  0  0  0  0  0  0
    0.0030   10.4700    0.8620 C   0  0  0  0  0  0  0  0  0  0  0  0
   -1.3250    9.7910    1.1840 C   0  0  0  0  0  0  0  0  0  0  0  0
   -1.7610    8.8770    0.0410 C   0  0  2  0  0  0  0  0  0  0  0  0
   -0.8410    7.7860   -0.0540 O   0  0  0  0  0  0  0  0  0  0  0  0
   -1.8490    9.6080   -1.3280 C   0  0  0  0  0  0  0  0  0  0  0  0
   -3.0500   10.5860   -1.3200 C   0  0  0  0  0  0  0  0  0  0  0  0
   -2.1610    8.5460   -2.4170 C   0  0  0  0  0  0  0  0  0  0  0  0
    1.2870   12.1060   -0.7190 C   0  0  1  0  0  0  0  0  0  0  0  0
    2.5180   11.2160   -0.3650 C   0  0  0  0  0  0  0  0  0  0  0  0
    1.3500   13.3530    0.2410 C   0  0  0  0  0  0  0  0  0  0  0  0
    0.6850   14.6490   -0.2600 C   0  0  0  0  0  0  0  0  0  0  0  0
    1.1380   14.9830   -1.6840 C   0  0  2  0  0  0  0  0  0  0  0  0
    2.6830   15.2380   -1.6480 C   0  0  0  0  0  0  0  0  0  0  0  0
    3.0023   18.2066   -1.9674 H   0  0  0  0  0  0  0  0  0  0  0  0
    2.5208   17.1259   -3.3191 H   0  0  0  0  0  0  0  0  0  0  0  0
    2.0078   18.8474   -3.3191 H   0  0  0  0  0  0  0  0  0  0  0  0
    0.1615   18.3354   -2.1784 H   0  0  0  0  0  0  0  0  0  0  0  0
    0.4675   16.8738    0.0538 H   0  0  0  0  0  0  0  0  0  0  0  0
    2.1933   17.4169   -0.2109 H   0  0  0  0  0  0  0  0  0  0  0  0
    1.4250   19.1025    1.1399 H   0  0  0  0  0  0  0  0  0  0  0  0
    1.0633   19.7665   -0.5082 H   0  0  0  0  0  0  0  0  0  0  0  0
   -0.3742   19.3812    1.6227 H   0  0  0  0  0  0  0  0  0  0  0  0
   -0.6365   20.9323   -1.7099 H   0  0  0  0  0  0  0  0  0  0  0  0
   -0.8481   19.2462   -2.2921 H   0  0  0  0  0  0  0  0  0  0  0  0
   -2.2429   20.3781   -2.2921 H   0  0  0  0  0  0  0  0  0  0  0  0
   -2.9025   20.1722    1.2976 H   0  0  0  0  0  0  0  0  0  0  0  0
   -3.0884   21.2312   -0.1413 H   0  0  0  0  0  0  0  0  0  0  0  0
   -3.8018   19.5827   -0.1413 H   0  0  0  0  0  0  0  0  0  0  0  0
   -0.5940   16.2624   -2.0622 H   0  0  0  0  0  0  0  0  0  0  0  0
   -0.2093   16.1655   -4.4444 H   0  0  0  0  0  0  0  0  0  0  0  0
    1.5112   16.5695   -4.2613 H   0  0  0  0  0  0  0  0  0  0  0  0
    0.4654   13.9682   -4.8136 H   0  0  0  0  0  0  0  0  0  0  0  0
    2.1117   14.2749   -4.2666 H   0  0  0  0  0  0  0  0  0  0  0  0
   -1.2625   13.5315   -1.6808 H   0  0  0  0  0  0  0  0  0  0  0  0
   -1.3301   14.4294   -3.2351 H   0  0  0  0  0  0  0  0  0  0  0  0
   -1.0688   12.6522   -3.2351 H   0  0  0  0  0  0  0  0  0  0  0  0
    2.4971   12.7962   -2.3882 H   0  0  0  0  0  0  0  0  0  0  0  0
    1.0120   11.6934   -4.1822 H   0  0  0  0  0  0  0  0  0  0  0  0
    2.1071   10.6839   -3.1001 H   0  0  0  0  0  0  0  0  0  0  0  0
   -0.3023    9.7175   -3.5465 H   0  0  0  0  0  0  0  0  0  0  0  0
   -0.7970   12.1135   -0.3340 H   0  0  0  0  0  0  0  0  0  0  0  0
    0.7766    9.6961    0.7493 H   0  0  0  0  0  0  0  0  0  0  0  0
    0.2358   11.1575    1.6886 H   0  0  0  0  0  0  0  0  0  0  0  0
   -1.2108    9.1927    2.1000 H   0  0  0  0  0  0  0  0  0  0  0  0
   -2.0915   10.5673    1.3251 H   0  0  0  0  0  0  0  0  0  0  0  0
   -2.7758    8.5209    0.2721 H   0  0  0  0  0  0  0  0  0  0  0  0
   -0.3760    7.7180    0.7970 H   0  0  0  0  0  0  0  0  0  0  0  0
   -3.3302   10.8141   -0.2810 H   0  0  0  0  0  0  0  0  0  0  0  0
   -2.7693   11.5157   -1.8366 H   0  0  0  0  0  0  0  0  0  0  0  0
   -3.9035   10.1228   -1.8366 H   0  0  0  0  0  0  0  0  0  0  0  0
   -2.4397    7.5974   -1.9349 H   0  0  0  0  0  0  0  0  0  0  0  0
   -2.9939    8.8973   -3.0438 H   0  0  0  0  0  0  0  0  0  0  0  0
   -1.2704    8.3910   -3.0438 H   0  0  0  0  0  0  0  0  0  0  0  0
    2.6166   11.1447    0.7282 H   0  0  0  0  0  0  0  0  0  0  0  0
    2.3765   10.2100   -0.7868 H   0  0  0  0  0  0  0  0  0  0  0  0
    3.4290   11.6657   -0.7868 H   0  0  0  0  0  0  0  0  0  0  0  0
    0.8608   13.0713    1.1851 H   0  0  0  0  0  0  0  0  0  0  0  0
    2.4196   13.5940    0.3303 H   0  0  0  0  0  0  0  0  0  0  0  0
   -0.4073   14.5196   -0.2510 H   0  0  0  0  0  0  0  0  0  0  0  0
    0.9807   15.4742    0.4045 H   0  0  0  0  0  0  0  0  0  0  0  0
    3.0212   15.2938   -0.6028 H   0  0  0  0  0  0  0  0  0  0  0  0
    3.2027   14.4135   -2.1580 H   0  0  0  0  0  0  0  0  0  0  0  0
    2.9102   16.1858   -2.1580 H   0  0  0  0  0  0  0  0  0  0  0  0
  1  2  1  0
  2  3  1  0
  3  4  1  0
  4  5  1  0
  5  6  1  0
  6  7  1  0
  7  8  1  0
  7  9  1  0
  2 10  1  0
 10 11  1  0
 11 12  1  0
 12 13  1  0
 13 14  1  6
 13 15  1  0
 15 16  1  0
 16 17  1  0
 17 18  2  0
 18 19  1  0
 19 20  1  0
 20 21  1  0
 21 22  1  0
 22 23  1  0
 22 24  1  0
 24 25  1  0
 24 26  1  0
 19 27  1  0
 27 28  1  1
 27 29  1  0
 29 30  1  0
 30 31  1  0
 31 32  1  1
  7  5  1  0
 31 10  1  0
 31 13  1  0
 27 15  1  0
 24 18  1  0
  1 33  1  0
  1 34  1  0
  1 35  1  0
  2 36  1  1
  3 37  1  0
  3 38  1  0
  4 39  1  0
  4 40  1  0
  5 41  1  1
  8 42  1  0
  8 43  1  0
  8 44  1  0
  9 45  1  0
  9 46  1  0
  9 47  1  0
 10 48  1  6
 11 49  1  0
 11 50  1  0
 12 51  1  0
 12 52  1  0
 14 53  1  0
 14 54  1  0
 14 55  1  0
 15 56  1  1
 16 57  1  0
 16 58  1  0
 17 59  1  0
 19 60  1  1
 20 61  1  0
 20 62  1  0
 21 63  1  0
 21 64  1  0
 22 65  1  1
 23 66  1  0
 25 67  1  0
 25 68  1  0
 25 69  1  0
 26 70  1  0
 26 71  1  0
 26 72  1  0
 28 73  1  0
 28 74  1  0
 28 75  1  0
 29 76  1  0
 29 77  1  0
 30 78  1  0
 30 79  1  0
 32 80  1  0
 32 81  1  0
 32 82  1  0
M  END
>  <meeko>  (6) 
{"is_sidechain": [false], "intermolecular_energy": 2.731, "internal_energy": -0.839}

$$$$
EPH_relaxed_0001_pdb2pqr_Repair_175_r2_0001_out
     RDKit          3D

 82 86  0  0  0  0  0  0  0  0999 V2000
    3.6000   18.4030   -2.4060 C   0  0  0  0  0  0  0  0  0  0  0  0
    2.2910   17.6500   -2.6550 C   0  0  2  0  0  0  0  0  0  0  0  0
    1.0540   18.5120   -2.3310 C   0  0  0  0  0  0  0  0  0  0  0  0
    1.1200   19.1910   -0.9600 C   0  0  0  0  0  0  0  0  0  0  0  0
   -0.1280   19.9670   -0.6650 C   0  0  2  0  0  0  0  0  0  0  0  0
   -0.3760   20.1940    0.7280 O   0  0  0  0  0  0  0  0  0  0  0  0
   -1.3340   19.3740    0.0390 C   0  0  0  0  0  0  0  0  0  0  0  0
   -1.3510   17.9480    0.4910 C   0  0  0  0  0  0  0  0  0  0  0  0
   -2.6660   20.0310   -0.1480 C   0  0  0  0  0  0  0  0  0  0  0  0
    2.2630   16.3680   -1.8300 C   0  0  1  0  0  0  0  0  0  0  0  0
    2.4060   16.6350   -0.3070 C   0  0  0  0  0  0  0  0  0  0  0  0
    1.5350   15.5750    0.4160 C   0  0  0  0  0  0  0  0  0  0  0  0
    1.1910   14.5400   -0.6800 C   0  0  1  0  0  0  0  0  0  0  0  0
    2.4510   13.6230   -0.7760 C   0  0  0  0  0  0  0  0  0  0  0  0
   -0.1130   13.7070   -0.4590 C   0  0  2  0  0  0  0  0  0  0  0  0
   -0.1110   12.8120    0.7930 C   0  0  0  0  0  0  0  0  0  0  0  0
    0.4030   11.4260    0.5850 C   0  0  0  0  0  0  0  0  0  0  0  0
    0.5790   10.8270   -0.6080 C   0  0  0  0  0  0  0  0  0  0  0  0
    0.1550   11.5230   -1.9080 C   0  0  1  0  0  0  0  0  0  0  0  0
   -0.6290   10.5240   -2.7990 C   0  0  0  0  0  0  0  0  0  0  0  0
    0.1450    9.2340   -3.0520 C   0  0  0  0  0  0  0  0  0  0  0  0
    0.4970    8.5420   -1.7380 C   0  0  2  0  0  0  0  0  0  0  0  0
   -0.7100    8.0910   -1.1170 O   0  0  0  0  0  0  0  0  0  0  0  0
    1.2820    9.4550   -0.7550 C   0  0  0  0  0  0  0  0  0  0  0  0
    2.7120    9.6980   -1.2980 C   0  0  0  0  0  0  0  0  0  0  0  0
    1.4500    8.6850    0.5820 C   0  0  0  0  0  0  0  0  0  0  0  0
   -0.6000   12.9110   -1.7380 C   0  0  1  0  0  0  0  0  0  0  0  0
   -2.1290   12.6660   -1.5550 C   0  0  0  0  0  0  0  0  0  0  0  0
   -0.4390   13.7500   -3.0610 C   0  0  0  0  0  0  0  0  0  0  0  0
    0.8100   14.6450   -3.1690 C   0  0  0  0  0  0  0  0  0  0  0  0
    0.9840   15.4980   -1.9090 C   0  0  2  0  0  0  0  0  0  0  0  0
   -0.2580   16.4470   -1.7990 C   0  0  0  0  0  0  0  0  0  0  0  0
    3.7673   18.4993   -1.3231 H   0  0  0  0  0  0  0  0  0  0  0  0
    4.4346   17.8469   -2.8580 H   0  0  0  0  0  0  0  0  0  0  0  0
    3.5389   19.4040   -2.8580 H   0  0  0  0  0  0  0  0  0  0  0  0
    2.2502   17.4036   -3.7263 H   0  0  0  0  0  0  0  0  0  0  0  0
    0.9628   19.2922   -3.1011 H   0  0  0  0  0  0  0  0  0  0  0  0
    0.1862   17.8362   -2.3141 H   0  0  0  0  0  0  0  0  0  0  0  0
    1.2517   18.4202   -0.1864 H   0  0  0  0  0  0  0  0  0  0  0  0
    1.9670   19.8929   -0.9654 H   0  0  0  0  0  0  0  0  0  0  0  0
   -0.0257   20.5341   -1.6019 H   0  0  0  0  0  0  0  0  0  0  0  0
   -1.3514   17.9118    1.5904 H   0  0  0  0  0  0  0  0  0  0  0  0
   -2.2551   17.4525    0.1075 H   0  0  0  0  0  0  0  0  0  0  0  0
   -0.4590   17.4311    0.1075 H   0  0  0  0  0  0  0  0  0  0  0  0
   -3.1085   20.2492    0.8352 H   0  0  0  0  0  0  0  0  0  0  0  0
   -2.5369   20.9688   -0.7083 H   0  0  0  0  0  0  0  0  0  0  0  0
   -3.3315   19.3578   -0.7083 H   0  0  0  0  0  0  0  0  0  0  0  0
    3.1084   15.8349   -2.2894 H   0  0  0  0  0  0  0  0  0  0  0  0
    3.4579   16.5334   -0.0016 H   0  0  0  0  0  0  0  0  0  0  0  0
    2.0807   17.6544   -0.0522 H   0  0  0  0  0  0  0  0  0  0  0  0
    2.0982   15.1019    1.2339 H   0  0  0  0  0  0  0  0  0  0  0  0
    0.6356   16.0145    0.8719 H   0  0  0  0  0  0  0  0  0  0  0  0
    2.7985   13.3701    0.2366 H   0  0  0  0  0  0  0  0  0  0  0  0
    2.1926   12.7002   -1.3161 H   0  0  0  0  0  0  0  0  0  0  0  0
    3.2496   14.1526   -1.3161 H   0  0  0  0  0  0  0  0  0  0  0  0
   -0.8620   14.4892   -0.2665 H   0  0  0  0  0  0  0  0  0  0  0  0
    0.5162   13.2962    1.5560 H   0  0  0  0  0  0  0  0  0  0  0  0
   -1.1641   12.7044    1.0919 H   0  0  0  0  0  0  0  0  0  0  0  0
    0.6598   10.8446    1.4828 H   0  0  0  0  0  0  0  0  0  0  0  0
    1.0872   11.8198   -2.4109 H   0  0  0  0  0  0  0  0  0  0  0  0
   -1.5766   10.2744   -2.2993 H   0  0  0  0  0  0  0  0  0  0  0  0
   -0.7996   11.0074   -3.7722 H   0  0  0  0  0  0  0  0  0  0  0  0
   -0.4725    8.5573   -3.6610 H   0  0  0  0  0  0  0  0  0  0  0  0
    1.0782    9.4822   -3.5789 H   0  0  0  0  0  0  0  0  0  0  0  0
    1.1599    7.6975   -1.9774 H   0  0  0  0  0  0  0  0  0  0  0  0
   -0.8610    7.1730   -1.3990 H   0  0  0  0  0  0  0  0  0  0  0  0
    3.4090    9.8164   -0.4553 H   0  0  0  0  0  0  0  0  0  0  0  0
    3.0218    8.8396   -1.9122 H   0  0  0  0  0  0  0  0  0  0  0  0
    2.7208   10.6105   -1.9122 H   0  0  0  0  0  0  0  0  0  0  0  0
    1.2992    9.3760    1.4245 H   0  0  0  0  0  0  0  0  0  0  0  0
    0.7074    7.8752    0.6346 H   0  0  0  0  0  0  0  0  0  0  0  0
    2.4624    8.2581    0.6346 H   0  0  0  0  0  0  0  0  0  0  0  0
   -2.3684   12.6276   -0.4820 H   0  0  0  0  0  0  0  0  0  0  0  0
   -2.6907   13.4856   -2.0269 H   0  0  0  0  0  0  0  0  0  0  0  0
   -2.4065   11.7119   -2.0269 H   0  0  0  0  0  0  0  0  0  0  0  0
   -0.4149   13.0423   -3.9028 H   0  0  0  0  0  0  0  0  0  0  0  0
   -1.2919   14.4447   -3.0665 H   0  0  0  0  0  0  0  0  0  0  0  0
    1.6982   14.0091   -3.2985 H   0  0  0  0  0  0  0  0  0  0  0  0
    0.6873   15.3156   -4.0323 H   0  0  0  0  0  0  0  0  0  0  0  0
   -0.4908   16.6249   -0.7387 H   0  0  0  0  0  0  0  0  0  0  0  0
   -0.0323   17.4048   -2.2905 H   0  0  0  0  0  0  0  0  0  0  0  0
   -1.1229   15.9775   -2.2905 H   0  0  0  0  0  0  0  0  0  0  0  0
  1  2  1  0
  2  3  1  0
  3  4  1  0
  4  5  1  0
  5  6  1  0
  6  7  1  0
  7  8  1  0
  7  9  1  0
  2 10  1  0
 10 11  1  0
 11 12  1  0
 12 13  1  0
 13 14  1  6
 13 15  1  0
 15 16  1  0
 16 17  1  0
 17 18  2  0
 18 19  1  0
 19 20  1  0
 20 21  1  0
 21 22  1  0
 22 23  1  0
 22 24  1  0
 24 25  1  0
 24 26  1  0
 19 27  1  0
 27 28  1  1
 27 29  1  0
 29 30  1  0
 30 31  1  0
 31 32  1  1
  7  5  1  0
 31 10  1  0
 31 13  1  0
 27 15  1  0
 24 18  1  0
  1 33  1  0
  1 34  1  0
  1 35  1  0
  2 36  1  6
  3 37  1  0
  3 38  1  0
  4 39  1  0
  4 40  1  0
  5 41  1  6
  8 42  1  0
  8 43  1  0
  8 44  1  0
  9 45  1  0
  9 46  1  0
  9 47  1  0
 10 48  1  6
 11 49  1  0
 11 50  1  0
 12 51  1  0
 12 52  1  0
 14 53  1  0
 14 54  1  0
 14 55  1  0
 15 56  1  1
 16 57  1  0
 16 58  1  0
 17 59  1  0
 19 60  1  6
 20 61  1  0
 20 62  1  0
 21 63  1  0
 21 64  1  0
 22 65  1  6
 23 66  1  0
 25 67  1  0
 25 68  1  0
 25 69  1  0
 26 70  1  0
 26 71  1  0
 26 72  1  0
 28 73  1  0
 28 74  1  0
 28 75  1  0
 29 76  1  0
 29 77  1  0
 30 78  1  0
 30 79  1  0
 32 80  1  0
 32 81  1  0
 32 82  1  0
M  END
>  <meeko>  (7) 
{"is_sidechain": [false], "intermolecular_energy": 2.731, "internal_energy": -0.839}

$$$$
EPH_relaxed_0001_pdb2pqr_Repair_175_r2_0001_out
     RDKit          3D

 82 86  0  0  0  0  0  0  0  0999 V2000
    4.0980   17.8990   -0.3730 C   0  0  0  0  0  0  0  0  0  0  0  0
    2.8380   17.7910   -1.2370 C   0  0  2  0  0  0  0  0  0  0  0  0
    1.9760   19.0680   -1.1680 C   0  0  0  0  0  0  0  0  0  0  0  0
    1.1840   19.2060    0.1350 C   0  0  0  0  0  0  0  0  0  0  0  0
   -0.0560   20.0270   -0.0550 C   0  0  2  0  0  0  0  0  0  0  0  0
   -0.8500   20.1940    1.1270 O   0  0  0  0  0  0  0  0  0  0  0  0
   -1.4590   19.4610    0.0520 C   0  0  0  0  0  0  0  0  0  0  0  0
   -1.6960   18.0150    0.3590 C   0  0  0  0  0  0  0  0  0  0  0  0
   -2.5790   20.1930   -0.6180 C   0  0  0  0  0  0  0  0  0  0  0  0
    2.0150   16.5830   -0.8060 C   0  0  1  0  0  0  0  0  0  0  0  0
    0.7480   16.9790   -0.0020 C   0  0  0  0  0  0  0  0  0  0  0  0
   -0.3580   15.9610   -0.3810 C   0  0  0  0  0  0  0  0  0  0  0  0
    0.3910   14.8290   -1.1220 C   0  0  1  0  0  0  0  0  0  0  0  0
    0.9970   13.9410    0.0100 C   0  0  0  0  0  0  0  0  0  0  0  0
   -0.4560   13.9830   -2.1280 C   0  0  2  0  0  0  0  0  0  0  0  0
   -1.6200   13.1960   -1.5000 C   0  0  0  0  0  0  0  0  0  0  0  0
   -1.2850   11.8110   -1.0530 C   0  0  0  0  0  0  0  0  0  0  0  0
   -0.1840   11.1210   -1.4040 C   0  0  0  0  0  0  0  0  0  0  0  0
    0.8170   11.6940   -2.4150 C   0  0  1  0  0  0  0  0  0  0  0  0
    1.1840   10.6040   -3.4560 C   0  0  0  0  0  0  0  0  0  0  0  0
    1.6840    9.3180   -2.8040 C   0  0  0  0  0  0  0  0  0  0  0  0
    0.6380    8.7470   -1.8500 C   0  0  2  0  0  0  0  0  0  0  0  0
   -0.4950    8.3180   -2.6110 O   0  0  0  0  0  0  0  0  0  0  0  0
    0.1840    9.7600   -0.7620 C   0  0  0  0  0  0  0  0  0  0  0  0
    1.3360    9.9940    0.2460 C   0  0  0  0  0  0  0  0  0  0  0  0
   -0.9720    9.1080    0.0440 C   0  0  0  0  0  0  0  0  0  0  0  0
    0.4050   13.0710   -3.0930 C   0  0  1  0  0  0  0  0  0  0  0  0
   -0.4740   12.8020   -4.3530 C   0  0  0  0  0  0  0  0  0  0  0  0
    1.7030   13.8000   -3.6050 C   0  0  0  0  0  0  0  0  0  0  0  0
    2.4280   14.7160   -2.6000 C   0  0  0  0  0  0  0  0  0  0  0  0
    1.4440   15.6760   -1.9250 C   0  0  2  0  0  0  0  0  0  0  0  0
    0.8350   16.5970   -3.0360 C   0  0  0  0  0  0  0  0  0  0  0  0
    3.8167   17.8749    0.6902 H   0  0  0  0  0  0  0  0  0  0  0  0
    4.7678   17.0550   -0.5943 H   0  0  0  0  0  0  0  0  0  0  0  0
    4.6144   18.8447   -0.5943 H   0  0  0  0  0  0  0  0  0  0  0  0
    3.1615   17.6671   -2.2810 H   0  0  0  0  0  0  0  0  0  0  0  0
    2.6390   19.9403   -1.2655 H   0  0  0  0  0  0  0  0  0  0  0  0
    1.2423   19.0053   -1.9852 H   0  0  0  0  0  0  0  0  0  0  0  0
    0.8977   18.2036    0.4862 H   0  0  0  0  0  0  0  0  0  0  0  0
    1.8225   19.7142    0.8726 H   0  0  0  0  0  0  0  0  0  0  0  0
    0.4369   20.6353   -0.8277 H   0  0  0  0  0  0  0  0  0  0  0  0
   -1.7196   17.8707    1.4492 H   0  0  0  0  0  0  0  0  0  0  0  0
   -2.6576   17.7012   -0.0733 H   0  0  0  0  0  0  0  0  0  0  0  0
   -0.8849   17.4106   -0.0733 H   0  0  0  0  0  0  0  0  0  0  0  0
   -3.2421   20.6264    0.1452 H   0  0  0  0  0  0  0  0  0  0  0  0
   -2.1677   20.9972   -1.2458 H   0  0  0  0  0  0  0  0  0  0  0  0
   -3.1505   19.4935   -1.2458 H   0  0  0  0  0  0  0  0  0  0  0  0
    2.7769   16.0366   -0.2307 H   0  0  0  0  0  0  0  0  0  0  0  0
    0.9538   16.9305    1.0775 H   0  0  0  0  0  0  0  0  0  0  0  0
    0.4360   18.0072   -0.2374 H   0  0  0  0  0  0  0  0  0  0  0  0
   -0.8541   15.5729    0.5208 H   0  0  0  0  0  0  0  0  0  0  0  0
   -1.1472   16.4135   -0.9994 H   0  0  0  0  0  0  0  0  0  0  0  0
    0.7154   14.3536    0.9901 H   0  0  0  0  0  0  0  0  0  0  0  0
    0.6094   12.9156   -0.0812 H   0  0  0  0  0  0  0  0  0  0  0  0
    2.0931   13.9281   -0.0812 H   0  0  0  0  0  0  0  0  0  0  0  0
   -0.9229   14.7578   -2.7539 H   0  0  0  0  0  0  0  0  0  0  0  0
   -1.9778   13.7585   -0.6250 H   0  0  0  0  0  0  0  0  0  0  0  0
   -2.3756   13.0861   -2.2918 H   0  0  0  0  0  0  0  0  0  0  0  0
   -1.9983   11.3127   -0.3801 H   0  0  0  0  0  0  0  0  0  0  0  0
    1.7098   11.9713   -1.8353 H   0  0  0  0  0  0  0  0  0  0  0  0
    0.2903   10.3720   -4.0539 H   0  0  0  0  0  0  0  0  0  0  0  0
    1.9976   10.9998   -4.0817 H   0  0  0  0  0  0  0  0  0  0  0  0
    1.8987    8.5769   -3.5880 H   0  0  0  0  0  0  0  0  0  0  0  0
    2.5945    9.5464   -2.2305 H   0  0  0  0  0  0  0  0  0  0  0  0
    1.1018    7.9028   -1.3187 H   0  0  0  0  0  0  0  0  0  0  0  0
   -1.0320    9.1040   -2.8080 H   0  0  0  0  0  0  0  0  0  0  0  0
    0.9472    9.9150    1.2720 H   0  0  0  0  0  0  0  0  0  0  0  0
    2.1184    9.2364    0.0910 H   0  0  0  0  0  0  0  0  0  0  0  0
    1.7608   10.9968    0.0910 H   0  0  0  0  0  0  0  0  0  0  0  0
   -0.7761    9.2185    1.1208 H   0  0  0  0  0  0  0  0  0  0  0  0
   -1.9206    9.6041   -0.2089 H   0  0  0  0  0  0  0  0  0  0  0  0
   -1.0382    8.0395   -0.2089 H   0  0  0  0  0  0  0  0  0  0  0  0
   -1.4818   12.4936   -4.0380 H   0  0  0  0  0  0  0  0  0  0  0  0
   -0.5429   13.7202   -4.9548 H   0  0  0  0  0  0  0  0  0  0  0  0
   -0.0172   12.0025   -4.9548 H   0  0  0  0  0  0  0  0  0  0  0  0
    2.4160   13.0253   -3.9235 H   0  0  0  0  0  0  0  0  0  0  0  0
    1.3596   14.4688   -4.4080 H   0  0  0  0  0  0  0  0  0  0  0  0
    2.9105   14.0954   -1.8306 H   0  0  0  0  0  0  0  0  0  0  0  0
    3.1790   15.3082   -3.1435 H   0  0  0  0  0  0  0  0  0  0  0  0
    0.2867   17.4262   -2.5650 H   0  0  0  0  0  0  0  0  0  0  0  0
    1.6445   17.0012   -3.6616 H   0  0  0  0  0  0  0  0  0  0  0  0
    0.1461   16.0104   -3.6616 H   0  0  0  0  0  0  0  0  0  0  0  0
  1  2  1  0
  2  3  1  0
  3  4  1  0
  4  5  1  0
  5  6  1  0
  6  7  1  0
  7  8  1  0
  7  9  1  0
  2 10  1  0
 10 11  1  0
 11 12  1  0
 12 13  1  0
 13 14  1  1
 13 15  1  0
 15 16  1  0
 16 17  1  0
 17 18  2  0
 18 19  1  0
 19 20  1  0
 20 21  1  0
 21 22  1  0
 22 23  1  0
 22 24  1  0
 24 25  1  0
 24 26  1  0
 19 27  1  0
 27 28  1  6
 27 29  1  0
 29 30  1  0
 30 31  1  0
 31 32  1  6
  7  5  1  0
 31 10  1  0
 31 13  1  0
 27 15  1  0
 24 18  1  0
  1 33  1  0
  1 34  1  0
  1 35  1  0
  2 36  1  6
  3 37  1  0
  3 38  1  0
  4 39  1  0
  4 40  1  0
  5 41  1  6
  8 42  1  0
  8 43  1  0
  8 44  1  0
  9 45  1  0
  9 46  1  0
  9 47  1  0
 10 48  1  1
 11 49  1  0
 11 50  1  0
 12 51  1  0
 12 52  1  0
 14 53  1  0
 14 54  1  0
 14 55  1  0
 15 56  1  6
 16 57  1  0
 16 58  1  0
 17 59  1  0
 19 60  1  1
 20 61  1  0
 20 62  1  0
 21 63  1  0
 21 64  1  0
 22 65  1  1
 23 66  1  0
 25 67  1  0
 25 68  1  0
 25 69  1  0
 26 70  1  0
 26 71  1  0
 26 72  1  0
 28 73  1  0
 28 74  1  0
 28 75  1  0
 29 76  1  0
 29 77  1  0
 30 78  1  0
 30 79  1  0
 32 80  1  0
 32 81  1  0
 32 82  1  0
M  END
>  <meeko>  (8) 
{"is_sidechain": [false], "intermolecular_energy": 2.731, "internal_energy": -0.839}

$$$$
EPH_relaxed_0001_pdb2pqr_Repair_175_r2_0001_out
     RDKit          3D

 82 86  0  0  0  0  0  0  0  0999 V2000
   -1.9750   10.2810    0.7100 C   0  0  0  0  0  0  0  0  0  0  0  0
   -0.5870   10.4640    0.0890 C   0  0  2  0  0  0  0  0  0  0  0  0
    0.4030    9.3740    0.5490 C   0  0  0  0  0  0  0  0  0  0  0  0
    0.6490    8.2850   -0.4990 C   0  0  0  0  0  0  0  0  0  0  0  0
   -0.6330    7.7860   -1.0920 C   0  0  2  0  0  0  0  0  0  0  0  0
   -0.5050    7.2120   -2.3990 O   0  0  0  0  0  0  0  0  0  0  0  0
   -1.2920    8.4110   -2.3080 C   0  0  0  0  0  0  0  0  0  0  0  0
   -0.6870    9.5900   -3.0030 C   0  0  0  0  0  0  0  0  0  0  0  0
   -2.7560    8.1880   -2.5220 C   0  0  0  0  0  0  0  0  0  0  0  0
   -0.0400   11.8440    0.4360 C   0  0  1  0  0  0  0  0  0  0  0  0
    1.1850   11.7800    1.3870 C   0  0  0  0  0  0  0  0  0  0  0  0
    2.1280   12.9420    0.9810 C   0  0  0  0  0  0  0  0  0  0  0  0
    1.2740   13.8280    0.0440 C   0  0  1  0  0  0  0  0  0  0  0  0
    0.4040   14.7010    1.0020 C   0  0  0  0  0  0  0  0  0  0  0  0
    2.0600   14.7060   -0.9830 C   0  0  2  0  0  0  0  0  0  0  0  0
    2.9930   15.7600   -0.3610 C   0  0  0  0  0  0  0  0  0  0  0  0
    2.3740   17.0960   -0.1180 C   0  0  0  0  0  0  0  0  0  0  0  0
    1.2120   17.5270   -0.6440 C   0  0  0  0  0  0  0  0  0  0  0  0
    0.4410   16.6720   -1.6580 C   0  0  1  0  0  0  0  0  0  0  0  0
    0.0000   17.5570   -2.8530 C   0  0  0  0  0  0  0  0  0  0  0  0
   -0.7860   18.7880   -2.4100 C   0  0  0  0  0  0  0  0  0  0  0  0
    0.0360   19.6430   -1.4490 C   0  0  2  0  0  0  0  0  0  0  0  0
    1.1490   20.1940   -2.1580 O   0  0  0  0  0  0  0  0  0  0  0  0
    0.5440   18.8550   -0.2090 C   0  0  0  0  0  0  0  0  0  0  0  0
   -0.6500   18.5170    0.7180 C   0  0  0  0  0  0  0  0  0  0  0  0
    1.4740   19.7930    0.6050 C   0  0  0  0  0  0  0  0  0  0  0  0
    1.1590   15.3330   -2.1230 C   0  0  1  0  0  0  0  0  0  0  0  0
    2.1060   15.6270   -3.3270 C   0  0  0  0  0  0  0  0  0  0  0  0
    0.0720   14.3230   -2.6500 C   0  0  0  0  0  0  0  0  0  0  0  0
   -0.5830   13.3990   -1.6050 C   0  0  0  0  0  0  0  0  0  0  0  0
    0.4780   12.7180   -0.7340 C   0  0  2  0  0  0  0  0  0  0  0  0
    1.3540   11.8150   -1.6670 C   0  0  0  0  0  0  0  0  0  0  0  0
   -1.8904   10.2922    1.8067 H   0  0  0  0  0  0  0  0  0  0  0  0
   -2.6331   11.1001    0.3847 H   0  0  0  0  0  0  0  0  0  0  0  0
   -2.3984    9.3193    0.3847 H   0  0  0  0  0  0  0  0  0  0  0  0
   -0.6974   10.3713   -1.0015 H   0  0  0  0  0  0  0  0  0  0  0  0
    1.3645    9.8544    0.7831 H   0  0  0  0  0  0  0  0  0  0  0  0
   -0.0444    8.8821    1.4253 H   0  0  0  0  0  0  0  0  0  0  0  0
    1.2760    8.6988   -1.3025 H   0  0  0  0  0  0  0  0  0  0  0  0
    1.1493    7.4397   -0.0038 H   0  0  0  0  0  0  0  0  0  0  0  0
   -1.0194    7.5255   -0.0956 H   0  0  0  0  0  0  0  0  0  0  0  0
   -0.3188   10.3075   -2.2549 H   0  0  0  0  0  0  0  0  0  0  0  0
    0.1504    9.2546   -3.6325 H   0  0  0  0  0  0  0  0  0  0  0  0
   -1.4478   10.0747   -3.6325 H   0  0  0  0  0  0  0  0  0  0  0  0
   -3.2614    8.1110   -1.5480 H   0  0  0  0  0  0  0  0  0  0  0  0
   -3.1767    9.0324   -3.0877 H   0  0  0  0  0  0  0  0  0  0  0  0
   -2.9062    7.2566   -3.0877 H   0  0  0  0  0  0  0  0  0  0  0  0
   -0.9429   12.2955    0.8728 H   0  0  0  0  0  0  0  0  0  0  0  0
    0.8608   11.9024    2.4310 H   0  0  0  0  0  0  0  0  0  0  0  0
    1.6969   10.8097    1.3068 H   0  0  0  0  0  0  0  0  0  0  0  0
    2.4484   13.5098    1.8670 H   0  0  0  0  0  0  0  0  0  0  0  0
    3.0464   12.5831    0.4934 H   0  0  0  0  0  0  0  0  0  0  0  0
    0.6489   14.4552    2.0458 H   0  0  0  0  0  0  0  0  0  0  0  0
    0.6112   15.7655    0.8176 H   0  0  0  0  0  0  0  0  0  0  0  0
   -0.6612   14.4975    0.8176 H   0  0  0  0  0  0  0  0  0  0  0  0
    2.7200   13.9702   -1.4658 H   0  0  0  0  0  0  0  0  0  0  0  0
    3.3503   15.3705    0.6037 H   0  0  0  0  0  0  0  0  0  0  0  0
    3.7961   15.9258   -1.0942 H   0  0  0  0  0  0  0  0  0  0  0  0
    2.9126   17.7870    0.5471 H   0  0  0  0  0  0  0  0  0  0  0  0
   -0.4450   16.2949   -1.1263 H   0  0  0  0  0  0  0  0  0  0  0  0
    0.8971   17.8881   -3.3967 H   0  0  0  0  0  0  0  0  0  0  0  0
   -0.6596   16.9514   -3.4918 H   0  0  0  0  0  0  0  0  0  0  0  0
   -1.0441   19.3881   -3.2950 H   0  0  0  0  0  0  0  0  0  0  0  0
   -1.6975   18.4551   -1.8920 H   0  0  0  0  0  0  0  0  0  0  0  0
   -0.6235   20.4365   -1.0676 H   0  0  0  0  0  0  0  0  0  0  0  0
    1.4380   19.5340   -2.8120 H   0  0  0  0  0  0  0  0  0  0  0  0
   -0.3354   18.6060    1.7683 H   0  0  0  0  0  0  0  0  0  0  0  0
   -1.4759   19.2166    0.5220 H   0  0  0  0  0  0  0  0  0  0  0  0
   -0.9866   17.4883    0.5220 H   0  0  0  0  0  0  0  0  0  0  0  0
    1.3107   19.6283    1.6803 H   0  0  0  0  0  0  0  0  0  0  0  0
    2.5231   19.5755    0.3559 H   0  0  0  0  0  0  0  0  0  0  0  0
    1.2475   20.8402    0.3559 H   0  0  0  0  0  0  0  0  0  0  0  0
    3.0932   15.9335   -2.9507 H   0  0  0  0  0  0  0  0  0  0  0  0
    2.2126   14.7197   -3.9397 H   0  0  0  0  0  0  0  0  0  0  0  0
    1.6801   16.4352   -3.9397 H   0  0  0  0  0  0  0  0  0  0  0  0
   -0.7285   14.9119   -3.1217 H   0  0  0  0  0  0  0  0  0  0  0  0
    0.6118   13.6492   -3.3317 H   0  0  0  0  0  0  0  0  0  0  0  0
   -1.2470   13.9960   -0.9626 H   0  0  0  0  0  0  0  0  0  0  0  0
   -1.1551   12.6219   -2.1331 H   0  0  0  0  0  0  0  0  0  0  0  0
    1.9892   11.1602   -1.0524 H   0  0  0  0  0  0  0  0  0  0  0  0
    0.6993   11.1999   -2.3019 H   0  0  0  0  0  0  0  0  0  0  0  0
    1.9886   12.4507   -2.3019 H   0  0  0  0  0  0  0  0  0  0  0  0
  1  2  1  0
  2  3  1  0
  3  4  1  0
  4  5  1  0
  5  6  1  0
  6  7  1  0
  7  8  1  0
  7  9  1  0
  2 10  1  0
 10 11  1  0
 11 12  1  0
 12 13  1  0
 13 14  1  1
 13 15  1  0
 15 16  1  0
 16 17  1  0
 17 18  2  0
 18 19  1  0
 19 20  1  0
 20 21  1  0
 21 22  1  0
 22 23  1  0
 22 24  1  0
 24 25  1  0
 24 26  1  0
 19 27  1  0
 27 28  1  6
 27 29  1  0
 29 30  1  0
 30 31  1  0
 31 32  1  6
  7  5  1  0
 31 10  1  0
 31 13  1  0
 27 15  1  0
 24 18  1  0
  1 33  1  0
  1 34  1  0
  1 35  1  0
  2 36  1  6
  3 37  1  0
  3 38  1  0
  4 39  1  0
  4 40  1  0
  5 41  1  1
  8 42  1  0
  8 43  1  0
  8 44  1  0
  9 45  1  0
  9 46  1  0
  9 47  1  0
 10 48  1  1
 11 49  1  0
 11 50  1  0
 12 51  1  0
 12 52  1  0
 14 53  1  0
 14 54  1  0
 14 55  1  0
 15 56  1  6
 16 57  1  0
 16 58  1  0
 17 59  1  0
 19 60  1  1
 20 61  1  0
 20 62  1  0
 21 63  1  0
 21 64  1  0
 22 65  1  1
 23 66  1  0
 25 67  1  0
 25 68  1  0
 25 69  1  0
 26 70  1  0
 26 71  1  0
 26 72  1  0
 28 73  1  0
 28 74  1  0
 28 75  1  0
 29 76  1  0
 29 77  1  0
 30 78  1  0
 30 79  1  0
 32 80  1  0
 32 81  1  0
 32 82  1  0
M  END
>  <meeko>  (9) 
{"is_sidechain": [false], "intermolecular_energy": 2.731, "internal_energy": -0.839}

$$$$
EPH_relaxed_0001_pdb2pqr_Repair_175_r2_0001_out
     RDKit          3D

 82 86  0  0  0  0  0  0  0  0999 V2000
   -4.1610    7.0040   -2.6060 C   0  0  0  0  0  0  0  0  0  0  0  0
   -4.1280    7.4040   -1.1290 C   0  0  2  0  0  0  0  0  0  0  0  0
   -5.5360    7.4330   -0.5030 C   0  0  0  0  0  0  0  0  0  0  0  0
   -6.5440    6.5250   -1.2130 C   0  0  0  0  0  0  0  0  0  0  0  0
   -7.9530    6.9960   -1.0110 C   0  0  2  0  0  0  0  0  0  0  0  0
   -8.9320    5.9500   -0.9610 O   0  0  0  0  0  0  0  0  0  0  0  0
   -9.0380    6.8660   -2.0630 C   0  0  0  0  0  0  0  0  0  0  0  0
   -8.7610    6.2470   -3.3970 C   0  0  0  0  0  0  0  0  0  0  0  0
  -10.2260    7.7720   -1.9810 C   0  0  0  0  0  0  0  0  0  0  0  0
   -3.4610    8.7660   -0.9740 C   0  0  1  0  0  0  0  0  0  0  0  0
   -3.4910    9.2830    0.4880 C   0  0  0  0  0  0  0  0  0  0  0  0
   -2.1700   10.0640    0.7140 C   0  0  0  0  0  0  0  0  0  0  0  0
   -1.5830   10.2540   -0.7040 C   0  0  1  0  0  0  0  0  0  0  0  0
   -2.3510   11.4770   -1.2960 C   0  0  0  0  0  0  0  0  0  0  0  0
   -0.0340   10.4490   -0.7900 C   0  0  2  0  0  0  0  0  0  0  0  0
    0.5060   11.7060   -0.0840 C   0  0  0  0  0  0  0  0  0  0  0  0
    0.5860   12.9300   -0.9340 C   0  0  0  0  0  0  0  0  0  0  0  0
    0.5120   12.9550   -2.2780 C   0  0  0  0  0  0  0  0  0  0  0  0
    0.4280   11.6540   -3.0870 C   0  0  1  0  0  0  0  0  0  0  0  0
    1.4250   11.7170   -4.2740 C   0  0  0  0  0  0  0  0  0  0  0  0
    1.2250   12.9570   -5.1400 C   0  0  0  0  0  0  0  0  0  0  0  0
    1.3740   14.2310   -4.3120 C   0  0  2  0  0  0  0  0  0  0  0  0
    2.7330   14.3410   -3.8760 O   0  0  0  0  0  0  0  0  0  0  0  0
    0.4260   14.2760   -3.0820 C   0  0  0  0  0  0  0  0  0  0  0  0
   -1.0360   14.4610   -3.5580 C   0  0  0  0  0  0  0  0  0  0  0  0
    0.7760   15.5430   -2.2550 C   0  0  0  0  0  0  0  0  0  0  0  0
    0.5570   10.3090   -2.2510 C   0  0  1  0  0  0  0  0  0  0  0  0
    2.0600    9.9260   -2.0890 C   0  0  0  0  0  0  0  0  0  0  0  0
   -0.1140    9.1360   -3.0580 C   0  0  0  0  0  0  0  0  0  0  0  0
   -1.6240    8.9170   -2.8400 C   0  0  0  0  0  0  0  0  0  0  0  0
   -1.9600    8.8700   -1.3460 C   0  0  2  0  0  0  0  0  0  0  0  0
   -1.2190    7.6360   -0.7280 C   0  0  0  0  0  0  0  0  0  0  0  0
   -4.2512    5.9108   -2.6879 H   0  0  0  0  0  0  0  0  0  0  0  0
   -5.0229    7.4807   -3.0958 H   0  0  0  0  0  0  0  0  0  0  0  0
   -3.2327    7.3330   -3.0958 H   0  0  0  0  0  0  0  0  0  0  0  0
   -3.5446    6.6409   -0.5930 H   0  0  0  0  0  0  0  0  0  0  0  0
   -5.4565    7.1105    0.5457 H   0  0  0  0  0  0  0  0  0  0  0  0
   -5.9089    8.4635   -0.5980 H   0  0  0  0  0  0  0  0  0  0  0  0
   -6.3212    6.5188   -2.2902 H   0  0  0  0  0  0  0  0  0  0  0  0
   -6.4556    5.5150   -0.7863 H   0  0  0  0  0  0  0  0  0  0  0  0
   -7.6063    7.8502   -0.4110 H   0  0  0  0  0  0  0  0  0  0  0  0
   -8.3155    5.2515   -3.2539 H   0  0  0  0  0  0  0  0  0  0  0  0
   -9.7017    6.1504   -3.9588 H   0  0  0  0  0  0  0  0  0  0  0  0
   -8.0621    6.8841   -3.9588 H   0  0  0  0  0  0  0  0  0  0  0  0
  -10.4719    7.9595   -0.9254 H   0  0  0  0  0  0  0  0  0  0  0  0
   -9.9951    8.7254   -2.4787 H   0  0  0  0  0  0  0  0  0  0  0  0
  -11.0844    7.2971   -2.4787 H   0  0  0  0  0  0  0  0  0  0  0  0
   -4.0657    9.3488   -1.6844 H   0  0  0  0  0  0  0  0  0  0  0  0
   -4.3544    9.9481    0.6369 H   0  0  0  0  0  0  0  0  0  0  0  0
   -3.5836    8.4494    1.1997 H   0  0  0  0  0  0  0  0  0  0  0  0
   -2.3700   11.0376    1.1853 H   0  0  0  0  0  0  0  0  0  0  0  0
   -1.4792    9.5311    1.3840 H   0  0  0  0  0  0  0  0  0  0  0  0
   -2.7406   12.0974   -0.4755 H   0  0  0  0  0  0  0  0  0  0  0  0
   -1.6662   12.0754   -1.9149 H   0  0  0  0  0  0  0  0  0  0  0  0
   -3.1874   11.1201   -1.9149 H   0  0  0  0  0  0  0  0  0  0  0  0
    0.3434    9.5943   -0.2094 H   0  0  0  0  0  0  0  0  0  0  0  0
   -0.1533   11.9267    0.7684 H   0  0  0  0  0  0  0  0  0  0  0  0
    1.5400   11.4703    0.2081 H   0  0  0  0  0  0  0  0  0  0  0  0
    0.7165   13.8931   -0.4189 H   0  0  0  0  0  0  0  0  0  0  0  0
   -0.6022   11.5984   -3.4685 H   0  0  0  0  0  0  0  0  0  0  0  0
    2.4496   11.7277   -3.8739 H   0  0  0  0  0  0  0  0  0  0  0  0
    1.2471   10.8351   -4.9070 H   0  0  0  0  0  0  0  0  0  0  0  0
    1.9764   12.9599   -5.9434 H   0  0  0  0  0  0  0  0  0  0  0  0
    0.2098   12.9299   -5.5627 H   0  0  0  0  0  0  0  0  0  0  0  0
    1.0933   15.0777   -4.9557 H   0  0  0  0  0  0  0  0  0  0  0  0
    3.2120   13.5620   -4.2060 H   0  0  0  0  0  0  0  0  0  0  0  0
   -1.6984   14.5448   -2.6838 H   0  0  0  0  0  0  0  0  0  0  0  0
   -1.1113   15.3758   -4.1641 H   0  0  0  0  0  0  0  0  0  0  0  0
   -1.3368   13.5938   -4.1641 H   0  0  0  0  0  0  0  0  0  0  0  0
    0.7116   15.3098   -1.1819 H   0  0  0  0  0  0  0  0  0  0  0  0
    1.7979   15.8692   -2.4986 H   0  0  0  0  0  0  0  0  0  0  0  0
    0.0664   16.3475   -2.4986 H   0  0  0  0  0  0  0  0  0  0  0  0
    2.3090    9.8626   -1.0194 H   0  0  0  0  0  0  0  0  0  0  0  0
    2.2438    8.9523   -2.5667 H   0  0  0  0  0  0  0  0  0  0  0  0
    2.6874   10.6930   -2.5667 H   0  0  0  0  0  0  0  0  0  0  0  0
    0.0420    9.3366   -4.1282 H   0  0  0  0  0  0  0  0  0  0  0  0
    0.3664    8.2191   -2.6859 H   0  0  0  0  0  0  0  0  0  0  0  0
   -2.1789    9.7434   -3.3080 H   0  0  0  0  0  0  0  0  0  0  0  0
   -1.9089    7.9566   -3.2945 H   0  0  0  0  0  0  0  0  0  0  0  0
   -1.2562    7.6979    0.3696 H   0  0  0  0  0  0  0  0  0  0  0  0
   -1.7102    6.7094   -1.0598 H   0  0  0  0  0  0  0  0  0  0  0  0
   -0.1702    7.6341   -1.0598 H   0  0  0  0  0  0  0  0  0  0  0  0
  1  2  1  0
  2  3  1  0
  3  4  1  0
  4  5  1  0
  5  6  1  0
  6  7  1  0
  7  8  1  0
  7  9  1  0
  2 10  1  0
 10 11  1  0
 11 12  1  0
 12 13  1  0
 13 14  1  6
 13 15  1  0
 15 16  1  0
 16 17  1  0
 17 18  2  0
 18 19  1  0
 19 20  1  0
 20 21  1  0
 21 22  1  0
 22 23  1  0
 22 24  1  0
 24 25  1  0
 24 26  1  0
 19 27  1  0
 27 28  1  1
 27 29  1  0
 29 30  1  0
 30 31  1  0
 31 32  1  1
  7  5  1  0
 31 10  1  0
 31 13  1  0
 27 15  1  0
 24 18  1  0
  1 33  1  0
  1 34  1  0
  1 35  1  0
  2 36  1  1
  3 37  1  0
  3 38  1  0
  4 39  1  0
  4 40  1  0
  5 41  1  1
  8 42  1  0
  8 43  1  0
  8 44  1  0
  9 45  1  0
  9 46  1  0
  9 47  1  0
 10 48  1  6
 11 49  1  0
 11 50  1  0
 12 51  1  0
 12 52  1  0
 14 53  1  0
 14 54  1  0
 14 55  1  0
 15 56  1  1
 16 57  1  0
 16 58  1  0
 17 59  1  0
 19 60  1  6
 20 61  1  0
 20 62  1  0
 21 63  1  0
 21 64  1  0
 22 65  1  6
 23 66  1  0
 25 67  1  0
 25 68  1  0
 25 69  1  0
 26 70  1  0
 26 71  1  0
 26 72  1  0
 28 73  1  0
 28 74  1  0
 28 75  1  0
 29 76  1  0
 29 77  1  0
 30 78  1  0
 30 79  1  0
 32 80  1  0
 32 81  1  0
 32 82  1  0
M  END
>  <meeko>  (10) 
{"is_sidechain": [false], "intermolecular_energy": 2.731, "internal_energy": -0.839}

$$$$
EPH_relaxed_0001_pdb2pqr_Repair_175_r2_0001_out
     RDKit          3D

 82 86  0  0  0  0  0  0  0  0999 V2000
    0.6640   14.7170   -2.6340 C   0  0  0  0  0  0  0  0  0  0  0  0
    0.9990   14.0310   -3.9610 C   0  0  2  0  0  0  0  0  0  0  0  0
    0.3740   14.7610   -5.1670 C   0  0  0  0  0  0  0  0  0  0  0  0
    1.1440   14.5600   -6.4750 C   0  0  0  0  0  0  0  0  0  0  0  0
    0.8900   15.6740   -7.4450 C   0  0  2  0  0  0  0  0  0  0  0  0
    0.3930   15.2540   -8.7220 O   0  0  0  0  0  0  0  0  0  0  0  0
    1.6900   15.8740   -8.7180 C   0  0  0  0  0  0  0  0  0  0  0  0
    2.8070   14.9500   -9.0910 C   0  0  0  0  0  0  0  0  0  0  0  0
    1.7110   17.2330   -9.3450 C   0  0  0  0  0  0  0  0  0  0  0  0
    0.5290   12.5810   -3.9290 C   0  0  1  0  0  0  0  0  0  0  0  0
    1.6500   11.5810   -4.3200 C   0  0  0  0  0  0  0  0  0  0  0  0
    1.4300   10.3070   -3.4650 C   0  0  0  0  0  0  0  0  0  0  0  0
    0.0160   10.4800   -2.8620 C   0  0  1  0  0  0  0  0  0  0  0  0
   -0.9600   10.0390   -3.9980 C   0  0  0  0  0  0  0  0  0  0  0  0
   -0.2660    9.7140   -1.5290 C   0  0  2  0  0  0  0  0  0  0  0  0
   -0.1800    8.1810   -1.6270 C   0  0  0  0  0  0  0  0  0  0  0  0
   -1.4600    7.4910   -1.9660 C   0  0  0  0  0  0  0  0  0  0  0  0
   -2.6860    8.0430   -1.9040 C   0  0  0  0  0  0  0  0  0  0  0  0
   -2.8830    9.4660   -1.3650 C   0  0  1  0  0  0  0  0  0  0  0  0
   -4.0680    9.4810   -0.3630 C   0  0  0  0  0  0  0  0  0  0  0  0
   -5.3460    8.9010   -0.9600 C   0  0  0  0  0  0  0  0  0  0  0  0
   -5.1260    7.4660   -1.4320 C   0  0  2  0  0  0  0  0  0  0  0  0
   -4.8840    6.6380   -0.2900 O   0  0  0  0  0  0  0  0  0  0  0  0
   -3.9500    7.3260   -2.4380 C   0  0  0  0  0  0  0  0  0  0  0  0
   -4.3420    7.9730   -3.7900 C   0  0  0  0  0  0  0  0  0  0  0  0
   -3.7450    5.8130   -2.7250 C   0  0  0  0  0  0  0  0  0  0  0  0
   -1.5840   10.1730   -0.7840 C   0  0  1  0  0  0  0  0  0  0  0  0
   -1.4000    9.7980    0.7180 C   0  0  0  0  0  0  0  0  0  0  0  0
   -1.7840   11.7340   -0.8300 C   0  0  0  0  0  0  0  0  0  0  0  0
   -1.3760   12.4490   -2.1320 C   0  0  0  0  0  0  0  0  0  0  0  0
    0.0290   12.0250   -2.5730 C   0  0  2  0  0  0  0  0  0  0  0  0
    1.0360   12.4750   -1.4600 C   0  0  0  0  0  0  0  0  0  0  0  0
    0.9782   14.0735   -1.7990 H   0  0  0  0  0  0  0  0  0  0  0  0
    1.1936   15.6793   -2.5748 H   0  0  0  0  0  0  0  0  0  0  0  0
   -0.4205   14.8911   -2.5748 H   0  0  0  0  0  0  0  0  0  0  0  0
    2.0915   14.0657   -4.0849 H   0  0  0  0  0  0  0  0  0  0  0  0
   -0.6509   14.3867   -5.3064 H   0  0  0  0  0  0  0  0  0  0  0  0
    0.4008   15.8371   -4.9404 H   0  0  0  0  0  0  0  0  0  0  0  0
    2.2205   14.5198   -6.2523 H   0  0  0  0  0  0  0  0  0  0  0  0
    0.8009   13.6210   -6.9339 H   0  0  0  0  0  0  0  0  0  0  0  0
    0.6251   16.3583   -6.6255 H   0  0  0  0  0  0  0  0  0  0  0  0
    3.2797   14.5589   -8.1780 H   0  0  0  0  0  0  0  0  0  0  0  0
    2.4086   14.1140   -9.6846 H   0  0  0  0  0  0  0  0  0  0  0  0
    3.5535   15.4981   -9.6846 H   0  0  0  0  0  0  0  0  0  0  0  0
    1.7229   18.0003   -8.5569 H   0  0  0  0  0  0  0  0  0  0  0  0
    2.6108   17.3348   -9.9695 H   0  0  0  0  0  0  0  0  0  0  0  0
    0.8148   17.3626   -9.9695 H   0  0  0  0  0  0  0  0  0  0  0  0
   -0.3070   12.6427   -4.6412 H   0  0  0  0  0  0  0  0  0  0  0  0
    1.5824   11.3355   -5.3901 H   0  0  0  0  0  0  0  0  0  0  0  0
    2.6454   12.0122   -4.1379 H   0  0  0  0  0  0  0  0  0  0  0  0
    1.4765    9.4052   -4.0931 H   0  0  0  0  0  0  0  0  0  0  0  0
    2.2016   10.1866   -2.6903 H   0  0  0  0  0  0  0  0  0  0  0  0
   -1.8769    9.6247   -3.5534 H   0  0  0  0  0  0  0  0  0  0  0  0
   -1.2152   10.9093   -4.6205 H   0  0  0  0  0  0  0  0  0  0  0  0
   -0.4756    9.2723   -4.6205 H   0  0  0  0  0  0  0  0  0  0  0  0
    0.5805   10.0207   -0.8970 H   0  0  0  0  0  0  0  0  0  0  0  0
    0.5572    7.9309   -2.4042 H   0  0  0  0  0  0  0  0  0  0  0  0
    0.1002    7.8271   -0.6239 H   0  0  0  0  0  0  0  0  0  0  0  0
   -1.3956    6.4431   -2.2941 H   0  0  0  0  0  0  0  0  0  0  0  0
   -3.1240   10.0910   -2.2375 H   0  0  0  0  0  0  0  0  0  0  0  0
   -3.7904    8.8872    0.5204 H   0  0  0  0  0  0  0  0  0  0  0  0
   -4.2688   10.5298   -0.0990 H   0  0  0  0  0  0  0  0  0  0  0  0
   -6.1371    8.9112   -0.1958 H   0  0  0  0  0  0  0  0  0  0  0  0
   -5.6387    9.5140   -1.8252 H   0  0  0  0  0  0  0  0  0  0  0  0
   -6.0344    7.1507   -1.9662 H   0  0  0  0  0  0  0  0  0  0  0  0
   -5.1560    5.7330   -0.5200 H   0  0  0  0  0  0  0  0  0  0  0  0
   -4.9038    8.9002   -3.6036 H   0  0  0  0  0  0  0  0  0  0  0  0
   -3.4321    8.2045   -4.3632 H   0  0  0  0  0  0  0  0  0  0  0  0
   -4.9684    7.2737   -4.3632 H   0  0  0  0  0  0  0  0  0  0  0  0
   -3.6709    5.2661   -1.7735 H   0  0  0  0  0  0  0  0  0  0  0  0
   -4.5995    5.4302   -3.3024 H   0  0  0  0  0  0  0  0  0  0  0  0
   -2.8195    5.6714   -3.3024 H   0  0  0  0  0  0  0  0  0  0  0  0
   -1.7969   10.6068    1.3491 H   0  0  0  0  0  0  0  0  0  0  0  0
   -1.9430    8.8657    0.9323 H   0  0  0  0  0  0  0  0  0  0  0  0
   -0.3303    9.6569    0.9323 H   0  0  0  0  0  0  0  0  0  0  0  0
   -2.8513   11.9378   -0.6590 H   0  0  0  0  0  0  0  0  0  0  0  0
   -1.1087   12.1333   -0.0589 H   0  0  0  0  0  0  0  0  0  0  0  0
   -2.0947   12.1921   -2.9241 H   0  0  0  0  0  0  0  0  0  0  0  0
   -1.3745   13.5340   -1.9509 H   0  0  0  0  0  0  0  0  0  0  0  0
    0.5991   12.2798   -0.4696 H   0  0  0  0  0  0  0  0  0  0  0  0
    1.9743   11.9106   -1.5646 H   0  0  0  0  0  0  0  0  0  0  0  0
    1.2415   13.5506   -1.5646 H   0  0  0  0  0  0  0  0  0  0  0  0
  1  2  1  0
  2  3  1  0
  3  4  1  0
  4  5  1  0
  5  6  1  0
  6  7  1  0
  7  8  1  0
  7  9  1  0
  2 10  1  0
 10 11  1  0
 11 12  1  0
 12 13  1  0
 13 14  1  6
 13 15  1  0
 15 16  1  0
 16 17  1  0
 17 18  2  0
 18 19  1  0
 19 20  1  0
 20 21  1  0
 21 22  1  0
 22 23  1  0
 22 24  1  0
 24 25  1  0
 24 26  1  0
 19 27  1  0
 27 28  1  1
 27 29  1  0
 29 30  1  0
 30 31  1  0
 31 32  1  1
  7  5  1  0
 31 10  1  0
 31 13  1  0
 27 15  1  0
 24 18  1  0
  1 33  1  0
  1 34  1  0
  1 35  1  0
  2 36  1  6
  3 37  1  0
  3 38  1  0
  4 39  1  0
  4 40  1  0
  5 41  1  1
  8 42  1  0
  8 43  1  0
  8 44  1  0
  9 45  1  0
  9 46  1  0
  9 47  1  0
 10 48  1  6
 11 49  1  0
 11 50  1  0
 12 51  1  0
 12 52  1  0
 14 53  1  0
 14 54  1  0
 14 55  1  0
 15 56  1  1
 16 57  1  0
 16 58  1  0
 17 59  1  0
 19 60  1  6
 20 61  1  0
 20 62  1  0
 21 63  1  0
 21 64  1  0
 22 65  1  6
 23 66  1  0
 25 67  1  0
 25 68  1  0
 25 69  1  0
 26 70  1  0
 26 71  1  0
 26 72  1  0
 28 73  1  0
 28 74  1  0
 28 75  1  0
 29 76  1  0
 29 77  1  0
 30 78  1  0
 30 79  1  0
 32 80  1  0
 32 81  1  0
 32 82  1  0
M  END
>  <meeko>  (11) 
{"is_sidechain": [false], "intermolecular_energy": 2.731, "internal_energy": -0.839}

$$$$
EPH_relaxed_0001_pdb2pqr_Repair_175_r2_0001_out
     RDKit          3D

 82 86  0  0  0  0  0  0  0  0999 V2000
    1.1720   14.6220   -5.1500 C   0  0  0  0  0  0  0  0  0  0  0  0
    0.4380   14.2730   -3.8520 C   0  0  2  0  0  0  0  0  0  0  0  0
    1.2650   14.6360   -2.6020 C   0  0  0  0  0  0  0  0  0  0  0  0
    1.2560   16.1300   -2.2700 C   0  0  0  0  0  0  0  0  0  0  0  0
    1.9630   16.4160   -0.9800 C   0  0  2  0  0  0  0  0  0  0  0  0
    1.1840   17.1370   -0.0170 O   0  0  0  0  0  0  0  0  0  0  0  0
    2.3450   17.8130   -0.5270 C   0  0  0  0  0  0  0  0  0  0  0  0
    2.0310   19.0160   -1.3600 C   0  0  0  0  0  0  0  0  0  0  0  0
    3.4440   17.9640    0.4770 C   0  0  0  0  0  0  0  0  0  0  0  0
    0.0910   12.7890   -3.8350 C   0  0  1  0  0  0  0  0  0  0  0  0
    1.2950   11.8890   -4.2230 C   0  0  0  0  0  0  0  0  0  0  0  0
    1.1760   10.5940   -3.3790 C   0  0  0  0  0  0  0  0  0  0  0  0
   -0.2520   10.6440   -2.7870 C   0  0  1  0  0  0  0  0  0  0  0  0
   -1.1790   10.1320   -3.9340 C   0  0  0  0  0  0  0  0  0  0  0  0
   -0.4790    9.8470   -1.4620 C   0  0  2  0  0  0  0  0  0  0  0  0
   -0.2650    8.3270   -1.5700 C   0  0  0  0  0  0  0  0  0  0  0  0
   -1.4800    7.5350   -1.9240 C   0  0  0  0  0  0  0  0  0  0  0  0
   -2.7480    7.9830   -1.8690 C   0  0  0  0  0  0  0  0  0  0  0  0
   -3.0680    9.3790   -1.3210 C   0  0  1  0  0  0  0  0  0  0  0  0
   -4.2570    9.2870   -0.3290 C   0  0  0  0  0  0  0  0  0  0  0  0
   -5.4780    8.6070   -0.9410 C   0  0  0  0  0  0  0  0  0  0  0  0
   -5.1350    7.1990   -1.4210 C   0  0  2  0  0  0  0  0  0  0  0  0
   -4.8330    6.3850   -0.2840 O   0  0  0  0  0  0  0  0  0  0  0  0
   -3.9440    7.1660   -2.4190 C   0  0  0  0  0  0  0  0  0  0  0  0
   -4.3780    7.7880   -3.7690 C   0  0  0  0  0  0  0  0  0  0  0  0
   -3.6100    5.6780   -2.7140 C   0  0  0  0  0  0  0  0  0  0  0  0
   -1.8370   10.1880   -0.7240 C   0  0  1  0  0  0  0  0  0  0  0  0
   -1.6340    9.8170    0.7770 C   0  0  0  0  0  0  0  0  0  0  0  0
   -2.1670   11.7270   -0.7600 C   0  0  0  0  0  0  0  0  0  0  0  0
   -1.8090   12.4840   -2.0540 C   0  0  0  0  0  0  0  0  0  0  0  0
   -0.3710   12.1830   -2.4860 C   0  0  2  0  0  0  0  0  0  0  0  0
    0.5860   12.7070   -1.3620 C   0  0  0  0  0  0  0  0  0  0  0  0
    2.1416   15.0830   -4.9104 H   0  0  0  0  0  0  0  0  0  0  0  0
    1.3365   13.7057   -5.7360 H   0  0  0  0  0  0  0  0  0  0  0  0
    0.5652   15.3280   -5.7360 H   0  0  0  0  0  0  0  0  0  0  0  0
   -0.4849   14.8708   -3.8217 H   0  0  0  0  0  0  0  0  0  0  0  0
    0.8538   14.0868   -1.7422 H   0  0  0  0  0  0  0  0  0  0  0  0
    2.3083   14.3609   -2.8162 H   0  0  0  0  0  0  0  0  0  0  0  0
    1.7581   16.6783   -3.0807 H   0  0  0  0  0  0  0  0  0  0  0  0
    0.2092   16.4515   -2.1656 H   0  0  0  0  0  0  0  0  0  0  0  0
    2.5406   15.4835   -1.0629 H   0  0  0  0  0  0  0  0  0  0  0  0
    1.8083   19.8693   -0.7025 H   0  0  0  0  0  0  0  0  0  0  0  0
    2.8960   19.2583   -1.9949 H   0  0  0  0  0  0  0  0  0  0  0  0
    1.1579   18.8046   -1.9949 H   0  0  0  0  0  0  0  0  0  0  0  0
    3.0239   17.9063    1.4920 H   0  0  0  0  0  0  0  0  0  0  0  0
    4.1803   17.1586    0.3386 H   0  0  0  0  0  0  0  0  0  0  0  0
    3.9358   18.9382    0.3386 H   0  0  0  0  0  0  0  0  0  0  0  0
   -0.7411   12.7857   -4.5545 H   0  0  0  0  0  0  0  0  0  0  0  0
    1.2569   11.6470   -5.2954 H   0  0  0  0  0  0  0  0  0  0  0  0
    2.2492   12.4006   -4.0287 H   0  0  0  0  0  0  0  0  0  0  0  0
    1.3025    9.7042   -4.0132 H   0  0  0  0  0  0  0  0  0  0  0  0
    1.9490   10.5320   -2.5989 H   0  0  0  0  0  0  0  0  0  0  0  0
   -2.0637    9.6433   -3.4999 H   0  0  0  0  0  0  0  0  0  0  0  0
   -1.4975   10.9821   -4.5552 H   0  0  0  0  0  0  0  0  0  0  0  0
   -0.6290    9.4097   -4.5552 H   0  0  0  0  0  0  0  0  0  0  0  0
    0.3343   10.2190   -0.8216 H   0  0  0  0  0  0  0  0  0  0  0  0
    0.4963    8.1451   -2.3429 H   0  0  0  0  0  0  0  0  0  0  0  0
    0.0359    7.9903   -0.5670 H   0  0  0  0  0  0  0  0  0  0  0  0
   -1.3260    6.4982   -2.2578 H   0  0  0  0  0  0  0  0  0  0  0  0
   -3.3546    9.9882   -2.1909 H   0  0  0  0  0  0  0  0  0  0  0  0
   -3.9374    8.7113    0.5521 H   0  0  0  0  0  0  0  0  0  0  0  0
   -4.5466   10.3132   -0.0587 H   0  0  0  0  0  0  0  0  0  0  0  0
   -6.2732    8.5454   -0.1835 H   0  0  0  0  0  0  0  0  0  0  0  0
   -5.8143    9.2000   -1.8043 H   0  0  0  0  0  0  0  0  0  0  0  0
   -6.0102    6.8129   -1.9641 H   0  0  0  0  0  0  0  0  0  0  0  0
   -4.7380    6.9750    0.4830 H   0  0  0  0  0  0  0  0  0  0  0  0
   -4.9982    8.6768   -3.5807 H   0  0  0  0  0  0  0  0  0  0  0  0
   -3.4855    8.0785   -4.3427 H   0  0  0  0  0  0  0  0  0  0  0  0
   -4.9586    7.0506   -4.3427 H   0  0  0  0  0  0  0  0  0  0  0  0
   -3.4880    5.1346   -1.7654 H   0  0  0  0  0  0  0  0  0  0  0  0
   -4.4291    5.2261   -3.2927 H   0  0  0  0  0  0  0  0  0  0  0  0
   -2.6764    5.6195   -3.2927 H   0  0  0  0  0  0  0  0  0  0  0  0
   -2.0654   10.6055    1.4112 H   0  0  0  0  0  0  0  0  0  0  0  0
   -2.1346    8.8608    0.9893 H   0  0  0  0  0  0  0  0  0  0  0  0
   -0.5588    9.7230    0.9893 H   0  0  0  0  0  0  0  0  0  0  0  0
   -3.2491   11.8393   -0.5972 H   0  0  0  0  0  0  0  0  0  0  0  0
   -1.5347   12.1755    0.0204 H   0  0  0  0  0  0  0  0  0  0  0  0
   -2.4973   12.1741   -2.8541 H   0  0  0  0  0  0  0  0  0  0  0  0
   -1.8993   13.5638   -1.8647 H   0  0  0  0  0  0  0  0  0  0  0  0
    0.1573   12.4723   -0.3766 H   0  0  0  0  0  0  0  0  0  0  0  0
    1.5677   12.2206   -1.4601 H   0  0  0  0  0  0  0  0  0  0  0  0
    0.7050   13.7961   -1.4601 H   0  0  0  0  0  0  0  0  0  0  0  0
  1  2  1  0
  2  3  1  0
  3  4  1  0
  4  5  1  0
  5  6  1  0
  6  7  1  0
  7  8  1  0
  7  9  1  0
  2 10  1  0
 10 11  1  0
 11 12  1  0
 12 13  1  0
 13 14  1  6
 13 15  1  0
 15 16  1  0
 16 17  1  0
 17 18  2  0
 18 19  1  0
 19 20  1  0
 20 21  1  0
 21 22  1  0
 22 23  1  0
 22 24  1  0
 24 25  1  0
 24 26  1  0
 19 27  1  0
 27 28  1  1
 27 29  1  0
 29 30  1  0
 30 31  1  0
 31 32  1  1
  7  5  1  0
 31 10  1  0
 31 13  1  0
 27 15  1  0
 24 18  1  0
  1 33  1  0
  1 34  1  0
  1 35  1  0
  2 36  1  1
  3 37  1  0
  3 38  1  0
  4 39  1  0
  4 40  1  0
  5 41  1  1
  8 42  1  0
  8 43  1  0
  8 44  1  0
  9 45  1  0
  9 46  1  0
  9 47  1  0
 10 48  1  6
 11 49  1  0
 11 50  1  0
 12 51  1  0
 12 52  1  0
 14 53  1  0
 14 54  1  0
 14 55  1  0
 15 56  1  1
 16 57  1  0
 16 58  1  0
 17 59  1  0
 19 60  1  6
 20 61  1  0
 20 62  1  0
 21 63  1  0
 21 64  1  0
 22 65  1  6
 23 66  1  0
 25 67  1  0
 25 68  1  0
 25 69  1  0
 26 70  1  0
 26 71  1  0
 26 72  1  0
 28 73  1  0
 28 74  1  0
 28 75  1  0
 29 76  1  0
 29 77  1  0
 30 78  1  0
 30 79  1  0
 32 80  1  0
 32 81  1  0
 32 82  1  0
M  END
>  <meeko>  (12) 
{"is_sidechain": [false], "intermolecular_energy": 2.731, "internal_energy": -0.839}

$$$$
EPH_relaxed_0001_pdb2pqr_Repair_175_r2_0001_out
     RDKit          3D

 82 86  0  0  0  0  0  0  0  0999 V2000
    0.6310    7.9990   -2.2940 C   0  0  0  0  0  0  0  0  0  0  0  0
   -0.8070    8.3440   -1.8950 C   0  0  2  0  0  0  0  0  0  0  0  0
   -1.8400    7.7410   -2.8680 C   0  0  0  0  0  0  0  0  0  0  0  0
   -3.1700    7.3750   -2.2040 C   0  0  0  0  0  0  0  0  0  0  0  0
   -4.0700    6.6270   -3.1410 C   0  0  2  0  0  0  0  0  0  0  0  0
   -4.9440    7.4550   -3.9190 O   0  0  0  0  0  0  0  0  0  0  0  0
   -5.5780    6.5670   -2.9830 C   0  0  0  0  0  0  0  0  0  0  0  0
   -6.2730    7.2660   -1.8560 C   0  0  0  0  0  0  0  0  0  0  0  0
   -6.3200    5.4400   -3.6300 C   0  0  0  0  0  0  0  0  0  0  0  0
   -0.9780    9.8570   -1.8250 C   0  0  1  0  0  0  0  0  0  0  0  0
   -2.4490   10.2810   -1.5750 C   0  0  0  0  0  0  0  0  0  0  0  0
   -2.4040   11.5530   -0.6900 C   0  0  0  0  0  0  0  0  0  0  0  0
   -0.9270   12.0070   -0.7350 C   0  0  1  0  0  0  0  0  0  0  0  0
   -0.7880   12.7860   -2.0810 C   0  0  0  0  0  0  0  0  0  0  0  0
   -0.4270   12.8580    0.4780 C   0  0  2  0  0  0  0  0  0  0  0  0
   -1.1390   14.2090    0.6640 C   0  0  0  0  0  0  0  0  0  0  0  0
   -0.5100   15.3640   -0.0440 C   0  0  0  0  0  0  0  0  0  0  0  0
    0.7320   15.3810   -0.5630 C   0  0  0  0  0  0  0  0  0  0  0  0
    1.6790   14.1890   -0.3770 C   0  0  1  0  0  0  0  0  0  0  0  0
    3.0780   14.7020    0.0540 C   0  0  0  0  0  0  0  0  0  0  0  0
    3.6380   15.7490   -0.9030 C   0  0  0  0  0  0  0  0  0  0  0  0
    2.6960   16.9440   -1.0170 C   0  0  2  0  0  0  0  0  0  0  0  0
    2.6620   17.6250    0.2410 O   0  0  0  0  0  0  0  0  0  0  0  0
    1.2520   16.5490   -1.4360 C   0  0  0  0  0  0  0  0  0  0  0  0
    1.2480   16.0890   -2.9150 C   0  0  0  0  0  0  0  0  0  0  0  0
    0.3710   17.8250   -1.3750 C   0  0  0  0  0  0  0  0  0  0  0  0
    1.1450   13.0170    0.5540 C   0  0  1  0  0  0  0  0  0  0  0  0
    1.4900   13.3220    2.0440 C   0  0  0  0  0  0  0  0  0  0  0  0
    1.9000   11.6850    0.1880 C   0  0  0  0  0  0  0  0  0  0  0  0
    1.2910   10.8280   -0.9380 C   0  0  0  0  0  0  0  0  0  0  0  0
   -0.2080   10.6090   -0.7110 C   0  0  2  0  0  0  0  0  0  0  0  0
   -0.3770    9.8080    0.6250 C   0  0  0  0  0  0  0  0  0  0  0  0
    1.2379    7.8534   -1.3882 H   0  0  0  0  0  0  0  0  0  0  0  0
    0.6344    7.0746   -2.8902 H   0  0  0  0  0  0  0  0  0  0  0  0
    1.0534    8.8213   -2.8902 H   0  0  0  0  0  0  0  0  0  0  0  0
   -0.9906    7.9030   -0.9041 H   0  0  0  0  0  0  0  0  0  0  0  0
   -2.0389    8.4754   -3.6624 H   0  0  0  0  0  0  0  0  0  0  0  0
   -1.4078    6.8077   -3.2581 H   0  0  0  0  0  0  0  0  0  0  0  0
   -2.9682    6.7454   -1.3248 H   0  0  0  0  0  0  0  0  0  0  0  0
   -3.6762    8.3073   -1.9133 H   0  0  0  0  0  0  0  0  0  0  0  0
   -3.3115    5.8429   -3.2819 H   0  0  0  0  0  0  0  0  0  0  0  0
   -5.8928    6.8836   -0.8972 H   0  0  0  0  0  0  0  0  0  0  0  0
   -6.0815    8.3472   -1.9214 H   0  0  0  0  0  0  0  0  0  0  0  0
   -7.3553    7.0807   -1.9214 H   0  0  0  0  0  0  0  0  0  0  0  0
   -6.7484    4.7893   -2.8534 H   0  0  0  0  0  0  0  0  0  0  0  0
   -7.1287    5.8450   -4.2561 H   0  0  0  0  0  0  0  0  0  0  0  0
   -5.6284    4.8572   -4.2561 H   0  0  0  0  0  0  0  0  0  0  0  0
   -0.5772   10.1334   -2.8114 H   0  0  0  0  0  0  0  0  0  0  0  0
   -2.9471   10.5019   -2.5306 H   0  0  0  0  0  0  0  0  0  0  0  0
   -3.0133    9.4762   -1.0812 H   0  0  0  0  0  0  0  0  0  0  0  0
   -3.0628   12.3336   -1.0982 H   0  0  0  0  0  0  0  0  0  0  0  0
   -2.7501   11.3598    0.3361 H   0  0  0  0  0  0  0  0  0  0  0  0
   -0.5983   13.8491   -1.8715 H   0  0  0  0  0  0  0  0  0  0  0  0
    0.0503   12.3711   -2.6599 H   0  0  0  0  0  0  0  0  0  0  0  0
   -1.7181   12.6866   -2.6599 H   0  0  0  0  0  0  0  0  0  0  0  0
   -0.7266   12.2417    1.3385 H   0  0  0  0  0  0  0  0  0  0  0  0
   -2.1696   14.1039    0.2942 H   0  0  0  0  0  0  0  0  0  0  0  0
   -1.0779   14.4401    1.7377 H   0  0  0  0  0  0  0  0  0  0  0  0
   -1.1126   16.2781   -0.1503 H   0  0  0  0  0  0  0  0  0  0  0  0
    1.7473   13.6988   -1.3594 H   0  0  0  0  0  0  0  0  0  0  0  0
    2.9965   15.1482    1.0561 H   0  0  0  0  0  0  0  0  0  0  0  0
    3.7649   13.8429    0.0476 H   0  0  0  0  0  0  0  0  0  0  0  0
    4.6131   16.0939   -0.5285 H   0  0  0  0  0  0  0  0  0  0  0  0
    3.7472   15.2923   -1.8977 H   0  0  0  0  0  0  0  0  0  0  0  0
    3.0857   17.5964   -1.8124 H   0  0  0  0  0  0  0  0  0  0  0  0
    2.5910   16.9520    0.9390 H   0  0  0  0  0  0  0  0  0  0  0  0
    1.2384   14.9898   -2.9571 H   0  0  0  0  0  0  0  0  0  0  0  0
    0.3532   16.4830   -3.4191 H   0  0  0  0  0  0  0  0  0  0  0  0
    2.1495   16.4674   -3.4191 H   0  0  0  0  0  0  0  0  0  0  0  0
    0.1860   18.0930   -0.3243 H   0  0  0  0  0  0  0  0  0  0  0  0
    0.8903   18.6536   -1.8787 H   0  0  0  0  0  0  0  0  0  0  0  0
   -0.5878   17.6330   -1.8787 H   0  0  0  0  0  0  0  0  0  0  0  0
    0.8288   12.7374    2.7005 H   0  0  0  0  0  0  0  0  0  0  0  0
    2.5372   13.0490    2.2412 H   0  0  0  0  0  0  0  0  0  0  0  0
    1.3474   14.3947    2.2412 H   0  0  0  0  0  0  0  0  0  0  0  0
    2.9225   11.9546   -0.1150 H   0  0  0  0  0  0  0  0  0  0  0  0
    1.8362   11.0606    1.0914 H   0  0  0  0  0  0  0  0  0  0  0  0
    1.4381   11.3407   -1.9000 H   0  0  0  0  0  0  0  0  0  0  0  0
    1.7917    9.8486   -0.9431 H   0  0  0  0  0  0  0  0  0  0  0  0
   -0.2340   10.4858    1.4795 H   0  0  0  0  0  0  0  0  0  0  0  0
   -1.3866    9.3733    0.6667 H   0  0  0  0  0  0  0  0  0  0  0  0
    0.3710    9.0025    0.6667 H   0  0  0  0  0  0  0  0  0  0  0  0
  1  2  1  0
  2  3  1  0
  3  4  1  0
  4  5  1  0
  5  6  1  0
  6  7  1  0
  7  8  1  0
  7  9  1  0
  2 10  1  0
 10 11  1  0
 11 12  1  0
 12 13  1  0
 13 14  1  6
 13 15  1  0
 15 16  1  0
 16 17  1  0
 17 18  2  0
 18 19  1  0
 19 20  1  0
 20 21  1  0
 21 22  1  0
 22 23  1  0
 22 24  1  0
 24 25  1  0
 24 26  1  0
 19 27  1  0
 27 28  1  1
 27 29  1  0
 29 30  1  0
 30 31  1  0
 31 32  1  1
  7  5  1  0
 31 10  1  0
 31 13  1  0
 27 15  1  0
 24 18  1  0
  1 33  1  0
  1 34  1  0
  1 35  1  0
  2 36  1  1
  3 37  1  0
  3 38  1  0
  4 39  1  0
  4 40  1  0
  5 41  1  6
  8 42  1  0
  8 43  1  0
  8 44  1  0
  9 45  1  0
  9 46  1  0
  9 47  1  0
 10 48  1  6
 11 49  1  0
 11 50  1  0
 12 51  1  0
 12 52  1  0
 14 53  1  0
 14 54  1  0
 14 55  1  0
 15 56  1  1
 16 57  1  0
 16 58  1  0
 17 59  1  0
 19 60  1  6
 20 61  1  0
 20 62  1  0
 21 63  1  0
 21 64  1  0
 22 65  1  6
 23 66  1  0
 25 67  1  0
 25 68  1  0
 25 69  1  0
 26 70  1  0
 26 71  1  0
 26 72  1  0
 28 73  1  0
 28 74  1  0
 28 75  1  0
 29 76  1  0
 29 77  1  0
 30 78  1  0
 30 79  1  0
 32 80  1  0
 32 81  1  0
 32 82  1  0
M  END
>  <meeko>  (13) 
{"is_sidechain": [false], "intermolecular_energy": 2.731, "internal_energy": -0.839}

$$$$
EPH_relaxed_0001_pdb2pqr_Repair_175_r2_0001_out
     RDKit          3D

 82 86  0  0  0  0  0  0  0  0999 V2000
   -0.1730   18.6970   -2.5620 C   0  0  0  0  0  0  0  0  0  0  0  0
    0.6110   18.2860   -1.3130 C   0  0  2  0  0  0  0  0  0  0  0  0
    1.7870   19.2410   -1.0240 C   0  0  0  0  0  0  0  0  0  0  0  0
    1.9590   19.5740    0.4600 C   0  0  0  0  0  0  0  0  0  0  0  0
    3.3910   19.4690    0.8900 C   0  0  2  0  0  0  0  0  0  0  0  0
    3.6590   18.4230    1.8320 O   0  0  0  0  0  0  0  0  0  0  0  0
    3.8660   19.7650    2.3000 C   0  0  0  0  0  0  0  0  0  0  0  0
    2.9110   20.1910    3.3710 C   0  0  0  0  0  0  0  0  0  0  0  0
    5.3060   20.1140    2.5120 C   0  0  0  0  0  0  0  0  0  0  0  0
    1.1240   16.8590   -1.4670 C   0  0  1  0  0  0  0  0  0  0  0  0
    2.6660   16.7600   -1.3220 C   0  0  0  0  0  0  0  0  0  0  0  0
    2.9640   15.4050   -0.6290 C   0  0  0  0  0  0  0  0  0  0  0  0
    1.6280   14.6300   -0.6990 C   0  0  1  0  0  0  0  0  0  0  0  0
    1.5880   14.0280   -2.1380 C   0  0  0  0  0  0  0  0  0  0  0  0
    1.4080   13.5310    0.3920 C   0  0  2  0  0  0  0  0  0  0  0  0
    2.4170   12.3700    0.3610 C   0  0  0  0  0  0  0  0  0  0  0  0
    2.0250   11.2070   -0.4880 C   0  0  0  0  0  0  0  0  0  0  0  0
    0.7900   10.9710   -0.9690 C   0  0  0  0  0  0  0  0  0  0  0  0
   -0.3900   11.8730   -0.5870 C   0  0  1  0  0  0  0  0  0  0  0  0
   -1.6070   10.9960   -0.1950 C   0  0  0  0  0  0  0  0  0  0  0  0
   -1.9730    9.9850   -1.2790 C   0  0  0  0  0  0  0  0  0  0  0  0
   -0.7920    9.0690   -1.5900 C   0  0  2  0  0  0  0  0  0  0  0  0
   -0.5290    8.2520   -0.4450 O   0  0  0  0  0  0  0  0  0  0  0  0
    0.4960    9.8420   -1.9880 C   0  0  0  0  0  0  0  0  0  0  0  0
    0.3070   10.4840   -3.3840 C   0  0  0  0  0  0  0  0  0  0  0  0
    1.6460    8.8100   -2.1370 C   0  0  0  0  0  0  0  0  0  0  0  0
   -0.0800   13.0020    0.4890 C   0  0  1  0  0  0  0  0  0  0  0  0
   -0.2560   12.4270    1.9280 C   0  0  0  0  0  0  0  0  0  0  0  0
   -1.1380   14.1580    0.3400 C   0  0  0  0  0  0  0  0  0  0  0  0
   -0.8070   15.2760   -0.6670 C   0  0  0  0  0  0  0  0  0  0  0  0
    0.6140   15.8060   -0.4520 C   0  0  2  0  0  0  0  0  0  0  0  0
    0.6780   16.4370    0.9800 C   0  0  0  0  0  0  0  0  0  0  0  0
   -1.1102   19.1883   -2.2615 H   0  0  0  0  0  0  0  0  0  0  0  0
    0.4309   19.3945   -3.1610 H   0  0  0  0  0  0  0  0  0  0  0  0
   -0.4031   17.8035   -3.1610 H   0  0  0  0  0  0  0  0  0  0  0  0
   -0.0776   18.3429   -0.4571 H   0  0  0  0  0  0  0  0  0  0  0  0
    2.7135   18.7697   -1.3838 H   0  0  0  0  0  0  0  0  0  0  0  0
    1.5682   20.1863   -1.5422 H   0  0  0  0  0  0  0  0  0  0  0  0
    1.6079   20.6012    0.6377 H   0  0  0  0  0  0  0  0  0  0  0  0
    1.3719   18.8499    1.0439 H   0  0  0  0  0  0  0  0  0  0  0  0
    3.7355   19.8207   -0.0937 H   0  0  0  0  0  0  0  0  0  0  0  0
    3.3547   19.9931    4.3579 H   0  0  0  0  0  0  0  0  0  0  0  0
    2.7041   21.2667    3.2711 H   0  0  0  0  0  0  0  0  0  0  0  0
    1.9723   19.6263    3.2711 H   0  0  0  0  0  0  0  0  0  0  0  0
    5.5160   20.1649    3.5906 H   0  0  0  0  0  0  0  0  0  0  0  0
    5.9417   19.3439    2.0506 H   0  0  0  0  0  0  0  0  0  0  0  0
    5.5186   21.0897    2.0506 H   0  0  0  0  0  0  0  0  0  0  0  0
    0.7367   16.6314   -2.4711 H   0  0  0  0  0  0  0  0  0  0  0  0
    3.1425   16.7916   -2.3129 H   0  0  0  0  0  0  0  0  0  0  0  0
    3.0621   17.6004   -0.7331 H   0  0  0  0  0  0  0  0  0  0  0  0
    3.7569   14.8614   -1.1636 H   0  0  0  0  0  0  0  0  0  0  0  0
    3.3184   15.5336    0.4044 H   0  0  0  0  0  0  0  0  0  0  0  0
    1.5152   12.9322   -2.0751 H   0  0  0  0  0  0  0  0  0  0  0  0
    0.7141   14.4232   -2.6767 H   0  0  0  0  0  0  0  0  0  0  0  0
    2.5065   14.3042   -2.6767 H   0  0  0  0  0  0  0  0  0  0  0  0
    1.6123   14.0793    1.3235 H   0  0  0  0  0  0  0  0  0  0  0  0
    3.3729   12.7606   -0.0180 H   0  0  0  0  0  0  0  0  0  0  0  0
    2.4741   11.9890    1.3913 H   0  0  0  0  0  0  0  0  0  0  0  0
    2.8116   10.4813   -0.7422 H   0  0  0  0  0  0  0  0  0  0  0  0
   -0.6273   12.4598   -1.4867 H   0  0  0  0  0  0  0  0  0  0  0  0
   -1.3655   10.4504    0.7291 H   0  0  0  0  0  0  0  0  0  0  0  0
   -2.4696   11.6644   -0.0566 H   0  0  0  0  0  0  0  0  0  0  0  0
   -2.8201    9.3753   -0.9317 H   0  0  0  0  0  0  0  0  0  0  0  0
   -2.2437   10.5327   -2.1937 H   0  0  0  0  0  0  0  0  0  0  0  0
   -1.0701    8.4563   -2.4602 H   0  0  0  0  0  0  0  0  0  0  0  0
   -0.2770    8.8420    0.2860 H   0  0  0  0  0  0  0  0  0  0  0  0
   -0.0019   11.5332   -3.2663 H   0  0  0  0  0  0  0  0  0  0  0  0
    1.2559   10.4411   -3.9388 H   0  0  0  0  0  0  0  0  0  0  0  0
   -0.4673    9.9339   -3.9388 H   0  0  0  0  0  0  0  0  0  0  0  0
    1.9917    8.4998   -1.1399 H   0  0  0  0  0  0  0  0  0  0  0  0
    1.2807    7.9310   -2.6883 H   0  0  0  0  0  0  0  0  0  0  0  0
    2.4805    9.2679   -2.6883 H   0  0  0  0  0  0  0  0  0  0  0  0
   -0.0173   13.2068    2.6662 H   0  0  0  0  0  0  0  0  0  0  0  0
   -1.2962   12.0972    2.0664 H   0  0  0  0  0  0  0  0  0  0  0  0
    0.4214   11.5714    2.0664 H   0  0  0  0  0  0  0  0  0  0  0  0
   -2.0890   13.7009    0.0292 H   0  0  0  0  0  0  0  0  0  0  0  0
   -1.1641   14.6531    1.3219 H   0  0  0  0  0  0  0  0  0  0  0  0
   -0.8911   14.8765   -1.6884 H   0  0  0  0  0  0  0  0  0  0  0  0
   -1.5159   16.1036   -0.5171 H   0  0  0  0  0  0  0  0  0  0  0  0
    0.5973   15.6413    1.7352 H   0  0  0  0  0  0  0  0  0  0  0  0
    1.6344   16.9658    1.1053 H   0  0  0  0  0  0  0  0  0  0  0  0
   -0.1527   17.1471    1.1053 H   0  0  0  0  0  0  0  0  0  0  0  0
  1  2  1  0
  2  3  1  0
  3  4  1  0
  4  5  1  0
  5  6  1  0
  6  7  1  0
  7  8  1  0
  7  9  1  0
  2 10  1  0
 10 11  1  0
 11 12  1  0
 12 13  1  0
 13 14  1  6
 13 15  1  0
 15 16  1  0
 16 17  1  0
 17 18  2  0
 18 19  1  0
 19 20  1  0
 20 21  1  0
 21 22  1  0
 22 23  1  0
 22 24  1  0
 24 25  1  0
 24 26  1  0
 19 27  1  0
 27 28  1  1
 27 29  1  0
 29 30  1  0
 30 31  1  0
 31 32  1  1
  7  5  1  0
 31 10  1  0
 31 13  1  0
 27 15  1  0
 24 18  1  0
  1 33  1  0
  1 34  1  0
  1 35  1  0
  2 36  1  1
  3 37  1  0
  3 38  1  0
  4 39  1  0
  4 40  1  0
  5 41  1  6
  8 42  1  0
  8 43  1  0
  8 44  1  0
  9 45  1  0
  9 46  1  0
  9 47  1  0
 10 48  1  6
 11 49  1  0
 11 50  1  0
 12 51  1  0
 12 52  1  0
 14 53  1  0
 14 54  1  0
 14 55  1  0
 15 56  1  1
 16 57  1  0
 16 58  1  0
 17 59  1  0
 19 60  1  6
 20 61  1  0
 20 62  1  0
 21 63  1  0
 21 64  1  0
 22 65  1  6
 23 66  1  0
 25 67  1  0
 25 68  1  0
 25 69  1  0
 26 70  1  0
 26 71  1  0
 26 72  1  0
 28 73  1  0
 28 74  1  0
 28 75  1  0
 29 76  1  0
 29 77  1  0
 30 78  1  0
 30 79  1  0
 32 80  1  0
 32 81  1  0
 32 82  1  0
M  END
>  <meeko>  (14) 
{"is_sidechain": [false], "intermolecular_energy": 2.731, "internal_energy": -0.839}

$$$$
EPH_relaxed_0001_pdb2pqr_Repair_175_r2_0001_out
     RDKit          3D

 82 86  0  0  0  0  0  0  0  0999 V2000
  -15.2090    8.8010    0.5370 C   0  0  0  0  0  0  0  0  0  0  0  0
  -14.3240    9.0980   -0.6770 C   0  0  2  0  0  0  0  0  0  0  0  0
  -14.6380    8.1690   -1.8660 C   0  0  0  0  0  0  0  0  0  0  0  0
  -14.6120    8.8770   -3.2240 C   0  0  0  0  0  0  0  0  0  0  0  0
  -15.2760   10.2190   -3.1620 C   0  0  2  0  0  0  0  0  0  0  0  0
  -14.9360   11.1050   -4.2370 O   0  0  0  0  0  0  0  0  0  0  0  0
  -14.5240   11.5150   -2.9230 C   0  0  0  0  0  0  0  0  0  0  0  0
  -13.0400   11.5310   -2.7280 C   0  0  0  0  0  0  0  0  0  0  0  0
  -15.2800   12.6930   -2.3940 C   0  0  0  0  0  0  0  0  0  0  0  0
  -12.8550    8.9710   -0.2910 C   0  0  1  0  0  0  0  0  0  0  0  0
  -12.6350    8.9960    1.2450 C   0  0  0  0  0  0  0  0  0  0  0  0
  -11.4490    8.0430    1.5430 C   0  0  0  0  0  0  0  0  0  0  0  0
  -10.8170    7.7630    0.1600 C   0  0  1  0  0  0  0  0  0  0  0  0
   -9.9130    9.0030   -0.1260 C   0  0  0  0  0  0  0  0  0  0  0  0
  -10.0210    6.4240    0.0220 C   0  0  2  0  0  0  0  0  0  0  0  0
   -8.7870    6.3020    0.9330 C   0  0  0  0  0  0  0  0  0  0  0  0
   -7.5080    6.7960    0.3430 C   0  0  0  0  0  0  0  0  0  0  0  0
   -7.2950    7.0530   -0.9610 C   0  0  0  0  0  0  0  0  0  0  0  0
   -8.3750    6.7550   -2.0080 C   0  0  1  0  0  0  0  0  0  0  0  0
   -7.7360    6.0200   -3.2160 C   0  0  0  0  0  0  0  0  0  0  0  0
   -6.5490    6.7800   -3.8010 C   0  0  0  0  0  0  0  0  0  0  0  0
   -5.4720    7.0060   -2.7440 C   0  0  2  0  0  0  0  0  0  0  0  0
   -4.9120    5.7410   -2.3780 O   0  0  0  0  0  0  0  0  0  0  0  0
   -6.0010    7.7310   -1.4750 C   0  0  0  0  0  0  0  0  0  0  0  0
   -6.3270    9.2060   -1.8160 C   0  0  0  0  0  0  0  0  0  0  0  0
   -4.8510    7.7700   -0.4330 C   0  0  0  0  0  0  0  0  0  0  0  0
   -9.6800    6.0230   -1.4710 C   0  0  1  0  0  0  0  0  0  0  0  0
   -9.4660    4.4790   -1.4790 C   0  0  0  0  0  0  0  0  0  0  0  0
  -10.8740    6.3120   -2.4550 C   0  0  0  0  0  0  0  0  0  0  0  0
  -11.6960    7.5880   -2.1950 C   0  0  0  0  0  0  0  0  0  0  0  0
  -12.1140    7.6810   -0.7240 C   0  0  2  0  0  0  0  0  0  0  0  0
  -13.0430    6.4580   -0.4130 C   0  0  0  0  0  0  0  0  0  0  0  0
  -14.6415    8.9915    1.4598 H   0  0  0  0  0  0  0  0  0  0  0  0
  -16.0964    9.4506    0.5116 H   0  0  0  0  0  0  0  0  0  0  0  0
  -15.5249    7.7476    0.5116 H   0  0  0  0  0  0  0  0  0  0  0  0
  -14.5373   10.1282   -0.9984 H   0  0  0  0  0  0  0  0  0  0  0  0
  -13.8922    7.3606   -1.8815 H   0  0  0  0  0  0  0  0  0  0  0  0
  -15.6613    7.7932   -1.7189 H   0  0  0  0  0  0  0  0  0  0  0  0
  -13.5658    9.0110   -3.5362 H   0  0  0  0  0  0  0  0  0  0  0  0
  -15.1621    8.2552   -3.9456 H   0  0  0  0  0  0  0  0  0  0  0  0
  -16.1651    9.7831   -2.6830 H   0  0  0  0  0  0  0  0  0  0  0  0
  -12.8116   11.5335   -1.6520 H   0  0  0  0  0  0  0  0  0  0  0  0
  -12.5992   10.6376   -3.1944 H   0  0  0  0  0  0  0  0  0  0  0  0
  -12.6186   12.4337   -3.1944 H   0  0  0  0  0  0  0  0  0  0  0  0
  -15.2672   12.6731   -1.2943 H   0  0  0  0  0  0  0  0  0  0  0  0
  -14.8084   13.6210   -2.7494 H   0  0  0  0  0  0  0  0  0  0  0  0
  -16.3201   12.6508   -2.7494 H   0  0  0  0  0  0  0  0  0  0  0  0
  -12.4483    9.8383   -0.8317 H   0  0  0  0  0  0  0  0  0  0  0  0
  -12.3932   10.0166    1.5764 H   0  0  0  0  0  0  0  0  0  0  0  0
  -13.5420    8.6764    1.7790 H   0  0  0  0  0  0  0  0  0  0  0  0
  -10.7214    8.5259    2.2119 H   0  0  0  0  0  0  0  0  0  0  0  0
  -11.7715    7.1209    2.0487 H   0  0  0  0  0  0  0  0  0  0  0  0
   -9.5887    9.4478    0.8264 H   0  0  0  0  0  0  0  0  0  0  0  0
   -9.0309    8.6884   -0.7029 H   0  0  0  0  0  0  0  0  0  0  0  0
  -10.4824    9.7466   -0.7029 H   0  0  0  0  0  0  0  0  0  0  0  0
  -10.7419    5.6814    0.3947 H   0  0  0  0  0  0  0  0  0  0  0  0
   -8.9830    6.8774    1.8498 H   0  0  0  0  0  0  0  0  0  0  0  0
   -8.6448    5.2258    1.1104 H   0  0  0  0  0  0  0  0  0  0  0  0
   -6.6678    6.9644    1.0327 H   0  0  0  0  0  0  0  0  0  0  0  0
   -8.7651    7.7325   -2.3279 H   0  0  0  0  0  0  0  0  0  0  0  0
   -7.3918    5.0293   -2.8843 H   0  0  0  0  0  0  0  0  0  0  0  0
   -8.5017    5.9399   -4.0017 H   0  0  0  0  0  0  0  0  0  0  0  0
   -6.1223    6.1977   -4.6310 H   0  0  0  0  0  0  0  0  0  0  0  0
   -6.9007    7.7589   -4.1590 H   0  0  0  0  0  0  0  0  0  0  0  0
   -4.7097    7.6645   -3.1858 H   0  0  0  0  0  0  0  0  0  0  0  0
   -4.3890    5.8740   -1.5690 H   0  0  0  0  0  0  0  0  0  0  0  0
   -6.4535    9.7782   -0.8851 H   0  0  0  0  0  0  0  0  0  0  0  0
   -5.5026    9.6376   -2.4026 H   0  0  0  0  0  0  0  0  0  0  0  0
   -7.2565    9.2499   -2.4026 H   0  0  0  0  0  0  0  0  0  0  0  0
   -5.2751    7.7556    0.5819 H   0  0  0  0  0  0  0  0  0  0  0  0
   -4.2011    6.8934   -0.5712 H   0  0  0  0  0  0  0  0  0  0  0  0
   -4.2619    8.6886   -0.5712 H   0  0  0  0  0  0  0  0  0  0  0  0
   -9.4149    4.1105   -0.4438 H   0  0  0  0  0  0  0  0  0  0  0  0
  -10.3057    3.9951   -1.9994 H   0  0  0  0  0  0  0  0  0  0  0  0
   -8.5264    4.2417   -1.9994 H   0  0  0  0  0  0  0  0  0  0  0  0
  -10.4577    6.3857   -3.4705 H   0  0  0  0  0  0  0  0  0  0  0  0
  -11.5784    5.4807   -2.3042 H   0  0  0  0  0  0  0  0  0  0  0  0
  -11.0868    8.4671   -2.4522 H   0  0  0  0  0  0  0  0  0  0  0  0
  -12.6034    7.5532   -2.8159 H   0  0  0  0  0  0  0  0  0  0  0  0
  -13.1359    6.3357    0.6762 H   0  0  0  0  0  0  0  0  0  0  0  0
  -14.0378    6.6331   -0.8485 H   0  0  0  0  0  0  0  0  0  0  0  0
  -12.6074    5.5466   -0.8485 H   0  0  0  0  0  0  0  0  0  0  0  0
  1  2  1  0
  2  3  1  0
  3  4  1  0
  4  5  1  0
  5  6  1  0
  6  7  1  0
  7  8  1  0
  7  9  1  0
  2 10  1  0
 10 11  1  0
 11 12  1  0
 12 13  1  0
 13 14  1  6
 13 15  1  0
 15 16  1  0
 16 17  1  0
 17 18  2  0
 18 19  1  0
 19 20  1  0
 20 21  1  0
 21 22  1  0
 22 23  1  0
 22 24  1  0
 24 25  1  0
 24 26  1  0
 19 27  1  0
 27 28  1  1
 27 29  1  0
 29 30  1  0
 30 31  1  0
 31 32  1  1
  7  5  1  0
 31 10  1  0
 31 13  1  0
 27 15  1  0
 24 18  1  0
  1 33  1  0
  1 34  1  0
  1 35  1  0
  2 36  1  6
  3 37  1  0
  3 38  1  0
  4 39  1  0
  4 40  1  0
  5 41  1  1
  8 42  1  0
  8 43  1  0
  8 44  1  0
  9 45  1  0
  9 46  1  0
  9 47  1  0
 10 48  1  6
 11 49  1  0
 11 50  1  0
 12 51  1  0
 12 52  1  0
 14 53  1  0
 14 54  1  0
 14 55  1  0
 15 56  1  1
 16 57  1  0
 16 58  1  0
 17 59  1  0
 19 60  1  6
 20 61  1  0
 20 62  1  0
 21 63  1  0
 21 64  1  0
 22 65  1  6
 23 66  1  0
 25 67  1  0
 25 68  1  0
 25 69  1  0
 26 70  1  0
 26 71  1  0
 26 72  1  0
 28 73  1  0
 28 74  1  0
 28 75  1  0
 29 76  1  0
 29 77  1  0
 30 78  1  0
 30 79  1  0
 32 80  1  0
 32 81  1  0
 32 82  1  0
M  END
>  <meeko>  (15) 
{"is_sidechain": [false], "intermolecular_energy": 2.731, "internal_energy": -0.839}

$$$$
EPH_relaxed_0001_pdb2pqr_Repair_175_r2_0001_out
     RDKit          3D

 82 86  0  0  0  0  0  0  0  0999 V2000
    3.1330   14.5460   -7.3440 C   0  0  0  0  0  0  0  0  0  0  0  0
    1.6210   14.7350   -7.1970 C   0  0  2  0  0  0  0  0  0  0  0  0
    1.1340   16.0460   -7.8460 C   0  0  0  0  0  0  0  0  0  0  0  0
    2.1230   16.6400   -8.8510 C   0  0  0  0  0  0  0  0  0  0  0  0
    1.7210   16.3460  -10.2650 C   0  0  2  0  0  0  0  0  0  0  0  0
    1.0730   15.0810  -10.4520 O   0  0  0  0  0  0  0  0  0  0  0  0
    2.3450   15.2430  -11.1000 C   0  0  0  0  0  0  0  0  0  0  0  0
    3.4240   14.3640  -10.5500 C   0  0  0  0  0  0  0  0  0  0  0  0
    2.2540   15.3360  -12.5910 C   0  0  0  0  0  0  0  0  0  0  0  0
    1.2350   14.7070   -5.7230 C   0  0  1  0  0  0  0  0  0  0  0  0
    0.0690   15.6780   -5.3930 C   0  0  0  0  0  0  0  0  0  0  0  0
   -0.7780   14.9990   -4.2860 C   0  0  0  0  0  0  0  0  0  0  0  0
    0.1010   13.8300   -3.7840 C   0  0  1  0  0  0  0  0  0  0  0  0
    1.1090   14.4840   -2.7880 C   0  0  0  0  0  0  0  0  0  0  0  0
   -0.6560   12.6270   -3.1330 C   0  0  2  0  0  0  0  0  0  0  0  0
   -1.4420   12.9650   -1.8540 C   0  0  0  0  0  0  0  0  0  0  0  0
   -0.6810   12.8130   -0.5790 C   0  0  0  0  0  0  0  0  0  0  0  0
    0.4840   12.1530   -0.4370 C   0  0  0  0  0  0  0  0  0  0  0  0
    1.1040   11.3880   -1.6130 C   0  0  1  0  0  0  0  0  0  0  0  0
    1.5570    9.9830   -1.1360 C   0  0  0  0  0  0  0  0  0  0  0  0
    2.4850   10.0470    0.0730 C   0  0  0  0  0  0  0  0  0  0  0  0
    1.8110   10.7630    1.2400 C   0  0  2  0  0  0  0  0  0  0  0  0
    0.7160    9.9660    1.7010 O   0  0  0  0  0  0  0  0  0  0  0  0
    1.3050   12.1870    0.8760 C   0  0  0  0  0  0  0  0  0  0  0  0
    2.5130   13.1320    0.6690 C   0  0  0  0  0  0  0  0  0  0  0  0
    0.5220   12.7420    2.0960 C   0  0  0  0  0  0  0  0  0  0  0  0
    0.2310   11.3300   -2.9400 C   0  0  1  0  0  0  0  0  0  0  0  0
   -0.7530   10.1230   -2.8770 C   0  0  0  0  0  0  0  0  0  0  0  0
    1.1800   11.0660   -4.1690 C   0  0  0  0  0  0  0  0  0  0  0  0
    1.8030   12.3030   -4.8440 C   0  0  0  0  0  0  0  0  0  0  0  0
    0.7350   13.3600   -5.1440 C   0  0  2  0  0  0  0  0  0  0  0  0
   -0.2810   12.7380   -6.1610 C   0  0  0  0  0  0  0  0  0  0  0  0
    3.5940   14.4884   -6.3469 H   0  0  0  0  0  0  0  0  0  0  0  0
    3.3343   13.6157   -7.8954 H   0  0  0  0  0  0  0  0  0  0  0  0
    3.5571   15.3981   -7.8954 H   0  0  0  0  0  0  0  0  0  0  0  0
    1.1302   13.9042   -7.7250 H   0  0  0  0  0  0  0  0  0  0  0  0
    0.1873   15.8439   -8.3685 H   0  0  0  0  0  0  0  0  0  0  0  0
    1.0182   16.7815   -7.0363 H   0  0  0  0  0  0  0  0  0  0  0  0
    2.1619   17.7303   -8.7109 H   0  0  0  0  0  0  0  0  0  0  0  0
    3.1081   16.1841   -8.6729 H   0  0  0  0  0  0  0  0  0  0  0  0
    1.5492   17.4142  -10.4635 H   0  0  0  0  0  0  0  0  0  0  0  0
    3.3929   14.3894   -9.4507 H   0  0  0  0  0  0  0  0  0  0  0  0
    3.2689   13.3319  -10.8975 H   0  0  0  0  0  0  0  0  0  0  0  0
    4.4034   14.7246  -10.8975 H   0  0  0  0  0  0  0  0  0  0  0  0
    1.5091   16.0972  -12.8661 H   0  0  0  0  0  0  0  0  0  0  0  0
    3.2349   15.6177  -13.0014 H   0  0  0  0  0  0  0  0  0  0  0  0
    1.9510   14.3614  -13.0014 H   0  0  0  0  0  0  0  0  0  0  0  0
    2.2030   14.9735   -5.2735 H   0  0  0  0  0  0  0  0  0  0  0  0
    0.4661   16.6378   -5.0311 H   0  0  0  0  0  0  0  0  0  0  0  0
   -0.5394   15.8831   -6.2862 H   0  0  0  0  0  0  0  0  0  0  0  0
   -0.9879   15.7055   -3.4694 H   0  0  0  0  0  0  0  0  0  0  0  0
   -1.7544   14.6563   -4.6591 H   0  0  0  0  0  0  0  0  0  0  0  0
    0.7906   14.2774   -1.7556 H   0  0  0  0  0  0  0  0  0  0  0  0
    2.1123   14.0643   -2.9532 H   0  0  0  0  0  0  0  0  0  0  0  0
    1.1346   15.5712   -2.9532 H   0  0  0  0  0  0  0  0  0  0  0  0
   -1.4128   12.3861   -3.8940 H   0  0  0  0  0  0  0  0  0  0  0  0
   -1.7771   14.0101   -1.9272 H   0  0  0  0  0  0  0  0  0  0  0  0
   -2.2677   12.2400   -1.8038 H   0  0  0  0  0  0  0  0  0  0  0  0
   -1.1081   13.2797    0.3209 H   0  0  0  0  0  0  0  0  0  0  0  0
    1.9791   11.9746   -1.9296 H   0  0  0  0  0  0  0  0  0  0  0  0
    0.6656    9.3979   -0.8657 H   0  0  0  0  0  0  0  0  0  0  0  0
    2.1143    9.5140   -1.9603 H   0  0  0  0  0  0  0  0  0  0  0  0
    2.7464    9.0238    0.3809 H   0  0  0  0  0  0  0  0  0  0  0  0
    3.3893   10.6069   -0.2076 H   0  0  0  0  0  0  0  0  0  0  0  0
    2.5674   10.8914    2.0283 H   0  0  0  0  0  0  0  0  0  0  0  0
    0.5850   10.1620    2.6440 H   0  0  0  0  0  0  0  0  0  0  0  0
    2.9085   13.4414    1.6477 H   0  0  0  0  0  0  0  0  0  0  0  0
    3.2980   12.6058    0.1061 H   0  0  0  0  0  0  0  0  0  0  0  0
    2.1912   14.0206    0.1061 H   0  0  0  0  0  0  0  0  0  0  0  0
    1.0020   12.4017    3.0254 H   0  0  0  0  0  0  0  0  0  0  0  0
    0.5239   13.8415    2.0636 H   0  0  0  0  0  0  0  0  0  0  0  0
   -0.5148   12.3760    2.0636 H   0  0  0  0  0  0  0  0  0  0  0  0
   -0.9580    9.8715   -1.8259 H   0  0  0  0  0  0  0  0  0  0  0  0
   -1.6939   10.3903   -3.3803 H   0  0  0  0  0  0  0  0  0  0  0  0
   -0.3016    9.2553   -3.3803 H   0  0  0  0  0  0  0  0  0  0  0  0
    2.0044   10.4260   -3.8214 H   0  0  0  0  0  0  0  0  0  0  0  0
    0.5366   10.6124   -4.9372 H   0  0  0  0  0  0  0  0  0  0  0  0
    2.5596   12.7362   -4.1733 H   0  0  0  0  0  0  0  0  0  0  0  0
    2.2635   11.9904   -5.7928 H   0  0  0  0  0  0  0  0  0  0  0  0
   -1.0931   12.2408   -5.6103 H   0  0  0  0  0  0  0  0  0  0  0  0
   -0.7006   13.5342   -6.7934 H   0  0  0  0  0  0  0  0  0  0  0  0
    0.2373   12.0022   -6.7934 H   0  0  0  0  0  0  0  0  0  0  0  0
  1  2  1  0
  2  3  1  0
  3  4  1  0
  4  5  1  0
  5  6  1  0
  6  7  1  0
  7  8  1  0
  7  9  1  0
  2 10  1  0
 10 11  1  0
 11 12  1  0
 12 13  1  0
 13 14  1  1
 13 15  1  0
 15 16  1  0
 16 17  1  0
 17 18  2  0
 18 19  1  0
 19 20  1  0
 20 21  1  0
 21 22  1  0
 22 23  1  0
 22 24  1  0
 24 25  1  0
 24 26  1  0
 19 27  1  0
 27 28  1  1
 27 29  1  0
 29 30  1  0
 30 31  1  0
 31 32  1  6
  7  5  1  0
 31 10  1  0
 31 13  1  0
 27 15  1  0
 24 18  1  0
  1 33  1  0
  1 34  1  0
  1 35  1  0
  2 36  1  6
  3 37  1  0
  3 38  1  0
  4 39  1  0
  4 40  1  0
  5 41  1  6
  8 42  1  0
  8 43  1  0
  8 44  1  0
  9 45  1  0
  9 46  1  0
  9 47  1  0
 10 48  1  1
 11 49  1  0
 11 50  1  0
 12 51  1  0
 12 52  1  0
 14 53  1  0
 14 54  1  0
 14 55  1  0
 15 56  1  6
 16 57  1  0
 16 58  1  0
 17 59  1  0
 19 60  1  6
 20 61  1  0
 20 62  1  0
 21 63  1  0
 21 64  1  0
 22 65  1  1
 23 66  1  0
 25 67  1  0
 25 68  1  0
 25 69  1  0
 26 70  1  0
 26 71  1  0
 26 72  1  0
 28 73  1  0
 28 74  1  0
 28 75  1  0
 29 76  1  0
 29 77  1  0
 30 78  1  0
 30 79  1  0
 32 80  1  0
 32 81  1  0
 32 82  1  0
M  END
>  <meeko>  (16) 
{"is_sidechain": [false], "intermolecular_energy": 2.731, "internal_energy": -0.839}

$$$$
EPH_relaxed_0001_pdb2pqr_Repair_175_r2_0001_out
     RDKit          3D

 82 86  0  0  0  0  0  0  0  0999 V2000
   -0.5850   16.0410   -5.6040 C   0  0  0  0  0  0  0  0  0  0  0  0
    0.6280   15.3320   -6.2110 C   0  0  2  0  0  0  0  0  0  0  0  0
    0.5950   15.3430   -7.7530 C   0  0  0  0  0  0  0  0  0  0  0  0
    1.7480   16.1260   -8.3880 C   0  0  0  0  0  0  0  0  0  0  0  0
    1.6290   16.1750   -9.8810 C   0  0  2  0  0  0  0  0  0  0  0  0
    0.9770   15.0410  -10.4670 O   0  0  0  0  0  0  0  0  0  0  0  0
    2.3600   15.2240  -10.8100 C   0  0  0  0  0  0  0  0  0  0  0  0
    3.2650   14.1570  -10.2790 C   0  0  0  0  0  0  0  0  0  0  0  0
    2.5790   15.6390  -12.2310 C   0  0  0  0  0  0  0  0  0  0  0  0
    0.7010   13.8970   -5.7020 C   0  0  1  0  0  0  0  0  0  0  0  0
    2.0170   13.1840   -6.1110 C   0  0  0  0  0  0  0  0  0  0  0  0
    2.3960   12.2400   -4.9410 C   0  0  0  0  0  0  0  0  0  0  0  0
    1.1290   12.1890   -4.0550 C   0  0  1  0  0  0  0  0  0  0  0  0
    0.1920   11.1540   -4.7530 C   0  0  0  0  0  0  0  0  0  0  0  0
    1.3540   11.8390   -2.5480 C   0  0  2  0  0  0  0  0  0  0  0  0
    1.9470   10.4440   -2.2830 C   0  0  0  0  0  0  0  0  0  0  0  0
    0.9470    9.3510   -2.0970 C   0  0  0  0  0  0  0  0  0  0  0  0
   -0.3660    9.5250   -1.8580 C   0  0  0  0  0  0  0  0  0  0  0  0
   -0.9510   10.9290   -1.6540 C   0  0  1  0  0  0  0  0  0  0  0  0
   -1.8840   10.9260   -0.4150 C   0  0  0  0  0  0  0  0  0  0  0  0
   -2.9640    9.8510   -0.4990 C   0  0  0  0  0  0  0  0  0  0  0  0
   -2.3420    8.4640   -0.6420 C   0  0  2  0  0  0  0  0  0  0  0  0
   -1.6440    8.1450    0.5650 O   0  0  0  0  0  0  0  0  0  0  0  0
   -1.3740    8.3490   -1.8520 C   0  0  0  0  0  0  0  0  0  0  0  0
   -2.1820    8.3950   -3.1720 C   0  0  0  0  0  0  0  0  0  0  0  0
   -0.7090    6.9470   -1.8000 C   0  0  0  0  0  0  0  0  0  0  0  0
    0.1010   12.1200   -1.6230 C   0  0  1  0  0  0  0  0  0  0  0  0
    0.6490   12.3090   -0.1760 C   0  0  0  0  0  0  0  0  0  0  0  0
   -0.6310   13.4620   -1.9990 C   0  0  0  0  0  0  0  0  0  0  0  0
   -0.7160   13.8110   -3.4970 C   0  0  0  0  0  0  0  0  0  0  0  0
    0.6550   13.6840   -4.1690 C   0  0  2  0  0  0  0  0  0  0  0  0
    1.6130   14.7280   -3.5020 C   0  0  0  0  0  0  0  0  0  0  0  0
   -0.5205   16.0033   -4.5065 H   0  0  0  0  0  0  0  0  0  0  0  0
   -0.5999   17.0900   -5.9346 H   0  0  0  0  0  0  0  0  0  0  0  0
   -1.5064   15.5392   -5.9346 H   0  0  0  0  0  0  0  0  0  0  0  0
    1.5257   15.8839   -5.8955 H   0  0  0  0  0  0  0  0  0  0  0  0
    0.6438   14.3033   -8.1088 H   0  0  0  0  0  0  0  0  0  0  0  0
   -0.3372   15.8453   -8.0510 H   0  0  0  0  0  0  0  0  0  0  0  0
    1.7396   17.1537   -7.9958 H   0  0  0  0  0  0  0  0  0  0  0  0
    2.6891   15.6154   -8.1357 H   0  0  0  0  0  0  0  0  0  0  0  0
    1.5486   17.2719   -9.8622 H   0  0  0  0  0  0  0  0  0  0  0  0
    3.2487   14.1762   -9.1793 H   0  0  0  0  0  0  0  0  0  0  0  0
    2.9208   13.1743  -10.6337 H   0  0  0  0  0  0  0  0  0  0  0  0
    4.2907   14.3362  -10.6337 H   0  0  0  0  0  0  0  0  0  0  0  0
    3.0923   16.6116  -12.2540 H   0  0  0  0  0  0  0  0  0  0  0  0
    3.1972   14.8860  -12.7418 H   0  0  0  0  0  0  0  0  0  0  0  0
    1.6085   15.7244  -12.7418 H   0  0  0  0  0  0  0  0  0  0  0  0
   -0.2096   13.4901   -6.1659 H   0  0  0  0  0  0  0  0  0  0  0  0
    1.8625   12.6027   -7.0320 H   0  0  0  0  0  0  0  0  0  0  0  0
    2.8174   13.9130   -6.3057 H   0  0  0  0  0  0  0  0  0  0  0  0
    2.6477   11.2373   -5.3169 H   0  0  0  0  0  0  0  0  0  0  0  0
    3.2781   12.5947   -4.3877 H   0  0  0  0  0  0  0  0  0  0  0  0
   -0.3394   10.5671   -3.9893 H   0  0  0  0  0  0  0  0  0  0  0  0
   -0.5383   11.6856   -5.3808 H   0  0  0  0  0  0  0  0  0  0  0  0
    0.7933   10.4800   -5.3808 H   0  0  0  0  0  0  0  0  0  0  0  0
    2.1349   12.5558   -2.2539 H   0  0  0  0  0  0  0  0  0  0  0  0
    2.5860   10.1782   -3.1380 H   0  0  0  0  0  0  0  0  0  0  0  0
    2.4939   10.5214   -1.3317 H   0  0  0  0  0  0  0  0  0  0  0  0
    1.3144    8.3161   -2.1607 H   0  0  0  0  0  0  0  0  0  0  0  0
   -1.5345   11.1503   -2.5598 H   0  0  0  0  0  0  0  0  0  0  0  0
   -1.2761   10.7458    0.4839 H   0  0  0  0  0  0  0  0  0  0  0  0
   -2.3876   11.9031   -0.3736 H   0  0  0  0  0  0  0  0  0  0  0  0
   -3.5730    9.8800    0.4166 H   0  0  0  0  0  0  0  0  0  0  0  0
   -3.5889   10.0488   -1.3824 H   0  0  0  0  0  0  0  0  0  0  0  0
   -3.1605    7.7527   -0.8267 H   0  0  0  0  0  0  0  0  0  0  0  0
   -2.0810    8.6190    1.2920 H   0  0  0  0  0  0  0  0  0  0  0  0
   -3.2561    8.4561   -2.9425 H   0  0  0  0  0  0  0  0  0  0  0  0
   -1.8809    9.2775   -3.7556 H   0  0  0  0  0  0  0  0  0  0  0  0
   -1.9830    7.4841   -3.7556 H   0  0  0  0  0  0  0  0  0  0  0  0
   -0.5668    6.6473   -0.7512 H   0  0  0  0  0  0  0  0  0  0  0  0
   -1.3560    6.2153   -2.3060 H   0  0  0  0  0  0  0  0  0  0  0  0
    0.2670    6.9851   -2.3060 H   0  0  0  0  0  0  0  0  0  0  0  0
   -0.1322   12.0396    0.5500 H   0  0  0  0  0  0  0  0  0  0  0  0
    1.5258   11.6613   -0.0285 H   0  0  0  0  0  0  0  0  0  0  0  0
    0.9401   13.3595   -0.0285 H   0  0  0  0  0  0  0  0  0  0  0  0
   -1.6592   13.3996   -1.6130 H   0  0  0  0  0  0  0  0  0  0  0  0
   -0.0183   14.2589   -1.5523 H   0  0  0  0  0  0  0  0  0  0  0  0
   -1.4218   13.1241   -3.9869 H   0  0  0  0  0  0  0  0  0  0  0  0
   -1.0596   14.8513   -3.5955 H   0  0  0  0  0  0  0  0  0  0  0  0
    1.5387   14.6470   -2.4075 H   0  0  0  0  0  0  0  0  0  0  0  0
    2.6484   14.5279   -3.8150 H   0  0  0  0  0  0  0  0  0  0  0  0
    1.3249   15.7424   -3.8150 H   0  0  0  0  0  0  0  0  0  0  0  0
  1  2  1  0
  2  3  1  0
  3  4  1  0
  4  5  1  0
  5  6  1  0
  6  7  1  0
  7  8  1  0
  7  9  1  0
  2 10  1  0
 10 11  1  0
 11 12  1  0
 12 13  1  0
 13 14  1  6
 13 15  1  0
 15 16  1  0
 16 17  1  0
 17 18  2  0
 18 19  1  0
 19 20  1  0
 20 21  1  0
 21 22  1  0
 22 23  1  0
 22 24  1  0
 24 25  1  0
 24 26  1  0
 19 27  1  0
 27 28  1  1
 27 29  1  0
 29 30  1  0
 30 31  1  0
 31 32  1  1
  7  5  1  0
 31 10  1  0
 31 13  1  0
 27 15  1  0
 24 18  1  0
  1 33  1  0
  1 34  1  0
  1 35  1  0
  2 36  1  6
  3 37  1  0
  3 38  1  0
  4 39  1  0
  4 40  1  0
  5 41  1  6
  8 42  1  0
  8 43  1  0
  8 44  1  0
  9 45  1  0
  9 46  1  0
  9 47  1  0
 10 48  1  6
 11 49  1  0
 11 50  1  0
 12 51  1  0
 12 52  1  0
 14 53  1  0
 14 54  1  0
 14 55  1  0
 15 56  1  1
 16 57  1  0
 16 58  1  0
 17 59  1  0
 19 60  1  6
 20 61  1  0
 20 62  1  0
 21 63  1  0
 21 64  1  0
 22 65  1  6
 23 66  1  0
 25 67  1  0
 25 68  1  0
 25 69  1  0
 26 70  1  0
 26 71  1  0
 26 72  1  0
 28 73  1  0
 28 74  1  0
 28 75  1  0
 29 76  1  0
 29 77  1  0
 30 78  1  0
 30 79  1  0
 32 80  1  0
 32 81  1  0
 32 82  1  0
M  END
>  <meeko>  (17) 
{"is_sidechain": [false], "intermolecular_energy": 2.731, "internal_energy": -0.839}

$$$$
EPH_relaxed_0001_pdb2pqr_Repair_175_r2_0001_out
     RDKit          3D

 82 86  0  0  0  0  0  0  0  0999 V2000
  -13.7460    9.6090    1.4580 C   0  0  0  0  0  0  0  0  0  0  0  0
  -13.1520    9.3130    0.0780 C   0  0  2  0  0  0  0  0  0  0  0  0
  -14.1530    8.5850   -0.8410 C   0  0  0  0  0  0  0  0  0  0  0  0
  -15.2870    9.4800   -1.3470 C   0  0  0  0  0  0  0  0  0  0  0  0
  -15.1240    9.8150   -2.7990 C   0  0  2  0  0  0  0  0  0  0  0  0
  -13.8060   10.2390   -3.1710 O   0  0  0  0  0  0  0  0  0  0  0  0
  -14.8490   11.2180   -3.3080 C   0  0  0  0  0  0  0  0  0  0  0  0
  -14.7230   12.3770   -2.3700 C   0  0  0  0  0  0  0  0  0  0  0  0
  -15.1880   11.5420   -4.7290 C   0  0  0  0  0  0  0  0  0  0  0  0
  -11.8820    8.4840    0.2270 C   0  0  1  0  0  0  0  0  0  0  0  0
  -12.0730    7.2600    1.1620 C   0  0  0  0  0  0  0  0  0  0  0  0
  -11.1950    6.1180    0.5900 C   0  0  0  0  0  0  0  0  0  0  0  0
  -10.2810    6.8110   -0.4480 C   0  0  1  0  0  0  0  0  0  0  0  0
   -9.1290    7.4450    0.3930 C   0  0  0  0  0  0  0  0  0  0  0  0
   -9.7270    5.9050   -1.5950 C   0  0  2  0  0  0  0  0  0  0  0  0
   -8.8180    4.7520   -1.1340 C   0  0  0  0  0  0  0  0  0  0  0  0
   -7.3620    5.0760   -1.0680 C   0  0  0  0  0  0  0  0  0  0  0  0
   -6.7720    6.1460   -1.6330 C   0  0  0  0  0  0  0  0  0  0  0  0
   -7.5740    7.1150   -2.5110 C   0  0  1  0  0  0  0  0  0  0  0  0
   -6.7800    7.4150   -3.8100 C   0  0  0  0  0  0  0  0  0  0  0  0
   -5.3660    7.9150   -3.5290 C   0  0  0  0  0  0  0  0  0  0  0  0
   -4.5820    6.8990   -2.7030 C   0  0  2  0  0  0  0  0  0  0  0  0
   -4.3710    5.7260   -3.4950 O   0  0  0  0  0  0  0  0  0  0  0  0
   -5.2900    6.5120   -1.3740 C   0  0  0  0  0  0  0  0  0  0  0  0
   -5.2490    7.7110   -0.3950 C   0  0  0  0  0  0  0  0  0  0  0  0
   -4.4660    5.3780   -0.7070 C   0  0  0  0  0  0  0  0  0  0  0  0
   -9.0820    6.7040   -2.7990 C   0  0  1  0  0  0  0  0  0  0  0  0
   -9.1500    5.7670   -4.0430 C   0  0  0  0  0  0  0  0  0  0  0  0
   -9.9050    7.9950   -3.1690 C   0  0  0  0  0  0  0  0  0  0  0  0
  -10.5280    8.7810   -1.9990 C   0  0  0  0  0  0  0  0  0  0  0  0
  -11.2940    7.8470   -1.0580 C   0  0  2  0  0  0  0  0  0  0  0  0
  -12.4730    7.2110   -1.8700 C   0  0  0  0  0  0  0  0  0  0  0  0
  -13.0517    9.2630    2.2379 H   0  0  0  0  0  0  0  0  0  0  0  0
  -13.9059   10.6922    1.5637 H   0  0  0  0  0  0  0  0  0  0  0  0
  -14.7071    9.0844    1.5637 H   0  0  0  0  0  0  0  0  0  0  0  0
  -12.9131   10.2774   -0.3941 H   0  0  0  0  0  0  0  0  0  0  0  0
  -13.6048    8.1939   -1.7108 H   0  0  0  0  0  0  0  0  0  0  0  0
  -14.6162    7.7864   -0.2430 H   0  0  0  0  0  0  0  0  0  0  0  0
  -16.2440    8.9558   -1.2075 H   0  0  0  0  0  0  0  0  0  0  0  0
  -15.2642   10.4188   -0.7741 H   0  0  0  0  0  0  0  0  0  0  0  0
  -15.8738    9.0614   -3.0816 H   0  0  0  0  0  0  0  0  0  0  0  0
  -14.7624   12.0147   -1.3321 H   0  0  0  0  0  0  0  0  0  0  0  0
  -13.7641   12.8871   -2.5442 H   0  0  0  0  0  0  0  0  0  0  0  0
  -15.5499   13.0812   -2.5442 H   0  0  0  0  0  0  0  0  0  0  0  0
  -15.9830   12.3019   -4.7522 H   0  0  0  0  0  0  0  0  0  0  0  0
  -14.2945   11.9304   -5.2397 H   0  0  0  0  0  0  0  0  0  0  0  0
  -15.5356   10.6319   -5.2397 H   0  0  0  0  0  0  0  0  0  0  0  0
  -11.2006    9.2580    0.6099 H   0  0  0  0  0  0  0  0  0  0  0  0
  -11.7507    7.5100    2.1836 H   0  0  0  0  0  0  0  0  0  0  0  0
  -13.1302    6.9597    1.2080 H   0  0  0  0  0  0  0  0  0  0  0  0
  -10.5953    5.6531    1.3864 H   0  0  0  0  0  0  0  0  0  0  0  0
  -11.7969    5.3125    0.1440 H   0  0  0  0  0  0  0  0  0  0  0  0
   -9.3479    7.3245    1.4642 H   0  0  0  0  0  0  0  0  0  0  0  0
   -8.1806    6.9418    0.1537 H   0  0  0  0  0  0  0  0  0  0  0  0
   -9.0467    8.5155    0.1537 H   0  0  0  0  0  0  0  0  0  0  0  0
  -10.6404    5.4293   -1.9816 H   0  0  0  0  0  0  0  0  0  0  0  0
   -9.1435    4.4431   -0.1297 H   0  0  0  0  0  0  0  0  0  0  0  0
   -8.9202    3.9617   -1.8923 H   0  0  0  0  0  0  0  0  0  0  0  0
   -6.7166    4.3814   -0.5103 H   0  0  0  0  0  0  0  0  0  0  0  0
   -7.6873    8.0366   -1.9213 H   0  0  0  0  0  0  0  0  0  0  0  0
   -6.7159    6.4922   -4.4052 H   0  0  0  0  0  0  0  0  0  0  0  0
   -7.3138    8.2098   -4.3516 H   0  0  0  0  0  0  0  0  0  0  0  0
   -4.8462    8.0802   -4.4842 H   0  0  0  0  0  0  0  0  0  0  0  0
   -5.4324    8.8539   -2.9597 H   0  0  0  0  0  0  0  0  0  0  0  0
   -3.6266    7.3675   -2.4241 H   0  0  0  0  0  0  0  0  0  0  0  0
   -5.2430    5.3450   -3.6950 H   0  0  0  0  0  0  0  0  0  0  0  0
   -5.2617    7.3396    0.6403 H   0  0  0  0  0  0  0  0  0  0  0  0
   -4.3305    8.2919   -0.5649 H   0  0  0  0  0  0  0  0  0  0  0  0
   -6.1257    8.3533   -0.5649 H   0  0  0  0  0  0  0  0  0  0  0  0
   -4.5333    5.4706    0.3870 H   0  0  0  0  0  0  0  0  0  0  0  0
   -4.8670    4.4019   -1.0177 H   0  0  0  0  0  0  0  0  0  0  0  0
   -3.4138    5.4579   -1.0177 H   0  0  0  0  0  0  0  0  0  0  0  0
   -9.2259    4.7212   -3.7106 H   0  0  0  0  0  0  0  0  0  0  0  0
  -10.0318    6.0243   -4.6481 H   0  0  0  0  0  0  0  0  0  0  0  0
   -8.2403    5.8943   -4.6481 H   0  0  0  0  0  0  0  0  0  0  0  0
   -9.2299    8.6774   -3.7062 H   0  0  0  0  0  0  0  0  0  0  0  0
  -10.7594    7.6323   -3.7593 H   0  0  0  0  0  0  0  0  0  0  0  0
   -9.7273    9.2822   -1.4354 H   0  0  0  0  0  0  0  0  0  0  0  0
  -11.2316    9.5208   -2.4085 H   0  0  0  0  0  0  0  0  0  0  0  0
  -13.2221    6.8069   -1.1732 H   0  0  0  0  0  0  0  0  0  0  0  0
  -12.9388    7.9802   -2.5035 H   0  0  0  0  0  0  0  0  0  0  0  0
  -12.0860    6.3993   -2.5035 H   0  0  0  0  0  0  0  0  0  0  0  0
  1  2  1  0
  2  3  1  0
  3  4  1  0
  4  5  1  0
  5  6  1  0
  6  7  1  0
  7  8  1  0
  7  9  1  0
  2 10  1  0
 10 11  1  0
 11 12  1  0
 12 13  1  0
 13 14  1  1
 13 15  1  0
 15 16  1  0
 16 17  1  0
 17 18  2  0
 18 19  1  0
 19 20  1  0
 20 21  1  0
 21 22  1  0
 22 23  1  0
 22 24  1  0
 24 25  1  0
 24 26  1  0
 19 27  1  0
 27 28  1  6
 27 29  1  0
 29 30  1  0
 30 31  1  0
 31 32  1  6
  7  5  1  0
 31 10  1  0
 31 13  1  0
 27 15  1  0
 24 18  1  0
  1 33  1  0
  1 34  1  0
  1 35  1  0
  2 36  1  6
  3 37  1  0
  3 38  1  0
  4 39  1  0
  4 40  1  0
  5 41  1  6
  8 42  1  0
  8 43  1  0
  8 44  1  0
  9 45  1  0
  9 46  1  0
  9 47  1  0
 10 48  1  1
 11 49  1  0
 11 50  1  0
 12 51  1  0
 12 52  1  0
 14 53  1  0
 14 54  1  0
 14 55  1  0
 15 56  1  6
 16 57  1  0
 16 58  1  0
 17 59  1  0
 19 60  1  1
 20 61  1  0
 20 62  1  0
 21 63  1  0
 21 64  1  0
 22 65  1  1
 23 66  1  0
 25 67  1  0
 25 68  1  0
 25 69  1  0
 26 70  1  0
 26 71  1  0
 26 72  1  0
 28 73  1  0
 28 74  1  0
 28 75  1  0
 29 76  1  0
 29 77  1  0
 30 78  1  0
 30 79  1  0
 32 80  1  0
 32 81  1  0
 32 82  1  0
M  END
>  <meeko>  (18) 
{"is_sidechain": [false], "intermolecular_energy": 2.731, "internal_energy": -0.839}

$$$$
EPH_relaxed_0001_pdb2pqr_Repair_175_r2_0001_out
     RDKit          3D

 82 86  0  0  0  0  0  0  0  0999 V2000
    1.9430   18.5320   -2.2450 C   0  0  0  0  0  0  0  0  0  0  0  0
    2.2310   17.2500   -3.0320 C   0  0  2  0  0  0  0  0  0  0  0  0
    1.2240   17.0360   -4.1800 C   0  0  0  0  0  0  0  0  0  0  0  0
    1.6590   15.9700   -5.1890 C   0  0  0  0  0  0  0  0  0  0  0  0
    0.6330   15.7720   -6.2630 C   0  0  2  0  0  0  0  0  0  0  0  0
    0.6200   14.4610   -6.8450 O   0  0  0  0  0  0  0  0  0  0  0  0
    0.9820   15.5410   -7.7220 C   0  0  0  0  0  0  0  0  0  0  0  0
    2.4040   15.4970   -8.1860 C   0  0  0  0  0  0  0  0  0  0  0  0
   -0.0510   15.8450   -8.7620 C   0  0  0  0  0  0  0  0  0  0  0  0
    2.2150   16.0490   -2.0930 C   0  0  1  0  0  0  0  0  0  0  0  0
    2.4640   16.4440   -0.6130 C   0  0  0  0  0  0  0  0  0  0  0  0
    1.6070   15.4880    0.2550 C   0  0  0  0  0  0  0  0  0  0  0  0
    1.1590   14.3730   -0.7190 C   0  0  1  0  0  0  0  0  0  0  0  0
    2.3790   13.4030   -0.8070 C   0  0  0  0  0  0  0  0  0  0  0  0
   -0.1550   13.6140   -0.3420 C   0  0  2  0  0  0  0  0  0  0  0  0
   -0.1020   12.8340    0.9830 C   0  0  0  0  0  0  0  0  0  0  0  0
    0.3520   11.4170    0.8710 C   0  0  0  0  0  0  0  0  0  0  0  0
    0.4300   10.7080   -0.2710 C   0  0  0  0  0  0  0  0  0  0  0  0
   -0.0530   11.3020   -1.6010 C   0  0  1  0  0  0  0  0  0  0  0  0
   -0.9260   10.2590   -2.3460 C   0  0  0  0  0  0  0  0  0  0  0  0
   -0.2130    8.9220   -2.5290 C   0  0  0  0  0  0  0  0  0  0  0  0
    0.2000    8.3360   -1.1810 C   0  0  2  0  0  0  0  0  0  0  0  0
   -0.9790    7.9890   -0.4480 O   0  0  0  0  0  0  0  0  0  0  0  0
    1.0760    9.3020   -0.3360 C   0  0  0  0  0  0  0  0  0  0  0  0
    2.4750    9.4400   -0.9850 C   0  0  0  0  0  0  0  0  0  0  0  0
    1.3050    8.6470    1.0530 C   0  0  0  0  0  0  0  0  0  0  0  0
   -0.7490   12.7280   -1.5110 C   0  0  1  0  0  0  0  0  0  0  0  0
   -2.2710   12.5590   -1.2130 C   0  0  0  0  0  0  0  0  0  0  0  0
   -0.6470   13.4390   -2.9120 C   0  0  0  0  0  0  0  0  0  0  0  0
    0.6210   14.2710   -3.1780 C   0  0  0  0  0  0  0  0  0  0  0  0
    0.9050   15.2260   -2.0140 C   0  0  2  0  0  0  0  0  0  0  0  0
   -0.2960   16.2280   -1.9150 C   0  0  0  0  0  0  0  0  0  0  0  0
    1.9909   18.3190   -1.1669 H   0  0  0  0  0  0  0  0  0  0  0  0
    2.6920   19.2957   -2.5014 H   0  0  0  0  0  0  0  0  0  0  0  0
    0.9393   18.9020   -2.5014 H   0  0  0  0  0  0  0  0  0  0  0  0
    3.2286   17.3549   -3.4833 H   0  0  0  0  0  0  0  0  0  0  0  0
    0.2611   16.7301   -3.7449 H   0  0  0  0  0  0  0  0  0  0  0  0
    1.1536   17.9874   -4.7276 H   0  0  0  0  0  0  0  0  0  0  0  0
    2.6054   16.2840   -5.6536 H   0  0  0  0  0  0  0  0  0  0  0  0
    1.7806   15.0181   -4.6512 H   0  0  0  0  0  0  0  0  0  0  0  0
   -0.0519   16.4784   -5.7712 H   0  0  0  0  0  0  0  0  0  0  0  0
    3.0738   15.4763   -7.3137 H   0  0  0  0  0  0  0  0  0  0  0  0
    2.5639   14.5935   -8.7927 H   0  0  0  0  0  0  0  0  0  0  0  0
    2.6195   16.3889   -8.7927 H   0  0  0  0  0  0  0  0  0  0  0  0
   -0.9952   16.1229   -8.2708 H   0  0  0  0  0  0  0  0  0  0  0  0
    0.2951   16.6794   -9.3897 H   0  0  0  0  0  0  0  0  0  0  0  0
   -0.2120   14.9561   -9.3897 H   0  0  0  0  0  0  0  0  0  0  0  0
    3.0119   15.4455   -2.5521 H   0  0  0  0  0  0  0  0  0  0  0  0
    3.5293   16.3289   -0.3643 H   0  0  0  0  0  0  0  0  0  0  0  0
    2.1896   17.4939   -0.4328 H   0  0  0  0  0  0  0  0  0  0  0  0
    2.2055   15.0683    1.0770 H   0  0  0  0  0  0  0  0  0  0  0  0
    0.7538   16.0011    0.7226 H   0  0  0  0  0  0  0  0  0  0  0  0
    2.7113   13.1388    0.2078 H   0  0  0  0  0  0  0  0  0  0  0  0
    2.0837   12.4903   -1.3454 H   0  0  0  0  0  0  0  0  0  0  0  0
    3.2016   13.8964   -1.3454 H   0  0  0  0  0  0  0  0  0  0  0  0
   -0.8634   14.4386   -0.1739 H   0  0  0  0  0  0  0  0  0  0  0  0
    0.5882   13.3595    1.6594 H   0  0  0  0  0  0  0  0  0  0  0  0
   -1.1368   12.7935    1.3537 H   0  0  0  0  0  0  0  0  0  0  0  0
    0.6481   10.9084    1.8003 H   0  0  0  0  0  0  0  0  0  0  0  0
    0.8534   11.5165   -2.1861 H   0  0  0  0  0  0  0  0  0  0  0  0
   -1.8462   10.0915   -1.7670 H   0  0  0  0  0  0  0  0  0  0  0  0
   -1.1444   10.6604   -3.3466 H   0  0  0  0  0  0  0  0  0  0  0  0
   -0.8907    8.2187   -3.0350 H   0  0  0  0  0  0  0  0  0  0  0  0
    0.6916    9.0858   -3.1331 H   0  0  0  0  0  0  0  0  0  0  0  0
    0.8175    7.4482   -1.3824 H   0  0  0  0  0  0  0  0  0  0  0  0
   -1.1800    8.7270    0.1520 H   0  0  0  0  0  0  0  0  0  0  0  0
    3.2389    9.5154   -0.1971 H   0  0  0  0  0  0  0  0  0  0  0  0
    2.6782    8.5575   -1.6095 H   0  0  0  0  0  0  0  0  0  0  0  0
    2.5018   10.3452   -1.6095 H   0  0  0  0  0  0  0  0  0  0  0  0
    1.0529    9.3681    1.8445 H   0  0  0  0  0  0  0  0  0  0  0  0
    0.6644    7.7580    1.1493 H   0  0  0  0  0  0  0  0  0  0  0  0
    2.3600    8.3508    1.1493 H   0  0  0  0  0  0  0  0  0  0  0  0
   -2.4318   12.5411   -0.1250 H   0  0  0  0  0  0  0  0  0  0  0  0
   -2.8263   13.4010   -1.6520 H   0  0  0  0  0  0  0  0  0  0  0  0
   -2.6280   11.6157   -1.6520 H   0  0  0  0  0  0  0  0  0  0  0  0
   -0.7015   12.6590   -3.6857 H   0  0  0  0  0  0  0  0  0  0  0  0
   -1.4748   14.1632   -2.9280 H   0  0  0  0  0  0  0  0  0  0  0  0
    1.4772   13.5919   -3.3033 H   0  0  0  0  0  0  0  0  0  0  0  0
    0.4648   14.8663   -4.0897 H   0  0  0  0  0  0  0  0  0  0  0  0
   -0.5267   16.4205   -0.8568 H   0  0  0  0  0  0  0  0  0  0  0  0
   -0.0268   17.1731   -2.4093 H   0  0  0  0  0  0  0  0  0  0  0  0
   -1.1775   15.7938   -2.4093 H   0  0  0  0  0  0  0  0  0  0  0  0
  1  2  1  0
  2  3  1  0
  3  4  1  0
  4  5  1  0
  5  6  1  0
  6  7  1  0
  7  8  1  0
  7  9  1  0
  2 10  1  0
 10 11  1  0
 11 12  1  0
 12 13  1  0
 13 14  1  6
 13 15  1  0
 15 16  1  0
 16 17  1  0
 17 18  2  0
 18 19  1  0
 19 20  1  0
 20 21  1  0
 21 22  1  0
 22 23  1  0
 22 24  1  0
 24 25  1  0
 24 26  1  0
 19 27  1  0
 27 28  1  1
 27 29  1  0
 29 30  1  0
 30 31  1  0
 31 32  1  1
  7  5  1  0
 31 10  1  0
 31 13  1  0
 27 15  1  0
 24 18  1  0
  1 33  1  0
  1 34  1  0
  1 35  1  0
  2 36  1  6
  3 37  1  0
  3 38  1  0
  4 39  1  0
  4 40  1  0
  5 41  1  6
  8 42  1  0
  8 43  1  0
  8 44  1  0
  9 45  1  0
  9 46  1  0
  9 47  1  0
 10 48  1  6
 11 49  1  0
 11 50  1  0
 12 51  1  0
 12 52  1  0
 14 53  1  0
 14 54  1  0
 14 55  1  0
 15 56  1  1
 16 57  1  0
 16 58  1  0
 17 59  1  0
 19 60  1  6
 20 61  1  0
 20 62  1  0
 21 63  1  0
 21 64  1  0
 22 65  1  6
 23 66  1  0
 25 67  1  0
 25 68  1  0
 25 69  1  0
 26 70  1  0
 26 71  1  0
 26 72  1  0
 28 73  1  0
 28 74  1  0
 28 75  1  0
 29 76  1  0
 29 77  1  0
 30 78  1  0
 30 79  1  0
 32 80  1  0
 32 81  1  0
 32 82  1  0
M  END
>  <meeko>  (19) 
{"is_sidechain": [false], "intermolecular_energy": 2.731, "internal_energy": -0.839}

$$$$
EPH_relaxed_0001_pdb2pqr_Repair_175_r2_0001_out
     RDKit          3D

 82 86  0  0  0  0  0  0  0  0999 V2000
   -8.0200    7.8720   -3.2320 C   0  0  0  0  0  0  0  0  0  0  0  0
   -7.2790    7.2400   -2.0510 C   0  0  2  0  0  0  0  0  0  0  0  0
   -8.2400    6.8090   -0.9260 C   0  0  0  0  0  0  0  0  0  0  0  0
   -9.7190    6.9010   -1.3110 C   0  0  0  0  0  0  0  0  0  0  0  0
  -10.5410    7.5050   -0.2130 C   0  0  2  0  0  0  0  0  0  0  0  0
  -11.4800    6.6080    0.3950 O   0  0  0  0  0  0  0  0  0  0  0  0
  -12.0390    7.7250   -0.3130 C   0  0  0  0  0  0  0  0  0  0  0  0
  -12.8030    7.3450   -1.5430 C   0  0  0  0  0  0  0  0  0  0  0  0
  -12.6740    8.7480    0.5780 C   0  0  0  0  0  0  0  0  0  0  0  0
   -6.2430    8.2160   -1.5050 C   0  0  1  0  0  0  0  0  0  0  0  0
   -6.4230    8.4920    0.0110 C   0  0  0  0  0  0  0  0  0  0  0  0
   -5.0030    8.6800    0.6030 C   0  0  0  0  0  0  0  0  0  0  0  0
   -4.0830    8.8360   -0.6300 C   0  0  1  0  0  0  0  0  0  0  0  0
   -4.2380   10.3290   -1.0600 C   0  0  0  0  0  0  0  0  0  0  0  0
   -2.5820    8.4470   -0.4270 C   0  0  2  0  0  0  0  0  0  0  0  0
   -1.8220    9.2950    0.6070 C   0  0  0  0  0  0  0  0  0  0  0  0
   -1.1430   10.5080    0.0630 C   0  0  0  0  0  0  0  0  0  0  0  0
   -0.9010   10.7500   -1.2390 C   0  0  0  0  0  0  0  0  0  0  0  0
   -1.2370    9.7050   -2.3110 C   0  0  1  0  0  0  0  0  0  0  0  0
   -0.0380    9.5590   -3.2840 C   0  0  0  0  0  0  0  0  0  0  0  0
    0.3940   10.8920   -3.8850 C   0  0  0  0  0  0  0  0  0  0  0  0
    0.7760   11.8850   -2.7910 C   0  0  2  0  0  0  0  0  0  0  0  0
    1.9570   11.4150   -2.1330 O   0  0  0  0  0  0  0  0  0  0  0  0
   -0.3520   12.1070   -1.7440 C   0  0  0  0  0  0  0  0  0  0  0  0
   -1.5180   12.8920   -2.3940 C   0  0  0  0  0  0  0  0  0  0  0  0
    0.2120   13.0190   -0.6210 C   0  0  0  0  0  0  0  0  0  0  0  0
   -1.7620    8.3050   -1.7730 C   0  0  1  0  0  0  0  0  0  0  0  0
   -0.5550    7.3680   -1.4620 C   0  0  0  0  0  0  0  0  0  0  0  0
   -2.5920    7.5970   -2.9080 C   0  0  0  0  0  0  0  0  0  0  0  0
   -4.0940    7.9320   -2.9820 C   0  0  0  0  0  0  0  0  0  0  0  0
   -4.7530    7.8010   -1.6050 C   0  0  2  0  0  0  0  0  0  0  0  0
   -4.6320    6.3050   -1.1570 C   0  0  0  0  0  0  0  0  0  0  0  0
   -8.8063    8.5426   -2.8551 H   0  0  0  0  0  0  0  0  0  0  0  0
   -7.3103    8.4471   -3.8448 H   0  0  0  0  0  0  0  0  0  0  0  0
   -8.4759    7.0804   -3.8448 H   0  0  0  0  0  0  0  0  0  0  0  0
   -6.7775    6.3340   -2.4220 H   0  0  0  0  0  0  0  0  0  0  0  0
   -8.0152    5.7662   -0.6578 H   0  0  0  0  0  0  0  0  0  0  0  0
   -8.0828    7.5016   -0.0860 H   0  0  0  0  0  0  0  0  0  0  0  0
   -9.8147    7.5245   -2.2122 H   0  0  0  0  0  0  0  0  0  0  0  0
  -10.0893    5.8818   -1.4957 H   0  0  0  0  0  0  0  0  0  0  0  0
   -9.7142    8.1730    0.0701 H   0  0  0  0  0  0  0  0  0  0  0  0
  -13.7531    6.8724   -1.2531 H   0  0  0  0  0  0  0  0  0  0  0  0
  -13.0086    8.2458   -2.1398 H   0  0  0  0  0  0  0  0  0  0  0  0
  -12.2087    6.6375   -2.1398 H   0  0  0  0  0  0  0  0  0  0  0  0
  -12.5041    8.4743    1.6298 H   0  0  0  0  0  0  0  0  0  0  0  0
  -12.2290    9.7342    0.3793 H   0  0  0  0  0  0  0  0  0  0  0  0
  -13.7552    8.7868    0.3793 H   0  0  0  0  0  0  0  0  0  0  0  0
   -6.4387    9.0780   -2.1597 H   0  0  0  0  0  0  0  0  0  0  0  0
   -7.0200    9.4035    0.1618 H   0  0  0  0  0  0  0  0  0  0  0  0
   -6.9496    7.6615    0.5038 H   0  0  0  0  0  0  0  0  0  0  0  0
   -4.9617    9.5797    1.2345 H   0  0  0  0  0  0  0  0  0  0  0  0
   -4.7032    7.8370    1.2428 H   0  0  0  0  0  0  0  0  0  0  0  0
   -4.3039   10.9637   -0.1640 H   0  0  0  0  0  0  0  0  0  0  0  0
   -3.3663   10.6303   -1.6595 H   0  0  0  0  0  0  0  0  0  0  0  0
   -5.1530   10.4448   -1.6595 H   0  0  0  0  0  0  0  0  0  0  0  0
   -2.6563    7.4402    0.0097 H   0  0  0  0  0  0  0  0  0  0  0  0
   -2.5411    9.6226    1.3722 H   0  0  0  0  0  0  0  0  0  0  0  0
   -1.0225    8.6500    1.0004 H   0  0  0  0  0  0  0  0  0  0  0  0
   -0.8127   11.2678    0.7866 H   0  0  0  0  0  0  0  0  0  0  0  0
   -2.1117   10.0938   -2.8529 H   0  0  0  0  0  0  0  0  0  0  0  0
    0.8118    9.1284   -2.7340 H   0  0  0  0  0  0  0  0  0  0  0  0
   -0.3571    8.9080   -4.1112 H   0  0  0  0  0  0  0  0  0  0  0  0
    1.2618   10.7270   -4.5405 H   0  0  0  0  0  0  0  0  0  0  0  0
   -0.4475   11.3078   -4.4585 H   0  0  0  0  0  0  0  0  0  0  0  0
    0.9511   12.8572   -3.2748 H   0  0  0  0  0  0  0  0  0  0  0  0
    2.1920   10.5590   -2.5280 H   0  0  0  0  0  0  0  0  0  0  0  0
   -2.1552   13.3210   -1.6066 H   0  0  0  0  0  0  0  0  0  0  0  0
   -1.1119   13.7013   -3.0186 H   0  0  0  0  0  0  0  0  0  0  0  0
   -2.1151   12.2113   -3.0186 H   0  0  0  0  0  0  0  0  0  0  0  0
   -0.0493   12.5964    0.3604 H   0  0  0  0  0  0  0  0  0  0  0  0
    1.3063   13.0809   -0.7139 H   0  0  0  0  0  0  0  0  0  0  0  0
   -0.2214   14.0257   -0.7139 H   0  0  0  0  0  0  0  0  0  0  0  0
   -0.4346    7.2745   -0.3726 H   0  0  0  0  0  0  0  0  0  0  0  0
   -0.7402    6.3748   -1.8970 H   0  0  0  0  0  0  0  0  0  0  0  0
    0.3613    7.7937   -1.8970 H   0  0  0  0  0  0  0  0  0  0  0  0
   -2.1412    7.8744   -3.8723 H   0  0  0  0  0  0  0  0  0  0  0  0
   -2.5478    6.5239   -2.6703 H   0  0  0  0  0  0  0  0  0  0  0  0
   -4.2152    8.9642   -3.3423 H   0  0  0  0  0  0  0  0  0  0  0  0
   -4.5779    7.2245   -3.6714 H   0  0  0  0  0  0  0  0  0  0  0  0
   -4.6276    6.2505   -0.0584 H   0  0  0  0  0  0  0  0  0  0  0  0
   -5.4869    5.7346   -1.5490 H   0  0  0  0  0  0  0  0  0  0  0  0
   -3.6965    5.8794   -1.5490 H   0  0  0  0  0  0  0  0  0  0  0  0
  1  2  1  0
  2  3  1  0
  3  4  1  0
  4  5  1  0
  5  6  1  0
  6  7  1  0
  7  8  1  0
  7  9  1  0
  2 10  1  0
 10 11  1  0
 11 12  1  0
 12 13  1  0
 13 14  1  6
 13 15  1  0
 15 16  1  0
 16 17  1  0
 17 18  2  0
 18 19  1  0
 19 20  1  0
 20 21  1  0
 21 22  1  0
 22 23  1  0
 22 24  1  0
 24 25  1  0
 24 26  1  0
 19 27  1  0
 27 28  1  1
 27 29  1  0
 29 30  1  0
 30 31  1  0
 31 32  1  1
  7  5  1  0
 31 10  1  0
 31 13  1  0
 27 15  1  0
 24 18  1  0
  1 33  1  0
  1 34  1  0
  1 35  1  0
  2 36  1  6
  3 37  1  0
  3 38  1  0
  4 39  1  0
  4 40  1  0
  5 41  1  1
  8 42  1  0
  8 43  1  0
  8 44  1  0
  9 45  1  0
  9 46  1  0
  9 47  1  0
 10 48  1  6
 11 49  1  0
 11 50  1  0
 12 51  1  0
 12 52  1  0
 14 53  1  0
 14 54  1  0
 14 55  1  0
 15 56  1  1
 16 57  1  0
 16 58  1  0
 17 59  1  0
 19 60  1  6
 20 61  1  0
 20 62  1  0
 21 63  1  0
 21 64  1  0
 22 65  1  6
 23 66  1  0
 25 67  1  0
 25 68  1  0
 25 69  1  0
 26 70  1  0
 26 71  1  0
 26 72  1  0
 28 73  1  0
 28 74  1  0
 28 75  1  0
 29 76  1  0
 29 77  1  0
 30 78  1  0
 30 79  1  0
 32 80  1  0
 32 81  1  0
 32 82  1  0
M  END
>  <meeko>  (20) 
{"is_sidechain": [false], "intermolecular_energy": 2.731, "internal_energy": -0.839}

$$$$
