EPH_relaxed_0001_pdb2pqr_Repair_413_r2_0001_out
     RDKit          3D

 82 86  0  0  0  0  0  0  0  0999 V2000
   -1.7290    8.6350   -1.8330 C   0  0  0  0  0  0  0  0  0  0  0  0
   -2.1550    9.1540   -0.4570 C   0  0  2  0  0  0  0  0  0  0  0  0
   -3.6600    9.4840   -0.4010 C   0  0  0  0  0  0  0  0  0  0  0  0
   -4.5560    8.2510   -0.2580 C   0  0  0  0  0  0  0  0  0  0  0  0
   -5.2430    7.9110   -1.5460 C   0  0  2  0  0  0  0  0  0  0  0  0
   -6.3850    8.7240   -1.8480 O   0  0  0  0  0  0  0  0  0  0  0  0
   -6.6420    7.3290   -1.6200 C   0  0  0  0  0  0  0  0  0  0  0  0
   -7.4380    7.0500   -0.3830 C   0  0  0  0  0  0  0  0  0  0  0  0
   -7.0410    6.5800   -2.8530 C   0  0  0  0  0  0  0  0  0  0  0  0
   -1.3380   10.3870   -0.0900 C   0  0  1  0  0  0  0  0  0  0  0  0
   -0.3930   10.1400    1.1170 C   0  0  0  0  0  0  0  0  0  0  0  0
    0.8900   10.9700    0.8570 C   0  0  0  0  0  0  0  0  0  0  0  0
    0.5130   11.9170   -0.3060 C   0  0  1  0  0  0  0  0  0  0  0  0
   -0.2630   13.0920    0.3670 C   0  0  0  0  0  0  0  0  0  0  0  0
    1.6970   12.4360   -1.1850 C   0  0  2  0  0  0  0  0  0  0  0  0
    2.7350   13.2940   -0.4410 C   0  0  0  0  0  0  0  0  0  0  0  0
    2.4640   14.7620   -0.4360 C   0  0  0  0  0  0  0  0  0  0  0  0
    1.5920   15.3990   -1.2400 C   0  0  0  0  0  0  0  0  0  0  0  0
    0.8390   14.6420   -2.3420 C   0  0  1  0  0  0  0  0  0  0  0  0
    0.9030   15.4530   -3.6630 C   0  0  0  0  0  0  0  0  0  0  0  0
    0.4070   16.8860   -3.4950 C   0  0  0  0  0  0  0  0  0  0  0  0
    1.2170   17.6230   -2.4320 C   0  0  2  0  0  0  0  0  0  0  0  0
    2.5580   17.7870   -2.9060 O   0  0  0  0  0  0  0  0  0  0  0  0
    1.2340   16.8950   -1.0590 C   0  0  0  0  0  0  0  0  0  0  0  0
   -0.1680   16.9830   -0.4060 C   0  0  0  0  0  0  0  0  0  0  0  0
    2.1990   17.6670   -0.1200 C   0  0  0  0  0  0  0  0  0  0  0  0
    1.2480   13.1190   -2.5400 C   0  0  1  0  0  0  0  0  0  0  0  0
    2.4600   13.0160   -3.5150 C   0  0  0  0  0  0  0  0  0  0  0  0
    0.0570   12.3540   -3.2300 C   0  0  0  0  0  0  0  0  0  0  0  0
   -1.0190   11.7600   -2.3000 C   0  0  0  0  0  0  0  0  0  0  0  0
   -0.3790   10.9510   -1.1680 C   0  0  2  0  0  0  0  0  0  0  0  0
    0.3900    9.7490   -1.8140 C   0  0  0  0  0  0  0  0  0  0  0  0
   -1.0356    7.7903   -1.7077 H   0  0  0  0  0  0  0  0  0  0  0  0
   -2.6169    8.3011   -2.3899 H   0  0  0  0  0  0  0  0  0  0  0  0
   -1.2284    9.4408   -2.3899 H   0  0  0  0  0  0  0  0  0  0  0  0
   -1.9653    8.3520    0.2716 H   0  0  0  0  0  0  0  0  0  0  0  0
   -3.8387   10.1448    0.4601 H   0  0  0  0  0  0  0  0  0  0  0  0
   -3.9201    9.9609   -1.3575 H   0  0  0  0  0  0  0  0  0  0  0  0
   -3.9380    7.3957    0.0527 H   0  0  0  0  0  0  0  0  0  0  0  0
   -5.3279    8.4740    0.4933 H   0  0  0  0  0  0  0  0  0  0  0  0
   -4.2901    7.6009   -1.9996 H   0  0  0  0  0  0  0  0  0  0  0  0
   -6.8243    7.2651    0.5042 H   0  0  0  0  0  0  0  0  0  0  0  0
   -8.3343    7.6876   -0.3722 H   0  0  0  0  0  0  0  0  0  0  0  0
   -7.7402    5.9924   -0.3722 H   0  0  0  0  0  0  0  0  0  0  0  0
   -7.5404    5.6425   -2.5670 H   0  0  0  0  0  0  0  0  0  0  0  0
   -7.7306    7.1958   -3.4490 H   0  0  0  0  0  0  0  0  0  0  0  0
   -6.1452    6.3512   -3.4490 H   0  0  0  0  0  0  0  0  0  0  0  0
   -2.1543   11.1000    0.0981 H   0  0  0  0  0  0  0  0  0  0  0  0
   -0.8750   10.4696    2.0492 H   0  0  0  0  0  0  0  0  0  0  0  0
   -0.1573    9.0707    1.2220 H   0  0  0  0  0  0  0  0  0  0  0  0
    1.1680   11.5458    1.7521 H   0  0  0  0  0  0  0  0  0  0  0  0
    1.7553   10.3355    0.6146 H   0  0  0  0  0  0  0  0  0  0  0  0
   -0.1989   12.9949    1.4608 H   0  0  0  0  0  0  0  0  0  0  0  0
    0.1809   14.0496    0.0573 H   0  0  0  0  0  0  0  0  0  0  0  0
   -1.3180   13.0597    0.0573 H   0  0  0  0  0  0  0  0  0  0  0  0
    2.2164   11.5043   -1.4537 H   0  0  0  0  0  0  0  0  0  0  0  0
    2.7726   12.9519    0.6038 H   0  0  0  0  0  0  0  0  0  0  0  0
    3.6832   13.1617   -0.9826 H   0  0  0  0  0  0  0  0  0  0  0  0
    3.0241   15.3750    0.2855 H   0  0  0  0  0  0  0  0  0  0  0  0
   -0.2041   14.5656   -2.0012 H   0  0  0  0  0  0  0  0  0  0  0  0
    1.9465   15.4796   -4.0101 H   0  0  0  0  0  0  0  0  0  0  0  0
    0.2461   14.9558   -4.3919 H   0  0  0  0  0  0  0  0  0  0  0  0
    0.5055   17.4157   -4.4540 H   0  0  0  0  0  0  0  0  0  0  0  0
   -0.6457   16.8579   -3.1772 H   0  0  0  0  0  0  0  0  0  0  0  0
    0.7323   18.5961   -2.2644 H   0  0  0  0  0  0  0  0  0  0  0  0
    2.6290   17.3170   -3.7540 H   0  0  0  0  0  0  0  0  0  0  0  0
   -0.0635   16.9764    0.6890 H   0  0  0  0  0  0  0  0  0  0  0  0
   -0.6617   17.9139   -0.7217 H   0  0  0  0  0  0  0  0  0  0  0  0
   -0.7743   16.1211   -0.7217 H   0  0  0  0  0  0  0  0  0  0  0  0
    1.9370   17.4574    0.9276 H   0  0  0  0  0  0  0  0  0  0  0  0
    3.2330   17.3440   -0.3110 H   0  0  0  0  0  0  0  0  0  0  0  0
    2.1109   18.7467   -0.3110 H   0  0  0  0  0  0  0  0  0  0  0  0
    3.3914   12.9368   -2.9351 H   0  0  0  0  0  0  0  0  0  0  0  0
    2.3459   12.1243   -4.1489 H   0  0  0  0  0  0  0  0  0  0  0  0
    2.4980   13.9142   -4.1489 H   0  0  0  0  0  0  0  0  0  0  0  0
   -0.4431   13.0601   -3.9091 H   0  0  0  0  0  0  0  0  0  0  0  0
    0.5198   11.4875   -3.7251 H   0  0  0  0  0  0  0  0  0  0  0  0
   -1.6118   12.5789   -1.8665 H   0  0  0  0  0  0  0  0  0  0  0  0
   -1.6616   11.0900   -2.8901 H   0  0  0  0  0  0  0  0  0  0  0  0
    0.8005    9.1073   -1.0204 H   0  0  0  0  0  0  0  0  0  0  0  0
   -0.3018    9.1637   -2.4376 H   0  0  0  0  0  0  0  0  0  0  0  0
    1.2113   10.1318   -2.4376 H   0  0  0  0  0  0  0  0  0  0  0  0
  1  2  1  0
  2  3  1  0
  3  4  1  0
  4  5  1  0
  5  6  1  0
  6  7  1  0
  7  8  1  0
  7  9  1  0
  2 10  1  0
 10 11  1  0
 11 12  1  0
 12 13  1  0
 13 14  1  1
 13 15  1  0
 15 16  1  0
 16 17  1  0
 17 18  2  0
 18 19  1  0
 19 20  1  0
 20 21  1  0
 21 22  1  0
 22 23  1  0
 22 24  1  0
 24 25  1  0
 24 26  1  0
 19 27  1  0
 27 28  1  6
 27 29  1  0
 29 30  1  0
 30 31  1  0
 31 32  1  6
  7  5  1  0
 31 10  1  0
 31 13  1  0
 27 15  1  0
 24 18  1  0
  1 33  1  0
  1 34  1  0
  1 35  1  0
  2 36  1  1
  3 37  1  0
  3 38  1  0
  4 39  1  0
  4 40  1  0
  5 41  1  6
  8 42  1  0
  8 43  1  0
  8 44  1  0
  9 45  1  0
  9 46  1  0
  9 47  1  0
 10 48  1  1
 11 49  1  0
 11 50  1  0
 12 51  1  0
 12 52  1  0
 14 53  1  0
 14 54  1  0
 14 55  1  0
 15 56  1  6
 16 57  1  0
 16 58  1  0
 17 59  1  0
 19 60  1  1
 20 61  1  0
 20 62  1  0
 21 63  1  0
 21 64  1  0
 22 65  1  1
 23 66  1  0
 25 67  1  0
 25 68  1  0
 25 69  1  0
 26 70  1  0
 26 71  1  0
 26 72  1  0
 28 73  1  0
 28 74  1  0
 28 75  1  0
 29 76  1  0
 29 77  1  0
 30 78  1  0
 30 79  1  0
 32 80  1  0
 32 81  1  0
 32 82  1  0
M  END
>  <meeko>  (1) 
{"is_sidechain": [false], "intermolecular_energy": 2.731, "internal_energy": -0.839}

$$$$
EPH_relaxed_0001_pdb2pqr_Repair_413_r2_0001_out
     RDKit          3D

 82 86  0  0  0  0  0  0  0  0999 V2000
    2.3530   18.1050   -2.7420 C   0  0  0  0  0  0  0  0  0  0  0  0
    1.0740   17.7070   -2.0000 C   0  0  2  0  0  0  0  0  0  0  0  0
    1.2480   17.7640   -0.4690 C   0  0  0  0  0  0  0  0  0  0  0  0
    0.9340   19.1350    0.1350 C   0  0  0  0  0  0  0  0  0  0  0  0
   -0.4950   19.2310    0.5770 C   0  0  2  0  0  0  0  0  0  0  0  0
   -1.3750   18.2780   -0.0310 O   0  0  0  0  0  0  0  0  0  0  0  0
   -1.6270   19.6590   -0.3380 C   0  0  0  0  0  0  0  0  0  0  0  0
   -1.3790   20.0190   -1.7700 C   0  0  0  0  0  0  0  0  0  0  0  0
   -2.8820   20.1940    0.2770 C   0  0  0  0  0  0  0  0  0  0  0  0
    0.6420   16.3080   -2.4240 C   0  0  1  0  0  0  0  0  0  0  0  0
    0.8130   16.0640   -3.9470 C   0  0  0  0  0  0  0  0  0  0  0  0
    1.2180   14.5780   -4.1200 C   0  0  0  0  0  0  0  0  0  0  0  0
    0.9440   13.9360   -2.7390 C   0  0  1  0  0  0  0  0  0  0  0  0
   -0.5900   13.6480   -2.7280 C   0  0  0  0  0  0  0  0  0  0  0  0
    1.7740   12.6570   -2.3950 C   0  0  2  0  0  0  0  0  0  0  0  0
    1.5350   11.4540   -3.3240 C   0  0  0  0  0  0  0  0  0  0  0  0
    0.4490   10.5230   -2.8960 C   0  0  0  0  0  0  0  0  0  0  0  0
   -0.1110   10.4850   -1.6720 C   0  0  0  0  0  0  0  0  0  0  0  0
    0.4130   11.3760   -0.5380 C   0  0  1  0  0  0  0  0  0  0  0  0
    0.5730   10.5310    0.7530 C   0  0  0  0  0  0  0  0  0  0  0  0
   -0.7090    9.7960    1.1330 C   0  0  0  0  0  0  0  0  0  0  0  0
   -1.1650    8.8760    0.0030 C   0  0  2  0  0  0  0  0  0  0  0  0
   -0.2080    7.8240   -0.1500 O   0  0  0  0  0  0  0  0  0  0  0  0
   -1.3510    9.6150   -1.3510 C   0  0  0  0  0  0  0  0  0  0  0  0
   -2.5880   10.5430   -1.2720 C   0  0  0  0  0  0  0  0  0  0  0  0
   -1.6750    8.5520   -2.4350 C   0  0  0  0  0  0  0  0  0  0  0  0
    1.7100   12.2320   -0.8720 C   0  0  1  0  0  0  0  0  0  0  0  0
    2.9910   11.3890   -0.5900 C   0  0  0  0  0  0  0  0  0  0  0  0
    1.7710   13.4710    0.0980 C   0  0  0  0  0  0  0  0  0  0  0  0
    1.0310   14.7440   -0.3540 C   0  0  0  0  0  0  0  0  0  0  0  0
    1.3970   15.1100   -1.7960 C   0  0  2  0  0  0  0  0  0  0  0  0
    2.9310   15.4260   -1.8340 C   0  0  0  0  0  0  0  0  0  0  0  0
    3.1391   18.3496   -2.0125 H   0  0  0  0  0  0  0  0  0  0  0  0
    2.6862   17.2681   -3.3733 H   0  0  0  0  0  0  0  0  0  0  0  0
    2.1525   18.9832   -3.3733 H   0  0  0  0  0  0  0  0  0  0  0  0
    0.2947   18.4349   -2.2699 H   0  0  0  0  0  0  0  0  0  0  0  0
    0.5747   17.0220   -0.0150 H   0  0  0  0  0  0  0  0  0  0  0  0
    2.3069   17.5543   -0.2576 H   0  0  0  0  0  0  0  0  0  0  0  0
    1.5879   19.3001    1.0040 H   0  0  0  0  0  0  0  0  0  0  0  0
    1.1062   19.8983   -0.6381 H   0  0  0  0  0  0  0  0  0  0  0  0
   -0.1871   19.5693    1.5774 H   0  0  0  0  0  0  0  0  0  0  0  0
   -0.7556   20.9240   -1.8179 H   0  0  0  0  0  0  0  0  0  0  0  0
   -0.8600   19.1892   -2.2721 H   0  0  0  0  0  0  0  0  0  0  0  0
   -2.3393   20.2083   -2.2721 H   0  0  0  0  0  0  0  0  0  0  0  0
   -2.7974   20.1579    1.3732 H   0  0  0  0  0  0  0  0  0  0  0  0
   -3.0333   21.2349   -0.0450 H   0  0  0  0  0  0  0  0  0  0  0  0
   -3.7377   19.5824   -0.0450 H   0  0  0  0  0  0  0  0  0  0  0  0
   -0.4000   16.3232   -2.0717 H   0  0  0  0  0  0  0  0  0  0  0  0
   -0.1338   16.2619   -4.4708 H   0  0  0  0  0  0  0  0  0  0  0  0
    1.5766   16.7330   -4.3705 H   0  0  0  0  0  0  0  0  0  0  0  0
    0.6085   14.0975   -4.8995 H   0  0  0  0  0  0  0  0  0  0  0  0
    2.2667   14.4649   -4.4322 H   0  0  0  0  0  0  0  0  0  0  0  0
   -0.9432   13.5817   -1.6884 H   0  0  0  0  0  0  0  0  0  0  0  0
   -1.1197   14.4624   -3.2439 H   0  0  0  0  0  0  0  0  0  0  0  0
   -0.7882   12.6969   -3.2439 H   0  0  0  0  0  0  0  0  0  0  0  0
    2.8050   12.9863   -2.5915 H   0  0  0  0  0  0  0  0  0  0  0  0
    1.2778   11.8406   -4.3212 H   0  0  0  0  0  0  0  0  0  0  0  0
    2.4645   10.8660   -3.3054 H   0  0  0  0  0  0  0  0  0  0  0  0
    0.0749    9.8080   -3.6435 H   0  0  0  0  0  0  0  0  0  0  0  0
   -0.3510   12.1522   -0.3833 H   0  0  0  0  0  0  0  0  0  0  0  0
    1.3702    9.7901    0.5931 H   0  0  0  0  0  0  0  0  0  0  0  0
    0.8196   11.2195    1.5747 H   0  0  0  0  0  0  0  0  0  0  0  0
   -0.5252    9.1943    2.0353 H   0  0  0  0  0  0  0  0  0  0  0  0
   -1.4977   10.5393    1.3209 H   0  0  0  0  0  0  0  0  0  0  0  0
   -2.1519    8.4772    0.2804 H   0  0  0  0  0  0  0  0  0  0  0  0
    0.4280    8.1020   -0.8310 H   0  0  0  0  0  0  0  0  0  0  0  0
   -2.8386   10.7310   -0.2176 H   0  0  0  0  0  0  0  0  0  0  0  0
   -2.3631   11.4971   -1.7712 H   0  0  0  0  0  0  0  0  0  0  0  0
   -3.4411   10.0602   -1.7712 H   0  0  0  0  0  0  0  0  0  0  0  0
   -1.9627    7.6082   -1.9486 H   0  0  0  0  0  0  0  0  0  0  0  0
   -2.5051    8.9091   -3.0622 H   0  0  0  0  0  0  0  0  0  0  0  0
   -0.7868    8.3854   -3.0622 H   0  0  0  0  0  0  0  0  0  0  0  0
    3.1356   11.2939    0.4963 H   0  0  0  0  0  0  0  0  0  0  0  0
    2.8769   10.3889   -1.0337 H   0  0  0  0  0  0  0  0  0  0  0  0
    3.8643   11.8895   -1.0337 H   0  0  0  0  0  0  0  0  0  0  0  0
    1.3410   13.1606    1.0617 H   0  0  0  0  0  0  0  0  0  0  0  0
    2.8332   13.7541    0.1369 H   0  0  0  0  0  0  0  0  0  0  0  0
   -0.0535   14.5710   -0.2911 H   0  0  0  0  0  0  0  0  0  0  0  0
    1.3280   15.5739    0.3040 H   0  0  0  0  0  0  0  0  0  0  0  0
    3.3147   15.5050   -0.8061 H   0  0  0  0  0  0  0  0  0  0  0  0
    3.4589   14.6177   -2.3613 H   0  0  0  0  0  0  0  0  0  0  0  0
    3.0965   16.3771   -2.3613 H   0  0  0  0  0  0  0  0  0  0  0  0
  1  2  1  0
  2  3  1  0
  3  4  1  0
  4  5  1  0
  5  6  1  0
  6  7  1  0
  7  8  1  0
  7  9  1  0
  2 10  1  0
 10 11  1  0
 11 12  1  0
 12 13  1  0
 13 14  1  6
 13 15  1  0
 15 16  1  0
 16 17  1  0
 17 18  2  0
 18 19  1  0
 19 20  1  0
 20 21  1  0
 21 22  1  0
 22 23  1  0
 22 24  1  0
 24 25  1  0
 24 26  1  0
 19 27  1  0
 27 28  1  1
 27 29  1  0
 29 30  1  0
 30 31  1  0
 31 32  1  1
  7  5  1  0
 31 10  1  0
 31 13  1  0
 27 15  1  0
 24 18  1  0
  1 33  1  0
  1 34  1  0
  1 35  1  0
  2 36  1  6
  3 37  1  0
  3 38  1  0
  4 39  1  0
  4 40  1  0
  5 41  1  1
  8 42  1  0
  8 43  1  0
  8 44  1  0
  9 45  1  0
  9 46  1  0
  9 47  1  0
 10 48  1  6
 11 49  1  0
 11 50  1  0
 12 51  1  0
 12 52  1  0
 14 53  1  0
 14 54  1  0
 14 55  1  0
 15 56  1  6
 16 57  1  0
 16 58  1  0
 17 59  1  0
 19 60  1  1
 20 61  1  0
 20 62  1  0
 21 63  1  0
 21 64  1  0
 22 65  1  1
 23 66  1  0
 25 67  1  0
 25 68  1  0
 25 69  1  0
 26 70  1  0
 26 71  1  0
 26 72  1  0
 28 73  1  0
 28 74  1  0
 28 75  1  0
 29 76  1  0
 29 77  1  0
 30 78  1  0
 30 79  1  0
 32 80  1  0
 32 81  1  0
 32 82  1  0
M  END
>  <meeko>  (2) 
{"is_sidechain": [false], "intermolecular_energy": 2.731, "internal_energy": -0.839}

$$$$
EPH_relaxed_0001_pdb2pqr_Repair_413_r2_0001_out
     RDKit          3D

 82 86  0  0  0  0  0  0  0  0999 V2000
    2.2750   17.9380   -2.5360 C   0  0  0  0  0  0  0  0  0  0  0  0
    0.7520   17.8140   -2.6310 C   0  0  2  0  0  0  0  0  0  0  0  0
    0.0480   18.2950   -1.3470 C   0  0  0  0  0  0  0  0  0  0  0  0
    0.7780   17.9000   -0.0600 C   0  0  0  0  0  0  0  0  0  0  0  0
    1.3000   19.0990    0.6720 C   0  0  2  0  0  0  0  0  0  0  0  0
    2.2440   19.8870   -0.0650 O   0  0  0  0  0  0  0  0  0  0  0  0
    2.7420   19.2440    1.1200 C   0  0  0  0  0  0  0  0  0  0  0  0
    3.7540   18.1740    0.8520 C   0  0  0  0  0  0  0  0  0  0  0  0
    3.0530   20.1930    2.2350 C   0  0  0  0  0  0  0  0  0  0  0  0
    0.3660   16.3690   -2.9270 C   0  0  1  0  0  0  0  0  0  0  0  0
    0.5230   16.0030   -4.4270 C   0  0  0  0  0  0  0  0  0  0  0  0
    0.9800   14.5230   -4.4810 C   0  0  0  0  0  0  0  0  0  0  0  0
    0.7520   13.9920   -3.0470 C   0  0  1  0  0  0  0  0  0  0  0  0
   -0.7700   13.6510   -2.9830 C   0  0  0  0  0  0  0  0  0  0  0  0
    1.6340   12.7770   -2.6110 C   0  0  2  0  0  0  0  0  0  0  0  0
    1.4250   11.4910   -3.4310 C   0  0  0  0  0  0  0  0  0  0  0  0
    0.3820   10.5620   -2.9050 C   0  0  0  0  0  0  0  0  0  0  0  0
   -0.1570   10.6080   -1.6730 C   0  0  0  0  0  0  0  0  0  0  0  0
    0.3500   11.6110   -0.6280 C   0  0  1  0  0  0  0  0  0  0  0  0
    0.5610   10.8850    0.7260 C   0  0  0  0  0  0  0  0  0  0  0  0
   -0.6860   10.1390    1.1910 C   0  0  0  0  0  0  0  0  0  0  0  0
   -1.1250    9.1110    0.1520 C   0  0  2  0  0  0  0  0  0  0  0  0
   -0.1320    8.0840    0.0700 O   0  0  0  0  0  0  0  0  0  0  0  0
   -1.3590    9.7250   -1.2570 C   0  0  0  0  0  0  0  0  0  0  0  0
   -2.6290   10.6120   -1.2330 C   0  0  0  0  0  0  0  0  0  0  0  0
   -1.6600    8.5620   -2.2410 C   0  0  0  0  0  0  0  0  0  0  0  0
    1.6090   12.4810   -1.0570 C   0  0  1  0  0  0  0  0  0  0  0  0
    2.9250   11.7120   -0.7280 C   0  0  0  0  0  0  0  0  0  0  0  0
    1.6390   13.8000   -0.1970 C   0  0  0  0  0  0  0  0  0  0  0  0
    0.8450   15.0030   -0.7410 C   0  0  0  0  0  0  0  0  0  0  0  0
    1.1750   15.2560   -2.2150 C   0  0  2  0  0  0  0  0  0  0  0  0
    2.6950   15.6240   -2.3080 C   0  0  0  0  0  0  0  0  0  0  0  0
    2.5756   17.9625   -1.4782 H   0  0  0  0  0  0  0  0  0  0  0  0
    2.7447   17.0751   -3.0308 H   0  0  0  0  0  0  0  0  0  0  0  0
    2.5989   18.8655   -3.0308 H   0  0  0  0  0  0  0  0  0  0  0  0
    0.4180   18.4644   -3.4529 H   0  0  0  0  0  0  0  0  0  0  0  0
   -0.0260   19.3920   -1.3816 H   0  0  0  0  0  0  0  0  0  0  0  0
   -0.9382   17.8085   -1.3195 H   0  0  0  0  0  0  0  0  0  0  0  0
    0.0788   17.3592    0.5947 H   0  0  0  0  0  0  0  0  0  0  0  0
    1.6341   17.2653   -0.3326 H   0  0  0  0  0  0  0  0  0  0  0  0
    0.3461   19.2161    1.2071 H   0  0  0  0  0  0  0  0  0  0  0  0
    4.1295   17.7770    1.8067 H   0  0  0  0  0  0  0  0  0  0  0  0
    3.2856   17.3622    0.2762 H   0  0  0  0  0  0  0  0  0  0  0  0
    4.5906   18.5965    0.2762 H   0  0  0  0  0  0  0  0  0  0  0  0
    2.8886   19.6914    3.2001 H   0  0  0  0  0  0  0  0  0  0  0  0
    4.1030   20.5128    2.1622 H   0  0  0  0  0  0  0  0  0  0  0  0
    2.3960   21.0722    2.1622 H   0  0  0  0  0  0  0  0  0  0  0  0
   -0.6700   16.3767   -2.5573 H   0  0  0  0  0  0  0  0  0  0  0  0
   -0.4382   16.1218   -4.9485 H   0  0  0  0  0  0  0  0  0  0  0  0
    1.2547   16.6604   -4.9193 H   0  0  0  0  0  0  0  0  0  0  0  0
    0.3765   13.9564   -5.2054 H   0  0  0  0  0  0  0  0  0  0  0  0
    2.0272   14.4212   -4.8020 H   0  0  0  0  0  0  0  0  0  0  0  0
   -1.0860   13.5802   -1.9317 H   0  0  0  0  0  0  0  0  0  0  0  0
   -1.3446   14.4427   -3.4861 H   0  0  0  0  0  0  0  0  0  0  0  0
   -0.9519   12.6898   -3.4861 H   0  0  0  0  0  0  0  0  0  0  0  0
    2.6491   13.1249   -2.8531 H   0  0  0  0  0  0  0  0  0  0  0  0
    1.1373   11.7819   -4.4521 H   0  0  0  0  0  0  0  0  0  0  0  0
    2.3760   10.9404   -3.3812 H   0  0  0  0  0  0  0  0  0  0  0  0
    0.0235    9.7726   -3.5820 H   0  0  0  0  0  0  0  0  0  0  0  0
   -0.4398   12.3697   -0.5253 H   0  0  0  0  0  0  0  0  0  0  0  0
    1.3829   10.1625    0.6143 H   0  0  0  0  0  0  0  0  0  0  0  0
    0.7937   11.6496    1.4818 H   0  0  0  0  0  0  0  0  0  0  0  0
   -0.4652    9.6231    2.1371 H   0  0  0  0  0  0  0  0  0  0  0  0
   -1.4991   10.8666    1.3307 H   0  0  0  0  0  0  0  0  0  0  0  0
   -2.0920    8.7028    0.4810 H   0  0  0  0  0  0  0  0  0  0  0  0
    0.7150    8.5110   -0.1420 H   0  0  0  0  0  0  0  0  0  0  0  0
   -2.9164   10.8127   -0.1904 H   0  0  0  0  0  0  0  0  0  0  0  0
   -2.4219   11.5629   -1.7458 H   0  0  0  0  0  0  0  0  0  0  0  0
   -3.4504   10.0902   -1.7458 H   0  0  0  0  0  0  0  0  0  0  0  0
   -1.8957    7.6512   -1.6710 H   0  0  0  0  0  0  0  0  0  0  0  0
   -2.5182    8.8305   -2.8745 H   0  0  0  0  0  0  0  0  0  0  0  0
   -0.7792    8.3805   -2.8745 H   0  0  0  0  0  0  0  0  0  0  0  0
    3.0455   11.6416    0.3631 H   0  0  0  0  0  0  0  0  0  0  0  0
    2.8758   10.7005   -1.1575 H   0  0  0  0  0  0  0  0  0  0  0  0
    3.7821   12.2514   -1.1575 H   0  0  0  0  0  0  0  0  0  0  0  0
    1.2362   13.5579    0.7975 H   0  0  0  0  0  0  0  0  0  0  0  0
    2.6904   14.1231   -0.2028 H   0  0  0  0  0  0  0  0  0  0  0  0
   -0.2313   14.7977   -0.6433 H   0  0  0  0  0  0  0  0  0  0  0  0
    1.1207   15.8964   -0.1614 H   0  0  0  0  0  0  0  0  0  0  0  0
    3.1106   15.7246   -1.2945 H   0  0  0  0  0  0  0  0  0  0  0  0
    3.2322   14.8300   -2.8474 H   0  0  0  0  0  0  0  0  0  0  0  0
    2.8095   16.5758   -2.8474 H   0  0  0  0  0  0  0  0  0  0  0  0
  1  2  1  0
  2  3  1  0
  3  4  1  0
  4  5  1  0
  5  6  1  0
  6  7  1  0
  7  8  1  0
  7  9  1  0
  2 10  1  0
 10 11  1  0
 11 12  1  0
 12 13  1  0
 13 14  1  6
 13 15  1  0
 15 16  1  0
 16 17  1  0
 17 18  2  0
 18 19  1  0
 19 20  1  0
 20 21  1  0
 21 22  1  0
 22 23  1  0
 22 24  1  0
 24 25  1  0
 24 26  1  0
 19 27  1  0
 27 28  1  1
 27 29  1  0
 29 30  1  0
 30 31  1  0
 31 32  1  1
  7  5  1  0
 31 10  1  0
 31 13  1  0
 27 15  1  0
 24 18  1  0
  1 33  1  0
  1 34  1  0
  1 35  1  0
  2 36  1  6
  3 37  1  0
  3 38  1  0
  4 39  1  0
  4 40  1  0
  5 41  1  1
  8 42  1  0
  8 43  1  0
  8 44  1  0
  9 45  1  0
  9 46  1  0
  9 47  1  0
 10 48  1  1
 11 49  1  0
 11 50  1  0
 12 51  1  0
 12 52  1  0
 14 53  1  0
 14 54  1  0
 14 55  1  0
 15 56  1  6
 16 57  1  0
 16 58  1  0
 17 59  1  0
 19 60  1  1
 20 61  1  0
 20 62  1  0
 21 63  1  0
 21 64  1  0
 22 65  1  1
 23 66  1  0
 25 67  1  0
 25 68  1  0
 25 69  1  0
 26 70  1  0
 26 71  1  0
 26 72  1  0
 28 73  1  0
 28 74  1  0
 28 75  1  0
 29 76  1  0
 29 77  1  0
 30 78  1  0
 30 79  1  0
 32 80  1  0
 32 81  1  0
 32 82  1  0
M  END
>  <meeko>  (3) 
{"is_sidechain": [false], "intermolecular_energy": 2.731, "internal_energy": -0.839}

$$$$
EPH_relaxed_0001_pdb2pqr_Repair_413_r2_0001_out
     RDKit          3D

 82 86  0  0  0  0  0  0  0  0999 V2000
    4.4000   17.1380   -0.4780 C   0  0  0  0  0  0  0  0  0  0  0  0
    3.0430   17.8100   -0.2450 C   0  0  2  0  0  0  0  0  0  0  0  0
    3.0230   18.6420    1.0530 C   0  0  0  0  0  0  0  0  0  0  0  0
    4.3730   18.6950    1.7720 C   0  0  0  0  0  0  0  0  0  0  0  0
    4.2450   19.2670    3.1510 C   0  0  2  0  0  0  0  0  0  0  0  0
    5.2770   20.1940    3.5130 O   0  0  0  0  0  0  0  0  0  0  0  0
    5.2250   18.9760    4.2720 C   0  0  0  0  0  0  0  0  0  0  0  0
    6.4050   18.0780    4.0640 C   0  0  0  0  0  0  0  0  0  0  0  0
    4.7720   19.1660    5.6860 C   0  0  0  0  0  0  0  0  0  0  0  0
    1.9420   16.7580   -0.2070 C   0  0  1  0  0  0  0  0  0  0  0  0
    0.5200   17.3810   -0.1860 C   0  0  0  0  0  0  0  0  0  0  0  0
   -0.3960   16.4320   -0.9990 C   0  0  0  0  0  0  0  0  0  0  0  0
    0.4380   15.1420   -1.1780 C   0  0  1  0  0  0  0  0  0  0  0  0
    0.2650   14.3630    0.1640 C   0  0  0  0  0  0  0  0  0  0  0  0
    0.0790   14.2510   -2.4120 C   0  0  2  0  0  0  0  0  0  0  0  0
   -1.3470   13.6740   -2.4070 C   0  0  0  0  0  0  0  0  0  0  0  0
   -1.4920   12.3380   -1.7560 C   0  0  0  0  0  0  0  0  0  0  0  0
   -0.4820   11.5030   -1.4510 C   0  0  0  0  0  0  0  0  0  0  0  0
    0.9620   11.8330   -1.8540 C   0  0  1  0  0  0  0  0  0  0  0  0
    1.6220   10.5800   -2.4860 C   0  0  0  0  0  0  0  0  0  0  0  0
    1.5340    9.3530   -1.5820 C   0  0  0  0  0  0  0  0  0  0  0  0
    0.0810    9.0230   -1.2520 C   0  0  2  0  0  0  0  0  0  0  0  0
   -0.5800    8.6040   -2.4500 O   0  0  0  0  0  0  0  0  0  0  0  0
   -0.6900   10.2140   -0.6180 C   0  0  0  0  0  0  0  0  0  0  0  0
   -0.1620   10.4720    0.8150 C   0  0  0  0  0  0  0  0  0  0  0  0
   -2.1760    9.7940   -0.4650 C   0  0  0  0  0  0  0  0  0  0  0  0
    1.1530   13.1370   -2.7420 C   0  0  1  0  0  0  0  0  0  0  0  0
    0.9780   12.7840   -4.2500 C   0  0  0  0  0  0  0  0  0  0  0  0
    2.6280   13.6600   -2.5760 C   0  0  0  0  0  0  0  0  0  0  0  0
    2.8940   14.6310   -1.4090 C   0  0  0  0  0  0  0  0  0  0  0  0
    1.8650   15.7650   -1.3940 C   0  0  2  0  0  0  0  0  0  0  0  0
    2.0310   16.5790   -2.7220 C   0  0  0  0  0  0  0  0  0  0  0  0
    4.8661   16.9072    0.4913 H   0  0  0  0  0  0  0  0  0  0  0  0
    4.2555   16.2073   -1.0463 H   0  0  0  0  0  0  0  0  0  0  0  0
    5.0527   17.8170   -1.0463 H   0  0  0  0  0  0  0  0  0  0  0  0
    2.8673   18.5010   -1.0826 H   0  0  0  0  0  0  0  0  0  0  0  0
    2.7230   19.6700    0.8017 H   0  0  0  0  0  0  0  0  0  0  0  0
    2.3140   18.1526    1.7370 H   0  0  0  0  0  0  0  0  0  0  0  0
    4.7779   17.6749    1.8455 H   0  0  0  0  0  0  0  0  0  0  0  0
    5.0447   19.3452    1.1923 H   0  0  0  0  0  0  0  0  0  0  0  0
    3.1477   19.2118    3.0973 H   0  0  0  0  0  0  0  0  0  0  0  0
    6.8086   17.7709    5.0401 H   0  0  0  0  0  0  0  0  0  0  0  0
    6.0927   17.1870    3.4995 H   0  0  0  0  0  0  0  0  0  0  0  0
    7.1805   18.6164    3.4995 H   0  0  0  0  0  0  0  0  0  0  0  0
    5.5644   18.8336    6.3727 H   0  0  0  0  0  0  0  0  0  0  0  0
    4.5567   20.2302    5.8622 H   0  0  0  0  0  0  0  0  0  0  0  0
    3.8619   18.5738    5.8622 H   0  0  0  0  0  0  0  0  0  0  0  0
    2.2288   16.2251    0.7116 H   0  0  0  0  0  0  0  0  0  0  0  0
    0.1574   17.4624    0.8493 H   0  0  0  0  0  0  0  0  0  0  0  0
    0.5253   18.3920   -0.6195 H   0  0  0  0  0  0  0  0  0  0  0  0
   -1.3238   16.2209   -0.4471 H   0  0  0  0  0  0  0  0  0  0  0  0
   -0.6994   16.8691   -1.9617 H   0  0  0  0  0  0  0  0  0  0  0  0
    0.4176   15.0503    1.0092 H   0  0  0  0  0  0  0  0  0  0  0  0
   -0.7490   13.9397    0.2141 H   0  0  0  0  0  0  0  0  0  0  0  0
    1.0045   13.5502    0.2141 H   0  0  0  0  0  0  0  0  0  0  0  0
    0.1054   14.9740   -3.2406 H   0  0  0  0  0  0  0  0  0  0  0  0
   -1.9989   14.3834   -1.8761 H   0  0  0  0  0  0  0  0  0  0  0  0
   -1.6206   13.5295   -3.4626 H   0  0  0  0  0  0  0  0  0  0  0  0
   -2.5109   12.0085   -1.5045 H   0  0  0  0  0  0  0  0  0  0  0  0
    1.4841   12.1006   -0.9235 H   0  0  0  0  0  0  0  0  0  0  0  0
    1.1145   10.3553   -3.4357 H   0  0  0  0  0  0  0  0  0  0  0  0
    2.6876   10.8056   -2.6398 H   0  0  0  0  0  0  0  0  0  0  0  0
    1.9908    8.4940   -2.0952 H   0  0  0  0  0  0  0  0  0  0  0  0
    2.0673    9.5683   -0.6443 H   0  0  0  0  0  0  0  0  0  0  0  0
    0.0880    8.2198   -0.5005 H   0  0  0  0  0  0  0  0  0  0  0  0
    0.0770    8.6100   -3.1660 H   0  0  0  0  0  0  0  0  0  0  0  0
   -0.8991   10.1118    1.5477 H   0  0  0  0  0  0  0  0  0  0  0  0
    0.7884    9.9368    0.9575 H   0  0  0  0  0  0  0  0  0  0  0  0
   -0.0003   11.5507    0.9575 H   0  0  0  0  0  0  0  0  0  0  0  0
   -2.4287    9.7226    0.6032 H   0  0  0  0  0  0  0  0  0  0  0  0
   -2.8206   10.5451   -0.9449 H   0  0  0  0  0  0  0  0  0  0  0  0
   -2.3320    8.8166   -0.9449 H   0  0  0  0  0  0  0  0  0  0  0  0
    0.4912   11.8020   -4.3426 H   0  0  0  0  0  0  0  0  0  0  0  0
    0.3550   13.5494   -4.7358 H   0  0  0  0  0  0  0  0  0  0  0  0
    1.9644   12.7515   -4.7358 H   0  0  0  0  0  0  0  0  0  0  0  0
    3.2778   12.7838   -2.4345 H   0  0  0  0  0  0  0  0  0  0  0  0
    2.8310   14.2423   -3.4869 H   0  0  0  0  0  0  0  0  0  0  0  0
    2.8339   14.0780   -0.4600 H   0  0  0  0  0  0  0  0  0  0  0  0
    3.8954   15.0678   -1.5375 H   0  0  0  0  0  0  0  0  0  0  0  0
    2.2455   17.6310   -2.4828 H   0  0  0  0  0  0  0  0  0  0  0  0
    2.8620   16.1593   -3.3079 H   0  0  0  0  0  0  0  0  0  0  0  0
    1.1020   16.5183   -3.3079 H   0  0  0  0  0  0  0  0  0  0  0  0
  1  2  1  0
  2  3  1  0
  3  4  1  0
  4  5  1  0
  5  6  1  0
  6  7  1  0
  7  8  1  0
  7  9  1  0
  2 10  1  0
 10 11  1  0
 11 12  1  0
 12 13  1  0
 13 14  1  1
 13 15  1  0
 15 16  1  0
 16 17  1  0
 17 18  2  0
 18 19  1  0
 19 20  1  0
 20 21  1  0
 21 22  1  0
 22 23  1  0
 22 24  1  0
 24 25  1  0
 24 26  1  0
 19 27  1  0
 27 28  1  6
 27 29  1  0
 29 30  1  0
 30 31  1  0
 31 32  1  6
  7  5  1  0
 31 10  1  0
 31 13  1  0
 27 15  1  0
 24 18  1  0
  1 33  1  0
  1 34  1  0
  1 35  1  0
  2 36  1  6
  3 37  1  0
  3 38  1  0
  4 39  1  0
  4 40  1  0
  5 41  1  1
  8 42  1  0
  8 43  1  0
  8 44  1  0
  9 45  1  0
  9 46  1  0
  9 47  1  0
 10 48  1  1
 11 49  1  0
 11 50  1  0
 12 51  1  0
 12 52  1  0
 14 53  1  0
 14 54  1  0
 14 55  1  0
 15 56  1  6
 16 57  1  0
 16 58  1  0
 17 59  1  0
 19 60  1  1
 20 61  1  0
 20 62  1  0
 21 63  1  0
 21 64  1  0
 22 65  1  1
 23 66  1  0
 25 67  1  0
 25 68  1  0
 25 69  1  0
 26 70  1  0
 26 71  1  0
 26 72  1  0
 28 73  1  0
 28 74  1  0
 28 75  1  0
 29 76  1  0
 29 77  1  0
 30 78  1  0
 30 79  1  0
 32 80  1  0
 32 81  1  0
 32 82  1  0
M  END
>  <meeko>  (4) 
{"is_sidechain": [false], "intermolecular_energy": 2.731, "internal_energy": -0.839}

$$$$
EPH_relaxed_0001_pdb2pqr_Repair_413_r2_0001_out
     RDKit          3D

 82 86  0  0  0  0  0  0  0  0999 V2000
   -5.1910    5.7840   -1.8200 C   0  0  0  0  0  0  0  0  0  0  0  0
   -5.4820    7.2870   -1.8640 C   0  0  2  0  0  0  0  0  0  0  0  0
   -5.2410    7.9660   -0.5010 C   0  0  0  0  0  0  0  0  0  0  0  0
   -4.2110    9.0980   -0.5510 C   0  0  0  0  0  0  0  0  0  0  0  0
   -2.8370    8.5840   -0.8560 C   0  0  2  0  0  0  0  0  0  0  0  0
   -1.8490    8.8910    0.1370 O   0  0  0  0  0  0  0  0  0  0  0  0
   -1.6540    9.4850   -1.1570 C   0  0  0  0  0  0  0  0  0  0  0  0
   -1.7920   10.9750   -1.1690 C   0  0  0  0  0  0  0  0  0  0  0  0
   -0.4940    8.9160   -1.9130 C   0  0  0  0  0  0  0  0  0  0  0  0
   -6.9180    7.5240   -2.3170 C   0  0  1  0  0  0  0  0  0  0  0  0
   -7.2400    6.8350   -3.6700 C   0  0  0  0  0  0  0  0  0  0  0  0
   -8.7170    6.3720   -3.5960 C   0  0  0  0  0  0  0  0  0  0  0  0
   -9.2910    7.0940   -2.3540 C   0  0  1  0  0  0  0  0  0  0  0  0
   -9.6350    8.5330   -2.8510 C   0  0  0  0  0  0  0  0  0  0  0  0
  -10.5170    6.4130   -1.6630 C   0  0  2  0  0  0  0  0  0  0  0  0
  -11.7780    6.2990   -2.5380 C   0  0  0  0  0  0  0  0  0  0  0  0
  -12.7230    7.4500   -2.4470 C   0  0  0  0  0  0  0  0  0  0  0  0
  -12.7130    8.3970   -1.4900 C   0  0  0  0  0  0  0  0  0  0  0  0
  -11.7410    8.3100   -0.3060 C   0  0  1  0  0  0  0  0  0  0  0  0
  -12.5060    8.5920    1.0140 C   0  0  0  0  0  0  0  0  0  0  0  0
  -13.2670    9.9140    0.9790 C   0  0  0  0  0  0  0  0  0  0  0  0
  -14.2650    9.9390   -0.1760 C   0  0  2  0  0  0  0  0  0  0  0  0
  -15.2870    8.9700    0.0770 O   0  0  0  0  0  0  0  0  0  0  0  0
  -13.6100    9.6580   -1.5580 C   0  0  0  0  0  0  0  0  0  0  0  0
  -12.7260   10.8610   -1.9690 C   0  0  0  0  0  0  0  0  0  0  0  0
  -14.7440    9.5710   -2.6150 C   0  0  0  0  0  0  0  0  0  0  0  0
  -10.8570    6.9920   -0.2300 C   0  0  1  0  0  0  0  0  0  0  0  0
  -11.6350    5.8730    0.5280 C   0  0  0  0  0  0  0  0  0  0  0  0
   -9.5650    7.2880    0.6180 C   0  0  0  0  0  0  0  0  0  0  0  0
   -8.3470    7.8470   -0.1430 C   0  0  0  0  0  0  0  0  0  0  0  0
   -8.0500    7.0120   -1.3920 C   0  0  2  0  0  0  0  0  0  0  0  0
   -7.6790    5.5650   -0.9220 C   0  0  0  0  0  0  0  0  0  0  0  0
   -5.1270    5.4534   -0.7728 H   0  0  0  0  0  0  0  0  0  0  0  0
   -6.0003    5.2388   -2.3278 H   0  0  0  0  0  0  0  0  0  0  0  0
   -4.2367    5.5803   -2.3278 H   0  0  0  0  0  0  0  0  0  0  0  0
   -4.7844    7.7384   -2.5849 H   0  0  0  0  0  0  0  0  0  0  0  0
   -6.1959    8.3808   -0.1459 H   0  0  0  0  0  0  0  0  0  0  0  0
   -4.8404    7.1964    0.1753 H   0  0  0  0  0  0  0  0  0  0  0  0
   -4.5055    9.8137   -1.3327 H   0  0  0  0  0  0  0  0  0  0  0  0
   -4.1848    9.5816    0.4366 H   0  0  0  0  0  0  0  0  0  0  0  0
   -3.2542    7.7136   -1.3836 H   0  0  0  0  0  0  0  0  0  0  0  0
   -1.8266   11.3484   -0.1349 H   0  0  0  0  0  0  0  0  0  0  0  0
   -0.9311   11.4188   -1.6905 H   0  0  0  0  0  0  0  0  0  0  0  0
   -2.7197   11.2531   -1.6905 H   0  0  0  0  0  0  0  0  0  0  0  0
    0.2604    8.5460   -1.2031 H   0  0  0  0  0  0  0  0  0  0  0  0
   -0.8405    8.0856   -2.5457 H   0  0  0  0  0  0  0  0  0  0  0  0
   -0.0494    9.6983   -2.5457 H   0  0  0  0  0  0  0  0  0  0  0  0
   -6.9225    8.6237   -2.3438 H   0  0  0  0  0  0  0  0  0  0  0  0
   -7.1072    7.5464   -4.4984 H   0  0  0  0  0  0  0  0  0  0  0  0
   -6.5677    5.9830   -3.8490 H   0  0  0  0  0  0  0  0  0  0  0  0
   -9.2627    6.6682   -4.5040 H   0  0  0  0  0  0  0  0  0  0  0  0
   -8.8079    5.2783   -3.5216 H   0  0  0  0  0  0  0  0  0  0  0  0
   -9.7926    9.1922   -1.9846 H   0  0  0  0  0  0  0  0  0  0  0  0
   -8.8039    8.9193   -3.4593 H   0  0  0  0  0  0  0  0  0  0  0  0
  -10.5510    8.5016   -3.4593 H   0  0  0  0  0  0  0  0  0  0  0  0
  -10.1627    5.3823   -1.5142 H   0  0  0  0  0  0  0  0  0  0  0  0
  -11.4572    6.2047   -3.5859 H   0  0  0  0  0  0  0  0  0  0  0  0
  -12.3288    5.4228   -2.1653 H   0  0  0  0  0  0  0  0  0  0  0  0
  -13.4932    7.5318   -3.2281 H   0  0  0  0  0  0  0  0  0  0  0  0
  -10.9863    9.0924   -0.4741 H   0  0  0  0  0  0  0  0  0  0  0  0
  -13.2238    7.7765    1.1865 H   0  0  0  0  0  0  0  0  0  0  0  0
  -11.7633    8.6559    1.8229 H   0  0  0  0  0  0  0  0  0  0  0  0
  -13.8102   10.0418    1.9269 H   0  0  0  0  0  0  0  0  0  0  0  0
  -12.5446   10.7311    0.8363 H   0  0  0  0  0  0  0  0  0  0  0  0
  -14.6841   10.9547   -0.2278 H   0  0  0  0  0  0  0  0  0  0  0  0
  -16.1360    9.4430    0.1200 H   0  0  0  0  0  0  0  0  0  0  0  0
  -12.3537   11.3677   -1.0664 H   0  0  0  0  0  0  0  0  0  0  0  0
  -11.8744   10.5031   -2.5663 H   0  0  0  0  0  0  0  0  0  0  0  0
  -13.3219   11.5668   -2.5663 H   0  0  0  0  0  0  0  0  0  0  0  0
  -15.7157    9.4964   -2.1049 H   0  0  0  0  0  0  0  0  0  0  0  0
  -14.7285   10.4730   -3.2445 H   0  0  0  0  0  0  0  0  0  0  0  0
  -14.5911    8.6819   -3.2445 H   0  0  0  0  0  0  0  0  0  0  0  0
  -11.5302    6.0238    1.6126 H   0  0  0  0  0  0  0  0  0  0  0  0
  -12.6992    5.9157    0.2531 H   0  0  0  0  0  0  0  0  0  0  0  0
  -11.2244    4.8903    0.2531 H   0  0  0  0  0  0  0  0  0  0  0  0
   -9.8365    8.0188    1.3940 H   0  0  0  0  0  0  0  0  0  0  0  0
   -9.2409    6.3087    1.0000 H   0  0  0  0  0  0  0  0  0  0  0  0
   -8.5562    8.8839   -0.4448 H   0  0  0  0  0  0  0  0  0  0  0  0
   -7.4709    7.8084    0.5210 H   0  0  0  0  0  0  0  0  0  0  0  0
   -7.6694    5.5277    0.1773 H   0  0  0  0  0  0  0  0  0  0  0  0
   -8.4235    4.8524   -1.3066 H   0  0  0  0  0  0  0  0  0  0  0  0
   -6.6835    5.2985   -1.3066 H   0  0  0  0  0  0  0  0  0  0  0  0
  1  2  1  0
  2  3  1  0
  3  4  1  0
  4  5  1  0
  5  6  1  0
  6  7  1  0
  7  8  1  0
  7  9  1  0
  2 10  1  0
 10 11  1  0
 11 12  1  0
 12 13  1  0
 13 14  1  6
 13 15  1  0
 15 16  1  0
 16 17  1  0
 17 18  2  0
 18 19  1  0
 19 20  1  0
 20 21  1  0
 21 22  1  0
 22 23  1  0
 22 24  1  0
 24 25  1  0
 24 26  1  0
 19 27  1  0
 27 28  1  1
 27 29  1  0
 29 30  1  0
 30 31  1  0
 31 32  1  1
  7  5  1  0
 31 10  1  0
 31 13  1  0
 27 15  1  0
 24 18  1  0
  1 33  1  0
  1 34  1  0
  1 35  1  0
  2 36  1  6
  3 37  1  0
  3 38  1  0
  4 39  1  0
  4 40  1  0
  5 41  1  6
  8 42  1  0
  8 43  1  0
  8 44  1  0
  9 45  1  0
  9 46  1  0
  9 47  1  0
 10 48  1  6
 11 49  1  0
 11 50  1  0
 12 51  1  0
 12 52  1  0
 14 53  1  0
 14 54  1  0
 14 55  1  0
 15 56  1  1
 16 57  1  0
 16 58  1  0
 17 59  1  0
 19 60  1  6
 20 61  1  0
 20 62  1  0
 21 63  1  0
 21 64  1  0
 22 65  1  6
 23 66  1  0
 25 67  1  0
 25 68  1  0
 25 69  1  0
 26 70  1  0
 26 71  1  0
 26 72  1  0
 28 73  1  0
 28 74  1  0
 28 75  1  0
 29 76  1  0
 29 77  1  0
 30 78  1  0
 30 79  1  0
 32 80  1  0
 32 81  1  0
 32 82  1  0
M  END
>  <meeko>  (5) 
{"is_sidechain": [false], "intermolecular_energy": 2.731, "internal_energy": -0.839}

$$$$
EPH_relaxed_0001_pdb2pqr_Repair_413_r2_0001_out
     RDKit          3D

 82 86  0  0  0  0  0  0  0  0999 V2000
    2.3940   20.1930   -0.9490 C   0  0  0  0  0  0  0  0  0  0  0  0
    2.0390   19.3270    0.2630 C   0  0  2  0  0  0  0  0  0  0  0  0
    3.2930   18.8410    1.0150 C   0  0  0  0  0  0  0  0  0  0  0  0
    3.6900   19.7350    2.1940 C   0  0  0  0  0  0  0  0  0  0  0  0
    5.0810   19.4430    2.6670 C   0  0  2  0  0  0  0  0  0  0  0  0
    5.2480   18.1570    3.2790 O   0  0  0  0  0  0  0  0  0  0  0  0
    5.4530   19.2950    4.1310 C   0  0  0  0  0  0  0  0  0  0  0  0
    4.4300   19.4360    5.2140 C   0  0  0  0  0  0  0  0  0  0  0  0
    6.8810   19.4990    4.5310 C   0  0  0  0  0  0  0  0  0  0  0  0
    1.2010   18.1330   -0.1790 C   0  0  1  0  0  0  0  0  0  0  0  0
    0.1570   18.5060   -1.2660 C   0  0  0  0  0  0  0  0  0  0  0  0
    0.0380   17.2820   -2.2100 C   0  0  0  0  0  0  0  0  0  0  0  0
    0.7560   16.1370   -1.4570 C   0  0  1  0  0  0  0  0  0  0  0  0
   -0.2970   15.6090   -0.4330 C   0  0  0  0  0  0  0  0  0  0  0  0
    1.3310   14.9830   -2.3410 C   0  0  2  0  0  0  0  0  0  0  0  0
    0.2840   14.1890   -3.1410 C   0  0  0  0  0  0  0  0  0  0  0  0
   -0.2800   12.9950   -2.4440 C   0  0  0  0  0  0  0  0  0  0  0  0
    0.2400   12.4110   -1.3480 C   0  0  0  0  0  0  0  0  0  0  0  0
    1.5700   12.8930   -0.7550 C   0  0  1  0  0  0  0  0  0  0  0  0
    2.4720   11.6700   -0.4460 C   0  0  0  0  0  0  0  0  0  0  0  0
    1.7780   10.6390    0.4390 C   0  0  0  0  0  0  0  0  0  0  0  0
    0.4900   10.1410   -0.2110 C   0  0  2  0  0  0  0  0  0  0  0  0
    0.8250    9.4010   -1.3890 O   0  0  0  0  0  0  0  0  0  0  0  0
   -0.4940   11.2870   -0.5770 C   0  0  0  0  0  0  0  0  0  0  0  0
   -1.0900   11.8940    0.7170 C   0  0  0  0  0  0  0  0  0  0  0  0
   -1.6860   10.6630   -1.3520 C   0  0  0  0  0  0  0  0  0  0  0  0
    2.3290   14.0200   -1.5790 C   0  0  1  0  0  0  0  0  0  0  0  0
    3.2330   13.3640   -2.6680 C   0  0  0  0  0  0  0  0  0  0  0  0
    3.2950   14.8020   -0.6130 C   0  0  0  0  0  0  0  0  0  0  0  0
    2.6990   16.0050    0.1420 C   0  0  0  0  0  0  0  0  0  0  0  0
    1.9490   16.9360   -0.8160 C   0  0  2  0  0  0  0  0  0  0  0  0
    2.9870   17.5010   -1.8450 C   0  0  0  0  0  0  0  0  0  0  0  0
    2.7903   21.1599   -0.6053 H   0  0  0  0  0  0  0  0  0  0  0  0
    3.1544   19.6799   -1.5561 H   0  0  0  0  0  0  0  0  0  0  0  0
    1.4923   20.3613   -1.5561 H   0  0  0  0  0  0  0  0  0  0  0  0
    1.4583   19.9514    0.9579 H   0  0  0  0  0  0  0  0  0  0  0  0
    3.0977   17.8283    1.3976 H   0  0  0  0  0  0  0  0  0  0  0  0
    4.1270   18.8656    0.2982 H   0  0  0  0  0  0  0  0  0  0  0  0
    3.6344   20.7872    1.8781 H   0  0  0  0  0  0  0  0  0  0  0  0
    2.9966   19.5355    3.0243 H   0  0  0  0  0  0  0  0  0  0  0  0
    5.5096   20.0473    1.8539 H   0  0  0  0  0  0  0  0  0  0  0  0
    4.9229   19.3681    6.1950 H   0  0  0  0  0  0  0  0  0  0  0  0
    3.9302   20.4115    5.1215 H   0  0  0  0  0  0  0  0  0  0  0  0
    3.6849   18.6321    5.1215 H   0  0  0  0  0  0  0  0  0  0  0  0
    6.9564   19.5098    5.6284 H   0  0  0  0  0  0  0  0  0  0  0  0
    7.4950   18.6794    4.1293 H   0  0  0  0  0  0  0  0  0  0  0  0
    7.2409   20.4577    4.1293 H   0  0  0  0  0  0  0  0  0  0  0  0
    0.7754   17.8370    0.7912 H   0  0  0  0  0  0  0  0  0  0  0  0
   -0.8157   18.7205   -0.7993 H   0  0  0  0  0  0  0  0  0  0  0  0
    0.4675   19.4039   -1.8204 H   0  0  0  0  0  0  0  0  0  0  0  0
   -1.0178   17.0287   -2.3862 H   0  0  0  0  0  0  0  0  0  0  0  0
    0.4808   17.4731   -3.1986 H   0  0  0  0  0  0  0  0  0  0  0  0
    0.0639   15.7899    0.5903 H   0  0  0  0  0  0  0  0  0  0  0  0
   -1.2511   16.1353   -0.5838 H   0  0  0  0  0  0  0  0  0  0  0  0
   -0.4459   14.5296   -0.5838 H   0  0  0  0  0  0  0  0  0  0  0  0
    1.9234   15.5311   -3.0884 H   0  0  0  0  0  0  0  0  0  0  0  0
   -0.5480   14.8679   -3.3795 H   0  0  0  0  0  0  0  0  0  0  0  0
    0.8070   13.8043   -4.0289 H   0  0  0  0  0  0  0  0  0  0  0  0
   -1.1979   12.5554   -2.8613 H   0  0  0  0  0  0  0  0  0  0  0  0
    1.3155   13.4142    0.1796 H   0  0  0  0  0  0  0  0  0  0  0  0
    2.7510   11.1891   -1.3951 H   0  0  0  0  0  0  0  0  0  0  0  0
    3.3553   12.0359    0.0979 H   0  0  0  0  0  0  0  0  0  0  0  0
    2.4547    9.7862    0.5968 H   0  0  0  0  0  0  0  0  0  0  0  0
    1.5263   11.1130    1.3992 H   0  0  0  0  0  0  0  0  0  0  0  0
   -0.0267    9.5063    0.5240 H   0  0  0  0  0  0  0  0  0  0  0  0
    0.5830    8.4720   -1.2320 H   0  0  0  0  0  0  0  0  0  0  0  0
   -0.6240   11.4194    1.5931 H   0  0  0  0  0  0  0  0  0  0  0  0
   -0.8938   12.9762    0.7385 H   0  0  0  0  0  0  0  0  0  0  0  0
   -2.1756   11.7177    0.7385 H   0  0  0  0  0  0  0  0  0  0  0  0
   -2.4261   10.2756   -0.6363 H   0  0  0  0  0  0  0  0  0  0  0  0
   -2.1547   11.4314   -1.9843 H   0  0  0  0  0  0  0  0  0  0  0  0
   -1.3216    9.8400   -1.9843 H   0  0  0  0  0  0  0  0  0  0  0  0
    4.0314   12.7846   -2.1814 H   0  0  0  0  0  0  0  0  0  0  0  0
    2.6250   12.6955   -3.2953 H   0  0  0  0  0  0  0  0  0  0  0  0
    3.6800   14.1493   -3.2953 H   0  0  0  0  0  0  0  0  0  0  0  0
    3.6643   14.0879    0.1378 H   0  0  0  0  0  0  0  0  0  0  0  0
    4.0712   15.2281   -1.2656 H   0  0  0  0  0  0  0  0  0  0  0  0
    2.0003   15.6386    0.9086 H   0  0  0  0  0  0  0  0  0  0  0  0
    3.5205   16.5688    0.6081 H   0  0  0  0  0  0  0  0  0  0  0  0
    3.8280   17.9588   -1.3036 H   0  0  0  0  0  0  0  0  0  0  0  0
    3.3602   16.6816   -2.4769 H   0  0  0  0  0  0  0  0  0  0  0  0
    2.5014   18.2593   -2.4769 H   0  0  0  0  0  0  0  0  0  0  0  0
  1  2  1  0
  2  3  1  0
  3  4  1  0
  4  5  1  0
  5  6  1  0
  6  7  1  0
  7  8  1  0
  7  9  1  0
  2 10  1  0
 10 11  1  0
 11 12  1  0
 12 13  1  0
 13 14  1  1
 13 15  1  0
 15 16  1  0
 16 17  1  0
 17 18  2  0
 18 19  1  0
 19 20  1  0
 20 21  1  0
 21 22  1  0
 22 23  1  0
 22 24  1  0
 24 25  1  0
 24 26  1  0
 19 27  1  0
 27 28  1  6
 27 29  1  0
 29 30  1  0
 30 31  1  0
 31 32  1  6
  7  5  1  0
 31 10  1  0
 31 13  1  0
 27 15  1  0
 24 18  1  0
  1 33  1  0
  1 34  1  0
  1 35  1  0
  2 36  1  1
  3 37  1  0
  3 38  1  0
  4 39  1  0
  4 40  1  0
  5 41  1  6
  8 42  1  0
  8 43  1  0
  8 44  1  0
  9 45  1  0
  9 46  1  0
  9 47  1  0
 10 48  1  1
 11 49  1  0
 11 50  1  0
 12 51  1  0
 12 52  1  0
 14 53  1  0
 14 54  1  0
 14 55  1  0
 15 56  1  6
 16 57  1  0
 16 58  1  0
 17 59  1  0
 19 60  1  1
 20 61  1  0
 20 62  1  0
 21 63  1  0
 21 64  1  0
 22 65  1  1
 23 66  1  0
 25 67  1  0
 25 68  1  0
 25 69  1  0
 26 70  1  0
 26 71  1  0
 26 72  1  0
 28 73  1  0
 28 74  1  0
 28 75  1  0
 29 76  1  0
 29 77  1  0
 30 78  1  0
 30 79  1  0
 32 80  1  0
 32 81  1  0
 32 82  1  0
M  END
>  <meeko>  (6) 
{"is_sidechain": [false], "intermolecular_energy": 2.731, "internal_energy": -0.839}

$$$$
EPH_relaxed_0001_pdb2pqr_Repair_413_r2_0001_out
     RDKit          3D

 82 86  0  0  0  0  0  0  0  0999 V2000
    0.4410    8.9110   -2.3640 C   0  0  0  0  0  0  0  0  0  0  0  0
    1.1840   10.0600   -3.0510 C   0  0  2  0  0  0  0  0  0  0  0  0
    2.6820   10.0840   -2.6860 C   0  0  0  0  0  0  0  0  0  0  0  0
    3.5780   10.6360   -3.7980 C   0  0  0  0  0  0  0  0  0  0  0  0
    4.9810   10.8600   -3.3200 C   0  0  2  0  0  0  0  0  0  0  0  0
    5.5900   12.0670   -3.7970 O   0  0  0  0  0  0  0  0  0  0  0  0
    6.1900   10.8380   -4.2360 C   0  0  0  0  0  0  0  0  0  0  0  0
    6.0530   10.5840   -5.7040 C   0  0  0  0  0  0  0  0  0  0  0  0
    7.5370   10.5770   -3.6360 C   0  0  0  0  0  0  0  0  0  0  0  0
    0.5370   11.3900   -2.6840 C   0  0  1  0  0  0  0  0  0  0  0  0
   -0.8180   11.2130   -1.9500 C   0  0  0  0  0  0  0  0  0  0  0  0
   -0.9220   12.3650   -0.9180 C   0  0  0  0  0  0  0  0  0  0  0  0
    0.2050   13.3470   -1.3150 C   0  0  1  0  0  0  0  0  0  0  0  0
   -0.3870   14.1810   -2.4930 C   0  0  0  0  0  0  0  0  0  0  0  0
    0.7540   14.2660   -0.1750 C   0  0  2  0  0  0  0  0  0  0  0  0
   -0.2740   15.2370    0.4320 C   0  0  0  0  0  0  0  0  0  0  0  0
   -0.3520   16.5750   -0.2260 C   0  0  0  0  0  0  0  0  0  0  0  0
    0.5610   17.0850   -1.0730 C   0  0  0  0  0  0  0  0  0  0  0  0
    1.8650   16.3340   -1.3710 C   0  0  1  0  0  0  0  0  0  0  0  0
    3.0610   17.3180   -1.2860 C   0  0  0  0  0  0  0  0  0  0  0  0
    2.8750   18.5420   -2.1770 C   0  0  0  0  0  0  0  0  0  0  0  0
    1.5990   19.2950   -1.8110 C   0  0  2  0  0  0  0  0  0  0  0  0
    1.7520   19.8540   -0.5030 O   0  0  0  0  0  0  0  0  0  0  0  0
    0.3280   18.4020   -1.8530 C   0  0  0  0  0  0  0  0  0  0  0  0
   -0.0090   18.0440   -3.3220 C   0  0  0  0  0  0  0  0  0  0  0  0
   -0.8650   19.2460   -1.3280 C   0  0  0  0  0  0  0  0  0  0  0  0
    2.1060   15.0050   -0.5340 C   0  0  1  0  0  0  0  0  0  0  0  0
    2.7980   15.3490    0.8210 C   0  0  0  0  0  0  0  0  0  0  0  0
    3.1060   14.0770   -1.3200 C   0  0  0  0  0  0  0  0  0  0  0  0
    2.4910   13.1060   -2.3460 C   0  0  0  0  0  0  0  0  0  0  0  0
    1.3250   12.3260   -1.7330 C   0  0  2  0  0  0  0  0  0  0  0  0
    1.8940   11.4590   -0.5580 C   0  0  0  0  0  0  0  0  0  0  0  0
    0.5158    9.0266   -1.2726 H   0  0  0  0  0  0  0  0  0  0  0  0
   -0.6175    8.9282   -2.6629 H   0  0  0  0  0  0  0  0  0  0  0  0
    0.8909    7.9528   -2.6629 H   0  0  0  0  0  0  0  0  0  0  0  0
    1.1118    9.8984   -4.1367 H   0  0  0  0  0  0  0  0  0  0  0  0
    2.8115   10.7117   -1.7920 H   0  0  0  0  0  0  0  0  0  0  0  0
    2.9878    9.0413   -2.5149 H   0  0  0  0  0  0  0  0  0  0  0  0
    3.5956    9.9178   -4.6310 H   0  0  0  0  0  0  0  0  0  0  0  0
    3.1671   11.6040   -4.1206 H   0  0  0  0  0  0  0  0  0  0  0  0
    4.7649   10.3475   -2.3710 H   0  0  0  0  0  0  0  0  0  0  0  0
    5.5363    9.6261   -5.8637 H   0  0  0  0  0  0  0  0  0  0  0  0
    5.4705   11.3959   -6.1638 H   0  0  0  0  0  0  0  0  0  0  0  0
    7.0515   10.5432   -6.1638 H   0  0  0  0  0  0  0  0  0  0  0  0
    7.4589   10.5921   -2.5389 H   0  0  0  0  0  0  0  0  0  0  0  0
    7.8999    9.5918   -3.9642 H   0  0  0  0  0  0  0  0  0  0  0  0
    8.2416   11.3553   -3.9642 H   0  0  0  0  0  0  0  0  0  0  0  0
    0.4666   11.8426   -3.6841 H   0  0  0  0  0  0  0  0  0  0  0  0
   -1.6486   11.2723   -2.6687 H   0  0  0  0  0  0  0  0  0  0  0  0
   -0.8732   10.2326   -1.4542 H   0  0  0  0  0  0  0  0  0  0  0  0
   -1.9046   12.8555   -0.9811 H   0  0  0  0  0  0  0  0  0  0  0  0
   -0.8190   12.0082    0.1174 H   0  0  0  0  0  0  0  0  0  0  0  0
   -0.9794   15.0156   -2.0900 H   0  0  0  0  0  0  0  0  0  0  0  0
    0.4329   14.5776   -3.1098 H   0  0  0  0  0  0  0  0  0  0  0  0
   -1.0319   13.5379   -3.1098 H   0  0  0  0  0  0  0  0  0  0  0  0
    0.9871   13.5428    0.6204 H   0  0  0  0  0  0  0  0  0  0  0  0
   -1.2663   14.7670    0.3655 H   0  0  0  0  0  0  0  0  0  0  0  0
    0.0561   15.4240    1.4645 H   0  0  0  0  0  0  0  0  0  0  0  0
   -1.2305   17.1968    0.0009 H   0  0  0  0  0  0  0  0  0  0  0  0
    1.7687   15.9531   -2.3985 H   0  0  0  0  0  0  0  0  0  0  0  0
    3.1685   17.6534   -0.2439 H   0  0  0  0  0  0  0  0  0  0  0  0
    3.9579   16.7846   -1.6339 H   0  0  0  0  0  0  0  0  0  0  0  0
    3.7375   19.2130   -2.0513 H   0  0  0  0  0  0  0  0  0  0  0  0
    2.7971   18.2068   -3.2218 H   0  0  0  0  0  0  0  0  0  0  0  0
    1.4534   20.0832   -2.5644 H   0  0  0  0  0  0  0  0  0  0  0  0
    2.6980   20.0320   -0.3680 H   0  0  0  0  0  0  0  0  0  0  0  0
   -0.7629   17.2432   -3.3405 H   0  0  0  0  0  0  0  0  0  0  0  0
   -0.4057   18.9329   -3.8343 H   0  0  0  0  0  0  0  0  0  0  0  0
    0.9023   17.7017   -3.8343 H   0  0  0  0  0  0  0  0  0  0  0  0
   -0.8605   19.2428   -0.2280 H   0  0  0  0  0  0  0  0  0  0  0  0
   -0.7711   20.2798   -1.6920 H   0  0  0  0  0  0  0  0  0  0  0  0
   -1.8085   18.8133   -1.6920 H   0  0  0  0  0  0  0  0  0  0  0  0
    2.1540   15.0288    1.6533 H   0  0  0  0  0  0  0  0  0  0  0  0
    3.7638   14.8261    0.8826 H   0  0  0  0  0  0  0  0  0  0  0  0
    2.9642   16.4346    0.8826 H   0  0  0  0  0  0  0  0  0  0  0  0
    3.8109   14.7277   -1.8583 H   0  0  0  0  0  0  0  0  0  0  0  0
    3.5652   13.4344   -0.5544 H   0  0  0  0  0  0  0  0  0  0  0  0
    2.1250   13.6800   -3.2100 H   0  0  0  0  0  0  0  0  0  0  0  0
    3.2654   12.3902   -2.6589 H   0  0  0  0  0  0  0  0  0  0  0  0
    1.6005   11.9062    0.4032 H   0  0  0  0  0  0  0  0  0  0  0  0
    1.4896   10.4383   -0.6262 H   0  0  0  0  0  0  0  0  0  0  0  0
    2.9913   11.4239   -0.6262 H   0  0  0  0  0  0  0  0  0  0  0  0
  1  2  1  0
  2  3  1  0
  3  4  1  0
  4  5  1  0
  5  6  1  0
  6  7  1  0
  7  8  1  0
  7  9  1  0
  2 10  1  0
 10 11  1  0
 11 12  1  0
 12 13  1  0
 13 14  1  6
 13 15  1  0
 15 16  1  0
 16 17  1  0
 17 18  2  0
 18 19  1  0
 19 20  1  0
 20 21  1  0
 21 22  1  0
 22 23  1  0
 22 24  1  0
 24 25  1  0
 24 26  1  0
 19 27  1  0
 27 28  1  1
 27 29  1  0
 29 30  1  0
 30 31  1  0
 31 32  1  1
  7  5  1  0
 31 10  1  0
 31 13  1  0
 27 15  1  0
 24 18  1  0
  1 33  1  0
  1 34  1  0
  1 35  1  0
  2 36  1  6
  3 37  1  0
  3 38  1  0
  4 39  1  0
  4 40  1  0
  5 41  1  1
  8 42  1  0
  8 43  1  0
  8 44  1  0
  9 45  1  0
  9 46  1  0
  9 47  1  0
 10 48  1  6
 11 49  1  0
 11 50  1  0
 12 51  1  0
 12 52  1  0
 14 53  1  0
 14 54  1  0
 14 55  1  0
 15 56  1  1
 16 57  1  0
 16 58  1  0
 17 59  1  0
 19 60  1  6
 20 61  1  0
 20 62  1  0
 21 63  1  0
 21 64  1  0
 22 65  1  6
 23 66  1  0
 25 67  1  0
 25 68  1  0
 25 69  1  0
 26 70  1  0
 26 71  1  0
 26 72  1  0
 28 73  1  0
 28 74  1  0
 28 75  1  0
 29 76  1  0
 29 77  1  0
 30 78  1  0
 30 79  1  0
 32 80  1  0
 32 81  1  0
 32 82  1  0
M  END
>  <meeko>  (7) 
{"is_sidechain": [false], "intermolecular_energy": 2.731, "internal_energy": -0.839}

$$$$
EPH_relaxed_0001_pdb2pqr_Repair_413_r2_0001_out
     RDKit          3D

 82 86  0  0  0  0  0  0  0  0999 V2000
   -0.1440   10.5180   -3.8850 C   0  0  0  0  0  0  0  0  0  0  0  0
    0.8830   10.2560   -2.7790 C   0  0  2  0  0  0  0  0  0  0  0  0
    0.5550    8.9830   -1.9720 C   0  0  0  0  0  0  0  0  0  0  0  0
   -0.8750    8.4760   -2.1770 C   0  0  0  0  0  0  0  0  0  0  0  0
   -1.6730    8.5420   -0.9100 C   0  0  2  0  0  0  0  0  0  0  0  0
   -3.0690    8.8120   -1.0950 O   0  0  0  0  0  0  0  0  0  0  0  0
   -2.3170    9.8150   -0.3920 C   0  0  0  0  0  0  0  0  0  0  0  0
   -2.1900   11.1100   -1.1310 C   0  0  0  0  0  0  0  0  0  0  0  0
   -2.6500    9.9070    1.0640 C   0  0  0  0  0  0  0  0  0  0  0  0
    0.9600   11.4590   -1.8460 C   0  0  1  0  0  0  0  0  0  0  0  0
    2.0040   11.2700   -0.7130 C   0  0  0  0  0  0  0  0  0  0  0  0
    2.6270   12.6630   -0.4420 C   0  0  0  0  0  0  0  0  0  0  0  0
    1.6990   13.6560   -1.1820 C   0  0  1  0  0  0  0  0  0  0  0  0
    0.4900   13.8690   -0.2180 C   0  0  0  0  0  0  0  0  0  0  0  0
    2.3430   15.0150   -1.6100 C   0  0  2  0  0  0  0  0  0  0  0  0
    2.8400   15.8950   -0.4500 C   0  0  0  0  0  0  0  0  0  0  0  0
    1.8400   16.8610    0.0920 C   0  0  0  0  0  0  0  0  0  0  0  0
    0.6910   17.2190   -0.5120 C   0  0  0  0  0  0  0  0  0  0  0  0
    0.3470   16.7070   -1.9170 C   0  0  1  0  0  0  0  0  0  0  0  0
   -0.1510   17.8880   -2.7910 C   0  0  0  0  0  0  0  0  0  0  0  0
   -1.3080   18.6450   -2.1460 C   0  0  0  0  0  0  0  0  0  0  0  0
   -0.9090   19.1880   -0.7760 C   0  0  2  0  0  0  0  0  0  0  0  0
    0.0920   20.1940   -0.9540 O   0  0  0  0  0  0  0  0  0  0  0  0
   -0.3810   18.0890    0.1880 C   0  0  0  0  0  0  0  0  0  0  0  0
   -1.5500   17.1690    0.6180 C   0  0  0  0  0  0  0  0  0  0  0  0
    0.1180   18.7890    1.4810 C   0  0  0  0  0  0  0  0  0  0  0  0
    1.4740   15.8480   -2.6370 C   0  0  1  0  0  0  0  0  0  0  0  0
    2.4600   16.7910   -3.3920 C   0  0  0  0  0  0  0  0  0  0  0  0
    0.8050   14.9370   -3.7320 C   0  0  0  0  0  0  0  0  0  0  0  0
    0.2960   13.5570   -3.2720 C   0  0  0  0  0  0  0  0  0  0  0  0
    1.3700   12.8160   -2.4700 C   0  0  2  0  0  0  0  0  0  0  0  0
    2.5910   12.5680   -3.4200 C   0  0  0  0  0  0  0  0  0  0  0  0
   -1.1154   10.7658   -3.4322 H   0  0  0  0  0  0  0  0  0  0  0  0
    0.1950   11.3584   -4.5085 H   0  0  0  0  0  0  0  0  0  0  0  0
   -0.2491    9.6179   -4.5085 H   0  0  0  0  0  0  0  0  0  0  0  0
    1.8581   10.0979   -3.2630 H   0  0  0  0  0  0  0  0  0  0  0  0
    1.2522    8.1889   -2.2775 H   0  0  0  0  0  0  0  0  0  0  0  0
    0.6547    9.2424   -0.9077 H   0  0  0  0  0  0  0  0  0  0  0  0
   -1.3670    9.0959   -2.9410 H   0  0  0  0  0  0  0  0  0  0  0  0
   -0.8238    7.4245   -2.4959 H   0  0  0  0  0  0  0  0  0  0  0  0
   -1.0185    7.7987   -0.4313 H   0  0  0  0  0  0  0  0  0  0  0  0
   -2.1089   11.9370   -0.4103 H   0  0  0  0  0  0  0  0  0  0  0  0
   -1.2900   11.0848   -1.7630 H   0  0  0  0  0  0  0  0  0  0  0  0
   -3.0777   11.2601   -1.7630 H   0  0  0  0  0  0  0  0  0  0  0  0
   -1.7590    9.6608    1.6602 H   0  0  0  0  0  0  0  0  0  0  0  0
   -2.9787   10.9296    1.3010 H   0  0  0  0  0  0  0  0  0  0  0  0
   -3.4571    9.1982    1.3010 H   0  0  0  0  0  0  0  0  0  0  0  0
   -0.0865   11.5001   -1.5096 H   0  0  0  0  0  0  0  0  0  0  0  0
    1.5127   10.8916    0.1955 H   0  0  0  0  0  0  0  0  0  0  0  0
    2.7756   10.5422   -1.0044 H   0  0  0  0  0  0  0  0  0  0  0  0
    2.6441   12.8776    0.6367 H   0  0  0  0  0  0  0  0  0  0  0  0
    3.6690   12.7286   -0.7882 H   0  0  0  0  0  0  0  0  0  0  0  0
    0.8368   13.8079    0.8241 H   0  0  0  0  0  0  0  0  0  0  0  0
    0.0464   14.8591   -0.3994 H   0  0  0  0  0  0  0  0  0  0  0  0
   -0.2652   13.0901   -0.3994 H   0  0  0  0  0  0  0  0  0  0  0  0
    3.2468   14.6902   -2.1464 H   0  0  0  0  0  0  0  0  0  0  0  0
    3.1510   15.2317    0.3706 H   0  0  0  0  0  0  0  0  0  0  0  0
    3.6595   16.5037   -0.8597 H   0  0  0  0  0  0  0  0  0  0  0  0
    2.0601   17.3194    1.0674 H   0  0  0  0  0  0  0  0  0  0  0  0
   -0.4623   15.9740   -1.7839 H   0  0  0  0  0  0  0  0  0  0  0  0
    0.6837   18.5869   -2.9483 H   0  0  0  0  0  0  0  0  0  0  0  0
   -0.5136   17.4704   -3.7419 H   0  0  0  0  0  0  0  0  0  0  0  0
   -1.5957   19.4845   -2.7960 H   0  0  0  0  0  0  0  0  0  0  0  0
   -2.1521   17.9517   -2.0164 H   0  0  0  0  0  0  0  0  0  0  0  0
   -1.8133   19.6056   -0.3093 H   0  0  0  0  0  0  0  0  0  0  0  0
    0.1010   20.4380   -1.8950 H   0  0  0  0  0  0  0  0  0  0  0  0
   -1.6005   17.1293    1.7161 H   0  0  0  0  0  0  0  0  0  0  0  0
   -2.4954   17.5679    0.2217 H   0  0  0  0  0  0  0  0  0  0  0  0
   -1.3845   16.1563    0.2217 H   0  0  0  0  0  0  0  0  0  0  0  0
   -0.2655   18.2511    2.3605 H   0  0  0  0  0  0  0  0  0  0  0  0
    1.2178   18.7846    1.4992 H   0  0  0  0  0  0  0  0  0  0  0  0
   -0.2448   19.8273    1.4992 H   0  0  0  0  0  0  0  0  0  0  0  0
    3.0547   17.3598   -2.6621 H   0  0  0  0  0  0  0  0  0  0  0  0
    3.1312   16.1901   -4.0232 H   0  0  0  0  0  0  0  0  0  0  0  0
    1.8896   17.4883   -4.0232 H   0  0  0  0  0  0  0  0  0  0  0  0
   -0.0534   15.4878   -4.1440 H   0  0  0  0  0  0  0  0  0  0  0  0
    1.6052   14.7220   -4.4555 H   0  0  0  0  0  0  0  0  0  0  0  0
   -0.5942   13.6940   -2.6405 H   0  0  0  0  0  0  0  0  0  0  0  0
    0.0485   12.9599   -4.1621 H   0  0  0  0  0  0  0  0  0  0  0  0
    3.4930   12.3848   -2.8176 H   0  0  0  0  0  0  0  0  0  0  0  0
    2.3899   11.6924   -4.0547 H   0  0  0  0  0  0  0  0  0  0  0  0
    2.7474   13.4527   -4.0547 H   0  0  0  0  0  0  0  0  0  0  0  0
  1  2  1  0
  2  3  1  0
  3  4  1  0
  4  5  1  0
  5  6  1  0
  6  7  1  0
  7  8  1  0
  7  9  1  0
  2 10  1  0
 10 11  1  0
 11 12  1  0
 12 13  1  0
 13 14  1  1
 13 15  1  0
 15 16  1  0
 16 17  1  0
 17 18  2  0
 18 19  1  0
 19 20  1  0
 20 21  1  0
 21 22  1  0
 22 23  1  0
 22 24  1  0
 24 25  1  0
 24 26  1  0
 19 27  1  0
 27 28  1  6
 27 29  1  0
 29 30  1  0
 30 31  1  0
 31 32  1  6
  7  5  1  0
 31 10  1  0
 31 13  1  0
 27 15  1  0
 24 18  1  0
  1 33  1  0
  1 34  1  0
  1 35  1  0
  2 36  1  6
  3 37  1  0
  3 38  1  0
  4 39  1  0
  4 40  1  0
  5 41  1  1
  8 42  1  0
  8 43  1  0
  8 44  1  0
  9 45  1  0
  9 46  1  0
  9 47  1  0
 10 48  1  1
 11 49  1  0
 11 50  1  0
 12 51  1  0
 12 52  1  0
 14 53  1  0
 14 54  1  0
 14 55  1  0
 15 56  1  6
 16 57  1  0
 16 58  1  0
 17 59  1  0
 19 60  1  1
 20 61  1  0
 20 62  1  0
 21 63  1  0
 21 64  1  0
 22 65  1  1
 23 66  1  0
 25 67  1  0
 25 68  1  0
 25 69  1  0
 26 70  1  0
 26 71  1  0
 26 72  1  0
 28 73  1  0
 28 74  1  0
 28 75  1  0
 29 76  1  0
 29 77  1  0
 30 78  1  0
 30 79  1  0
 32 80  1  0
 32 81  1  0
 32 82  1  0
M  END
>  <meeko>  (8) 
{"is_sidechain": [false], "intermolecular_energy": 2.731, "internal_energy": -0.839}

$$$$
EPH_relaxed_0001_pdb2pqr_Repair_413_r2_0001_out
     RDKit          3D

 82 86  0  0  0  0  0  0  0  0999 V2000
    3.5890   18.4310    0.8600 C   0  0  0  0  0  0  0  0  0  0  0  0
    2.5380   18.9580   -0.1210 C   0  0  2  0  0  0  0  0  0  0  0  0
    1.7330   20.1340    0.4670 C   0  0  0  0  0  0  0  0  0  0  0  0
    0.4660   19.7020    1.2090 C   0  0  0  0  0  0  0  0  0  0  0  0
   -0.7730   20.1930    0.5240 C   0  0  2  0  0  0  0  0  0  0  0  0
   -1.9500   20.1940    1.3430 O   0  0  0  0  0  0  0  0  0  0  0  0
   -1.9650   19.3070    0.2130 C   0  0  0  0  0  0  0  0  0  0  0  0
   -1.9740   17.8560    0.5790 C   0  0  0  0  0  0  0  0  0  0  0  0
   -2.9060   19.7280   -0.8730 C   0  0  0  0  0  0  0  0  0  0  0  0
    1.5950   17.8320   -0.5270 C   0  0  1  0  0  0  0  0  0  0  0  0
    0.5990   18.2590   -1.6380 C   0  0  0  0  0  0  0  0  0  0  0  0
    0.3720   17.0160   -2.5370 C   0  0  0  0  0  0  0  0  0  0  0  0
    0.9740   15.8390   -1.7340 C   0  0  1  0  0  0  0  0  0  0  0  0
   -0.1320   15.4510   -0.7030 C   0  0  0  0  0  0  0  0  0  0  0  0
    1.4450   14.6030   -2.5680 C   0  0  2  0  0  0  0  0  0  0  0  0
    0.3330   13.8810   -3.3490 C   0  0  0  0  0  0  0  0  0  0  0  0
   -0.3450   12.7720   -2.6140 C   0  0  0  0  0  0  0  0  0  0  0  0
    0.1090   12.1850   -1.4920 C   0  0  0  0  0  0  0  0  0  0  0  0
    1.4740   12.5620   -0.9020 C   0  0  1  0  0  0  0  0  0  0  0  0
    2.2550   11.2730   -0.5370 C   0  0  0  0  0  0  0  0  0  0  0  0
    1.4610   10.3460    0.3780 C   0  0  0  0  0  0  0  0  0  0  0  0
    0.1370    9.9460   -0.2680 C   0  0  2  0  0  0  0  0  0  0  0  0
    0.4090    9.1330   -1.4130 O   0  0  0  0  0  0  0  0  0  0  0  0
   -0.7330   11.1640   -0.6870 C   0  0  0  0  0  0  0  0  0  0  0  0
   -1.2790   11.8740    0.5770 C   0  0  0  0  0  0  0  0  0  0  0  0
   -1.9730   10.6260   -1.4510 C   0  0  0  0  0  0  0  0  0  0  0  0
    2.3420   13.5800   -1.7600 C   0  0  1  0  0  0  0  0  0  0  0  0
    3.1880   12.8020   -2.8130 C   0  0  0  0  0  0  0  0  0  0  0  0
    3.3700   14.3050   -0.8120 C   0  0  0  0  0  0  0  0  0  0  0  0
    2.8840   15.5870   -0.1100 C   0  0  0  0  0  0  0  0  0  0  0  0
    2.2320   16.5460   -1.1110 C   0  0  2  0  0  0  0  0  0  0  0  0
    3.3260   16.9720   -2.1480 C   0  0  0  0  0  0  0  0  0  0  0  0
    3.2467   18.6026    1.8912 H   0  0  0  0  0  0  0  0  0  0  0  0
    3.7351   17.3530    0.6968 H   0  0  0  0  0  0  0  0  0  0  0  0
    4.5402   18.9588    0.6968 H   0  0  0  0  0  0  0  0  0  0  0  0
    3.0710   19.3335   -1.0069 H   0  0  0  0  0  0  0  0  0  0  0  0
    2.3788   20.6794    1.1709 H   0  0  0  0  0  0  0  0  0  0  0  0
    1.4126   20.7594   -0.3793 H   0  0  0  0  0  0  0  0  0  0  0  0
    0.4366   18.6033    1.2542 H   0  0  0  0  0  0  0  0  0  0  0  0
    0.4948   20.1378    2.2186 H   0  0  0  0  0  0  0  0  0  0  0  0
   -0.1834   20.8819   -0.0987 H   0  0  0  0  0  0  0  0  0  0  0  0
   -1.9746   17.7541    1.6743 H   0  0  0  0  0  0  0  0  0  0  0  0
   -2.8751   17.3792    0.1659 H   0  0  0  0  0  0  0  0  0  0  0  0
   -1.0789   17.3681    0.1659 H   0  0  0  0  0  0  0  0  0  0  0  0
   -3.8230   20.1383   -0.4249 H   0  0  0  0  0  0  0  0  0  0  0  0
   -2.4263   20.4973   -1.4959 H   0  0  0  0  0  0  0  0  0  0  0  0
   -3.1599   18.8577   -1.4959 H   0  0  0  0  0  0  0  0  0  0  0  0
    1.1365   17.6146    0.4490 H   0  0  0  0  0  0  0  0  0  0  0  0
   -0.3526   18.5815   -1.1902 H   0  0  0  0  0  0  0  0  0  0  0  0
    0.9967   19.1018   -2.2224 H   0  0  0  0  0  0  0  0  0  0  0  0
   -0.7017   16.8560   -2.7147 H   0  0  0  0  0  0  0  0  0  0  0  0
    0.8375   17.1267   -3.5275 H   0  0  0  0  0  0  0  0  0  0  0  0
    0.2546   15.5866    0.3179 H   0  0  0  0  0  0  0  0  0  0  0  0
   -1.0123   16.0940   -0.8502 H   0  0  0  0  0  0  0  0  0  0  0  0
   -0.4176   14.3990   -0.8502 H   0  0  0  0  0  0  0  0  0  0  0  0
    2.0927   15.0640   -3.3283 H   0  0  0  0  0  0  0  0  0  0  0  0
   -0.4300   14.6253   -3.6206 H   0  0  0  0  0  0  0  0  0  0  0  0
    0.8231   13.4161   -4.2171 H   0  0  0  0  0  0  0  0  0  0  0  0
   -1.2966   12.4038   -3.0250 H   0  0  0  0  0  0  0  0  0  0  0  0
    1.2622   13.1396    0.0099 H   0  0  0  0  0  0  0  0  0  0  0  0
    2.4952   10.7320   -1.4642 H   0  0  0  0  0  0  0  0  0  0  0  0
    3.1643   11.5757    0.0029 H   0  0  0  0  0  0  0  0  0  0  0  0
    2.0536    9.4405    0.5752 H   0  0  0  0  0  0  0  0  0  0  0  0
    1.2474   10.8775    1.3171 H   0  0  0  0  0  0  0  0  0  0  0  0
   -0.4421    9.3908    0.4846 H   0  0  0  0  0  0  0  0  0  0  0  0
    0.4190    8.2060   -1.1200 H   0  0  0  0  0  0  0  0  0  0  0  0
   -0.8924   11.3713    1.4758 H   0  0  0  0  0  0  0  0  0  0  0  0
   -0.9542   12.9249    0.5764 H   0  0  0  0  0  0  0  0  0  0  0  0
   -2.3781   11.8299    0.5764 H   0  0  0  0  0  0  0  0  0  0  0  0
   -2.7340   10.2958   -0.7286 H   0  0  0  0  0  0  0  0  0  0  0  0
   -2.3892   11.4244   -2.0828 H   0  0  0  0  0  0  0  0  0  0  0  0
   -1.6743    9.7766   -2.0828 H   0  0  0  0  0  0  0  0  0  0  0  0
    3.9027   12.1448   -2.2960 H   0  0  0  0  0  0  0  0  0  0  0  0
    2.5212   12.1950   -3.4430 H   0  0  0  0  0  0  0  0  0  0  0  0
    3.7371   13.5172   -3.4430 H   0  0  0  0  0  0  0  0  0  0  0  0
    3.6640   13.5889   -0.0305 H   0  0  0  0  0  0  0  0  0  0  0  0
    4.1884   14.6307   -1.4709 H   0  0  0  0  0  0  0  0  0  0  0  0
    2.1483   15.3178    0.6621 H   0  0  0  0  0  0  0  0  0  0  0  0
    3.7513   16.0892    0.3434 H   0  0  0  0  0  0  0  0  0  0  0  0
    4.2219   17.3208   -1.6134 H   0  0  0  0  0  0  0  0  0  0  0  0
    3.5881   16.1102   -2.7794 H   0  0  0  0  0  0  0  0  0  0  0  0
    2.9363   17.7841   -2.7794 H   0  0  0  0  0  0  0  0  0  0  0  0
  1  2  1  0
  2  3  1  0
  3  4  1  0
  4  5  1  0
  5  6  1  0
  6  7  1  0
  7  8  1  0
  7  9  1  0
  2 10  1  0
 10 11  1  0
 11 12  1  0
 12 13  1  0
 13 14  1  1
 13 15  1  0
 15 16  1  0
 16 17  1  0
 17 18  2  0
 18 19  1  0
 19 20  1  0
 20 21  1  0
 21 22  1  0
 22 23  1  0
 22 24  1  0
 24 25  1  0
 24 26  1  0
 19 27  1  0
 27 28  1  6
 27 29  1  0
 29 30  1  0
 30 31  1  0
 31 32  1  6
  7  5  1  0
 31 10  1  0
 31 13  1  0
 27 15  1  0
 24 18  1  0
  1 33  1  0
  1 34  1  0
  1 35  1  0
  2 36  1  6
  3 37  1  0
  3 38  1  0
  4 39  1  0
  4 40  1  0
  5 41  1  6
  8 42  1  0
  8 43  1  0
  8 44  1  0
  9 45  1  0
  9 46  1  0
  9 47  1  0
 10 48  1  1
 11 49  1  0
 11 50  1  0
 12 51  1  0
 12 52  1  0
 14 53  1  0
 14 54  1  0
 14 55  1  0
 15 56  1  6
 16 57  1  0
 16 58  1  0
 17 59  1  0
 19 60  1  1
 20 61  1  0
 20 62  1  0
 21 63  1  0
 21 64  1  0
 22 65  1  1
 23 66  1  0
 25 67  1  0
 25 68  1  0
 25 69  1  0
 26 70  1  0
 26 71  1  0
 26 72  1  0
 28 73  1  0
 28 74  1  0
 28 75  1  0
 29 76  1  0
 29 77  1  0
 30 78  1  0
 30 79  1  0
 32 80  1  0
 32 81  1  0
 32 82  1  0
M  END
>  <meeko>  (9) 
{"is_sidechain": [false], "intermolecular_energy": 2.731, "internal_energy": -0.839}

$$$$
EPH_relaxed_0001_pdb2pqr_Repair_413_r2_0001_out
     RDKit          3D

 82 86  0  0  0  0  0  0  0  0999 V2000
   -0.6560   16.3220   -5.7280 C   0  0  0  0  0  0  0  0  0  0  0  0
    0.3290   15.5610   -6.6190 C   0  0  2  0  0  0  0  0  0  0  0  0
   -0.1880   15.4140   -8.0640 C   0  0  0  0  0  0  0  0  0  0  0  0
    0.4250   16.4190   -9.0420 C   0  0  0  0  0  0  0  0  0  0  0  0
    1.8330   16.0520   -9.4040 C   0  0  2  0  0  0  0  0  0  0  0  0
    2.3240   16.6700  -10.6010 O   0  0  0  0  0  0  0  0  0  0  0  0
    2.1960   15.2400  -10.6330 C   0  0  0  0  0  0  0  0  0  0  0  0
    1.1470   14.7440  -11.5780 C   0  0  0  0  0  0  0  0  0  0  0  0
    3.5070   14.5170  -10.6510 C   0  0  0  0  0  0  0  0  0  0  0  0
    0.6120   14.1860   -6.0250 C   0  0  1  0  0  0  0  0  0  0  0  0
    1.9440   13.5760   -6.5370 C   0  0  0  0  0  0  0  0  0  0  0  0
    2.5500   12.7710   -5.3590 C   0  0  0  0  0  0  0  0  0  0  0  0
    1.4030   12.6670   -4.3270 C   0  0  1  0  0  0  0  0  0  0  0  0
    0.5110   11.4910   -4.8360 C   0  0  0  0  0  0  0  0  0  0  0  0
    1.8300   12.4640   -2.8360 C   0  0  2  0  0  0  0  0  0  0  0  0
    2.5950   11.1600   -2.5490 C   0  0  0  0  0  0  0  0  0  0  0  0
    1.7460    9.9920   -2.1710 C   0  0  0  0  0  0  0  0  0  0  0  0
    0.4560   10.0530   -1.7900 C   0  0  0  0  0  0  0  0  0  0  0  0
   -0.2500   11.4040   -1.6150 C   0  0  1  0  0  0  0  0  0  0  0  0
   -1.0340   11.4090   -0.2770 C   0  0  0  0  0  0  0  0  0  0  0  0
   -1.9940   10.2290   -0.1570 C   0  0  0  0  0  0  0  0  0  0  0  0
   -1.2470    8.9030   -0.2780 C   0  0  2  0  0  0  0  0  0  0  0  0
   -0.3880    8.7530    0.8570 O   0  0  0  0  0  0  0  0  0  0  0  0
   -0.4120    8.7880   -1.5840 C   0  0  0  0  0  0  0  0  0  0  0  0
   -1.3620    8.6470   -2.7990 C   0  0  0  0  0  0  0  0  0  0  0  0
    0.4020    7.4670   -1.5150 C   0  0  0  0  0  0  0  0  0  0  0  0
    0.6640   12.6920   -1.7910 C   0  0  1  0  0  0  0  0  0  0  0  0
    1.3460   13.0500   -0.4350 C   0  0  0  0  0  0  0  0  0  0  0  0
   -0.2450   13.9210   -2.1680 C   0  0  0  0  0  0  0  0  0  0  0  0
   -0.5330   14.1380   -3.6660 C   0  0  0  0  0  0  0  0  0  0  0  0
    0.7600   14.0930   -4.4850 C   0  0  2  0  0  0  0  0  0  0  0  0
    1.6690   15.2780   -4.0100 C   0  0  0  0  0  0  0  0  0  0  0  0
   -0.4142   16.1352   -4.6713 H   0  0  0  0  0  0  0  0  0  0  0  0
   -0.5817   17.3996   -5.9362 H   0  0  0  0  0  0  0  0  0  0  0  0
   -1.6799   15.9781   -5.9362 H   0  0  0  0  0  0  0  0  0  0  0  0
    1.2588   16.1474   -6.6594 H   0  0  0  0  0  0  0  0  0  0  0  0
    0.0481   14.3989   -8.4157 H   0  0  0  0  0  0  0  0  0  0  0  0
   -1.2704   15.6085   -8.0395 H   0  0  0  0  0  0  0  0  0  0  0  0
   -0.1840   16.4423   -9.9577 H   0  0  0  0  0  0  0  0  0  0  0  0
    0.4420   17.4051   -8.5548 H   0  0  0  0  0  0  0  0  0  0  0  0
    2.1031   15.9458   -8.3430 H   0  0  0  0  0  0  0  0  0  0  0  0
    0.2979   14.3425  -11.0054 H   0  0  0  0  0  0  0  0  0  0  0  0
    0.8021   15.5744  -12.2116 H   0  0  0  0  0  0  0  0  0  0  0  0
    1.5699   13.9505  -12.2116 H   0  0  0  0  0  0  0  0  0  0  0  0
    3.8390   14.3339   -9.6184 H   0  0  0  0  0  0  0  0  0  0  0  0
    3.3889   13.5565  -11.1739 H   0  0  0  0  0  0  0  0  0  0  0  0
    4.2563   15.1294  -11.1739 H   0  0  0  0  0  0  0  0  0  0  0  0
   -0.2956   13.6555   -6.3488 H   0  0  0  0  0  0  0  0  0  0  0  0
    1.7519   12.9103   -7.3914 H   0  0  0  0  0  0  0  0  0  0  0  0
    2.6348   14.3630   -6.8739 H   0  0  0  0  0  0  0  0  0  0  0  0
    2.8639   11.7710   -5.6928 H   0  0  0  0  0  0  0  0  0  0  0  0
    3.4453   13.2540   -4.9405 H   0  0  0  0  0  0  0  0  0  0  0  0
    0.0972   10.9455   -3.9751 H   0  0  0  0  0  0  0  0  0  0  0  0
   -0.3119   11.8923   -5.4458 H   0  0  0  0  0  0  0  0  0  0  0  0
    1.1193   10.8067   -5.4458 H   0  0  0  0  0  0  0  0  0  0  0  0
    2.5563   13.2763   -2.6855 H   0  0  0  0  0  0  0  0  0  0  0  0
    3.1595   10.8910   -3.4540 H   0  0  0  0  0  0  0  0  0  0  0  0
    3.2326   11.3672   -1.6770 H   0  0  0  0  0  0  0  0  0  0  0  0
    2.2138    8.9971   -2.2067 H   0  0  0  0  0  0  0  0  0  0  0  0
   -0.9504   11.4923   -2.4586 H   0  0  0  0  0  0  0  0  0  0  0  0
   -0.3142   11.3639    0.5536 H   0  0  0  0  0  0  0  0  0  0  0  0
   -1.6327   12.3312   -0.2442 H   0  0  0  0  0  0  0  0  0  0  0  0
   -2.4960   10.2714    0.8209 H   0  0  0  0  0  0  0  0  0  0  0  0
   -2.7312   10.2921   -0.9710 H   0  0  0  0  0  0  0  0  0  0  0  0
   -1.9998    8.1018   -0.3152 H   0  0  0  0  0  0  0  0  0  0  0  0
    0.3660    8.2040    0.5840 H   0  0  0  0  0  0  0  0  0  0  0  0
   -2.3917    8.4942   -2.4435 H   0  0  0  0  0  0  0  0  0  0  0  0
   -1.3164    9.5618   -3.4082 H   0  0  0  0  0  0  0  0  0  0  0  0
   -1.0527    7.7849   -3.4082 H   0  0  0  0  0  0  0  0  0  0  0  0
    0.5700    7.1944   -0.4626 H   0  0  0  0  0  0  0  0  0  0  0  0
   -0.1584    6.6644   -2.0167 H   0  0  0  0  0  0  0  0  0  0  0  0
    1.3709    7.6067   -2.0167 H   0  0  0  0  0  0  0  0  0  0  0  0
    0.7079   12.7150    0.3960 H   0  0  0  0  0  0  0  0  0  0  0  0
    2.3230   12.5485   -0.3723 H   0  0  0  0  0  0  0  0  0  0  0  0
    1.4881   14.1390   -0.3723 H   0  0  0  0  0  0  0  0  0  0  0  0
   -1.2112   13.7889   -1.6590 H   0  0  0  0  0  0  0  0  0  0  0  0
    0.3244   14.8078   -1.8528 H   0  0  0  0  0  0  0  0  0  0  0  0
   -1.2110   13.3475   -4.0202 H   0  0  0  0  0  0  0  0  0  0  0  0
   -0.9952   15.1279   -3.7944 H   0  0  0  0  0  0  0  0  0  0  0  0
    1.6904   15.3058   -2.9106 H   0  0  0  0  0  0  0  0  0  0  0  0
    2.6900   15.1333   -4.3930 H   0  0  0  0  0  0  0  0  0  0  0  0
    1.2647   16.2266   -4.3930 H   0  0  0  0  0  0  0  0  0  0  0  0
  1  2  1  0
  2  3  1  0
  3  4  1  0
  4  5  1  0
  5  6  1  0
  6  7  1  0
  7  8  1  0
  7  9  1  0
  2 10  1  0
 10 11  1  0
 11 12  1  0
 12 13  1  0
 13 14  1  6
 13 15  1  0
 15 16  1  0
 16 17  1  0
 17 18  2  0
 18 19  1  0
 19 20  1  0
 20 21  1  0
 21 22  1  0
 22 23  1  0
 22 24  1  0
 24 25  1  0
 24 26  1  0
 19 27  1  0
 27 28  1  1
 27 29  1  0
 29 30  1  0
 30 31  1  0
 31 32  1  1
  7  5  1  0
 31 10  1  0
 31 13  1  0
 27 15  1  0
 24 18  1  0
  1 33  1  0
  1 34  1  0
  1 35  1  0
  2 36  1  6
  3 37  1  0
  3 38  1  0
  4 39  1  0
  4 40  1  0
  5 41  1  1
  8 42  1  0
  8 43  1  0
  8 44  1  0
  9 45  1  0
  9 46  1  0
  9 47  1  0
 10 48  1  6
 11 49  1  0
 11 50  1  0
 12 51  1  0
 12 52  1  0
 14 53  1  0
 14 54  1  0
 14 55  1  0
 15 56  1  1
 16 57  1  0
 16 58  1  0
 17 59  1  0
 19 60  1  6
 20 61  1  0
 20 62  1  0
 21 63  1  0
 21 64  1  0
 22 65  1  6
 23 66  1  0
 25 67  1  0
 25 68  1  0
 25 69  1  0
 26 70  1  0
 26 71  1  0
 26 72  1  0
 28 73  1  0
 28 74  1  0
 28 75  1  0
 29 76  1  0
 29 77  1  0
 30 78  1  0
 30 79  1  0
 32 80  1  0
 32 81  1  0
 32 82  1  0
M  END
>  <meeko>  (10) 
{"is_sidechain": [false], "intermolecular_energy": 2.731, "internal_energy": -0.839}

$$$$
EPH_relaxed_0001_pdb2pqr_Repair_413_r2_0001_out
     RDKit          3D

 82 86  0  0  0  0  0  0  0  0999 V2000
    0.2170    9.3550   -2.3050 C   0  0  0  0  0  0  0  0  0  0  0  0
    1.2780   10.3690   -2.7430 C   0  0  2  0  0  0  0  0  0  0  0  0
    2.6890    9.7480   -2.7940 C   0  0  0  0  0  0  0  0  0  0  0  0
    3.6130   10.4040   -3.8230 C   0  0  0  0  0  0  0  0  0  0  0  0
    5.0020   10.5800   -3.2880 C   0  0  2  0  0  0  0  0  0  0  0  0
    5.5890   11.8600   -3.5560 O   0  0  0  0  0  0  0  0  0  0  0  0
    6.2260   10.7290   -4.1710 C   0  0  0  0  0  0  0  0  0  0  0  0
    6.1190   10.7070   -5.6640 C   0  0  0  0  0  0  0  0  0  0  0  0
    7.5690   10.4060   -3.5930 C   0  0  0  0  0  0  0  0  0  0  0  0
    1.2710   11.5680   -1.8030 C   0  0  1  0  0  0  0  0  0  0  0  0
    2.3460   11.4610   -0.6890 C   0  0  0  0  0  0  0  0  0  0  0  0
    2.8550   12.9000   -0.4170 C   0  0  0  0  0  0  0  0  0  0  0  0
    1.8350   13.8150   -1.1340 C   0  0  1  0  0  0  0  0  0  0  0  0
    0.6290   13.9200   -0.1480 C   0  0  0  0  0  0  0  0  0  0  0  0
    2.3540   15.2260   -1.5620 C   0  0  2  0  0  0  0  0  0  0  0  0
    2.7960   16.1380   -0.4050 C   0  0  0  0  0  0  0  0  0  0  0  0
    1.7270   17.0140    0.1610 C   0  0  0  0  0  0  0  0  0  0  0  0
    0.5420   17.2770   -0.4200 C   0  0  0  0  0  0  0  0  0  0  0  0
    0.2180   16.7470   -1.8230 C   0  0  1  0  0  0  0  0  0  0  0  0
   -0.3930   17.8870   -2.6790 C   0  0  0  0  0  0  0  0  0  0  0  0
   -1.5980   18.5400   -2.0090 C   0  0  0  0  0  0  0  0  0  0  0  0
   -1.2220   19.1060   -0.6430 C   0  0  2  0  0  0  0  0  0  0  0  0
   -0.3120   20.1940   -0.8290 O   0  0  0  0  0  0  0  0  0  0  0  0
   -0.5870   18.0500    0.3050 C   0  0  0  0  0  0  0  0  0  0  0  0
   -1.6660   17.0320    0.7470 C   0  0  0  0  0  0  0  0  0  0  0  0
   -0.1250   18.7810    1.5940 C   0  0  0  0  0  0  0  0  0  0  0  0
    1.4010   15.9900   -2.5680 C   0  0  1  0  0  0  0  0  0  0  0  0
    2.2910   17.0170   -3.3330 C   0  0  0  0  0  0  0  0  0  0  0  0
    0.7910   15.0320   -3.6590 C   0  0  0  0  0  0  0  0  0  0  0  0
    0.4080   13.6120   -3.2010 C   0  0  0  0  0  0  0  0  0  0  0  0
    1.5550   12.9590   -2.4220 C   0  0  2  0  0  0  0  0  0  0  0  0
    2.7750   12.8200   -3.3950 C   0  0  0  0  0  0  0  0  0  0  0  0
    0.1774    9.3172   -1.2064 H   0  0  0  0  0  0  0  0  0  0  0  0
   -0.7648    9.6591   -2.6970 H   0  0  0  0  0  0  0  0  0  0  0  0
    0.4763    8.3605   -2.6970 H   0  0  0  0  0  0  0  0  0  0  0  0
    1.0232   10.6944   -3.7624 H   0  0  0  0  0  0  0  0  0  0  0  0
    3.1490    9.8490   -1.7999 H   0  0  0  0  0  0  0  0  0  0  0  0
    2.5671    8.6971   -3.0952 H   0  0  0  0  0  0  0  0  0  0  0  0
    3.6544    9.7695   -4.7206 H   0  0  0  0  0  0  0  0  0  0  0  0
    3.2089   11.3988   -4.0618 H   0  0  0  0  0  0  0  0  0  0  0  0
    4.7828    9.9192   -2.4364 H   0  0  0  0  0  0  0  0  0  0  0  0
    5.0797   10.4933   -5.9540 H   0  0  0  0  0  0  0  0  0  0  0  0
    6.4185   11.6855   -6.0675 H   0  0  0  0  0  0  0  0  0  0  0  0
    6.7802    9.9260   -6.0675 H   0  0  0  0  0  0  0  0  0  0  0  0
    7.5086   10.4205   -2.4948 H   0  0  0  0  0  0  0  0  0  0  0  0
    7.8825    9.4069   -3.9298 H   0  0  0  0  0  0  0  0  0  0  0  0
    8.3025   11.1533   -3.9298 H   0  0  0  0  0  0  0  0  0  0  0  0
    0.2304   11.5181   -1.4500 H   0  0  0  0  0  0  0  0  0  0  0  0
    1.9036   11.0369    0.2245 H   0  0  0  0  0  0  0  0  0  0  0  0
    3.1710   10.8028   -0.9990 H   0  0  0  0  0  0  0  0  0  0  0  0
    2.8721   13.1085    0.6629 H   0  0  0  0  0  0  0  0  0  0  0  0
    3.8821   13.0552   -0.7790 H   0  0  0  0  0  0  0  0  0  0  0  0
    0.9983   13.8879    0.8877 H   0  0  0  0  0  0  0  0  0  0  0  0
    0.0974   14.8678   -0.3185 H   0  0  0  0  0  0  0  0  0  0  0  0
   -0.0584   13.0783   -0.3185 H   0  0  0  0  0  0  0  0  0  0  0  0
    3.2721   14.9803   -2.1159 H   0  0  0  0  0  0  0  0  0  0  0  0
    3.1761   15.4988    0.4055 H   0  0  0  0  0  0  0  0  0  0  0  0
    3.5544   16.8156   -0.8243 H   0  0  0  0  0  0  0  0  0  0  0  0
    1.9251   17.4841    1.1355 H   0  0  0  0  0  0  0  0  0  0  0  0
   -0.5245   15.9477   -1.6826 H   0  0  0  0  0  0  0  0  0  0  0  0
    0.3771   18.6547   -2.8452 H   0  0  0  0  0  0  0  0  0  0  0  0
   -0.7361   17.4460   -3.6265 H   0  0  0  0  0  0  0  0  0  0  0  0
   -1.9667   19.3561   -2.6478 H   0  0  0  0  0  0  0  0  0  0  0  0
   -2.3786   17.7775   -1.8703 H   0  0  0  0  0  0  0  0  0  0  0  0
   -2.1507   19.4431   -0.1594 H   0  0  0  0  0  0  0  0  0  0  0  0
   -0.0040   20.1660   -1.7510 H   0  0  0  0  0  0  0  0  0  0  0  0
   -1.7062   16.9941    1.8456 H   0  0  0  0  0  0  0  0  0  0  0  0
   -2.6457   17.3425    0.3547 H   0  0  0  0  0  0  0  0  0  0  0  0
   -1.4130   16.0360    0.3547 H   0  0  0  0  0  0  0  0  0  0  0  0
   -0.4760   18.2257    2.4763 H   0  0  0  0  0  0  0  0  0  0  0  0
    0.9734   18.8379    1.6096 H   0  0  0  0  0  0  0  0  0  0  0  0
   -0.5450   19.7975    1.6096 H   0  0  0  0  0  0  0  0  0  0  0  0
    2.8334   17.6429   -2.6091 H   0  0  0  0  0  0  0  0  0  0  0  0
    3.0124   16.4780   -3.9647 H   0  0  0  0  0  0  0  0  0  0  0  0
    1.6549   17.6544   -3.9647 H   0  0  0  0  0  0  0  0  0  0  0  0
   -0.1178   15.5113   -4.0520 H   0  0  0  0  0  0  0  0  0  0  0  0
    1.5935   14.8894   -4.3977 H   0  0  0  0  0  0  0  0  0  0  0  0
   -0.4796   13.6698   -2.5538 H   0  0  0  0  0  0  0  0  0  0  0  0
    0.1962   13.0015   -4.0912 H   0  0  0  0  0  0  0  0  0  0  0  0
    3.7005   12.7146   -2.8099 H   0  0  0  0  0  0  0  0  0  0  0  0
    2.6389   11.9316   -4.0291 H   0  0  0  0  0  0  0  0  0  0  0  0
    2.8422   13.7163   -4.0291 H   0  0  0  0  0  0  0  0  0  0  0  0
  1  2  1  0
  2  3  1  0
  3  4  1  0
  4  5  1  0
  5  6  1  0
  6  7  1  0
  7  8  1  0
  7  9  1  0
  2 10  1  0
 10 11  1  0
 11 12  1  0
 12 13  1  0
 13 14  1  1
 13 15  1  0
 15 16  1  0
 16 17  1  0
 17 18  2  0
 18 19  1  0
 19 20  1  0
 20 21  1  0
 21 22  1  0
 22 23  1  0
 22 24  1  0
 24 25  1  0
 24 26  1  0
 19 27  1  0
 27 28  1  6
 27 29  1  0
 29 30  1  0
 30 31  1  0
 31 32  1  6
  7  5  1  0
 31 10  1  0
 31 13  1  0
 27 15  1  0
 24 18  1  0
  1 33  1  0
  1 34  1  0
  1 35  1  0
  2 36  1  6
  3 37  1  0
  3 38  1  0
  4 39  1  0
  4 40  1  0
  5 41  1  1
  8 42  1  0
  8 43  1  0
  8 44  1  0
  9 45  1  0
  9 46  1  0
  9 47  1  0
 10 48  1  1
 11 49  1  0
 11 50  1  0
 12 51  1  0
 12 52  1  0
 14 53  1  0
 14 54  1  0
 14 55  1  0
 15 56  1  6
 16 57  1  0
 16 58  1  0
 17 59  1  0
 19 60  1  1
 20 61  1  0
 20 62  1  0
 21 63  1  0
 21 64  1  0
 22 65  1  1
 23 66  1  0
 25 67  1  0
 25 68  1  0
 25 69  1  0
 26 70  1  0
 26 71  1  0
 26 72  1  0
 28 73  1  0
 28 74  1  0
 28 75  1  0
 29 76  1  0
 29 77  1  0
 30 78  1  0
 30 79  1  0
 32 80  1  0
 32 81  1  0
 32 82  1  0
M  END
>  <meeko>  (11) 
{"is_sidechain": [false], "intermolecular_energy": 2.731, "internal_energy": -0.839}

$$$$
EPH_relaxed_0001_pdb2pqr_Repair_413_r2_0001_out
     RDKit          3D

 82 86  0  0  0  0  0  0  0  0999 V2000
   -2.3040    7.8920   -2.1350 C   0  0  0  0  0  0  0  0  0  0  0  0
   -2.2370    8.5010   -0.7320 C   0  0  2  0  0  0  0  0  0  0  0  0
   -3.6140    8.5150   -0.0380 C   0  0  0  0  0  0  0  0  0  0  0  0
   -4.7930    8.5780   -1.0120 C   0  0  0  0  0  0  0  0  0  0  0  0
   -5.5290    7.2740   -1.0780 C   0  0  2  0  0  0  0  0  0  0  0  0
   -5.6720    6.7340   -2.3980 O   0  0  0  0  0  0  0  0  0  0  0  0
   -6.8880    7.1120   -1.7320 C   0  0  0  0  0  0  0  0  0  0  0  0
   -7.5920    8.2710   -2.3650 C   0  0  0  0  0  0  0  0  0  0  0  0
   -7.7420    5.9510   -1.3300 C   0  0  0  0  0  0  0  0  0  0  0  0
   -1.6770    9.9170   -0.8050 C   0  0  1  0  0  0  0  0  0  0  0  0
   -1.1750   10.4330    0.5700 C   0  0  0  0  0  0  0  0  0  0  0  0
    0.0600   11.3270    0.2880 C   0  0  0  0  0  0  0  0  0  0  0  0
    0.0290   11.5650   -1.2400 C   0  0  1  0  0  0  0  0  0  0  0  0
   -1.0070   12.7130   -1.4460 C   0  0  0  0  0  0  0  0  0  0  0  0
    1.4000   11.8950   -1.9150 C   0  0  2  0  0  0  0  0  0  0  0  0
    2.0670   13.1960   -1.4350 C   0  0  0  0  0  0  0  0  0  0  0  0
    1.7090   14.4200   -2.2100 C   0  0  0  0  0  0  0  0  0  0  0  0
    1.1140   14.4350   -3.4170 C   0  0  0  0  0  0  0  0  0  0  0  0
    0.8280   13.1300   -4.1710 C   0  0  1  0  0  0  0  0  0  0  0  0
    1.2740   13.2770   -5.6490 C   0  0  0  0  0  0  0  0  0  0  0  0
    0.6510   14.4930   -6.3300 C   0  0  0  0  0  0  0  0  0  0  0  0
    1.0070   15.7770   -5.5850 C   0  0  2  0  0  0  0  0  0  0  0  0
    2.4130   16.0070   -5.7090 O   0  0  0  0  0  0  0  0  0  0  0  0
    0.6130   15.7420   -4.0810 C   0  0  0  0  0  0  0  0  0  0  0  0
   -0.9290   15.7960   -3.9450 C   0  0  0  0  0  0  0  0  0  0  0  0
    1.1530   17.0360   -3.4160 C   0  0  0  0  0  0  0  0  0  0  0  0
    1.3830   11.8030   -3.4950 C   0  0  1  0  0  0  0  0  0  0  0  0
    2.8560   11.5550   -3.9420 C   0  0  0  0  0  0  0  0  0  0  0  0
    0.5480   10.5740   -4.0140 C   0  0  0  0  0  0  0  0  0  0  0  0
   -0.7330   10.2240   -3.2320 C   0  0  0  0  0  0  0  0  0  0  0  0
   -0.4550   10.1510   -1.7280 C   0  0  2  0  0  0  0  0  0  0  0  0
    0.5680    8.9880   -1.4870 C   0  0  0  0  0  0  0  0  0  0  0  0
   -2.4240    6.8014   -2.0560 H   0  0  0  0  0  0  0  0  0  0  0  0
   -3.1608    8.3167   -2.6785 H   0  0  0  0  0  0  0  0  0  0  0  0
   -1.3753    8.1203   -2.6785 H   0  0  0  0  0  0  0  0  0  0  0  0
   -1.5695    7.8678   -0.1291 H   0  0  0  0  0  0  0  0  0  0  0  0
   -3.7091    7.5990    0.5636 H   0  0  0  0  0  0  0  0  0  0  0  0
   -3.6553    9.4266    0.5762 H   0  0  0  0  0  0  0  0  0  0  0  0
   -5.4881    9.3631   -0.6797 H   0  0  0  0  0  0  0  0  0  0  0  0
   -4.3977    8.7993   -2.0144 H   0  0  0  0  0  0  0  0  0  0  0  0
   -5.1473    6.9817   -0.0886 H   0  0  0  0  0  0  0  0  0  0  0  0
   -7.9922    8.9299   -1.5803 H   0  0  0  0  0  0  0  0  0  0  0  0
   -6.8830    8.8338   -2.9900 H   0  0  0  0  0  0  0  0  0  0  0  0
   -8.4183    7.9012   -2.9900 H   0  0  0  0  0  0  0  0  0  0  0  0
   -7.7862    5.8909   -0.2325 H   0  0  0  0  0  0  0  0  0  0  0  0
   -8.7573    6.0865   -1.7310 H   0  0  0  0  0  0  0  0  0  0  0  0
   -7.3103    5.0221   -1.7310 H   0  0  0  0  0  0  0  0  0  0  0  0
   -2.5568   10.4430   -1.2042 H   0  0  0  0  0  0  0  0  0  0  0  0
   -1.9626   11.0201    1.0649 H   0  0  0  0  0  0  0  0  0  0  0  0
   -0.9137    9.5963    1.2346 H   0  0  0  0  0  0  0  0  0  0  0  0
   -0.0186   12.2803    0.8311 H   0  0  0  0  0  0  0  0  0  0  0  0
    0.9986   10.8578    0.6180 H   0  0  0  0  0  0  0  0  0  0  0  0
   -1.3423   13.0845   -0.4664 H   0  0  0  0  0  0  0  0  0  0  0  0
   -0.5379   13.5337   -2.0084 H   0  0  0  0  0  0  0  0  0  0  0  0
   -1.8714   12.3303   -2.0084 H   0  0  0  0  0  0  0  0  0  0  0  0
    2.0433   11.0788   -1.5545 H   0  0  0  0  0  0  0  0  0  0  0  0
    1.7762   13.3603   -0.3869 H   0  0  0  0  0  0  0  0  0  0  0  0
    3.1486   13.0529   -1.5752 H   0  0  0  0  0  0  0  0  0  0  0  0
    1.9520   15.3922   -1.7563 H   0  0  0  0  0  0  0  0  0  0  0  0
   -0.2612   12.9838   -4.1231 H   0  0  0  0  0  0  0  0  0  0  0  0
    2.3689   13.3787   -5.6785 H   0  0  0  0  0  0  0  0  0  0  0  0
    0.9360   12.3812   -6.1906 H   0  0  0  0  0  0  0  0  0  0  0  0
    1.0264   14.5595   -7.3618 H   0  0  0  0  0  0  0  0  0  0  0  0
   -0.4428   14.3761   -6.3256 H   0  0  0  0  0  0  0  0  0  0  0  0
    0.4294   16.5944   -6.0414 H   0  0  0  0  0  0  0  0  0  0  0  0
    2.6420   16.7500   -5.1250 H   0  0  0  0  0  0  0  0  0  0  0  0
   -1.2030   15.8056   -2.8797 H   0  0  0  0  0  0  0  0  0  0  0  0
   -1.3081   16.7080   -4.4293 H   0  0  0  0  0  0  0  0  0  0  0  0
   -1.3710   14.9128   -4.4293 H   0  0  0  0  0  0  0  0  0  0  0  0
    1.1094   16.9316   -2.3218 H   0  0  0  0  0  0  0  0  0  0  0  0
    2.1950   17.2009   -3.7274 H   0  0  0  0  0  0  0  0  0  0  0  0
    0.5373   17.8927   -3.7274 H   0  0  0  0  0  0  0  0  0  0  0  0
    3.4956   11.4473   -3.0536 H   0  0  0  0  0  0  0  0  0  0  0  0
    2.9067   10.6357   -4.5439 H   0  0  0  0  0  0  0  0  0  0  0  0
    3.2049   12.4070   -4.5439 H   0  0  0  0  0  0  0  0  0  0  0  0
    0.2561   10.7851   -5.0533 H   0  0  0  0  0  0  0  0  0  0  0  0
    1.2087    9.7036   -3.8883 H   0  0  0  0  0  0  0  0  0  0  0  0
   -1.4921   10.9975   -3.4204 H   0  0  0  0  0  0  0  0  0  0  0  0
   -1.0924    9.2409   -3.5701 H   0  0  0  0  0  0  0  0  0  0  0  0
    0.7020    8.8357   -0.4059 H   0  0  0  0  0  0  0  0  0  0  0  0
    0.1856    8.0629   -1.9430 H   0  0  0  0  0  0  0  0  0  0  0  0
    1.5343    9.2493   -1.9430 H   0  0  0  0  0  0  0  0  0  0  0  0
  1  2  1  0
  2  3  1  0
  3  4  1  0
  4  5  1  0
  5  6  1  0
  6  7  1  0
  7  8  1  0
  7  9  1  0
  2 10  1  0
 10 11  1  0
 11 12  1  0
 12 13  1  0
 13 14  1  1
 13 15  1  0
 15 16  1  0
 16 17  1  0
 17 18  2  0
 18 19  1  0
 19 20  1  0
 20 21  1  0
 21 22  1  0
 22 23  1  0
 22 24  1  0
 24 25  1  0
 24 26  1  0
 19 27  1  0
 27 28  1  6
 27 29  1  0
 29 30  1  0
 30 31  1  0
 31 32  1  6
  7  5  1  0
 31 10  1  0
 31 13  1  0
 27 15  1  0
 24 18  1  0
  1 33  1  0
  1 34  1  0
  1 35  1  0
  2 36  1  1
  3 37  1  0
  3 38  1  0
  4 39  1  0
  4 40  1  0
  5 41  1  1
  8 42  1  0
  8 43  1  0
  8 44  1  0
  9 45  1  0
  9 46  1  0
  9 47  1  0
 10 48  1  6
 11 49  1  0
 11 50  1  0
 12 51  1  0
 12 52  1  0
 14 53  1  0
 14 54  1  0
 14 55  1  0
 15 56  1  1
 16 57  1  0
 16 58  1  0
 17 59  1  0
 19 60  1  6
 20 61  1  0
 20 62  1  0
 21 63  1  0
 21 64  1  0
 22 65  1  6
 23 66  1  0
 25 67  1  0
 25 68  1  0
 25 69  1  0
 26 70  1  0
 26 71  1  0
 26 72  1  0
 28 73  1  0
 28 74  1  0
 28 75  1  0
 29 76  1  0
 29 77  1  0
 30 78  1  0
 30 79  1  0
 32 80  1  0
 32 81  1  0
 32 82  1  0
M  END
>  <meeko>  (12) 
{"is_sidechain": [false], "intermolecular_energy": 2.731, "internal_energy": -0.839}

$$$$
EPH_relaxed_0001_pdb2pqr_Repair_413_r2_0001_out
     RDKit          3D

 82 86  0  0  0  0  0  0  0  0999 V2000
    1.6290   10.7270   -4.8640 C   0  0  0  0  0  0  0  0  0  0  0  0
    0.8800   10.5730   -3.5380 C   0  0  2  0  0  0  0  0  0  0  0  0
   -0.2960    9.5830   -3.6470 C   0  0  0  0  0  0  0  0  0  0  0  0
   -0.2560    8.4620   -2.6040 C   0  0  0  0  0  0  0  0  0  0  0  0
   -0.0750    9.0010   -1.2180 C   0  0  2  0  0  0  0  0  0  0  0  0
   -0.4110    8.0830   -0.1690 O   0  0  0  0  0  0  0  0  0  0  0  0
   -1.2260    9.2620   -0.2640 C   0  0  0  0  0  0  0  0  0  0  0  0
   -2.6440    8.9920   -0.6600 C   0  0  0  0  0  0  0  0  0  0  0  0
   -1.0190   10.2290    0.8590 C   0  0  0  0  0  0  0  0  0  0  0  0
    0.3760   11.9310   -3.0650 C   0  0  1  0  0  0  0  0  0  0  0  0
   -1.0580   11.8640   -2.4750 C   0  0  0  0  0  0  0  0  0  0  0  0
   -1.1170   12.8960   -1.3210 C   0  0  0  0  0  0  0  0  0  0  0  0
    0.1610   13.7500   -1.4960 C   0  0  1  0  0  0  0  0  0  0  0  0
   -0.1980   14.7850   -2.6080 C   0  0  0  0  0  0  0  0  0  0  0  0
    0.7060   14.4510   -0.2090 C   0  0  2  0  0  0  0  0  0  0  0  0
   -0.2450   15.4820    0.4250 C   0  0  0  0  0  0  0  0  0  0  0  0
   -0.0850   16.8830   -0.0660 C   0  0  0  0  0  0  0  0  0  0  0  0
    0.9670   17.3520   -0.7630 C   0  0  0  0  0  0  0  0  0  0  0  0
    2.1870   16.4650   -1.0410 C   0  0  1  0  0  0  0  0  0  0  0  0
    3.4840   17.2570   -0.7340 C   0  0  0  0  0  0  0  0  0  0  0  0
    3.5480   18.5870   -1.4790 C   0  0  0  0  0  0  0  0  0  0  0  0
    2.3480   19.4650   -1.1310 C   0  0  2  0  0  0  0  0  0  0  0  0
    2.4400   19.8470    0.2440 O   0  0  0  0  0  0  0  0  0  0  0  0
    0.9840   18.7680   -1.3910 C   0  0  0  0  0  0  0  0  0  0  0  0
    0.7530   18.6260   -2.9160 C   0  0  0  0  0  0  0  0  0  0  0  0
   -0.1380   19.7050   -0.8680 C   0  0  0  0  0  0  0  0  0  0  0  0
    2.1710   15.0300   -0.3570 C   0  0  1  0  0  0  0  0  0  0  0  0
    2.7620   15.1210    1.0830 C   0  0  0  0  0  0  0  0  0  0  0  0
    3.1170   14.0650   -1.1650 C   0  0  0  0  0  0  0  0  0  0  0  0
    2.4890   13.3100   -2.3530 C   0  0  0  0  0  0  0  0  0  0  0  0
    1.1770   12.6360   -1.9420 C   0  0  2  0  0  0  0  0  0  0  0  0
    1.5100   11.5730   -0.8390 C   0  0  0  0  0  0  0  0  0  0  0  0
    2.6884   10.9448   -4.6635 H   0  0  0  0  0  0  0  0  0  0  0  0
    1.5493    9.7937   -5.4407 H   0  0  0  0  0  0  0  0  0  0  0  0
    1.1875   11.5532   -5.4407 H   0  0  0  0  0  0  0  0  0  0  0  0
    1.5888   10.1633   -2.8033 H   0  0  0  0  0  0  0  0  0  0  0  0
   -1.2342   10.1429   -3.5192 H   0  0  0  0  0  0  0  0  0  0  0  0
   -0.2235    9.1053   -4.6352 H   0  0  0  0  0  0  0  0  0  0  0  0
   -1.2010    7.9006   -2.6476 H   0  0  0  0  0  0  0  0  0  0  0  0
    0.6003    7.8107   -2.8332 H   0  0  0  0  0  0  0  0  0  0  0  0
    0.7673    9.6273   -1.5471 H   0  0  0  0  0  0  0  0  0  0  0  0
   -3.2609    8.8745    0.2431 H   0  0  0  0  0  0  0  0  0  0  0  0
   -3.0246    9.8338   -1.2571 H   0  0  0  0  0  0  0  0  0  0  0  0
   -2.6886    8.0692   -1.2571 H   0  0  0  0  0  0  0  0  0  0  0  0
   -1.1312    9.7049    1.8196 H   0  0  0  0  0  0  0  0  0  0  0  0
   -0.0086   10.6585    0.7915 H   0  0  0  0  0  0  0  0  0  0  0  0
   -1.7651   11.0345    0.7915 H   0  0  0  0  0  0  0  0  0  0  0  0
    0.4659   12.4972   -4.0038 H   0  0  0  0  0  0  0  0  0  0  0  0
   -1.7978   12.1183   -3.2484 H   0  0  0  0  0  0  0  0  0  0  0  0
   -1.2876   10.8517   -2.1108 H   0  0  0  0  0  0  0  0  0  0  0  0
   -2.0173   13.5223   -1.4057 H   0  0  0  0  0  0  0  0  0  0  0  0
   -1.1653   12.4149   -0.3330 H   0  0  0  0  0  0  0  0  0  0  0  0
   -0.5244   15.7261   -2.1414 H   0  0  0  0  0  0  0  0  0  0  0  0
    0.6873   14.9734   -3.2331 H   0  0  0  0  0  0  0  0  0  0  0  0
   -1.0098   14.3848   -3.2331 H   0  0  0  0  0  0  0  0  0  0  0  0
    0.7634   13.6178    0.5069 H   0  0  0  0  0  0  0  0  0  0  0  0
   -1.2776   15.1648    0.2174 H   0  0  0  0  0  0  0  0  0  0  0  0
    0.0015   15.5049    1.4968 H   0  0  0  0  0  0  0  0  0  0  0  0
   -0.8951   17.5917    0.1609 H   0  0  0  0  0  0  0  0  0  0  0  0
    2.1459   16.2182   -2.1122 H   0  0  0  0  0  0  0  0  0  0  0  0
    3.5281   17.4559    0.3470 H   0  0  0  0  0  0  0  0  0  0  0  0
    4.3353   16.6459   -1.0684 H   0  0  0  0  0  0  0  0  0  0  0  0
    4.4725   19.1129   -1.1983 H   0  0  0  0  0  0  0  0  0  0  0  0
    3.5339   18.3851   -2.5602 H   0  0  0  0  0  0  0  0  0  0  0  0
    2.3803   20.3452   -1.7899 H   0  0  0  0  0  0  0  0  0  0  0  0
    3.0690   20.5860    0.3040 H   0  0  0  0  0  0  0  0  0  0  0  0
   -0.1715   18.0577   -3.0954 H   0  0  0  0  0  0  0  0  0  0  0  0
    0.6629   19.6249   -3.3678 H   0  0  0  0  0  0  0  0  0  0  0  0
    1.6036   18.0946   -3.3678 H   0  0  0  0  0  0  0  0  0  0  0  0
   -0.1348   19.7024    0.2320 H   0  0  0  0  0  0  0  0  0  0  0  0
    0.0386   20.7276   -1.2327 H   0  0  0  0  0  0  0  0  0  0  0  0
   -1.1128   19.3489   -1.2327 H   0  0  0  0  0  0  0  0  0  0  0  0
    1.9543   14.9966    1.8194 H   0  0  0  0  0  0  0  0  0  0  0  0
    3.5110   14.3276    1.2228 H   0  0  0  0  0  0  0  0  0  0  0  0
    3.2376   16.1030    1.2228 H   0  0  0  0  0  0  0  0  0  0  0  0
    3.9505   14.6668   -1.5563 H   0  0  0  0  0  0  0  0  0  0  0  0
    3.4095   13.2827   -0.4491 H   0  0  0  0  0  0  0  0  0  0  0  0
    2.2881   14.0226   -3.1665 H   0  0  0  0  0  0  0  0  0  0  0  0
    3.1929   12.5333   -2.6866 H   0  0  0  0  0  0  0  0  0  0  0  0
    1.3697   12.0207    0.1559 H   0  0  0  0  0  0  0  0  0  0  0  0
    0.8399   10.7077   -0.9495 H   0  0  0  0  0  0  0  0  0  0  0  0
    2.5540   11.2447   -0.9495 H   0  0  0  0  0  0  0  0  0  0  0  0
  1  2  1  0
  2  3  1  0
  3  4  1  0
  4  5  1  0
  5  6  1  0
  6  7  1  0
  7  8  1  0
  7  9  1  0
  2 10  1  0
 10 11  1  0
 11 12  1  0
 12 13  1  0
 13 14  1  6
 13 15  1  0
 15 16  1  0
 16 17  1  0
 17 18  2  0
 18 19  1  0
 19 20  1  0
 20 21  1  0
 21 22  1  0
 22 23  1  0
 22 24  1  0
 24 25  1  0
 24 26  1  0
 19 27  1  0
 27 28  1  1
 27 29  1  0
 29 30  1  0
 30 31  1  0
 31 32  1  1
  7  5  1  0
 31 10  1  0
 31 13  1  0
 27 15  1  0
 24 18  1  0
  1 33  1  0
  1 34  1  0
  1 35  1  0
  2 36  1  1
  3 37  1  0
  3 38  1  0
  4 39  1  0
  4 40  1  0
  5 41  1  1
  8 42  1  0
  8 43  1  0
  8 44  1  0
  9 45  1  0
  9 46  1  0
  9 47  1  0
 10 48  1  6
 11 49  1  0
 11 50  1  0
 12 51  1  0
 12 52  1  0
 14 53  1  0
 14 54  1  0
 14 55  1  0
 15 56  1  1
 16 57  1  0
 16 58  1  0
 17 59  1  0
 19 60  1  6
 20 61  1  0
 20 62  1  0
 21 63  1  0
 21 64  1  0
 22 65  1  6
 23 66  1  0
 25 67  1  0
 25 68  1  0
 25 69  1  0
 26 70  1  0
 26 71  1  0
 26 72  1  0
 28 73  1  0
 28 74  1  0
 28 75  1  0
 29 76  1  0
 29 77  1  0
 30 78  1  0
 30 79  1  0
 32 80  1  0
 32 81  1  0
 32 82  1  0
M  END
>  <meeko>  (13) 
{"is_sidechain": [false], "intermolecular_energy": 2.731, "internal_energy": -0.839}

$$$$
EPH_relaxed_0001_pdb2pqr_Repair_413_r2_0001_out
     RDKit          3D

 82 86  0  0  0  0  0  0  0  0999 V2000
   -3.7550    7.2690   -3.0750 C   0  0  0  0  0  0  0  0  0  0  0  0
   -3.6160    7.4150   -1.5570 C   0  0  2  0  0  0  0  0  0  0  0  0
   -4.9460    7.1470   -0.8240 C   0  0  0  0  0  0  0  0  0  0  0  0
   -6.1150    6.8390   -1.7640 C   0  0  0  0  0  0  0  0  0  0  0  0
   -7.3760    6.5580   -1.0050 C   0  0  2  0  0  0  0  0  0  0  0  0
   -8.3020    5.6960   -1.6790 O   0  0  0  0  0  0  0  0  0  0  0  0
   -8.7440    7.0430   -1.4470 C   0  0  0  0  0  0  0  0  0  0  0  0
   -8.9200    7.8500   -2.6950 C   0  0  0  0  0  0  0  0  0  0  0  0
   -9.8300    7.1520   -0.4230 C   0  0  0  0  0  0  0  0  0  0  0  0
   -3.1030    8.8080   -1.2140 C   0  0  1  0  0  0  0  0  0  0  0  0
   -3.3380    9.1810    0.2740 C   0  0  0  0  0  0  0  0  0  0  0  0
   -2.1300   10.0470    0.7150 C   0  0  0  0  0  0  0  0  0  0  0  0
   -1.4150   10.4200   -0.6050 C   0  0  1  0  0  0  0  0  0  0  0  0
   -2.2300   11.6220   -1.1770 C   0  0  0  0  0  0  0  0  0  0  0  0
    0.1080   10.7550   -0.4960 C   0  0  2  0  0  0  0  0  0  0  0  0
    0.4460   11.9810    0.3710 C   0  0  0  0  0  0  0  0  0  0  0  0
    0.4990   13.2820   -0.3590 C   0  0  0  0  0  0  0  0  0  0  0  0
    0.5670   13.4270   -1.6960 C   0  0  0  0  0  0  0  0  0  0  0  0
    0.6940   12.2060   -2.6150 C   0  0  1  0  0  0  0  0  0  0  0  0
    1.8020   12.4650   -3.6700 C   0  0  0  0  0  0  0  0  0  0  0  0
    1.5780   13.7590   -4.4460 C   0  0  0  0  0  0  0  0  0  0  0  0
    1.5150   14.9580   -3.5030 C   0  0  2  0  0  0  0  0  0  0  0  0
    2.8030   15.1430   -2.9060 O   0  0  0  0  0  0  0  0  0  0  0  0
    0.4410   14.8050   -2.3900 C   0  0  0  0  0  0  0  0  0  0  0  0
   -0.9730   14.9080   -3.0150 C   0  0  0  0  0  0  0  0  0  0  0  0
    0.5770   16.0140   -1.4260 C   0  0  0  0  0  0  0  0  0  0  0  0
    0.8620   10.8040   -1.8860 C   0  0  1  0  0  0  0  0  0  0  0  0
    2.3690   10.5380   -1.5840 C   0  0  0  0  0  0  0  0  0  0  0  0
    0.3960    9.6580   -2.8600 C   0  0  0  0  0  0  0  0  0  0  0  0
   -1.1000    9.2920   -2.8360 C   0  0  0  0  0  0  0  0  0  0  0  0
   -1.5880    9.0750   -1.4000 C   0  0  2  0  0  0  0  0  0  0  0  0
   -0.8020    7.8560   -0.8070 C   0  0  0  0  0  0  0  0  0  0  0  0
   -4.4972    6.4895   -3.3019 H   0  0  0  0  0  0  0  0  0  0  0  0
   -4.0843    8.2256   -3.5067 H   0  0  0  0  0  0  0  0  0  0  0  0
   -2.7834    6.9870   -3.5067 H   0  0  0  0  0  0  0  0  0  0  0  0
   -2.8934    6.6589   -1.2161 H   0  0  0  0  0  0  0  0  0  0  0  0
   -4.8051    6.2878   -0.1517 H   0  0  0  0  0  0  0  0  0  0  0  0
   -5.2046    8.0673   -0.2798 H   0  0  0  0  0  0  0  0  0  0  0  0
   -6.2805    7.7043   -2.4227 H   0  0  0  0  0  0  0  0  0  0  0  0
   -5.8589    5.9428   -2.3481 H   0  0  0  0  0  0  0  0  0  0  0  0
   -6.8420    6.6292   -0.0460 H   0  0  0  0  0  0  0  0  0  0  0  0
   -9.1474    8.8927   -2.4284 H   0  0  0  0  0  0  0  0  0  0  0  0
   -7.9935    7.8166   -3.2870 H   0  0  0  0  0  0  0  0  0  0  0  0
   -9.7485    7.4339   -3.2870 H   0  0  0  0  0  0  0  0  0  0  0  0
   -9.3900    7.1078    0.5842 H   0  0  0  0  0  0  0  0  0  0  0  0
  -10.3594    8.1078   -0.5503 H   0  0  0  0  0  0  0  0  0  0  0  0
  -10.5388    6.3205   -0.5503 H   0  0  0  0  0  0  0  0  0  0  0  0
   -3.6811    9.4003   -1.9386 H   0  0  0  0  0  0  0  0  0  0  0  0
   -4.2719    9.7528    0.3781 H   0  0  0  0  0  0  0  0  0  0  0  0
   -3.4258    8.2792    0.8978 H   0  0  0  0  0  0  0  0  0  0  0  0
   -2.4715   10.9510    1.2406 H   0  0  0  0  0  0  0  0  0  0  0  0
   -1.4670    9.5140    1.4124 H   0  0  0  0  0  0  0  0  0  0  0  0
   -2.6347   12.2189   -0.3464 H   0  0  0  0  0  0  0  0  0  0  0  0
   -1.5714   12.2511   -1.7938 H   0  0  0  0  0  0  0  0  0  0  0  0
   -3.0582   11.2430   -1.7938 H   0  0  0  0  0  0  0  0  0  0  0  0
    0.5024    9.8853    0.0500 H   0  0  0  0  0  0  0  0  0  0  0  0
   -0.3191   12.0630    1.1570 H   0  0  0  0  0  0  0  0  0  0  0  0
    1.4602   11.8086    0.7604 H   0  0  0  0  0  0  0  0  0  0  0  0
    0.4810   14.2001    0.2466 H   0  0  0  0  0  0  0  0  0  0  0  0
   -0.2800   12.0991   -3.1148 H   0  0  0  0  0  0  0  0  0  0  0  0
    2.7722   12.5257   -3.1552 H   0  0  0  0  0  0  0  0  0  0  0  0
    1.7782   11.6344   -4.3908 H   0  0  0  0  0  0  0  0  0  0  0  0
    2.4072   13.9017   -5.1546 H   0  0  0  0  0  0  0  0  0  0  0  0
    0.6209   13.6846   -4.9831 H   0  0  0  0  0  0  0  0  0  0  0  0
    1.2248   15.8341   -4.1015 H   0  0  0  0  0  0  0  0  0  0  0  0
    3.3320   15.6880   -3.5130 H   0  0  0  0  0  0  0  0  0  0  0  0
   -1.7249   14.9628   -2.2139 H   0  0  0  0  0  0  0  0  0  0  0  0
   -1.0338   15.8130   -3.6374 H   0  0  0  0  0  0  0  0  0  0  0  0
   -1.1643   14.0214   -3.6374 H   0  0  0  0  0  0  0  0  0  0  0  0
    0.5371   15.6595   -0.3854 H   0  0  0  0  0  0  0  0  0  0  0  0
    1.5376   16.5192   -1.6047 H   0  0  0  0  0  0  0  0  0  0  0  0
   -0.2474   16.7200   -1.6047 H   0  0  0  0  0  0  0  0  0  0  0  0
    2.5255   10.5104   -0.4955 H   0  0  0  0  0  0  0  0  0  0  0  0
    2.6660    9.5735   -2.0217 H   0  0  0  0  0  0  0  0  0  0  0  0
    2.9782   11.3425   -2.0217 H   0  0  0  0  0  0  0  0  0  0  0  0
    0.6459    9.9701   -3.8848 H   0  0  0  0  0  0  0  0  0  0  0  0
    0.9190    8.7547   -2.5129 H   0  0  0  0  0  0  0  0  0  0  0  0
   -1.6778   10.1089   -3.2929 H   0  0  0  0  0  0  0  0  0  0  0  0
   -1.2419    8.3582   -3.3998 H   0  0  0  0  0  0  0  0  0  0  0  0
   -0.8308    7.9006    0.2917 H   0  0  0  0  0  0  0  0  0  0  0  0
   -1.2666    6.9191   -1.1482 H   0  0  0  0  0  0  0  0  0  0  0  0
    0.2431    7.8925   -1.1482 H   0  0  0  0  0  0  0  0  0  0  0  0
  1  2  1  0
  2  3  1  0
  3  4  1  0
  4  5  1  0
  5  6  1  0
  6  7  1  0
  7  8  1  0
  7  9  1  0
  2 10  1  0
 10 11  1  0
 11 12  1  0
 12 13  1  0
 13 14  1  6
 13 15  1  0
 15 16  1  0
 16 17  1  0
 17 18  2  0
 18 19  1  0
 19 20  1  0
 20 21  1  0
 21 22  1  0
 22 23  1  0
 22 24  1  0
 24 25  1  0
 24 26  1  0
 19 27  1  0
 27 28  1  1
 27 29  1  0
 29 30  1  0
 30 31  1  0
 31 32  1  1
  7  5  1  0
 31 10  1  0
 31 13  1  0
 27 15  1  0
 24 18  1  0
  1 33  1  0
  1 34  1  0
  1 35  1  0
  2 36  1  1
  3 37  1  0
  3 38  1  0
  4 39  1  0
  4 40  1  0
  5 41  1  1
  8 42  1  0
  8 43  1  0
  8 44  1  0
  9 45  1  0
  9 46  1  0
  9 47  1  0
 10 48  1  6
 11 49  1  0
 11 50  1  0
 12 51  1  0
 12 52  1  0
 14 53  1  0
 14 54  1  0
 14 55  1  0
 15 56  1  1
 16 57  1  0
 16 58  1  0
 17 59  1  0
 19 60  1  6
 20 61  1  0
 20 62  1  0
 21 63  1  0
 21 64  1  0
 22 65  1  6
 23 66  1  0
 25 67  1  0
 25 68  1  0
 25 69  1  0
 26 70  1  0
 26 71  1  0
 26 72  1  0
 28 73  1  0
 28 74  1  0
 28 75  1  0
 29 76  1  0
 29 77  1  0
 30 78  1  0
 30 79  1  0
 32 80  1  0
 32 81  1  0
 32 82  1  0
M  END
>  <meeko>  (14) 
{"is_sidechain": [false], "intermolecular_energy": 2.731, "internal_energy": -0.839}

$$$$
EPH_relaxed_0001_pdb2pqr_Repair_413_r2_0001_out
     RDKit          3D

 82 86  0  0  0  0  0  0  0  0999 V2000
    0.8780   14.7930   -2.5750 C   0  0  0  0  0  0  0  0  0  0  0  0
    1.1590   14.1210   -3.9220 C   0  0  2  0  0  0  0  0  0  0  0  0
    0.4870   14.8650   -5.0940 C   0  0  0  0  0  0  0  0  0  0  0  0
    1.1250   14.5730   -6.4550 C   0  0  0  0  0  0  0  0  0  0  0  0
    0.8760   15.6810   -7.4330 C   0  0  2  0  0  0  0  0  0  0  0  0
    0.3850   15.2520   -8.7100 O   0  0  0  0  0  0  0  0  0  0  0  0
    1.6820   15.8710   -8.7040 C   0  0  0  0  0  0  0  0  0  0  0  0
    2.8000   14.9450   -9.0650 C   0  0  0  0  0  0  0  0  0  0  0  0
    1.7060   17.2260   -9.3400 C   0  0  0  0  0  0  0  0  0  0  0  0
    0.6890   12.6720   -3.8880 C   0  0  1  0  0  0  0  0  0  0  0  0
    1.8160   11.6690   -4.2540 C   0  0  0  0  0  0  0  0  0  0  0  0
    1.5840   10.4010   -3.3940 C   0  0  0  0  0  0  0  0  0  0  0  0
    0.1610   10.5780   -2.8140 C   0  0  1  0  0  0  0  0  0  0  0  0
   -0.7980   10.1290   -3.9610 C   0  0  0  0  0  0  0  0  0  0  0  0
   -0.1410    9.8210   -1.4800 C   0  0  2  0  0  0  0  0  0  0  0  0
   -0.0540    8.2870   -1.5660 C   0  0  0  0  0  0  0  0  0  0  0  0
   -1.3290    7.5950   -1.9200 C   0  0  0  0  0  0  0  0  0  0  0  0
   -2.5560    8.1470   -1.8810 C   0  0  0  0  0  0  0  0  0  0  0  0
   -2.7610    9.5730   -1.3540 C   0  0  1  0  0  0  0  0  0  0  0  0
   -3.9610    9.5940   -0.3710 C   0  0  0  0  0  0  0  0  0  0  0  0
   -5.2300    9.0100   -0.9840 C   0  0  0  0  0  0  0  0  0  0  0  0
   -5.0020    7.5720   -1.4420 C   0  0  2  0  0  0  0  0  0  0  0  0
   -4.7780    6.7510   -0.2920 O   0  0  0  0  0  0  0  0  0  0  0  0
   -3.8110    7.4250   -2.4300 C   0  0  0  0  0  0  0  0  0  0  0  0
   -4.1820    8.0630   -3.7910 C   0  0  0  0  0  0  0  0  0  0  0  0
   -3.6010    5.9110   -2.7020 C   0  0  0  0  0  0  0  0  0  0  0  0
   -1.4710   10.2850   -0.7580 C   0  0  1  0  0  0  0  0  0  0  0  0
   -1.3100    9.9190    0.7490 C   0  0  0  0  0  0  0  0  0  0  0  0
   -1.6710   11.8450   -0.8180 C   0  0  0  0  0  0  0  0  0  0  0  0
   -1.2430   12.5510   -2.1180 C   0  0  0  0  0  0  0  0  0  0  0  0
    0.1680   12.1250   -2.5350 C   0  0  2  0  0  0  0  0  0  0  0  0
    1.1580   12.5830   -1.4100 C   0  0  0  0  0  0  0  0  0  0  0  0
    1.1627   14.1123   -1.7592 H   0  0  0  0  0  0  0  0  0  0  0  0
    1.4634   15.7212   -2.4991 H   0  0  0  0  0  0  0  0  0  0  0  0
   -0.1939   15.0282   -2.4991 H   0  0  0  0  0  0  0  0  0  0  0  0
    2.2458   14.1558   -4.0884 H   0  0  0  0  0  0  0  0  0  0  0  0
   -0.5706   14.5654   -5.1348 H   0  0  0  0  0  0  0  0  0  0  0  0
    0.6112   15.9415   -4.9050 H   0  0  0  0  0  0  0  0  0  0  0  0
    2.2102   14.4525   -6.3215 H   0  0  0  0  0  0  0  0  0  0  0  0
    0.6727   13.6538   -6.8557 H   0  0  0  0  0  0  0  0  0  0  0  0
    0.6076   16.3713   -6.6197 H   0  0  0  0  0  0  0  0  0  0  0  0
    3.2668   14.5584   -8.1470 H   0  0  0  0  0  0  0  0  0  0  0  0
    2.4048   14.1062   -9.6567 H   0  0  0  0  0  0  0  0  0  0  0  0
    3.5506   15.4895   -9.6567 H   0  0  0  0  0  0  0  0  0  0  0  0
    1.7197   17.9984   -8.5569 H   0  0  0  0  0  0  0  0  0  0  0  0
    2.6060   17.3217   -9.9652 H   0  0  0  0  0  0  0  0  0  0  0  0
    0.8100   17.3535   -9.9652 H   0  0  0  0  0  0  0  0  0  0  0  0
   -0.1353   12.7288   -4.6142 H   0  0  0  0  0  0  0  0  0  0  0  0
    1.7650   11.4158   -5.3233 H   0  0  0  0  0  0  0  0  0  0  0  0
    2.8082   12.1020   -4.0589 H   0  0  0  0  0  0  0  0  0  0  0  0
    1.6403    9.4949   -4.0151 H   0  0  0  0  0  0  0  0  0  0  0  0
    2.3439   10.2859   -2.6071 H   0  0  0  0  0  0  0  0  0  0  0  0
   -1.7134    9.7004   -3.5269 H   0  0  0  0  0  0  0  0  0  0  0  0
   -1.0590   10.9985   -4.5822 H   0  0  0  0  0  0  0  0  0  0  0  0
   -0.2974    9.3717   -4.5822 H   0  0  0  0  0  0  0  0  0  0  0  0
    0.6961   10.1321   -0.8377 H   0  0  0  0  0  0  0  0  0  0  0  0
    0.6950    8.0313   -2.3299 H   0  0  0  0  0  0  0  0  0  0  0  0
    0.2106    7.9400   -0.5563 H   0  0  0  0  0  0  0  0  0  0  0  0
   -1.2596    6.5448   -2.2398 H   0  0  0  0  0  0  0  0  0  0  0  0
   -2.9883   10.1924   -2.2341 H   0  0  0  0  0  0  0  0  0  0  0  0
   -3.6970    9.0058    0.5202 H   0  0  0  0  0  0  0  0  0  0  0  0
   -4.1659   10.6444   -0.1169 H   0  0  0  0  0  0  0  0  0  0  0  0
   -6.0331    9.0255   -0.2324 H   0  0  0  0  0  0  0  0  0  0  0  0
   -5.5096    9.6169   -1.8578 H   0  0  0  0  0  0  0  0  0  0  0  0
   -5.9026    7.2533   -1.9873 H   0  0  0  0  0  0  0  0  0  0  0  0
   -5.6420    6.4200    0.0070 H   0  0  0  0  0  0  0  0  0  0  0  0
   -4.7282    9.0022   -3.6189 H   0  0  0  0  0  0  0  0  0  0  0  0
   -3.2643    8.2715   -4.3605 H   0  0  0  0  0  0  0  0  0  0  0  0
   -4.8171    7.3686   -4.3605 H   0  0  0  0  0  0  0  0  0  0  0  0
   -3.5264    5.3735   -1.7452 H   0  0  0  0  0  0  0  0  0  0  0  0
   -4.4535    5.5200   -3.2768 H   0  0  0  0  0  0  0  0  0  0  0  0
   -2.6743    5.7668   -3.2768 H   0  0  0  0  0  0  0  0  0  0  0  0
   -1.6758   10.7505    1.3694 H   0  0  0  0  0  0  0  0  0  0  0  0
   -1.8924    9.0125    0.9704 H   0  0  0  0  0  0  0  0  0  0  0  0
   -0.2482    9.7358    0.9704 H   0  0  0  0  0  0  0  0  0  0  0  0
   -2.7410   12.0493   -0.6652 H   0  0  0  0  0  0  0  0  0  0  0  0
   -1.0082   12.2501   -0.0391 H   0  0  0  0  0  0  0  0  0  0  0  0
   -1.9495   12.2886   -2.9192 H   0  0  0  0  0  0  0  0  0  0  0  0
   -1.2441   13.6371   -1.9437 H   0  0  0  0  0  0  0  0  0  0  0  0
    0.7139   12.3775   -0.4248 H   0  0  0  0  0  0  0  0  0  0  0  0
    2.1046   12.0313   -1.5077 H   0  0  0  0  0  0  0  0  0  0  0  0
    1.3504   13.6616   -1.5077 H   0  0  0  0  0  0  0  0  0  0  0  0
  1  2  1  0
  2  3  1  0
  3  4  1  0
  4  5  1  0
  5  6  1  0
  6  7  1  0
  7  8  1  0
  7  9  1  0
  2 10  1  0
 10 11  1  0
 11 12  1  0
 12 13  1  0
 13 14  1  6
 13 15  1  0
 15 16  1  0
 16 17  1  0
 17 18  2  0
 18 19  1  0
 19 20  1  0
 20 21  1  0
 21 22  1  0
 22 23  1  0
 22 24  1  0
 24 25  1  0
 24 26  1  0
 19 27  1  0
 27 28  1  1
 27 29  1  0
 29 30  1  0
 30 31  1  0
 31 32  1  1
  7  5  1  0
 31 10  1  0
 31 13  1  0
 27 15  1  0
 24 18  1  0
  1 33  1  0
  1 34  1  0
  1 35  1  0
  2 36  1  6
  3 37  1  0
  3 38  1  0
  4 39  1  0
  4 40  1  0
  5 41  1  1
  8 42  1  0
  8 43  1  0
  8 44  1  0
  9 45  1  0
  9 46  1  0
  9 47  1  0
 10 48  1  6
 11 49  1  0
 11 50  1  0
 12 51  1  0
 12 52  1  0
 14 53  1  0
 14 54  1  0
 14 55  1  0
 15 56  1  1
 16 57  1  0
 16 58  1  0
 17 59  1  0
 19 60  1  6
 20 61  1  0
 20 62  1  0
 21 63  1  0
 21 64  1  0
 22 65  1  6
 23 66  1  0
 25 67  1  0
 25 68  1  0
 25 69  1  0
 26 70  1  0
 26 71  1  0
 26 72  1  0
 28 73  1  0
 28 74  1  0
 28 75  1  0
 29 76  1  0
 29 77  1  0
 30 78  1  0
 30 79  1  0
 32 80  1  0
 32 81  1  0
 32 82  1  0
M  END
>  <meeko>  (15) 
{"is_sidechain": [false], "intermolecular_energy": 2.731, "internal_energy": -0.839}

$$$$
EPH_relaxed_0001_pdb2pqr_Repair_413_r2_0001_out
     RDKit          3D

 82 86  0  0  0  0  0  0  0  0999 V2000
  -14.4770    5.4710    0.3830 C   0  0  0  0  0  0  0  0  0  0  0  0
  -13.8990    6.8830    0.2570 C   0  0  2  0  0  0  0  0  0  0  0  0
  -14.9880    7.9310   -0.0500 C   0  0  0  0  0  0  0  0  0  0  0  0
  -14.5220    9.3770    0.1420 C   0  0  0  0  0  0  0  0  0  0  0  0
  -15.2580   10.3200   -0.7610 C   0  0  2  0  0  0  0  0  0  0  0  0
  -15.2150    9.9740   -2.1520 O   0  0  0  0  0  0  0  0  0  0  0  0
  -14.5710   11.2050   -1.7850 C   0  0  0  0  0  0  0  0  0  0  0  0
  -13.0850   11.1890   -1.9580 C   0  0  0  0  0  0  0  0  0  0  0  0
  -15.2870   12.4270   -2.2690 C   0  0  0  0  0  0  0  0  0  0  0  0
  -12.8290    6.9120   -0.8290 C   0  0  1  0  0  0  0  0  0  0  0  0
  -13.1900    7.8660   -1.9980 C   0  0  0  0  0  0  0  0  0  0  0  0
  -11.8590    8.4890   -2.4930 C   0  0  0  0  0  0  0  0  0  0  0  0
  -10.7560    7.6350   -1.8260 C   0  0  1  0  0  0  0  0  0  0  0  0
  -10.6380    6.3620   -2.7210 C   0  0  0  0  0  0  0  0  0  0  0  0
   -9.3700    8.3300   -1.6260 C   0  0  2  0  0  0  0  0  0  0  0  0
   -8.6600    8.7550   -2.9230 C   0  0  0  0  0  0  0  0  0  0  0  0
   -7.7470    7.7330   -3.5140 C   0  0  0  0  0  0  0  0  0  0  0  0
   -7.2850    6.6380   -2.8820 C   0  0  0  0  0  0  0  0  0  0  0  0
   -7.6020    6.3900   -1.4020 C   0  0  1  0  0  0  0  0  0  0  0  0
   -6.3050    5.9770   -0.6570 C   0  0  0  0  0  0  0  0  0  0  0  0
   -5.6090    4.7880   -1.3120 C   0  0  0  0  0  0  0  0  0  0  0  0
   -5.2580    5.0940   -2.7650 C   0  0  2  0  0  0  0  0  0  0  0  0
   -4.2630    6.1220   -2.7930 O   0  0  0  0  0  0  0  0  0  0  0  0
   -6.4850    5.5310   -3.6130 C   0  0  0  0  0  0  0  0  0  0  0  0
   -7.4230    4.3190   -3.8350 C   0  0  0  0  0  0  0  0  0  0  0  0
   -5.9710    5.9460   -5.0180 C   0  0  0  0  0  0  0  0  0  0  0  0
   -8.3890    7.5530   -0.6580 C   0  0  1  0  0  0  0  0  0  0  0  0
   -7.3820    8.6080   -0.1040 C   0  0  0  0  0  0  0  0  0  0  0  0
   -9.1340    6.9520    0.5920 C   0  0  0  0  0  0  0  0  0  0  0  0
  -10.5480    6.3880    0.3540 C   0  0  0  0  0  0  0  0  0  0  0  0
  -11.4130    7.3880   -0.4190 C   0  0  2  0  0  0  0  0  0  0  0  0
  -11.5680    8.6720    0.4670 C   0  0  0  0  0  0  0  0  0  0  0  0
  -14.5831    5.2118    1.4468 H   0  0  0  0  0  0  0  0  0  0  0  0
  -15.4628    5.4336   -0.1036 H   0  0  0  0  0  0  0  0  0  0  0  0
  -13.8004    4.7531   -0.1036 H   0  0  0  0  0  0  0  0  0  0  0  0
  -13.4519    7.1449    1.2273 H   0  0  0  0  0  0  0  0  0  0  0  0
  -15.3068    7.8047   -1.0952 H   0  0  0  0  0  0  0  0  0  0  0  0
  -15.8085    7.7603    0.6625 H   0  0  0  0  0  0  0  0  0  0  0  0
  -14.6983    9.6728    1.1867 H   0  0  0  0  0  0  0  0  0  0  0  0
  -13.4517    9.4287   -0.1065 H   0  0  0  0  0  0  0  0  0  0  0  0
  -15.9942   10.5373    0.0269 H   0  0  0  0  0  0  0  0  0  0  0  0
  -12.6009   11.1838   -0.9703 H   0  0  0  0  0  0  0  0  0  0  0  0
  -12.7904   10.2876   -2.5155 H   0  0  0  0  0  0  0  0  0  0  0  0
  -12.7711   12.0838   -2.5155 H   0  0  0  0  0  0  0  0  0  0  0  0
  -15.6319   13.0157   -1.4062 H   0  0  0  0  0  0  0  0  0  0  0  0
  -14.6027   13.0357   -2.8783 H   0  0  0  0  0  0  0  0  0  0  0  0
  -16.1526   12.1276   -2.8783 H   0  0  0  0  0  0  0  0  0  0  0  0
  -12.8050    5.8444   -1.0930 H   0  0  0  0  0  0  0  0  0  0  0  0
  -13.6708    7.3032   -2.8117 H   0  0  0  0  0  0  0  0  0  0  0  0
  -13.8933    8.6454   -1.6695 H   0  0  0  0  0  0  0  0  0  0  0  0
  -11.7865    8.4295   -3.5890 H   0  0  0  0  0  0  0  0  0  0  0  0
  -11.7755    9.5546   -2.2332 H   0  0  0  0  0  0  0  0  0  0  0  0
  -10.5554    5.4707   -2.0817 H   0  0  0  0  0  0  0  0  0  0  0  0
  -11.5320    6.2761   -3.3561 H   0  0  0  0  0  0  0  0  0  0  0  0
   -9.7434    6.4419   -3.3561 H   0  0  0  0  0  0  0  0  0  0  0  0
   -9.6465    9.2650   -1.1168 H   0  0  0  0  0  0  0  0  0  0  0  0
   -9.4312    8.9944   -3.6699 H   0  0  0  0  0  0  0  0  0  0  0  0
   -8.0248    9.6123   -2.6555 H   0  0  0  0  0  0  0  0  0  0  0  0
   -7.4243    7.8877   -4.5542 H   0  0  0  0  0  0  0  0  0  0  0  0
   -8.3250    5.5613   -1.3800 H   0  0  0  0  0  0  0  0  0  0  0  0
   -5.6132    6.8322   -0.6525 H   0  0  0  0  0  0  0  0  0  0  0  0
   -6.5862    5.6791    0.3639 H   0  0  0  0  0  0  0  0  0  0  0  0
   -4.6856    4.5618   -0.7586 H   0  0  0  0  0  0  0  0  0  0  0  0
   -6.2918    3.9258   -1.2899 H   0  0  0  0  0  0  0  0  0  0  0  0
   -4.8807    4.1641   -3.2155 H   0  0  0  0  0  0  0  0  0  0  0  0
   -3.4500    5.7350   -3.1610 H   0  0  0  0  0  0  0  0  0  0  0  0
   -7.7361    3.9145   -2.8612 H   0  0  0  0  0  0  0  0  0  0  0  0
   -8.3099    4.6405   -4.4008 H   0  0  0  0  0  0  0  0  0  0  0  0
   -6.8893    3.5411   -4.4008 H   0  0  0  0  0  0  0  0  0  0  0  0
   -5.1194    6.6336   -4.9085 H   0  0  0  0  0  0  0  0  0  0  0  0
   -5.6505    5.0504   -5.5705 H   0  0  0  0  0  0  0  0  0  0  0  0
   -6.7789    6.4480   -5.5705 H   0  0  0  0  0  0  0  0  0  0  0  0
   -7.3996    8.5896    0.9957 H   0  0  0  0  0  0  0  0  0  0  0  0
   -6.3685    8.3690   -0.4585 H   0  0  0  0  0  0  0  0  0  0  0  0
   -7.6679    9.6093   -0.4585 H   0  0  0  0  0  0  0  0  0  0  0  0
   -8.5127    6.1356    0.9887 H   0  0  0  0  0  0  0  0  0  0  0  0
   -9.2745    7.8002    1.2782 H   0  0  0  0  0  0  0  0  0  0  0  0
  -10.4711    5.4557   -0.2248 H   0  0  0  0  0  0  0  0  0  0  0  0
  -11.0188    6.1971    1.3297 H   0  0  0  0  0  0  0  0  0  0  0  0
  -11.5340    8.3904    1.5298 H   0  0  0  0  0  0  0  0  0  0  0  0
  -10.7477    9.3709    0.2464 H   0  0  0  0  0  0  0  0  0  0  0  0
  -12.5310    9.1556    0.2464 H   0  0  0  0  0  0  0  0  0  0  0  0
  1  2  1  0
  2  3  1  0
  3  4  1  0
  4  5  1  0
  5  6  1  0
  6  7  1  0
  7  8  1  0
  7  9  1  0
  2 10  1  0
 10 11  1  0
 11 12  1  0
 12 13  1  0
 13 14  1  6
 13 15  1  0
 15 16  1  0
 16 17  1  0
 17 18  2  0
 18 19  1  0
 19 20  1  0
 20 21  1  0
 21 22  1  0
 22 23  1  0
 22 24  1  0
 24 25  1  0
 24 26  1  0
 19 27  1  0
 27 28  1  1
 27 29  1  0
 29 30  1  0
 30 31  1  0
 31 32  1  1
  7  5  1  0
 31 10  1  0
 31 13  1  0
 27 15  1  0
 24 18  1  0
  1 33  1  0
  1 34  1  0
  1 35  1  0
  2 36  1  1
  3 37  1  0
  3 38  1  0
  4 39  1  0
  4 40  1  0
  5 41  1  1
  8 42  1  0
  8 43  1  0
  8 44  1  0
  9 45  1  0
  9 46  1  0
  9 47  1  0
 10 48  1  6
 11 49  1  0
 11 50  1  0
 12 51  1  0
 12 52  1  0
 14 53  1  0
 14 54  1  0
 14 55  1  0
 15 56  1  1
 16 57  1  0
 16 58  1  0
 17 59  1  0
 19 60  1  6
 20 61  1  0
 20 62  1  0
 21 63  1  0
 21 64  1  0
 22 65  1  6
 23 66  1  0
 25 67  1  0
 25 68  1  0
 25 69  1  0
 26 70  1  0
 26 71  1  0
 26 72  1  0
 28 73  1  0
 28 74  1  0
 28 75  1  0
 29 76  1  0
 29 77  1  0
 30 78  1  0
 30 79  1  0
 32 80  1  0
 32 81  1  0
 32 82  1  0
M  END
>  <meeko>  (16) 
{"is_sidechain": [false], "intermolecular_energy": 2.731, "internal_energy": -0.839}

$$$$
EPH_relaxed_0001_pdb2pqr_Repair_413_r2_0001_out
     RDKit          3D

 82 86  0  0  0  0  0  0  0  0999 V2000
   -2.0240   14.4420    0.1060 C   0  0  0  0  0  0  0  0  0  0  0  0
   -0.6890   15.1050    0.4550 C   0  0  2  0  0  0  0  0  0  0  0  0
   -0.4880   16.4360   -0.2960 C   0  0  0  0  0  0  0  0  0  0  0  0
    0.9820   16.8130   -0.4980 C   0  0  0  0  0  0  0  0  0  0  0  0
    1.2160   18.2760   -0.2710 C   0  0  2  0  0  0  0  0  0  0  0  0
    2.1170   18.8900   -1.2020 O   0  0  0  0  0  0  0  0  0  0  0  0
    2.5490   18.8520    0.1670 C   0  0  0  0  0  0  0  0  0  0  0  0
    3.7380   17.9750    0.4060 C   0  0  0  0  0  0  0  0  0  0  0  0
    2.5650   20.1940    0.8310 C   0  0  0  0  0  0  0  0  0  0  0  0
    0.4600   14.1530    0.1440 C   0  0  1  0  0  0  0  0  0  0  0  0
    0.6730   13.0900    1.2550 C   0  0  0  0  0  0  0  0  0  0  0  0
    1.1230   11.7870    0.5460 C   0  0  0  0  0  0  0  0  0  0  0  0
    1.4740   12.2270   -0.8950 C   0  0  1  0  0  0  0  0  0  0  0  0
    2.9150   12.8190   -0.7940 C   0  0  0  0  0  0  0  0  0  0  0  0
    1.3800   11.1220   -1.9970 C   0  0  2  0  0  0  0  0  0  0  0  0
    2.3430    9.9360   -1.8160 C   0  0  0  0  0  0  0  0  0  0  0  0
    3.6720   10.0870   -2.4780 C   0  0  0  0  0  0  0  0  0  0  0  0
    3.9780   10.9980   -3.4210 C   0  0  0  0  0  0  0  0  0  0  0  0
    2.9040   11.9380   -3.9850 C   0  0  1  0  0  0  0  0  0  0  0  0
    3.0070   11.9720   -5.5320 C   0  0  0  0  0  0  0  0  0  0  0  0
    4.4090   12.3290   -6.0180 C   0  0  0  0  0  0  0  0  0  0  0  0
    5.4400   11.3390   -5.4830 C   0  0  2  0  0  0  0  0  0  0  0  0
    5.1970   10.0580   -6.0740 O   0  0  0  0  0  0  0  0  0  0  0  0
    5.4230   11.2120   -3.9340 C   0  0  0  0  0  0  0  0  0  0  0  0
    5.9770   12.5110   -3.3000 C   0  0  0  0  0  0  0  0  0  0  0  0
    6.4090   10.0800   -3.5370 C   0  0  0  0  0  0  0  0  0  0  0  0
    1.4200   11.6790   -3.4780 C   0  0  1  0  0  0  0  0  0  0  0  0
    0.7300   10.6070   -4.3760 C   0  0  0  0  0  0  0  0  0  0  0  0
    0.5830   13.0020   -3.6430 C   0  0  0  0  0  0  0  0  0  0  0  0
    0.6210   13.9990   -2.4690 C   0  0  0  0  0  0  0  0  0  0  0  0
    0.3440   13.2920   -1.1390 C   0  0  2  0  0  0  0  0  0  0  0  0
   -1.1070   12.7060   -1.2020 C   0  0  0  0  0  0  0  0  0  0  0  0
   -2.5555   14.1780    1.0322 H   0  0  0  0  0  0  0  0  0  0  0  0
   -2.6374   15.1402   -0.4825 H   0  0  0  0  0  0  0  0  0  0  0  0
   -1.8384   13.5314   -0.4825 H   0  0  0  0  0  0  0  0  0  0  0  0
   -0.7033   15.3323    1.5312 H   0  0  0  0  0  0  0  0  0  0  0  0
   -0.9640   16.3525   -1.2842 H   0  0  0  0  0  0  0  0  0  0  0  0
   -0.9402   17.2254    0.3224 H   0  0  0  0  0  0  0  0  0  0  0  0
    1.5976   16.2395    0.2106 H   0  0  0  0  0  0  0  0  0  0  0  0
    1.2559   16.5794   -1.5374 H   0  0  0  0  0  0  0  0  0  0  0  0
    0.1943   18.4031    0.1162 H   0  0  0  0  0  0  0  0  0  0  0  0
    3.8960   17.8585    1.4883 H   0  0  0  0  0  0  0  0  0  0  0  0
    3.5628   16.9882   -0.0473 H   0  0  0  0  0  0  0  0  0  0  0  0
    4.6291   18.4338   -0.0473 H   0  0  0  0  0  0  0  0  0  0  0  0
    2.5634   20.0628    1.9231 H   0  0  0  0  0  0  0  0  0  0  0  0
    3.4697   20.7418    0.5288 H   0  0  0  0  0  0  0  0  0  0  0  0
    1.6736   20.7633    0.5288 H   0  0  0  0  0  0  0  0  0  0  0  0
    1.2774   14.8811    0.0356 H   0  0  0  0  0  0  0  0  0  0  0  0
    1.4495   13.4266    1.9576 H   0  0  0  0  0  0  0  0  0  0  0  0
   -0.2509   12.9284    1.8297 H   0  0  0  0  0  0  0  0  0  0  0  0
    2.0035   11.3572    1.0460 H   0  0  0  0  0  0  0  0  0  0  0  0
    0.3438   11.0108    0.5667 H   0  0  0  0  0  0  0  0  0  0  0  0
    3.1914   12.9325    0.2646 H   0  0  0  0  0  0  0  0  0  0  0  0
    3.6258   12.1400   -1.2877 H   0  0  0  0  0  0  0  0  0  0  0  0
    2.9432   13.8016   -1.2877 H   0  0  0  0  0  0  0  0  0  0  0  0
    0.3712   10.7139   -1.8365 H   0  0  0  0  0  0  0  0  0  0  0  0
    2.5139    9.7984   -0.7381 H   0  0  0  0  0  0  0  0  0  0  0  0
    1.8587    9.0744   -2.2989 H   0  0  0  0  0  0  0  0  0  0  0  0
    4.4695    9.3951   -2.1692 H   0  0  0  0  0  0  0  0  0  0  0  0
    3.1253   12.9340   -3.5738 H   0  0  0  0  0  0  0  0  0  0  0  0
    2.7396   10.9800   -5.9250 H   0  0  0  0  0  0  0  0  0  0  0  0
    2.3197   12.7503   -5.8951 H   0  0  0  0  0  0  0  0  0  0  0  0
    4.4254   12.3069   -7.1177 H   0  0  0  0  0  0  0  0  0  0  0  0
    4.6630   13.3340   -5.6498 H   0  0  0  0  0  0  0  0  0  0  0  0
    6.4356   11.7202   -5.7542 H   0  0  0  0  0  0  0  0  0  0  0  0
    6.0520    9.6000   -6.1440 H   0  0  0  0  0  0  0  0  0  0  0  0
    5.9416   12.4280   -2.2037 H   0  0  0  0  0  0  0  0  0  0  0  0
    7.0177   12.6617   -3.6229 H   0  0  0  0  0  0  0  0  0  0  0  0
    5.3654   13.3664   -3.6229 H   0  0  0  0  0  0  0  0  0  0  0  0
    6.4677   10.0126   -2.4406 H   0  0  0  0  0  0  0  0  0  0  0  0
    6.0516    9.1228   -3.9446 H   0  0  0  0  0  0  0  0  0  0  0  0
    7.4062   10.3026   -3.9446 H   0  0  0  0  0  0  0  0  0  0  0  0
    0.2445    9.8527   -3.7393 H   0  0  0  0  0  0  0  0  0  0  0  0
   -0.0258   11.0921   -5.0111 H   0  0  0  0  0  0  0  0  0  0  0  0
    1.4846   10.1199   -5.0111 H   0  0  0  0  0  0  0  0  0  0  0  0
    0.9585   13.5242   -4.5354 H   0  0  0  0  0  0  0  0  0  0  0  0
   -0.4648   12.6735   -3.7079 H   0  0  0  0  0  0  0  0  0  0  0  0
    1.6154   14.4675   -2.4270 H   0  0  0  0  0  0  0  0  0  0  0  0
   -0.1571   14.7597   -2.6301 H   0  0  0  0  0  0  0  0  0  0  0  0
   -1.4854   12.5532   -0.1805 H   0  0  0  0  0  0  0  0  0  0  0  0
   -1.7637   13.4094   -1.7349 H   0  0  0  0  0  0  0  0  0  0  0  0
   -1.0910   11.7438   -1.7349 H   0  0  0  0  0  0  0  0  0  0  0  0
  1  2  1  0
  2  3  1  0
  3  4  1  0
  4  5  1  0
  5  6  1  0
  6  7  1  0
  7  8  1  0
  7  9  1  0
  2 10  1  0
 10 11  1  0
 11 12  1  0
 12 13  1  0
 13 14  1  1
 13 15  1  0
 15 16  1  0
 16 17  1  0
 17 18  2  0
 18 19  1  0
 19 20  1  0
 20 21  1  0
 21 22  1  0
 22 23  1  0
 22 24  1  0
 24 25  1  0
 24 26  1  0
 19 27  1  0
 27 28  1  6
 27 29  1  0
 29 30  1  0
 30 31  1  0
 31 32  1  6
  7  5  1  0
 31 10  1  0
 31 13  1  0
 27 15  1  0
 24 18  1  0
  1 33  1  0
  1 34  1  0
  1 35  1  0
  2 36  1  1
  3 37  1  0
  3 38  1  0
  4 39  1  0
  4 40  1  0
  5 41  1  1
  8 42  1  0
  8 43  1  0
  8 44  1  0
  9 45  1  0
  9 46  1  0
  9 47  1  0
 10 48  1  6
 11 49  1  0
 11 50  1  0
 12 51  1  0
 12 52  1  0
 14 53  1  0
 14 54  1  0
 14 55  1  0
 15 56  1  1
 16 57  1  0
 16 58  1  0
 17 59  1  0
 19 60  1  1
 20 61  1  0
 20 62  1  0
 21 63  1  0
 21 64  1  0
 22 65  1  6
 23 66  1  0
 25 67  1  0
 25 68  1  0
 25 69  1  0
 26 70  1  0
 26 71  1  0
 26 72  1  0
 28 73  1  0
 28 74  1  0
 28 75  1  0
 29 76  1  0
 29 77  1  0
 30 78  1  0
 30 79  1  0
 32 80  1  0
 32 81  1  0
 32 82  1  0
M  END
>  <meeko>  (17) 
{"is_sidechain": [false], "intermolecular_energy": 2.731, "internal_energy": -0.839}

$$$$
EPH_relaxed_0001_pdb2pqr_Repair_413_r2_0001_out
     RDKit          3D

 82 86  0  0  0  0  0  0  0  0999 V2000
    3.2290   11.2830   -4.1740 C   0  0  0  0  0  0  0  0  0  0  0  0
    2.0960   11.8320   -5.0450 C   0  0  2  0  0  0  0  0  0  0  0  0
    2.6260   12.5360   -6.3110 C   0  0  0  0  0  0  0  0  0  0  0  0
    1.9200   13.8590   -6.6200 C   0  0  0  0  0  0  0  0  0  0  0  0
    2.3780   14.4400   -7.9240 C   0  0  2  0  0  0  0  0  0  0  0  0
    2.5300   15.8660   -7.9230 O   0  0  0  0  0  0  0  0  0  0  0  0
    1.5130   15.3370   -8.7900 C   0  0  0  0  0  0  0  0  0  0  0  0
    0.1190   15.7020   -8.3870 C   0  0  0  0  0  0  0  0  0  0  0  0
    1.8410   15.4560  -10.2460 C   0  0  0  0  0  0  0  0  0  0  0  0
    1.2370   12.7960   -4.2340 C   0  0  1  0  0  0  0  0  0  0  0  0
   -0.1530   12.2030   -3.8800 C   0  0  0  0  0  0  0  0  0  0  0  0
   -0.5250   12.7430   -2.4750 C   0  0  0  0  0  0  0  0  0  0  0  0
    0.4930   13.8770   -2.2110 C   0  0  1  0  0  0  0  0  0  0  0  0
   -0.0770   15.1130   -2.9750 C   0  0  0  0  0  0  0  0  0  0  0  0
    0.7840   14.2090   -0.7110 C   0  0  2  0  0  0  0  0  0  0  0  0
   -0.4260   14.7160    0.0920 C   0  0  0  0  0  0  0  0  0  0  0  0
   -0.6160   16.1960    0.0920 C   0  0  0  0  0  0  0  0  0  0  0  0
    0.3050   17.1030   -0.2840 C   0  0  0  0  0  0  0  0  0  0  0  0
    1.7240   16.6700   -0.6740 C   0  0  1  0  0  0  0  0  0  0  0  0
    2.7580   17.5900    0.0280 C   0  0  0  0  0  0  0  0  0  0  0  0
    2.5040   19.0690   -0.2450 C   0  0  0  0  0  0  0  0  0  0  0  0
    1.1040   19.4750    0.2090 C   0  0  2  0  0  0  0  0  0  0  0  0
    1.0370   19.3810    1.6360 O   0  0  0  0  0  0  0  0  0  0  0  0
   -0.0210   18.6110   -0.4250 C   0  0  0  0  0  0  0  0  0  0  0  0
   -0.1440   18.9420   -1.9330 C   0  0  0  0  0  0  0  0  0  0  0  0
   -1.3680   19.0300    0.2230 C   0  0  0  0  0  0  0  0  0  0  0  0
    2.0540   15.1260   -0.4850 C   0  0  1  0  0  0  0  0  0  0  0  0
    2.5410   14.8600    0.9720 C   0  0  0  0  0  0  0  0  0  0  0  0
    3.2500   14.7370   -1.4320 C   0  0  0  0  0  0  0  0  0  0  0  0
    2.8890   14.3030   -2.8650 C   0  0  0  0  0  0  0  0  0  0  0  0
    1.7810   13.2460   -2.8550 C   0  0  2  0  0  0  0  0  0  0  0  0
    2.3330   11.9810   -2.1130 C   0  0  0  0  0  0  0  0  0  0  0  0
    2.9694   11.4088   -3.1125 H   0  0  0  0  0  0  0  0  0  0  0  0
    3.3742   10.2146   -4.3918 H   0  0  0  0  0  0  0  0  0  0  0  0
    4.1575   11.8311   -4.3918 H   0  0  0  0  0  0  0  0  0  0  0  0
    1.4866   10.9770   -5.3730 H   0  0  0  0  0  0  0  0  0  0  0  0
    3.6983   12.7385   -6.1727 H   0  0  0  0  0  0  0  0  0  0  0  0
    2.4323   11.8623   -7.1587 H   0  0  0  0  0  0  0  0  0  0  0  0
    0.8356   13.6813   -6.6701 H   0  0  0  0  0  0  0  0  0  0  0  0
    2.1656   14.5738   -5.8208 H   0  0  0  0  0  0  0  0  0  0  0  0
    2.9598   13.5344   -8.1506 H   0  0  0  0  0  0  0  0  0  0  0  0
    0.0476   15.7207   -7.2895 H   0  0  0  0  0  0  0  0  0  0  0  0
   -0.1302   16.6957   -8.7876 H   0  0  0  0  0  0  0  0  0  0  0  0
   -0.5852   14.9580   -8.7876 H   0  0  0  0  0  0  0  0  0  0  0  0
    2.8694   15.8291  -10.3609 H   0  0  0  0  0  0  0  0  0  0  0  0
    1.7536   14.4689  -10.7234 H   0  0  0  0  0  0  0  0  0  0  0  0
    1.1410   16.1575  -10.7234 H   0  0  0  0  0  0  0  0  0  0  0  0
    1.2146   13.6506   -4.9262 H   0  0  0  0  0  0  0  0  0  0  0  0
   -0.9013   12.5241   -4.6196 H   0  0  0  0  0  0  0  0  0  0  0  0
   -0.1265   11.1033   -3.8862 H   0  0  0  0  0  0  0  0  0  0  0  0
   -1.5529   13.1347   -2.4691 H   0  0  0  0  0  0  0  0  0  0  0  0
   -0.4866   11.9599   -1.7034 H   0  0  0  0  0  0  0  0  0  0  0  0
   -0.4235   15.8643   -2.2501 H   0  0  0  0  0  0  0  0  0  0  0  0
    0.7110   15.5490   -3.6067 H   0  0  0  0  0  0  0  0  0  0  0  0
   -0.9202   14.7967   -3.6067 H   0  0  0  0  0  0  0  0  0  0  0  0
    1.0257   13.2205   -0.2932 H   0  0  0  0  0  0  0  0  0  0  0  0
   -1.3315   14.2571   -0.3316 H   0  0  0  0  0  0  0  0  0  0  0  0
   -0.2370   14.4334    1.1382 H   0  0  0  0  0  0  0  0  0  0  0  0
   -1.5913   16.5783    0.4277 H   0  0  0  0  0  0  0  0  0  0  0  0
    1.7917   16.7967   -1.7646 H   0  0  0  0  0  0  0  0  0  0  0  0
    2.7045   17.4173    1.1130 H   0  0  0  0  0  0  0  0  0  0  0  0
    3.7521   17.3421   -0.3724 H   0  0  0  0  0  0  0  0  0  0  0  0
    3.2474   19.6687    0.3006 H   0  0  0  0  0  0  0  0  0  0  0  0
    2.5871   19.2456   -1.3276 H   0  0  0  0  0  0  0  0  0  0  0  0
    0.9340   20.5076   -0.1299 H   0  0  0  0  0  0  0  0  0  0  0  0
    0.6930   20.2270    1.9700 H   0  0  0  0  0  0  0  0  0  0  0  0
   -0.5249   19.9669   -2.0536 H   0  0  0  0  0  0  0  0  0  0  0  0
    0.8446   18.8599   -2.4082 H   0  0  0  0  0  0  0  0  0  0  0  0
   -0.8391   18.2342   -2.4082 H   0  0  0  0  0  0  0  0  0  0  0  0
   -1.2728   19.0004    1.3185 H   0  0  0  0  0  0  0  0  0  0  0  0
   -1.6261   20.0509   -0.0952 H   0  0  0  0  0  0  0  0  0  0  0  0
   -2.1596   18.3356   -0.0952 H   0  0  0  0  0  0  0  0  0  0  0  0
    1.8050   15.2620    1.6838 H   0  0  0  0  0  0  0  0  0  0  0  0
    2.6503   13.7769    1.1301 H   0  0  0  0  0  0  0  0  0  0  0  0
    3.5114   15.3534    1.1301 H   0  0  0  0  0  0  0  0  0  0  0  0
    3.9134   15.6113   -1.5064 H   0  0  0  0  0  0  0  0  0  0  0  0
    3.7064   13.8496   -0.9691 H   0  0  0  0  0  0  0  0  0  0  0  0
    2.5436   15.1810   -3.4306 H   0  0  0  0  0  0  0  0  0  0  0  0
    3.7834   13.8690   -3.3358 H   0  0  0  0  0  0  0  0  0  0  0  0
    2.2658   12.1351   -1.0259 H   0  0  0  0  0  0  0  0  0  0  0  0
    1.7372   11.1007   -2.3961 H   0  0  0  0  0  0  0  0  0  0  0  0
    3.3836   11.8192   -2.3961 H   0  0  0  0  0  0  0  0  0  0  0  0
  1  2  1  0
  2  3  1  0
  3  4  1  0
  4  5  1  0
  5  6  1  0
  6  7  1  0
  7  8  1  0
  7  9  1  0
  2 10  1  0
 10 11  1  0
 11 12  1  0
 12 13  1  0
 13 14  1  6
 13 15  1  0
 15 16  1  0
 16 17  1  0
 17 18  2  0
 18 19  1  0
 19 20  1  0
 20 21  1  0
 21 22  1  0
 22 23  1  0
 22 24  1  0
 24 25  1  0
 24 26  1  0
 19 27  1  0
 27 28  1  1
 27 29  1  0
 29 30  1  0
 30 31  1  0
 31 32  1  1
  7  5  1  0
 31 10  1  0
 31 13  1  0
 27 15  1  0
 24 18  1  0
  1 33  1  0
  1 34  1  0
  1 35  1  0
  2 36  1  6
  3 37  1  0
  3 38  1  0
  4 39  1  0
  4 40  1  0
  5 41  1  6
  8 42  1  0
  8 43  1  0
  8 44  1  0
  9 45  1  0
  9 46  1  0
  9 47  1  0
 10 48  1  6
 11 49  1  0
 11 50  1  0
 12 51  1  0
 12 52  1  0
 14 53  1  0
 14 54  1  0
 14 55  1  0
 15 56  1  1
 16 57  1  0
 16 58  1  0
 17 59  1  0
 19 60  1  6
 20 61  1  0
 20 62  1  0
 21 63  1  0
 21 64  1  0
 22 65  1  1
 23 66  1  0
 25 67  1  0
 25 68  1  0
 25 69  1  0
 26 70  1  0
 26 71  1  0
 26 72  1  0
 28 73  1  0
 28 74  1  0
 28 75  1  0
 29 76  1  0
 29 77  1  0
 30 78  1  0
 30 79  1  0
 32 80  1  0
 32 81  1  0
 32 82  1  0
M  END
>  <meeko>  (18) 
{"is_sidechain": [false], "intermolecular_energy": 2.731, "internal_energy": -0.839}

$$$$
EPH_relaxed_0001_pdb2pqr_Repair_413_r2_0001_out
     RDKit          3D

 82 86  0  0  0  0  0  0  0  0999 V2000
    0.8490   14.7130   -4.6260 C   0  0  0  0  0  0  0  0  0  0  0  0
    0.6280   14.1420   -3.2230 C   0  0  2  0  0  0  0  0  0  0  0  0
    1.8700   14.3100   -2.3250 C   0  0  0  0  0  0  0  0  0  0  0  0
    1.7550   15.4660   -1.3270 C   0  0  0  0  0  0  0  0  0  0  0  0
    1.1190   16.6730   -1.9470 C   0  0  2  0  0  0  0  0  0  0  0  0
    1.9940   17.4530   -2.7730 O   0  0  0  0  0  0  0  0  0  0  0  0
    1.5000   18.0970   -1.5870 C   0  0  0  0  0  0  0  0  0  0  0  0
    2.5570   18.3880   -0.5680 C   0  0  0  0  0  0  0  0  0  0  0  0
    0.5170   19.1920   -1.8610 C   0  0  0  0  0  0  0  0  0  0  0  0
    0.2480   12.6680   -3.3150 C   0  0  1  0  0  0  0  0  0  0  0  0
    1.4720   11.7510   -3.5750 C   0  0  0  0  0  0  0  0  0  0  0  0
    1.2100   10.4280   -2.8100 C   0  0  0  0  0  0  0  0  0  0  0  0
   -0.2840   10.4950   -2.4150 C   0  0  1  0  0  0  0  0  0  0  0  0
   -1.0580   10.0550   -3.6980 C   0  0  0  0  0  0  0  0  0  0  0  0
   -0.7080    9.6540   -1.1680 C   0  0  2  0  0  0  0  0  0  0  0  0
   -0.5160    8.1340   -1.3100 C   0  0  0  0  0  0  0  0  0  0  0  0
   -1.6890    7.3910   -1.8590 C   0  0  0  0  0  0  0  0  0  0  0  0
   -2.9420    7.8720   -1.9570 C   0  0  0  0  0  0  0  0  0  0  0  0
   -3.3020    9.2550   -1.3990 C   0  0  1  0  0  0  0  0  0  0  0  0
   -4.6170    9.1580   -0.5820 C   0  0  0  0  0  0  0  0  0  0  0  0
   -5.7580    8.5370   -1.3820 C   0  0  0  0  0  0  0  0  0  0  0  0
   -5.3850    7.1400   -1.8700 C   0  0  2  0  0  0  0  0  0  0  0  0
   -5.2600    6.2740   -0.7380 O   0  0  0  0  0  0  0  0  0  0  0  0
   -4.0700    7.1110   -2.6980 C   0  0  0  0  0  0  0  0  0  0  0  0
   -4.3010    7.7970   -4.0670 C   0  0  0  0  0  0  0  0  0  0  0  0
   -3.7330    5.6270   -3.0080 C   0  0  0  0  0  0  0  0  0  0  0  0
   -2.1450   10.0040   -0.6070 C   0  0  1  0  0  0  0  0  0  0  0  0
   -2.1570    9.5700    0.8900 C   0  0  0  0  0  0  0  0  0  0  0  0
   -2.4320   11.5530   -0.6230 C   0  0  0  0  0  0  0  0  0  0  0  0
   -1.8850   12.3490   -1.8230 C   0  0  0  0  0  0  0  0  0  0  0  0
   -0.4080   12.0230   -2.0690 C   0  0  2  0  0  0  0  0  0  0  0  0
    0.3990   12.4760   -0.8040 C   0  0  0  0  0  0  0  0  0  0  0  0
    1.2450   15.7362   -4.5472 H   0  0  0  0  0  0  0  0  0  0  0  0
    1.5680   14.0824   -5.1695 H   0  0  0  0  0  0  0  0  0  0  0  0
   -0.1072   14.7307   -5.1695 H   0  0  0  0  0  0  0  0  0  0  0  0
   -0.1930   14.7098   -2.7609 H   0  0  0  0  0  0  0  0  0  0  0  0
    2.0196   13.3776   -1.7609 H   0  0  0  0  0  0  0  0  0  0  0  0
    2.7176   14.5397   -2.9875 H   0  0  0  0  0  0  0  0  0  0  0  0
    1.1433   15.1399   -0.4729 H   0  0  0  0  0  0  0  0  0  0  0  0
    2.7696   15.7414   -1.0033 H   0  0  0  0  0  0  0  0  0  0  0  0
    0.1470   16.1612   -2.0037 H   0  0  0  0  0  0  0  0  0  0  0  0
    2.1352   18.2719    0.4413 H   0  0  0  0  0  0  0  0  0  0  0  0
    3.3947   17.6871   -0.6982 H   0  0  0  0  0  0  0  0  0  0  0  0
    2.9179   19.4189   -0.6982 H   0  0  0  0  0  0  0  0  0  0  0  0
    0.1494   19.6015   -0.9086 H   0  0  0  0  0  0  0  0  0  0  0  0
    1.0080   19.9896   -2.4379 H   0  0  0  0  0  0  0  0  0  0  0  0
   -0.3287   18.7896   -2.4379 H   0  0  0  0  0  0  0  0  0  0  0  0
   -0.4787   12.7164   -4.1393 H   0  0  0  0  0  0  0  0  0  0  0  0
    1.5743   11.5520   -4.6520 H   0  0  0  0  0  0  0  0  0  0  0  0
    2.4025   12.2276   -3.2328 H   0  0  0  0  0  0  0  0  0  0  0  0
    1.4018    9.5601   -3.4581 H   0  0  0  0  0  0  0  0  0  0  0  0
    1.8679   10.3143   -1.9358 H   0  0  0  0  0  0  0  0  0  0  0  0
   -1.9804    9.5306   -3.4080 H   0  0  0  0  0  0  0  0  0  0  0  0
   -1.3132   10.9430   -4.2949 H   0  0  0  0  0  0  0  0  0  0  0  0
   -0.4255    9.3814   -4.2949 H   0  0  0  0  0  0  0  0  0  0  0  0
    0.0186    9.9780   -0.4084 H   0  0  0  0  0  0  0  0  0  0  0  0
    0.3396    7.9606   -1.9793 H   0  0  0  0  0  0  0  0  0  0  0  0
   -0.3630    7.7503   -0.2905 H   0  0  0  0  0  0  0  0  0  0  0  0
   -1.5143    6.3643   -2.2131 H   0  0  0  0  0  0  0  0  0  0  0  0
   -3.4536    9.9061   -2.2726 H   0  0  0  0  0  0  0  0  0  0  0  0
   -4.4337    8.5397    0.3091 H   0  0  0  0  0  0  0  0  0  0  0  0
   -4.9176   10.1806   -0.3102 H   0  0  0  0  0  0  0  0  0  0  0  0
   -6.6504    8.4686   -0.7425 H   0  0  0  0  0  0  0  0  0  0  0  0
   -5.9596    9.1723   -2.2571 H   0  0  0  0  0  0  0  0  0  0  0  0
   -6.1866    6.8009   -2.5427 H   0  0  0  0  0  0  0  0  0  0  0  0
   -4.9120    6.8030    0.0000 H   0  0  0  0  0  0  0  0  0  0  0  0
   -4.6483    8.8283   -3.9064 H   0  0  0  0  0  0  0  0  0  0  0  0
   -3.3582    7.8116   -4.6335 H   0  0  0  0  0  0  0  0  0  0  0  0
   -5.0606    7.2384   -4.6335 H   0  0  0  0  0  0  0  0  0  0  0  0
   -3.6076    5.0748   -2.0650 H   0  0  0  0  0  0  0  0  0  0  0  0
   -4.5522    5.1787   -3.5893 H   0  0  0  0  0  0  0  0  0  0  0  0
   -2.8005    5.5765   -3.5893 H   0  0  0  0  0  0  0  0  0  0  0  0
   -2.1323   10.4636    1.5310 H   0  0  0  0  0  0  0  0  0  0  0  0
   -3.0714    8.9949    1.0977 H   0  0  0  0  0  0  0  0  0  0  0  0
   -1.2758    8.9452    1.0977 H   0  0  0  0  0  0  0  0  0  0  0  0
   -3.5233   11.6893   -0.6030 H   0  0  0  0  0  0  0  0  0  0  0  0
   -1.9010   11.9529    0.2534 H   0  0  0  0  0  0  0  0  0  0  0  0
   -2.4652   12.0904   -2.7211 H   0  0  0  0  0  0  0  0  0  0  0  0
   -1.9755   13.4229   -1.6026 H   0  0  0  0  0  0  0  0  0  0  0  0
   -0.1421   12.1723    0.1043 H   0  0  0  0  0  0  0  0  0  0  0  0
    1.3924   12.0036   -0.8142 H   0  0  0  0  0  0  0  0  0  0  0  0
    0.5131   13.5700   -0.8142 H   0  0  0  0  0  0  0  0  0  0  0  0
  1  2  1  0
  2  3  1  0
  3  4  1  0
  4  5  1  0
  5  6  1  0
  6  7  1  0
  7  8  1  0
  7  9  1  0
  2 10  1  0
 10 11  1  0
 11 12  1  0
 12 13  1  0
 13 14  1  6
 13 15  1  0
 15 16  1  0
 16 17  1  0
 17 18  2  0
 18 19  1  0
 19 20  1  0
 20 21  1  0
 21 22  1  0
 22 23  1  0
 22 24  1  0
 24 25  1  0
 24 26  1  0
 19 27  1  0
 27 28  1  1
 27 29  1  0
 29 30  1  0
 30 31  1  0
 31 32  1  1
  7  5  1  0
 31 10  1  0
 31 13  1  0
 27 15  1  0
 24 18  1  0
  1 33  1  0
  1 34  1  0
  1 35  1  0
  2 36  1  1
  3 37  1  0
  3 38  1  0
  4 39  1  0
  4 40  1  0
  5 41  1  6
  8 42  1  0
  8 43  1  0
  8 44  1  0
  9 45  1  0
  9 46  1  0
  9 47  1  0
 10 48  1  6
 11 49  1  0
 11 50  1  0
 12 51  1  0
 12 52  1  0
 14 53  1  0
 14 54  1  0
 14 55  1  0
 15 56  1  1
 16 57  1  0
 16 58  1  0
 17 59  1  0
 19 60  1  6
 20 61  1  0
 20 62  1  0
 21 63  1  0
 21 64  1  0
 22 65  1  6
 23 66  1  0
 25 67  1  0
 25 68  1  0
 25 69  1  0
 26 70  1  0
 26 71  1  0
 26 72  1  0
 28 73  1  0
 28 74  1  0
 28 75  1  0
 29 76  1  0
 29 77  1  0
 30 78  1  0
 30 79  1  0
 32 80  1  0
 32 81  1  0
 32 82  1  0
M  END
>  <meeko>  (19) 
{"is_sidechain": [false], "intermolecular_energy": 2.731, "internal_energy": -0.839}

$$$$
