EPH_relaxed_0001_pdb2pqr_Repair_111_r2_0001_out
     RDKit          3D

 82 86  0  0  0  0  0  0  0  0999 V2000
   -1.5530    8.5930   -1.9840 C   0  0  0  0  0  0  0  0  0  0  0  0
   -1.9350    9.0740   -0.5810 C   0  0  2  0  0  0  0  0  0  0  0  0
   -3.4380    9.3990   -0.4680 C   0  0  0  0  0  0  0  0  0  0  0  0
   -4.3330    8.1570   -0.4070 C   0  0  0  0  0  0  0  0  0  0  0  0
   -5.6240    8.3690   -1.1370 C   0  0  2  0  0  0  0  0  0  0  0  0
   -6.6340    7.3880   -0.8630 O   0  0  0  0  0  0  0  0  0  0  0  0
   -6.1400    7.4300   -2.2120 C   0  0  0  0  0  0  0  0  0  0  0  0
   -5.3730    6.2110   -2.6180 C   0  0  0  0  0  0  0  0  0  0  0  0
   -7.1340    7.9540   -3.2020 C   0  0  0  0  0  0  0  0  0  0  0  0
   -1.1080   10.2990   -0.2090 C   0  0  1  0  0  0  0  0  0  0  0  0
   -0.0820   10.0070    0.9180 C   0  0  0  0  0  0  0  0  0  0  0  0
    1.1720   10.8680    0.6150 C   0  0  0  0  0  0  0  0  0  0  0  0
    0.7070   11.8650   -0.4720 C   0  0  1  0  0  0  0  0  0  0  0  0
   -0.0350   12.9940    0.3090 C   0  0  0  0  0  0  0  0  0  0  0  0
    1.8230   12.4430   -1.4020 C   0  0  2  0  0  0  0  0  0  0  0  0
    2.9000   13.2780   -0.6870 C   0  0  0  0  0  0  0  0  0  0  0  0
    2.6130   14.7400   -0.5910 C   0  0  0  0  0  0  0  0  0  0  0  0
    1.6820   15.4030   -1.3020 C   0  0  0  0  0  0  0  0  0  0  0  0
    0.8650   14.6910   -2.3880 C   0  0  1  0  0  0  0  0  0  0  0  0
    0.8310   15.5650   -3.6680 C   0  0  0  0  0  0  0  0  0  0  0  0
    0.3310   16.9810   -3.3960 C   0  0  0  0  0  0  0  0  0  0  0  0
    1.2030   17.6770   -2.3550 C   0  0  2  0  0  0  0  0  0  0  0  0
    2.5070   17.8830   -2.9090 O   0  0  0  0  0  0  0  0  0  0  0  0
    1.3200   16.8830   -1.0240 C   0  0  0  0  0  0  0  0  0  0  0  0
   -0.0350   16.9190   -0.2750 C   0  0  0  0  0  0  0  0  0  0  0  0
    2.3380   17.6220   -0.1150 C   0  0  0  0  0  0  0  0  0  0  0  0
    1.2760   13.1850   -2.6880 C   0  0  1  0  0  0  0  0  0  0  0  0
    2.4210   13.1470   -3.7450 C   0  0  0  0  0  0  0  0  0  0  0  0
    0.0500   12.4370   -3.3340 C   0  0  0  0  0  0  0  0  0  0  0  0
   -0.9540   11.7840   -2.3650 C   0  0  0  0  0  0  0  0  0  0  0  0
   -0.2310   10.9290   -1.3190 C   0  0  2  0  0  0  0  0  0  0  0  0
    0.5070    9.7710   -2.0740 C   0  0  0  0  0  0  0  0  0  0  0  0
   -0.8707    7.7339   -1.9040 H   0  0  0  0  0  0  0  0  0  0  0  0
   -2.4603    8.2913   -2.5279 H   0  0  0  0  0  0  0  0  0  0  0  0
   -1.0536    9.4084   -2.5279 H   0  0  0  0  0  0  0  0  0  0  0  0
   -1.7210    8.2538    0.1200 H   0  0  0  0  0  0  0  0  0  0  0  0
   -3.5982    9.9880    0.4471 H   0  0  0  0  0  0  0  0  0  0  0  0
   -3.7168    9.9522   -1.3769 H   0  0  0  0  0  0  0  0  0  0  0  0
   -3.7998    7.3103   -0.8640 H   0  0  0  0  0  0  0  0  0  0  0  0
   -4.5651    7.9526    0.6486 H   0  0  0  0  0  0  0  0  0  0  0  0
   -5.4862    9.4601   -1.1143 H   0  0  0  0  0  0  0  0  0  0  0  0
   -5.0352    5.6741   -1.7193 H   0  0  0  0  0  0  0  0  0  0  0  0
   -6.0202    5.5531   -3.2166 H   0  0  0  0  0  0  0  0  0  0  0  0
   -4.4998    6.5097   -3.2166 H   0  0  0  0  0  0  0  0  0  0  0  0
   -7.9838    8.4020   -2.6662 H   0  0  0  0  0  0  0  0  0  0  0  0
   -6.6553    8.7169   -3.8335 H   0  0  0  0  0  0  0  0  0  0  0  0
   -7.4930    7.1279   -3.8335 H   0  0  0  0  0  0  0  0  0  0  0  0
   -1.9174   10.9904    0.0682 H   0  0  0  0  0  0  0  0  0  0  0  0
   -0.5041   10.2832    1.8955 H   0  0  0  0  0  0  0  0  0  0  0  0
    0.1723    8.9374    0.9535 H   0  0  0  0  0  0  0  0  0  0  0  0
    1.5027   11.4034    1.5172 H   0  0  0  0  0  0  0  0  0  0  0  0
    2.0264   10.2590    0.2846 H   0  0  0  0  0  0  0  0  0  0  0  0
    0.0757   12.8255    1.3904 H   0  0  0  0  0  0  0  0  0  0  0  0
    0.3987   13.9694    0.0436 H   0  0  0  0  0  0  0  0  0  0  0  0
   -1.1024   12.9829    0.0436 H   0  0  0  0  0  0  0  0  0  0  0  0
    2.3329   11.5332   -1.7517 H   0  0  0  0  0  0  0  0  0  0  0  0
    3.0119   12.8856    0.3345 H   0  0  0  0  0  0  0  0  0  0  0  0
    3.8112   13.1858   -1.2962 H   0  0  0  0  0  0  0  0  0  0  0  0
    3.2133   15.3250    0.1213 H   0  0  0  0  0  0  0  0  0  0  0  0
   -0.1521   14.5846   -1.9827 H   0  0  0  0  0  0  0  0  0  0  0  0
    1.8484   15.6237   -4.0822 H   0  0  0  0  0  0  0  0  0  0  0  0
    0.1326   15.0942   -4.3756 H   0  0  0  0  0  0  0  0  0  0  0  0
    0.3578   17.5582   -4.3320 H   0  0  0  0  0  0  0  0  0  0  0  0
   -0.6972   16.9220   -3.0097 H   0  0  0  0  0  0  0  0  0  0  0  0
    0.7208   18.6342   -2.1075 H   0  0  0  0  0  0  0  0  0  0  0  0
    2.4940   17.5530   -3.8230 H   0  0  0  0  0  0  0  0  0  0  0  0
    0.1456   16.9142    0.8101 H   0  0  0  0  0  0  0  0  0  0  0  0
   -0.5827   17.8320   -0.5515 H   0  0  0  0  0  0  0  0  0  0  0  0
   -0.6304   16.0364   -0.5515 H   0  0  0  0  0  0  0  0  0  0  0  0
    2.0869   17.4398    0.9403 H   0  0  0  0  0  0  0  0  0  0  0  0
    3.3519   17.2482   -0.3205 H   0  0  0  0  0  0  0  0  0  0  0  0
    2.2967   18.7018   -0.3205 H   0  0  0  0  0  0  0  0  0  0  0  0
    3.3932   13.1147   -3.2314 H   0  0  0  0  0  0  0  0  0  0  0  0
    2.3091   12.2521   -4.3748 H   0  0  0  0  0  0  0  0  0  0  0  0
    2.3687   14.0474   -4.3748 H   0  0  0  0  0  0  0  0  0  0  0  0
   -0.5024   13.1677   -3.9431 H   0  0  0  0  0  0  0  0  0  0  0  0
    0.4881   11.6021   -3.9006 H   0  0  0  0  0  0  0  0  0  0  0  0
   -1.5246   12.5727   -1.8528 H   0  0  0  0  0  0  0  0  0  0  0  0
   -1.6277   11.1347   -2.9434 H   0  0  0  0  0  0  0  0  0  0  0  0
    0.9482    9.0787   -1.3419 H   0  0  0  0  0  0  0  0  0  0  0  0
   -0.2120    9.2280   -2.7051 H   0  0  0  0  0  0  0  0  0  0  0  0
    1.3028   10.1934   -2.7051 H   0  0  0  0  0  0  0  0  0  0  0  0
  1  2  1  0
  2  3  1  0
  3  4  1  0
  4  5  1  0
  5  6  1  0
  6  7  1  0
  7  8  1  0
  7  9  1  0
  2 10  1  0
 10 11  1  0
 11 12  1  0
 12 13  1  0
 13 14  1  1
 13 15  1  0
 15 16  1  0
 16 17  1  0
 17 18  2  0
 18 19  1  0
 19 20  1  0
 20 21  1  0
 21 22  1  0
 22 23  1  0
 22 24  1  0
 24 25  1  0
 24 26  1  0
 19 27  1  0
 27 28  1  6
 27 29  1  0
 29 30  1  0
 30 31  1  0
 31 32  1  6
  7  5  1  0
 31 10  1  0
 31 13  1  0
 27 15  1  0
 24 18  1  0
  1 33  1  0
  1 34  1  0
  1 35  1  0
  2 36  1  1
  3 37  1  0
  3 38  1  0
  4 39  1  0
  4 40  1  0
  5 41  1  6
  8 42  1  0
  8 43  1  0
  8 44  1  0
  9 45  1  0
  9 46  1  0
  9 47  1  0
 10 48  1  1
 11 49  1  0
 11 50  1  0
 12 51  1  0
 12 52  1  0
 14 53  1  0
 14 54  1  0
 14 55  1  0
 15 56  1  6
 16 57  1  0
 16 58  1  0
 17 59  1  0
 19 60  1  1
 20 61  1  0
 20 62  1  0
 21 63  1  0
 21 64  1  0
 22 65  1  1
 23 66  1  0
 25 67  1  0
 25 68  1  0
 25 69  1  0
 26 70  1  0
 26 71  1  0
 26 72  1  0
 28 73  1  0
 28 74  1  0
 28 75  1  0
 29 76  1  0
 29 77  1  0
 30 78  1  0
 30 79  1  0
 32 80  1  0
 32 81  1  0
 32 82  1  0
M  END
>  <meeko>  (1) 
{"is_sidechain": [false], "intermolecular_energy": 2.731, "internal_energy": -0.839}

$$$$
EPH_relaxed_0001_pdb2pqr_Repair_111_r2_0001_out
     RDKit          3D

 82 86  0  0  0  0  0  0  0  0999 V2000
    0.3850   18.3490   -0.0190 C   0  0  0  0  0  0  0  0  0  0  0  0
    1.4870   17.3120   -0.2600 C   0  0  2  0  0  0  0  0  0  0  0  0
    2.6850   17.9060   -1.0270 C   0  0  0  0  0  0  0  0  0  0  0  0
    3.9200   18.1400   -0.1530 C   0  0  0  0  0  0  0  0  0  0  0  0
    3.5470   18.6190    1.2170 C   0  0  2  0  0  0  0  0  0  0  0  0
    3.7940   20.0110    1.4530 O   0  0  0  0  0  0  0  0  0  0  0  0
    4.5600   19.0880    2.2440 C   0  0  0  0  0  0  0  0  0  0  0  0
    6.0270   19.1010    1.9440 C   0  0  0  0  0  0  0  0  0  0  0  0
    4.1750   19.0690    3.6910 C   0  0  0  0  0  0  0  0  0  0  0  0
    0.9200   16.1190   -1.0210 C   0  0  1  0  0  0  0  0  0  0  0  0
    0.7990   16.3860   -2.5450 C   0  0  0  0  0  0  0  0  0  0  0  0
    1.0960   15.0420   -3.2590 C   0  0  0  0  0  0  0  0  0  0  0  0
    1.0500   13.9830   -2.1320 C   0  0  1  0  0  0  0  0  0  0  0  0
   -0.4680   13.6830   -1.9260 C   0  0  0  0  0  0  0  0  0  0  0  0
    1.8680   12.6750   -2.3800 C   0  0  2  0  0  0  0  0  0  0  0  0
    1.4070   11.8340   -3.5840 C   0  0  0  0  0  0  0  0  0  0  0  0
    0.3770   10.7980   -3.2800 C   0  0  0  0  0  0  0  0  0  0  0  0
    0.0490   10.3570   -2.0520 C   0  0  0  0  0  0  0  0  0  0  0  0
    0.8120   10.8400   -0.8120 C   0  0  1  0  0  0  0  0  0  0  0  0
    1.1660    9.6250    0.0850 C   0  0  0  0  0  0  0  0  0  0  0  0
   -0.0570    8.7860    0.4430 C   0  0  0  0  0  0  0  0  0  0  0  0
   -0.7550    8.2750   -0.8150 C   0  0  2  0  0  0  0  0  0  0  0  0
    0.1080    7.3440   -1.4760 O   0  0  0  0  0  0  0  0  0  0  0  0
   -1.1510    9.4100   -1.8000 C   0  0  0  0  0  0  0  0  0  0  0  0
   -2.3080   10.2430   -1.1960 C   0  0  0  0  0  0  0  0  0  0  0  0
   -1.7160    8.7510   -3.0870 C   0  0  0  0  0  0  0  0  0  0  0  0
    2.0640   11.7780   -1.0900 C   0  0  1  0  0  0  0  0  0  0  0  0
    3.3350   10.9100   -1.3400 C   0  0  0  0  0  0  0  0  0  0  0  0
    2.3590   12.6370    0.1960 C   0  0  0  0  0  0  0  0  0  0  0  0
    1.6080   13.9760    0.3250 C   0  0  0  0  0  0  0  0  0  0  0  0
    1.7210   14.7950   -0.9650 C   0  0  2  0  0  0  0  0  0  0  0  0
    3.2350   15.1310   -1.1870 C   0  0  0  0  0  0  0  0  0  0  0  0
    0.2401   18.4854    1.0629 H   0  0  0  0  0  0  0  0  0  0  0  0
    0.6774   19.3071   -0.4734 H   0  0  0  0  0  0  0  0  0  0  0  0
   -0.5536   17.9990   -0.4734 H   0  0  0  0  0  0  0  0  0  0  0  0
    1.8549   16.9845    0.7236 H   0  0  0  0  0  0  0  0  0  0  0  0
    2.9582   17.2122   -1.8357 H   0  0  0  0  0  0  0  0  0  0  0  0
    2.3686   18.8888   -1.4064 H   0  0  0  0  0  0  0  0  0  0  0  0
    4.4759   17.1953   -0.0612 H   0  0  0  0  0  0  0  0  0  0  0  0
    4.5365   18.9154   -0.6312 H   0  0  0  0  0  0  0  0  0  0  0  0
    2.7231   17.8922    1.2719 H   0  0  0  0  0  0  0  0  0  0  0  0
    6.5940   19.1060    2.8866 H   0  0  0  0  0  0  0  0  0  0  0  0
    6.2903   18.2052    1.3625 H   0  0  0  0  0  0  0  0  0  0  0  0
    6.2744   20.0014    1.3625 H   0  0  0  0  0  0  0  0  0  0  0  0
    5.0817   19.1137    4.3123 H   0  0  0  0  0  0  0  0  0  0  0  0
    3.5360   19.9367    3.9118 H   0  0  0  0  0  0  0  0  0  0  0  0
    3.6245   18.1426    3.9118 H   0  0  0  0  0  0  0  0  0  0  0  0
   -0.0381   16.0014   -0.4935 H   0  0  0  0  0  0  0  0  0  0  0  0
   -0.2171   16.7288   -2.7901 H   0  0  0  0  0  0  0  0  0  0  0  0
    1.5026   17.1681   -2.8663 H   0  0  0  0  0  0  0  0  0  0  0  0
    0.3324   14.8305   -4.0220 H   0  0  0  0  0  0  0  0  0  0  0  0
    2.0635   15.0525   -3.7824 H   0  0  0  0  0  0  0  0  0  0  0  0
   -0.6903   13.6391   -0.8496 H   0  0  0  0  0  0  0  0  0  0  0  0
   -1.0658   14.4804   -2.3916 H   0  0  0  0  0  0  0  0  0  0  0  0
   -0.7176   12.7182   -2.3916 H   0  0  0  0  0  0  0  0  0  0  0  0
    2.8597   13.0661   -2.6512 H   0  0  0  0  0  0  0  0  0  0  0  0
    0.9889   12.5185   -4.3368 H   0  0  0  0  0  0  0  0  0  0  0  0
    2.2958   11.2871   -3.9317 H   0  0  0  0  0  0  0  0  0  0  0  0
   -0.1600   10.3572   -4.1328 H   0  0  0  0  0  0  0  0  0  0  0  0
    0.1255   11.5119   -0.2760 H   0  0  0  0  0  0  0  0  0  0  0  0
    1.8855    8.9887   -0.4511 H   0  0  0  0  0  0  0  0  0  0  0  0
    1.5898   10.0143    1.0224 H   0  0  0  0  0  0  0  0  0  0  0  0
    0.2613    7.9272    1.0522 H   0  0  0  0  0  0  0  0  0  0  0  0
   -0.7626    9.4156    1.0050 H   0  0  0  0  0  0  0  0  0  0  0  0
   -1.6918    7.7928   -0.4990 H   0  0  0  0  0  0  0  0  0  0  0  0
    0.7310    7.0000   -0.8140 H   0  0  0  0  0  0  0  0  0  0  0  0
   -2.2537   10.2039   -0.0980 H   0  0  0  0  0  0  0  0  0  0  0  0
   -2.2214   11.2873   -1.5304 H   0  0  0  0  0  0  0  0  0  0  0  0
   -3.2709    9.8296   -1.5304 H   0  0  0  0  0  0  0  0  0  0  0  0
   -2.4091    7.9426   -2.8111 H   0  0  0  0  0  0  0  0  0  0  0  0
   -2.2515    9.5063   -3.6809 H   0  0  0  0  0  0  0  0  0  0  0  0
   -0.8878    8.3371   -3.6809 H   0  0  0  0  0  0  0  0  0  0  0  0
    3.7712   10.6121   -0.3751 H   0  0  0  0  0  0  0  0  0  0  0  0
    3.0587   10.0111   -1.9106 H   0  0  0  0  0  0  0  0  0  0  0  0
    4.0717   11.4945   -1.9106 H   0  0  0  0  0  0  0  0  0  0  0  0
    2.0996   12.0244    1.0720 H   0  0  0  0  0  0  0  0  0  0  0  0
    3.4221   12.9095    0.1221 H   0  0  0  0  0  0  0  0  0  0  0  0
    0.5465   13.7747    0.5315 H   0  0  0  0  0  0  0  0  0  0  0  0
    2.0577   14.5525    1.1468 H   0  0  0  0  0  0  0  0  0  0  0  0
    3.7328   15.2415   -0.2123 H   0  0  0  0  0  0  0  0  0  0  0  0
    3.7122   14.3169   -1.7523 H   0  0  0  0  0  0  0  0  0  0  0  0
    3.3230   16.0705   -1.7523 H   0  0  0  0  0  0  0  0  0  0  0  0
  1  2  1  0
  2  3  1  0
  3  4  1  0
  4  5  1  0
  5  6  1  0
  6  7  1  0
  7  8  1  0
  7  9  1  0
  2 10  1  0
 10 11  1  0
 11 12  1  0
 12 13  1  0
 13 14  1  1
 13 15  1  0
 15 16  1  0
 16 17  1  0
 17 18  2  0
 18 19  1  0
 19 20  1  0
 20 21  1  0
 21 22  1  0
 22 23  1  0
 22 24  1  0
 24 25  1  0
 24 26  1  0
 19 27  1  0
 27 28  1  6
 27 29  1  0
 29 30  1  0
 30 31  1  0
 31 32  1  6
  7  5  1  0
 31 10  1  0
 31 13  1  0
 27 15  1  0
 24 18  1  0
  1 33  1  0
  1 34  1  0
  1 35  1  0
  2 36  1  1
  3 37  1  0
  3 38  1  0
  4 39  1  0
  4 40  1  0
  5 41  1  1
  8 42  1  0
  8 43  1  0
  8 44  1  0
  9 45  1  0
  9 46  1  0
  9 47  1  0
 10 48  1  1
 11 49  1  0
 11 50  1  0
 12 51  1  0
 12 52  1  0
 14 53  1  0
 14 54  1  0
 14 55  1  0
 15 56  1  6
 16 57  1  0
 16 58  1  0
 17 59  1  0
 19 60  1  1
 20 61  1  0
 20 62  1  0
 21 63  1  0
 21 64  1  0
 22 65  1  1
 23 66  1  0
 25 67  1  0
 25 68  1  0
 25 69  1  0
 26 70  1  0
 26 71  1  0
 26 72  1  0
 28 73  1  0
 28 74  1  0
 28 75  1  0
 29 76  1  0
 29 77  1  0
 30 78  1  0
 30 79  1  0
 32 80  1  0
 32 81  1  0
 32 82  1  0
M  END
>  <meeko>  (2) 
{"is_sidechain": [false], "intermolecular_energy": 2.731, "internal_energy": -0.839}

$$$$
EPH_relaxed_0001_pdb2pqr_Repair_111_r2_0001_out
     RDKit          3D

 82 86  0  0  0  0  0  0  0  0999 V2000
    2.4770   18.0560   -2.4370 C   0  0  0  0  0  0  0  0  0  0  0  0
    1.1160   17.7130   -1.8250 C   0  0  2  0  0  0  0  0  0  0  0  0
    1.1400   17.7720   -0.2840 C   0  0  0  0  0  0  0  0  0  0  0  0
    0.7660   19.1430    0.2850 C   0  0  0  0  0  0  0  0  0  0  0  0
   -0.6960   19.2320    0.6020 C   0  0  2  0  0  0  0  0  0  0  0  0
   -1.5180   18.2840   -0.0930 O   0  0  0  0  0  0  0  0  0  0  0  0
   -1.7450   19.6690   -0.4030 C   0  0  0  0  0  0  0  0  0  0  0  0
   -1.3750   20.0480   -1.8030 C   0  0  0  0  0  0  0  0  0  0  0  0
   -3.0510   20.1940    0.1070 C   0  0  0  0  0  0  0  0  0  0  0  0
    0.6720   16.3290   -2.2860 C   0  0  1  0  0  0  0  0  0  0  0  0
    0.7630   16.1550   -3.8250 C   0  0  0  0  0  0  0  0  0  0  0  0
    1.1690   14.6820   -4.0860 C   0  0  0  0  0  0  0  0  0  0  0  0
    0.9760   13.9770   -2.7230 C   0  0  1  0  0  0  0  0  0  0  0  0
   -0.5520   13.6730   -2.6410 C   0  0  0  0  0  0  0  0  0  0  0  0
    1.8350   12.6930   -2.4820 C   0  0  2  0  0  0  0  0  0  0  0  0
    1.5540   11.5300   -3.4490 C   0  0  0  0  0  0  0  0  0  0  0  0
    0.5010   10.5700   -3.0040 C   0  0  0  0  0  0  0  0  0  0  0  0
    0.0100   10.4720   -1.7550 C   0  0  0  0  0  0  0  0  0  0  0  0
    0.5870   11.3170   -0.6130 C   0  0  1  0  0  0  0  0  0  0  0  0
    0.8240   10.4180    0.6280 C   0  0  0  0  0  0  0  0  0  0  0  0
   -0.4290    9.6530    1.0440 C   0  0  0  0  0  0  0  0  0  0  0  0
   -0.9390    8.7790   -0.0990 C   0  0  2  0  0  0  0  0  0  0  0  0
    0.0170    7.7450   -0.3510 O   0  0  0  0  0  0  0  0  0  0  0  0
   -1.2040    9.5760   -1.4070 C   0  0  0  0  0  0  0  0  0  0  0  0
   -2.4430   10.4860   -1.2200 C   0  0  0  0  0  0  0  0  0  0  0  0
   -1.5780    8.5580   -2.5180 C   0  0  0  0  0  0  0  0  0  0  0  0
    1.8570   12.2010   -0.9780 C   0  0  1  0  0  0  0  0  0  0  0  0
    3.1580   11.3600   -0.8040 C   0  0  0  0  0  0  0  0  0  0  0  0
    1.9610   13.3970    0.0410 C   0  0  0  0  0  0  0  0  0  0  0  0
    1.1860   14.6810   -0.3120 C   0  0  0  0  0  0  0  0  0  0  0  0
    1.4710   15.1130   -1.7540 C   0  0  2  0  0  0  0  0  0  0  0  0
    2.9980   15.4470   -1.8610 C   0  0  0  0  0  0  0  0  0  0  0  0
    3.2049   18.2394   -1.6329 H   0  0  0  0  0  0  0  0  0  0  0  0
    2.8214   17.2166   -3.0589 H   0  0  0  0  0  0  0  0  0  0  0  0
    2.3825   18.9584   -3.0589 H   0  0  0  0  0  0  0  0  0  0  0  0
    0.3973   18.4694   -2.1732 H   0  0  0  0  0  0  0  0  0  0  0  0
    0.4271   17.0291    0.1032 H   0  0  0  0  0  0  0  0  0  0  0  0
    2.1738   17.5648    0.0297 H   0  0  0  0  0  0  0  0  0  0  0  0
    1.3416   19.3156    1.2064 H   0  0  0  0  0  0  0  0  0  0  0  0
    0.9990   19.9042   -0.4741 H   0  0  0  0  0  0  0  0  0  0  0  0
   -0.4775   19.5589    1.6293 H   0  0  0  0  0  0  0  0  0  0  0  0
   -0.6068   20.8349   -1.7790 H   0  0  0  0  0  0  0  0  0  0  0  0
   -0.9805   19.1664   -2.3294 H   0  0  0  0  0  0  0  0  0  0  0  0
   -2.2658   20.4212   -2.3294 H   0  0  0  0  0  0  0  0  0  0  0  0
   -3.0431   20.1908    1.2070 H   0  0  0  0  0  0  0  0  0  0  0  0
   -3.1998   21.2218   -0.2556 H   0  0  0  0  0  0  0  0  0  0  0  0
   -3.8698   19.5551   -0.2556 H   0  0  0  0  0  0  0  0  0  0  0  0
   -0.3493   16.3165   -1.8775 H   0  0  0  0  0  0  0  0  0  0  0  0
   -0.2119   16.3669   -4.2883 H   0  0  0  0  0  0  0  0  0  0  0  0
    1.4979   16.8496   -4.2579 H   0  0  0  0  0  0  0  0  0  0  0  0
    0.5213   14.2305   -4.8519 H   0  0  0  0  0  0  0  0  0  0  0  0
    2.1999   14.5932   -4.4594 H   0  0  0  0  0  0  0  0  0  0  0  0
   -0.8577   13.6122   -1.5861 H   0  0  0  0  0  0  0  0  0  0  0  0
   -1.1131   14.4771   -3.1396 H   0  0  0  0  0  0  0  0  0  0  0  0
   -0.7626   12.7154   -3.1396 H   0  0  0  0  0  0  0  0  0  0  0  0
    2.8513   13.0406   -2.7192 H   0  0  0  0  0  0  0  0  0  0  0  0
    1.2387   11.9576   -4.4122 H   0  0  0  0  0  0  0  0  0  0  0  0
    2.4876   10.9513   -3.5079 H   0  0  0  0  0  0  0  0  0  0  0  0
    0.0919    9.8848   -3.7611 H   0  0  0  0  0  0  0  0  0  0  0  0
   -0.1740   12.0772   -0.3828 H   0  0  0  0  0  0  0  0  0  0  0  0
    1.6175    9.6936    0.3923 H   0  0  0  0  0  0  0  0  0  0  0  0
    1.1090   11.0724    1.4649 H   0  0  0  0  0  0  0  0  0  0  0  0
   -0.1908    9.0141    1.9071 H   0  0  0  0  0  0  0  0  0  0  0  0
   -1.2124   10.3789    1.3075 H   0  0  0  0  0  0  0  0  0  0  0  0
   -1.9059    8.3577    0.2135 H   0  0  0  0  0  0  0  0  0  0  0  0
    0.3250    7.4130    0.5100 H   0  0  0  0  0  0  0  0  0  0  0  0
   -2.6354   10.6273   -0.1462 H   0  0  0  0  0  0  0  0  0  0  0  0
   -2.2552   11.4624   -1.6905 H   0  0  0  0  0  0  0  0  0  0  0  0
   -3.3185   10.0147   -1.6905 H   0  0  0  0  0  0  0  0  0  0  0  0
   -1.9222    7.6210   -2.0559 H   0  0  0  0  0  0  0  0  0  0  0  0
   -2.3814    8.9756   -3.1426 H   0  0  0  0  0  0  0  0  0  0  0  0
   -0.6953    8.3562   -3.1426 H   0  0  0  0  0  0  0  0  0  0  0  0
    3.3668   11.2250    0.2675 H   0  0  0  0  0  0  0  0  0  0  0  0
    3.0250   10.3765   -1.2784 H   0  0  0  0  0  0  0  0  0  0  0  0
    4.0002   11.8850   -1.2784 H   0  0  0  0  0  0  0  0  0  0  0  0
    1.5881   13.0398    1.0123 H   0  0  0  0  0  0  0  0  0  0  0  0
    3.0213   13.6899    0.0331 H   0  0  0  0  0  0  0  0  0  0  0  0
    0.1080   14.4936   -0.1986 H   0  0  0  0  0  0  0  0  0  0  0  0
    1.5099   15.4844    0.3660 H   0  0  0  0  0  0  0  0  0  0  0  0
    3.4245   15.5403   -0.8514 H   0  0  0  0  0  0  0  0  0  0  0  0
    3.5127   14.6402   -2.4034 H   0  0  0  0  0  0  0  0  0  0  0  0
    3.1289   16.3950   -2.4034 H   0  0  0  0  0  0  0  0  0  0  0  0
  1  2  1  0
  2  3  1  0
  3  4  1  0
  4  5  1  0
  5  6  1  0
  6  7  1  0
  7  8  1  0
  7  9  1  0
  2 10  1  0
 10 11  1  0
 11 12  1  0
 12 13  1  0
 13 14  1  1
 13 15  1  0
 15 16  1  0
 16 17  1  0
 17 18  2  0
 18 19  1  0
 19 20  1  0
 20 21  1  0
 21 22  1  0
 22 23  1  0
 22 24  1  0
 24 25  1  0
 24 26  1  0
 19 27  1  0
 27 28  1  6
 27 29  1  0
 29 30  1  0
 30 31  1  0
 31 32  1  1
  7  5  1  0
 31 10  1  0
 31 13  1  0
 27 15  1  0
 24 18  1  0
  1 33  1  0
  1 34  1  0
  1 35  1  0
  2 36  1  6
  3 37  1  0
  3 38  1  0
  4 39  1  0
  4 40  1  0
  5 41  1  1
  8 42  1  0
  8 43  1  0
  8 44  1  0
  9 45  1  0
  9 46  1  0
  9 47  1  0
 10 48  1  1
 11 49  1  0
 11 50  1  0
 12 51  1  0
 12 52  1  0
 14 53  1  0
 14 54  1  0
 14 55  1  0
 15 56  1  6
 16 57  1  0
 16 58  1  0
 17 59  1  0
 19 60  1  1
 20 61  1  0
 20 62  1  0
 21 63  1  0
 21 64  1  0
 22 65  1  1
 23 66  1  0
 25 67  1  0
 25 68  1  0
 25 69  1  0
 26 70  1  0
 26 71  1  0
 26 72  1  0
 28 73  1  0
 28 74  1  0
 28 75  1  0
 29 76  1  0
 29 77  1  0
 30 78  1  0
 30 79  1  0
 32 80  1  0
 32 81  1  0
 32 82  1  0
M  END
>  <meeko>  (3) 
{"is_sidechain": [false], "intermolecular_energy": 2.731, "internal_energy": -0.839}

$$$$
EPH_relaxed_0001_pdb2pqr_Repair_111_r2_0001_out
     RDKit          3D

 82 86  0  0  0  0  0  0  0  0999 V2000
    1.9660   19.6210   -0.5160 C   0  0  0  0  0  0  0  0  0  0  0  0
    2.4020   18.3690    0.2510 C   0  0  2  0  0  0  0  0  0  0  0  0
    3.8420   17.9450   -0.1000 C   0  0  0  0  0  0  0  0  0  0  0  0
    4.8830   18.3890    0.9310 C   0  0  0  0  0  0  0  0  0  0  0  0
    4.2400   18.9210    2.1750 C   0  0  2  0  0  0  0  0  0  0  0  0
    4.7570   20.1790    2.6270 O   0  0  0  0  0  0  0  0  0  0  0  0
    4.9670   19.0580    3.5000 C   0  0  0  0  0  0  0  0  0  0  0  0
    6.4020   18.6600    3.6470 C   0  0  0  0  0  0  0  0  0  0  0  0
    4.1570   19.1140    4.7580 C   0  0  0  0  0  0  0  0  0  0  0  0
    1.4370   17.2240   -0.0330 C   0  0  1  0  0  0  0  0  0  0  0  0
    0.1630   17.6890   -0.7870 C   0  0  0  0  0  0  0  0  0  0  0  0
   -0.2360   16.5350   -1.7430 C   0  0  0  0  0  0  0  0  0  0  0  0
    0.6100   15.3290   -1.2740 C   0  0  1  0  0  0  0  0  0  0  0  0
   -0.1620   14.7490   -0.0480 C   0  0  0  0  0  0  0  0  0  0  0  0
    0.9000   14.2290   -2.3470 C   0  0  2  0  0  0  0  0  0  0  0  0
   -0.3450   13.5110   -2.8960 C   0  0  0  0  0  0  0  0  0  0  0  0
   -0.7520   12.2810   -2.1530 C   0  0  0  0  0  0  0  0  0  0  0  0
    0.0110   11.6140   -1.2680 C   0  0  0  0  0  0  0  0  0  0  0  0
    1.4640   12.0300   -1.0090 C   0  0  1  0  0  0  0  0  0  0  0  0
    2.3730   10.7730   -1.0210 C   0  0  0  0  0  0  0  0  0  0  0  0
    1.8940    9.6960   -0.0530 C   0  0  0  0  0  0  0  0  0  0  0  0
    0.4650    9.2670   -0.3790 C   0  0  2  0  0  0  0  0  0  0  0  0
    0.4610    8.6040   -1.6470 O   0  0  0  0  0  0  0  0  0  0  0  0
   -0.5400   10.4520   -0.4050 C   0  0  0  0  0  0  0  0  0  0  0  0
   -0.7620   10.9780    1.0350 C   0  0  0  0  0  0  0  0  0  0  0  0
   -1.9110    9.9040   -0.8830 C   0  0  0  0  0  0  0  0  0  0  0  0
    2.0250   13.1980   -1.9300 C   0  0  1  0  0  0  0  0  0  0  0  0
    2.5960   12.6030   -3.2540 C   0  0  0  0  0  0  0  0  0  0  0  0
    3.2340   13.8940   -1.1990 C   0  0  0  0  0  0  0  0  0  0  0  0
    2.8930   15.0530   -0.2430 C   0  0  0  0  0  0  0  0  0  0  0  0
    1.9550   16.0600   -0.9150 C   0  0  2  0  0  0  0  0  0  0  0  0
    2.7130   16.6770   -2.1390 C   0  0  0  0  0  0  0  0  0  0  0  0
    1.6908   20.4112    0.1981 H   0  0  0  0  0  0  0  0  0  0  0  0
    2.7952   19.9709   -1.1485 H   0  0  0  0  0  0  0  0  0  0  0  0
    1.0988   19.3801   -1.1485 H   0  0  0  0  0  0  0  0  0  0  0  0
    2.3829   18.6138    1.3232 H   0  0  0  0  0  0  0  0  0  0  0  0
    3.8727   16.8479   -0.1741 H   0  0  0  0  0  0  0  0  0  0  0  0
    4.0996   18.4373   -1.0494 H   0  0  0  0  0  0  0  0  0  0  0  0
    5.5124   17.5266    1.1960 H   0  0  0  0  0  0  0  0  0  0  0  0
    5.4848   19.1946    0.4851 H   0  0  0  0  0  0  0  0  0  0  0  0
    3.2800   18.4574    1.9041 H   0  0  0  0  0  0  0  0  0  0  0  0
    6.6554   18.5897    4.7151 H   0  0  0  0  0  0  0  0  0  0  0  0
    6.5627   17.6834    3.1670 H   0  0  0  0  0  0  0  0  0  0  0  0
    7.0427   19.4143    3.1670 H   0  0  0  0  0  0  0  0  0  0  0  0
    4.8279   19.0676    5.6285 H   0  0  0  0  0  0  0  0  0  0  0  0
    3.5859   20.0538    4.7849 H   0  0  0  0  0  0  0  0  0  0  0  0
    3.4620   18.2618    4.7849 H   0  0  0  0  0  0  0  0  0  0  0  0
    1.2639   16.8697    0.9939 H   0  0  0  0  0  0  0  0  0  0  0  0
   -0.6493   17.8870   -0.0722 H   0  0  0  0  0  0  0  0  0  0  0  0
    0.3509   18.6179   -1.3454 H   0  0  0  0  0  0  0  0  0  0  0  0
   -1.3099   16.3130   -1.6565 H   0  0  0  0  0  0  0  0  0  0  0  0
   -0.0545   16.7863   -2.7984 H   0  0  0  0  0  0  0  0  0  0  0  0
    0.3080   15.1021    0.8817 H   0  0  0  0  0  0  0  0  0  0  0  0
   -1.2086   15.0861   -0.0808 H   0  0  0  0  0  0  0  0  0  0  0  0
   -0.1296   13.6500   -0.0808 H   0  0  0  0  0  0  0  0  0  0  0  0
    1.3012   14.8163   -3.1861 H   0  0  0  0  0  0  0  0  0  0  0  0
   -1.1861   14.2193   -2.8673 H   0  0  0  0  0  0  0  0  0  0  0  0
   -0.0821   13.1799   -3.9115 H   0  0  0  0  0  0  0  0  0  0  0  0
   -1.7608   11.8871   -2.3456 H   0  0  0  0  0  0  0  0  0  0  0  0
    1.4755   12.4887   -0.0093 H   0  0  0  0  0  0  0  0  0  0  0  0
    2.3823   10.3542   -2.0381 H   0  0  0  0  0  0  0  0  0  0  0  0
    3.3786   11.0850   -0.7026 H   0  0  0  0  0  0  0  0  0  0  0  0
    2.5584    8.8226   -0.1285 H   0  0  0  0  0  0  0  0  0  0  0  0
    1.9137   10.1065    0.9673 H   0  0  0  0  0  0  0  0  0  0  0  0
    0.1320    8.5920    0.4232 H   0  0  0  0  0  0  0  0  0  0  0  0
   -0.2910    7.9880   -1.6540 H   0  0  0  0  0  0  0  0  0  0  0  0
   -0.4397   10.2143    1.7581 H   0  0  0  0  0  0  0  0  0  0  0  0
   -0.1745   11.8958    1.1847 H   0  0  0  0  0  0  0  0  0  0  0  0
   -1.8295   11.1974    1.1847 H   0  0  0  0  0  0  0  0  0  0  0  0
   -2.5315    9.6560   -0.0093 H   0  0  0  0  0  0  0  0  0  0  0  0
   -2.4200   10.6678   -1.4893 H   0  0  0  0  0  0  0  0  0  0  0  0
   -1.7533    8.9998   -1.4893 H   0  0  0  0  0  0  0  0  0  0  0  0
    3.3397   11.8280   -3.0169 H   0  0  0  0  0  0  0  0  0  0  0  0
    1.7774   12.1588   -3.8394 H   0  0  0  0  0  0  0  0  0  0  0  0
    3.0735   13.4026   -3.8394 H   0  0  0  0  0  0  0  0  0  0  0  0
    3.7578   13.1234   -0.6144 H   0  0  0  0  0  0  0  0  0  0  0  0
    3.8325   14.3494   -2.0018 H   0  0  0  0  0  0  0  0  0  0  0  0
    2.4022   14.6471    0.6539 H   0  0  0  0  0  0  0  0  0  0  0  0
    3.8254   15.5695    0.0287 H   0  0  0  0  0  0  0  0  0  0  0  0
    3.5190   17.3330   -1.7784 H   0  0  0  0  0  0  0  0  0  0  0  0
    3.1432   15.8691   -2.7491 H   0  0  0  0  0  0  0  0  0  0  0  0
    2.0092   17.2622   -2.7491 H   0  0  0  0  0  0  0  0  0  0  0  0
  1  2  1  0
  2  3  1  0
  3  4  1  0
  4  5  1  0
  5  6  1  0
  6  7  1  0
  7  8  1  0
  7  9  1  0
  2 10  1  0
 10 11  1  0
 11 12  1  0
 12 13  1  0
 13 14  1  1
 13 15  1  0
 15 16  1  0
 16 17  1  0
 17 18  2  0
 18 19  1  0
 19 20  1  0
 20 21  1  0
 21 22  1  0
 22 23  1  0
 22 24  1  0
 24 25  1  0
 24 26  1  0
 19 27  1  0
 27 28  1  6
 27 29  1  0
 29 30  1  0
 30 31  1  0
 31 32  1  6
  7  5  1  0
 31 10  1  0
 31 13  1  0
 27 15  1  0
 24 18  1  0
  1 33  1  0
  1 34  1  0
  1 35  1  0
  2 36  1  1
  3 37  1  0
  3 38  1  0
  4 39  1  0
  4 40  1  0
  5 41  1  1
  8 42  1  0
  8 43  1  0
  8 44  1  0
  9 45  1  0
  9 46  1  0
  9 47  1  0
 10 48  1  1
 11 49  1  0
 11 50  1  0
 12 51  1  0
 12 52  1  0
 14 53  1  0
 14 54  1  0
 14 55  1  0
 15 56  1  6
 16 57  1  0
 16 58  1  0
 17 59  1  0
 19 60  1  1
 20 61  1  0
 20 62  1  0
 21 63  1  0
 21 64  1  0
 22 65  1  1
 23 66  1  0
 25 67  1  0
 25 68  1  0
 25 69  1  0
 26 70  1  0
 26 71  1  0
 26 72  1  0
 28 73  1  0
 28 74  1  0
 28 75  1  0
 29 76  1  0
 29 77  1  0
 30 78  1  0
 30 79  1  0
 32 80  1  0
 32 81  1  0
 32 82  1  0
M  END
>  <meeko>  (4) 
{"is_sidechain": [false], "intermolecular_energy": 2.731, "internal_energy": -0.839}

$$$$
EPH_relaxed_0001_pdb2pqr_Repair_111_r2_0001_out
     RDKit          3D

 82 86  0  0  0  0  0  0  0  0999 V2000
    3.6180   17.9070    0.9630 C   0  0  0  0  0  0  0  0  0  0  0  0
    2.6360   18.3350   -0.1310 C   0  0  2  0  0  0  0  0  0  0  0  0
    1.8780   19.6250    0.2420 C   0  0  0  0  0  0  0  0  0  0  0  0
    0.6240   19.3800    1.0850 C   0  0  0  0  0  0  0  0  0  0  0  0
   -0.5790   20.0560    0.5000 C   0  0  2  0  0  0  0  0  0  0  0  0
   -1.6860   20.1940    1.4000 O   0  0  0  0  0  0  0  0  0  0  0  0
   -1.9000   19.3500    0.2580 C   0  0  0  0  0  0  0  0  0  0  0  0
   -2.0850   17.9040    0.5960 C   0  0  0  0  0  0  0  0  0  0  0  0
   -2.8450   19.9270   -0.7490 C   0  0  0  0  0  0  0  0  0  0  0  0
    1.6450   17.2100   -0.4080 C   0  0  1  0  0  0  0  0  0  0  0  0
    0.4600   17.6650   -1.3020 C   0  0  0  0  0  0  0  0  0  0  0  0
    0.0860   16.4560   -2.1970 C   0  0  0  0  0  0  0  0  0  0  0  0
    0.8340   15.2570   -1.5680 C   0  0  1  0  0  0  0  0  0  0  0  0
   -0.0630   14.8090   -0.3710 C   0  0  0  0  0  0  0  0  0  0  0  0
    1.1580   14.0650   -2.5250 C   0  0  2  0  0  0  0  0  0  0  0  0
   -0.0700   13.3560   -3.1230 C   0  0  0  0  0  0  0  0  0  0  0  0
   -0.5940   12.2070   -2.3260 C   0  0  0  0  0  0  0  0  0  0  0  0
    0.0610   11.5820   -1.3310 C   0  0  0  0  0  0  0  0  0  0  0  0
    1.5070   11.9590   -0.9810 C   0  0  1  0  0  0  0  0  0  0  0  0
    2.3530   10.6690   -0.8200 C   0  0  0  0  0  0  0  0  0  0  0  0
    1.7460    9.6920    0.1830 C   0  0  0  0  0  0  0  0  0  0  0  0
    0.3310    9.2970   -0.2300 C   0  0  2  0  0  0  0  0  0  0  0  0
    0.3990    8.5350   -1.4400 O   0  0  0  0  0  0  0  0  0  0  0  0
   -0.6120   10.5160   -0.4320 C   0  0  0  0  0  0  0  0  0  0  0  0
   -0.9260   11.1640    0.9390 C   0  0  0  0  0  0  0  0  0  0  0  0
   -1.9640    9.9880   -0.9820 C   0  0  0  0  0  0  0  0  0  0  0  0
    2.1960   13.0250   -1.9370 C   0  0  1  0  0  0  0  0  0  0  0  0
    2.8440   12.3040   -3.1590 C   0  0  0  0  0  0  0  0  0  0  0  0
    3.3720   13.7280   -1.1610 C   0  0  0  0  0  0  0  0  0  0  0  0
    3.0090   14.9720   -0.3280 C   0  0  0  0  0  0  0  0  0  0  0  0
    2.1770   15.9600   -1.1520 C   0  0  2  0  0  0  0  0  0  0  0  0
    3.0620   16.4460   -2.3510 C   0  0  0  0  0  0  0  0  0  0  0  0
    3.1739   18.1006    1.9506 H   0  0  0  0  0  0  0  0  0  0  0  0
    3.8340   16.8331    0.8622 H   0  0  0  0  0  0  0  0  0  0  0  0
    4.5517   18.4798    0.8622 H   0  0  0  0  0  0  0  0  0  0  0  0
    3.2215   18.5467   -1.0378 H   0  0  0  0  0  0  0  0  0  0  0  0
    2.5582   20.2749    0.8121 H   0  0  0  0  0  0  0  0  0  0  0  0
    1.5470   20.0871   -0.6998 H   0  0  0  0  0  0  0  0  0  0  0  0
    0.4349   18.2976    1.1361 H   0  0  0  0  0  0  0  0  0  0  0  0
    0.7981   19.7979    2.0875 H   0  0  0  0  0  0  0  0  0  0  0  0
    0.0564   20.6761   -0.1493 H   0  0  0  0  0  0  0  0  0  0  0  0
   -2.1006   17.7821    1.6891 H   0  0  0  0  0  0  0  0  0  0  0  0
   -3.0361   17.5475    0.1737 H   0  0  0  0  0  0  0  0  0  0  0  0
   -1.2543   17.3195    0.1737 H   0  0  0  0  0  0  0  0  0  0  0  0
   -3.6721   20.4320   -0.2285 H   0  0  0  0  0  0  0  0  0  0  0  0
   -2.3107   20.6531   -1.3793 H   0  0  0  0  0  0  0  0  0  0  0  0
   -3.2468   19.1200   -1.3793 H   0  0  0  0  0  0  0  0  0  0  0  0
    1.3732   16.9456    0.6246 H   0  0  0  0  0  0  0  0  0  0  0  0
   -0.3978   17.9531   -0.6765 H   0  0  0  0  0  0  0  0  0  0  0  0
    0.7373   18.5374   -1.9119 H   0  0  0  0  0  0  0  0  0  0  0  0
   -1.0006   16.2853   -2.1845 H   0  0  0  0  0  0  0  0  0  0  0  0
    0.3640   16.6149   -3.2494 H   0  0  0  0  0  0  0  0  0  0  0  0
    0.4376   15.0590    0.5760 H   0  0  0  0  0  0  0  0  0  0  0  0
   -1.0306   15.3297   -0.4229 H   0  0  0  0  0  0  0  0  0  0  0  0
   -0.2280   13.7227   -0.4229 H   0  0  0  0  0  0  0  0  0  0  0  0
    1.6532   14.5680   -3.3687 H   0  0  0  0  0  0  0  0  0  0  0  0
   -0.8765   14.0976   -3.2209 H   0  0  0  0  0  0  0  0  0  0  0  0
    0.2599   12.9345   -4.0840 H   0  0  0  0  0  0  0  0  0  0  0  0
   -1.6012   11.8405   -2.5736 H   0  0  0  0  0  0  0  0  0  0  0  0
    1.4583   12.4959   -0.0222 H   0  0  0  0  0  0  0  0  0  0  0  0
    2.4255   10.1706   -1.7979 H   0  0  0  0  0  0  0  0  0  0  0  0
    3.3427   10.9641   -0.4414 H   0  0  0  0  0  0  0  0  0  0  0  0
    2.3726    8.7891    0.2308 H   0  0  0  0  0  0  0  0  0  0  0  0
    1.7014   10.1810    1.1673 H   0  0  0  0  0  0  0  0  0  0  0  0
   -0.0975    8.7023    0.5902 H   0  0  0  0  0  0  0  0  0  0  0  0
    0.2510    7.6030   -1.2090 H   0  0  0  0  0  0  0  0  0  0  0  0
   -0.6000   10.4912    1.7458 H   0  0  0  0  0  0  0  0  0  0  0  0
   -0.3923   12.1222    1.0225 H   0  0  0  0  0  0  0  0  0  0  0  0
   -2.0088   11.3389    1.0225 H   0  0  0  0  0  0  0  0  0  0  0  0
   -2.6257    9.7296   -0.1421 H   0  0  0  0  0  0  0  0  0  0  0  0
   -2.4390   10.7667   -1.5968 H   0  0  0  0  0  0  0  0  0  0  0  0
   -1.7855    9.0935   -1.5968 H   0  0  0  0  0  0  0  0  0  0  0  0
    3.5394   11.5302   -2.8017 H   0  0  0  0  0  0  0  0  0  0  0  0
    2.0568   11.8363   -3.7685 H   0  0  0  0  0  0  0  0  0  0  0  0
    3.3928   13.0370   -3.7685 H   0  0  0  0  0  0  0  0  0  0  0  0
    3.8099   12.9859   -0.4773 H   0  0  0  0  0  0  0  0  0  0  0  0
    4.0541   14.0940   -1.9425 H   0  0  0  0  0  0  0  0  0  0  0  0
    2.4281   14.6588    0.5521 H   0  0  0  0  0  0  0  0  0  0  0  0
    3.9394   15.4702   -0.0179 H   0  0  0  0  0  0  0  0  0  0  0  0
    3.9644   16.9415   -1.9634 H   0  0  0  0  0  0  0  0  0  0  0  0
    3.3537   15.5815   -2.9655 H   0  0  0  0  0  0  0  0  0  0  0  0
    2.4890   17.1560   -2.9655 H   0  0  0  0  0  0  0  0  0  0  0  0
  1  2  1  0
  2  3  1  0
  3  4  1  0
  4  5  1  0
  5  6  1  0
  6  7  1  0
  7  8  1  0
  7  9  1  0
  2 10  1  0
 10 11  1  0
 11 12  1  0
 12 13  1  0
 13 14  1  1
 13 15  1  0
 15 16  1  0
 16 17  1  0
 17 18  2  0
 18 19  1  0
 19 20  1  0
 20 21  1  0
 21 22  1  0
 22 23  1  0
 22 24  1  0
 24 25  1  0
 24 26  1  0
 19 27  1  0
 27 28  1  6
 27 29  1  0
 29 30  1  0
 30 31  1  0
 31 32  1  6
  7  5  1  0
 31 10  1  0
 31 13  1  0
 27 15  1  0
 24 18  1  0
  1 33  1  0
  1 34  1  0
  1 35  1  0
  2 36  1  6
  3 37  1  0
  3 38  1  0
  4 39  1  0
  4 40  1  0
  5 41  1  6
  8 42  1  0
  8 43  1  0
  8 44  1  0
  9 45  1  0
  9 46  1  0
  9 47  1  0
 10 48  1  1
 11 49  1  0
 11 50  1  0
 12 51  1  0
 12 52  1  0
 14 53  1  0
 14 54  1  0
 14 55  1  0
 15 56  1  6
 16 57  1  0
 16 58  1  0
 17 59  1  0
 19 60  1  1
 20 61  1  0
 20 62  1  0
 21 63  1  0
 21 64  1  0
 22 65  1  1
 23 66  1  0
 25 67  1  0
 25 68  1  0
 25 69  1  0
 26 70  1  0
 26 71  1  0
 26 72  1  0
 28 73  1  0
 28 74  1  0
 28 75  1  0
 29 76  1  0
 29 77  1  0
 30 78  1  0
 30 79  1  0
 32 80  1  0
 32 81  1  0
 32 82  1  0
M  END
>  <meeko>  (5) 
{"is_sidechain": [false], "intermolecular_energy": 2.731, "internal_energy": -0.839}

$$$$
EPH_relaxed_0001_pdb2pqr_Repair_111_r2_0001_out
     RDKit          3D

 82 86  0  0  0  0  0  0  0  0999 V2000
   -4.7000    6.3410   -2.6370 C   0  0  0  0  0  0  0  0  0  0  0  0
   -5.2210    7.7270   -2.2470 C   0  0  2  0  0  0  0  0  0  0  0  0
   -5.0310    8.0170   -0.7450 C   0  0  0  0  0  0  0  0  0  0  0  0
   -3.9550    9.0650   -0.4510 C   0  0  0  0  0  0  0  0  0  0  0  0
   -2.6090    8.6320   -0.9490 C   0  0  2  0  0  0  0  0  0  0  0  0
   -1.5230    8.9080   -0.0550 O   0  0  0  0  0  0  0  0  0  0  0  0
   -1.5010    9.6020   -1.3130 C   0  0  0  0  0  0  0  0  0  0  0  0
   -1.6890   11.0820   -1.1950 C   0  0  0  0  0  0  0  0  0  0  0  0
   -0.4190    9.1380   -2.2390 C   0  0  0  0  0  0  0  0  0  0  0  0
   -6.6930    7.8530   -2.6210 C   0  0  1  0  0  0  0  0  0  0  0  0
   -7.0290    7.1600   -3.9680 C   0  0  0  0  0  0  0  0  0  0  0  0
   -8.4580    6.5770   -3.8270 C   0  0  0  0  0  0  0  0  0  0  0  0
   -9.0210    7.2300   -2.5430 C   0  0  1  0  0  0  0  0  0  0  0  0
   -9.5070    8.6440   -2.9930 C   0  0  0  0  0  0  0  0  0  0  0  0
  -10.1500    6.4410   -1.8030 C   0  0  2  0  0  0  0  0  0  0  0  0
  -11.4420    6.2370   -2.6130 C   0  0  0  0  0  0  0  0  0  0  0  0
  -12.4710    7.3060   -2.4510 C   0  0  0  0  0  0  0  0  0  0  0  0
  -12.4880    8.2350   -1.4780 C   0  0  0  0  0  0  0  0  0  0  0  0
  -11.4500    8.2100   -0.3480 C   0  0  1  0  0  0  0  0  0  0  0  0
  -12.1640    8.4070    1.0150 C   0  0  0  0  0  0  0  0  0  0  0  0
  -13.0300    9.6630    1.0460 C   0  0  0  0  0  0  0  0  0  0  0  0
  -14.0870    9.6240   -0.0550 C   0  0  2  0  0  0  0  0  0  0  0  0
  -15.0130    8.5710    0.2310 O   0  0  0  0  0  0  0  0  0  0  0  0
  -13.4860    9.4190   -1.4740 C   0  0  0  0  0  0  0  0  0  0  0  0
  -12.7250   10.6970   -1.9060 C   0  0  0  0  0  0  0  0  0  0  0  0
  -14.6630    9.2560   -2.4720 C   0  0  0  0  0  0  0  0  0  0  0  0
  -10.4590    6.9670   -0.3440 C   0  0  1  0  0  0  0  0  0  0  0  0
  -11.1020    5.7770    0.4320 C   0  0  0  0  0  0  0  0  0  0  0  0
   -9.1520    7.3550    0.4430 C   0  0  0  0  0  0  0  0  0  0  0  0
   -8.0260    8.0240   -0.3690 C   0  0  0  0  0  0  0  0  0  0  0  0
   -7.7290    7.2360   -1.6480 C   0  0  2  0  0  0  0  0  0  0  0  0
   -7.2170    5.8160   -1.2270 C   0  0  0  0  0  0  0  0  0  0  0  0
   -4.4823    5.7618   -1.7275 H   0  0  0  0  0  0  0  0  0  0  0  0
   -5.4624    5.8167   -3.2318 H   0  0  0  0  0  0  0  0  0  0  0  0
   -3.7810    6.4488   -3.2318 H   0  0  0  0  0  0  0  0  0  0  0  0
   -4.6318    8.4710   -2.8032 H   0  0  0  0  0  0  0  0  0  0  0  0
   -5.9870    8.3774   -0.3374 H   0  0  0  0  0  0  0  0  0  0  0  0
   -4.7014    7.0782   -0.2760 H   0  0  0  0  0  0  0  0  0  0  0  0
   -4.2315   10.0081   -0.9450 H   0  0  0  0  0  0  0  0  0  0  0  0
   -3.8917    9.1951    0.6394 H   0  0  0  0  0  0  0  0  0  0  0  0
   -3.0551    7.7846   -1.4902 H   0  0  0  0  0  0  0  0  0  0  0  0
   -1.7248   11.3635   -0.1322 H   0  0  0  0  0  0  0  0  0  0  0  0
   -0.8492   11.5984   -1.6830 H   0  0  0  0  0  0  0  0  0  0  0  0
   -2.6312   11.3720   -1.6830 H   0  0  0  0  0  0  0  0  0  0  0  0
    0.4351    8.7717   -1.6505 H   0  0  0  0  0  0  0  0  0  0  0  0
   -0.8027    8.3253   -2.8733 H   0  0  0  0  0  0  0  0  0  0  0  0
   -0.0948    9.9762   -2.8733 H   0  0  0  0  0  0  0  0  0  0  0  0
   -6.7884    8.9488   -2.6272 H   0  0  0  0  0  0  0  0  0  0  0  0
   -6.9978    7.8919   -4.7886 H   0  0  0  0  0  0  0  0  0  0  0  0
   -6.3005    6.3684   -4.1973 H   0  0  0  0  0  0  0  0  0  0  0  0
   -9.0734    6.8421   -4.6994 H   0  0  0  0  0  0  0  0  0  0  0  0
   -8.4566    5.4785   -3.7701 H   0  0  0  0  0  0  0  0  0  0  0  0
   -9.7183    9.2587   -2.1056 H   0  0  0  0  0  0  0  0  0  0  0  0
   -8.7232    9.1267   -3.5952 H   0  0  0  0  0  0  0  0  0  0  0  0
  -10.4219    8.5428   -3.5952 H   0  0  0  0  0  0  0  0  0  0  0  0
   -9.7055    5.4408   -1.6935 H   0  0  0  0  0  0  0  0  0  0  0  0
  -11.1710    6.1845   -3.6778 H   0  0  0  0  0  0  0  0  0  0  0  0
  -11.8995    5.3133   -2.2290 H   0  0  0  0  0  0  0  0  0  0  0  0
  -13.2850    7.3369   -3.1903 H   0  0  0  0  0  0  0  0  0  0  0  0
  -10.7714    9.0543   -0.5394 H   0  0  0  0  0  0  0  0  0  0  0  0
  -12.8035    7.5330    1.2076 H   0  0  0  0  0  0  0  0  0  0  0  0
  -11.3871    8.5181    1.7858 H   0  0  0  0  0  0  0  0  0  0  0  0
  -13.5304    9.7313    2.0232 H   0  0  0  0  0  0  0  0  0  0  0  0
  -12.3847   10.5387    0.8824 H   0  0  0  0  0  0  0  0  0  0  0  0
  -14.5889   10.6028   -0.0645 H   0  0  0  0  0  0  0  0  0  0  0  0
  -15.0900    8.5020    1.1980 H   0  0  0  0  0  0  0  0  0  0  0  0
  -12.3969   11.2481   -1.0123 H   0  0  0  0  0  0  0  0  0  0  0  0
  -11.8471   10.4158   -2.5062 H   0  0  0  0  0  0  0  0  0  0  0  0
  -13.3905   11.3348   -2.5062 H   0  0  0  0  0  0  0  0  0  0  0  0
  -15.6018    9.1260   -1.9137 H   0  0  0  0  0  0  0  0  0  0  0  0
  -14.7340   10.1529   -3.1049 H   0  0  0  0  0  0  0  0  0  0  0  0
  -14.4876    8.3736   -3.1049 H   0  0  0  0  0  0  0  0  0  0  0  0
  -11.0079    5.9512    1.5140 H   0  0  0  0  0  0  0  0  0  0  0  0
  -12.1660    5.6971    0.1647 H   0  0  0  0  0  0  0  0  0  0  0  0
  -10.5857    4.8432    0.1647 H   0  0  0  0  0  0  0  0  0  0  0  0
   -9.4406    8.0488    1.2463 H   0  0  0  0  0  0  0  0  0  0  0  0
   -8.7297    6.4001    0.7890 H   0  0  0  0  0  0  0  0  0  0  0  0
   -8.3348    9.0447   -0.6389 H   0  0  0  0  0  0  0  0  0  0  0  0
   -7.1154    8.0472    0.2477 H   0  0  0  0  0  0  0  0  0  0  0  0
   -7.1917    5.7459   -0.1295 H   0  0  0  0  0  0  0  0  0  0  0  0
   -7.8949    5.0481   -1.6280 H   0  0  0  0  0  0  0  0  0  0  0  0
   -6.2050    5.6573   -1.6280 H   0  0  0  0  0  0  0  0  0  0  0  0
  1  2  1  0
  2  3  1  0
  3  4  1  0
  4  5  1  0
  5  6  1  0
  6  7  1  0
  7  8  1  0
  7  9  1  0
  2 10  1  0
 10 11  1  0
 11 12  1  0
 12 13  1  0
 13 14  1  6
 13 15  1  0
 15 16  1  0
 16 17  1  0
 17 18  2  0
 18 19  1  0
 19 20  1  0
 20 21  1  0
 21 22  1  0
 22 23  1  0
 22 24  1  0
 24 25  1  0
 24 26  1  0
 19 27  1  0
 27 28  1  1
 27 29  1  0
 29 30  1  0
 30 31  1  0
 31 32  1  1
  7  5  1  0
 31 10  1  0
 31 13  1  0
 27 15  1  0
 24 18  1  0
  1 33  1  0
  1 34  1  0
  1 35  1  0
  2 36  1  6
  3 37  1  0
  3 38  1  0
  4 39  1  0
  4 40  1  0
  5 41  1  6
  8 42  1  0
  8 43  1  0
  8 44  1  0
  9 45  1  0
  9 46  1  0
  9 47  1  0
 10 48  1  6
 11 49  1  0
 11 50  1  0
 12 51  1  0
 12 52  1  0
 14 53  1  0
 14 54  1  0
 14 55  1  0
 15 56  1  1
 16 57  1  0
 16 58  1  0
 17 59  1  0
 19 60  1  6
 20 61  1  0
 20 62  1  0
 21 63  1  0
 21 64  1  0
 22 65  1  6
 23 66  1  0
 25 67  1  0
 25 68  1  0
 25 69  1  0
 26 70  1  0
 26 71  1  0
 26 72  1  0
 28 73  1  0
 28 74  1  0
 28 75  1  0
 29 76  1  0
 29 77  1  0
 30 78  1  0
 30 79  1  0
 32 80  1  0
 32 81  1  0
 32 82  1  0
M  END
>  <meeko>  (6) 
{"is_sidechain": [false], "intermolecular_energy": 2.731, "internal_energy": -0.839}

$$$$
EPH_relaxed_0001_pdb2pqr_Repair_111_r2_0001_out
     RDKit          3D

 82 86  0  0  0  0  0  0  0  0999 V2000
   -0.6110   10.3310   -2.7580 C   0  0  0  0  0  0  0  0  0  0  0  0
   -0.3160   10.1410   -1.2680 C   0  0  2  0  0  0  0  0  0  0  0  0
   -1.5190    9.5430   -0.5100 C   0  0  0  0  0  0  0  0  0  0  0  0
   -2.5030    8.7930   -1.4110 C   0  0  0  0  0  0  0  0  0  0  0  0
   -3.9000    8.8430   -0.8690 C   0  0  2  0  0  0  0  0  0  0  0  0
   -4.2640    7.7260   -0.0490 O   0  0  0  0  0  0  0  0  0  0  0  0
   -4.9910    7.8730   -1.2790 C   0  0  0  0  0  0  0  0  0  0  0  0
   -4.7340    6.7830   -2.2720 C   0  0  0  0  0  0  0  0  0  0  0  0
   -6.4190    8.2800   -1.0900 C   0  0  0  0  0  0  0  0  0  0  0  0
    0.0840   11.4720   -0.6430 C   0  0  1  0  0  0  0  0  0  0  0  0
    1.2040   11.3200    0.4210 C   0  0  0  0  0  0  0  0  0  0  0  0
    2.0930   12.5860    0.3200 C   0  0  0  0  0  0  0  0  0  0  0  0
    1.2770   13.5660   -0.5550 C   0  0  1  0  0  0  0  0  0  0  0  0
    0.2470   14.2140    0.4230 C   0  0  0  0  0  0  0  0  0  0  0  0
    2.0970   14.6490   -1.3290 C   0  0  2  0  0  0  0  0  0  0  0  0
    2.8770   15.6350   -0.4420 C   0  0  0  0  0  0  0  0  0  0  0  0
    2.1360   16.8730   -0.0610 C   0  0  0  0  0  0  0  0  0  0  0  0
    1.0060   17.3180   -0.6420 C   0  0  0  0  0  0  0  0  0  0  0  0
    0.4140   16.6030   -1.8630 C   0  0  1  0  0  0  0  0  0  0  0  0
    0.0340   17.6500   -2.9430 C   0  0  0  0  0  0  0  0  0  0  0  0
   -0.8850   18.7410   -2.4020 C   0  0  0  0  0  0  0  0  0  0  0  0
   -0.2370   19.4680   -1.2270 C   0  0  2  0  0  0  0  0  0  0  0  0
    0.9000   20.1940   -1.7040 O   0  0  0  0  0  0  0  0  0  0  0  0
    0.1970   18.5130   -0.0800 C   0  0  0  0  0  0  0  0  0  0  0  0
   -1.0590   17.9560    0.6360 C   0  0  0  0  0  0  0  0  0  0  0  0
    0.9620   19.3540    0.9780 C   0  0  0  0  0  0  0  0  0  0  0  0
    1.2760   15.4050   -2.4510 C   0  0  1  0  0  0  0  0  0  0  0  0
    2.3190   15.9520   -3.4730 C   0  0  0  0  0  0  0  0  0  0  0  0
    0.3310   14.4370   -3.2550 C   0  0  0  0  0  0  0  0  0  0  0  0
   -0.3580   13.3150   -2.4560 C   0  0  0  0  0  0  0  0  0  0  0  0
    0.6540   12.5590   -1.5890 C   0  0  2  0  0  0  0  0  0  0  0  0
    1.6900   11.8780   -2.5460 C   0  0  0  0  0  0  0  0  0  0  0  0
   -1.5303   10.9231   -2.8772 H   0  0  0  0  0  0  0  0  0  0  0  0
    0.2290   10.8583   -3.2338 H   0  0  0  0  0  0  0  0  0  0  0  0
   -0.7436    9.3481   -3.2338 H   0  0  0  0  0  0  0  0  0  0  0  0
    0.5160    9.4264   -1.1838 H   0  0  0  0  0  0  0  0  0  0  0  0
   -1.1385    8.8422    0.2477 H   0  0  0  0  0  0  0  0  0  0  0  0
   -2.0689   10.3851   -0.0644 H   0  0  0  0  0  0  0  0  0  0  0  0
   -2.4918    9.2518   -2.4107 H   0  0  0  0  0  0  0  0  0  0  0  0
   -2.1907    7.7393   -1.4574 H   0  0  0  0  0  0  0  0  0  0  0  0
   -3.8684    9.9416   -0.8240 H   0  0  0  0  0  0  0  0  0  0  0  0
   -4.5131    5.8463   -1.7393 H   0  0  0  0  0  0  0  0  0  0  0  0
   -5.6242    6.6447   -2.9033 H   0  0  0  0  0  0  0  0  0  0  0  0
   -3.8758    7.0569   -2.9033 H   0  0  0  0  0  0  0  0  0  0  0  0
   -6.6429    8.3438   -0.0149 H   0  0  0  0  0  0  0  0  0  0  0  0
   -6.5856    9.2614   -1.5581 H   0  0  0  0  0  0  0  0  0  0  0  0
   -7.0780    7.5339   -1.5581 H   0  0  0  0  0  0  0  0  0  0  0  0
   -0.8918   11.7905   -0.2475 H   0  0  0  0  0  0  0  0  0  0  0  0
    0.7637   11.2458    1.4263 H   0  0  0  0  0  0  0  0  0  0  0  0
    1.7941   10.4085    0.2453 H   0  0  0  0  0  0  0  0  0  0  0  0
    2.2742   13.0140    1.3170 H   0  0  0  0  0  0  0  0  0  0  0  0
    3.0823   12.3682   -0.1087 H   0  0  0  0  0  0  0  0  0  0  0  0
    0.5550   14.0202    1.4611 H   0  0  0  0  0  0  0  0  0  0  0  0
    0.2084   15.2994    0.2485 H   0  0  0  0  0  0  0  0  0  0  0  0
   -0.7481   13.7790    0.2485 H   0  0  0  0  0  0  0  0  0  0  0  0
    2.8583   14.0445   -1.8437 H   0  0  0  0  0  0  0  0  0  0  0  0
    3.1598   15.1101    0.4824 H   0  0  0  0  0  0  0  0  0  0  0  0
    3.7378   15.9676   -1.0407 H   0  0  0  0  0  0  0  0  0  0  0  0
    2.5478   17.4726    0.7642 H   0  0  0  0  0  0  0  0  0  0  0  0
   -0.4912   16.0906   -1.5052 H   0  0  0  0  0  0  0  0  0  0  0  0
    0.9552   18.1192   -3.3189 H   0  0  0  0  0  0  0  0  0  0  0  0
   -0.5074   17.1235   -3.7428 H   0  0  0  0  0  0  0  0  0  0  0  0
   -1.0934   19.4657   -3.2028 H   0  0  0  0  0  0  0  0  0  0  0  0
   -1.8177   18.2732   -2.0538 H   0  0  0  0  0  0  0  0  0  0  0  0
   -0.9917   20.1462   -0.8023 H   0  0  0  0  0  0  0  0  0  0  0  0
    1.6960   19.7510   -1.3640 H   0  0  0  0  0  0  0  0  0  0  0  0
   -0.9181   18.0185    1.7252 H   0  0  0  0  0  0  0  0  0  0  0  0
   -1.9394   18.5481    0.3456 H   0  0  0  0  0  0  0  0  0  0  0  0
   -1.2112   16.9060    0.3456 H   0  0  0  0  0  0  0  0  0  0  0  0
    0.6672   19.0299    1.9870 H   0  0  0  0  0  0  0  0  0  0  0  0
    2.0447   19.2095    0.8482 H   0  0  0  0  0  0  0  0  0  0  0  0
    0.7159   20.4182    0.8482 H   0  0  0  0  0  0  0  0  0  0  0  0
    3.1662   16.3963   -2.9300 H   0  0  0  0  0  0  0  0  0  0  0  0
    2.6804   15.1274   -4.1050 H   0  0  0  0  0  0  0  0  0  0  0  0
    1.8461   16.7182   -4.1050 H   0  0  0  0  0  0  0  0  0  0  0  0
   -0.4578   15.0495   -3.7161 H   0  0  0  0  0  0  0  0  0  0  0  0
    0.9896   13.9192   -3.9679 H   0  0  0  0  0  0  0  0  0  0  0  0
   -1.1290   13.7563   -1.8073 H   0  0  0  0  0  0  0  0  0  0  0  0
   -0.8111   12.6066   -3.1651 H   0  0  0  0  0  0  0  0  0  0  0  0
    2.4621   11.3705   -1.9491 H   0  0  0  0  0  0  0  0  0  0  0  0
    1.1744   11.1421   -3.1805 H   0  0  0  0  0  0  0  0  0  0  0  0
    2.1611   12.6431   -3.1805 H   0  0  0  0  0  0  0  0  0  0  0  0
  1  2  1  0
  2  3  1  0
  3  4  1  0
  4  5  1  0
  5  6  1  0
  6  7  1  0
  7  8  1  0
  7  9  1  0
  2 10  1  0
 10 11  1  0
 11 12  1  0
 12 13  1  0
 13 14  1  1
 13 15  1  0
 15 16  1  0
 16 17  1  0
 17 18  2  0
 18 19  1  0
 19 20  1  0
 20 21  1  0
 21 22  1  0
 22 23  1  0
 22 24  1  0
 24 25  1  0
 24 26  1  0
 19 27  1  0
 27 28  1  6
 27 29  1  0
 29 30  1  0
 30 31  1  0
 31 32  1  6
  7  5  1  0
 31 10  1  0
 31 13  1  0
 27 15  1  0
 24 18  1  0
  1 33  1  0
  1 34  1  0
  1 35  1  0
  2 36  1  6
  3 37  1  0
  3 38  1  0
  4 39  1  0
  4 40  1  0
  5 41  1  1
  8 42  1  0
  8 43  1  0
  8 44  1  0
  9 45  1  0
  9 46  1  0
  9 47  1  0
 10 48  1  1
 11 49  1  0
 11 50  1  0
 12 51  1  0
 12 52  1  0
 14 53  1  0
 14 54  1  0
 14 55  1  0
 15 56  1  6
 16 57  1  0
 16 58  1  0
 17 59  1  0
 19 60  1  1
 20 61  1  0
 20 62  1  0
 21 63  1  0
 21 64  1  0
 22 65  1  1
 23 66  1  0
 25 67  1  0
 25 68  1  0
 25 69  1  0
 26 70  1  0
 26 71  1  0
 26 72  1  0
 28 73  1  0
 28 74  1  0
 28 75  1  0
 29 76  1  0
 29 77  1  0
 30 78  1  0
 30 79  1  0
 32 80  1  0
 32 81  1  0
 32 82  1  0
M  END
>  <meeko>  (7) 
{"is_sidechain": [false], "intermolecular_energy": 2.731, "internal_energy": -0.839}

$$$$
EPH_relaxed_0001_pdb2pqr_Repair_111_r2_0001_out
     RDKit          3D

 82 86  0  0  0  0  0  0  0  0999 V2000
    0.4200    8.8700   -2.4580 C   0  0  0  0  0  0  0  0  0  0  0  0
    1.1730   10.0240   -3.1270 C   0  0  2  0  0  0  0  0  0  0  0  0
    2.6700   10.0330   -2.7570 C   0  0  0  0  0  0  0  0  0  0  0  0
    3.5690   10.6290   -3.8430 C   0  0  0  0  0  0  0  0  0  0  0  0
    4.9640   10.8550   -3.3460 C   0  0  2  0  0  0  0  0  0  0  0  0
    5.5830   12.0570   -3.8220 O   0  0  0  0  0  0  0  0  0  0  0  0
    6.1880   10.8240   -4.2430 C   0  0  0  0  0  0  0  0  0  0  0  0
    6.0720   10.5590   -5.7110 C   0  0  0  0  0  0  0  0  0  0  0  0
    7.5250   10.5650   -3.6210 C   0  0  0  0  0  0  0  0  0  0  0  0
    0.5340   11.3530   -2.7430 C   0  0  1  0  0  0  0  0  0  0  0  0
   -0.8410   11.1750   -2.0450 C   0  0  0  0  0  0  0  0  0  0  0  0
   -0.9550   12.3030   -0.9870 C   0  0  0  0  0  0  0  0  0  0  0  0
    0.1930   13.2800   -1.3340 C   0  0  1  0  0  0  0  0  0  0  0  0
   -0.3620   14.1500   -2.5050 C   0  0  0  0  0  0  0  0  0  0  0  0
    0.7260   14.1650   -0.1600 C   0  0  2  0  0  0  0  0  0  0  0  0
   -0.3040   15.1340    0.4460 C   0  0  0  0  0  0  0  0  0  0  0  0
   -0.3510   16.4880   -0.1800 C   0  0  0  0  0  0  0  0  0  0  0  0
    0.5870   17.0070   -0.9940 C   0  0  0  0  0  0  0  0  0  0  0  0
    1.8880   16.2470   -1.2800 C   0  0  1  0  0  0  0  0  0  0  0  0
    3.0940   17.2140   -1.1440 C   0  0  0  0  0  0  0  0  0  0  0  0
    2.9440   18.4610   -2.0090 C   0  0  0  0  0  0  0  0  0  0  0  0
    1.6680   19.2210   -1.6540 C   0  0  2  0  0  0  0  0  0  0  0  0
    1.7980   19.7460   -0.3290 O   0  0  0  0  0  0  0  0  0  0  0  0
    0.3880   18.3450   -1.7470 C   0  0  0  0  0  0  0  0  0  0  0  0
    0.0810   18.0270   -3.2310 C   0  0  0  0  0  0  0  0  0  0  0  0
   -0.8070   19.1900   -1.2280 C   0  0  0  0  0  0  0  0  0  0  0  0
    2.0950   14.8950   -0.4700 C   0  0  1  0  0  0  0  0  0  0  0  0
    2.7590   15.1980    0.9080 C   0  0  0  0  0  0  0  0  0  0  0  0
    3.1010   13.9740   -1.2550 C   0  0  0  0  0  0  0  0  0  0  0  0
    2.4990   13.0360   -2.3190 C   0  0  0  0  0  0  0  0  0  0  0  0
    1.3100   12.2550   -1.7510 C   0  0  2  0  0  0  0  0  0  0  0  0
    1.8410   11.3540   -0.5850 C   0  0  0  0  0  0  0  0  0  0  0  0
    0.4873    8.9731   -1.3649 H   0  0  0  0  0  0  0  0  0  0  0  0
   -0.6362    8.8949   -2.7643 H   0  0  0  0  0  0  0  0  0  0  0  0
    0.8682    7.9133   -2.7643 H   0  0  0  0  0  0  0  0  0  0  0  0
    1.1029    9.8780   -4.2150 H   0  0  0  0  0  0  0  0  0  0  0  0
    2.7970   10.6242   -1.8381 H   0  0  0  0  0  0  0  0  0  0  0  0
    2.9752    8.9842   -2.6271 H   0  0  0  0  0  0  0  0  0  0  0  0
    3.6028    9.9367   -4.6972 H   0  0  0  0  0  0  0  0  0  0  0  0
    3.1492   11.6015   -4.1397 H   0  0  0  0  0  0  0  0  0  0  0  0
    4.7317   10.3502   -2.3967 H   0  0  0  0  0  0  0  0  0  0  0  0
    5.6355    9.5619   -5.8702 H   0  0  0  0  0  0  0  0  0  0  0  0
    5.4248   11.3203   -6.1710 H   0  0  0  0  0  0  0  0  0  0  0  0
    7.0704   10.6000   -6.1710 H   0  0  0  0  0  0  0  0  0  0  0  0
    7.4294   10.5835   -2.5253 H   0  0  0  0  0  0  0  0  0  0  0  0
    7.8931    9.5788   -3.9403 H   0  0  0  0  0  0  0  0  0  0  0  0
    8.2347   11.3424   -3.9403 H   0  0  0  0  0  0  0  0  0  0  0  0
    0.4933   11.8309   -3.7329 H   0  0  0  0  0  0  0  0  0  0  0  0
   -1.6537   11.2626   -2.7811 H   0  0  0  0  0  0  0  0  0  0  0  0
   -0.9201   10.1835   -1.5753 H   0  0  0  0  0  0  0  0  0  0  0  0
   -1.9298   12.8073   -1.0604 H   0  0  0  0  0  0  0  0  0  0  0  0
   -0.8805   11.9198    0.0414 H   0  0  0  0  0  0  0  0  0  0  0  0
   -0.9108   15.0103   -2.0944 H   0  0  0  0  0  0  0  0  0  0  0  0
    0.4740   14.5094   -3.1229 H   0  0  0  0  0  0  0  0  0  0  0  0
   -1.0403   13.5434   -3.1229 H   0  0  0  0  0  0  0  0  0  0  0  0
    0.9315   13.4206    0.6233 H   0  0  0  0  0  0  0  0  0  0  0  0
   -1.3000   14.6781    0.3450 H   0  0  0  0  0  0  0  0  0  0  0  0
    0.0045   15.2920    1.4900 H   0  0  0  0  0  0  0  0  0  0  0  0
   -1.2268   17.1152    0.0428 H   0  0  0  0  0  0  0  0  0  0  0  0
    1.8097   15.8917   -2.3181 H   0  0  0  0  0  0  0  0  0  0  0  0
    3.1813   17.5230   -0.0919 H   0  0  0  0  0  0  0  0  0  0  0  0
    3.9921   16.6777   -1.4842 H   0  0  0  0  0  0  0  0  0  0  0  0
    3.8112   19.1180   -1.8470 H   0  0  0  0  0  0  0  0  0  0  0  0
    2.8871   18.1523   -3.0633 H   0  0  0  0  0  0  0  0  0  0  0  0
    1.5486   20.0289   -2.3909 H   0  0  0  0  0  0  0  0  0  0  0  0
    2.6660   19.4720    0.0120 H   0  0  0  0  0  0  0  0  0  0  0  0
   -0.6820   17.2366   -3.2864 H   0  0  0  0  0  0  0  0  0  0  0  0
   -0.2927   18.9330   -3.7304 H   0  0  0  0  0  0  0  0  0  0  0  0
    0.9996   17.6854   -3.7304 H   0  0  0  0  0  0  0  0  0  0  0  0
   -0.8062   19.1894   -0.1280 H   0  0  0  0  0  0  0  0  0  0  0  0
   -0.7121   20.2229   -1.5942 H   0  0  0  0  0  0  0  0  0  0  0  0
   -1.7492   18.7563   -1.5942 H   0  0  0  0  0  0  0  0  0  0  0  0
    2.0814   14.8888    1.7174 H   0  0  0  0  0  0  0  0  0  0  0  0
    3.7049   14.6424    0.9893 H   0  0  0  0  0  0  0  0  0  0  0  0
    2.9592   16.2766    0.9893 H   0  0  0  0  0  0  0  0  0  0  0  0
    3.8263   14.6285   -1.7605 H   0  0  0  0  0  0  0  0  0  0  0  0
    3.5336   13.3069   -0.4949 H   0  0  0  0  0  0  0  0  0  0  0  0
    2.1593   13.6354   -3.1765 H   0  0  0  0  0  0  0  0  0  0  0  0
    3.2721   12.3192   -2.6327 H   0  0  0  0  0  0  0  0  0  0  0  0
    1.5733   11.8082    0.3804 H   0  0  0  0  0  0  0  0  0  0  0  0
    1.3875   10.3545   -0.6583 H   0  0  0  0  0  0  0  0  0  0  0  0
    2.9351   11.2665   -0.6583 H   0  0  0  0  0  0  0  0  0  0  0  0
  1  2  1  0
  2  3  1  0
  3  4  1  0
  4  5  1  0
  5  6  1  0
  6  7  1  0
  7  8  1  0
  7  9  1  0
  2 10  1  0
 10 11  1  0
 11 12  1  0
 12 13  1  0
 13 14  1  6
 13 15  1  0
 15 16  1  0
 16 17  1  0
 17 18  2  0
 18 19  1  0
 19 20  1  0
 20 21  1  0
 21 22  1  0
 22 23  1  0
 22 24  1  0
 24 25  1  0
 24 26  1  0
 19 27  1  0
 27 28  1  1
 27 29  1  0
 29 30  1  0
 30 31  1  0
 31 32  1  1
  7  5  1  0
 31 10  1  0
 31 13  1  0
 27 15  1  0
 24 18  1  0
  1 33  1  0
  1 34  1  0
  1 35  1  0
  2 36  1  6
  3 37  1  0
  3 38  1  0
  4 39  1  0
  4 40  1  0
  5 41  1  1
  8 42  1  0
  8 43  1  0
  8 44  1  0
  9 45  1  0
  9 46  1  0
  9 47  1  0
 10 48  1  6
 11 49  1  0
 11 50  1  0
 12 51  1  0
 12 52  1  0
 14 53  1  0
 14 54  1  0
 14 55  1  0
 15 56  1  1
 16 57  1  0
 16 58  1  0
 17 59  1  0
 19 60  1  6
 20 61  1  0
 20 62  1  0
 21 63  1  0
 21 64  1  0
 22 65  1  6
 23 66  1  0
 25 67  1  0
 25 68  1  0
 25 69  1  0
 26 70  1  0
 26 71  1  0
 26 72  1  0
 28 73  1  0
 28 74  1  0
 28 75  1  0
 29 76  1  0
 29 77  1  0
 30 78  1  0
 30 79  1  0
 32 80  1  0
 32 81  1  0
 32 82  1  0
M  END
>  <meeko>  (8) 
{"is_sidechain": [false], "intermolecular_energy": 2.731, "internal_energy": -0.839}

$$$$
EPH_relaxed_0001_pdb2pqr_Repair_111_r2_0001_out
     RDKit          3D

 82 86  0  0  0  0  0  0  0  0999 V2000
  -13.8490    5.4210    0.4570 C   0  0  0  0  0  0  0  0  0  0  0  0
  -13.3850    6.8680    0.2700 C   0  0  2  0  0  0  0  0  0  0  0  0
  -14.5660    7.8330    0.0480 C   0  0  0  0  0  0  0  0  0  0  0  0
  -14.2090    9.3050    0.2690 C   0  0  0  0  0  0  0  0  0  0  0  0
  -15.0520   10.2130   -0.5740 C   0  0  2  0  0  0  0  0  0  0  0  0
  -15.1140    9.8560   -1.9620 O   0  0  0  0  0  0  0  0  0  0  0  0
  -14.4880   11.1130   -1.6570 C   0  0  0  0  0  0  0  0  0  0  0  0
  -13.0210   11.1510   -1.9550 C   0  0  0  0  0  0  0  0  0  0  0  0
  -15.2870   12.3040   -2.0870 C   0  0  0  0  0  0  0  0  0  0  0  0
  -12.4140    6.9550   -0.9010 C   0  0  1  0  0  0  0  0  0  0  0  0
  -12.8900    7.9420   -2.0000 C   0  0  0  0  0  0  0  0  0  0  0  0
  -11.6180    8.6090   -2.5850 C   0  0  0  0  0  0  0  0  0  0  0  0
  -10.4470    7.7540   -2.0460 C   0  0  1  0  0  0  0  0  0  0  0  0
  -10.3860    6.5150   -2.9940 C   0  0  0  0  0  0  0  0  0  0  0  0
   -9.0610    8.4690   -1.9420 C   0  0  2  0  0  0  0  0  0  0  0  0
   -8.4730    8.9520   -3.2790 C   0  0  0  0  0  0  0  0  0  0  0  0
   -7.5980    7.9700   -3.9830 C   0  0  0  0  0  0  0  0  0  0  0  0
   -7.0650    6.8620   -3.4340 C   0  0  0  0  0  0  0  0  0  0  0  0
   -7.2480    6.5570   -1.9420 C   0  0  1  0  0  0  0  0  0  0  0  0
   -5.8850    6.1440   -1.3270 C   0  0  0  0  0  0  0  0  0  0  0  0
   -5.2280    4.9920   -2.0810 C   0  0  0  0  0  0  0  0  0  0  0  0
   -5.0100    5.3550   -3.5480 C   0  0  2  0  0  0  0  0  0  0  0  0
   -4.0380    6.4030   -3.6240 O   0  0  0  0  0  0  0  0  0  0  0  0
   -6.3130    5.7980   -4.2700 C   0  0  0  0  0  0  0  0  0  0  0  0
   -7.2470    4.5760   -4.4540 C   0  0  0  0  0  0  0  0  0  0  0  0
   -5.9300    6.2710   -5.6990 C   0  0  0  0  0  0  0  0  0  0  0  0
   -7.9860    7.6780   -1.0900 C   0  0  1  0  0  0  0  0  0  0  0  0
   -6.9530    8.7320   -0.5880 C   0  0  0  0  0  0  0  0  0  0  0  0
   -8.6100    7.0190    0.1960 C   0  0  0  0  0  0  0  0  0  0  0  0
  -10.0300    6.4360    0.0600 C   0  0  0  0  0  0  0  0  0  0  0  0
  -10.9750    7.4450   -0.5980 C   0  0  2  0  0  0  0  0  0  0  0  0
  -11.0740    8.6930    0.3430 C   0  0  0  0  0  0  0  0  0  0  0  0
  -13.9214    5.1951    1.5311 H   0  0  0  0  0  0  0  0  0  0  0  0
  -14.8347    5.2884   -0.0129 H   0  0  0  0  0  0  0  0  0  0  0  0
  -13.1242    4.7399   -0.0129 H   0  0  0  0  0  0  0  0  0  0  0  0
  -12.8784    7.1751    1.1968 H   0  0  0  0  0  0  0  0  0  0  0  0
  -14.9221    7.7137   -0.9859 H   0  0  0  0  0  0  0  0  0  0  0  0
  -15.3357    7.5744    0.7901 H   0  0  0  0  0  0  0  0  0  0  0  0
  -14.3663    9.5546    1.3287 H   0  0  0  0  0  0  0  0  0  0  0  0
  -13.1571    9.4493   -0.0184 H   0  0  0  0  0  0  0  0  0  0  0  0
  -15.7261   10.4108    0.2725 H   0  0  0  0  0  0  0  0  0  0  0  0
  -12.4555   11.1656   -1.0116 H   0  0  0  0  0  0  0  0  0  0  0  0
  -12.7417   10.2598   -2.5361 H   0  0  0  0  0  0  0  0  0  0  0  0
  -12.7882   12.0555   -2.5361 H   0  0  0  0  0  0  0  0  0  0  0  0
  -15.6486   12.8430   -1.1989 H   0  0  0  0  0  0  0  0  0  0  0  0
  -14.6538   12.9724   -2.6890 H   0  0  0  0  0  0  0  0  0  0  0  0
  -16.1456   11.9716   -2.6890 H   0  0  0  0  0  0  0  0  0  0  0  0
  -12.3955    5.8975   -1.2033 H   0  0  0  0  0  0  0  0  0  0  0  0
  -13.4295    7.3982   -2.7894 H   0  0  0  0  0  0  0  0  0  0  0  0
  -13.5748    8.6955   -1.5839 H   0  0  0  0  0  0  0  0  0  0  0  0
  -11.6396    8.5890   -3.6846 H   0  0  0  0  0  0  0  0  0  0  0  0
  -11.5305    9.6666   -2.2955 H   0  0  0  0  0  0  0  0  0  0  0  0
  -10.3407    5.5951   -2.3926 H   0  0  0  0  0  0  0  0  0  0  0  0
  -11.2842    6.4943   -3.6287 H   0  0  0  0  0  0  0  0  0  0  0  0
   -9.4901    6.5827   -3.6287 H   0  0  0  0  0  0  0  0  0  0  0  0
   -9.3082    9.3807   -1.3783 H   0  0  0  0  0  0  0  0  0  0  0  0
   -9.3099    9.2018   -3.9477 H   0  0  0  0  0  0  0  0  0  0  0  0
   -7.8310    9.8115   -3.0359 H   0  0  0  0  0  0  0  0  0  0  0  0
   -7.3687    8.1679   -5.0405 H   0  0  0  0  0  0  0  0  0  0  0  0
   -7.9531    5.7144   -1.8887 H   0  0  0  0  0  0  0  0  0  0  0  0
   -5.2097    7.0120   -1.3513 H   0  0  0  0  0  0  0  0  0  0  0  0
   -6.0722    5.8054   -0.2973 H   0  0  0  0  0  0  0  0  0  0  0  0
   -4.2563    4.7660   -1.6177 H   0  0  0  0  0  0  0  0  0  0  0  0
   -5.8908    4.1156   -2.0306 H   0  0  0  0  0  0  0  0  0  0  0  0
   -4.6588    4.4488   -4.0632 H   0  0  0  0  0  0  0  0  0  0  0  0
   -4.2050    7.0130   -2.8850 H   0  0  0  0  0  0  0  0  0  0  0  0
   -7.5429    4.1889   -3.4678 H   0  0  0  0  0  0  0  0  0  0  0  0
   -8.1443    4.8811   -5.0124 H   0  0  0  0  0  0  0  0  0  0  0  0
   -6.7171    3.7903   -5.0124 H   0  0  0  0  0  0  0  0  0  0  0  0
   -5.2391    7.1242   -5.6300 H   0  0  0  0  0  0  0  0  0  0  0  0
   -5.4418    5.4467   -6.2395 H   0  0  0  0  0  0  0  0  0  0  0  0
   -6.8378    6.5771   -6.2395 H   0  0  0  0  0  0  0  0  0  0  0  0
   -6.9438    8.7414    0.5119 H   0  0  0  0  0  0  0  0  0  0  0  0
   -5.9517    8.4705   -0.9608 H   0  0  0  0  0  0  0  0  0  0  0  0
   -7.2346    9.7278   -0.9608 H   0  0  0  0  0  0  0  0  0  0  0  0
   -7.9433    6.2014    0.5076 H   0  0  0  0  0  0  0  0  0  0  0  0
   -8.7047    7.8397    0.9223 H   0  0  0  0  0  0  0  0  0  0  0  0
   -9.9881    5.5264   -0.5572 H   0  0  0  0  0  0  0  0  0  0  0  0
  -10.4111    6.2017    1.0649 H   0  0  0  0  0  0  0  0  0  0  0  0
  -11.0479    8.3640    1.3923 H   0  0  0  0  0  0  0  0  0  0  0  0
  -10.2265    9.3668    0.1488 H   0  0  0  0  0  0  0  0  0  0  0  0
  -12.0171    9.2247    0.1488 H   0  0  0  0  0  0  0  0  0  0  0  0
  1  2  1  0
  2  3  1  0
  3  4  1  0
  4  5  1  0
  5  6  1  0
  6  7  1  0
  7  8  1  0
  7  9  1  0
  2 10  1  0
 10 11  1  0
 11 12  1  0
 12 13  1  0
 13 14  1  6
 13 15  1  0
 15 16  1  0
 16 17  1  0
 17 18  2  0
 18 19  1  0
 19 20  1  0
 20 21  1  0
 21 22  1  0
 22 23  1  0
 22 24  1  0
 24 25  1  0
 24 26  1  0
 19 27  1  0
 27 28  1  1
 27 29  1  0
 29 30  1  0
 30 31  1  0
 31 32  1  1
  7  5  1  0
 31 10  1  0
 31 13  1  0
 27 15  1  0
 24 18  1  0
  1 33  1  0
  1 34  1  0
  1 35  1  0
  2 36  1  1
  3 37  1  0
  3 38  1  0
  4 39  1  0
  4 40  1  0
  5 41  1  1
  8 42  1  0
  8 43  1  0
  8 44  1  0
  9 45  1  0
  9 46  1  0
  9 47  1  0
 10 48  1  6
 11 49  1  0
 11 50  1  0
 12 51  1  0
 12 52  1  0
 14 53  1  0
 14 54  1  0
 14 55  1  0
 15 56  1  1
 16 57  1  0
 16 58  1  0
 17 59  1  0
 19 60  1  6
 20 61  1  0
 20 62  1  0
 21 63  1  0
 21 64  1  0
 22 65  1  6
 23 66  1  0
 25 67  1  0
 25 68  1  0
 25 69  1  0
 26 70  1  0
 26 71  1  0
 26 72  1  0
 28 73  1  0
 28 74  1  0
 28 75  1  0
 29 76  1  0
 29 77  1  0
 30 78  1  0
 30 79  1  0
 32 80  1  0
 32 81  1  0
 32 82  1  0
M  END
>  <meeko>  (9) 
{"is_sidechain": [false], "intermolecular_energy": 2.731, "internal_energy": -0.839}

$$$$
EPH_relaxed_0001_pdb2pqr_Repair_111_r2_0001_out
     RDKit          3D

 82 86  0  0  0  0  0  0  0  0999 V2000
   -3.6380    7.2530   -3.6760 C   0  0  0  0  0  0  0  0  0  0  0  0
   -3.5230    7.2270   -2.1490 C   0  0  2  0  0  0  0  0  0  0  0  0
   -4.8540    6.8440   -1.4730 C   0  0  0  0  0  0  0  0  0  0  0  0
   -5.9590    6.4630   -2.4620 C   0  0  0  0  0  0  0  0  0  0  0  0
   -6.9600    7.5660   -2.6280 C   0  0  2  0  0  0  0  0  0  0  0  0
   -8.2380    7.1450   -3.1220 O   0  0  0  0  0  0  0  0  0  0  0  0
   -7.4860    8.0220   -3.9760 C   0  0  0  0  0  0  0  0  0  0  0  0
   -7.0260    7.3860   -5.2490 C   0  0  0  0  0  0  0  0  0  0  0  0
   -8.0670    9.3980   -4.0890 C   0  0  0  0  0  0  0  0  0  0  0  0
   -3.0510    8.5840   -1.6410 C   0  0  1  0  0  0  0  0  0  0  0  0
   -3.7490    9.0020   -0.3190 C   0  0  0  0  0  0  0  0  0  0  0  0
   -2.7000    9.7830    0.5130 C   0  0  0  0  0  0  0  0  0  0  0  0
   -1.5520   10.0760   -0.4810 C   0  0  1  0  0  0  0  0  0  0  0  0
   -2.0280   11.3250   -1.2870 C   0  0  0  0  0  0  0  0  0  0  0  0
   -0.1360   10.2970    0.1440 C   0  0  2  0  0  0  0  0  0  0  0  0
   -0.0190   11.5100    1.0830 C   0  0  0  0  0  0  0  0  0  0  0  0
    0.3800   12.7890    0.4250 C   0  0  0  0  0  0  0  0  0  0  0  0
    0.9090   12.9030   -0.8070 C   0  0  0  0  0  0  0  0  0  0  0  0
    1.2470   11.6580   -1.6380 C   0  0  1  0  0  0  0  0  0  0  0  0
    2.6640   11.8130   -2.2500 C   0  0  0  0  0  0  0  0  0  0  0  0
    2.8200   13.1050   -3.0460 C   0  0  0  0  0  0  0  0  0  0  0  0
    2.5320   14.3230   -2.1710 C   0  0  2  0  0  0  0  0  0  0  0  0
    3.5500   14.4220   -1.1700 O   0  0  0  0  0  0  0  0  0  0  0  0
    1.1340   14.2730   -1.4930 C   0  0  0  0  0  0  0  0  0  0  0  0
    0.0300   14.4700   -2.5610 C   0  0  0  0  0  0  0  0  0  0  0  0
    1.0280   15.4870   -0.5300 C   0  0  0  0  0  0  0  0  0  0  0  0
    1.0480   10.2620   -0.9060 C   0  0  1  0  0  0  0  0  0  0  0  0
    2.3370    9.8890   -0.1100 C   0  0  0  0  0  0  0  0  0  0  0  0
    0.8540    9.1360   -1.9890 C   0  0  0  0  0  0  0  0  0  0  0  0
   -0.5850    8.8840   -2.4790 C   0  0  0  0  0  0  0  0  0  0  0  0
   -1.5480    8.7320   -1.2980 C   0  0  2  0  0  0  0  0  0  0  0  0
   -1.1070    7.4700   -0.4810 C   0  0  0  0  0  0  0  0  0  0  0  0
   -4.6741    7.4872   -3.9617 H   0  0  0  0  0  0  0  0  0  0  0  0
   -2.9632    8.0213   -4.0815 H   0  0  0  0  0  0  0  0  0  0  0  0
   -3.3593    6.2692   -4.0815 H   0  0  0  0  0  0  0  0  0  0  0  0
   -2.7856    6.4545   -1.8852 H   0  0  0  0  0  0  0  0  0  0  0  0
   -4.6719    5.9866   -0.8084 H   0  0  0  0  0  0  0  0  0  0  0  0
   -5.2041    7.7319   -0.9260 H   0  0  0  0  0  0  0  0  0  0  0  0
   -5.5031    6.2455   -3.4392 H   0  0  0  0  0  0  0  0  0  0  0  0
   -6.4837    5.5809   -2.0662 H   0  0  0  0  0  0  0  0  0  0  0  0
   -6.5287    8.1173   -1.7794 H   0  0  0  0  0  0  0  0  0  0  0  0
   -6.3959    6.5148   -5.0168 H   0  0  0  0  0  0  0  0  0  0  0  0
   -7.8996    7.0614   -5.8333 H   0  0  0  0  0  0  0  0  0  0  0  0
   -6.4441    8.1141   -5.8333 H   0  0  0  0  0  0  0  0  0  0  0  0
   -8.2397    9.8069   -3.0825 H   0  0  0  0  0  0  0  0  0  0  0  0
   -7.3666   10.0482   -4.6337 H   0  0  0  0  0  0  0  0  0  0  0  0
   -9.0214    9.3494   -4.6337 H   0  0  0  0  0  0  0  0  0  0  0  0
   -3.3002    9.2046   -2.5144 H   0  0  0  0  0  0  0  0  0  0  0  0
   -4.6156    9.6442   -0.5348 H   0  0  0  0  0  0  0  0  0  0  0  0
   -4.1132    8.1216    0.2308 H   0  0  0  0  0  0  0  0  0  0  0  0
   -3.1291   10.7200    0.8976 H   0  0  0  0  0  0  0  0  0  0  0  0
   -2.3569    9.2149    1.3902 H   0  0  0  0  0  0  0  0  0  0  0  0
   -2.3305   12.1188   -0.5882 H   0  0  0  0  0  0  0  0  0  0  0  0
   -1.2052   11.6880   -1.9204 H   0  0  0  0  0  0  0  0  0  0  0  0
   -2.8837   11.0483   -1.9204 H   0  0  0  0  0  0  0  0  0  0  0  0
   -0.0203    9.4111    0.7857 H   0  0  0  0  0  0  0  0  0  0  0  0
   -0.9971   11.6648    1.5619 H   0  0  0  0  0  0  0  0  0  0  0  0
    0.7858   11.2689    1.7931 H   0  0  0  0  0  0  0  0  0  0  0  0
    0.2288   13.7172    0.9957 H   0  0  0  0  0  0  0  0  0  0  0  0
    0.4965   11.6150   -2.4411 H   0  0  0  0  0  0  0  0  0  0  0  0
    3.4024   11.8100   -1.4346 H   0  0  0  0  0  0  0  0  0  0  0  0
    2.8219   10.9732   -2.9427 H   0  0  0  0  0  0  0  0  0  0  0  0
    3.8497   13.1709   -3.4272 H   0  0  0  0  0  0  0  0  0  0  0  0
    2.1016   13.0932   -3.8790 H   0  0  0  0  0  0  0  0  0  0  0  0
    2.5313   15.2073   -2.8252 H   0  0  0  0  0  0  0  0  0  0  0  0
    3.7030   13.5290   -0.8170 H   0  0  0  0  0  0  0  0  0  0  0  0
   -0.9355   14.6423   -2.0629 H   0  0  0  0  0  0  0  0  0  0  0  0
    0.2784   15.3380   -3.1894 H   0  0  0  0  0  0  0  0  0  0  0  0
   -0.0371   13.5696   -3.1894 H   0  0  0  0  0  0  0  0  0  0  0  0
    1.0589   15.1330    0.5110 H   0  0  0  0  0  0  0  0  0  0  0  0
    1.8698   16.1720   -0.7095 H   0  0  0  0  0  0  0  0  0  0  0  0
    0.0803   16.0158   -0.7095 H   0  0  0  0  0  0  0  0  0  0  0  0
    2.1317    9.9484    0.9690 H   0  0  0  0  0  0  0  0  0  0  0  0
    2.6444    8.8651   -0.3689 H   0  0  0  0  0  0  0  0  0  0  0  0
    3.1437   10.5906   -0.3689 H   0  0  0  0  0  0  0  0  0  0  0  0
    1.4609    9.4087   -2.8650 H   0  0  0  0  0  0  0  0  0  0  0  0
    1.1562    8.2027   -1.4913 H   0  0  0  0  0  0  0  0  0  0  0  0
   -0.9077    9.7332   -3.0993 H   0  0  0  0  0  0  0  0  0  0  0  0
   -0.5980    7.9526   -3.0640 H   0  0  0  0  0  0  0  0  0  0  0  0
   -1.1822    7.6852    0.5951 H   0  0  0  0  0  0  0  0  0  0  0  0
   -1.7625    6.6231   -0.7323 H   0  0  0  0  0  0  0  0  0  0  0  0
   -0.0667    7.2157   -0.7323 H   0  0  0  0  0  0  0  0  0  0  0  0
  1  2  1  0
  2  3  1  0
  3  4  1  0
  4  5  1  0
  5  6  1  0
  6  7  1  0
  7  8  1  0
  7  9  1  0
  2 10  1  0
 10 11  1  0
 11 12  1  0
 12 13  1  0
 13 14  1  6
 13 15  1  0
 15 16  1  0
 16 17  1  0
 17 18  2  0
 18 19  1  0
 19 20  1  0
 20 21  1  0
 21 22  1  0
 22 23  1  0
 22 24  1  0
 24 25  1  0
 24 26  1  0
 19 27  1  0
 27 28  1  1
 27 29  1  0
 29 30  1  0
 30 31  1  0
 31 32  1  1
  7  5  1  0
 31 10  1  0
 31 13  1  0
 27 15  1  0
 24 18  1  0
  1 33  1  0
  1 34  1  0
  1 35  1  0
  2 36  1  6
  3 37  1  0
  3 38  1  0
  4 39  1  0
  4 40  1  0
  5 41  1  1
  8 42  1  0
  8 43  1  0
  8 44  1  0
  9 45  1  0
  9 46  1  0
  9 47  1  0
 10 48  1  6
 11 49  1  0
 11 50  1  0
 12 51  1  0
 12 52  1  0
 14 53  1  0
 14 54  1  0
 14 55  1  0
 15 56  1  1
 16 57  1  0
 16 58  1  0
 17 59  1  0
 19 60  1  6
 20 61  1  0
 20 62  1  0
 21 63  1  0
 21 64  1  0
 22 65  1  6
 23 66  1  0
 25 67  1  0
 25 68  1  0
 25 69  1  0
 26 70  1  0
 26 71  1  0
 26 72  1  0
 28 73  1  0
 28 74  1  0
 28 75  1  0
 29 76  1  0
 29 77  1  0
 30 78  1  0
 30 79  1  0
 32 80  1  0
 32 81  1  0
 32 82  1  0
M  END
>  <meeko>  (10) 
{"is_sidechain": [false], "intermolecular_energy": 2.731, "internal_energy": -0.839}

$$$$
EPH_relaxed_0001_pdb2pqr_Repair_111_r2_0001_out
     RDKit          3D

 82 86  0  0  0  0  0  0  0  0999 V2000
    2.9860   18.8360   -1.1620 C   0  0  0  0  0  0  0  0  0  0  0  0
    2.6750   17.7750   -2.2220 C   0  0  2  0  0  0  0  0  0  0  0  0
    1.2860   17.9790   -2.8580 C   0  0  0  0  0  0  0  0  0  0  0  0
    0.5990   19.2800   -2.4330 C   0  0  0  0  0  0  0  0  0  0  0  0
   -0.7160   19.0200   -1.7640 C   0  0  2  0  0  0  0  0  0  0  0  0
   -1.4920   20.1940   -1.4920 O   0  0  0  0  0  0  0  0  0  0  0  0
   -1.0340   19.4590   -0.3470 C   0  0  0  0  0  0  0  0  0  0  0  0
   -0.0320   20.1930    0.4870 C   0  0  0  0  0  0  0  0  0  0  0  0
   -2.1280   18.7520    0.3920 C   0  0  0  0  0  0  0  0  0  0  0  0
    2.7670   16.3840   -1.6060 C   0  0  1  0  0  0  0  0  0  0  0  0
    3.3670   16.4020   -0.1750 C   0  0  0  0  0  0  0  0  0  0  0  0
    2.6470   15.2880    0.6260 C   0  0  0  0  0  0  0  0  0  0  0  0
    1.9050   14.4540   -0.4450 C   0  0  1  0  0  0  0  0  0  0  0  0
    2.9920   13.5020   -1.0350 C   0  0  0  0  0  0  0  0  0  0  0  0
    0.6480   13.6630    0.0420 C   0  0  2  0  0  0  0  0  0  0  0  0
    0.9270   12.5840    1.1040 C   0  0  0  0  0  0  0  0  0  0  0  0
    1.2270   11.2240    0.5670 C   0  0  0  0  0  0  0  0  0  0  0  0
    0.9950   10.8110   -0.6930 C   0  0  0  0  0  0  0  0  0  0  0  0
    0.2810   11.7220   -1.7010 C   0  0  1  0  0  0  0  0  0  0  0  0
   -0.8170   10.9140   -2.4410 C   0  0  0  0  0  0  0  0  0  0  0  0
   -0.2730    9.6430   -3.0860 C   0  0  0  0  0  0  0  0  0  0  0  0
    0.3770    8.7370   -2.0430 C   0  0  2  0  0  0  0  0  0  0  0  0
   -0.6370    8.2550   -1.1550 O   0  0  0  0  0  0  0  0  0  0  0  0
    1.4930    9.4460   -1.2260 C   0  0  0  0  0  0  0  0  0  0  0  0
    2.7220    9.6980   -2.1350 C   0  0  0  0  0  0  0  0  0  0  0  0
    1.9670    8.4680   -0.1170 C   0  0  0  0  0  0  0  0  0  0  0  0
   -0.2590   13.1020   -1.1270 C   0  0  1  0  0  0  0  0  0  0  0  0
   -1.6860   12.9080   -0.5300 C   0  0  0  0  0  0  0  0  0  0  0  0
   -0.4090   14.1280   -2.3120 C   0  0  0  0  0  0  0  0  0  0  0  0
    0.8340   14.9650   -2.6680 C   0  0  0  0  0  0  0  0  0  0  0  0
    1.4440   15.6020   -1.4150 C   0  0  2  0  0  0  0  0  0  0  0  0
    0.3810   16.5820   -0.8120 C   0  0  0  0  0  0  0  0  0  0  0  0
    2.8586   18.4012   -0.1596 H   0  0  0  0  0  0  0  0  0  0  0  0
    4.0233   19.1817   -1.2826 H   0  0  0  0  0  0  0  0  0  0  0  0
    2.2995   19.6870   -1.2826 H   0  0  0  0  0  0  0  0  0  0  0  0
    3.4222   17.8776   -3.0228 H   0  0  0  0  0  0  0  0  0  0  0  0
    1.4031   17.9894   -3.9517 H   0  0  0  0  0  0  0  0  0  0  0  0
    0.6494   17.1515   -2.5117 H   0  0  0  0  0  0  0  0  0  0  0  0
    1.2552   19.8171   -1.7324 H   0  0  0  0  0  0  0  0  0  0  0  0
    0.4114   19.8793   -3.3361 H   0  0  0  0  0  0  0  0  0  0  0  0
   -0.8118   18.0511   -2.2758 H   0  0  0  0  0  0  0  0  0  0  0  0
   -0.2528   20.0312    1.5524 H   0  0  0  0  0  0  0  0  0  0  0  0
    0.9775   19.8192    0.2609 H   0  0  0  0  0  0  0  0  0  0  0  0
   -0.0840   21.2683    0.2609 H   0  0  0  0  0  0  0  0  0  0  0  0
   -1.9660   18.8567    1.4750 H   0  0  0  0  0  0  0  0  0  0  0  0
   -3.0982   19.1943    0.1219 H   0  0  0  0  0  0  0  0  0  0  0  0
   -2.1233   17.6857    0.1219 H   0  0  0  0  0  0  0  0  0  0  0  0
    3.3912   15.8883   -2.3641 H   0  0  0  0  0  0  0  0  0  0  0  0
    4.4478   16.2015   -0.2149 H   0  0  0  0  0  0  0  0  0  0  0  0
    3.2258   17.3840    0.3000 H   0  0  0  0  0  0  0  0  0  0  0  0
    3.3755   14.6658    1.1666 H   0  0  0  0  0  0  0  0  0  0  0  0
    1.9628   15.6958    1.3847 H   0  0  0  0  0  0  0  0  0  0  0  0
    3.5423   13.0201   -0.2135 H   0  0  0  0  0  0  0  0  0  0  0  0
    2.5082   12.7318   -1.6537 H   0  0  0  0  0  0  0  0  0  0  0  0
    3.6916   14.0831   -1.6537 H   0  0  0  0  0  0  0  0  0  0  0  0
    0.0634   14.4420    0.5532 H   0  0  0  0  0  0  0  0  0  0  0  0
    1.7900   12.9112    1.7025 H   0  0  0  0  0  0  0  0  0  0  0  0
   -0.0004   12.4835    1.6869 H   0  0  0  0  0  0  0  0  0  0  0  0
    1.6760   10.4972    1.2600 H   0  0  0  0  0  0  0  0  0  0  0  0
    1.0510   12.0473   -2.4160 H   0  0  0  0  0  0  0  0  0  0  0  0
   -1.5980   10.6361   -1.7180 H   0  0  0  0  0  0  0  0  0  0  0  0
   -1.2168   11.5511   -3.2436 H   0  0  0  0  0  0  0  0  0  0  0  0
   -1.1003    9.1014   -3.5679 H   0  0  0  0  0  0  0  0  0  0  0  0
    0.4873    9.9243   -3.8295 H   0  0  0  0  0  0  0  0  0  0  0  0
    0.8606    7.9084   -2.5811 H   0  0  0  0  0  0  0  0  0  0  0  0
   -0.3990    8.5390   -0.2560 H   0  0  0  0  0  0  0  0  0  0  0  0
    3.6090    9.8799   -1.5103 H   0  0  0  0  0  0  0  0  0  0  0  0
    2.8952    8.8167   -2.7700 H   0  0  0  0  0  0  0  0  0  0  0  0
    2.5344   10.5764   -2.7700 H   0  0  0  0  0  0  0  0  0  0  0  0
    1.7559    8.9036    0.8708 H   0  0  0  0  0  0  0  0  0  0  0  0
    1.4322    7.5121   -0.2181 H   0  0  0  0  0  0  0  0  0  0  0  0
    3.0487    8.2955   -0.2181 H   0  0  0  0  0  0  0  0  0  0  0  0
   -1.6281   12.9159    0.5684 H   0  0  0  0  0  0  0  0  0  0  0  0
   -2.3394   13.7256   -0.8686 H   0  0  0  0  0  0  0  0  0  0  0  0
   -2.0974   11.9457   -0.8686 H   0  0  0  0  0  0  0  0  0  0  0  0
   -0.6959   13.5602   -3.2094 H   0  0  0  0  0  0  0  0  0  0  0  0
   -1.1578   14.8569   -1.9684 H   0  0  0  0  0  0  0  0  0  0  0  0
    1.5831   14.3132   -3.1413 H   0  0  0  0  0  0  0  0  0  0  0  0
    0.5309   15.7672   -3.3570 H   0  0  0  0  0  0  0  0  0  0  0  0
    0.4257   16.5408    0.2863 H   0  0  0  0  0  0  0  0  0  0  0  0
    0.5942   17.6070   -1.1494 H   0  0  0  0  0  0  0  0  0  0  0  0
   -0.6233   16.2863   -1.1494 H   0  0  0  0  0  0  0  0  0  0  0  0
  1  2  1  0
  2  3  1  0
  3  4  1  0
  4  5  1  0
  5  6  1  0
  6  7  1  0
  7  8  1  0
  7  9  1  0
  2 10  1  0
 10 11  1  0
 11 12  1  0
 12 13  1  0
 13 14  1  6
 13 15  1  0
 15 16  1  0
 16 17  1  0
 17 18  2  0
 18 19  1  0
 19 20  1  0
 20 21  1  0
 21 22  1  0
 22 23  1  0
 22 24  1  0
 24 25  1  0
 24 26  1  0
 19 27  1  0
 27 28  1  1
 27 29  1  0
 29 30  1  0
 30 31  1  0
 31 32  1  1
  7  5  1  0
 31 10  1  0
 31 13  1  0
 27 15  1  0
 24 18  1  0
  1 33  1  0
  1 34  1  0
  1 35  1  0
  2 36  1  6
  3 37  1  0
  3 38  1  0
  4 39  1  0
  4 40  1  0
  5 41  1  6
  8 42  1  0
  8 43  1  0
  8 44  1  0
  9 45  1  0
  9 46  1  0
  9 47  1  0
 10 48  1  6
 11 49  1  0
 11 50  1  0
 12 51  1  0
 12 52  1  0
 14 53  1  0
 14 54  1  0
 14 55  1  0
 15 56  1  1
 16 57  1  0
 16 58  1  0
 17 59  1  0
 19 60  1  6
 20 61  1  0
 20 62  1  0
 21 63  1  0
 21 64  1  0
 22 65  1  6
 23 66  1  0
 25 67  1  0
 25 68  1  0
 25 69  1  0
 26 70  1  0
 26 71  1  0
 26 72  1  0
 28 73  1  0
 28 74  1  0
 28 75  1  0
 29 76  1  0
 29 77  1  0
 30 78  1  0
 30 79  1  0
 32 80  1  0
 32 81  1  0
 32 82  1  0
M  END
>  <meeko>  (11) 
{"is_sidechain": [false], "intermolecular_energy": 2.731, "internal_energy": -0.839}

$$$$
EPH_relaxed_0001_pdb2pqr_Repair_111_r2_0001_out
     RDKit          3D

 82 86  0  0  0  0  0  0  0  0999 V2000
   -3.5900    7.2260   -3.6120 C   0  0  0  0  0  0  0  0  0  0  0  0
   -3.6020    7.2560   -2.0810 C   0  0  2  0  0  0  0  0  0  0  0  0
   -5.0030    6.9640   -1.5070 C   0  0  0  0  0  0  0  0  0  0  0  0
   -6.1410    7.2240   -2.4970 C   0  0  0  0  0  0  0  0  0  0  0  0
   -7.4400    7.4820   -1.7940 C   0  0  2  0  0  0  0  0  0  0  0  0
   -7.9860    6.3460   -1.1110 O   0  0  0  0  0  0  0  0  0  0  0  0
   -8.7560    6.8540   -2.2130 C   0  0  0  0  0  0  0  0  0  0  0  0
   -8.8400    5.9200   -3.3790 C   0  0  0  0  0  0  0  0  0  0  0  0
  -10.0300    7.5230   -1.8000 C   0  0  0  0  0  0  0  0  0  0  0  0
   -3.1060    8.6090   -1.5840 C   0  0  1  0  0  0  0  0  0  0  0  0
   -3.7860    9.0430   -0.2580 C   0  0  0  0  0  0  0  0  0  0  0  0
   -2.7180    9.8130    0.5610 C   0  0  0  0  0  0  0  0  0  0  0  0
   -1.5750   10.0830   -0.4460 C   0  0  1  0  0  0  0  0  0  0  0  0
   -2.0400   11.3360   -1.2540 C   0  0  0  0  0  0  0  0  0  0  0  0
   -0.1500   10.2870    0.1650 C   0  0  2  0  0  0  0  0  0  0  0  0
   -0.0070   11.5030    1.0960 C   0  0  0  0  0  0  0  0  0  0  0  0
    0.4040   12.7730    0.4290 C   0  0  0  0  0  0  0  0  0  0  0  0
    0.9240   12.8730   -0.8090 C   0  0  0  0  0  0  0  0  0  0  0  0
    1.2360   11.6190   -1.6360 C   0  0  1  0  0  0  0  0  0  0  0  0
    2.6490   11.7510   -2.2620 C   0  0  0  0  0  0  0  0  0  0  0  0
    2.8160   13.0360   -3.0660 C   0  0  0  0  0  0  0  0  0  0  0  0
    2.5540   14.2620   -2.1950 C   0  0  2  0  0  0  0  0  0  0  0  0
    3.5830   14.3510   -1.2040 O   0  0  0  0  0  0  0  0  0  0  0  0
    1.1630   14.2370   -1.5040 C   0  0  0  0  0  0  0  0  0  0  0  0
    0.0520   14.4440   -2.5620 C   0  0  0  0  0  0  0  0  0  0  0  0
    1.0830   15.4560   -0.5460 C   0  0  0  0  0  0  0  0  0  0  0  0
    1.0230   10.2300   -0.8950 C   0  0  1  0  0  0  0  0  0  0  0  0
    2.3140    9.8420   -0.1100 C   0  0  0  0  0  0  0  0  0  0  0  0
    0.8030    9.1020   -1.9710 C   0  0  0  0  0  0  0  0  0  0  0  0
   -0.6440    8.8680   -2.4470 C   0  0  0  0  0  0  0  0  0  0  0  0
   -1.5980    8.7360   -1.2560 C   0  0  2  0  0  0  0  0  0  0  0  0
   -1.1680    7.4720   -0.4370 C   0  0  0  0  0  0  0  0  0  0  0  0
   -3.2020    6.2561   -3.9567 H   0  0  0  0  0  0  0  0  0  0  0  0
   -4.6136    7.3666   -3.9895 H   0  0  0  0  0  0  0  0  0  0  0  0
   -2.9458    8.0337   -3.9895 H   0  0  0  0  0  0  0  0  0  0  0  0
   -2.9283    6.4614   -1.7280 H   0  0  0  0  0  0  0  0  0  0  0  0
   -5.0408    5.9071   -1.2045 H   0  0  0  0  0  0  0  0  0  0  0  0
   -5.1519    7.6492   -0.6595 H   0  0  0  0  0  0  0  0  0  0  0  0
   -5.8869    8.1015   -3.1097 H   0  0  0  0  0  0  0  0  0  0  0  0
   -6.2622    6.3277   -3.1230 H   0  0  0  0  0  0  0  0  0  0  0  0
   -7.1513    8.5239   -1.5910 H   0  0  0  0  0  0  0  0  0  0  0  0
   -8.9330    4.8862   -3.0148 H   0  0  0  0  0  0  0  0  0  0  0  0
   -9.7189    6.1740   -3.9897 H   0  0  0  0  0  0  0  0  0  0  0  0
   -7.9299    6.0131   -3.9897 H   0  0  0  0  0  0  0  0  0  0  0  0
  -10.0887    7.5538   -0.7020 H   0  0  0  0  0  0  0  0  0  0  0  0
  -10.0511    8.5485   -2.1973 H   0  0  0  0  0  0  0  0  0  0  0  0
  -10.8862    6.9582   -2.1973 H   0  0  0  0  0  0  0  0  0  0  0  0
   -3.3543    9.2298   -2.4575 H   0  0  0  0  0  0  0  0  0  0  0  0
   -4.6453    9.6965   -0.4691 H   0  0  0  0  0  0  0  0  0  0  0  0
   -4.1579    8.1706    0.2993 H   0  0  0  0  0  0  0  0  0  0  0  0
   -3.1295   10.7584    0.9442 H   0  0  0  0  0  0  0  0  0  0  0  0
   -2.3756    9.2452    1.4387 H   0  0  0  0  0  0  0  0  0  0  0  0
   -2.3359   12.1332   -0.5562 H   0  0  0  0  0  0  0  0  0  0  0  0
   -1.2138   11.6911   -1.8875 H   0  0  0  0  0  0  0  0  0  0  0  0
   -2.8979   11.0662   -1.8875 H   0  0  0  0  0  0  0  0  0  0  0  0
   -0.0412    9.4028    0.8103 H   0  0  0  0  0  0  0  0  0  0  0  0
   -0.9784   11.6740    1.5830 H   0  0  0  0  0  0  0  0  0  0  0  0
    0.8013   11.2538    1.7992 H   0  0  0  0  0  0  0  0  0  0  0  0
    0.2710   13.7059    0.9964 H   0  0  0  0  0  0  0  0  0  0  0  0
    0.4776   11.5818   -2.4319 H   0  0  0  0  0  0  0  0  0  0  0  0
    3.3949   11.7417   -1.4535 H   0  0  0  0  0  0  0  0  0  0  0  0
    2.7883   10.9056   -2.9519 H   0  0  0  0  0  0  0  0  0  0  0  0
    3.8429   13.0851   -3.4572 H   0  0  0  0  0  0  0  0  0  0  0  0
    2.0897   13.0303   -3.8921 H   0  0  0  0  0  0  0  0  0  0  0  0
    2.5598   15.1426   -2.8541 H   0  0  0  0  0  0  0  0  0  0  0  0
    3.3490   13.7440   -0.4820 H   0  0  0  0  0  0  0  0  0  0  0  0
   -0.9079   14.6229   -2.0555 H   0  0  0  0  0  0  0  0  0  0  0  0
    0.3018   15.3111   -3.1911 H   0  0  0  0  0  0  0  0  0  0  0  0
   -0.0273   13.5452   -3.1911 H   0  0  0  0  0  0  0  0  0  0  0  0
    1.1060   15.1053    0.4963 H   0  0  0  0  0  0  0  0  0  0  0  0
    1.9394   16.1220   -0.7278 H   0  0  0  0  0  0  0  0  0  0  0  0
    0.1469   16.0044   -0.7278 H   0  0  0  0  0  0  0  0  0  0  0  0
    2.1176    9.9010    0.9707 H   0  0  0  0  0  0  0  0  0  0  0  0
    2.6088    8.8156   -0.3736 H   0  0  0  0  0  0  0  0  0  0  0  0
    3.1259   10.5358   -0.3736 H   0  0  0  0  0  0  0  0  0  0  0  0
    1.4057    9.3621   -2.8537 H   0  0  0  0  0  0  0  0  0  0  0  0
    1.0963    8.1668   -1.4716 H   0  0  0  0  0  0  0  0  0  0  0  0
   -0.9603    9.7184   -3.0689 H   0  0  0  0  0  0  0  0  0  0  0  0
   -0.6758    7.9340   -3.0272 H   0  0  0  0  0  0  0  0  0  0  0  0
   -1.2420    7.6895    0.6387 H   0  0  0  0  0  0  0  0  0  0  0  0
   -1.8303    6.6302   -0.6873 H   0  0  0  0  0  0  0  0  0  0  0  0
   -0.1297    7.2087   -0.6873 H   0  0  0  0  0  0  0  0  0  0  0  0
  1  2  1  0
  2  3  1  0
  3  4  1  0
  4  5  1  0
  5  6  1  0
  6  7  1  0
  7  8  1  0
  7  9  1  0
  2 10  1  0
 10 11  1  0
 11 12  1  0
 12 13  1  0
 13 14  1  6
 13 15  1  0
 15 16  1  0
 16 17  1  0
 17 18  2  0
 18 19  1  0
 19 20  1  0
 20 21  1  0
 21 22  1  0
 22 23  1  0
 22 24  1  0
 24 25  1  0
 24 26  1  0
 19 27  1  0
 27 28  1  1
 27 29  1  0
 29 30  1  0
 30 31  1  0
 31 32  1  1
  7  5  1  0
 31 10  1  0
 31 13  1  0
 27 15  1  0
 24 18  1  0
  1 33  1  0
  1 34  1  0
  1 35  1  0
  2 36  1  1
  3 37  1  0
  3 38  1  0
  4 39  1  0
  4 40  1  0
  5 41  1  1
  8 42  1  0
  8 43  1  0
  8 44  1  0
  9 45  1  0
  9 46  1  0
  9 47  1  0
 10 48  1  6
 11 49  1  0
 11 50  1  0
 12 51  1  0
 12 52  1  0
 14 53  1  0
 14 54  1  0
 14 55  1  0
 15 56  1  1
 16 57  1  0
 16 58  1  0
 17 59  1  0
 19 60  1  6
 20 61  1  0
 20 62  1  0
 21 63  1  0
 21 64  1  0
 22 65  1  6
 23 66  1  0
 25 67  1  0
 25 68  1  0
 25 69  1  0
 26 70  1  0
 26 71  1  0
 26 72  1  0
 28 73  1  0
 28 74  1  0
 28 75  1  0
 29 76  1  0
 29 77  1  0
 30 78  1  0
 30 79  1  0
 32 80  1  0
 32 81  1  0
 32 82  1  0
M  END
>  <meeko>  (12) 
{"is_sidechain": [false], "intermolecular_energy": 2.731, "internal_energy": -0.839}

$$$$
EPH_relaxed_0001_pdb2pqr_Repair_111_r2_0001_out
     RDKit          3D

 82 86  0  0  0  0  0  0  0  0999 V2000
   -2.2470    7.8300   -2.2110 C   0  0  0  0  0  0  0  0  0  0  0  0
   -2.2210    8.4400   -0.8070 C   0  0  2  0  0  0  0  0  0  0  0  0
   -3.6110    8.4260   -0.1410 C   0  0  0  0  0  0  0  0  0  0  0  0
   -4.7710    8.5200   -1.1360 C   0  0  0  0  0  0  0  0  0  0  0  0
   -5.5970    7.2700   -1.1450 C   0  0  2  0  0  0  0  0  0  0  0  0
   -5.6250    6.5800   -2.4010 O   0  0  0  0  0  0  0  0  0  0  0  0
   -6.8770    7.1190   -1.9460 C   0  0  0  0  0  0  0  0  0  0  0  0
   -7.4040    8.2340   -2.7930 C   0  0  0  0  0  0  0  0  0  0  0  0
   -7.8650    6.0760   -1.5250 C   0  0  0  0  0  0  0  0  0  0  0  0
   -1.6880    9.8670   -0.8710 C   0  0  1  0  0  0  0  0  0  0  0  0
   -1.2480   10.4030    0.5180 C   0  0  0  0  0  0  0  0  0  0  0  0
   -0.0230   11.3220    0.2750 C   0  0  0  0  0  0  0  0  0  0  0  0
   -0.0030   11.5490   -1.2550 C   0  0  1  0  0  0  0  0  0  0  0  0
   -1.0560   12.6740   -1.5070 C   0  0  0  0  0  0  0  0  0  0  0  0
    1.3840   11.9050   -1.8830 C   0  0  2  0  0  0  0  0  0  0  0  0
    2.0050   13.2220   -1.3880 C   0  0  0  0  0  0  0  0  0  0  0  0
    1.6490   14.4340   -2.1840 C   0  0  0  0  0  0  0  0  0  0  0  0
    1.0980   14.4290   -3.4120 C   0  0  0  0  0  0  0  0  0  0  0  0
    0.8670   13.1130   -4.1660 C   0  0  1  0  0  0  0  0  0  0  0  0
    1.3620   13.2600   -5.6290 C   0  0  0  0  0  0  0  0  0  0  0  0
    0.7390   14.4570   -6.3400 C   0  0  0  0  0  0  0  0  0  0  0  0
    1.0400   15.7530   -5.5920 C   0  0  2  0  0  0  0  0  0  0  0  0
    2.4450   16.0140   -5.6670 O   0  0  0  0  0  0  0  0  0  0  0  0
    0.5930   15.7190   -4.1030 C   0  0  0  0  0  0  0  0  0  0  0  0
   -0.9530   15.7410   -4.0230 C   0  0  0  0  0  0  0  0  0  0  0  0
    1.0810   17.0300   -3.4290 C   0  0  0  0  0  0  0  0  0  0  0  0
    1.4260   11.8030   -3.4620 C   0  0  1  0  0  0  0  0  0  0  0  0
    2.9190   11.5830   -3.8540 C   0  0  0  0  0  0  0  0  0  0  0  0
    0.6360   10.5520   -4.0020 C   0  0  0  0  0  0  0  0  0  0  0  0
   -0.6640   10.1800   -3.2640 C   0  0  0  0  0  0  0  0  0  0  0  0
   -0.4390   10.1220   -1.7500 C   0  0  2  0  0  0  0  0  0  0  0  0
    0.5990    8.9830   -1.4640 C   0  0  0  0  0  0  0  0  0  0  0  0
   -2.2937    6.7337   -2.1337 H   0  0  0  0  0  0  0  0  0  0  0  0
   -3.1303    8.1973   -2.7540 H   0  0  0  0  0  0  0  0  0  0  0  0
   -1.3356    8.1208   -2.7540 H   0  0  0  0  0  0  0  0  0  0  0  0
   -1.5539    7.8207   -0.1894 H   0  0  0  0  0  0  0  0  0  0  0  0
   -3.7150    7.4892    0.4262 H   0  0  0  0  0  0  0  0  0  0  0  0
   -3.6676    9.3154    0.5038 H   0  0  0  0  0  0  0  0  0  0  0  0
   -5.4123    9.3689   -0.8565 H   0  0  0  0  0  0  0  0  0  0  0  0
   -4.3488    8.6589   -2.1422 H   0  0  0  0  0  0  0  0  0  0  0  0
   -5.3613    7.0784   -0.0878 H   0  0  0  0  0  0  0  0  0  0  0  0
   -7.7840    9.0381   -2.1457 H   0  0  0  0  0  0  0  0  0  0  0  0
   -6.5957    8.6256   -3.4280 H   0  0  0  0  0  0  0  0  0  0  0  0
   -8.2197    7.8581   -3.4280 H   0  0  0  0  0  0  0  0  0  0  0  0
   -7.9064    6.0323   -0.4266 H   0  0  0  0  0  0  0  0  0  0  0  0
   -8.8593    6.3323   -1.9195 H   0  0  0  0  0  0  0  0  0  0  0  0
   -7.5552    5.0970   -1.9195 H   0  0  0  0  0  0  0  0  0  0  0  0
   -2.5633   10.3706   -1.3072 H   0  0  0  0  0  0  0  0  0  0  0  0
   -2.0658   10.9759    0.9794 H   0  0  0  0  0  0  0  0  0  0  0  0
   -0.9932    9.5766    1.1978 H   0  0  0  0  0  0  0  0  0  0  0  0
   -0.1422   12.2770    0.8078 H   0  0  0  0  0  0  0  0  0  0  0  0
    0.9127   10.8758    0.6428 H   0  0  0  0  0  0  0  0  0  0  0  0
   -1.4177   13.0604   -0.5427 H   0  0  0  0  0  0  0  0  0  0  0  0
   -0.5904   13.4908   -2.0779 H   0  0  0  0  0  0  0  0  0  0  0  0
   -1.9018   12.2633   -2.0779 H   0  0  0  0  0  0  0  0  0  0  0  0
    2.0315   11.1051   -1.4945 H   0  0  0  0  0  0  0  0  0  0  0  0
    1.6730   13.3861   -0.3522 H   0  0  0  0  0  0  0  0  0  0  0  0
    3.0938   13.1014   -1.4879 H   0  0  0  0  0  0  0  0  0  0  0  0
    1.8544   15.4139   -1.7283 H   0  0  0  0  0  0  0  0  0  0  0  0
   -0.2198   12.9437   -4.1549 H   0  0  0  0  0  0  0  0  0  0  0  0
    2.4549   13.3845   -5.6206 H   0  0  0  0  0  0  0  0  0  0  0  0
    1.0619   12.3538   -6.1756 H   0  0  0  0  0  0  0  0  0  0  0  0
    1.1502   14.5251   -7.3580 H   0  0  0  0  0  0  0  0  0  0  0  0
   -0.3515   14.3165   -6.3742 H   0  0  0  0  0  0  0  0  0  0  0  0
    0.4615   16.5543   -6.0750 H   0  0  0  0  0  0  0  0  0  0  0  0
    2.6070   16.5220   -6.4790 H   0  0  0  0  0  0  0  0  0  0  0  0
   -1.2656   15.7454   -2.9683 H   0  0  0  0  0  0  0  0  0  0  0  0
   -1.3332   16.6446   -4.5219 H   0  0  0  0  0  0  0  0  0  0  0  0
   -1.3587   14.8485   -4.5219 H   0  0  0  0  0  0  0  0  0  0  0  0
    1.0392   16.9177   -2.3355 H   0  0  0  0  0  0  0  0  0  0  0  0
    2.1165   17.2372   -3.7370 H   0  0  0  0  0  0  0  0  0  0  0  0
    0.4330   17.8638   -3.7370 H   0  0  0  0  0  0  0  0  0  0  0  0
    3.5280   11.4933   -2.9424 H   0  0  0  0  0  0  0  0  0  0  0  0
    3.0102   10.6617   -4.4481 H   0  0  0  0  0  0  0  0  0  0  0  0
    3.2721   12.4388   -4.4481 H   0  0  0  0  0  0  0  0  0  0  0  0
    0.3773   10.7499   -5.0527 H   0  0  0  0  0  0  0  0  0  0  0  0
    1.3101    9.6968   -3.8465 H   0  0  0  0  0  0  0  0  0  0  0  0
   -1.4318   10.9361   -3.4848 H   0  0  0  0  0  0  0  0  0  0  0  0
   -0.9902    9.1873   -3.6079 H   0  0  0  0  0  0  0  0  0  0  0  0
    0.7144    8.8564   -0.3774 H   0  0  0  0  0  0  0  0  0  0  0  0
    0.2417    8.0416   -1.9069 H   0  0  0  0  0  0  0  0  0  0  0  0
    1.5694    9.2516   -1.9069 H   0  0  0  0  0  0  0  0  0  0  0  0
  1  2  1  0
  2  3  1  0
  3  4  1  0
  4  5  1  0
  5  6  1  0
  6  7  1  0
  7  8  1  0
  7  9  1  0
  2 10  1  0
 10 11  1  0
 11 12  1  0
 12 13  1  0
 13 14  1  1
 13 15  1  0
 15 16  1  0
 16 17  1  0
 17 18  2  0
 18 19  1  0
 19 20  1  0
 20 21  1  0
 21 22  1  0
 22 23  1  0
 22 24  1  0
 24 25  1  0
 24 26  1  0
 19 27  1  0
 27 28  1  6
 27 29  1  0
 29 30  1  0
 30 31  1  0
 31 32  1  6
  7  5  1  0
 31 10  1  0
 31 13  1  0
 27 15  1  0
 24 18  1  0
  1 33  1  0
  1 34  1  0
  1 35  1  0
  2 36  1  1
  3 37  1  0
  3 38  1  0
  4 39  1  0
  4 40  1  0
  5 41  1  1
  8 42  1  0
  8 43  1  0
  8 44  1  0
  9 45  1  0
  9 46  1  0
  9 47  1  0
 10 48  1  6
 11 49  1  0
 11 50  1  0
 12 51  1  0
 12 52  1  0
 14 53  1  0
 14 54  1  0
 14 55  1  0
 15 56  1  1
 16 57  1  0
 16 58  1  0
 17 59  1  0
 19 60  1  6
 20 61  1  0
 20 62  1  0
 21 63  1  0
 21 64  1  0
 22 65  1  6
 23 66  1  0
 25 67  1  0
 25 68  1  0
 25 69  1  0
 26 70  1  0
 26 71  1  0
 26 72  1  0
 28 73  1  0
 28 74  1  0
 28 75  1  0
 29 76  1  0
 29 77  1  0
 30 78  1  0
 30 79  1  0
 32 80  1  0
 32 81  1  0
 32 82  1  0
M  END
>  <meeko>  (13) 
{"is_sidechain": [false], "intermolecular_energy": 2.731, "internal_energy": -0.839}

$$$$
EPH_relaxed_0001_pdb2pqr_Repair_111_r2_0001_out
     RDKit          3D

 82 86  0  0  0  0  0  0  0  0999 V2000
   -0.8440   16.3880   -5.8630 C   0  0  0  0  0  0  0  0  0  0  0  0
    0.2410   15.6860   -6.6850 C   0  0  2  0  0  0  0  0  0  0  0  0
   -0.1740   15.5040   -8.1590 C   0  0  0  0  0  0  0  0  0  0  0  0
    0.4730   16.5140   -9.1100 C   0  0  0  0  0  0  0  0  0  0  0  0
    1.8660   16.1090   -9.4860 C   0  0  2  0  0  0  0  0  0  0  0  0
    2.3370   16.6630  -10.7220 O   0  0  0  0  0  0  0  0  0  0  0  0
    2.1870   15.2340  -10.6840 C   0  0  0  0  0  0  0  0  0  0  0  0
    1.1090   14.7110  -11.5810 C   0  0  0  0  0  0  0  0  0  0  0  0
    3.4860   14.4910  -10.6990 C   0  0  0  0  0  0  0  0  0  0  0  0
    0.5690   14.3330   -6.0640 C   0  0  1  0  0  0  0  0  0  0  0  0
    1.8250   13.6760   -6.6950 C   0  0  0  0  0  0  0  0  0  0  0  0
    2.5490   12.9110   -5.5570 C   0  0  0  0  0  0  0  0  0  0  0  0
    1.5240   12.8750   -4.3990 C   0  0  1  0  0  0  0  0  0  0  0  0
    0.5630   11.6960   -4.7500 C   0  0  0  0  0  0  0  0  0  0  0  0
    2.1150   12.7280   -2.9580 C   0  0  2  0  0  0  0  0  0  0  0  0
    2.8880   11.4240   -2.7000 C   0  0  0  0  0  0  0  0  0  0  0  0
    2.0700   10.2900   -2.1760 C   0  0  0  0  0  0  0  0  0  0  0  0
    0.8330   10.3940   -1.6550 C   0  0  0  0  0  0  0  0  0  0  0  0
    0.1710   11.7640   -1.4630 C   0  0  1  0  0  0  0  0  0  0  0  0
   -0.4560   11.8430   -0.0470 C   0  0  0  0  0  0  0  0  0  0  0  0
   -1.4130   10.6880    0.2340 C   0  0  0  0  0  0  0  0  0  0  0  0
   -0.7040    9.3440    0.0900 C   0  0  2  0  0  0  0  0  0  0  0  0
    0.2750    9.2270    1.1260 O   0  0  0  0  0  0  0  0  0  0  0  0
   -0.0240    9.1550   -1.2950 C   0  0  0  0  0  0  0  0  0  0  0  0
   -1.1090    8.9810   -2.3870 C   0  0  0  0  0  0  0  0  0  0  0  0
    0.7730    7.8240   -1.2580 C   0  0  0  0  0  0  0  0  0  0  0  0
    1.0780   13.0250   -1.8000 C   0  0  1  0  0  0  0  0  0  0  0  0
    1.9150   13.4280   -0.5470 C   0  0  0  0  0  0  0  0  0  0  0  0
    0.1500   14.2540   -2.1280 C   0  0  0  0  0  0  0  0  0  0  0  0
   -0.3030   14.4110   -3.5920 C   0  0  0  0  0  0  0  0  0  0  0  0
    0.8890   14.3050   -4.5490 C   0  0  2  0  0  0  0  0  0  0  0  0
    1.8630   15.4910   -4.2340 C   0  0  0  0  0  0  0  0  0  0  0  0
   -0.6364   16.2537   -4.7911 H   0  0  0  0  0  0  0  0  0  0  0  0
   -0.8495   17.4613   -6.1037 H   0  0  0  0  0  0  0  0  0  0  0  0
   -1.8253   15.9532   -6.1037 H   0  0  0  0  0  0  0  0  0  0  0  0
    1.1346   16.3274   -6.6712 H   0  0  0  0  0  0  0  0  0  0  0  0
    0.1148   14.4919   -8.4786 H   0  0  0  0  0  0  0  0  0  0  0  0
   -1.2608   15.6660   -8.2092 H   0  0  0  0  0  0  0  0  0  0  0  0
   -0.1363   16.5845  -10.0231 H   0  0  0  0  0  0  0  0  0  0  0  0
    0.5257   17.4844   -8.5948 H   0  0  0  0  0  0  0  0  0  0  0  0
    2.1604   16.0485   -8.4279 H   0  0  0  0  0  0  0  0  0  0  0  0
    0.2857   14.3116  -10.9705 H   0  0  0  0  0  0  0  0  0  0  0  0
    0.7325   15.5266  -12.2159 H   0  0  0  0  0  0  0  0  0  0  0  0
    1.5166   13.9105  -12.2159 H   0  0  0  0  0  0  0  0  0  0  0  0
    3.8133   14.3038   -9.6656 H   0  0  0  0  0  0  0  0  0  0  0  0
    3.3538   13.5319  -11.2212 H   0  0  0  0  0  0  0  0  0  0  0  0
    4.2457   15.0912  -11.2212 H   0  0  0  0  0  0  0  0  0  0  0  0
   -0.3770   13.8062   -6.2579 H   0  0  0  0  0  0  0  0  0  0  0  0
    1.5277   12.9778   -7.4914 H   0  0  0  0  0  0  0  0  0  0  0  0
    2.4843   14.4339   -7.1432 H   0  0  0  0  0  0  0  0  0  0  0  0
    2.8084   11.8914   -5.8781 H   0  0  0  0  0  0  0  0  0  0  0  0
    3.4931   13.3936   -5.2642 H   0  0  0  0  0  0  0  0  0  0  0  0
    0.1899   11.2383   -3.8219 H   0  0  0  0  0  0  0  0  0  0  0  0
   -0.2852   12.0769   -5.3377 H   0  0  0  0  0  0  0  0  0  0  0  0
    1.1071   10.9420   -5.3377 H   0  0  0  0  0  0  0  0  0  0  0  0
    2.8666   13.5306   -2.9274 H   0  0  0  0  0  0  0  0  0  0  0  0
    3.3424   11.1048   -3.6495 H   0  0  0  0  0  0  0  0  0  0  0  0
    3.6232   11.6565   -1.9155 H   0  0  0  0  0  0  0  0  0  0  0  0
    2.5156    9.2852   -2.2193 H   0  0  0  0  0  0  0  0  0  0  0  0
   -0.6199   11.8288   -2.2248 H   0  0  0  0  0  0  0  0  0  0  0  0
    0.3525   11.8205    0.6985 H   0  0  0  0  0  0  0  0  0  0  0  0
   -1.0338   12.7772    0.0109 H   0  0  0  0  0  0  0  0  0  0  0  0
   -1.8001   10.7827    1.2593 H   0  0  0  0  0  0  0  0  0  0  0  0
   -2.2367   10.7299   -0.4938 H   0  0  0  0  0  0  0  0  0  0  0  0
   -1.4680    8.5571    0.1740 H   0  0  0  0  0  0  0  0  0  0  0  0
    0.6770    8.3450    1.0530 H   0  0  0  0  0  0  0  0  0  0  0  0
   -2.0876    8.8241   -1.9098 H   0  0  0  0  0  0  0  0  0  0  0  0
   -1.1471    9.8845   -3.0133 H   0  0  0  0  0  0  0  0  0  0  0  0
   -0.8627    8.1109   -3.0133 H   0  0  0  0  0  0  0  0  0  0  0  0
    0.9486    7.5307   -0.2125 H   0  0  0  0  0  0  0  0  0  0  0  0
    0.1971    7.0375   -1.7677 H   0  0  0  0  0  0  0  0  0  0  0  0
    1.7382    7.9603   -1.7677 H   0  0  0  0  0  0  0  0  0  0  0  0
    1.3611   13.1613    0.3652 H   0  0  0  0  0  0  0  0  0  0  0  0
    2.8767   12.8942   -0.5613 H   0  0  0  0  0  0  0  0  0  0  0  0
    2.0974   14.5127   -0.5613 H   0  0  0  0  0  0  0  0  0  0  0  0
   -0.7540   14.1633   -1.5078 H   0  0  0  0  0  0  0  0  0  0  0  0
    0.7645   15.1423   -1.9200 H   0  0  0  0  0  0  0  0  0  0  0  0
   -1.0281   13.6192   -3.8312 H   0  0  0  0  0  0  0  0  0  0  0  0
   -0.7626   15.4031   -3.7126 H   0  0  0  0  0  0  0  0  0  0  0  0
    1.9586   15.6074   -3.1444 H   0  0  0  0  0  0  0  0  0  0  0  0
    2.8512   15.2791   -4.6682 H   0  0  0  0  0  0  0  0  0  0  0  0
    1.4630   16.4192   -4.6682 H   0  0  0  0  0  0  0  0  0  0  0  0
  1  2  1  0
  2  3  1  0
  3  4  1  0
  4  5  1  0
  5  6  1  0
  6  7  1  0
  7  8  1  0
  7  9  1  0
  2 10  1  0
 10 11  1  0
 11 12  1  0
 12 13  1  0
 13 14  1  6
 13 15  1  0
 15 16  1  0
 16 17  1  0
 17 18  2  0
 18 19  1  0
 19 20  1  0
 20 21  1  0
 21 22  1  0
 22 23  1  0
 22 24  1  0
 24 25  1  0
 24 26  1  0
 19 27  1  0
 27 28  1  1
 27 29  1  0
 29 30  1  0
 30 31  1  0
 31 32  1  6
  7  5  1  0
 31 10  1  0
 31 13  1  0
 27 15  1  0
 24 18  1  0
  1 33  1  0
  1 34  1  0
  1 35  1  0
  2 36  1  6
  3 37  1  0
  3 38  1  0
  4 39  1  0
  4 40  1  0
  5 41  1  1
  8 42  1  0
  8 43  1  0
  8 44  1  0
  9 45  1  0
  9 46  1  0
  9 47  1  0
 10 48  1  1
 11 49  1  0
 11 50  1  0
 12 51  1  0
 12 52  1  0
 14 53  1  0
 14 54  1  0
 14 55  1  0
 15 56  1  6
 16 57  1  0
 16 58  1  0
 17 59  1  0
 19 60  1  6
 20 61  1  0
 20 62  1  0
 21 63  1  0
 21 64  1  0
 22 65  1  1
 23 66  1  0
 25 67  1  0
 25 68  1  0
 25 69  1  0
 26 70  1  0
 26 71  1  0
 26 72  1  0
 28 73  1  0
 28 74  1  0
 28 75  1  0
 29 76  1  0
 29 77  1  0
 30 78  1  0
 30 79  1  0
 32 80  1  0
 32 81  1  0
 32 82  1  0
M  END
>  <meeko>  (14) 
{"is_sidechain": [false], "intermolecular_energy": 2.731, "internal_energy": -0.839}

$$$$
EPH_relaxed_0001_pdb2pqr_Repair_111_r2_0001_out
     RDKit          3D

 82 86  0  0  0  0  0  0  0  0999 V2000
  -13.9970    7.7580    0.8360 C   0  0  0  0  0  0  0  0  0  0  0  0
  -13.0700    8.9770    0.8070 C   0  0  2  0  0  0  0  0  0  0  0  0
  -13.4640    9.9800   -0.2960 C   0  0  0  0  0  0  0  0  0  0  0  0
  -14.5510    9.4600   -1.2410 C   0  0  0  0  0  0  0  0  0  0  0  0
  -14.3460    9.9480   -2.6430 C   0  0  2  0  0  0  0  0  0  0  0  0
  -13.3470   10.9670   -2.7820 O   0  0  0  0  0  0  0  0  0  0  0  0
  -14.6940   11.3530   -3.0990 C   0  0  0  0  0  0  0  0  0  0  0  0
  -15.2780   12.3570   -2.1560 C   0  0  0  0  0  0  0  0  0  0  0  0
  -14.9240   11.5950   -4.5580 C   0  0  0  0  0  0  0  0  0  0  0  0
  -11.6270    8.5280    0.6110 C   0  0  1  0  0  0  0  0  0  0  0  0
  -11.0570    7.7910    1.8520 C   0  0  0  0  0  0  0  0  0  0  0  0
  -10.1000    6.6930    1.3200 C   0  0  0  0  0  0  0  0  0  0  0  0
   -9.8940    7.0450   -0.1720 C   0  0  1  0  0  0  0  0  0  0  0  0
   -8.8100    8.1670   -0.1740 C   0  0  0  0  0  0  0  0  0  0  0  0
   -9.5000    5.8600   -1.1130 C   0  0  2  0  0  0  0  0  0  0  0  0
   -8.1550    5.1870   -0.7870 C   0  0  0  0  0  0  0  0  0  0  0  0
   -6.9680    5.7660   -1.4830 C   0  0  0  0  0  0  0  0  0  0  0  0
   -7.0100    6.5920   -2.5450 C   0  0  0  0  0  0  0  0  0  0  0  0
   -8.3430    6.9460   -3.2160 C   0  0  1  0  0  0  0  0  0  0  0  0
   -8.2000    6.8170   -4.7550 C   0  0  0  0  0  0  0  0  0  0  0  0
   -7.0350    7.6340   -5.3050 C   0  0  0  0  0  0  0  0  0  0  0  0
   -5.7190    7.2130   -4.6570 C   0  0  2  0  0  0  0  0  0  0  0  0
   -5.4120    5.8760   -5.0640 O   0  0  0  0  0  0  0  0  0  0  0  0
   -5.7470    7.2920   -3.1050 C   0  0  0  0  0  0  0  0  0  0  0  0
   -5.7770    8.7760   -2.6600 C   0  0  0  0  0  0  0  0  0  0  0  0
   -4.4110    6.7070   -2.5720 C   0  0  0  0  0  0  0  0  0  0  0  0
   -9.6230    6.1890   -2.6560 C   0  0  1  0  0  0  0  0  0  0  0  0
   -9.7970    4.8240   -3.3900 C   0  0  0  0  0  0  0  0  0  0  0  0
  -10.9080    7.0370   -2.9860 C   0  0  0  0  0  0  0  0  0  0  0  0
  -11.3140    8.1120   -1.9590 C   0  0  0  0  0  0  0  0  0  0  0  0
  -11.3420    7.5320   -0.5420 C   0  0  2  0  0  0  0  0  0  0  0  0
  -12.4400    6.4150   -0.5030 C   0  0  0  0  0  0  0  0  0  0  0  0
  -14.2070    7.4818    1.8798 H   0  0  0  0  0  0  0  0  0  0  0  0
  -14.9398    8.0020    0.3245 H   0  0  0  0  0  0  0  0  0  0  0  0
  -13.5099    6.9147    0.3245 H   0  0  0  0  0  0  0  0  0  0  0  0
  -13.1710    9.4925    1.7735 H   0  0  0  0  0  0  0  0  0  0  0  0
  -13.8321   10.8982    0.1850 H   0  0  0  0  0  0  0  0  0  0  0  0
  -12.5656   10.1568   -0.9056 H   0  0  0  0  0  0  0  0  0  0  0  0
  -14.5286    8.3602   -1.2394 H   0  0  0  0  0  0  0  0  0  0  0  0
  -15.5223    9.8348   -0.8859 H   0  0  0  0  0  0  0  0  0  0  0  0
  -14.5960    8.9570   -3.0498 H   0  0  0  0  0  0  0  0  0  0  0  0
  -15.0925   12.0380   -1.1197 H   0  0  0  0  0  0  0  0  0  0  0  0
  -14.8091   13.3372   -2.3275 H   0  0  0  0  0  0  0  0  0  0  0  0
  -16.3618   12.4340   -2.3275 H   0  0  0  0  0  0  0  0  0  0  0  0
  -15.6768   12.3871   -4.6841 H   0  0  0  0  0  0  0  0  0  0  0  0
  -13.9811   11.9066   -5.0311 H   0  0  0  0  0  0  0  0  0  0  0  0
  -15.2831   10.6692   -5.0311 H   0  0  0  0  0  0  0  0  0  0  0  0
  -11.1597    9.4997    0.3932 H   0  0  0  0  0  0  0  0  0  0  0  0
  -10.5060    8.4963    2.4914 H   0  0  0  0  0  0  0  0  0  0  0  0
  -11.8647    7.3520    2.4561 H   0  0  0  0  0  0  0  0  0  0  0  0
   -9.1423    6.7173    1.8606 H   0  0  0  0  0  0  0  0  0  0  0  0
  -10.5086    5.6810    1.4574 H   0  0  0  0  0  0  0  0  0  0  0  0
   -8.5543    8.4317    0.8626 H   0  0  0  0  0  0  0  0  0  0  0  0
   -7.9098    7.8062   -0.6930 H   0  0  0  0  0  0  0  0  0  0  0  0
   -9.2016    9.0543   -0.6930 H   0  0  0  0  0  0  0  0  0  0  0  0
  -10.2720    5.1105   -0.8841 H   0  0  0  0  0  0  0  0  0  0  0  0
   -7.9873    5.2695    0.2970 H   0  0  0  0  0  0  0  0  0  0  0  0
   -8.2398    4.1491   -1.1414 H   0  0  0  0  0  0  0  0  0  0  0  0
   -5.9750    5.4947   -1.0952 H   0  0  0  0  0  0  0  0  0  0  0  0
   -8.5493    7.9927   -2.9480 H   0  0  0  0  0  0  0  0  0  0  0  0
   -8.0381    5.7585   -5.0065 H   0  0  0  0  0  0  0  0  0  0  0  0
   -9.1236    7.2046   -5.2097 H   0  0  0  0  0  0  0  0  0  0  0  0
   -6.9672    7.4778   -6.3917 H   0  0  0  0  0  0  0  0  0  0  0  0
   -7.2135    8.6957   -5.0792 H   0  0  0  0  0  0  0  0  0  0  0  0
   -4.9455    7.9190   -4.9934 H   0  0  0  0  0  0  0  0  0  0  0  0
   -4.6870    5.5560   -4.5010 H   0  0  0  0  0  0  0  0  0  0  0  0
   -5.7781    8.8294   -1.5613 H   0  0  0  0  0  0  0  0  0  0  0  0
   -4.8891    9.2942   -3.0514 H   0  0  0  0  0  0  0  0  0  0  0  0
   -6.6851    9.2579   -3.0514 H   0  0  0  0  0  0  0  0  0  0  0  0
   -4.4216    6.7117   -1.4721 H   0  0  0  0  0  0  0  0  0  0  0  0
   -4.2927    5.6747   -2.9332 H   0  0  0  0  0  0  0  0  0  0  0  0
   -3.5722    7.3202   -2.9332 H   0  0  0  0  0  0  0  0  0  0  0  0
   -9.8996    4.0189   -2.6475 H   0  0  0  0  0  0  0  0  0  0  0  0
  -10.6980    4.8587   -4.0201 H   0  0  0  0  0  0  0  0  0  0  0  0
   -8.9161    4.6316   -4.0201 H   0  0  0  0  0  0  0  0  0  0  0  0
  -10.7347    7.5435   -3.9470 H   0  0  0  0  0  0  0  0  0  0  0  0
  -11.7370    6.3140   -2.9888 H   0  0  0  0  0  0  0  0  0  0  0  0
  -10.5880    8.9375   -1.9958 H   0  0  0  0  0  0  0  0  0  0  0  0
  -12.3217    8.4747   -2.2100 H   0  0  0  0  0  0  0  0  0  0  0  0
  -12.6789    6.1720    0.5429 H   0  0  0  0  0  0  0  0  0  0  0  0
  -13.3465    6.7740   -1.0123 H   0  0  0  0  0  0  0  0  0  0  0  0
  -12.0655    5.5148   -1.0123 H   0  0  0  0  0  0  0  0  0  0  0  0
  1  2  1  0
  2  3  1  0
  3  4  1  0
  4  5  1  0
  5  6  1  0
  6  7  1  0
  7  8  1  0
  7  9  1  0
  2 10  1  0
 10 11  1  0
 11 12  1  0
 12 13  1  0
 13 14  1  1
 13 15  1  0
 15 16  1  0
 16 17  1  0
 17 18  2  0
 18 19  1  0
 19 20  1  0
 20 21  1  0
 21 22  1  0
 22 23  1  0
 22 24  1  0
 24 25  1  0
 24 26  1  0
 19 27  1  0
 27 28  1  6
 27 29  1  0
 29 30  1  0
 30 31  1  0
 31 32  1  6
  7  5  1  0
 31 10  1  0
 31 13  1  0
 27 15  1  0
 24 18  1  0
  1 33  1  0
  1 34  1  0
  1 35  1  0
  2 36  1  1
  3 37  1  0
  3 38  1  0
  4 39  1  0
  4 40  1  0
  5 41  1  6
  8 42  1  0
  8 43  1  0
  8 44  1  0
  9 45  1  0
  9 46  1  0
  9 47  1  0
 10 48  1  6
 11 49  1  0
 11 50  1  0
 12 51  1  0
 12 52  1  0
 14 53  1  0
 14 54  1  0
 14 55  1  0
 15 56  1  1
 16 57  1  0
 16 58  1  0
 17 59  1  0
 19 60  1  6
 20 61  1  0
 20 62  1  0
 21 63  1  0
 21 64  1  0
 22 65  1  6
 23 66  1  0
 25 67  1  0
 25 68  1  0
 25 69  1  0
 26 70  1  0
 26 71  1  0
 26 72  1  0
 28 73  1  0
 28 74  1  0
 28 75  1  0
 29 76  1  0
 29 77  1  0
 30 78  1  0
 30 79  1  0
 32 80  1  0
 32 81  1  0
 32 82  1  0
M  END
>  <meeko>  (15) 
{"is_sidechain": [false], "intermolecular_energy": 2.731, "internal_energy": -0.839}

$$$$
EPH_relaxed_0001_pdb2pqr_Repair_111_r2_0001_out
     RDKit          3D

 82 86  0  0  0  0  0  0  0  0999 V2000
    0.8370    8.1700   -2.3640 C   0  0  0  0  0  0  0  0  0  0  0  0
   -0.6240    8.4880   -2.0350 C   0  0  2  0  0  0  0  0  0  0  0  0
   -1.5950    7.9100   -3.0840 C   0  0  0  0  0  0  0  0  0  0  0  0
   -2.7770    7.1500   -2.4760 C   0  0  0  0  0  0  0  0  0  0  0  0
   -3.9780    7.1830   -3.3720 C   0  0  2  0  0  0  0  0  0  0  0  0
   -5.2350    7.2560   -2.6860 O   0  0  0  0  0  0  0  0  0  0  0  0
   -4.9960    6.0610   -3.4480 C   0  0  0  0  0  0  0  0  0  0  0  0
   -4.8600    4.8260   -2.6150 C   0  0  0  0  0  0  0  0  0  0  0  0
   -5.8470    5.9490   -4.6750 C   0  0  0  0  0  0  0  0  0  0  0  0
   -0.8160    9.9960   -1.9240 C   0  0  1  0  0  0  0  0  0  0  0  0
   -2.2800   10.3900   -1.5920 C   0  0  0  0  0  0  0  0  0  0  0  0
   -2.2110   11.6440   -0.6820 C   0  0  0  0  0  0  0  0  0  0  0  0
   -0.7450   12.1240   -0.7900 C   0  0  1  0  0  0  0  0  0  0  0  0
   -0.6850   12.9330   -2.1240 C   0  0  0  0  0  0  0  0  0  0  0  0
   -0.2000   12.9570    0.4150 C   0  0  2  0  0  0  0  0  0  0  0  0
   -0.9230   14.2920    0.6660 C   0  0  0  0  0  0  0  0  0  0  0  0
   -0.3480   15.4720   -0.0460 C   0  0  0  0  0  0  0  0  0  0  0  0
    0.8660   15.5210   -0.6250 C   0  0  0  0  0  0  0  0  0  0  0  0
    1.8410   14.3410   -0.5120 C   0  0  1  0  0  0  0  0  0  0  0  0
    3.2510   14.8680   -0.1380 C   0  0  0  0  0  0  0  0  0  0  0  0
    3.7470   15.9450   -1.0990 C   0  0  0  0  0  0  0  0  0  0  0  0
    2.7810   17.1260   -1.1390 C   0  0  2  0  0  0  0  0  0  0  0  0
    2.7980   17.7800    0.1330 O   0  0  0  0  0  0  0  0  0  0  0  0
    1.3250   16.7150   -1.4970 C   0  0  0  0  0  0  0  0  0  0  0  0
    1.2550   16.2870   -2.9830 C   0  0  0  0  0  0  0  0  0  0  0  0
    0.4270   17.9750   -1.3650 C   0  0  0  0  0  0  0  0  0  0  0  0
    1.3720   13.1410    0.4180 C   0  0  1  0  0  0  0  0  0  0  0  0
    1.7840   13.4200    1.8960 C   0  0  0  0  0  0  0  0  0  0  0  0
    2.1290   11.8290   -0.0140 C   0  0  0  0  0  0  0  0  0  0  0  0
    1.4780   10.9870   -1.1270 C   0  0  0  0  0  0  0  0  0  0  0  0
   -0.0040   10.7380   -0.8320 C   0  0  2  0  0  0  0  0  0  0  0  0
   -0.0950    9.9060    0.4920 C   0  0  0  0  0  0  0  0  0  0  0  0
    1.4047    8.0464   -1.4299 H   0  0  0  0  0  0  0  0  0  0  0  0
    0.8870    7.2399   -2.9492 H   0  0  0  0  0  0  0  0  0  0  0  0
    1.2690    8.9951   -2.9492 H   0  0  0  0  0  0  0  0  0  0  0  0
   -0.8567    8.0114   -1.0713 H   0  0  0  0  0  0  0  0  0  0  0  0
   -1.9897    8.7411   -3.6870 H   0  0  0  0  0  0  0  0  0  0  0  0
   -1.0245    7.1880   -3.6867 H   0  0  0  0  0  0  0  0  0  0  0  0
   -2.4819    6.1028   -2.3140 H   0  0  0  0  0  0  0  0  0  0  0  0
   -3.0447    7.6359   -1.5262 H   0  0  0  0  0  0  0  0  0  0  0  0
   -3.4135    7.7206   -4.1481 H   0  0  0  0  0  0  0  0  0  0  0  0
   -4.8899    5.0973   -1.5494 H   0  0  0  0  0  0  0  0  0  0  0  0
   -5.6878    4.1379   -2.8415 H   0  0  0  0  0  0  0  0  0  0  0  0
   -3.9023    4.3346   -2.8415 H   0  0  0  0  0  0  0  0  0  0  0  0
   -6.8979    5.8107   -4.3810 H   0  0  0  0  0  0  0  0  0  0  0  0
   -5.7513    6.8675   -5.2727 H   0  0  0  0  0  0  0  0  0  0  0  0
   -5.5169    5.0866   -5.2727 H   0  0  0  0  0  0  0  0  0  0  0  0
   -0.4694   10.2993   -2.9229 H   0  0  0  0  0  0  0  0  0  0  0  0
   -2.8285   10.6228   -2.5166 H   0  0  0  0  0  0  0  0  0  0  0  0
   -2.8063    9.5655   -1.0887 H   0  0  0  0  0  0  0  0  0  0  0  0
   -2.9017   12.4219   -1.0397 H   0  0  0  0  0  0  0  0  0  0  0  0
   -2.5023   11.4231    0.3555 H   0  0  0  0  0  0  0  0  0  0  0  0
   -0.6054   14.0067   -1.8984 H   0  0  0  0  0  0  0  0  0  0  0  0
    0.1920   12.6147   -2.7067 H   0  0  0  0  0  0  0  0  0  0  0  0
   -1.5994   12.7476   -2.7067 H   0  0  0  0  0  0  0  0  0  0  0  0
   -0.4479   12.3173    1.2748 H   0  0  0  0  0  0  0  0  0  0  0  0
   -1.9689   14.1778    0.3451 H   0  0  0  0  0  0  0  0  0  0  0  0
   -0.8124   14.5009    1.7403 H   0  0  0  0  0  0  0  0  0  0  0  0
   -0.9693   16.3780   -0.1020 H   0  0  0  0  0  0  0  0  0  0  0  0
    1.8692   13.8737   -1.5074 H   0  0  0  0  0  0  0  0  0  0  0  0
    3.2115   15.2916    0.8764 H   0  0  0  0  0  0  0  0  0  0  0  0
    3.9503   14.0209   -0.1960 H   0  0  0  0  0  0  0  0  0  0  0  0
    4.7340   16.2982   -0.7657 H   0  0  0  0  0  0  0  0  0  0  0  0
    3.8145   15.5118   -2.1079 H   0  0  0  0  0  0  0  0  0  0  0  0
    3.1208   17.8026   -1.9370 H   0  0  0  0  0  0  0  0  0  0  0  0
    2.3710   18.6460    0.0250 H   0  0  0  0  0  0  0  0  0  0  0  0
    1.0777   15.2031   -3.0444 H   0  0  0  0  0  0  0  0  0  0  0  0
    0.4324   16.8218   -3.4803 H   0  0  0  0  0  0  0  0  0  0  0  0
    2.2051   16.5319   -3.4803 H   0  0  0  0  0  0  0  0  0  0  0  0
    0.2661   18.2007   -0.3005 H   0  0  0  0  0  0  0  0  0  0  0  0
    0.9208   18.8297   -1.8505 H   0  0  0  0  0  0  0  0  0  0  0  0
   -0.5420   17.7871   -1.8505 H   0  0  0  0  0  0  0  0  0  0  0  0
    1.0670   12.9345    2.5744 H   0  0  0  0  0  0  0  0  0  0  0  0
    2.7914   13.0175    2.0781 H   0  0  0  0  0  0  0  0  0  0  0  0
    1.7842   14.5048    2.0781 H   0  0  0  0  0  0  0  0  0  0  0  0
    3.1310   12.1217   -0.3609 H   0  0  0  0  0  0  0  0  0  0  0  0
    2.1202   11.1845    0.8774 H   0  0  0  0  0  0  0  0  0  0  0  0
    1.5692   11.5229   -2.0833 H   0  0  0  0  0  0  0  0  0  0  0  0
    1.9928   10.0162   -1.1782 H   0  0  0  0  0  0  0  0  0  0  0  0
   -0.0210   10.5827    1.3561 H   0  0  0  0  0  0  0  0  0  0  0  0
   -1.0568    9.3732    0.5249 H   0  0  0  0  0  0  0  0  0  0  0  0
    0.7289    9.1779    0.5249 H   0  0  0  0  0  0  0  0  0  0  0  0
  1  2  1  0
  2  3  1  0
  3  4  1  0
  4  5  1  0
  5  6  1  0
  6  7  1  0
  7  8  1  0
  7  9  1  0
  2 10  1  0
 10 11  1  0
 11 12  1  0
 12 13  1  0
 13 14  1  6
 13 15  1  0
 15 16  1  0
 16 17  1  0
 17 18  2  0
 18 19  1  0
 19 20  1  0
 20 21  1  0
 21 22  1  0
 22 23  1  0
 22 24  1  0
 24 25  1  0
 24 26  1  0
 19 27  1  0
 27 28  1  1
 27 29  1  0
 29 30  1  0
 30 31  1  0
 31 32  1  1
  7  5  1  0
 31 10  1  0
 31 13  1  0
 27 15  1  0
 24 18  1  0
  1 33  1  0
  1 34  1  0
  1 35  1  0
  2 36  1  1
  3 37  1  0
  3 38  1  0
  4 39  1  0
  4 40  1  0
  5 41  1  6
  8 42  1  0
  8 43  1  0
  8 44  1  0
  9 45  1  0
  9 46  1  0
  9 47  1  0
 10 48  1  6
 11 49  1  0
 11 50  1  0
 12 51  1  0
 12 52  1  0
 14 53  1  0
 14 54  1  0
 14 55  1  0
 15 56  1  1
 16 57  1  0
 16 58  1  0
 17 59  1  0
 19 60  1  6
 20 61  1  0
 20 62  1  0
 21 63  1  0
 21 64  1  0
 22 65  1  6
 23 66  1  0
 25 67  1  0
 25 68  1  0
 25 69  1  0
 26 70  1  0
 26 71  1  0
 26 72  1  0
 28 73  1  0
 28 74  1  0
 28 75  1  0
 29 76  1  0
 29 77  1  0
 30 78  1  0
 30 79  1  0
 32 80  1  0
 32 81  1  0
 32 82  1  0
M  END
>  <meeko>  (16) 
{"is_sidechain": [false], "intermolecular_energy": 2.731, "internal_energy": -0.839}

$$$$
EPH_relaxed_0001_pdb2pqr_Repair_111_r2_0001_out
     RDKit          3D

 82 86  0  0  0  0  0  0  0  0999 V2000
   -0.2630   18.2330   -2.3240 C   0  0  0  0  0  0  0  0  0  0  0  0
    1.0130   17.8890   -1.5510 C   0  0  2  0  0  0  0  0  0  0  0  0
    2.1900   18.8090   -1.9350 C   0  0  0  0  0  0  0  0  0  0  0  0
    2.2760   20.0830   -1.0910 C   0  0  0  0  0  0  0  0  0  0  0  0
    3.0850   19.8700    0.1530 C   0  0  2  0  0  0  0  0  0  0  0  0
    2.7650   18.6750    0.8780 O   0  0  0  0  0  0  0  0  0  0  0  0
    2.4960   19.9160    1.5510 C   0  0  0  0  0  0  0  0  0  0  0  0
    1.0410   20.1840    1.7770 C   0  0  0  0  0  0  0  0  0  0  0  0
    3.4120   20.1870    2.7040 C   0  0  0  0  0  0  0  0  0  0  0  0
    1.3900   16.4320   -1.7930 C   0  0  1  0  0  0  0  0  0  0  0  0
    2.9200   16.2310   -1.9650 C   0  0  0  0  0  0  0  0  0  0  0  0
    3.2640   14.8580   -1.3340 C   0  0  0  0  0  0  0  0  0  0  0  0
    1.8940   14.1720   -1.1210 C   0  0  1  0  0  0  0  0  0  0  0  0
    1.5220   13.5790   -2.5170 C   0  0  0  0  0  0  0  0  0  0  0  0
    1.8310   13.0860    0.0020 C   0  0  2  0  0  0  0  0  0  0  0  0
    2.7350   11.8620   -0.2220 C   0  0  0  0  0  0  0  0  0  0  0  0
    2.1020   10.7290   -0.9620 C   0  0  0  0  0  0  0  0  0  0  0  0
    0.7830   10.5770   -1.1790 C   0  0  0  0  0  0  0  0  0  0  0  0
   -0.2330   11.5540   -0.5720 C   0  0  1  0  0  0  0  0  0  0  0  0
   -1.4000   10.7570    0.0680 C   0  0  0  0  0  0  0  0  0  0  0  0
   -2.0430    9.7760   -0.9070 C   0  0  0  0  0  0  0  0  0  0  0  0
   -1.0140    8.7850   -1.4440 C   0  0  2  0  0  0  0  0  0  0  0  0
   -0.5760    7.9490   -0.3690 O   0  0  0  0  0  0  0  0  0  0  0  0
    0.2130    9.4730   -2.1040 C   0  0  0  0  0  0  0  0  0  0  0  0
   -0.2150   10.1320   -3.4390 C   0  0  0  0  0  0  0  0  0  0  0  0
    1.2390    8.3680   -2.4740 C   0  0  0  0  0  0  0  0  0  0  0  0
    0.3630   12.6550    0.4060 C   0  0  1  0  0  0  0  0  0  0  0  0
    0.4480   12.0890    1.8560 C   0  0  0  0  0  0  0  0  0  0  0  0
   -0.6250   13.8800    0.4650 C   0  0  0  0  0  0  0  0  0  0  0  0
   -0.4360   14.9770   -0.6000 C   0  0  0  0  0  0  0  0  0  0  0  0
    1.0310   15.4110   -0.6850 C   0  0  2  0  0  0  0  0  0  0  0  0
    1.4270   16.0320    0.6980 C   0  0  0  0  0  0  0  0  0  0  0  0
   -1.0742   18.4517   -1.6139 H   0  0  0  0  0  0  0  0  0  0  0  0
   -0.0820   19.1144   -2.9567 H   0  0  0  0  0  0  0  0  0  0  0  0
   -0.5496   17.3801   -2.9567 H   0  0  0  0  0  0  0  0  0  0  0  0
    0.8058   18.0467   -0.4823 H   0  0  0  0  0  0  0  0  0  0  0  0
    3.1264   18.2456   -1.8097 H   0  0  0  0  0  0  0  0  0  0  0  0
    2.0256   19.1237   -2.9761 H   0  0  0  0  0  0  0  0  0  0  0  0
    2.7459   20.8767   -1.6904 H   0  0  0  0  0  0  0  0  0  0  0  0
    1.2559   20.3663   -0.7925 H   0  0  0  0  0  0  0  0  0  0  0  0
    3.9549   20.3696   -0.2982 H   0  0  0  0  0  0  0  0  0  0  0  0
    0.8386   20.2213    2.8576 H   0  0  0  0  0  0  0  0  0  0  0  0
    0.7702   21.1471    1.3198 H   0  0  0  0  0  0  0  0  0  0  0  0
    0.4448   19.3806    1.3198 H   0  0  0  0  0  0  0  0  0  0  0  0
    2.8705   20.0268    3.6480 H   0  0  0  0  0  0  0  0  0  0  0  0
    4.2740   19.5054    2.6555 H   0  0  0  0  0  0  0  0  0  0  0  0
    3.7644   21.2279    2.6555 H   0  0  0  0  0  0  0  0  0  0  0  0
    0.7919   16.2345   -2.6948 H   0  0  0  0  0  0  0  0  0  0  0  0
    3.1849   16.2343   -3.0326 H   0  0  0  0  0  0  0  0  0  0  0  0
    3.4821   17.0415   -1.4781 H   0  0  0  0  0  0  0  0  0  0  0  0
    3.8936   14.2651   -2.0137 H   0  0  0  0  0  0  0  0  0  0  0  0
    3.8297   14.9600   -0.3961 H   0  0  0  0  0  0  0  0  0  0  0  0
    0.9420   12.6544   -2.3799 H   0  0  0  0  0  0  0  0  0  0  0  0
    0.9202   14.3097   -3.0772 H   0  0  0  0  0  0  0  0  0  0  0  0
    2.4418   13.3552   -3.0772 H   0  0  0  0  0  0  0  0  0  0  0  0
    2.2566   13.6166    0.8664 H   0  0  0  0  0  0  0  0  0  0  0  0
    3.6166   12.1902   -0.7921 H   0  0  0  0  0  0  0  0  0  0  0  0
    2.9771   11.4748    0.7787 H   0  0  0  0  0  0  0  0  0  0  0  0
    2.7710    9.9535   -1.3634 H   0  0  0  0  0  0  0  0  0  0  0  0
   -0.6102   12.1594   -1.4094 H   0  0  0  0  0  0  0  0  0  0  0  0
   -1.0117   10.1942    0.9297 H   0  0  0  0  0  0  0  0  0  0  0  0
   -2.1714   11.4803    0.3709 H   0  0  0  0  0  0  0  0  0  0  0  0
   -2.8389    9.2221   -0.3876 H   0  0  0  0  0  0  0  0  0  0  0  0
   -2.4576   10.3437   -1.7530 H   0  0  0  0  0  0  0  0  0  0  0  0
   -1.5040    8.1950   -2.2326 H   0  0  0  0  0  0  0  0  0  0  0  0
   -1.3660    7.6510    0.1140 H   0  0  0  0  0  0  0  0  0  0  0  0
   -0.8031   11.0375   -3.2289 H   0  0  0  0  0  0  0  0  0  0  0  0
    0.6803   10.4024   -4.0180 H   0  0  0  0  0  0  0  0  0  0  0  0
   -0.8261    9.4240   -4.0180 H   0  0  0  0  0  0  0  0  0  0  0  0
    1.6495    7.9259   -1.5542 H   0  0  0  0  0  0  0  0  0  0  0  0
    0.7390    7.5865   -3.0650 H   0  0  0  0  0  0  0  0  0  0  0  0
    2.0554    8.8087   -3.0650 H   0  0  0  0  0  0  0  0  0  0  0  0
    0.3247   12.9098    2.5778 H   0  0  0  0  0  0  0  0  0  0  0  0
   -0.3486   11.3455    2.0067 H   0  0  0  0  0  0  0  0  0  0  0  0
    1.4278   11.6123    2.0067 H   0  0  0  0  0  0  0  0  0  0  0  0
   -1.6475   13.4881    0.3611 H   0  0  0  0  0  0  0  0  0  0  0  0
   -0.4154   14.3727    1.4259 H   0  0  0  0  0  0  0  0  0  0  0  0
   -0.7534   14.5873   -1.5785 H   0  0  0  0  0  0  0  0  0  0  0  0
   -1.0442   15.8490   -0.3175 H   0  0  0  0  0  0  0  0  0  0  0  0
    1.0275   15.4055    1.5091 H   0  0  0  0  0  0  0  0  0  0  0  0
    2.5230   16.0803    0.7779 H   0  0  0  0  0  0  0  0  0  0  0  0
    1.0085   17.0461    0.7779 H   0  0  0  0  0  0  0  0  0  0  0  0
  1  2  1  0
  2  3  1  0
  3  4  1  0
  4  5  1  0
  5  6  1  0
  6  7  1  0
  7  8  1  0
  7  9  1  0
  2 10  1  0
 10 11  1  0
 11 12  1  0
 12 13  1  0
 13 14  1  6
 13 15  1  0
 15 16  1  0
 16 17  1  0
 17 18  2  0
 18 19  1  0
 19 20  1  0
 20 21  1  0
 21 22  1  0
 22 23  1  0
 22 24  1  0
 24 25  1  0
 24 26  1  0
 19 27  1  0
 27 28  1  1
 27 29  1  0
 29 30  1  0
 30 31  1  0
 31 32  1  1
  7  5  1  0
 31 10  1  0
 31 13  1  0
 27 15  1  0
 24 18  1  0
  1 33  1  0
  1 34  1  0
  1 35  1  0
  2 36  1  1
  3 37  1  0
  3 38  1  0
  4 39  1  0
  4 40  1  0
  5 41  1  1
  8 42  1  0
  8 43  1  0
  8 44  1  0
  9 45  1  0
  9 46  1  0
  9 47  1  0
 10 48  1  6
 11 49  1  0
 11 50  1  0
 12 51  1  0
 12 52  1  0
 14 53  1  0
 14 54  1  0
 14 55  1  0
 15 56  1  1
 16 57  1  0
 16 58  1  0
 17 59  1  0
 19 60  1  6
 20 61  1  0
 20 62  1  0
 21 63  1  0
 21 64  1  0
 22 65  1  6
 23 66  1  0
 25 67  1  0
 25 68  1  0
 25 69  1  0
 26 70  1  0
 26 71  1  0
 26 72  1  0
 28 73  1  0
 28 74  1  0
 28 75  1  0
 29 76  1  0
 29 77  1  0
 30 78  1  0
 30 79  1  0
 32 80  1  0
 32 81  1  0
 32 82  1  0
M  END
>  <meeko>  (17) 
{"is_sidechain": [false], "intermolecular_energy": 2.731, "internal_energy": -0.839}

$$$$
EPH_relaxed_0001_pdb2pqr_Repair_111_r2_0001_out
     RDKit          3D

 82 86  0  0  0  0  0  0  0  0999 V2000
    0.9110   14.9480   -2.6670 C   0  0  0  0  0  0  0  0  0  0  0  0
    1.2060   14.2800   -4.0130 C   0  0  2  0  0  0  0  0  0  0  0  0
    0.5000   14.9950   -5.1830 C   0  0  0  0  0  0  0  0  0  0  0  0
    1.0950   14.6630   -6.5550 C   0  0  0  0  0  0  0  0  0  0  0  0
    0.8810   15.7770   -7.5350 C   0  0  2  0  0  0  0  0  0  0  0  0
    0.4030   15.3590   -8.8210 O   0  0  0  0  0  0  0  0  0  0  0  0
    1.7100   15.9540   -8.7940 C   0  0  0  0  0  0  0  0  0  0  0  0
    2.8170   15.0080   -9.1380 C   0  0  0  0  0  0  0  0  0  0  0  0
    1.7680   17.3100   -9.4270 C   0  0  0  0  0  0  0  0  0  0  0  0
    0.7870   12.8150   -3.9690 C   0  0  1  0  0  0  0  0  0  0  0  0
    1.9500   11.8510   -4.3250 C   0  0  0  0  0  0  0  0  0  0  0  0
    1.7600   10.5810   -3.4560 C   0  0  0  0  0  0  0  0  0  0  0  0
    0.3300   10.7120   -2.8820 C   0  0  1  0  0  0  0  0  0  0  0  0
   -0.6090   10.2210   -4.0280 C   0  0  0  0  0  0  0  0  0  0  0  0
    0.0510    9.9540   -1.5430 C   0  0  2  0  0  0  0  0  0  0  0  0
    0.1920    8.4240   -1.6170 C   0  0  0  0  0  0  0  0  0  0  0  0
   -1.0560    7.6850   -1.9690 C   0  0  0  0  0  0  0  0  0  0  0  0
   -2.3020    8.1930   -1.9370 C   0  0  0  0  0  0  0  0  0  0  0  0
   -2.5590    9.6150   -1.4220 C   0  0  1  0  0  0  0  0  0  0  0  0
   -3.7610    9.6010   -0.4420 C   0  0  0  0  0  0  0  0  0  0  0  0
   -5.0070    8.9680   -1.0540 C   0  0  0  0  0  0  0  0  0  0  0  0
   -4.7280    7.5360   -1.5010 C   0  0  2  0  0  0  0  0  0  0  0  0
   -4.4770    6.7320   -0.3440 O   0  0  0  0  0  0  0  0  0  0  0  0
   -3.5290    7.4240   -2.4840 C   0  0  0  0  0  0  0  0  0  0  0  0
   -3.9190    8.0380   -3.8510 C   0  0  0  0  0  0  0  0  0  0  0  0
   -3.2650    5.9160   -2.7450 C   0  0  0  0  0  0  0  0  0  0  0  0
   -1.2960   10.3760   -0.8280 C   0  0  1  0  0  0  0  0  0  0  0  0
   -1.1270   10.0280    0.6820 C   0  0  0  0  0  0  0  0  0  0  0  0
   -1.5510   11.9280   -0.9000 C   0  0  0  0  0  0  0  0  0  0  0  0
   -1.1440   12.6400   -2.2040 C   0  0  0  0  0  0  0  0  0  0  0  0
    0.2820   12.2600   -2.6140 C   0  0  2  0  0  0  0  0  0  0  0  0
    1.2520   12.7610   -1.4900 C   0  0  0  0  0  0  0  0  0  0  0  0
    1.2086   14.2741   -1.8502 H   0  0  0  0  0  0  0  0  0  0  0  0
    1.4778   15.8877   -2.5920 H   0  0  0  0  0  0  0  0  0  0  0  0
   -0.1654   15.1621   -2.5920 H   0  0  0  0  0  0  0  0  0  0  0  0
    2.2897   14.3517   -4.1878 H   0  0  0  0  0  0  0  0  0  0  0  0
   -0.5594   14.6989   -5.1828 H   0  0  0  0  0  0  0  0  0  0  0  0
    0.6331   16.0758   -5.0273 H   0  0  0  0  0  0  0  0  0  0  0  0
    2.1754   14.4893   -6.4427 H   0  0  0  0  0  0  0  0  0  0  0  0
    0.5899   13.7649   -6.9402 H   0  0  0  0  0  0  0  0  0  0  0  0
    0.6122   16.4706   -6.7247 H   0  0  0  0  0  0  0  0  0  0  0  0
    3.2695   14.6213   -8.2130 H   0  0  0  0  0  0  0  0  0  0  0  0
    2.4142   14.1708   -9.7270 H   0  0  0  0  0  0  0  0  0  0  0  0
    3.5811   15.5364   -9.7270 H   0  0  0  0  0  0  0  0  0  0  0  0
    1.8009   18.0800   -8.6421 H   0  0  0  0  0  0  0  0  0  0  0  0
    2.6702   17.3846  -10.0519 H   0  0  0  0  0  0  0  0  0  0  0  0
    0.8755   17.4614  -10.0519 H   0  0  0  0  0  0  0  0  0  0  0  0
   -0.0374   12.8367   -4.6970 H   0  0  0  0  0  0  0  0  0  0  0  0
    1.9114   11.5888   -5.3926 H   0  0  0  0  0  0  0  0  0  0  0  0
    2.9257   12.3203   -4.1306 H   0  0  0  0  0  0  0  0  0  0  0  0
    1.8503    9.6730   -4.0703 H   0  0  0  0  0  0  0  0  0  0  0  0
    2.5209   10.4983   -2.6659 H   0  0  0  0  0  0  0  0  0  0  0  0
   -1.5044    9.7528   -3.5931 H   0  0  0  0  0  0  0  0  0  0  0  0
   -0.9084   11.0780   -4.6493 H   0  0  0  0  0  0  0  0  0  0  0  0
   -0.0760    9.4862   -4.6493 H   0  0  0  0  0  0  0  0  0  0  0  0
    0.8752   10.2989   -0.9013 H   0  0  0  0  0  0  0  0  0  0  0  0
    0.9519    8.1891   -2.3768 H   0  0  0  0  0  0  0  0  0  0  0  0
    0.4654    8.0943   -0.6038 H   0  0  0  0  0  0  0  0  0  0  0  0
   -0.9483    6.6357   -2.2812 H   0  0  0  0  0  0  0  0  0  0  0  0
   -2.8062   10.2193   -2.3073 H   0  0  0  0  0  0  0  0  0  0  0  0
   -3.4787    9.0290    0.4542 H   0  0  0  0  0  0  0  0  0  0  0  0
   -4.0034   10.6453   -0.1958 H   0  0  0  0  0  0  0  0  0  0  0  0
   -5.8122    8.9607   -0.3046 H   0  0  0  0  0  0  0  0  0  0  0  0
   -5.3049    9.5583   -1.9331 H   0  0  0  0  0  0  0  0  0  0  0  0
   -5.6155    7.1820   -2.0460 H   0  0  0  0  0  0  0  0  0  0  0  0
   -4.6500    7.2820    0.4390 H   0  0  0  0  0  0  0  0  0  0  0  0
   -4.5022    8.9562   -3.6875 H   0  0  0  0  0  0  0  0  0  0  0  0
   -3.0078    8.2785   -4.4183 H   0  0  0  0  0  0  0  0  0  0  0  0
   -4.5240    7.3154   -4.4183 H   0  0  0  0  0  0  0  0  0  0  0  0
   -3.1726    5.3883   -1.7843 H   0  0  0  0  0  0  0  0  0  0  0  0
   -4.1024    5.4909   -3.3178 H   0  0  0  0  0  0  0  0  0  0  0  0
   -2.3330    5.8007   -3.3178 H   0  0  0  0  0  0  0  0  0  0  0  0
   -1.5261   10.8499    1.2946 H   0  0  0  0  0  0  0  0  0  0  0  0
   -1.6757    9.1019    0.9085 H   0  0  0  0  0  0  0  0  0  0  0  0
   -0.0599    9.8866    0.9085 H   0  0  0  0  0  0  0  0  0  0  0  0
   -2.6281   12.0953   -0.7519 H   0  0  0  0  0  0  0  0  0  0  0  0
   -0.9053   12.3617   -0.1222 H   0  0  0  0  0  0  0  0  0  0  0  0
   -1.8387   12.3480   -3.0053 H   0  0  0  0  0  0  0  0  0  0  0  0
   -1.1833   13.7266   -2.0373 H   0  0  0  0  0  0  0  0  0  0  0  0
    0.8180   12.5368   -0.5044 H   0  0  0  0  0  0  0  0  0  0  0  0
    2.2216   12.2509   -1.5883 H   0  0  0  0  0  0  0  0  0  0  0  0
    1.3973   13.8469   -1.5883 H   0  0  0  0  0  0  0  0  0  0  0  0
  1  2  1  0
  2  3  1  0
  3  4  1  0
  4  5  1  0
  5  6  1  0
  6  7  1  0
  7  8  1  0
  7  9  1  0
  2 10  1  0
 10 11  1  0
 11 12  1  0
 12 13  1  0
 13 14  1  6
 13 15  1  0
 15 16  1  0
 16 17  1  0
 17 18  2  0
 18 19  1  0
 19 20  1  0
 20 21  1  0
 21 22  1  0
 22 23  1  0
 22 24  1  0
 24 25  1  0
 24 26  1  0
 19 27  1  0
 27 28  1  1
 27 29  1  0
 29 30  1  0
 30 31  1  0
 31 32  1  1
  7  5  1  0
 31 10  1  0
 31 13  1  0
 27 15  1  0
 24 18  1  0
  1 33  1  0
  1 34  1  0
  1 35  1  0
  2 36  1  6
  3 37  1  0
  3 38  1  0
  4 39  1  0
  4 40  1  0
  5 41  1  1
  8 42  1  0
  8 43  1  0
  8 44  1  0
  9 45  1  0
  9 46  1  0
  9 47  1  0
 10 48  1  6
 11 49  1  0
 11 50  1  0
 12 51  1  0
 12 52  1  0
 14 53  1  0
 14 54  1  0
 14 55  1  0
 15 56  1  1
 16 57  1  0
 16 58  1  0
 17 59  1  0
 19 60  1  6
 20 61  1  0
 20 62  1  0
 21 63  1  0
 21 64  1  0
 22 65  1  6
 23 66  1  0
 25 67  1  0
 25 68  1  0
 25 69  1  0
 26 70  1  0
 26 71  1  0
 26 72  1  0
 28 73  1  0
 28 74  1  0
 28 75  1  0
 29 76  1  0
 29 77  1  0
 30 78  1  0
 30 79  1  0
 32 80  1  0
 32 81  1  0
 32 82  1  0
M  END
>  <meeko>  (18) 
{"is_sidechain": [false], "intermolecular_energy": 2.731, "internal_energy": -0.839}

$$$$
EPH_relaxed_0001_pdb2pqr_Repair_111_r2_0001_out
     RDKit          3D

 82 86  0  0  0  0  0  0  0  0999 V2000
    4.5220   16.3080   -0.1730 C   0  0  0  0  0  0  0  0  0  0  0  0
    3.1780   16.9560   -0.5180 C   0  0  2  0  0  0  0  0  0  0  0  0
    2.9050   18.2140    0.3310 C   0  0  0  0  0  0  0  0  0  0  0  0
    2.5260   19.4450   -0.4960 C   0  0  0  0  0  0  0  0  0  0  0  0
    1.6720   19.0800   -1.6730 C   0  0  2  0  0  0  0  0  0  0  0  0
    1.2230   20.1940   -2.4550 O   0  0  0  0  0  0  0  0  0  0  0  0
    0.2020   19.4390   -1.7830 C   0  0  0  0  0  0  0  0  0  0  0  0
   -0.5000   20.1950   -0.6990 C   0  0  0  0  0  0  0  0  0  0  0  0
   -0.6630   18.6390   -2.7070 C   0  0  0  0  0  0  0  0  0  0  0  0
    2.0520   15.9470   -0.3310 C   0  0  1  0  0  0  0  0  0  0  0  0
    0.6740   16.6240   -0.1040 C   0  0  0  0  0  0  0  0  0  0  0  0
   -0.3860   15.7220   -0.7860 C   0  0  0  0  0  0  0  0  0  0  0  0
    0.3620   14.4030   -1.0900 C   0  0  1  0  0  0  0  0  0  0  0  0
    0.3490   13.6150    0.2570 C   0  0  0  0  0  0  0  0  0  0  0  0
   -0.2040   13.5430   -2.2670 C   0  0  2  0  0  0  0  0  0  0  0  0
   -1.6370   13.0210   -2.0640 C   0  0  0  0  0  0  0  0  0  0  0  0
   -1.7420   11.6840   -1.4080 C   0  0  0  0  0  0  0  0  0  0  0  0
   -0.7330   10.8060   -1.2570 C   0  0  0  0  0  0  0  0  0  0  0  0
    0.6510   11.0850   -1.8580 C   0  0  1  0  0  0  0  0  0  0  0  0
    1.1640    9.8160   -2.5860 C   0  0  0  0  0  0  0  0  0  0  0  0
    1.1560    8.5820   -1.6890 C   0  0  0  0  0  0  0  0  0  0  0  0
   -0.2470    8.3040   -1.1570 C   0  0  2  0  0  0  0  0  0  0  0  0
   -1.0880    7.9270   -2.2520 O   0  0  0  0  0  0  0  0  0  0  0  0
   -0.8720    9.5160   -0.4120 C   0  0  0  0  0  0  0  0  0  0  0  0
   -0.1370    9.7340    0.9340 C   0  0  0  0  0  0  0  0  0  0  0  0
   -2.3380    9.1510   -0.0520 C   0  0  0  0  0  0  0  0  0  0  0  0
    0.7660   12.3920   -2.7540 C   0  0  1  0  0  0  0  0  0  0  0  0
    0.3660   12.0660   -4.2260 C   0  0  0  0  0  0  0  0  0  0  0  0
    2.2710   12.8560   -2.7960 C   0  0  0  0  0  0  0  0  0  0  0  0
    2.7380   13.8000   -1.6720 C   0  0  0  0  0  0  0  0  0  0  0  0
    1.7680   14.9730   -1.5020 C   0  0  2  0  0  0  0  0  0  0  0  0
    1.7760   15.7970   -2.8340 C   0  0  0  0  0  0  0  0  0  0  0  0
    4.6333   16.2543    0.9200 H   0  0  0  0  0  0  0  0  0  0  0  0
    4.5590   15.2931   -0.5956 H   0  0  0  0  0  0  0  0  0  0  0  0
    5.3391   16.9111   -0.5956 H   0  0  0  0  0  0  0  0  0  0  0  0
    3.2231   17.2719   -1.5707 H   0  0  0  0  0  0  0  0  0  0  0  0
    2.0791   17.9931    1.0232 H   0  0  0  0  0  0  0  0  0  0  0  0
    3.8405   18.4559    0.8567 H   0  0  0  0  0  0  0  0  0  0  0  0
    1.9708   20.1470    0.1434 H   0  0  0  0  0  0  0  0  0  0  0  0
    3.4520   19.9036   -0.8730 H   0  0  0  0  0  0  0  0  0  0  0  0
    2.2108   18.1293   -1.7992 H   0  0  0  0  0  0  0  0  0  0  0  0
   -0.1608   19.8297    0.2816 H   0  0  0  0  0  0  0  0  0  0  0  0
   -0.2694   21.2666   -0.7909 H   0  0  0  0  0  0  0  0  0  0  0  0
   -1.5858   20.0443   -0.7909 H   0  0  0  0  0  0  0  0  0  0  0  0
   -1.3447   18.0086   -2.1172 H   0  0  0  0  0  0  0  0  0  0  0  0
   -1.2497   19.3197   -3.3413 H   0  0  0  0  0  0  0  0  0  0  0  0
   -0.0301   18.0010   -3.3413 H   0  0  0  0  0  0  0  0  0  0  0  0
    2.4442   15.3920    0.5339 H   0  0  0  0  0  0  0  0  0  0  0  0
    0.4651   16.7059    0.9729 H   0  0  0  0  0  0  0  0  0  0  0  0
    0.6588   17.6395   -0.5266 H   0  0  0  0  0  0  0  0  0  0  0  0
   -1.2344   15.5404   -0.1098 H   0  0  0  0  0  0  0  0  0  0  0  0
   -0.8048   16.1828   -1.6928 H   0  0  0  0  0  0  0  0  0  0  0  0
    0.3607   14.3249    1.0972 H   0  0  0  0  0  0  0  0  0  0  0  0
   -0.5595   12.9972    0.3116 H   0  0  0  0  0  0  0  0  0  0  0  0
    1.2366   12.9675    0.3116 H   0  0  0  0  0  0  0  0  0  0  0  0
   -0.2660   14.2759   -3.0849 H   0  0  0  0  0  0  0  0  0  0  0  0
   -2.1787   13.7484   -1.4416 H   0  0  0  0  0  0  0  0  0  0  0  0
   -2.0622   12.8999   -3.0713 H   0  0  0  0  0  0  0  0  0  0  0  0
   -2.7270   11.3918   -1.0149 H   0  0  0  0  0  0  0  0  0  0  0  0
    1.3103   11.3200   -1.0094 H   0  0  0  0  0  0  0  0  0  0  0  0
    0.5187    9.6236   -3.4558 H   0  0  0  0  0  0  0  0  0  0  0  0
    2.2054   10.0025   -2.8871 H   0  0  0  0  0  0  0  0  0  0  0  0
    1.4999    7.7130   -2.2691 H   0  0  0  0  0  0  0  0  0  0  0  0
    1.8257    8.7638   -0.8355 H   0  0  0  0  0  0  0  0  0  0  0  0
   -0.1651    7.4918   -0.4197 H   0  0  0  0  0  0  0  0  0  0  0  0
   -0.7270    7.1080   -2.6330 H   0  0  0  0  0  0  0  0  0  0  0  0
   -0.8270    9.5294    1.7659 H   0  0  0  0  0  0  0  0  0  0  0  0
    0.7244    9.0527    0.9960 H   0  0  0  0  0  0  0  0  0  0  0  0
    0.2136   10.7748    0.9960 H   0  0  0  0  0  0  0  0  0  0  0  0
   -2.4508    9.1229    1.0418 H   0  0  0  0  0  0  0  0  0  0  0  0
   -3.0177    9.9073   -0.4714 H   0  0  0  0  0  0  0  0  0  0  0  0
   -2.5838    8.1642   -0.4714 H   0  0  0  0  0  0  0  0  0  0  0  0
   -0.4867   11.3711   -4.2289 H   0  0  0  0  0  0  0  0  0  0  0  0
    0.0839   12.9947   -4.7436 H   0  0  0  0  0  0  0  0  0  0  0  0
    1.2187   11.6023   -4.7436 H   0  0  0  0  0  0  0  0  0  0  0  0
    2.8988   11.9536   -2.7551 H   0  0  0  0  0  0  0  0  0  0  0  0
    2.3660   13.4419   -3.7221 H   0  0  0  0  0  0  0  0  0  0  0  0
    2.7908   13.2372   -0.7283 H   0  0  0  0  0  0  0  0  0  0  0  0
    3.7277   14.1994   -1.9384 H   0  0  0  0  0  0  0  0  0  0  0  0
    1.7864   16.8718   -2.6002 H   0  0  0  0  0  0  0  0  0  0  0  0
    2.6717   15.5402   -3.4186 H   0  0  0  0  0  0  0  0  0  0  0  0
    0.8755   15.5577   -3.4186 H   0  0  0  0  0  0  0  0  0  0  0  0
  1  2  1  0
  2  3  1  0
  3  4  1  0
  4  5  1  0
  5  6  1  0
  6  7  1  0
  7  8  1  0
  7  9  1  0
  2 10  1  0
 10 11  1  0
 11 12  1  0
 12 13  1  0
 13 14  1  1
 13 15  1  0
 15 16  1  0
 16 17  1  0
 17 18  2  0
 18 19  1  0
 19 20  1  0
 20 21  1  0
 21 22  1  0
 22 23  1  0
 22 24  1  0
 24 25  1  0
 24 26  1  0
 19 27  1  0
 27 28  1  6
 27 29  1  0
 29 30  1  0
 30 31  1  0
 31 32  1  6
  7  5  1  0
 31 10  1  0
 31 13  1  0
 27 15  1  0
 24 18  1  0
  1 33  1  0
  1 34  1  0
  1 35  1  0
  2 36  1  6
  3 37  1  0
  3 38  1  0
  4 39  1  0
  4 40  1  0
  5 41  1  6
  8 42  1  0
  8 43  1  0
  8 44  1  0
  9 45  1  0
  9 46  1  0
  9 47  1  0
 10 48  1  1
 11 49  1  0
 11 50  1  0
 12 51  1  0
 12 52  1  0
 14 53  1  0
 14 54  1  0
 14 55  1  0
 15 56  1  6
 16 57  1  0
 16 58  1  0
 17 59  1  0
 19 60  1  1
 20 61  1  0
 20 62  1  0
 21 63  1  0
 21 64  1  0
 22 65  1  1
 23 66  1  0
 25 67  1  0
 25 68  1  0
 25 69  1  0
 26 70  1  0
 26 71  1  0
 26 72  1  0
 28 73  1  0
 28 74  1  0
 28 75  1  0
 29 76  1  0
 29 77  1  0
 30 78  1  0
 30 79  1  0
 32 80  1  0
 32 81  1  0
 32 82  1  0
M  END
>  <meeko>  (19) 
{"is_sidechain": [false], "intermolecular_energy": 2.731, "internal_energy": -0.839}

$$$$
