EPH_relaxed_0001_pdb2pqr_Repair_33_r2_0001_out
     RDKit          3D

 82 86  0  0  0  0  0  0  0  0999 V2000
   -1.4580    8.5420   -1.7840 C   0  0  0  0  0  0  0  0  0  0  0  0
   -1.8530    9.1090   -0.4170 C   0  0  2  0  0  0  0  0  0  0  0  0
   -3.3490    9.4770   -0.3520 C   0  0  0  0  0  0  0  0  0  0  0  0
   -4.2800    8.2630   -0.3090 C   0  0  0  0  0  0  0  0  0  0  0  0
   -4.9190    8.0080   -1.6410 C   0  0  2  0  0  0  0  0  0  0  0  0
   -6.3520    8.0340   -1.6330 O   0  0  0  0  0  0  0  0  0  0  0  0
   -5.7440    6.7720   -1.9500 C   0  0  0  0  0  0  0  0  0  0  0  0
   -5.9740    5.7100   -0.9210 C   0  0  0  0  0  0  0  0  0  0  0  0
   -5.9130    6.3640   -3.3800 C   0  0  0  0  0  0  0  0  0  0  0  0
   -1.0010   10.3310   -0.0960 C   0  0  1  0  0  0  0  0  0  0  0  0
    0.0930   10.0340    0.9650 C   0  0  0  0  0  0  0  0  0  0  0  0
    1.3280   10.8910    0.5860 C   0  0  0  0  0  0  0  0  0  0  0  0
    0.8000   11.8910   -0.4700 C   0  0  1  0  0  0  0  0  0  0  0  0
    0.1120   13.0210    0.3570 C   0  0  0  0  0  0  0  0  0  0  0  0
    1.8580   12.4670   -1.4670 C   0  0  2  0  0  0  0  0  0  0  0  0
    2.9800   13.2980   -0.8190 C   0  0  0  0  0  0  0  0  0  0  0  0
    2.7040   14.7600   -0.7040 C   0  0  0  0  0  0  0  0  0  0  0  0
    1.7330   15.4270   -1.3560 C   0  0  0  0  0  0  0  0  0  0  0  0
    0.8480   14.7180   -2.3890 C   0  0  1  0  0  0  0  0  0  0  0  0
    0.7380   15.5950   -3.6640 C   0  0  0  0  0  0  0  0  0  0  0  0
    0.2600   17.0110   -3.3610 C   0  0  0  0  0  0  0  0  0  0  0  0
    1.1970   17.7030   -2.3750 C   0  0  2  0  0  0  0  0  0  0  0  0
    2.4650   17.9060   -3.0080 O   0  0  0  0  0  0  0  0  0  0  0  0
    1.3940   16.9080   -1.0540 C   0  0  0  0  0  0  0  0  0  0  0  0
    0.0880   16.9470   -0.2230 C   0  0  0  0  0  0  0  0  0  0  0  0
    2.4690   17.6430   -0.2090 C   0  0  0  0  0  0  0  0  0  0  0  0
    1.2340   13.2110   -2.7160 C   0  0  1  0  0  0  0  0  0  0  0  0
    2.3120   13.1710   -3.8420 C   0  0  0  0  0  0  0  0  0  0  0  0
   -0.0310   12.4680   -3.2850 C   0  0  0  0  0  0  0  0  0  0  0  0
   -0.9760   11.8170   -2.2560 C   0  0  0  0  0  0  0  0  0  0  0  0
   -0.1920   10.9590   -1.2580 C   0  0  2  0  0  0  0  0  0  0  0  0
    0.4940    9.8000   -2.0590 C   0  0  0  0  0  0  0  0  0  0  0  0
   -0.8344    7.6468   -1.6434 H   0  0  0  0  0  0  0  0  0  0  0  0
   -2.3649    8.2726   -2.3452 H   0  0  0  0  0  0  0  0  0  0  0  0
   -0.8910    9.2994   -2.3452 H   0  0  0  0  0  0  0  0  0  0  0  0
   -1.6735    8.3238    0.3322 H   0  0  0  0  0  0  0  0  0  0  0  0
   -3.5198   10.0778    0.5534 H   0  0  0  0  0  0  0  0  0  0  0  0
   -3.5843   10.0300   -1.2733 H   0  0  0  0  0  0  0  0  0  0  0  0
   -3.6972    7.3768   -0.0175 H   0  0  0  0  0  0  0  0  0  0  0  0
   -5.0773    8.4675    0.4208 H   0  0  0  0  0  0  0  0  0  0  0  0
   -4.0744    8.4814   -2.1630 H   0  0  0  0  0  0  0  0  0  0  0  0
   -5.8794    6.1467    0.0841 H   0  0  0  0  0  0  0  0  0  0  0  0
   -6.9836    5.2914   -1.0454 H   0  0  0  0  0  0  0  0  0  0  0  0
   -5.2280    4.9112   -1.0454 H   0  0  0  0  0  0  0  0  0  0  0  0
   -6.3336    5.3486   -3.4243 H   0  0  0  0  0  0  0  0  0  0  0  0
   -6.5946    7.0655   -3.8834 H   0  0  0  0  0  0  0  0  0  0  0  0
   -4.9350    6.3781   -3.8834 H   0  0  0  0  0  0  0  0  0  0  0  0
   -1.7893   11.0248    0.2316 H   0  0  0  0  0  0  0  0  0  0  0  0
   -0.2665   10.3101    1.9673 H   0  0  0  0  0  0  0  0  0  0  0  0
    0.3455    8.9635    0.9829 H   0  0  0  0  0  0  0  0  0  0  0  0
    1.7154   11.4245    1.4665 H   0  0  0  0  0  0  0  0  0  0  0  0
    2.1584   10.2796    0.2030 H   0  0  0  0  0  0  0  0  0  0  0  0
    0.2362   12.8170    1.4308 H   0  0  0  0  0  0  0  0  0  0  0  0
    0.5745   13.9884    0.1117 H   0  0  0  0  0  0  0  0  0  0  0  0
   -0.9598   13.0543    0.1117 H   0  0  0  0  0  0  0  0  0  0  0  0
    2.3433   11.5566   -1.8487 H   0  0  0  0  0  0  0  0  0  0  0  0
    3.1537   12.9041    0.1932 H   0  0  0  0  0  0  0  0  0  0  0  0
    3.8516   13.2038   -1.4834 H   0  0  0  0  0  0  0  0  0  0  0  0
    3.3487   15.3423   -0.0292 H   0  0  0  0  0  0  0  0  0  0  0  0
   -0.1419   14.6129   -1.9209 H   0  0  0  0  0  0  0  0  0  0  0  0
    1.7283   15.6514   -4.1395 H   0  0  0  0  0  0  0  0  0  0  0  0
   -0.0041   15.1272   -4.3277 H   0  0  0  0  0  0  0  0  0  0  0  0
    0.2308   17.5891   -4.2964 H   0  0  0  0  0  0  0  0  0  0  0  0
   -0.7428   16.9549   -2.9125 H   0  0  0  0  0  0  0  0  0  0  0  0
    0.7332   18.6611   -2.0976 H   0  0  0  0  0  0  0  0  0  0  0  0
    3.1250   17.3880   -2.5170 H   0  0  0  0  0  0  0  0  0  0  0  0
    0.3351   16.9396    0.8489 H   0  0  0  0  0  0  0  0  0  0  0  0
   -0.4726   17.8623   -0.4638 H   0  0  0  0  0  0  0  0  0  0  0  0
   -0.5262   16.0668   -0.4638 H   0  0  0  0  0  0  0  0  0  0  0  0
    2.2569   17.4980    0.8606 H   0  0  0  0  0  0  0  0  0  0  0  0
    3.4628   17.2345   -0.4444 H   0  0  0  0  0  0  0  0  0  0  0  0
    2.4490   18.7173   -0.4444 H   0  0  0  0  0  0  0  0  0  0  0  0
    3.3138   13.1338   -3.3893 H   0  0  0  0  0  0  0  0  0  0  0  0
    2.1580   12.2780   -4.4655 H   0  0  0  0  0  0  0  0  0  0  0  0
    2.2246   14.0730   -4.4655 H   0  0  0  0  0  0  0  0  0  0  0  0
   -0.6175   13.2010   -3.8584 H   0  0  0  0  0  0  0  0  0  0  0  0
    0.3687   11.6321   -3.8779 H   0  0  0  0  0  0  0  0  0  0  0  0
   -1.5113   12.6069   -1.7088 H   0  0  0  0  0  0  0  0  0  0  0  0
   -1.6867   11.1707   -2.7920 H   0  0  0  0  0  0  0  0  0  0  0  0
    0.9245    9.0726   -1.3551 H   0  0  0  0  0  0  0  0  0  0  0  0
   -0.2534    9.2994   -2.6921 H   0  0  0  0  0  0  0  0  0  0  0  0
    1.2924   10.2144   -2.6921 H   0  0  0  0  0  0  0  0  0  0  0  0
  1  2  1  0
  2  3  1  0
  3  4  1  0
  4  5  1  0
  5  6  1  0
  6  7  1  0
  7  8  1  0
  7  9  1  0
  2 10  1  0
 10 11  1  0
 11 12  1  0
 12 13  1  0
 13 14  1  1
 13 15  1  0
 15 16  1  0
 16 17  1  0
 17 18  2  0
 18 19  1  0
 19 20  1  0
 20 21  1  0
 21 22  1  0
 22 23  1  0
 22 24  1  0
 24 25  1  0
 24 26  1  0
 19 27  1  0
 27 28  1  6
 27 29  1  0
 29 30  1  0
 30 31  1  0
 31 32  1  6
  7  5  1  0
 31 10  1  0
 31 13  1  0
 27 15  1  0
 24 18  1  0
  1 33  1  0
  1 34  1  0
  1 35  1  0
  2 36  1  1
  3 37  1  0
  3 38  1  0
  4 39  1  0
  4 40  1  0
  5 41  1  6
  8 42  1  0
  8 43  1  0
  8 44  1  0
  9 45  1  0
  9 46  1  0
  9 47  1  0
 10 48  1  1
 11 49  1  0
 11 50  1  0
 12 51  1  0
 12 52  1  0
 14 53  1  0
 14 54  1  0
 14 55  1  0
 15 56  1  6
 16 57  1  0
 16 58  1  0
 17 59  1  0
 19 60  1  1
 20 61  1  0
 20 62  1  0
 21 63  1  0
 21 64  1  0
 22 65  1  1
 23 66  1  0
 25 67  1  0
 25 68  1  0
 25 69  1  0
 26 70  1  0
 26 71  1  0
 26 72  1  0
 28 73  1  0
 28 74  1  0
 28 75  1  0
 29 76  1  0
 29 77  1  0
 30 78  1  0
 30 79  1  0
 32 80  1  0
 32 81  1  0
 32 82  1  0
M  END
>  <meeko>  (1) 
{"is_sidechain": [false], "intermolecular_energy": 2.731, "internal_energy": -0.839}

$$$$
EPH_relaxed_0001_pdb2pqr_Repair_33_r2_0001_out
     RDKit          3D

 82 86  0  0  0  0  0  0  0  0999 V2000
    4.2690   17.4360   -0.5710 C   0  0  0  0  0  0  0  0  0  0  0  0
    2.9080   18.0320   -0.1980 C   0  0  2  0  0  0  0  0  0  0  0  0
    2.9460   18.7610    1.1600 C   0  0  0  0  0  0  0  0  0  0  0  0
    4.3380   18.8020    1.7980 C   0  0  0  0  0  0  0  0  0  0  0  0
    4.2860   19.3070    3.2080 C   0  0  2  0  0  0  0  0  0  0  0  0
    5.3550   20.1940    3.5650 O   0  0  0  0  0  0  0  0  0  0  0  0
    5.3100   18.9400    4.2660 C   0  0  0  0  0  0  0  0  0  0  0  0
    6.4580   18.0310    3.9590 C   0  0  0  0  0  0  0  0  0  0  0  0
    4.9270   19.0690    5.7080 C   0  0  0  0  0  0  0  0  0  0  0  0
    1.8510   16.9350   -0.1710 C   0  0  1  0  0  0  0  0  0  0  0  0
    0.4230   17.4740   -0.4520 C   0  0  0  0  0  0  0  0  0  0  0  0
   -0.3230   16.3710   -1.2460 C   0  0  0  0  0  0  0  0  0  0  0  0
    0.5720   15.1170   -1.1080 C   0  0  1  0  0  0  0  0  0  0  0  0
    0.2200   14.5250    0.2920 C   0  0  0  0  0  0  0  0  0  0  0  0
    0.4400   14.0450   -2.2390 C   0  0  2  0  0  0  0  0  0  0  0  0
   -0.9490   13.3950   -2.3610 C   0  0  0  0  0  0  0  0  0  0  0  0
   -1.1470   12.1570   -1.5510 C   0  0  0  0  0  0  0  0  0  0  0  0
   -0.1680   11.4300   -0.9810 C   0  0  0  0  0  0  0  0  0  0  0  0
    1.3080   11.7810   -1.2080 C   0  0  1  0  0  0  0  0  0  0  0  0
    2.1010   10.4920   -1.5450 C   0  0  0  0  0  0  0  0  0  0  0  0
    1.9160    9.4000   -0.4960 C   0  0  0  0  0  0  0  0  0  0  0  0
    0.4420    9.0370   -0.3400 C   0  0  2  0  0  0  0  0  0  0  0  0
   -0.0110    8.4200   -1.5490 O   0  0  0  0  0  0  0  0  0  0  0  0
   -0.4580   10.2600   -0.0090 C   0  0  0  0  0  0  0  0  0  0  0  0
   -0.1690   10.7440    1.4340 C   0  0  0  0  0  0  0  0  0  0  0  0
   -1.9360    9.7820   -0.0190 C   0  0  0  0  0  0  0  0  0  0  0  0
    1.5900   12.9580   -2.2390 C   0  0  1  0  0  0  0  0  0  0  0  0
    1.6640   12.3890   -3.6890 C   0  0  0  0  0  0  0  0  0  0  0  0
    3.0030   13.5820   -1.9330 C   0  0  0  0  0  0  0  0  0  0  0  0
    3.0510   14.7180   -0.8940 C   0  0  0  0  0  0  0  0  0  0  0  0
    1.9940   15.7840   -1.1980 C   0  0  2  0  0  0  0  0  0  0  0  0
    2.3350   16.4130   -2.5910 C   0  0  0  0  0  0  0  0  0  0  0  0
    4.8261   17.1921    0.3456 H   0  0  0  0  0  0  0  0  0  0  0  0
    4.1188   16.5213   -1.1632 H   0  0  0  0  0  0  0  0  0  0  0  0
    4.8394   18.1667   -1.1632 H   0  0  0  0  0  0  0  0  0  0  0  0
    2.6511   18.7772   -0.9652 H   0  0  0  0  0  0  0  0  0  0  0  0
    2.6027   19.7951    1.0088 H   0  0  0  0  0  0  0  0  0  0  0  0
    2.2947   18.1985    1.8452 H   0  0  0  0  0  0  0  0  0  0  0  0
    4.7602   17.7863    1.7983 H   0  0  0  0  0  0  0  0  0  0  0  0
    4.9648   19.4888    1.2103 H   0  0  0  0  0  0  0  0  0  0  0  0
    3.1864   19.2771    3.2040 H   0  0  0  0  0  0  0  0  0  0  0  0
    6.9062   17.6761    4.8988 H   0  0  0  0  0  0  0  0  0  0  0  0
    6.0984   17.1701    3.3763 H   0  0  0  0  0  0  0  0  0  0  0  0
    7.2135   18.5784    3.3763 H   0  0  0  0  0  0  0  0  0  0  0  0
    5.7796   18.7818    6.3409 H   0  0  0  0  0  0  0  0  0  0  0  0
    4.6467   20.1111    5.9211 H   0  0  0  0  0  0  0  0  0  0  0  0
    4.0734   18.4088    5.9211 H   0  0  0  0  0  0  0  0  0  0  0  0
    2.0095   16.5516    0.8478 H   0  0  0  0  0  0  0  0  0  0  0  0
   -0.0983   17.6773    0.4950 H   0  0  0  0  0  0  0  0  0  0  0  0
    0.4607   18.4141   -1.0220 H   0  0  0  0  0  0  0  0  0  0  0  0
   -1.3179   16.1873   -0.8141 H   0  0  0  0  0  0  0  0  0  0  0  0
   -0.4872   16.6524   -2.2966 H   0  0  0  0  0  0  0  0  0  0  0  0
    0.6129   15.1857    1.0788 H   0  0  0  0  0  0  0  0  0  0  0  0
   -0.8725   14.4450    0.3921 H   0  0  0  0  0  0  0  0  0  0  0  0
    0.6715   13.5269    0.3921 H   0  0  0  0  0  0  0  0  0  0  0  0
    0.5700   14.6457   -3.1513 H   0  0  0  0  0  0  0  0  0  0  0  0
   -1.6991   14.1336   -2.0418 H   0  0  0  0  0  0  0  0  0  0  0  0
   -1.0509   13.0899   -3.4129 H   0  0  0  0  0  0  0  0  0  0  0  0
   -2.1807   11.8092   -1.4077 H   0  0  0  0  0  0  0  0  0  0  0  0
    1.6693   12.2039   -0.2590 H   0  0  0  0  0  0  0  0  0  0  0  0
    1.7556   10.1095   -2.5168 H   0  0  0  0  0  0  0  0  0  0  0  0
    3.1691   10.7540   -1.5693 H   0  0  0  0  0  0  0  0  0  0  0  0
    2.4762    8.5053   -0.8052 H   0  0  0  0  0  0  0  0  0  0  0  0
    2.2894    9.7735    0.4689 H   0  0  0  0  0  0  0  0  0  0  0  0
    0.3604    8.3473    0.5130 H   0  0  0  0  0  0  0  0  0  0  0  0
   -0.1880    7.4840   -1.3530 H   0  0  0  0  0  0  0  0  0  0  0  0
   -0.5958   10.0292    2.1529 H   0  0  0  0  0  0  0  0  0  0  0  0
    0.9182   10.8128    1.5868 H   0  0  0  0  0  0  0  0  0  0  0  0
   -0.6241   11.7337    1.5868 H   0  0  0  0  0  0  0  0  0  0  0  0
   -2.2912    9.6671    1.0157 H   0  0  0  0  0  0  0  0  0  0  0  0
   -2.5581   10.5248   -0.5399 H   0  0  0  0  0  0  0  0  0  0  0  0
   -2.0053    8.8156   -0.5399 H   0  0  0  0  0  0  0  0  0  0  0  0
    1.8058   11.2989   -3.6483 H   0  0  0  0  0  0  0  0  0  0  0  0
    0.7286   12.6175   -4.2207 H   0  0  0  0  0  0  0  0  0  0  0  0
    2.5099   12.8492   -4.2207 H   0  0  0  0  0  0  0  0  0  0  0  0
    3.6529   12.7720   -1.5705 H   0  0  0  0  0  0  0  0  0  0  0  0
    3.3244   14.0433   -2.8784 H   0  0  0  0  0  0  0  0  0  0  0  0
    2.8628   14.2995    0.1057 H   0  0  0  0  0  0  0  0  0  0  0  0
    4.0447   15.1880   -0.9339 H   0  0  0  0  0  0  0  0  0  0  0  0
    2.8545   17.3713   -2.4433 H   0  0  0  0  0  0  0  0  0  0  0  0
    2.9846   15.7267   -3.1541 H   0  0  0  0  0  0  0  0  0  0  0  0
    1.4054   16.5828   -3.1541 H   0  0  0  0  0  0  0  0  0  0  0  0
  1  2  1  0
  2  3  1  0
  3  4  1  0
  4  5  1  0
  5  6  1  0
  6  7  1  0
  7  8  1  0
  7  9  1  0
  2 10  1  0
 10 11  1  0
 11 12  1  0
 12 13  1  0
 13 14  1  1
 13 15  1  0
 15 16  1  0
 16 17  1  0
 17 18  2  0
 18 19  1  0
 19 20  1  0
 20 21  1  0
 21 22  1  0
 22 23  1  0
 22 24  1  0
 24 25  1  0
 24 26  1  0
 19 27  1  0
 27 28  1  6
 27 29  1  0
 29 30  1  0
 30 31  1  0
 31 32  1  6
  7  5  1  0
 31 10  1  0
 31 13  1  0
 27 15  1  0
 24 18  1  0
  1 33  1  0
  1 34  1  0
  1 35  1  0
  2 36  1  6
  3 37  1  0
  3 38  1  0
  4 39  1  0
  4 40  1  0
  5 41  1  1
  8 42  1  0
  8 43  1  0
  8 44  1  0
  9 45  1  0
  9 46  1  0
  9 47  1  0
 10 48  1  1
 11 49  1  0
 11 50  1  0
 12 51  1  0
 12 52  1  0
 14 53  1  0
 14 54  1  0
 14 55  1  0
 15 56  1  6
 16 57  1  0
 16 58  1  0
 17 59  1  0
 19 60  1  1
 20 61  1  0
 20 62  1  0
 21 63  1  0
 21 64  1  0
 22 65  1  1
 23 66  1  0
 25 67  1  0
 25 68  1  0
 25 69  1  0
 26 70  1  0
 26 71  1  0
 26 72  1  0
 28 73  1  0
 28 74  1  0
 28 75  1  0
 29 76  1  0
 29 77  1  0
 30 78  1  0
 30 79  1  0
 32 80  1  0
 32 81  1  0
 32 82  1  0
M  END
>  <meeko>  (2) 
{"is_sidechain": [false], "intermolecular_energy": 2.731, "internal_energy": -0.839}

$$$$
EPH_relaxed_0001_pdb2pqr_Repair_33_r2_0001_out
     RDKit          3D

 82 86  0  0  0  0  0  0  0  0999 V2000
    2.5330   17.9440   -2.5820 C   0  0  0  0  0  0  0  0  0  0  0  0
    1.1830   17.6210   -1.9350 C   0  0  2  0  0  0  0  0  0  0  0  0
    1.2420   17.7040   -0.3960 C   0  0  0  0  0  0  0  0  0  0  0  0
    0.9140   19.0930    0.1580 C   0  0  0  0  0  0  0  0  0  0  0  0
   -0.5300   19.2110    0.5400 C   0  0  2  0  0  0  0  0  0  0  0  0
   -1.3960   18.2580   -0.0890 O   0  0  0  0  0  0  0  0  0  0  0  0
   -1.6190   19.6360   -0.4270 C   0  0  0  0  0  0  0  0  0  0  0  0
   -1.3100   19.9720   -1.8520 C   0  0  0  0  0  0  0  0  0  0  0  0
   -2.8920   20.1940    0.1300 C   0  0  0  0  0  0  0  0  0  0  0  0
    0.7200   16.2330   -2.3640 C   0  0  1  0  0  0  0  0  0  0  0  0
    0.8280   16.0150   -3.8970 C   0  0  0  0  0  0  0  0  0  0  0  0
    1.2100   14.5280   -4.1110 C   0  0  0  0  0  0  0  0  0  0  0  0
    0.9860   13.8650   -2.7320 C   0  0  1  0  0  0  0  0  0  0  0  0
   -0.5490   13.5910   -2.6630 C   0  0  0  0  0  0  0  0  0  0  0  0
    1.8160   12.5720   -2.4430 C   0  0  2  0  0  0  0  0  0  0  0  0
    1.5270   11.3880   -3.3820 C   0  0  0  0  0  0  0  0  0  0  0  0
    0.4500   10.4600   -2.9260 C   0  0  0  0  0  0  0  0  0  0  0  0
   -0.0600   10.4060   -1.6820 C   0  0  0  0  0  0  0  0  0  0  0  0
    0.5170   11.2720   -0.5550 C   0  0  1  0  0  0  0  0  0  0  0  0
    0.7210   10.4030    0.7140 C   0  0  0  0  0  0  0  0  0  0  0  0
   -0.5520    9.6730    1.1330 C   0  0  0  0  0  0  0  0  0  0  0  0
   -1.0630    8.7780    0.0070 C   0  0  2  0  0  0  0  0  0  0  0  0
   -0.1230    7.7190   -0.2030 O   0  0  0  0  0  0  0  0  0  0  0  0
   -1.2960    9.5420   -1.3260 C   0  0  0  0  0  0  0  0  0  0  0  0
   -2.5190   10.4810   -1.1820 C   0  0  0  0  0  0  0  0  0  0  0  0
   -1.6730    8.5010   -2.4140 C   0  0  0  0  0  0  0  0  0  0  0  0
    1.8080   12.1210   -0.9260 C   0  0  1  0  0  0  0  0  0  0  0  0
    3.0910   11.2620   -0.7100 C   0  0  0  0  0  0  0  0  0  0  0  0
    1.9210   13.3430    0.0610 C   0  0  0  0  0  0  0  0  0  0  0  0
    1.1760   14.6310   -0.3390 C   0  0  0  0  0  0  0  0  0  0  0  0
    1.4880   15.0170   -1.7880 C   0  0  2  0  0  0  0  0  0  0  0  0
    3.0230   15.3200   -1.8820 C   0  0  0  0  0  0  0  0  0  0  0  0
    3.2823   18.1233   -1.7969 H   0  0  0  0  0  0  0  0  0  0  0  0
    2.8522   17.0969   -3.2069 H   0  0  0  0  0  0  0  0  0  0  0  0
    2.4342   18.8438   -3.2069 H   0  0  0  0  0  0  0  0  0  0  0  0
    0.4617   18.3768   -2.2792 H   0  0  0  0  0  0  0  0  0  0  0  0
    0.5198   16.9853    0.0186 H   0  0  0  0  0  0  0  0  0  0  0  0
    2.2769   17.4762   -0.1010 H   0  0  0  0  0  0  0  0  0  0  0  0
    1.5342   19.2775    1.0476 H   0  0  0  0  0  0  0  0  0  0  0  0
    1.1221   19.8335   -0.6284 H   0  0  0  0  0  0  0  0  0  0  0  0
   -0.2590   19.5616    1.5468 H   0  0  0  0  0  0  0  0  0  0  0  0
   -0.5657   20.7813   -1.8848 H   0  0  0  0  0  0  0  0  0  0  0  0
   -0.9075   19.0829   -2.3594 H   0  0  0  0  0  0  0  0  0  0  0  0
   -2.2296   20.2988   -2.3594 H   0  0  0  0  0  0  0  0  0  0  0  0
   -2.8504   20.1758    1.2291 H   0  0  0  0  0  0  0  0  0  0  0  0
   -3.0198   21.2307   -0.2149 H   0  0  0  0  0  0  0  0  0  0  0  0
   -3.7410   19.5855   -0.2149 H   0  0  0  0  0  0  0  0  0  0  0  0
   -0.3064   16.2508   -1.9689 H   0  0  0  0  0  0  0  0  0  0  0  0
   -0.1366   16.2316   -4.3794 H   0  0  0  0  0  0  0  0  0  0  0  0
    1.5810   16.6840   -4.3392 H   0  0  0  0  0  0  0  0  0  0  0  0
    0.5643   14.0670   -4.8729 H   0  0  0  0  0  0  0  0  0  0  0  0
    2.2440   14.4102   -4.4673 H   0  0  0  0  0  0  0  0  0  0  0  0
   -0.8645   13.5347   -1.6107 H   0  0  0  0  0  0  0  0  0  0  0  0
   -1.0900   14.4068   -3.1648 H   0  0  0  0  0  0  0  0  0  0  0  0
   -0.7744   12.6384   -3.1648 H   0  0  0  0  0  0  0  0  0  0  0  0
    2.8419   12.8944   -2.6745 H   0  0  0  0  0  0  0  0  0  0  0  0
    1.2332   11.7946   -4.3610 H   0  0  0  0  0  0  0  0  0  0  0  0
    2.4504   10.7910   -3.4117 H   0  0  0  0  0  0  0  0  0  0  0  0
    0.0388    9.7616   -3.6697 H   0  0  0  0  0  0  0  0  0  0  0  0
   -0.2330   12.0518   -0.3565 H   0  0  0  0  0  0  0  0  0  0  0  0
    1.5038    9.6579    0.5092 H   0  0  0  0  0  0  0  0  0  0  0  0
    1.0074   11.0747    1.5367 H   0  0  0  0  0  0  0  0  0  0  0  0
   -0.3376    9.0534    2.0163 H   0  0  0  0  0  0  0  0  0  0  0  0
   -1.3249   10.4202    1.3659 H   0  0  0  0  0  0  0  0  0  0  0  0
   -2.0422    8.3845    0.3175 H   0  0  0  0  0  0  0  0  0  0  0  0
   -0.2350    7.0800    0.5210 H   0  0  0  0  0  0  0  0  0  0  0  0
   -2.7321   10.6446   -0.1153 H   0  0  0  0  0  0  0  0  0  0  0  0
   -2.2999   11.4451   -1.6642 H   0  0  0  0  0  0  0  0  0  0  0  0
   -3.3938   10.0203   -1.6642 H   0  0  0  0  0  0  0  0  0  0  0  0
   -2.0096    7.5716   -1.9313 H   0  0  0  0  0  0  0  0  0  0  0  0
   -2.4828    8.9027   -3.0409 H   0  0  0  0  0  0  0  0  0  0  0  0
   -0.7938    8.2910   -3.0409 H   0  0  0  0  0  0  0  0  0  0  0  0
    3.2733   11.1399    0.3679 H   0  0  0  0  0  0  0  0  0  0  0  0
    2.9528   10.2737   -1.1727 H   0  0  0  0  0  0  0  0  0  0  0  0
    3.9521   11.7663   -1.1727 H   0  0  0  0  0  0  0  0  0  0  0  0
    1.5276   13.0204    1.0363 H   0  0  0  0  0  0  0  0  0  0  0  0
    2.9868   13.6153    0.0607 H   0  0  0  0  0  0  0  0  0  0  0  0
    0.0932   14.4674   -0.2353 H   0  0  0  0  0  0  0  0  0  0  0  0
    1.5069   15.4469    0.3204 H   0  0  0  0  0  0  0  0  0  0  0  0
    3.4431   15.4029   -0.8688 H   0  0  0  0  0  0  0  0  0  0  0  0
    3.5255   14.5037   -2.4216 H   0  0  0  0  0  0  0  0  0  0  0  0
    3.1776   16.2660   -2.4216 H   0  0  0  0  0  0  0  0  0  0  0  0
  1  2  1  0
  2  3  1  0
  3  4  1  0
  4  5  1  0
  5  6  1  0
  6  7  1  0
  7  8  1  0
  7  9  1  0
  2 10  1  0
 10 11  1  0
 11 12  1  0
 12 13  1  0
 13 14  1  1
 13 15  1  0
 15 16  1  0
 16 17  1  0
 17 18  2  0
 18 19  1  0
 19 20  1  0
 20 21  1  0
 21 22  1  0
 22 23  1  0
 22 24  1  0
 24 25  1  0
 24 26  1  0
 19 27  1  0
 27 28  1  6
 27 29  1  0
 29 30  1  0
 30 31  1  0
 31 32  1  1
  7  5  1  0
 31 10  1  0
 31 13  1  0
 27 15  1  0
 24 18  1  0
  1 33  1  0
  1 34  1  0
  1 35  1  0
  2 36  1  6
  3 37  1  0
  3 38  1  0
  4 39  1  0
  4 40  1  0
  5 41  1  1
  8 42  1  0
  8 43  1  0
  8 44  1  0
  9 45  1  0
  9 46  1  0
  9 47  1  0
 10 48  1  1
 11 49  1  0
 11 50  1  0
 12 51  1  0
 12 52  1  0
 14 53  1  0
 14 54  1  0
 14 55  1  0
 15 56  1  6
 16 57  1  0
 16 58  1  0
 17 59  1  0
 19 60  1  1
 20 61  1  0
 20 62  1  0
 21 63  1  0
 21 64  1  0
 22 65  1  1
 23 66  1  0
 25 67  1  0
 25 68  1  0
 25 69  1  0
 26 70  1  0
 26 71  1  0
 26 72  1  0
 28 73  1  0
 28 74  1  0
 28 75  1  0
 29 76  1  0
 29 77  1  0
 30 78  1  0
 30 79  1  0
 32 80  1  0
 32 81  1  0
 32 82  1  0
M  END
>  <meeko>  (3) 
{"is_sidechain": [false], "intermolecular_energy": 2.731, "internal_energy": -0.839}

$$$$
EPH_relaxed_0001_pdb2pqr_Repair_33_r2_0001_out
     RDKit          3D

 82 86  0  0  0  0  0  0  0  0999 V2000
    0.4250   18.4280   -0.0400 C   0  0  0  0  0  0  0  0  0  0  0  0
    1.5070   17.3650   -0.2450 C   0  0  2  0  0  0  0  0  0  0  0  0
    2.7290   17.9180   -1.0060 C   0  0  0  0  0  0  0  0  0  0  0  0
    3.9630   18.1210   -0.1240 C   0  0  0  0  0  0  0  0  0  0  0  0
    3.5920   18.5860    1.2510 C   0  0  2  0  0  0  0  0  0  0  0  0
    3.8290   19.9780    1.4970 O   0  0  0  0  0  0  0  0  0  0  0  0
    4.6060   19.0560    2.2780 C   0  0  0  0  0  0  0  0  0  0  0  0
    6.0700   19.0830    1.9720 C   0  0  0  0  0  0  0  0  0  0  0  0
    4.2260   19.0230    3.7250 C   0  0  0  0  0  0  0  0  0  0  0  0
    0.9260   16.1690   -0.9910 C   0  0  1  0  0  0  0  0  0  0  0  0
    0.7860   16.4270   -2.5150 C   0  0  0  0  0  0  0  0  0  0  0  0
    1.0690   15.0780   -3.2250 C   0  0  0  0  0  0  0  0  0  0  0  0
    1.0330   14.0260   -2.0920 C   0  0  1  0  0  0  0  0  0  0  0  0
   -0.4830   13.7330   -1.8640 C   0  0  0  0  0  0  0  0  0  0  0  0
    1.8440   12.7130   -2.3430 C   0  0  2  0  0  0  0  0  0  0  0  0
    1.3640   11.8680   -3.5350 C   0  0  0  0  0  0  0  0  0  0  0  0
    0.3340   10.8370   -3.2130 C   0  0  0  0  0  0  0  0  0  0  0  0
    0.0210   10.4040   -1.9770 C   0  0  0  0  0  0  0  0  0  0  0  0
    0.8010   10.8920   -0.7500 C   0  0  1  0  0  0  0  0  0  0  0  0
    1.1630    9.6800    0.1490 C   0  0  0  0  0  0  0  0  0  0  0  0
   -0.0590    8.8480    0.5280 C   0  0  0  0  0  0  0  0  0  0  0  0
   -0.7750    8.3330   -0.7180 C   0  0  2  0  0  0  0  0  0  0  0  0
    0.0760    7.3950   -1.3840 O   0  0  0  0  0  0  0  0  0  0  0  0
   -1.1790    9.4640   -1.7040 C   0  0  0  0  0  0  0  0  0  0  0  0
   -2.3260   10.3040   -1.0900 C   0  0  0  0  0  0  0  0  0  0  0  0
   -1.7640    8.7990   -2.9800 C   0  0  0  0  0  0  0  0  0  0  0  0
    2.0530   11.8240   -1.0500 C   0  0  1  0  0  0  0  0  0  0  0  0
    3.3170   10.9490   -1.3120 C   0  0  0  0  0  0  0  0  0  0  0  0
    2.3680   12.6890    0.2270 C   0  0  0  0  0  0  0  0  0  0  0  0
    1.6240   14.0310    0.3580 C   0  0  0  0  0  0  0  0  0  0  0  0
    1.7230   14.8420   -0.9380 C   0  0  2  0  0  0  0  0  0  0  0  0
    3.2360   15.1710   -1.1820 C   0  0  0  0  0  0  0  0  0  0  0  0
    0.2649   18.5853    1.0369 H   0  0  0  0  0  0  0  0  0  0  0  0
    0.7457   19.3720   -0.5048 H   0  0  0  0  0  0  0  0  0  0  0  0
   -0.5132   18.0906   -0.5048 H   0  0  0  0  0  0  0  0  0  0  0  0
    1.8536   17.0500    0.7503 H   0  0  0  0  0  0  0  0  0  0  0  0
    2.9878   17.2109   -1.8079 H   0  0  0  0  0  0  0  0  0  0  0  0
    2.4451   18.9073   -1.3941 H   0  0  0  0  0  0  0  0  0  0  0  0
    4.5043   17.1668   -0.0435 H   0  0  0  0  0  0  0  0  0  0  0  0
    4.5927   18.8940   -0.5887 H   0  0  0  0  0  0  0  0  0  0  0  0
    2.7744   17.8520    1.3036 H   0  0  0  0  0  0  0  0  0  0  0  0
    6.6410   19.0935    2.9122 H   0  0  0  0  0  0  0  0  0  0  0  0
    6.3394   18.1897    1.3894 H   0  0  0  0  0  0  0  0  0  0  0  0
    6.3062   19.9857    1.3894 H   0  0  0  0  0  0  0  0  0  0  0  0
    5.1320   19.1017    4.3439 H   0  0  0  0  0  0  0  0  0  0  0  0
    3.5556   19.8663    3.9474 H   0  0  0  0  0  0  0  0  0  0  0  0
    3.7111   18.0768    3.9474 H   0  0  0  0  0  0  0  0  0  0  0  0
   -0.0251   16.0581   -0.4497 H   0  0  0  0  0  0  0  0  0  0  0  0
   -0.2320   16.7719   -2.7488 H   0  0  0  0  0  0  0  0  0  0  0  0
    1.4882   17.2046   -2.8501 H   0  0  0  0  0  0  0  0  0  0  0  0
    0.2952   14.8652   -3.9773 H   0  0  0  0  0  0  0  0  0  0  0  0
    2.0299   15.0818   -3.7604 H   0  0  0  0  0  0  0  0  0  0  0  0
   -0.6904   13.6929   -0.7845 H   0  0  0  0  0  0  0  0  0  0  0  0
   -1.0839   14.5316   -2.3234 H   0  0  0  0  0  0  0  0  0  0  0  0
   -0.7431   12.7680   -2.3234 H   0  0  0  0  0  0  0  0  0  0  0  0
    2.8340   13.0973   -2.6296 H   0  0  0  0  0  0  0  0  0  0  0  0
    0.9386   12.5503   -4.2857 H   0  0  0  0  0  0  0  0  0  0  0  0
    2.2462   11.3155   -3.8907 H   0  0  0  0  0  0  0  0  0  0  0  0
   -0.2157   10.3935   -4.0563 H   0  0  0  0  0  0  0  0  0  0  0  0
    0.1240   11.5695   -0.2090 H   0  0  0  0  0  0  0  0  0  0  0  0
    1.8725    9.0379   -0.3934 H   0  0  0  0  0  0  0  0  0  0  0  0
    1.6016   10.0723    1.0784 H   0  0  0  0  0  0  0  0  0  0  0  0
    0.2636    7.9913    1.1379 H   0  0  0  0  0  0  0  0  0  0  0  0
   -0.7546    9.4835    1.0957 H   0  0  0  0  0  0  0  0  0  0  0  0
   -1.7099    7.8565   -0.3880 H   0  0  0  0  0  0  0  0  0  0  0  0
   -0.3780    7.1100   -2.1950 H   0  0  0  0  0  0  0  0  0  0  0  0
   -2.2658   10.2599    0.0075 H   0  0  0  0  0  0  0  0  0  0  0  0
   -2.2328   11.3490   -1.4207 H   0  0  0  0  0  0  0  0  0  0  0  0
   -3.2941    9.8998   -1.4207 H   0  0  0  0  0  0  0  0  0  0  0  0
   -2.4648    8.0023   -2.6898 H   0  0  0  0  0  0  0  0  0  0  0  0
   -2.2951    9.5551   -3.5769 H   0  0  0  0  0  0  0  0  0  0  0  0
   -0.9464    8.3686   -3.5769 H   0  0  0  0  0  0  0  0  0  0  0  0
    3.7575   10.6441   -0.3513 H   0  0  0  0  0  0  0  0  0  0  0  0
    3.0314   10.0544   -1.8848 H   0  0  0  0  0  0  0  0  0  0  0  0
    4.0538   11.5313   -1.8848 H   0  0  0  0  0  0  0  0  0  0  0  0
    2.1178   12.0823    1.1098 H   0  0  0  0  0  0  0  0  0  0  0  0
    3.4311   12.9570    0.1378 H   0  0  0  0  0  0  0  0  0  0  0  0
    0.5646   13.8349    0.5797 H   0  0  0  0  0  0  0  0  0  0  0  0
    2.0866   14.6105    1.1705 H   0  0  0  0  0  0  0  0  0  0  0  0
    3.7477   15.2823   -0.2146 H   0  0  0  0  0  0  0  0  0  0  0  0
    3.7019   14.3532   -1.7513 H   0  0  0  0  0  0  0  0  0  0  0  0
    3.3202   16.1084   -1.7513 H   0  0  0  0  0  0  0  0  0  0  0  0
  1  2  1  0
  2  3  1  0
  3  4  1  0
  4  5  1  0
  5  6  1  0
  6  7  1  0
  7  8  1  0
  7  9  1  0
  2 10  1  0
 10 11  1  0
 11 12  1  0
 12 13  1  0
 13 14  1  1
 13 15  1  0
 15 16  1  0
 16 17  1  0
 17 18  2  0
 18 19  1  0
 19 20  1  0
 20 21  1  0
 21 22  1  0
 22 23  1  0
 22 24  1  0
 24 25  1  0
 24 26  1  0
 19 27  1  0
 27 28  1  6
 27 29  1  0
 29 30  1  0
 30 31  1  0
 31 32  1  6
  7  5  1  0
 31 10  1  0
 31 13  1  0
 27 15  1  0
 24 18  1  0
  1 33  1  0
  1 34  1  0
  1 35  1  0
  2 36  1  1
  3 37  1  0
  3 38  1  0
  4 39  1  0
  4 40  1  0
  5 41  1  1
  8 42  1  0
  8 43  1  0
  8 44  1  0
  9 45  1  0
  9 46  1  0
  9 47  1  0
 10 48  1  1
 11 49  1  0
 11 50  1  0
 12 51  1  0
 12 52  1  0
 14 53  1  0
 14 54  1  0
 14 55  1  0
 15 56  1  6
 16 57  1  0
 16 58  1  0
 17 59  1  0
 19 60  1  1
 20 61  1  0
 20 62  1  0
 21 63  1  0
 21 64  1  0
 22 65  1  1
 23 66  1  0
 25 67  1  0
 25 68  1  0
 25 69  1  0
 26 70  1  0
 26 71  1  0
 26 72  1  0
 28 73  1  0
 28 74  1  0
 28 75  1  0
 29 76  1  0
 29 77  1  0
 30 78  1  0
 30 79  1  0
 32 80  1  0
 32 81  1  0
 32 82  1  0
M  END
>  <meeko>  (4) 
{"is_sidechain": [false], "intermolecular_energy": 2.731, "internal_energy": -0.839}

$$$$
EPH_relaxed_0001_pdb2pqr_Repair_33_r2_0001_out
     RDKit          3D

 82 86  0  0  0  0  0  0  0  0999 V2000
    3.7340   17.6960    0.5670 C   0  0  0  0  0  0  0  0  0  0  0  0
    2.7950   18.0240   -0.5970 C   0  0  2  0  0  0  0  0  0  0  0  0
    2.1280   19.4040   -0.4340 C   0  0  0  0  0  0  0  0  0  0  0  0
    1.2360   19.5140    0.8060 C   0  0  0  0  0  0  0  0  0  0  0  0
   -0.0960   20.1190    0.4790 C   0  0  2  0  0  0  0  0  0  0  0  0
   -1.0100   20.1840    1.5810 O   0  0  0  0  0  0  0  0  0  0  0  0
   -1.3950   19.3360    0.4870 C   0  0  0  0  0  0  0  0  0  0  0  0
   -1.4260   17.8790    0.8280 C   0  0  0  0  0  0  0  0  0  0  0  0
   -2.5520   19.8610   -0.3050 C   0  0  0  0  0  0  0  0  0  0  0  0
    1.7290   16.9410   -0.7250 C   0  0  1  0  0  0  0  0  0  0  0  0
    0.4780   17.4250   -1.5050 C   0  0  0  0  0  0  0  0  0  0  0  0
   -0.0460   16.2070   -2.3090 C   0  0  0  0  0  0  0  0  0  0  0  0
    0.7100   14.9940   -1.7170 C   0  0  1  0  0  0  0  0  0  0  0  0
   -0.0730   14.6310   -0.4160 C   0  0  0  0  0  0  0  0  0  0  0  0
    0.8740   13.7560   -2.6570 C   0  0  2  0  0  0  0  0  0  0  0  0
   -0.4430   13.0900   -3.0940 C   0  0  0  0  0  0  0  0  0  0  0  0
   -0.9310   11.9960   -2.2040 C   0  0  0  0  0  0  0  0  0  0  0  0
   -0.2010   11.3720   -1.2600 C   0  0  0  0  0  0  0  0  0  0  0  0
    1.2890   11.6870   -1.0800 C   0  0  1  0  0  0  0  0  0  0  0  0
    2.0880   10.3630   -0.9590 C   0  0  0  0  0  0  0  0  0  0  0  0
    1.5470    9.4510    0.1380 C   0  0  0  0  0  0  0  0  0  0  0  0
    0.0790    9.1140   -0.1070 C   0  0  2  0  0  0  0  0  0  0  0  0
   -0.0180    8.3100   -1.2870 O   0  0  0  0  0  0  0  0  0  0  0  0
   -0.8230   10.3710   -0.2550 C   0  0  0  0  0  0  0  0  0  0  0  0
   -0.9580   11.0790    1.1160 C   0  0  0  0  0  0  0  0  0  0  0  0
   -2.2490    9.8930   -0.6390 C   0  0  0  0  0  0  0  0  0  0  0  0
    1.9200   12.6860   -2.1430 C   0  0  1  0  0  0  0  0  0  0  0  0
    2.4000   11.8940   -3.3980 C   0  0  0  0  0  0  0  0  0  0  0  0
    3.2030   13.3540   -1.5220 C   0  0  0  0  0  0  0  0  0  0  0  0
    2.9890   14.6420   -0.7040 C   0  0  0  0  0  0  0  0  0  0  0  0
    2.1210   15.6420   -1.4720 C   0  0  2  0  0  0  0  0  0  0  0  0
    2.8930   16.0430   -2.7750 C   0  0  0  0  0  0  0  0  0  0  0  0
    3.2145   17.8775    1.5195 H   0  0  0  0  0  0  0  0  0  0  0  0
    4.0349   16.6395    0.5089 H   0  0  0  0  0  0  0  0  0  0  0  0
    4.6272   18.3353    0.5089 H   0  0  0  0  0  0  0  0  0  0  0  0
    3.4025   18.0581   -1.5134 H   0  0  0  0  0  0  0  0  0  0  0  0
    2.9185   20.1655   -0.3618 H   0  0  0  0  0  0  0  0  0  0  0  0
    1.4801   19.5534   -1.3103 H   0  0  0  0  0  0  0  0  0  0  0  0
    1.0781   18.5080    1.2219 H   0  0  0  0  0  0  0  0  0  0  0  0
    1.7398   20.1670    1.5339 H   0  0  0  0  0  0  0  0  0  0  0  0
    0.3619   20.7802   -0.2714 H   0  0  0  0  0  0  0  0  0  0  0  0
   -1.4286   17.7583    1.9214 H   0  0  0  0  0  0  0  0  0  0  0  0
   -2.3340   17.4230    0.4066 H   0  0  0  0  0  0  0  0  0  0  0  0
   -0.5382   17.3848    0.4066 H   0  0  0  0  0  0  0  0  0  0  0  0
   -3.3349   20.2163    0.3811 H   0  0  0  0  0  0  0  0  0  0  0  0
   -2.2144   20.6941   -0.9390 H   0  0  0  0  0  0  0  0  0  0  0  0
   -2.9567   19.0583   -0.9390 H   0  0  0  0  0  0  0  0  0  0  0  0
    1.5567   16.7243    0.3396 H   0  0  0  0  0  0  0  0  0  0  0  0
   -0.2933   17.7763   -0.8038 H   0  0  0  0  0  0  0  0  0  0  0  0
    0.7284   18.2618   -2.1736 H   0  0  0  0  0  0  0  0  0  0  0  0
   -1.1316   16.0911   -2.1748 H   0  0  0  0  0  0  0  0  0  0  0  0
    0.1234   16.3169   -3.3903 H   0  0  0  0  0  0  0  0  0  0  0  0
    0.5272   14.9092    0.4628 H   0  0  0  0  0  0  0  0  0  0  0  0
   -1.0267   15.1788   -0.3971 H   0  0  0  0  0  0  0  0  0  0  0  0
   -0.2712   13.5492   -0.3971 H   0  0  0  0  0  0  0  0  0  0  0  0
    1.2983   14.2051   -3.5671 H   0  0  0  0  0  0  0  0  0  0  0  0
   -1.2200   13.8676   -3.1339 H   0  0  0  0  0  0  0  0  0  0  0  0
   -0.2380   12.6210   -4.0677 H   0  0  0  0  0  0  0  0  0  0  0  0
   -1.9747   11.6721   -2.3297 H   0  0  0  0  0  0  0  0  0  0  0  0
    1.3678   12.2569   -0.1424 H   0  0  0  0  0  0  0  0  0  0  0  0
    2.0339    9.8296   -1.9195 H   0  0  0  0  0  0  0  0  0  0  0  0
    3.1246   10.6215   -0.6971 H   0  0  0  0  0  0  0  0  0  0  0  0
    2.1324    8.5198    0.1531 H   0  0  0  0  0  0  0  0  0  0  0  0
    1.6308    9.9739    1.1021 H   0  0  0  0  0  0  0  0  0  0  0  0
   -0.2862    8.5696    0.7763 H   0  0  0  0  0  0  0  0  0  0  0  0
    0.7560    8.5080   -1.8420 H   0  0  0  0  0  0  0  0  0  0  0  0
   -0.8180   10.3449    1.9231 H   0  0  0  0  0  0  0  0  0  0  0  0
   -0.1937   11.8657    1.1993 H   0  0  0  0  0  0  0  0  0  0  0  0
   -1.9582   11.5292    1.1993 H   0  0  0  0  0  0  0  0  0  0  0  0
   -2.8291    9.6985    0.2751 H   0  0  0  0  0  0  0  0  0  0  0  0
   -2.7497   10.6724   -1.2321 H   0  0  0  0  0  0  0  0  0  0  0  0
   -2.1788    8.9693   -1.2321 H   0  0  0  0  0  0  0  0  0  0  0  0
    2.9454   10.9942   -3.0772 H   0  0  0  0  0  0  0  0  0  0  0  0
    1.5285   11.5991   -4.0009 H   0  0  0  0  0  0  0  0  0  0  0  0
    3.0647   12.5301   -4.0009 H   0  0  0  0  0  0  0  0  0  0  0  0
    3.6760   12.6140   -0.8597 H   0  0  0  0  0  0  0  0  0  0  0  0
    3.8146   13.6588   -2.3840 H   0  0  0  0  0  0  0  0  0  0  0  0
    2.4919   14.3878    0.2437 H   0  0  0  0  0  0  0  0  0  0  0  0
    3.9694   15.1030   -0.5135 H   0  0  0  0  0  0  0  0  0  0  0  0
    3.8391   16.5344   -2.5041 H   0  0  0  0  0  0  0  0  0  0  0  0
    3.1050   15.1410   -3.3679 H   0  0  0  0  0  0  0  0  0  0  0  0
    2.2770   16.7351   -3.3679 H   0  0  0  0  0  0  0  0  0  0  0  0
  1  2  1  0
  2  3  1  0
  3  4  1  0
  4  5  1  0
  5  6  1  0
  6  7  1  0
  7  8  1  0
  7  9  1  0
  2 10  1  0
 10 11  1  0
 11 12  1  0
 12 13  1  0
 13 14  1  1
 13 15  1  0
 15 16  1  0
 16 17  1  0
 17 18  2  0
 18 19  1  0
 19 20  1  0
 20 21  1  0
 21 22  1  0
 22 23  1  0
 22 24  1  0
 24 25  1  0
 24 26  1  0
 19 27  1  0
 27 28  1  6
 27 29  1  0
 29 30  1  0
 30 31  1  0
 31 32  1  6
  7  5  1  0
 31 10  1  0
 31 13  1  0
 27 15  1  0
 24 18  1  0
  1 33  1  0
  1 34  1  0
  1 35  1  0
  2 36  1  6
  3 37  1  0
  3 38  1  0
  4 39  1  0
  4 40  1  0
  5 41  1  6
  8 42  1  0
  8 43  1  0
  8 44  1  0
  9 45  1  0
  9 46  1  0
  9 47  1  0
 10 48  1  1
 11 49  1  0
 11 50  1  0
 12 51  1  0
 12 52  1  0
 14 53  1  0
 14 54  1  0
 14 55  1  0
 15 56  1  6
 16 57  1  0
 16 58  1  0
 17 59  1  0
 19 60  1  1
 20 61  1  0
 20 62  1  0
 21 63  1  0
 21 64  1  0
 22 65  1  1
 23 66  1  0
 25 67  1  0
 25 68  1  0
 25 69  1  0
 26 70  1  0
 26 71  1  0
 26 72  1  0
 28 73  1  0
 28 74  1  0
 28 75  1  0
 29 76  1  0
 29 77  1  0
 30 78  1  0
 30 79  1  0
 32 80  1  0
 32 81  1  0
 32 82  1  0
M  END
>  <meeko>  (5) 
{"is_sidechain": [false], "intermolecular_energy": 2.731, "internal_energy": -0.839}

$$$$
EPH_relaxed_0001_pdb2pqr_Repair_33_r2_0001_out
     RDKit          3D

 82 86  0  0  0  0  0  0  0  0999 V2000
    0.4280    8.7920   -2.3550 C   0  0  0  0  0  0  0  0  0  0  0  0
    1.1610    9.9340   -3.0650 C   0  0  2  0  0  0  0  0  0  0  0  0
    2.6650    9.9570   -2.7260 C   0  0  0  0  0  0  0  0  0  0  0  0
    3.5300   10.6030   -3.8120 C   0  0  0  0  0  0  0  0  0  0  0  0
    4.9290   10.8470   -3.3330 C   0  0  2  0  0  0  0  0  0  0  0  0
    5.5330   12.0470   -3.8350 O   0  0  0  0  0  0  0  0  0  0  0  0
    6.1430   10.8110   -4.2430 C   0  0  0  0  0  0  0  0  0  0  0  0
    6.0130   10.5230   -5.7060 C   0  0  0  0  0  0  0  0  0  0  0  0
    7.4890   10.5730   -3.6320 C   0  0  0  0  0  0  0  0  0  0  0  0
    0.5240   11.2690   -2.6970 C   0  0  1  0  0  0  0  0  0  0  0  0
   -0.8510   11.1020   -1.9960 C   0  0  0  0  0  0  0  0  0  0  0  0
   -0.9620   12.2430   -0.9530 C   0  0  0  0  0  0  0  0  0  0  0  0
    0.1870   13.2140   -1.3120 C   0  0  1  0  0  0  0  0  0  0  0  0
   -0.3660   14.0700   -2.4940 C   0  0  0  0  0  0  0  0  0  0  0  0
    0.7220   14.1120   -0.1490 C   0  0  2  0  0  0  0  0  0  0  0  0
   -0.3060   15.0900    0.4450 C   0  0  0  0  0  0  0  0  0  0  0  0
   -0.3510   16.4370   -0.1980 C   0  0  0  0  0  0  0  0  0  0  0  0
    0.5880   16.9440   -1.0180 C   0  0  0  0  0  0  0  0  0  0  0  0
    1.8880   16.1780   -1.2950 C   0  0  1  0  0  0  0  0  0  0  0  0
    3.0950   17.1450   -1.1710 C   0  0  0  0  0  0  0  0  0  0  0  0
    2.9470   18.3820   -2.0510 C   0  0  0  0  0  0  0  0  0  0  0  0
    1.6730   19.1480   -1.7060 C   0  0  2  0  0  0  0  0  0  0  0  0
    1.8040   19.6890   -0.3870 O   0  0  0  0  0  0  0  0  0  0  0  0
    0.3910   18.2730   -1.7870 C   0  0  0  0  0  0  0  0  0  0  0  0
    0.0830   17.9370   -3.2670 C   0  0  0  0  0  0  0  0  0  0  0  0
   -0.8020   19.1270   -1.2790 C   0  0  0  0  0  0  0  0  0  0  0  0
    2.0920   14.8370   -0.4680 C   0  0  1  0  0  0  0  0  0  0  0  0
    2.7570   15.1550    0.9060 C   0  0  0  0  0  0  0  0  0  0  0  0
    3.0970   13.9030   -1.2420 C   0  0  0  0  0  0  0  0  0  0  0  0
    2.4930   12.9540   -2.2940 C   0  0  0  0  0  0  0  0  0  0  0  0
    1.3020   12.1820   -1.7170 C   0  0  2  0  0  0  0  0  0  0  0  0
    1.8320   11.2940   -0.5400 C   0  0  0  0  0  0  0  0  0  0  0  0
    0.5122    8.9232   -1.2661 H   0  0  0  0  0  0  0  0  0  0  0  0
   -0.6332    8.8014   -2.6445 H   0  0  0  0  0  0  0  0  0  0  0  0
    0.8785    7.8311   -2.6445 H   0  0  0  0  0  0  0  0  0  0  0  0
    1.0686    9.7641   -4.1479 H   0  0  0  0  0  0  0  0  0  0  0  0
    2.8020   10.5209   -1.7915 H   0  0  0  0  0  0  0  0  0  0  0  0
    2.9906    8.9102   -2.6355 H   0  0  0  0  0  0  0  0  0  0  0  0
    3.5635    9.9352   -4.6855 H   0  0  0  0  0  0  0  0  0  0  0  0
    3.0831   11.5731   -4.0749 H   0  0  0  0  0  0  0  0  0  0  0  0
    4.7115   10.3554   -2.3733 H   0  0  0  0  0  0  0  0  0  0  0  0
    5.5641    9.5285   -5.8455 H   0  0  0  0  0  0  0  0  0  0  0  0
    5.3711   11.2839   -6.1739 H   0  0  0  0  0  0  0  0  0  0  0  0
    7.0083   10.5449   -6.1739 H   0  0  0  0  0  0  0  0  0  0  0  0
    7.4019   10.5884   -2.5356 H   0  0  0  0  0  0  0  0  0  0  0  0
    7.8706    9.5934   -3.9558 H   0  0  0  0  0  0  0  0  0  0  0  0
    8.1834   11.3623   -3.9558 H   0  0  0  0  0  0  0  0  0  0  0  0
    0.4833   11.7345   -3.6928 H   0  0  0  0  0  0  0  0  0  0  0  0
   -1.6640   11.1816   -2.7327 H   0  0  0  0  0  0  0  0  0  0  0  0
   -0.9317   10.1166   -1.5138 H   0  0  0  0  0  0  0  0  0  0  0  0
   -1.9360   12.7480   -1.0323 H   0  0  0  0  0  0  0  0  0  0  0  0
   -0.8870   11.8723    0.0799 H   0  0  0  0  0  0  0  0  0  0  0  0
   -0.9221   14.9309   -2.0945 H   0  0  0  0  0  0  0  0  0  0  0  0
    0.4716   14.4286   -3.1103 H   0  0  0  0  0  0  0  0  0  0  0  0
   -1.0372   13.4539   -3.1103 H   0  0  0  0  0  0  0  0  0  0  0  0
    0.9269   13.3763    0.6427 H   0  0  0  0  0  0  0  0  0  0  0  0
   -1.3028   14.6346    0.3499 H   0  0  0  0  0  0  0  0  0  0  0  0
    0.0031   15.2605    1.4868 H   0  0  0  0  0  0  0  0  0  0  0  0
   -1.2258   17.0684    0.0168 H   0  0  0  0  0  0  0  0  0  0  0  0
    1.8100   15.8095   -2.3285 H   0  0  0  0  0  0  0  0  0  0  0  0
    3.1828   17.4666   -0.1227 H   0  0  0  0  0  0  0  0  0  0  0  0
    3.9922   16.6033   -1.5051 H   0  0  0  0  0  0  0  0  0  0  0  0
    3.8153   19.0395   -1.8966 H   0  0  0  0  0  0  0  0  0  0  0  0
    2.8896   18.0606   -3.1014 H   0  0  0  0  0  0  0  0  0  0  0  0
    1.5550   19.9464   -2.4534 H   0  0  0  0  0  0  0  0  0  0  0  0
    2.7480   19.8590   -0.2320 H   0  0  0  0  0  0  0  0  0  0  0  0
   -0.6597   17.1268   -3.3122 H   0  0  0  0  0  0  0  0  0  0  0  0
   -0.3171   18.8297   -3.7701 H   0  0  0  0  0  0  0  0  0  0  0  0
    1.0070   17.6159   -3.7701 H   0  0  0  0  0  0  0  0  0  0  0  0
   -0.8078   19.1312   -0.1790 H   0  0  0  0  0  0  0  0  0  0  0  0
   -0.6989   20.1578   -1.6490 H   0  0  0  0  0  0  0  0  0  0  0  0
   -1.7445   18.6971   -1.6490 H   0  0  0  0  0  0  0  0  0  0  0  0
    2.0889   14.8355    1.7194 H   0  0  0  0  0  0  0  0  0  0  0  0
    3.7131   14.6166    0.9840 H   0  0  0  0  0  0  0  0  0  0  0  0
    2.9381   16.2372    0.9840 H   0  0  0  0  0  0  0  0  0  0  0  0
    3.8241   14.5494   -1.7553 H   0  0  0  0  0  0  0  0  0  0  0  0
    3.5279   13.2443   -0.4736 H   0  0  0  0  0  0  0  0  0  0  0  0
    2.1546   13.5439   -3.1586 H   0  0  0  0  0  0  0  0  0  0  0  0
    3.2646   12.2317   -2.5988 H   0  0  0  0  0  0  0  0  0  0  0  0
    1.5567   11.7552    0.4200 H   0  0  0  0  0  0  0  0  0  0  0  0
    1.3845   10.2914   -0.6068 H   0  0  0  0  0  0  0  0  0  0  0  0
    2.9269   11.2120   -0.6068 H   0  0  0  0  0  0  0  0  0  0  0  0
  1  2  1  0
  2  3  1  0
  3  4  1  0
  4  5  1  0
  5  6  1  0
  6  7  1  0
  7  8  1  0
  7  9  1  0
  2 10  1  0
 10 11  1  0
 11 12  1  0
 12 13  1  0
 13 14  1  6
 13 15  1  0
 15 16  1  0
 16 17  1  0
 17 18  2  0
 18 19  1  0
 19 20  1  0
 20 21  1  0
 21 22  1  0
 22 23  1  0
 22 24  1  0
 24 25  1  0
 24 26  1  0
 19 27  1  0
 27 28  1  1
 27 29  1  0
 29 30  1  0
 30 31  1  0
 31 32  1  1
  7  5  1  0
 31 10  1  0
 31 13  1  0
 27 15  1  0
 24 18  1  0
  1 33  1  0
  1 34  1  0
  1 35  1  0
  2 36  1  6
  3 37  1  0
  3 38  1  0
  4 39  1  0
  4 40  1  0
  5 41  1  1
  8 42  1  0
  8 43  1  0
  8 44  1  0
  9 45  1  0
  9 46  1  0
  9 47  1  0
 10 48  1  6
 11 49  1  0
 11 50  1  0
 12 51  1  0
 12 52  1  0
 14 53  1  0
 14 54  1  0
 14 55  1  0
 15 56  1  1
 16 57  1  0
 16 58  1  0
 17 59  1  0
 19 60  1  6
 20 61  1  0
 20 62  1  0
 21 63  1  0
 21 64  1  0
 22 65  1  6
 23 66  1  0
 25 67  1  0
 25 68  1  0
 25 69  1  0
 26 70  1  0
 26 71  1  0
 26 72  1  0
 28 73  1  0
 28 74  1  0
 28 75  1  0
 29 76  1  0
 29 77  1  0
 30 78  1  0
 30 79  1  0
 32 80  1  0
 32 81  1  0
 32 82  1  0
M  END
>  <meeko>  (6) 
{"is_sidechain": [false], "intermolecular_energy": 2.731, "internal_energy": -0.839}

$$$$
EPH_relaxed_0001_pdb2pqr_Repair_33_r2_0001_out
     RDKit          3D

 82 86  0  0  0  0  0  0  0  0999 V2000
    2.7660   19.0810   -2.3290 C   0  0  0  0  0  0  0  0  0  0  0  0
    1.7920   19.1750   -1.1510 C   0  0  2  0  0  0  0  0  0  0  0  0
    2.3740   19.9950    0.0180 C   0  0  0  0  0  0  0  0  0  0  0  0
    3.2380   19.1720    0.9780 C   0  0  0  0  0  0  0  0  0  0  0  0
    3.7550   20.0050    2.1110 C   0  0  2  0  0  0  0  0  0  0  0  0
    5.1770   20.1850    2.1210 O   0  0  0  0  0  0  0  0  0  0  0  0
    4.6230   19.4530    3.2270 C   0  0  0  0  0  0  0  0  0  0  0  0
    5.0230   18.0120    3.2640 C   0  0  0  0  0  0  0  0  0  0  0  0
    4.6740   20.1940    4.5260 C   0  0  0  0  0  0  0  0  0  0  0  0
    1.4200   17.7770   -0.6720 C   0  0  1  0  0  0  0  0  0  0  0  0
    0.2020   17.7790    0.2900 C   0  0  0  0  0  0  0  0  0  0  0  0
   -0.5940   16.4790    0.0070 C   0  0  0  0  0  0  0  0  0  0  0  0
    0.3560   15.6210   -0.8600 C   0  0  1  0  0  0  0  0  0  0  0  0
    1.3310   14.9500    0.1570 C   0  0  0  0  0  0  0  0  0  0  0  0
   -0.3230   14.5640   -1.7910 C   0  0  2  0  0  0  0  0  0  0  0  0
   -1.1180   13.4660   -1.0610 C   0  0  0  0  0  0  0  0  0  0  0  0
   -0.3390   12.2420   -0.7090 C   0  0  0  0  0  0  0  0  0  0  0  0
    0.8640   11.9090   -1.2130 C   0  0  0  0  0  0  0  0  0  0  0  0
    1.5190   12.7540   -2.3130 C   0  0  1  0  0  0  0  0  0  0  0  0
    2.0580   11.8230   -3.4300 C   0  0  0  0  0  0  0  0  0  0  0  0
    2.9900   10.7420   -2.8920 C   0  0  0  0  0  0  0  0  0  0  0  0
    2.2850    9.8860   -1.8430 C   0  0  2  0  0  0  0  0  0  0  0  0
    1.2420    9.1410   -2.4810 O   0  0  0  0  0  0  0  0  0  0  0  0
    1.6920   10.7170   -0.6710 C   0  0  0  0  0  0  0  0  0  0  0  0
    2.8410   11.2800    0.2010 C   0  0  0  0  0  0  0  0  0  0  0  0
    0.8880    9.7510    0.2400 C   0  0  0  0  0  0  0  0  0  0  0  0
    0.6400   13.9490   -2.8850 C   0  0  1  0  0  0  0  0  0  0  0  0
   -0.2700   13.4330   -4.0410 C   0  0  0  0  0  0  0  0  0  0  0  0
    1.5930   15.0300   -3.5190 C   0  0  0  0  0  0  0  0  0  0  0  0
    2.1370   16.1170   -2.5720 C   0  0  0  0  0  0  0  0  0  0  0  0
    1.0060   16.7430   -1.7490 C   0  0  2  0  0  0  0  0  0  0  0  0
    0.0210   17.4440   -2.7450 C   0  0  0  0  0  0  0  0  0  0  0  0
    3.7933   18.9819   -1.9484 H   0  0  0  0  0  0  0  0  0  0  0  0
    2.5159   18.2028   -2.9424 H   0  0  0  0  0  0  0  0  0  0  0  0
    2.6885   19.9908   -2.9424 H   0  0  0  0  0  0  0  0  0  0  0  0
    0.8917   19.6981   -1.5058 H   0  0  0  0  0  0  0  0  0  0  0  0
    2.9923   20.8036   -0.3991 H   0  0  0  0  0  0  0  0  0  0  0  0
    1.5212   20.3755    0.5993 H   0  0  0  0  0  0  0  0  0  0  0  0
    2.6322   18.3501    1.3873 H   0  0  0  0  0  0  0  0  0  0  0  0
    4.1005   18.7841    0.4162 H   0  0  0  0  0  0  0  0  0  0  0  0
    2.8334   20.6054    2.1215 H   0  0  0  0  0  0  0  0  0  0  0  0
    5.1142   17.6835    4.3098 H   0  0  0  0  0  0  0  0  0  0  0  0
    4.2591   17.4062    2.7547 H   0  0  0  0  0  0  0  0  0  0  0  0
    5.9899   17.8867    2.7547 H   0  0  0  0  0  0  0  0  0  0  0  0
    4.6247   19.4774    5.3591 H   0  0  0  0  0  0  0  0  0  0  0  0
    5.6134   20.7630    4.5869 H   0  0  0  0  0  0  0  0  0  0  0  0
    3.8214   20.8863    4.5869 H   0  0  0  0  0  0  0  0  0  0  0  0
    2.3740   17.4802   -0.2118 H   0  0  0  0  0  0  0  0  0  0  0  0
    0.5448   17.7933    1.3351 H   0  0  0  0  0  0  0  0  0  0  0  0
   -0.4252   18.6686    0.1310 H   0  0  0  0  0  0  0  0  0  0  0  0
   -0.8373   15.9604    0.9461 H   0  0  0  0  0  0  0  0  0  0  0  0
   -1.5522   16.6776   -0.4955 H   0  0  0  0  0  0  0  0  0  0  0  0
    1.0033   15.1755    1.1826 H   0  0  0  0  0  0  0  0  0  0  0  0
    1.3293   13.8609    0.0027 H   0  0  0  0  0  0  0  0  0  0  0  0
    2.3477   15.3406    0.0027 H   0  0  0  0  0  0  0  0  0  0  0  0
   -1.0699   15.1681   -2.3270 H   0  0  0  0  0  0  0  0  0  0  0  0
   -1.5148   13.8960   -0.1295 H   0  0  0  0  0  0  0  0  0  0  0  0
   -1.8992   13.1383   -1.7627 H   0  0  0  0  0  0  0  0  0  0  0  0
   -0.7858   11.5542    0.0241 H   0  0  0  0  0  0  0  0  0  0  0  0
    2.3556   13.2827   -1.8328 H   0  0  0  0  0  0  0  0  0  0  0  0
    1.2049   11.3377   -3.9266 H   0  0  0  0  0  0  0  0  0  0  0  0
    2.6358   12.4430   -4.1312 H   0  0  0  0  0  0  0  0  0  0  0  0
    3.3130   10.0986   -3.7237 H   0  0  0  0  0  0  0  0  0  0  0  0
    3.8577   11.2285   -2.4225 H   0  0  0  0  0  0  0  0  0  0  0  0
    3.0389    9.2171   -1.4024 H   0  0  0  0  0  0  0  0  0  0  0  0
    0.9950    9.6170   -3.2910 H   0  0  0  0  0  0  0  0  0  0  0  0
    2.5886   11.1563    1.2645 H   0  0  0  0  0  0  0  0  0  0  0  0
    3.7705   10.7353   -0.0210 H   0  0  0  0  0  0  0  0  0  0  0  0
    2.9801   12.3483   -0.0210 H   0  0  0  0  0  0  0  0  0  0  0  0
    1.0875    9.9906    1.2949 H   0  0  0  0  0  0  0  0  0  0  0  0
   -0.1869    9.8635    0.0353 H   0  0  0  0  0  0  0  0  0  0  0  0
    1.1937    8.7143    0.0353 H   0  0  0  0  0  0  0  0  0  0  0  0
   -1.1529   12.9323   -3.6170 H   0  0  0  0  0  0  0  0  0  0  0  0
   -0.5926   14.2826   -4.6608 H   0  0  0  0  0  0  0  0  0  0  0  0
    0.2935   12.7200   -4.6608 H   0  0  0  0  0  0  0  0  0  0  0  0
    2.4562   14.5013   -3.9496 H   0  0  0  0  0  0  0  0  0  0  0  0
    0.9716   15.5690   -4.2494 H   0  0  0  0  0  0  0  0  0  0  0  0
    2.8713   15.6648   -1.8891 H   0  0  0  0  0  0  0  0  0  0  0  0
    2.6086   16.9054   -3.1769 H   0  0  0  0  0  0  0  0  0  0  0  0
   -0.7468   17.9904   -2.1777 H   0  0  0  0  0  0  0  0  0  0  0  0
    0.5798   18.1487   -3.3784 H   0  0  0  0  0  0  0  0  0  0  0  0
   -0.4617   16.6852   -3.3784 H   0  0  0  0  0  0  0  0  0  0  0  0
  1  2  1  0
  2  3  1  0
  3  4  1  0
  4  5  1  0
  5  6  1  0
  6  7  1  0
  7  8  1  0
  7  9  1  0
  2 10  1  0
 10 11  1  0
 11 12  1  0
 12 13  1  0
 13 14  1  1
 13 15  1  0
 15 16  1  0
 16 17  1  0
 17 18  2  0
 18 19  1  0
 19 20  1  0
 20 21  1  0
 21 22  1  0
 22 23  1  0
 22 24  1  0
 24 25  1  0
 24 26  1  0
 19 27  1  0
 27 28  1  6
 27 29  1  0
 29 30  1  0
 30 31  1  0
 31 32  1  6
  7  5  1  0
 31 10  1  0
 31 13  1  0
 27 15  1  0
 24 18  1  0
  1 33  1  0
  1 34  1  0
  1 35  1  0
  2 36  1  6
  3 37  1  0
  3 38  1  0
  4 39  1  0
  4 40  1  0
  5 41  1  1
  8 42  1  0
  8 43  1  0
  8 44  1  0
  9 45  1  0
  9 46  1  0
  9 47  1  0
 10 48  1  1
 11 49  1  0
 11 50  1  0
 12 51  1  0
 12 52  1  0
 14 53  1  0
 14 54  1  0
 14 55  1  0
 15 56  1  6
 16 57  1  0
 16 58  1  0
 17 59  1  0
 19 60  1  1
 20 61  1  0
 20 62  1  0
 21 63  1  0
 21 64  1  0
 22 65  1  1
 23 66  1  0
 25 67  1  0
 25 68  1  0
 25 69  1  0
 26 70  1  0
 26 71  1  0
 26 72  1  0
 28 73  1  0
 28 74  1  0
 28 75  1  0
 29 76  1  0
 29 77  1  0
 30 78  1  0
 30 79  1  0
 32 80  1  0
 32 81  1  0
 32 82  1  0
M  END
>  <meeko>  (7) 
{"is_sidechain": [false], "intermolecular_energy": 2.731, "internal_energy": -0.839}

$$$$
EPH_relaxed_0001_pdb2pqr_Repair_33_r2_0001_out
     RDKit          3D

 82 86  0  0  0  0  0  0  0  0999 V2000
    0.1050   10.7130   -4.2790 C   0  0  0  0  0  0  0  0  0  0  0  0
    0.4370   10.2270   -2.8650 C   0  0  2  0  0  0  0  0  0  0  0  0
   -0.6320    9.2610   -2.3170 C   0  0  0  0  0  0  0  0  0  0  0  0
   -0.8240    9.3520   -0.8010 C   0  0  0  0  0  0  0  0  0  0  0  0
   -2.0970   10.0580   -0.4440 C   0  0  2  0  0  0  0  0  0  0  0  0
   -2.6820    9.6450    0.7980 O   0  0  0  0  0  0  0  0  0  0  0  0
   -3.4470    9.3690   -0.3860 C   0  0  0  0  0  0  0  0  0  0  0  0
   -3.5940    7.9110   -0.6910 C   0  0  0  0  0  0  0  0  0  0  0  0
   -4.6830   10.2050   -0.5150 C   0  0  0  0  0  0  0  0  0  0  0  0
    0.5910   11.4200   -1.9290 C   0  0  1  0  0  0  0  0  0  0  0  0
    1.6070   11.1560   -0.7860 C   0  0  0  0  0  0  0  0  0  0  0  0
    2.3240   12.5010   -0.5050 C   0  0  0  0  0  0  0  0  0  0  0  0
    1.4770   13.5580   -1.2520 C   0  0  1  0  0  0  0  0  0  0  0  0
    0.2760   13.8550   -0.3000 C   0  0  0  0  0  0  0  0  0  0  0  0
    2.2190   14.8690   -1.6700 C   0  0  2  0  0  0  0  0  0  0  0  0
    2.7660   15.7100   -0.5040 C   0  0  0  0  0  0  0  0  0  0  0  0
    1.8310   16.7440    0.0310 C   0  0  0  0  0  0  0  0  0  0  0  0
    0.7170   17.1830   -0.5840 C   0  0  0  0  0  0  0  0  0  0  0  0
    0.3520   16.6990   -1.9930 C   0  0  1  0  0  0  0  0  0  0  0  0
   -0.0530   17.9140   -2.8690 C   0  0  0  0  0  0  0  0  0  0  0  0
   -1.1600   18.7500   -2.2340 C   0  0  0  0  0  0  0  0  0  0  0  0
   -0.7370   19.2610   -0.8590 C   0  0  2  0  0  0  0  0  0  0  0  0
    0.3350   20.1940   -1.0240 O   0  0  0  0  0  0  0  0  0  0  0  0
   -0.2980   18.1260    0.1080 C   0  0  0  0  0  0  0  0  0  0  0  0
   -1.5330   17.2900    0.5250 C   0  0  0  0  0  0  0  0  0  0  0  0
    0.2370   18.7860    1.4070 C   0  0  0  0  0  0  0  0  0  0  0  0
    1.4220   15.7640   -2.7040 C   0  0  1  0  0  0  0  0  0  0  0  0
    2.4800   16.6350   -3.4470 C   0  0  0  0  0  0  0  0  0  0  0  0
    0.7010   14.9040   -3.8080 C   0  0  0  0  0  0  0  0  0  0  0  0
    0.0910   13.5630   -3.3560 C   0  0  0  0  0  0  0  0  0  0  0  0
    1.1020   12.7470   -2.5450 C   0  0  2  0  0  0  0  0  0  0  0  0
    2.3110   12.4140   -3.4840 C   0  0  0  0  0  0  0  0  0  0  0  0
   -0.5146   11.6199   -4.2190 H   0  0  0  0  0  0  0  0  0  0  0  0
    1.0372   10.9407   -4.8168 H   0  0  0  0  0  0  0  0  0  0  0  0
   -0.4461    9.9274   -4.8168 H   0  0  0  0  0  0  0  0  0  0  0  0
    1.3853    9.6722   -2.9194 H   0  0  0  0  0  0  0  0  0  0  0  0
   -1.5912    9.4925   -2.8031 H   0  0  0  0  0  0  0  0  0  0  0  0
   -0.2859    8.2402   -2.5366 H   0  0  0  0  0  0  0  0  0  0  0  0
   -0.8516    8.3346   -0.3836 H   0  0  0  0  0  0  0  0  0  0  0  0
    0.0154    9.9272   -0.3833 H   0  0  0  0  0  0  0  0  0  0  0  0
   -1.7578   10.9752   -0.9477 H   0  0  0  0  0  0  0  0  0  0  0  0
   -3.6512    7.3436    0.2496 H   0  0  0  0  0  0  0  0  0  0  0  0
   -4.5130    7.7491   -1.2734 H   0  0  0  0  0  0  0  0  0  0  0  0
   -2.7258    7.5689   -1.2734 H   0  0  0  0  0  0  0  0  0  0  0  0
   -5.0596   10.4597    0.4867 H   0  0  0  0  0  0  0  0  0  0  0  0
   -4.4454   11.1286   -1.0632 H   0  0  0  0  0  0  0  0  0  0  0  0
   -5.4518    9.6407   -1.0632 H   0  0  0  0  0  0  0  0  0  0  0  0
   -0.4536   11.5341   -1.6037 H   0  0  0  0  0  0  0  0  0  0  0  0
    1.0807   10.8116    0.1165 H   0  0  0  0  0  0  0  0  0  0  0  0
    2.3284   10.3761   -1.0713 H   0  0  0  0  0  0  0  0  0  0  0  0
    2.3446   12.7120    0.5744 H   0  0  0  0  0  0  0  0  0  0  0  0
    3.3717   12.4932   -0.8400 H   0  0  0  0  0  0  0  0  0  0  0  0
    0.6079   13.7729    0.7455 H   0  0  0  0  0  0  0  0  0  0  0  0
   -0.0975   14.8726   -0.4873 H   0  0  0  0  0  0  0  0  0  0  0  0
   -0.5287   13.1288   -0.4873 H   0  0  0  0  0  0  0  0  0  0  0  0
    3.1024   14.4808   -2.1981 H   0  0  0  0  0  0  0  0  0  0  0  0
    3.0218   15.0253    0.3181 H   0  0  0  0  0  0  0  0  0  0  0  0
    3.6302   16.2599   -0.9049 H   0  0  0  0  0  0  0  0  0  0  0  0
    2.0728   17.1839    1.0098 H   0  0  0  0  0  0  0  0  0  0  0  0
   -0.5080   16.0244   -1.8694 H   0  0  0  0  0  0  0  0  0  0  0  0
    0.8305   18.5525   -3.0165 H   0  0  0  0  0  0  0  0  0  0  0  0
   -0.4350   17.5244   -3.8241 H   0  0  0  0  0  0  0  0  0  0  0  0
   -1.3810   19.6088   -2.8849 H   0  0  0  0  0  0  0  0  0  0  0  0
   -2.0526   18.1183   -2.1146 H   0  0  0  0  0  0  0  0  0  0  0  0
   -1.6144   19.7410   -0.4010 H   0  0  0  0  0  0  0  0  0  0  0  0
    0.3380   20.4770   -1.9540 H   0  0  0  0  0  0  0  0  0  0  0  0
   -1.5942   17.2486    1.6225 H   0  0  0  0  0  0  0  0  0  0  0  0
   -2.4445   17.7575    0.1243 H   0  0  0  0  0  0  0  0  0  0  0  0
   -1.4376   16.2700    0.1243 H   0  0  0  0  0  0  0  0  0  0  0  0
   -0.1832   18.2677    2.2815 H   0  0  0  0  0  0  0  0  0  0  0  0
    1.3344   18.7135    1.4300 H   0  0  0  0  0  0  0  0  0  0  0  0
   -0.0611   19.8446    1.4300 H   0  0  0  0  0  0  0  0  0  0  0  0
    3.1105   17.1540   -2.7101 H   0  0  0  0  0  0  0  0  0  0  0  0
    3.1089   15.9894   -4.0776 H   0  0  0  0  0  0  0  0  0  0  0  0
    1.9672   17.3762   -4.0776 H   0  0  0  0  0  0  0  0  0  0  0  0
   -0.1120   15.5149   -4.2274 H   0  0  0  0  0  0  0  0  0  0  0  0
    1.4912   14.6339   -4.5240 H   0  0  0  0  0  0  0  0  0  0  0  0
   -0.7935   13.7617   -2.7330 H   0  0  0  0  0  0  0  0  0  0  0  0
   -0.1894   12.9861   -4.2496 H   0  0  0  0  0  0  0  0  0  0  0  0
    3.1933   12.1710   -2.8736 H   0  0  0  0  0  0  0  0  0  0  0  0
    2.0558   11.5527   -4.1189 H   0  0  0  0  0  0  0  0  0  0  0  0
    2.5328   13.2845   -4.1189 H   0  0  0  0  0  0  0  0  0  0  0  0
  1  2  1  0
  2  3  1  0
  3  4  1  0
  4  5  1  0
  5  6  1  0
  6  7  1  0
  7  8  1  0
  7  9  1  0
  2 10  1  0
 10 11  1  0
 11 12  1  0
 12 13  1  0
 13 14  1  1
 13 15  1  0
 15 16  1  0
 16 17  1  0
 17 18  2  0
 18 19  1  0
 19 20  1  0
 20 21  1  0
 21 22  1  0
 22 23  1  0
 22 24  1  0
 24 25  1  0
 24 26  1  0
 19 27  1  0
 27 28  1  6
 27 29  1  0
 29 30  1  0
 30 31  1  0
 31 32  1  6
  7  5  1  0
 31 10  1  0
 31 13  1  0
 27 15  1  0
 24 18  1  0
  1 33  1  0
  1 34  1  0
  1 35  1  0
  2 36  1  6
  3 37  1  0
  3 38  1  0
  4 39  1  0
  4 40  1  0
  5 41  1  1
  8 42  1  0
  8 43  1  0
  8 44  1  0
  9 45  1  0
  9 46  1  0
  9 47  1  0
 10 48  1  1
 11 49  1  0
 11 50  1  0
 12 51  1  0
 12 52  1  0
 14 53  1  0
 14 54  1  0
 14 55  1  0
 15 56  1  6
 16 57  1  0
 16 58  1  0
 17 59  1  0
 19 60  1  1
 20 61  1  0
 20 62  1  0
 21 63  1  0
 21 64  1  0
 22 65  1  1
 23 66  1  0
 25 67  1  0
 25 68  1  0
 25 69  1  0
 26 70  1  0
 26 71  1  0
 26 72  1  0
 28 73  1  0
 28 74  1  0
 28 75  1  0
 29 76  1  0
 29 77  1  0
 30 78  1  0
 30 79  1  0
 32 80  1  0
 32 81  1  0
 32 82  1  0
M  END
>  <meeko>  (8) 
{"is_sidechain": [false], "intermolecular_energy": 2.731, "internal_energy": -0.839}

$$$$
EPH_relaxed_0001_pdb2pqr_Repair_33_r2_0001_out
     RDKit          3D

 82 86  0  0  0  0  0  0  0  0999 V2000
    2.8630   18.7870   -1.4710 C   0  0  0  0  0  0  0  0  0  0  0  0
    2.3360   17.7010   -2.4140 C   0  0  2  0  0  0  0  0  0  0  0  0
    0.8500   17.9120   -2.7690 C   0  0  0  0  0  0  0  0  0  0  0  0
    0.2680   19.2220   -2.2310 C   0  0  0  0  0  0  0  0  0  0  0  0
   -1.0330   19.0000   -1.5210 C   0  0  2  0  0  0  0  0  0  0  0  0
   -1.7770   20.1950   -1.2470 O   0  0  0  0  0  0  0  0  0  0  0  0
   -1.3020   19.4680   -0.1020 C   0  0  0  0  0  0  0  0  0  0  0  0
   -0.2610   20.1940    0.6900 C   0  0  0  0  0  0  0  0  0  0  0  0
   -2.3880   18.7960    0.6780 C   0  0  0  0  0  0  0  0  0  0  0  0
    2.5320   16.3270   -1.7860 C   0  0  1  0  0  0  0  0  0  0  0  0
    3.3170   16.3880   -0.4480 C   0  0  0  0  0  0  0  0  0  0  0  0
    2.7280   15.2830    0.4670 C   0  0  0  0  0  0  0  0  0  0  0  0
    1.8640   14.4140   -0.4770 C   0  0  1  0  0  0  0  0  0  0  0  0
    2.8780   13.4630   -1.1860 C   0  0  0  0  0  0  0  0  0  0  0  0
    0.6960   13.6190    0.1920 C   0  0  2  0  0  0  0  0  0  0  0  0
    1.1320   12.5700    1.2310 C   0  0  0  0  0  0  0  0  0  0  0  0
    1.3800   11.2010    0.6890 C   0  0  0  0  0  0  0  0  0  0  0  0
    0.9880   10.7550   -0.5190 C   0  0  0  0  0  0  0  0  0  0  0  0
    0.1320   11.6310   -1.4420 C   0  0  1  0  0  0  0  0  0  0  0  0
   -1.0420   10.7910   -2.0110 C   0  0  0  0  0  0  0  0  0  0  0  0
   -0.5690    9.5120   -2.6940 C   0  0  0  0  0  0  0  0  0  0  0  0
    0.2290    8.6400   -1.7270 C   0  0  2  0  0  0  0  0  0  0  0  0
   -0.6490    8.1670   -0.7020 O   0  0  0  0  0  0  0  0  0  0  0  0
    1.4330    9.3840   -1.0840 C   0  0  0  0  0  0  0  0  0  0  0  0
    2.5250    9.6300   -2.1530 C   0  0  0  0  0  0  0  0  0  0  0  0
    2.0660    8.4400   -0.0260 C   0  0  0  0  0  0  0  0  0  0  0  0
   -0.3490   13.0180   -0.8330 C   0  0  1  0  0  0  0  0  0  0  0  0
   -1.6810   12.8200   -0.0450 C   0  0  0  0  0  0  0  0  0  0  0  0
   -0.6730   14.0120   -2.0100 C   0  0  0  0  0  0  0  0  0  0  0  0
    0.4980   14.8570   -2.5470 C   0  0  0  0  0  0  0  0  0  0  0  0
    1.2580   15.5320   -1.4020 C   0  0  2  0  0  0  0  0  0  0  0  0
    0.2700   16.5130   -0.6840 C   0  0  0  0  0  0  0  0  0  0  0  0
    2.7104   18.4726   -0.4280 H   0  0  0  0  0  0  0  0  0  0  0  0
    3.9365   18.9420   -1.6539 H   0  0  0  0  0  0  0  0  0  0  0  0
    2.3205   19.7263   -1.6539 H   0  0  0  0  0  0  0  0  0  0  0  0
    2.9114   17.7668   -3.3492 H   0  0  0  0  0  0  0  0  0  0  0  0
    0.7515   17.9124   -3.8646 H   0  0  0  0  0  0  0  0  0  0  0  0
    0.2876   17.0929   -2.2970 H   0  0  0  0  0  0  0  0  0  0  0  0
    0.9862   19.6690   -1.5278 H   0  0  0  0  0  0  0  0  0  0  0  0
    0.0833   19.8912   -3.0842 H   0  0  0  0  0  0  0  0  0  0  0  0
   -1.1631   18.0252   -2.0138 H   0  0  0  0  0  0  0  0  0  0  0  0
   -0.4562   20.0579    1.7639 H   0  0  0  0  0  0  0  0  0  0  0  0
    0.7331   19.7923    0.4442 H   0  0  0  0  0  0  0  0  0  0  0  0
   -0.2944   21.2657    0.4442 H   0  0  0  0  0  0  0  0  0  0  0  0
   -2.1944   18.9158    1.7542 H   0  0  0  0  0  0  0  0  0  0  0  0
   -3.3565   19.2529    0.4266 H   0  0  0  0  0  0  0  0  0  0  0  0
   -2.4113   17.7254    0.4266 H   0  0  0  0  0  0  0  0  0  0  0  0
    3.0574   15.8212   -2.6095 H   0  0  0  0  0  0  0  0  0  0  0  0
    4.3861   16.2014   -0.6272 H   0  0  0  0  0  0  0  0  0  0  0  0
    3.2239   17.3793    0.0197 H   0  0  0  0  0  0  0  0  0  0  0  0
    3.5321   14.6837    0.9190 H   0  0  0  0  0  0  0  0  0  0  0  0
    2.1444   15.6995    1.3012 H   0  0  0  0  0  0  0  0  0  0  0  0
    3.4599   12.9172   -0.4287 H   0  0  0  0  0  0  0  0  0  0  0  0
    2.3300   12.7456   -1.8145 H   0  0  0  0  0  0  0  0  0  0  0  0
    3.5588   14.0558   -1.8145 H   0  0  0  0  0  0  0  0  0  0  0  0
    0.1719   14.4019    0.7598 H   0  0  0  0  0  0  0  0  0  0  0  0
    2.0617   12.9231    1.7011 H   0  0  0  0  0  0  0  0  0  0  0  0
    0.2925   12.4714    1.9349 H   0  0  0  0  0  0  0  0  0  0  0  0
    1.9297   10.4973    1.3314 H   0  0  0  0  0  0  0  0  0  0  0  0
    0.7951   11.9484   -2.2602 H   0  0  0  0  0  0  0  0  0  0  0  0
   -1.7154   10.5209   -1.1843 H   0  0  0  0  0  0  0  0  0  0  0  0
   -1.5548   11.4034   -2.7674 H   0  0  0  0  0  0  0  0  0  0  0  0
   -1.4445    8.9482   -3.0485 H   0  0  0  0  0  0  0  0  0  0  0  0
    0.0806    9.7847   -3.5388 H   0  0  0  0  0  0  0  0  0  0  0  0
    0.6499    7.8041   -2.3051 H   0  0  0  0  0  0  0  0  0  0  0  0
   -0.7140    8.8630   -0.0260 H   0  0  0  0  0  0  0  0  0  0  0  0
    3.4824    9.8457   -1.6562 H   0  0  0  0  0  0  0  0  0  0  0  0
    2.6317    8.7334   -2.7812 H   0  0  0  0  0  0  0  0  0  0  0  0
    2.2369   10.4858   -2.7812 H   0  0  0  0  0  0  0  0  0  0  0  0
    1.8219    8.8040    0.9829 H   0  0  0  0  0  0  0  0  0  0  0  0
    1.6663    7.4234   -0.1557 H   0  0  0  0  0  0  0  0  0  0  0  0
    3.1582    8.4238   -0.1557 H   0  0  0  0  0  0  0  0  0  0  0  0
   -1.4759   12.8505    1.0353 H   0  0  0  0  0  0  0  0  0  0  0  0
   -2.3851   13.6233   -0.3074 H   0  0  0  0  0  0  0  0  0  0  0  0
   -2.1210   11.8466   -0.3074 H   0  0  0  0  0  0  0  0  0  0  0  0
   -1.0670   13.4184   -2.8481 H   0  0  0  0  0  0  0  0  0  0  0  0
   -1.3822   14.7385   -1.5866 H   0  0  0  0  0  0  0  0  0  0  0  0
    1.1883   14.2040   -3.1012 H   0  0  0  0  0  0  0  0  0  0  0  0
    0.0927   15.6381   -3.2070 H   0  0  0  0  0  0  0  0  0  0  0  0
    0.3761   16.4077    0.4058 H   0  0  0  0  0  0  0  0  0  0  0  0
    0.5029   17.5474   -0.9768 H   0  0  0  0  0  0  0  0  0  0  0  0
   -0.7627   16.2727   -0.9768 H   0  0  0  0  0  0  0  0  0  0  0  0
  1  2  1  0
  2  3  1  0
  3  4  1  0
  4  5  1  0
  5  6  1  0
  6  7  1  0
  7  8  1  0
  7  9  1  0
  2 10  1  0
 10 11  1  0
 11 12  1  0
 12 13  1  0
 13 14  1  6
 13 15  1  0
 15 16  1  0
 16 17  1  0
 17 18  2  0
 18 19  1  0
 19 20  1  0
 20 21  1  0
 21 22  1  0
 22 23  1  0
 22 24  1  0
 24 25  1  0
 24 26  1  0
 19 27  1  0
 27 28  1  1
 27 29  1  0
 29 30  1  0
 30 31  1  0
 31 32  1  1
  7  5  1  0
 31 10  1  0
 31 13  1  0
 27 15  1  0
 24 18  1  0
  1 33  1  0
  1 34  1  0
  1 35  1  0
  2 36  1  6
  3 37  1  0
  3 38  1  0
  4 39  1  0
  4 40  1  0
  5 41  1  1
  8 42  1  0
  8 43  1  0
  8 44  1  0
  9 45  1  0
  9 46  1  0
  9 47  1  0
 10 48  1  6
 11 49  1  0
 11 50  1  0
 12 51  1  0
 12 52  1  0
 14 53  1  0
 14 54  1  0
 14 55  1  0
 15 56  1  1
 16 57  1  0
 16 58  1  0
 17 59  1  0
 19 60  1  6
 20 61  1  0
 20 62  1  0
 21 63  1  0
 21 64  1  0
 22 65  1  6
 23 66  1  0
 25 67  1  0
 25 68  1  0
 25 69  1  0
 26 70  1  0
 26 71  1  0
 26 72  1  0
 28 73  1  0
 28 74  1  0
 28 75  1  0
 29 76  1  0
 29 77  1  0
 30 78  1  0
 30 79  1  0
 32 80  1  0
 32 81  1  0
 32 82  1  0
M  END
>  <meeko>  (9) 
{"is_sidechain": [false], "intermolecular_energy": 2.731, "internal_energy": -0.839}

$$$$
EPH_relaxed_0001_pdb2pqr_Repair_33_r2_0001_out
     RDKit          3D

 82 86  0  0  0  0  0  0  0  0999 V2000
   -0.8570   16.3420   -5.8470 C   0  0  0  0  0  0  0  0  0  0  0  0
    0.2360   15.6420   -6.6600 C   0  0  2  0  0  0  0  0  0  0  0  0
   -0.1620   15.4690   -8.1390 C   0  0  0  0  0  0  0  0  0  0  0  0
    0.4850   16.4950   -9.0740 C   0  0  0  0  0  0  0  0  0  0  0  0
    1.8840   16.1050   -9.4420 C   0  0  2  0  0  0  0  0  0  0  0  0
    2.3600   16.6710  -10.6700 O   0  0  0  0  0  0  0  0  0  0  0  0
    2.2240   15.2410  -10.6430 C   0  0  0  0  0  0  0  0  0  0  0  0
    1.1580   14.7130  -11.5510 C   0  0  0  0  0  0  0  0  0  0  0  0
    3.5310   14.5110  -10.6520 C   0  0  0  0  0  0  0  0  0  0  0  0
    0.5530   14.2840   -6.0440 C   0  0  1  0  0  0  0  0  0  0  0  0
    1.8170   13.6290   -6.6610 C   0  0  0  0  0  0  0  0  0  0  0  0
    2.5240   12.8560   -5.5180 C   0  0  0  0  0  0  0  0  0  0  0  0
    1.4830   12.8130   -4.3740 C   0  0  1  0  0  0  0  0  0  0  0  0
    0.5250   11.6390   -4.7470 C   0  0  0  0  0  0  0  0  0  0  0  0
    2.0530   12.6560   -2.9270 C   0  0  2  0  0  0  0  0  0  0  0  0
    2.8210   11.3490   -2.6660 C   0  0  0  0  0  0  0  0  0  0  0  0
    1.9930   10.2130   -2.1610 C   0  0  0  0  0  0  0  0  0  0  0  0
    0.7490   10.3160   -1.6570 C   0  0  0  0  0  0  0  0  0  0  0  0
    0.0870   11.6860   -1.4660 C   0  0  1  0  0  0  0  0  0  0  0  0
   -0.5600   11.7560   -0.0580 C   0  0  0  0  0  0  0  0  0  0  0  0
   -1.5230   10.6020    0.2020 C   0  0  0  0  0  0  0  0  0  0  0  0
   -0.8140    9.2580    0.0590 C   0  0  2  0  0  0  0  0  0  0  0  0
    0.1510    9.1320    1.1090 O   0  0  0  0  0  0  0  0  0  0  0  0
   -0.1150    9.0760   -1.3170 C   0  0  0  0  0  0  0  0  0  0  0  0
   -1.1840    8.9110   -2.4260 C   0  0  0  0  0  0  0  0  0  0  0  0
    0.6790    7.7430   -1.2780 C   0  0  0  0  0  0  0  0  0  0  0  0
    1.0010   12.9480   -1.7810 C   0  0  1  0  0  0  0  0  0  0  0  0
    1.8200   13.3410   -0.5140 C   0  0  0  0  0  0  0  0  0  0  0  0
    0.0790   14.1800   -2.1140 C   0  0  0  0  0  0  0  0  0  0  0  0
   -0.3530   14.3470   -3.5830 C   0  0  0  0  0  0  0  0  0  0  0  0
    0.8520   14.2450   -4.5240 C   0  0  2  0  0  0  0  0  0  0  0  0
    1.8230   15.4280   -4.1870 C   0  0  0  0  0  0  0  0  0  0  0  0
   -0.6551   16.2127   -4.7735 H   0  0  0  0  0  0  0  0  0  0  0  0
   -0.8661   17.4144   -6.0918 H   0  0  0  0  0  0  0  0  0  0  0  0
   -1.8349   15.9017   -6.0918 H   0  0  0  0  0  0  0  0  0  0  0  0
    1.1306   16.2814   -6.6311 H   0  0  0  0  0  0  0  0  0  0  0  0
    0.1405   14.4628   -8.4648 H   0  0  0  0  0  0  0  0  0  0  0  0
   -1.2499   15.6199   -8.1992 H   0  0  0  0  0  0  0  0  0  0  0  0
   -0.1170   16.5705   -9.9915 H   0  0  0  0  0  0  0  0  0  0  0  0
    0.5253   17.4604   -8.5482 H   0  0  0  0  0  0  0  0  0  0  0  0
    2.1696   16.0400   -8.3817 H   0  0  0  0  0  0  0  0  0  0  0  0
    0.3330   14.3043  -10.9491 H   0  0  0  0  0  0  0  0  0  0  0  0
    0.7801   15.5281  -12.1857 H   0  0  0  0  0  0  0  0  0  0  0  0
    1.5774   13.9184  -12.1857 H   0  0  0  0  0  0  0  0  0  0  0  0
    3.8566   14.3292   -9.6171 H   0  0  0  0  0  0  0  0  0  0  0  0
    3.4104   13.5496  -11.1727 H   0  0  0  0  0  0  0  0  0  0  0  0
    4.2864   15.1179  -11.1727 H   0  0  0  0  0  0  0  0  0  0  0  0
   -0.3910   13.7605   -6.2555 H   0  0  0  0  0  0  0  0  0  0  0  0
    1.5300   12.9362   -7.4658 H   0  0  0  0  0  0  0  0  0  0  0  0
    2.4836   14.3889   -7.0949 H   0  0  0  0  0  0  0  0  0  0  0  0
    2.7870   11.8383   -5.8422 H   0  0  0  0  0  0  0  0  0  0  0  0
    3.4641   13.3362   -5.2088 H   0  0  0  0  0  0  0  0  0  0  0  0
    0.1432   11.1711   -3.8276 H   0  0  0  0  0  0  0  0  0  0  0  0
   -0.3176   12.0270   -5.3382 H   0  0  0  0  0  0  0  0  0  0  0  0
    1.0741   10.8913   -5.3382 H   0  0  0  0  0  0  0  0  0  0  0  0
    2.8051   13.4574   -2.8816 H   0  0  0  0  0  0  0  0  0  0  0  0
    3.2888   11.0351   -3.6108 H   0  0  0  0  0  0  0  0  0  0  0  0
    3.5455   11.5753   -1.8698 H   0  0  0  0  0  0  0  0  0  0  0  0
    2.4371    9.2076   -2.2046 H   0  0  0  0  0  0  0  0  0  0  0  0
   -0.6921   11.7579   -2.2392 H   0  0  0  0  0  0  0  0  0  0  0  0
    0.2380   11.7264    0.6985 H   0  0  0  0  0  0  0  0  0  0  0  0
   -1.1369   12.6909   -0.0021 H   0  0  0  0  0  0  0  0  0  0  0  0
   -1.9242   10.6907    1.2224 H   0  0  0  0  0  0  0  0  0  0  0  0
   -2.3368   10.6503   -0.5365 H   0  0  0  0  0  0  0  0  0  0  0  0
   -1.5809    8.4723    0.1268 H   0  0  0  0  0  0  0  0  0  0  0  0
    0.9660    9.5730    0.8140 H   0  0  0  0  0  0  0  0  0  0  0  0
   -2.1708    8.7587   -1.9644 H   0  0  0  0  0  0  0  0  0  0  0  0
   -1.2072    9.8162   -3.0506 H   0  0  0  0  0  0  0  0  0  0  0  0
   -0.9331    8.0409   -3.0506 H   0  0  0  0  0  0  0  0  0  0  0  0
    0.8532    7.4505   -0.2320 H   0  0  0  0  0  0  0  0  0  0  0  0
    0.1016    6.9573   -1.7872 H   0  0  0  0  0  0  0  0  0  0  0  0
    1.6449    7.8765   -1.7872 H   0  0  0  0  0  0  0  0  0  0  0  0
    1.2527   13.0688    0.3883 H   0  0  0  0  0  0  0  0  0  0  0  0
    2.7811   12.8060   -0.5182 H   0  0  0  0  0  0  0  0  0  0  0  0
    2.0040   14.4255   -0.5182 H   0  0  0  0  0  0  0  0  0  0  0  0
   -0.8337   14.0862   -1.5073 H   0  0  0  0  0  0  0  0  0  0  0  0
    0.6913   15.0663   -1.8915 H   0  0  0  0  0  0  0  0  0  0  0  0
   -1.0760   13.5580   -3.8374 H   0  0  0  0  0  0  0  0  0  0  0  0
   -0.8091   15.3407   -3.7037 H   0  0  0  0  0  0  0  0  0  0  0  0
    1.9087   15.5324   -3.0953 H   0  0  0  0  0  0  0  0  0  0  0  0
    2.8152   15.2212   -4.6146 H   0  0  0  0  0  0  0  0  0  0  0  0
    1.4267   16.3608   -4.6146 H   0  0  0  0  0  0  0  0  0  0  0  0
  1  2  1  0
  2  3  1  0
  3  4  1  0
  4  5  1  0
  5  6  1  0
  6  7  1  0
  7  8  1  0
  7  9  1  0
  2 10  1  0
 10 11  1  0
 11 12  1  0
 12 13  1  0
 13 14  1  6
 13 15  1  0
 15 16  1  0
 16 17  1  0
 17 18  2  0
 18 19  1  0
 19 20  1  0
 20 21  1  0
 21 22  1  0
 22 23  1  0
 22 24  1  0
 24 25  1  0
 24 26  1  0
 19 27  1  0
 27 28  1  1
 27 29  1  0
 29 30  1  0
 30 31  1  0
 31 32  1  1
  7  5  1  0
 31 10  1  0
 31 13  1  0
 27 15  1  0
 24 18  1  0
  1 33  1  0
  1 34  1  0
  1 35  1  0
  2 36  1  6
  3 37  1  0
  3 38  1  0
  4 39  1  0
  4 40  1  0
  5 41  1  1
  8 42  1  0
  8 43  1  0
  8 44  1  0
  9 45  1  0
  9 46  1  0
  9 47  1  0
 10 48  1  1
 11 49  1  0
 11 50  1  0
 12 51  1  0
 12 52  1  0
 14 53  1  0
 14 54  1  0
 14 55  1  0
 15 56  1  6
 16 57  1  0
 16 58  1  0
 17 59  1  0
 19 60  1  6
 20 61  1  0
 20 62  1  0
 21 63  1  0
 21 64  1  0
 22 65  1  1
 23 66  1  0
 25 67  1  0
 25 68  1  0
 25 69  1  0
 26 70  1  0
 26 71  1  0
 26 72  1  0
 28 73  1  0
 28 74  1  0
 28 75  1  0
 29 76  1  0
 29 77  1  0
 30 78  1  0
 30 79  1  0
 32 80  1  0
 32 81  1  0
 32 82  1  0
M  END
>  <meeko>  (10) 
{"is_sidechain": [false], "intermolecular_energy": 2.731, "internal_energy": -0.839}

$$$$
EPH_relaxed_0001_pdb2pqr_Repair_33_r2_0001_out
     RDKit          3D

 82 86  0  0  0  0  0  0  0  0999 V2000
   -4.1640    7.3800   -3.4580 C   0  0  0  0  0  0  0  0  0  0  0  0
   -3.7480    7.2870   -1.9870 C   0  0  2  0  0  0  0  0  0  0  0  0
   -4.9080    6.8220   -1.0840 C   0  0  0  0  0  0  0  0  0  0  0  0
   -6.0580    6.1630   -1.8500 C   0  0  0  0  0  0  0  0  0  0  0  0
   -7.3790    6.7810   -1.5060 C   0  0  2  0  0  0  0  0  0  0  0  0
   -8.4370    5.8420   -1.2740 O   0  0  0  0  0  0  0  0  0  0  0  0
   -8.5970    6.7090   -2.4080 C   0  0  0  0  0  0  0  0  0  0  0  0
   -8.5510    6.0010   -3.7260 C   0  0  0  0  0  0  0  0  0  0  0  0
   -9.6760    7.7320   -2.2380 C   0  0  0  0  0  0  0  0  0  0  0  0
   -3.2240    8.6360   -1.5090 C   0  0  1  0  0  0  0  0  0  0  0  0
   -3.8720    9.0900   -0.1730 C   0  0  0  0  0  0  0  0  0  0  0  0
   -2.7780    9.8500    0.6190 C   0  0  0  0  0  0  0  0  0  0  0  0
   -1.6510   10.0980   -0.4110 C   0  0  1  0  0  0  0  0  0  0  0  0
   -2.1140   11.3500   -1.2180 C   0  0  0  0  0  0  0  0  0  0  0  0
   -0.2120   10.2850    0.1710 C   0  0  2  0  0  0  0  0  0  0  0  0
   -0.0350   11.5060    1.0920 C   0  0  0  0  0  0  0  0  0  0  0  0
    0.3820   12.7650    0.4070 C   0  0  0  0  0  0  0  0  0  0  0  0
    0.8790   12.8500   -0.8410 C   0  0  0  0  0  0  0  0  0  0  0  0
    1.1580   11.5860   -1.6650 C   0  0  1  0  0  0  0  0  0  0  0  0
    2.5600   11.6930   -2.3180 C   0  0  0  0  0  0  0  0  0  0  0  0
    2.7290   12.9710   -3.1350 C   0  0  0  0  0  0  0  0  0  0  0  0
    2.5010   14.2060   -2.2670 C   0  0  2  0  0  0  0  0  0  0  0  0
    3.5490   14.2880   -1.2970 O   0  0  0  0  0  0  0  0  0  0  0  0
    1.1230   14.2050   -1.5490 C   0  0  0  0  0  0  0  0  0  0  0  0
   -0.0050   14.4200   -2.5880 C   0  0  0  0  0  0  0  0  0  0  0  0
    1.0780   15.4320   -0.5990 C   0  0  0  0  0  0  0  0  0  0  0  0
    0.9400   10.2040   -0.9100 C   0  0  1  0  0  0  0  0  0  0  0  0
    2.2400    9.8040   -0.1470 C   0  0  0  0  0  0  0  0  0  0  0  0
    0.6840    9.0720   -1.9740 C   0  0  0  0  0  0  0  0  0  0  0  0
   -0.7750    8.8560   -2.4200 C   0  0  0  0  0  0  0  0  0  0  0  0
   -1.7080    8.7450   -1.2100 C   0  0  2  0  0  0  0  0  0  0  0  0
   -1.2800    7.4800   -0.3900 C   0  0  0  0  0  0  0  0  0  0  0  0
   -5.2357    7.6196   -3.5215 H   0  0  0  0  0  0  0  0  0  0  0  0
   -3.5816    8.1701   -3.9545 H   0  0  0  0  0  0  0  0  0  0  0  0
   -3.9735    6.4171   -3.9545 H   0  0  0  0  0  0  0  0  0  0  0  0
   -2.9511    6.5322   -1.9153 H   0  0  0  0  0  0  0  0  0  0  0  0
   -4.5133    6.0960   -0.3579 H   0  0  0  0  0  0  0  0  0  0  0  0
   -5.3178    7.7202   -0.5990 H   0  0  0  0  0  0  0  0  0  0  0  0
   -5.8803    6.2793   -2.9293 H   0  0  0  0  0  0  0  0  0  0  0  0
   -6.0929    5.1002   -1.5685 H   0  0  0  0  0  0  0  0  0  0  0  0
   -6.8805    7.6241   -1.0053 H   0  0  0  0  0  0  0  0  0  0  0  0
   -8.4805    4.9163   -3.5573 H   0  0  0  0  0  0  0  0  0  0  0  0
   -9.4656    6.2250   -4.2947 H   0  0  0  0  0  0  0  0  0  0  0  0
   -7.6731    6.3414   -4.2947 H   0  0  0  0  0  0  0  0  0  0  0  0
   -9.8549    7.9016   -1.1660 H   0  0  0  0  0  0  0  0  0  0  0  0
   -9.3652    8.6749   -2.7115 H   0  0  0  0  0  0  0  0  0  0  0  0
  -10.6011    7.3714   -2.7115 H   0  0  0  0  0  0  0  0  0  0  0  0
   -3.4809    9.2529   -2.3827 H   0  0  0  0  0  0  0  0  0  0  0  0
   -4.7257    9.7544   -0.3726 H   0  0  0  0  0  0  0  0  0  0  0  0
   -4.2455    8.2272    0.3980 H   0  0  0  0  0  0  0  0  0  0  0  0
   -3.1690   10.8035    1.0038 H   0  0  0  0  0  0  0  0  0  0  0  0
   -2.4263    9.2827    1.4933 H   0  0  0  0  0  0  0  0  0  0  0  0
   -2.4089   12.1475   -0.5202 H   0  0  0  0  0  0  0  0  0  0  0  0
   -1.2874   11.7042   -1.8515 H   0  0  0  0  0  0  0  0  0  0  0  0
   -2.9722   11.0812   -1.8515 H   0  0  0  0  0  0  0  0  0  0  0  0
   -0.1026    9.4031    0.8193 H   0  0  0  0  0  0  0  0  0  0  0  0
   -0.9949   11.6945    1.5951 H   0  0  0  0  0  0  0  0  0  0  0  0
    0.7815   11.2504    1.7834 H   0  0  0  0  0  0  0  0  0  0  0  0
    0.2739   13.7036    0.9703 H   0  0  0  0  0  0  0  0  0  0  0  0
    0.3840   11.5550   -2.4460 H   0  0  0  0  0  0  0  0  0  0  0  0
    3.3209   11.6790   -1.5238 H   0  0  0  0  0  0  0  0  0  0  0  0
    2.6749   10.8406   -3.0038 H   0  0  0  0  0  0  0  0  0  0  0  0
    3.7486   13.0032   -3.5466 H   0  0  0  0  0  0  0  0  0  0  0  0
    1.9869   12.9700   -3.9470 H   0  0  0  0  0  0  0  0  0  0  0  0
    2.5066   15.0818   -2.9325 H   0  0  0  0  0  0  0  0  0  0  0  0
    3.1350   14.3000   -0.4170 H   0  0  0  0  0  0  0  0  0  0  0  0
   -0.9556   14.6012   -2.0650 H   0  0  0  0  0  0  0  0  0  0  0  0
    0.2378   15.2880   -3.2185 H   0  0  0  0  0  0  0  0  0  0  0  0
   -0.0985   13.5235   -3.2185 H   0  0  0  0  0  0  0  0  0  0  0  0
    1.0906   15.0876    0.4456 H   0  0  0  0  0  0  0  0  0  0  0  0
    1.9533   16.0718   -0.7847 H   0  0  0  0  0  0  0  0  0  0  0  0
    0.1582   16.0060   -0.7847 H   0  0  0  0  0  0  0  0  0  0  0  0
    2.0607    9.8592    0.9369 H   0  0  0  0  0  0  0  0  0  0  0  0
    2.5240    8.7769   -0.4199 H   0  0  0  0  0  0  0  0  0  0  0  0
    3.0523   10.4938   -0.4199 H   0  0  0  0  0  0  0  0  0  0  0  0
    1.2731    9.3177   -2.8699 H   0  0  0  0  0  0  0  0  0  0  0  0
    0.9743    8.1359   -1.4744 H   0  0  0  0  0  0  0  0  0  0  0  0
   -1.0911    9.7071   -3.0411 H   0  0  0  0  0  0  0  0  0  0  0  0
   -0.8313    7.9188   -2.9932 H   0  0  0  0  0  0  0  0  0  0  0  0
   -1.3538    7.6981    0.6856 H   0  0  0  0  0  0  0  0  0  0  0  0
   -1.9437    6.6391   -0.6400 H   0  0  0  0  0  0  0  0  0  0  0  0
   -0.2421    7.2148   -0.6400 H   0  0  0  0  0  0  0  0  0  0  0  0
  1  2  1  0
  2  3  1  0
  3  4  1  0
  4  5  1  0
  5  6  1  0
  6  7  1  0
  7  8  1  0
  7  9  1  0
  2 10  1  0
 10 11  1  0
 11 12  1  0
 12 13  1  0
 13 14  1  6
 13 15  1  0
 15 16  1  0
 16 17  1  0
 17 18  2  0
 18 19  1  0
 19 20  1  0
 20 21  1  0
 21 22  1  0
 22 23  1  0
 22 24  1  0
 24 25  1  0
 24 26  1  0
 19 27  1  0
 27 28  1  1
 27 29  1  0
 29 30  1  0
 30 31  1  0
 31 32  1  1
  7  5  1  0
 31 10  1  0
 31 13  1  0
 27 15  1  0
 24 18  1  0
  1 33  1  0
  1 34  1  0
  1 35  1  0
  2 36  1  6
  3 37  1  0
  3 38  1  0
  4 39  1  0
  4 40  1  0
  5 41  1  1
  8 42  1  0
  8 43  1  0
  8 44  1  0
  9 45  1  0
  9 46  1  0
  9 47  1  0
 10 48  1  6
 11 49  1  0
 11 50  1  0
 12 51  1  0
 12 52  1  0
 14 53  1  0
 14 54  1  0
 14 55  1  0
 15 56  1  1
 16 57  1  0
 16 58  1  0
 17 59  1  0
 19 60  1  6
 20 61  1  0
 20 62  1  0
 21 63  1  0
 21 64  1  0
 22 65  1  6
 23 66  1  0
 25 67  1  0
 25 68  1  0
 25 69  1  0
 26 70  1  0
 26 71  1  0
 26 72  1  0
 28 73  1  0
 28 74  1  0
 28 75  1  0
 29 76  1  0
 29 77  1  0
 30 78  1  0
 30 79  1  0
 32 80  1  0
 32 81  1  0
 32 82  1  0
M  END
>  <meeko>  (11) 
{"is_sidechain": [false], "intermolecular_energy": 2.731, "internal_energy": -0.839}

$$$$
EPH_relaxed_0001_pdb2pqr_Repair_33_r2_0001_out
     RDKit          3D

 82 86  0  0  0  0  0  0  0  0999 V2000
    0.1740    9.3210   -2.1940 C   0  0  0  0  0  0  0  0  0  0  0  0
    1.2320   10.3280   -2.6540 C   0  0  2  0  0  0  0  0  0  0  0  0
    2.6410    9.7050   -2.7080 C   0  0  0  0  0  0  0  0  0  0  0  0
    3.5560   10.3430   -3.7570 C   0  0  0  0  0  0  0  0  0  0  0  0
    4.9550   10.5090   -3.2460 C   0  0  2  0  0  0  0  0  0  0  0  0
    5.5140   11.8140   -3.4450 O   0  0  0  0  0  0  0  0  0  0  0  0
    6.1540   10.7370   -4.1480 C   0  0  0  0  0  0  0  0  0  0  0  0
    6.0090   10.8100   -5.6350 C   0  0  0  0  0  0  0  0  0  0  0  0
    7.5160   10.4010   -3.6250 C   0  0  0  0  0  0  0  0  0  0  0  0
    1.2330   11.5400   -1.7290 C   0  0  1  0  0  0  0  0  0  0  0  0
    2.3010   11.4350   -0.6090 C   0  0  0  0  0  0  0  0  0  0  0  0
    2.8240   12.8720   -0.3530 C   0  0  0  0  0  0  0  0  0  0  0  0
    1.8170   13.7890   -1.0870 C   0  0  1  0  0  0  0  0  0  0  0  0
    0.6080   13.9200   -0.1090 C   0  0  0  0  0  0  0  0  0  0  0  0
    2.3540   15.1890   -1.5310 C   0  0  2  0  0  0  0  0  0  0  0  0
    2.8000   16.1110   -0.3830 C   0  0  0  0  0  0  0  0  0  0  0  0
    1.7390   17.0050    0.1660 C   0  0  0  0  0  0  0  0  0  0  0  0
    0.5590   17.2730   -0.4250 C   0  0  0  0  0  0  0  0  0  0  0  0
    0.2370   16.7280   -1.8220 C   0  0  1  0  0  0  0  0  0  0  0  0
   -0.3570   17.8640   -2.6970 C   0  0  0  0  0  0  0  0  0  0  0  0
   -1.5590   18.5390   -2.0420 C   0  0  0  0  0  0  0  0  0  0  0  0
   -1.1840   19.1190   -0.6800 C   0  0  2  0  0  0  0  0  0  0  0  0
   -0.2610   20.1940   -0.8760 O   0  0  0  0  0  0  0  0  0  0  0  0
   -0.5650   18.0680    0.2840 C   0  0  0  0  0  0  0  0  0  0  0  0
   -1.6580   17.0680    0.7340 C   0  0  0  0  0  0  0  0  0  0  0  0
   -0.1020   18.8110    1.5660 C   0  0  0  0  0  0  0  0  0  0  0  0
    1.4150   15.9500   -2.5520 C   0  0  1  0  0  0  0  0  0  0  0  0
    2.3200   16.9570   -3.3250 C   0  0  0  0  0  0  0  0  0  0  0  0
    0.8000   14.9840   -3.6330 C   0  0  0  0  0  0  0  0  0  0  0  0
    0.4000   13.5740   -3.1590 C   0  0  0  0  0  0  0  0  0  0  0  0
    1.5350   12.9190   -2.3660 C   0  0  2  0  0  0  0  0  0  0  0  0
    2.7590   12.7550   -3.3300 C   0  0  0  0  0  0  0  0  0  0  0  0
    0.1463    9.2947   -1.0947 H   0  0  0  0  0  0  0  0  0  0  0  0
   -0.8114    9.6231   -2.5785 H   0  0  0  0  0  0  0  0  0  0  0  0
    0.4271    8.3219   -2.5785 H   0  0  0  0  0  0  0  0  0  0  0  0
    0.9698   10.6405   -3.6756 H   0  0  0  0  0  0  0  0  0  0  0  0
    3.1106    9.8220   -1.7202 H   0  0  0  0  0  0  0  0  0  0  0  0
    2.5152    8.6493   -2.9903 H   0  0  0  0  0  0  0  0  0  0  0  0
    3.5766    9.7007   -4.6498 H   0  0  0  0  0  0  0  0  0  0  0  0
    3.1585   11.3401   -3.9973 H   0  0  0  0  0  0  0  0  0  0  0  0
    4.7687    9.7909   -2.4339 H   0  0  0  0  0  0  0  0  0  0  0  0
    5.0526   11.2915   -5.8869 H   0  0  0  0  0  0  0  0  0  0  0  0
    6.8378   11.3983   -6.0558 H   0  0  0  0  0  0  0  0  0  0  0  0
    6.0300    9.7939   -6.0558 H   0  0  0  0  0  0  0  0  0  0  0  0
    7.4978   10.4055   -2.5252 H   0  0  0  0  0  0  0  0  0  0  0  0
    7.8103    9.4033   -3.9828 H   0  0  0  0  0  0  0  0  0  0  0  0
    8.2406   11.1473   -3.9828 H   0  0  0  0  0  0  0  0  0  0  0  0
    0.1905   11.5072   -1.3795 H   0  0  0  0  0  0  0  0  0  0  0  0
    1.8498   11.0273    0.3076 H   0  0  0  0  0  0  0  0  0  0  0  0
    3.1202   10.7638   -0.9063 H   0  0  0  0  0  0  0  0  0  0  0  0
    2.8381   13.0942    0.7242 H   0  0  0  0  0  0  0  0  0  0  0  0
    3.8544   13.0116   -0.7119 H   0  0  0  0  0  0  0  0  0  0  0  0
    0.9701   13.8808    0.9290 H   0  0  0  0  0  0  0  0  0  0  0  0
    0.0976   14.8787   -0.2833 H   0  0  0  0  0  0  0  0  0  0  0  0
   -0.0959   13.0929   -0.2833 H   0  0  0  0  0  0  0  0  0  0  0  0
    3.2721   14.9264   -2.0770 H   0  0  0  0  0  0  0  0  0  0  0  0
    3.1690   15.4780    0.4374 H   0  0  0  0  0  0  0  0  0  0  0  0
    3.5677   16.7750   -0.8070 H   0  0  0  0  0  0  0  0  0  0  0  0
    1.9374   17.4857    1.1353 H   0  0  0  0  0  0  0  0  0  0  0  0
   -0.5141   15.9382   -1.6737 H   0  0  0  0  0  0  0  0  0  0  0  0
    0.4223   18.6210   -2.8688 H   0  0  0  0  0  0  0  0  0  0  0  0
   -0.6995   17.4145   -3.6407 H   0  0  0  0  0  0  0  0  0  0  0  0
   -1.9152   19.3508   -2.6933 H   0  0  0  0  0  0  0  0  0  0  0  0
   -2.3487   17.7869   -1.8980 H   0  0  0  0  0  0  0  0  0  0  0  0
   -2.1110   19.4725   -0.2050 H   0  0  0  0  0  0  0  0  0  0  0  0
    0.6280   19.8620   -0.6640 H   0  0  0  0  0  0  0  0  0  0  0  0
   -1.6945   17.0346    1.8329 H   0  0  0  0  0  0  0  0  0  0  0  0
   -2.6343   17.3921    0.3444 H   0  0  0  0  0  0  0  0  0  0  0  0
   -1.4218   16.0668    0.3444 H   0  0  0  0  0  0  0  0  0  0  0  0
   -0.4456   18.2596    2.4536 H   0  0  0  0  0  0  0  0  0  0  0  0
    0.9961   18.8749    1.5764 H   0  0  0  0  0  0  0  0  0  0  0  0
   -0.5284   19.8249    1.5764 H   0  0  0  0  0  0  0  0  0  0  0  0
    2.8766   17.5763   -2.6062 H   0  0  0  0  0  0  0  0  0  0  0  0
    3.0290   16.4023   -3.9571 H   0  0  0  0  0  0  0  0  0  0  0  0
    1.6930   17.6030   -3.9571 H   0  0  0  0  0  0  0  0  0  0  0  0
   -0.1019   15.4675   -4.0364 H   0  0  0  0  0  0  0  0  0  0  0  0
    1.6046   14.8233   -4.3656 H   0  0  0  0  0  0  0  0  0  0  0  0
   -0.4903   13.6493   -2.5174 H   0  0  0  0  0  0  0  0  0  0  0  0
    0.1869   12.9545   -4.0426 H   0  0  0  0  0  0  0  0  0  0  0  0
    3.6780   12.6319   -2.7381 H   0  0  0  0  0  0  0  0  0  0  0  0
    2.6100   11.8688   -3.9644 H   0  0  0  0  0  0  0  0  0  0  0  0
    2.8485   13.6492   -3.9644 H   0  0  0  0  0  0  0  0  0  0  0  0
  1  2  1  0
  2  3  1  0
  3  4  1  0
  4  5  1  0
  5  6  1  0
  6  7  1  0
  7  8  1  0
  7  9  1  0
  2 10  1  0
 10 11  1  0
 11 12  1  0
 12 13  1  0
 13 14  1  1
 13 15  1  0
 15 16  1  0
 16 17  1  0
 17 18  2  0
 18 19  1  0
 19 20  1  0
 20 21  1  0
 21 22  1  0
 22 23  1  0
 22 24  1  0
 24 25  1  0
 24 26  1  0
 19 27  1  0
 27 28  1  6
 27 29  1  0
 29 30  1  0
 30 31  1  0
 31 32  1  6
  7  5  1  0
 31 10  1  0
 31 13  1  0
 27 15  1  0
 24 18  1  0
  1 33  1  0
  1 34  1  0
  1 35  1  0
  2 36  1  6
  3 37  1  0
  3 38  1  0
  4 39  1  0
  4 40  1  0
  5 41  1  1
  8 42  1  0
  8 43  1  0
  8 44  1  0
  9 45  1  0
  9 46  1  0
  9 47  1  0
 10 48  1  1
 11 49  1  0
 11 50  1  0
 12 51  1  0
 12 52  1  0
 14 53  1  0
 14 54  1  0
 14 55  1  0
 15 56  1  6
 16 57  1  0
 16 58  1  0
 17 59  1  0
 19 60  1  1
 20 61  1  0
 20 62  1  0
 21 63  1  0
 21 64  1  0
 22 65  1  1
 23 66  1  0
 25 67  1  0
 25 68  1  0
 25 69  1  0
 26 70  1  0
 26 71  1  0
 26 72  1  0
 28 73  1  0
 28 74  1  0
 28 75  1  0
 29 76  1  0
 29 77  1  0
 30 78  1  0
 30 79  1  0
 32 80  1  0
 32 81  1  0
 32 82  1  0
M  END
>  <meeko>  (12) 
{"is_sidechain": [false], "intermolecular_energy": 2.731, "internal_energy": -0.839}

$$$$
EPH_relaxed_0001_pdb2pqr_Repair_33_r2_0001_out
     RDKit          3D

 82 86  0  0  0  0  0  0  0  0999 V2000
   -0.0160   20.0770   -2.0820 C   0  0  0  0  0  0  0  0  0  0  0  0
   -0.4950   18.8090   -1.3700 C   0  0  2  0  0  0  0  0  0  0  0  0
   -0.4250   18.9430    0.1650 C   0  0  0  0  0  0  0  0  0  0  0  0
    0.3780   20.1570    0.6400 C   0  0  0  0  0  0  0  0  0  0  0  0
    1.8550   19.9240    0.5280 C   0  0  2  0  0  0  0  0  0  0  0  0
    2.3180   18.7130    1.1400 O   0  0  0  0  0  0  0  0  0  0  0  0
    2.7970   19.9380    1.7170 C   0  0  0  0  0  0  0  0  0  0  0  0
    2.2980   20.1940    3.1050 C   0  0  0  0  0  0  0  0  0  0  0  0
    4.2520   20.1900    1.4730 C   0  0  0  0  0  0  0  0  0  0  0  0
    0.3320   17.6130   -1.8260 C   0  0  1  0  0  0  0  0  0  0  0  0
    1.8210   17.9750   -2.0720 C   0  0  0  0  0  0  0  0  0  0  0  0
    2.6570   16.7390   -1.6510 C   0  0  0  0  0  0  0  0  0  0  0  0
    1.6200   15.6020   -1.4960 C   0  0  1  0  0  0  0  0  0  0  0  0
    1.3640   15.0920   -2.9490 C   0  0  0  0  0  0  0  0  0  0  0  0
    2.0150   14.4330   -0.5350 C   0  0  2  0  0  0  0  0  0  0  0  0
    3.2590   13.6330   -0.9580 C   0  0  0  0  0  0  0  0  0  0  0  0
    2.9910   12.4510   -1.8300 C   0  0  0  0  0  0  0  0  0  0  0  0
    1.7880   11.8800   -2.0260 C   0  0  0  0  0  0  0  0  0  0  0  0
    0.5520   12.3640   -1.2570 C   0  0  1  0  0  0  0  0  0  0  0  0
   -0.2230   11.1410   -0.6990 C   0  0  0  0  0  0  0  0  0  0  0  0
   -0.5710   10.1260   -1.7830 C   0  0  0  0  0  0  0  0  0  0  0  0
    0.6880    9.6240   -2.4860 C   0  0  2  0  0  0  0  0  0  0  0  0
    1.4650    8.8660   -1.5530 O   0  0  0  0  0  0  0  0  0  0  0  0
    1.5560   10.7690   -3.0800 C   0  0  0  0  0  0  0  0  0  0  0  0
    0.8280   11.3970   -4.2940 C   0  0  0  0  0  0  0  0  0  0  0  0
    2.8620   10.1400   -3.6340 C   0  0  0  0  0  0  0  0  0  0  0  0
    0.8150   13.4760   -0.1520 C   0  0  1  0  0  0  0  0  0  0  0  0
    1.1990   12.8010    1.2010 C   0  0  0  0  0  0  0  0  0  0  0  0
   -0.5210   14.2670    0.1100 C   0  0  0  0  0  0  0  0  0  0  0  0
   -0.7970   15.4830   -0.7950 C   0  0  0  0  0  0  0  0  0  0  0  0
    0.4260   16.4040   -0.8630 C   0  0  2  0  0  0  0  0  0  0  0  0
    0.6940   16.9500    0.5810 C   0  0  0  0  0  0  0  0  0  0  0  0
    0.2691   20.8318   -1.3344 H   0  0  0  0  0  0  0  0  0  0  0  0
    0.8537   19.8377   -2.7116 H   0  0  0  0  0  0  0  0  0  0  0  0
   -0.8267   20.4725   -2.7116 H   0  0  0  0  0  0  0  0  0  0  0  0
   -1.5503   18.6565   -1.6405 H   0  0  0  0  0  0  0  0  0  0  0  0
   -1.4504   19.0312    0.5532 H   0  0  0  0  0  0  0  0  0  0  0  0
    0.0908   18.0480    0.5430 H   0  0  0  0  0  0  0  0  0  0  0  0
    0.1067   21.0270    0.0239 H   0  0  0  0  0  0  0  0  0  0  0  0
    0.1383   20.3334    1.6990 H   0  0  0  0  0  0  0  0  0  0  0  0
    1.8861   20.4382   -0.4439 H   0  0  0  0  0  0  0  0  0  0  0  0
    3.0313   19.8178    3.8335 H   0  0  0  0  0  0  0  0  0  0  0  0
    2.1580   21.2753    3.2507 H   0  0  0  0  0  0  0  0  0  0  0  0
    1.3380   19.6770    3.2507 H   0  0  0  0  0  0  0  0  0  0  0  0
    4.7750   20.2806    2.4364 H   0  0  0  0  0  0  0  0  0  0  0  0
    4.6784   19.3523    0.9016 H   0  0  0  0  0  0  0  0  0  0  0  0
    4.3719   21.1223    0.9016 H   0  0  0  0  0  0  0  0  0  0  0  0
   -0.2324   17.3324   -2.7275 H   0  0  0  0  0  0  0  0  0  0  0  0
    1.9856   18.1990   -3.1363 H   0  0  0  0  0  0  0  0  0  0  0  0
    2.1121   18.8644   -1.4938 H   0  0  0  0  0  0  0  0  0  0  0  0
    3.3961   16.4877   -2.4260 H   0  0  0  0  0  0  0  0  0  0  0  0
    3.2252   16.9148   -0.7257 H   0  0  0  0  0  0  0  0  0  0  0  0
    0.8708   14.1095   -2.9112 H   0  0  0  0  0  0  0  0  0  0  0  0
    0.7177   15.8065   -3.4798 H   0  0  0  0  0  0  0  0  0  0  0  0
    2.3231   15.0006   -3.4798 H   0  0  0  0  0  0  0  0  0  0  0  0
    2.3019   14.9680    0.3823 H   0  0  0  0  0  0  0  0  0  0  0  0
    3.9308   14.3123   -1.5033 H   0  0  0  0  0  0  0  0  0  0  0  0
    3.6943   13.2340   -0.0299 H   0  0  0  0  0  0  0  0  0  0  0  0
    3.8496   12.0093   -2.3570 H   0  0  0  0  0  0  0  0  0  0  0  0
   -0.0717   12.8983   -1.9888 H   0  0  0  0  0  0  0  0  0  0  0  0
    0.3992   10.6460    0.0612 H   0  0  0  0  0  0  0  0  0  0  0  0
   -1.1668   11.5101   -0.2713 H   0  0  0  0  0  0  0  0  0  0  0  0
   -1.0910    9.2726   -1.3233 H   0  0  0  0  0  0  0  0  0  0  0  0
   -1.2169   10.6150   -2.5271 H   0  0  0  0  0  0  0  0  0  0  0  0
    0.3667    9.0017   -3.3343 H   0  0  0  0  0  0  0  0  0  0  0  0
    1.4270    7.9340   -1.8270 H   0  0  0  0  0  0  0  0  0  0  0  0
    0.0400   12.0767   -3.9376 H   0  0  0  0  0  0  0  0  0  0  0  0
    1.5501   11.9602   -4.9034 H   0  0  0  0  0  0  0  0  0  0  0  0
    0.3768   10.6001   -4.9034 H   0  0  0  0  0  0  0  0  0  0  0  0
    3.5041    9.8307   -2.7961 H   0  0  0  0  0  0  0  0  0  0  0  0
    2.6141    9.2625   -4.2493 H   0  0  0  0  0  0  0  0  0  0  0  0
    3.3935   10.8809   -4.2493 H   0  0  0  0  0  0  0  0  0  0  0  0
    0.8445   13.4242    2.0353 H   0  0  0  0  0  0  0  0  0  0  0  0
    0.7310   11.8073    1.2609 H   0  0  0  0  0  0  0  0  0  0  0  0
    2.2923   12.6956    1.2609 H   0  0  0  0  0  0  0  0  0  0  0  0
   -1.3556   13.5617   -0.0165 H   0  0  0  0  0  0  0  0  0  0  0  0
   -0.4167   14.6805    1.1240 H   0  0  0  0  0  0  0  0  0  0  0  0
   -1.0386   15.1300   -1.8084 H   0  0  0  0  0  0  0  0  0  0  0  0
   -1.6404   16.0499   -0.3738 H   0  0  0  0  0  0  0  0  0  0  0  0
    0.3356   16.2198    1.3215 H   0  0  0  0  0  0  0  0  0  0  0  0
    1.7735   17.1110    0.7176 H   0  0  0  0  0  0  0  0  0  0  0  0
    0.1610   17.9025    0.7176 H   0  0  0  0  0  0  0  0  0  0  0  0
  1  2  1  0
  2  3  1  0
  3  4  1  0
  4  5  1  0
  5  6  1  0
  6  7  1  0
  7  8  1  0
  7  9  1  0
  2 10  1  0
 10 11  1  0
 11 12  1  0
 12 13  1  0
 13 14  1  6
 13 15  1  0
 15 16  1  0
 16 17  1  0
 17 18  2  0
 18 19  1  0
 19 20  1  0
 20 21  1  0
 21 22  1  0
 22 23  1  0
 22 24  1  0
 24 25  1  0
 24 26  1  0
 19 27  1  0
 27 28  1  1
 27 29  1  0
 29 30  1  0
 30 31  1  0
 31 32  1  1
  7  5  1  0
 31 10  1  0
 31 13  1  0
 27 15  1  0
 24 18  1  0
  1 33  1  0
  1 34  1  0
  1 35  1  0
  2 36  1  1
  3 37  1  0
  3 38  1  0
  4 39  1  0
  4 40  1  0
  5 41  1  6
  8 42  1  0
  8 43  1  0
  8 44  1  0
  9 45  1  0
  9 46  1  0
  9 47  1  0
 10 48  1  6
 11 49  1  0
 11 50  1  0
 12 51  1  0
 12 52  1  0
 14 53  1  0
 14 54  1  0
 14 55  1  0
 15 56  1  1
 16 57  1  0
 16 58  1  0
 17 59  1  0
 19 60  1  6
 20 61  1  0
 20 62  1  0
 21 63  1  0
 21 64  1  0
 22 65  1  6
 23 66  1  0
 25 67  1  0
 25 68  1  0
 25 69  1  0
 26 70  1  0
 26 71  1  0
 26 72  1  0
 28 73  1  0
 28 74  1  0
 28 75  1  0
 29 76  1  0
 29 77  1  0
 30 78  1  0
 30 79  1  0
 32 80  1  0
 32 81  1  0
 32 82  1  0
M  END
>  <meeko>  (13) 
{"is_sidechain": [false], "intermolecular_energy": 2.731, "internal_energy": -0.839}

$$$$
EPH_relaxed_0001_pdb2pqr_Repair_33_r2_0001_out
     RDKit          3D

 82 86  0  0  0  0  0  0  0  0999 V2000
   -2.3480    7.8490   -2.2110 C   0  0  0  0  0  0  0  0  0  0  0  0
   -2.2630    8.4300   -0.7970 C   0  0  2  0  0  0  0  0  0  0  0  0
   -3.6240    8.3960   -0.0730 C   0  0  0  0  0  0  0  0  0  0  0  0
   -4.8260    8.4970   -1.0160 C   0  0  0  0  0  0  0  0  0  0  0  0
   -5.4070    7.1500   -1.3210 C   0  0  2  0  0  0  0  0  0  0  0  0
   -5.7160    6.9310   -2.7040 O   0  0  0  0  0  0  0  0  0  0  0  0
   -6.8320    6.9420   -1.7980 C   0  0  0  0  0  0  0  0  0  0  0  0
   -7.7650    8.0950   -1.9960 C   0  0  0  0  0  0  0  0  0  0  0  0
   -7.4630    5.5980   -1.6030 C   0  0  0  0  0  0  0  0  0  0  0  0
   -1.7390    9.8600   -0.8530 C   0  0  1  0  0  0  0  0  0  0  0  0
   -1.3250   10.4000    0.5420 C   0  0  0  0  0  0  0  0  0  0  0  0
   -0.1020   11.3260    0.3190 C   0  0  0  0  0  0  0  0  0  0  0  0
   -0.0580   11.5520   -1.2100 C   0  0  1  0  0  0  0  0  0  0  0  0
   -1.1130   12.6700   -1.4810 C   0  0  0  0  0  0  0  0  0  0  0  0
    1.3370   11.9150   -1.8150 C   0  0  2  0  0  0  0  0  0  0  0  0
    1.9420   13.2370   -1.3110 C   0  0  0  0  0  0  0  0  0  0  0  0
    1.5920   14.4460   -2.1140 C   0  0  0  0  0  0  0  0  0  0  0  0
    1.0620   14.4360   -3.3510 C   0  0  0  0  0  0  0  0  0  0  0  0
    0.8520   13.1190   -4.1080 C   0  0  1  0  0  0  0  0  0  0  0  0
    1.3710   13.2680   -5.5620 C   0  0  0  0  0  0  0  0  0  0  0  0
    0.7530   14.4600   -6.2850 C   0  0  0  0  0  0  0  0  0  0  0  0
    1.0330   15.7590   -5.5330 C   0  0  2  0  0  0  0  0  0  0  0  0
    2.4370   16.0280   -5.5840 O   0  0  0  0  0  0  0  0  0  0  0  0
    0.5610   15.7230   -4.0520 C   0  0  0  0  0  0  0  0  0  0  0  0
   -0.9860   15.7360   -3.9980 C   0  0  0  0  0  0  0  0  0  0  0  0
    1.0300   17.0370   -3.3700 C   0  0  0  0  0  0  0  0  0  0  0  0
    1.4070   11.8120   -3.3930 C   0  0  1  0  0  0  0  0  0  0  0  0
    2.9080   11.6020   -3.7590 C   0  0  0  0  0  0  0  0  0  0  0  0
    0.6340   10.5560   -3.9450 C   0  0  0  0  0  0  0  0  0  0  0  0
   -0.6760   10.1770   -3.2290 C   0  0  0  0  0  0  0  0  0  0  0  0
   -0.4760   10.1220   -1.7120 C   0  0  2  0  0  0  0  0  0  0  0  0
    0.5630    8.9900   -1.4070 C   0  0  0  0  0  0  0  0  0  0  0  0
   -2.5070    6.7622   -2.1519 H   0  0  0  0  0  0  0  0  0  0  0  0
   -3.1877    8.3137   -2.7485 H   0  0  0  0  0  0  0  0  0  0  0  0
   -1.4103    8.0537   -2.7485 H   0  0  0  0  0  0  0  0  0  0  0  0
   -1.5670    7.8013   -0.2223 H   0  0  0  0  0  0  0  0  0  0  0  0
   -3.6977    7.4500    0.4834 H   0  0  0  0  0  0  0  0  0  0  0  0
   -3.6588    9.2752    0.5871 H   0  0  0  0  0  0  0  0  0  0  0  0
   -5.5992    9.1196   -0.5422 H   0  0  0  0  0  0  0  0  0  0  0  0
   -4.4834    8.9442   -1.9608 H   0  0  0  0  0  0  0  0  0  0  0  0
   -4.8269    6.6893   -0.5078 H   0  0  0  0  0  0  0  0  0  0  0  0
   -8.0799    8.4842   -1.0165 H   0  0  0  0  0  0  0  0  0  0  0  0
   -7.2523    8.8892   -2.5585 H   0  0  0  0  0  0  0  0  0  0  0  0
   -8.6487    7.7592   -2.5585 H   0  0  0  0  0  0  0  0  0  0  0  0
   -7.5601    5.3912   -0.5270 H   0  0  0  0  0  0  0  0  0  0  0  0
   -8.4592    5.5895   -2.0694 H   0  0  0  0  0  0  0  0  0  0  0  0
   -6.8332    4.8261   -2.0694 H   0  0  0  0  0  0  0  0  0  0  0  0
   -2.6105   10.3577   -1.3033 H   0  0  0  0  0  0  0  0  0  0  0  0
   -2.1538   10.9684    0.9892 H   0  0  0  0  0  0  0  0  0  0  0  0
   -1.0762    9.5756    1.2264 H   0  0  0  0  0  0  0  0  0  0  0  0
   -0.2358   12.2806    0.8490 H   0  0  0  0  0  0  0  0  0  0  0  0
    0.8302   10.8858    0.7028 H   0  0  0  0  0  0  0  0  0  0  0  0
   -1.4844   13.0636   -0.5233 H   0  0  0  0  0  0  0  0  0  0  0  0
   -0.6458   13.4836   -2.0553 H   0  0  0  0  0  0  0  0  0  0  0  0
   -1.9523   12.2507   -2.0553 H   0  0  0  0  0  0  0  0  0  0  0  0
    1.9818   11.1187   -1.4148 H   0  0  0  0  0  0  0  0  0  0  0  0
    1.5919   13.4001   -0.2810 H   0  0  0  0  0  0  0  0  0  0  0  0
    3.0330   13.1229   -1.3928 H   0  0  0  0  0  0  0  0  0  0  0  0
    1.7835   15.4276   -1.6560 H   0  0  0  0  0  0  0  0  0  0  0  0
   -0.2339   12.9433   -4.1159 H   0  0  0  0  0  0  0  0  0  0  0  0
    2.4628   13.3996   -5.5348 H   0  0  0  0  0  0  0  0  0  0  0  0
    1.0859   12.3594   -6.1127 H   0  0  0  0  0  0  0  0  0  0  0  0
    1.1813   14.5296   -7.2958 H   0  0  0  0  0  0  0  0  0  0  0  0
   -0.3358   14.3126   -6.3381 H   0  0  0  0  0  0  0  0  0  0  0  0
    0.4580   16.5564   -6.0264 H   0  0  0  0  0  0  0  0  0  0  0  0
    2.8630   15.2840   -6.0440 H   0  0  0  0  0  0  0  0  0  0  0  0
   -1.3163   15.7388   -2.9487 H   0  0  0  0  0  0  0  0  0  0  0  0
   -1.3630   16.6373   -4.5034 H   0  0  0  0  0  0  0  0  0  0  0  0
   -1.3781   14.8411   -4.5034 H   0  0  0  0  0  0  0  0  0  0  0  0
    0.9876   16.9183   -2.2772 H   0  0  0  0  0  0  0  0  0  0  0  0
    2.0632   17.2598   -3.6748 H   0  0  0  0  0  0  0  0  0  0  0  0
    0.3714   17.8636   -3.6748 H   0  0  0  0  0  0  0  0  0  0  0  0
    3.5021   11.5189   -2.8370 H   0  0  0  0  0  0  0  0  0  0  0  0
    3.0160   10.6800   -4.3491 H   0  0  0  0  0  0  0  0  0  0  0  0
    3.2649   12.4590   -4.3491 H   0  0  0  0  0  0  0  0  0  0  0  0
    0.3921   10.7514   -5.0001 H   0  0  0  0  0  0  0  0  0  0  0  0
    1.3104    9.7050   -3.7771 H   0  0  0  0  0  0  0  0  0  0  0  0
   -1.4445   10.9283   -3.4635 H   0  0  0  0  0  0  0  0  0  0  0  0
   -0.9907    9.1822   -3.5773 H   0  0  0  0  0  0  0  0  0  0  0  0
    0.6697    8.8738   -0.3184 H   0  0  0  0  0  0  0  0  0  0  0  0
    0.2128    8.0433   -1.8442 H   0  0  0  0  0  0  0  0  0  0  0  0
    1.5361    9.2580   -1.8442 H   0  0  0  0  0  0  0  0  0  0  0  0
  1  2  1  0
  2  3  1  0
  3  4  1  0
  4  5  1  0
  5  6  1  0
  6  7  1  0
  7  8  1  0
  7  9  1  0
  2 10  1  0
 10 11  1  0
 11 12  1  0
 12 13  1  0
 13 14  1  1
 13 15  1  0
 15 16  1  0
 16 17  1  0
 17 18  2  0
 18 19  1  0
 19 20  1  0
 20 21  1  0
 21 22  1  0
 22 23  1  0
 22 24  1  0
 24 25  1  0
 24 26  1  0
 19 27  1  0
 27 28  1  1
 27 29  1  0
 29 30  1  0
 30 31  1  0
 31 32  1  6
  7  5  1  0
 31 10  1  0
 31 13  1  0
 27 15  1  0
 24 18  1  0
  1 33  1  0
  1 34  1  0
  1 35  1  0
  2 36  1  1
  3 37  1  0
  3 38  1  0
  4 39  1  0
  4 40  1  0
  5 41  1  1
  8 42  1  0
  8 43  1  0
  8 44  1  0
  9 45  1  0
  9 46  1  0
  9 47  1  0
 10 48  1  6
 11 49  1  0
 11 50  1  0
 12 51  1  0
 12 52  1  0
 14 53  1  0
 14 54  1  0
 14 55  1  0
 15 56  1  1
 16 57  1  0
 16 58  1  0
 17 59  1  0
 19 60  1  6
 20 61  1  0
 20 62  1  0
 21 63  1  0
 21 64  1  0
 22 65  1  6
 23 66  1  0
 25 67  1  0
 25 68  1  0
 25 69  1  0
 26 70  1  0
 26 71  1  0
 26 72  1  0
 28 73  1  0
 28 74  1  0
 28 75  1  0
 29 76  1  0
 29 77  1  0
 30 78  1  0
 30 79  1  0
 32 80  1  0
 32 81  1  0
 32 82  1  0
M  END
>  <meeko>  (14) 
{"is_sidechain": [false], "intermolecular_energy": 2.731, "internal_energy": -0.839}

$$$$
EPH_relaxed_0001_pdb2pqr_Repair_33_r2_0001_out
     RDKit          3D

 82 86  0  0  0  0  0  0  0  0999 V2000
    3.5260   20.1440    0.0750 C   0  0  0  0  0  0  0  0  0  0  0  0
    2.1530   20.1070    0.7510 C   0  0  2  0  0  0  0  0  0  0  0  0
    2.2640   19.9770    2.2840 C   0  0  0  0  0  0  0  0  0  0  0  0
    3.4360   19.1070    2.7440 C   0  0  0  0  0  0  0  0  0  0  0  0
    4.6280   19.9360    3.1190 C   0  0  2  0  0  0  0  0  0  0  0  0
    5.7370   19.8300    2.2170 O   0  0  0  0  0  0  0  0  0  0  0  0
    5.9560   19.3430    3.5510 C   0  0  0  0  0  0  0  0  0  0  0  0
    6.1610   17.8630    3.6330 C   0  0  0  0  0  0  0  0  0  0  0  0
    6.8890   20.1920    4.3570 C   0  0  0  0  0  0  0  0  0  0  0  0
    1.3270   18.9550    0.1890 C   0  0  1  0  0  0  0  0  0  0  0  0
    0.4050   19.3960   -0.9780 C   0  0  0  0  0  0  0  0  0  0  0  0
    0.3430   18.2080   -1.9720 C   0  0  0  0  0  0  0  0  0  0  0  0
    0.9510   17.0170   -1.1950 C   0  0  1  0  0  0  0  0  0  0  0  0
   -0.2100   16.4890   -0.2960 C   0  0  0  0  0  0  0  0  0  0  0  0
    1.5770   15.8750   -2.0610 C   0  0  2  0  0  0  0  0  0  0  0  0
    0.5890   15.1410   -2.9850 C   0  0  0  0  0  0  0  0  0  0  0  0
   -0.0730   13.9440   -2.3880 C   0  0  0  0  0  0  0  0  0  0  0  0
    0.3220   13.3080   -1.2690 C   0  0  0  0  0  0  0  0  0  0  0  0
    1.6010   13.7280   -0.5340 C   0  0  1  0  0  0  0  0  0  0  0  0
    2.4350   12.4670   -0.1840 C   0  0  0  0  0  0  0  0  0  0  0  0
    1.6290   11.4300    0.5930 C   0  0  0  0  0  0  0  0  0  0  0  0
    0.3960   10.9950   -0.1950 C   0  0  2  0  0  0  0  0  0  0  0  0
    0.8220   10.2830   -1.3610 O   0  0  0  0  0  0  0  0  0  0  0  0
   -0.5150   12.1830   -0.6120 C   0  0  0  0  0  0  0  0  0  0  0  0
   -1.2160   12.7660    0.6400 C   0  0  0  0  0  0  0  0  0  0  0  0
   -1.6440   11.6230   -1.5190 C   0  0  0  0  0  0  0  0  0  0  0  0
    2.4690   14.8560   -1.2420 C   0  0  1  0  0  0  0  0  0  0  0  0
    3.4540   14.2080   -2.2620 C   0  0  0  0  0  0  0  0  0  0  0  0
    3.3590   15.5750   -0.1600 C   0  0  0  0  0  0  0  0  0  0  0  0
    2.7260   16.7710    0.5760 C   0  0  0  0  0  0  0  0  0  0  0  0
    2.0990   17.7560   -0.4160 C   0  0  2  0  0  0  0  0  0  0  0  0
    3.2480   18.3210   -1.3200 C   0  0  0  0  0  0  0  0  0  0  0  0
    4.3127   20.1652    0.8436 H   0  0  0  0  0  0  0  0  0  0  0  0
    3.6502   19.2489   -0.5522 H   0  0  0  0  0  0  0  0  0  0  0  0
    3.6018   21.0445   -0.5522 H   0  0  0  0  0  0  0  0  0  0  0  0
    1.6525   21.0626    0.5358 H   0  0  0  0  0  0  0  0  0  0  0  0
    2.3904   20.9834    2.7097 H   0  0  0  0  0  0  0  0  0  0  0  0
    1.3432   19.4866    2.6327 H   0  0  0  0  0  0  0  0  0  0  0  0
    3.1215   18.5186    3.6186 H   0  0  0  0  0  0  0  0  0  0  0  0
    3.7237   18.4501    1.9099 H   0  0  0  0  0  0  0  0  0  0  0  0
    3.9825   20.7051    3.5684 H   0  0  0  0  0  0  0  0  0  0  0  0
    6.2034   17.5566    4.6886 H   0  0  0  0  0  0  0  0  0  0  0  0
    5.3255   17.3490    3.1353 H   0  0  0  0  0  0  0  0  0  0  0  0
    7.1048   17.5954    3.1353 H   0  0  0  0  0  0  0  0  0  0  0  0
    6.7045   20.0241    5.4284 H   0  0  0  0  0  0  0  0  0  0  0  0
    7.9285   19.9236    4.1175 H   0  0  0  0  0  0  0  0  0  0  0  0
    6.7196   21.2521    4.1175 H   0  0  0  0  0  0  0  0  0  0  0  0
    0.8010   18.6414    1.1028 H   0  0  0  0  0  0  0  0  0  0  0  0
   -0.6018   19.6260   -0.5993 H   0  0  0  0  0  0  0  0  0  0  0  0
    0.7932   20.3012   -1.4679 H   0  0  0  0  0  0  0  0  0  0  0  0
   -0.6976   17.9946   -2.2577 H   0  0  0  0  0  0  0  0  0  0  0  0
    0.8850   18.4170   -2.9061 H   0  0  0  0  0  0  0  0  0  0  0  0
    0.0611   16.6123    0.7629 H   0  0  0  0  0  0  0  0  0  0  0  0
   -1.1266   17.0588   -0.5086 H   0  0  0  0  0  0  0  0  0  0  0  0
   -0.3829   15.4237   -0.5086 H   0  0  0  0  0  0  0  0  0  0  0  0
    2.2548   16.4281   -2.7278 H   0  0  0  0  0  0  0  0  0  0  0  0
   -0.1965   15.8535   -3.2772 H   0  0  0  0  0  0  0  0  0  0  0  0
    1.1837   14.7690   -3.8323 H   0  0  0  0  0  0  0  0  0  0  0  0
   -0.9587   13.5478   -2.9062 H   0  0  0  0  0  0  0  0  0  0  0  0
    1.2712   14.2260    0.3897 H   0  0  0  0  0  0  0  0  0  0  0  0
    2.7910   12.0090   -1.1186 H   0  0  0  0  0  0  0  0  0  0  0  0
    3.2718   12.7865    0.4544 H   0  0  0  0  0  0  0  0  0  0  0  0
    2.2624   10.5513    0.7843 H   0  0  0  0  0  0  0  0  0  0  0  0
    1.2991   11.8801    1.5409 H   0  0  0  0  0  0  0  0  0  0  0  0
   -0.2075   10.3535    0.4640 H   0  0  0  0  0  0  0  0  0  0  0  0
    0.8170   10.9080   -2.1060 H   0  0  0  0  0  0  0  0  0  0  0  0
   -0.7374   12.3680    1.5469 H   0  0  0  0  0  0  0  0  0  0  0  0
   -1.1299   13.8626    0.6311 H   0  0  0  0  0  0  0  0  0  0  0  0
   -2.2785   12.4815    0.6311 H   0  0  0  0  0  0  0  0  0  0  0  0
   -2.4533   11.2216   -0.8914 H   0  0  0  0  0  0  0  0  0  0  0  0
   -2.0383   12.4300   -2.1541 H   0  0  0  0  0  0  0  0  0  0  0  0
   -1.2402   10.8207   -2.1541 H   0  0  0  0  0  0  0  0  0  0  0  0
    4.2525   13.6827   -1.7176 H   0  0  0  0  0  0  0  0  0  0  0  0
    2.9086   13.4917   -2.8941 H   0  0  0  0  0  0  0  0  0  0  0  0
    3.8959   14.9924   -2.8941 H   0  0  0  0  0  0  0  0  0  0  0  0
    3.6331   14.8255    0.5970 H   0  0  0  0  0  0  0  0  0  0  0  0
    4.2073   15.9969   -0.7189 H   0  0  0  0  0  0  0  0  0  0  0  0
    1.9460   16.4018    1.2582 H   0  0  0  0  0  0  0  0  0  0  0  0
    3.5138   17.2935    1.1385 H   0  0  0  0  0  0  0  0  0  0  0  0
    4.0536   18.7171   -0.6843 H   0  0  0  0  0  0  0  0  0  0  0  0
    3.6447   17.5152   -1.9551 H   0  0  0  0  0  0  0  0  0  0  0  0
    2.8521   19.1272   -1.9551 H   0  0  0  0  0  0  0  0  0  0  0  0
  1  2  1  0
  2  3  1  0
  3  4  1  0
  4  5  1  0
  5  6  1  0
  6  7  1  0
  7  8  1  0
  7  9  1  0
  2 10  1  0
 10 11  1  0
 11 12  1  0
 12 13  1  0
 13 14  1  1
 13 15  1  0
 15 16  1  0
 16 17  1  0
 17 18  2  0
 18 19  1  0
 19 20  1  0
 20 21  1  0
 21 22  1  0
 22 23  1  0
 22 24  1  0
 24 25  1  0
 24 26  1  0
 19 27  1  0
 27 28  1  6
 27 29  1  0
 29 30  1  0
 30 31  1  0
 31 32  1  6
  7  5  1  0
 31 10  1  0
 31 13  1  0
 27 15  1  0
 24 18  1  0
  1 33  1  0
  1 34  1  0
  1 35  1  0
  2 36  1  1
  3 37  1  0
  3 38  1  0
  4 39  1  0
  4 40  1  0
  5 41  1  1
  8 42  1  0
  8 43  1  0
  8 44  1  0
  9 45  1  0
  9 46  1  0
  9 47  1  0
 10 48  1  1
 11 49  1  0
 11 50  1  0
 12 51  1  0
 12 52  1  0
 14 53  1  0
 14 54  1  0
 14 55  1  0
 15 56  1  6
 16 57  1  0
 16 58  1  0
 17 59  1  0
 19 60  1  1
 20 61  1  0
 20 62  1  0
 21 63  1  0
 21 64  1  0
 22 65  1  1
 23 66  1  0
 25 67  1  0
 25 68  1  0
 25 69  1  0
 26 70  1  0
 26 71  1  0
 26 72  1  0
 28 73  1  0
 28 74  1  0
 28 75  1  0
 29 76  1  0
 29 77  1  0
 30 78  1  0
 30 79  1  0
 32 80  1  0
 32 81  1  0
 32 82  1  0
M  END
>  <meeko>  (15) 
{"is_sidechain": [false], "intermolecular_energy": 2.731, "internal_energy": -0.839}

$$$$
EPH_relaxed_0001_pdb2pqr_Repair_33_r2_0001_out
     RDKit          3D

 82 86  0  0  0  0  0  0  0  0999 V2000
   -2.6010   10.3240   -0.5500 C   0  0  0  0  0  0  0  0  0  0  0  0
   -1.2280   10.4860   -1.2090 C   0  0  2  0  0  0  0  0  0  0  0  0
   -0.3450    9.2350   -1.0250 C   0  0  0  0  0  0  0  0  0  0  0  0
   -1.1410    7.9480   -0.7970 C   0  0  0  0  0  0  0  0  0  0  0  0
   -1.8090    7.4780   -2.0540 C   0  0  2  0  0  0  0  0  0  0  0  0
   -2.5730    8.4810   -2.7360 O   0  0  0  0  0  0  0  0  0  0  0  0
   -3.3140    7.3680   -2.2100 C   0  0  0  0  0  0  0  0  0  0  0  0
   -4.2430    7.7280   -1.0940 C   0  0  0  0  0  0  0  0  0  0  0  0
   -3.8580    6.4550   -3.2640 C   0  0  0  0  0  0  0  0  0  0  0  0
   -0.5200   11.7110   -0.6430 C   0  0  1  0  0  0  0  0  0  0  0  0
    0.6940   11.3410    0.2500 C   0  0  0  0  0  0  0  0  0  0  0  0
    1.7640   12.4400    0.0270 C   0  0  0  0  0  0  0  0  0  0  0  0
    1.0150   13.5690   -0.7190 C   0  0  1  0  0  0  0  0  0  0  0  0
    0.2600   14.3550    0.3990 C   0  0  0  0  0  0  0  0  0  0  0  0
    1.8940   14.5170   -1.5980 C   0  0  2  0  0  0  0  0  0  0  0  0
    2.9480   15.3310   -0.8280 C   0  0  0  0  0  0  0  0  0  0  0  0
    2.4920   16.6670   -0.3410 C   0  0  0  0  0  0  0  0  0  0  0  0
    1.3860   17.3140   -0.7530 C   0  0  0  0  0  0  0  0  0  0  0  0
    0.5140   16.7440   -1.8790 C   0  0  1  0  0  0  0  0  0  0  0  0
    0.1730   17.8700   -2.8900 C   0  0  0  0  0  0  0  0  0  0  0  0
   -0.4590   19.0860   -2.2210 C   0  0  0  0  0  0  0  0  0  0  0  0
    0.4620   19.6590   -1.1470 C   0  0  2  0  0  0  0  0  0  0  0  0
    1.6290   20.1940   -1.7790 O   0  0  0  0  0  0  0  0  0  0  0  0
    0.8810   18.6120   -0.0770 C   0  0  0  0  0  0  0  0  0  0  0  0
   -0.3390   18.2570    0.8090 C   0  0  0  0  0  0  0  0  0  0  0  0
    1.9200   19.2800    0.8630 C   0  0  0  0  0  0  0  0  0  0  0  0
    1.0660   15.4340   -2.5890 C   0  0  1  0  0  0  0  0  0  0  0  0
    2.0340   15.8230   -3.7480 C   0  0  0  0  0  0  0  0  0  0  0  0
   -0.1350   14.6630   -3.2540 C   0  0  0  0  0  0  0  0  0  0  0  0
   -0.8880   13.6530   -2.3680 C   0  0  0  0  0  0  0  0  0  0  0  0
    0.0900   12.7120   -1.6570 C   0  0  2  0  0  0  0  0  0  0  0  0
    0.8490   11.8920   -2.7550 C   0  0  0  0  0  0  0  0  0  0  0  0
   -2.4865   10.3375    0.5439 H   0  0  0  0  0  0  0  0  0  0  0  0
   -3.2565   11.1510   -0.8603 H   0  0  0  0  0  0  0  0  0  0  0  0
   -3.0461    9.3671   -0.8603 H   0  0  0  0  0  0  0  0  0  0  0  0
   -1.3929   10.6185   -2.2885 H   0  0  0  0  0  0  0  0  0  0  0  0
    0.2695    9.1078   -1.9284 H   0  0  0  0  0  0  0  0  0  0  0  0
    0.2632    9.4007   -0.1235 H   0  0  0  0  0  0  0  0  0  0  0  0
   -0.4561    7.1635   -0.4427 H   0  0  0  0  0  0  0  0  0  0  0  0
   -1.9223    8.1561   -0.0512 H   0  0  0  0  0  0  0  0  0  0  0  0
   -0.9931    6.7669   -2.2505 H   0  0  0  0  0  0  0  0  0  0  0  0
   -3.7493    7.5367   -0.1298 H   0  0  0  0  0  0  0  0  0  0  0  0
   -4.5069    8.7935   -1.1658 H   0  0  0  0  0  0  0  0  0  0  0  0
   -5.1559    7.1185   -1.1658 H   0  0  0  0  0  0  0  0  0  0  0  0
   -4.3651    5.6040   -2.7858 H   0  0  0  0  0  0  0  0  0  0  0  0
   -4.5759    7.0048   -3.8904 H   0  0  0  0  0  0  0  0  0  0  0  0
   -3.0328    6.0853   -3.8904 H   0  0  0  0  0  0  0  0  0  0  0  0
   -1.3609   12.1797   -0.1108 H   0  0  0  0  0  0  0  0  0  0  0  0
    0.3924   11.3148    1.3075 H   0  0  0  0  0  0  0  0  0  0  0  0
    1.0878   10.3475   -0.0104 H   0  0  0  0  0  0  0  0  0  0  0  0
    2.1542   12.8029    0.9893 H   0  0  0  0  0  0  0  0  0  0  0  0
    2.6306   12.0692   -0.5400 H   0  0  0  0  0  0  0  0  0  0  0  0
    0.5971   14.0040    1.3855 H   0  0  0  0  0  0  0  0  0  0  0  0
    0.4732   15.4296    0.2996 H   0  0  0  0  0  0  0  0  0  0  0  0
   -0.8223   14.1852    0.2996 H   0  0  0  0  0  0  0  0  0  0  0  0
    2.4606   13.8061   -2.2174 H   0  0  0  0  0  0  0  0  0  0  0  0
    3.2624   14.7403    0.0450 H   0  0  0  0  0  0  0  0  0  0  0  0
    3.7608   15.5289   -1.5422 H   0  0  0  0  0  0  0  0  0  0  0  0
    3.1126   17.1645    0.4188 H   0  0  0  0  0  0  0  0  0  0  0  0
   -0.4064   16.3829   -1.3969 H   0  0  0  0  0  0  0  0  0  0  0  0
    1.0996   18.1856   -3.3918 H   0  0  0  0  0  0  0  0  0  0  0  0
   -0.5579   17.4656   -3.6057 H   0  0  0  0  0  0  0  0  0  0  0  0
   -0.6482   19.8576   -2.9819 H   0  0  0  0  0  0  0  0  0  0  0  0
   -1.4009   18.7748   -1.7457 H   0  0  0  0  0  0  0  0  0  0  0  0
   -0.0976   20.4432   -0.6161 H   0  0  0  0  0  0  0  0  0  0  0  0
    1.7520   21.1010   -1.4510 H   0  0  0  0  0  0  0  0  0  0  0  0
   -0.0582   18.3387    1.8694 H   0  0  0  0  0  0  0  0  0  0  0  0
   -1.1635   18.9525    0.5934 H   0  0  0  0  0  0  0  0  0  0  0  0
   -0.6616   17.2277    0.5934 H   0  0  0  0  0  0  0  0  0  0  0  0
    1.6371   19.0981    1.9103 H   0  0  0  0  0  0  0  0  0  0  0  0
    2.9153   18.8521    0.6724 H   0  0  0  0  0  0  0  0  0  0  0  0
    1.9439   20.3631    0.6724 H   0  0  0  0  0  0  0  0  0  0  0  0
    2.9768   16.2019   -3.3267 H   0  0  0  0  0  0  0  0  0  0  0  0
    2.2389   14.9374   -4.3674 H   0  0  0  0  0  0  0  0  0  0  0  0
    1.5691   16.6041   -4.3674 H   0  0  0  0  0  0  0  0  0  0  0  0
   -0.8632   15.4131   -3.5962 H   0  0  0  0  0  0  0  0  0  0  0  0
    0.3181   14.0609   -4.0554 H   0  0  0  0  0  0  0  0  0  0  0  0
   -1.4725   14.2010   -1.6143 H   0  0  0  0  0  0  0  0  0  0  0  0
   -1.5515   13.0519   -3.0071 H   0  0  0  0  0  0  0  0  0  0  0  0
    1.5204   11.1666   -2.2723 H   0  0  0  0  0  0  0  0  0  0  0  0
    0.1206   11.3567   -3.3819 H   0  0  0  0  0  0  0  0  0  0  0  0
    1.4389   12.5769   -3.3819 H   0  0  0  0  0  0  0  0  0  0  0  0
  1  2  1  0
  2  3  1  0
  3  4  1  0
  4  5  1  0
  5  6  1  0
  6  7  1  0
  7  8  1  0
  7  9  1  0
  2 10  1  0
 10 11  1  0
 11 12  1  0
 12 13  1  0
 13 14  1  1
 13 15  1  0
 15 16  1  0
 16 17  1  0
 17 18  2  0
 18 19  1  0
 19 20  1  0
 20 21  1  0
 21 22  1  0
 22 23  1  0
 22 24  1  0
 24 25  1  0
 24 26  1  0
 19 27  1  0
 27 28  1  6
 27 29  1  0
 29 30  1  0
 30 31  1  0
 31 32  1  6
  7  5  1  0
 31 10  1  0
 31 13  1  0
 27 15  1  0
 24 18  1  0
  1 33  1  0
  1 34  1  0
  1 35  1  0
  2 36  1  6
  3 37  1  0
  3 38  1  0
  4 39  1  0
  4 40  1  0
  5 41  1  6
  8 42  1  0
  8 43  1  0
  8 44  1  0
  9 45  1  0
  9 46  1  0
  9 47  1  0
 10 48  1  1
 11 49  1  0
 11 50  1  0
 12 51  1  0
 12 52  1  0
 14 53  1  0
 14 54  1  0
 14 55  1  0
 15 56  1  6
 16 57  1  0
 16 58  1  0
 17 59  1  0
 19 60  1  1
 20 61  1  0
 20 62  1  0
 21 63  1  0
 21 64  1  0
 22 65  1  1
 23 66  1  0
 25 67  1  0
 25 68  1  0
 25 69  1  0
 26 70  1  0
 26 71  1  0
 26 72  1  0
 28 73  1  0
 28 74  1  0
 28 75  1  0
 29 76  1  0
 29 77  1  0
 30 78  1  0
 30 79  1  0
 32 80  1  0
 32 81  1  0
 32 82  1  0
M  END
>  <meeko>  (16) 
{"is_sidechain": [false], "intermolecular_energy": 2.731, "internal_energy": -0.839}

$$$$
EPH_relaxed_0001_pdb2pqr_Repair_33_r2_0001_out
     RDKit          3D

 82 86  0  0  0  0  0  0  0  0999 V2000
   -5.1250    6.0410   -2.2170 C   0  0  0  0  0  0  0  0  0  0  0  0
   -5.5090    7.5050   -1.9860 C   0  0  2  0  0  0  0  0  0  0  0  0
   -5.3250    7.9300   -0.5150 C   0  0  0  0  0  0  0  0  0  0  0  0
   -4.2710    9.0220   -0.3180 C   0  0  0  0  0  0  0  0  0  0  0  0
   -2.9110    8.5660   -0.7530 C   0  0  2  0  0  0  0  0  0  0  0  0
   -1.8490    8.9060    0.1480 O   0  0  0  0  0  0  0  0  0  0  0  0
   -1.7980    9.5160   -1.1520 C   0  0  0  0  0  0  0  0  0  0  0  0
   -1.9950   11.0000   -1.1360 C   0  0  0  0  0  0  0  0  0  0  0  0
   -0.6920    8.9990   -2.0180 C   0  0  0  0  0  0  0  0  0  0  0  0
   -6.9520    7.7380   -2.4180 C   0  0  1  0  0  0  0  0  0  0  0  0
   -7.2930    7.0420   -3.7630 C   0  0  0  0  0  0  0  0  0  0  0  0
   -8.7680    6.5760   -3.6650 C   0  0  0  0  0  0  0  0  0  0  0  0
   -9.3240    7.3030   -2.4170 C   0  0  1  0  0  0  0  0  0  0  0  0
   -9.6790    8.7390   -2.9140 C   0  0  0  0  0  0  0  0  0  0  0  0
  -10.5380    6.6220   -1.7050 C   0  0  2  0  0  0  0  0  0  0  0  0
  -11.8120    6.5010   -2.5600 C   0  0  0  0  0  0  0  0  0  0  0  0
  -12.7590    7.6510   -2.4600 C   0  0  0  0  0  0  0  0  0  0  0  0
  -12.7360    8.6020   -1.5060 C   0  0  0  0  0  0  0  0  0  0  0  0
  -11.7460    8.5220   -0.3370 C   0  0  1  0  0  0  0  0  0  0  0  0
  -12.4920    8.8070    0.9930 C   0  0  0  0  0  0  0  0  0  0  0  0
  -13.2560   10.1270    0.9640 C   0  0  0  0  0  0  0  0  0  0  0  0
  -14.2710   10.1450   -0.1750 C   0  0  2  0  0  0  0  0  0  0  0  0
  -15.2870    9.1760    0.0970 O   0  0  0  0  0  0  0  0  0  0  0  0
  -13.6360    9.8610   -1.5660 C   0  0  0  0  0  0  0  0  0  0  0  0
  -12.7610   11.0640   -1.9950 C   0  0  0  0  0  0  0  0  0  0  0  0
  -14.7860    9.7670   -2.6050 C   0  0  0  0  0  0  0  0  0  0  0  0
  -10.8580    7.2050   -0.2700 C   0  0  1  0  0  0  0  0  0  0  0  0
  -11.6220    6.0880    0.5050 C   0  0  0  0  0  0  0  0  0  0  0  0
   -9.5530    7.5080    0.5580 C   0  0  0  0  0  0  0  0  0  0  0  0
   -8.3490    8.0670   -0.2230 C   0  0  0  0  0  0  0  0  0  0  0  0
   -8.0690    7.2270   -1.4740 C   0  0  2  0  0  0  0  0  0  0  0  0
   -7.6870    5.7820   -1.0040 C   0  0  0  0  0  0  0  0  0  0  0  0
   -4.9933    5.5390   -1.2471 H   0  0  0  0  0  0  0  0  0  0  0  0
   -5.9216    5.5382   -2.7849 H   0  0  0  0  0  0  0  0  0  0  0  0
   -4.1841    5.9939   -2.7849 H   0  0  0  0  0  0  0  0  0  0  0  0
   -4.8332    8.1235   -2.5949 H   0  0  0  0  0  0  0  0  0  0  0  0
   -6.2882    8.3049   -0.1386 H   0  0  0  0  0  0  0  0  0  0  0  0
   -4.9763    7.0434    0.0348 H   0  0  0  0  0  0  0  0  0  0  0  0
   -4.5571    9.9042   -0.9095 H   0  0  0  0  0  0  0  0  0  0  0  0
   -4.2245    9.2638    0.7541 H   0  0  0  0  0  0  0  0  0  0  0  0
   -3.3401    7.6828   -1.2489 H   0  0  0  0  0  0  0  0  0  0  0  0
   -2.0418   11.3525   -0.0950 H   0  0  0  0  0  0  0  0  0  0  0  0
   -1.1536   11.4871   -1.6506 H   0  0  0  0  0  0  0  0  0  0  0  0
   -2.9343   11.2508   -1.6506 H   0  0  0  0  0  0  0  0  0  0  0  0
    0.1225    8.6183   -1.3842 H   0  0  0  0  0  0  0  0  0  0  0  0
   -1.0732    8.1858   -2.6531 H   0  0  0  0  0  0  0  0  0  0  0  0
   -0.3125    9.8130   -2.6531 H   0  0  0  0  0  0  0  0  0  0  0  0
   -6.9591    8.8375   -2.4491 H   0  0  0  0  0  0  0  0  0  0  0  0
   -7.1741    7.7499   -4.5965 H   0  0  0  0  0  0  0  0  0  0  0  0
   -6.6216    6.1905   -3.9480 H   0  0  0  0  0  0  0  0  0  0  0  0
   -9.3281    6.8671   -4.5659 H   0  0  0  0  0  0  0  0  0  0  0  0
   -8.8559    5.4824   -3.5849 H   0  0  0  0  0  0  0  0  0  0  0  0
   -9.8417    9.3971   -2.0477 H   0  0  0  0  0  0  0  0  0  0  0  0
   -8.8509    9.1316   -3.5223 H   0  0  0  0  0  0  0  0  0  0  0  0
  -10.5947    8.7005   -3.5223 H   0  0  0  0  0  0  0  0  0  0  0  0
  -10.1783    5.5929   -1.5580 H   0  0  0  0  0  0  0  0  0  0  0  0
  -11.5070    6.4024   -3.6123 H   0  0  0  0  0  0  0  0  0  0  0  0
  -12.3550    5.6254   -2.1747 H   0  0  0  0  0  0  0  0  0  0  0  0
  -13.5410    7.7282   -3.2298 H   0  0  0  0  0  0  0  0  0  0  0  0
  -10.9954    9.3054   -0.5186 H   0  0  0  0  0  0  0  0  0  0  0  0
  -13.2055    7.9907    1.1790 H   0  0  0  0  0  0  0  0  0  0  0  0
  -11.7378    8.8752    1.7908 H   0  0  0  0  0  0  0  0  0  0  0  0
  -13.7849   10.2578    1.9196 H   0  0  0  0  0  0  0  0  0  0  0  0
  -12.5375   10.9450    0.8068 H   0  0  0  0  0  0  0  0  0  0  0  0
  -14.6934   11.1595   -0.2242 H   0  0  0  0  0  0  0  0  0  0  0  0
  -15.7450    9.4510    0.9100 H   0  0  0  0  0  0  0  0  0  0  0  0
  -12.3847   11.5813   -1.1001 H   0  0  0  0  0  0  0  0  0  0  0  0
  -11.9119   10.7044   -2.5948 H   0  0  0  0  0  0  0  0  0  0  0  0
  -13.3646   11.7610   -2.5948 H   0  0  0  0  0  0  0  0  0  0  0  0
  -15.7492    9.6883   -2.0797 H   0  0  0  0  0  0  0  0  0  0  0  0
  -14.7849   10.6682   -3.2357 H   0  0  0  0  0  0  0  0  0  0  0  0
  -14.6386    8.8779   -3.2357 H   0  0  0  0  0  0  0  0  0  0  0  0
  -11.5107    6.2508    1.5872 H   0  0  0  0  0  0  0  0  0  0  0  0
  -12.6884    6.1197    0.2372 H   0  0  0  0  0  0  0  0  0  0  0  0
  -11.2058    5.1056    0.2372 H   0  0  0  0  0  0  0  0  0  0  0  0
   -9.8148    8.2410    1.3353 H   0  0  0  0  0  0  0  0  0  0  0  0
   -9.2205    6.5310    0.9388 H   0  0  0  0  0  0  0  0  0  0  0  0
   -8.5656    9.1021   -0.5256 H   0  0  0  0  0  0  0  0  0  0  0  0
   -7.4627    8.0336    0.4276 H   0  0  0  0  0  0  0  0  0  0  0  0
   -7.6771    5.7446    0.0953 H   0  0  0  0  0  0  0  0  0  0  0  0
   -8.4262    5.0639   -1.3887 H   0  0  0  0  0  0  0  0  0  0  0  0
   -6.6895    5.5230   -1.3887 H   0  0  0  0  0  0  0  0  0  0  0  0
  1  2  1  0
  2  3  1  0
  3  4  1  0
  4  5  1  0
  5  6  1  0
  6  7  1  0
  7  8  1  0
  7  9  1  0
  2 10  1  0
 10 11  1  0
 11 12  1  0
 12 13  1  0
 13 14  1  6
 13 15  1  0
 15 16  1  0
 16 17  1  0
 17 18  2  0
 18 19  1  0
 19 20  1  0
 20 21  1  0
 21 22  1  0
 22 23  1  0
 22 24  1  0
 24 25  1  0
 24 26  1  0
 19 27  1  0
 27 28  1  1
 27 29  1  0
 29 30  1  0
 30 31  1  0
 31 32  1  1
  7  5  1  0
 31 10  1  0
 31 13  1  0
 27 15  1  0
 24 18  1  0
  1 33  1  0
  1 34  1  0
  1 35  1  0
  2 36  1  6
  3 37  1  0
  3 38  1  0
  4 39  1  0
  4 40  1  0
  5 41  1  6
  8 42  1  0
  8 43  1  0
  8 44  1  0
  9 45  1  0
  9 46  1  0
  9 47  1  0
 10 48  1  6
 11 49  1  0
 11 50  1  0
 12 51  1  0
 12 52  1  0
 14 53  1  0
 14 54  1  0
 14 55  1  0
 15 56  1  1
 16 57  1  0
 16 58  1  0
 17 59  1  0
 19 60  1  6
 20 61  1  0
 20 62  1  0
 21 63  1  0
 21 64  1  0
 22 65  1  6
 23 66  1  0
 25 67  1  0
 25 68  1  0
 25 69  1  0
 26 70  1  0
 26 71  1  0
 26 72  1  0
 28 73  1  0
 28 74  1  0
 28 75  1  0
 29 76  1  0
 29 77  1  0
 30 78  1  0
 30 79  1  0
 32 80  1  0
 32 81  1  0
 32 82  1  0
M  END
>  <meeko>  (17) 
{"is_sidechain": [false], "intermolecular_energy": 2.731, "internal_energy": -0.839}

$$$$
EPH_relaxed_0001_pdb2pqr_Repair_33_r2_0001_out
     RDKit          3D

 82 86  0  0  0  0  0  0  0  0999 V2000
    1.4740   10.7170   -4.8140 C   0  0  0  0  0  0  0  0  0  0  0  0
    0.7890   10.5360   -3.4560 C   0  0  2  0  0  0  0  0  0  0  0  0
   -0.3470    9.4960   -3.5130 C   0  0  0  0  0  0  0  0  0  0  0  0
   -0.2130    8.3810   -2.4720 C   0  0  0  0  0  0  0  0  0  0  0  0
    0.0780    8.9280   -1.1070 C   0  0  2  0  0  0  0  0  0  0  0  0
   -0.2790    8.0590   -0.0250 O   0  0  0  0  0  0  0  0  0  0  0  0
   -1.0020    9.2980   -0.1070 C   0  0  0  0  0  0  0  0  0  0  0  0
   -2.4540    9.1350   -0.4290 C   0  0  0  0  0  0  0  0  0  0  0  0
   -0.6640   10.2650    0.9850 C   0  0  0  0  0  0  0  0  0  0  0  0
    0.2470   11.8740   -2.9650 C   0  0  1  0  0  0  0  0  0  0  0  0
   -1.1120   11.7330   -2.2280 C   0  0  0  0  0  0  0  0  0  0  0  0
   -1.1190   12.7950   -1.0980 C   0  0  0  0  0  0  0  0  0  0  0  0
    0.0750   13.7220   -1.4260 C   0  0  1  0  0  0  0  0  0  0  0  0
   -0.4640   14.6980   -2.5180 C   0  0  0  0  0  0  0  0  0  0  0  0
    0.7010   14.4940   -0.2190 C   0  0  2  0  0  0  0  0  0  0  0  0
   -0.2460   15.4820    0.4850 C   0  0  0  0  0  0  0  0  0  0  0  0
   -0.2300   16.8740   -0.0520 C   0  0  0  0  0  0  0  0  0  0  0  0
    0.7120   17.3880   -0.8660 C   0  0  0  0  0  0  0  0  0  0  0  0
    1.9530   16.5710   -1.2480 C   0  0  1  0  0  0  0  0  0  0  0  0
    3.2200   17.4530   -1.0960 C   0  0  0  0  0  0  0  0  0  0  0  0
    3.1190   18.7610   -1.8750 C   0  0  0  0  0  0  0  0  0  0  0  0
    1.9060   19.5720   -1.4250 C   0  0  2  0  0  0  0  0  0  0  0  0
    2.1120   20.0000   -0.0760 O   0  0  0  0  0  0  0  0  0  0  0  0
    0.5710   18.7820   -1.5250 C   0  0  0  0  0  0  0  0  0  0  0  0
    0.1950   18.5800   -3.0140 C   0  0  0  0  0  0  0  0  0  0  0  0
   -0.5510   19.6620   -0.9100 C   0  0  0  0  0  0  0  0  0  0  0  0
    2.1020   15.1600   -0.5330 C   0  0  1  0  0  0  0  0  0  0  0  0
    2.8300   15.3320    0.8350 C   0  0  0  0  0  0  0  0  0  0  0  0
    3.0220   14.2330   -1.4120 C   0  0  0  0  0  0  0  0  0  0  0  0
    2.3270   13.4040   -2.5100 C   0  0  0  0  0  0  0  0  0  0  0  0
    1.1110   12.6610   -1.9480 C   0  0  2  0  0  0  0  0  0  0  0  0
    1.6240   11.6550   -0.8620 C   0  0  0  0  0  0  0  0  0  0  0  0
    2.5269   10.9952   -4.6594 H   0  0  0  0  0  0  0  0  0  0  0  0
    1.4229    9.7745   -5.3789 H   0  0  0  0  0  0  0  0  0  0  0  0
    0.9641   11.5112   -5.3789 H   0  0  0  0  0  0  0  0  0  0  0  0
    1.5452   10.1600   -2.7511 H   0  0  0  0  0  0  0  0  0  0  0  0
   -1.3021   10.0152   -3.3449 H   0  0  0  0  0  0  0  0  0  0  0  0
   -0.2973    9.0193   -4.5031 H   0  0  0  0  0  0  0  0  0  0  0  0
   -1.1543    7.8130   -2.4351 H   0  0  0  0  0  0  0  0  0  0  0  0
    0.6264    7.7348   -2.7682 H   0  0  0  0  0  0  0  0  0  0  0  0
    0.9512    9.4781   -1.4876 H   0  0  0  0  0  0  0  0  0  0  0  0
   -3.0316    9.0702    0.5049 H   0  0  0  0  0  0  0  0  0  0  0  0
   -2.7991   10.0000   -1.0143 H   0  0  0  0  0  0  0  0  0  0  0  0
   -2.5987    8.2150   -1.0143 H   0  0  0  0  0  0  0  0  0  0  0  0
   -0.8308    9.7878    1.9620 H   0  0  0  0  0  0  0  0  0  0  0  0
    0.3914   10.5625    0.8977 H   0  0  0  0  0  0  0  0  0  0  0  0
   -1.3043   11.1552    0.8977 H   0  0  0  0  0  0  0  0  0  0  0  0
    0.2025   12.4175   -3.9203 H   0  0  0  0  0  0  0  0  0  0  0  0
   -1.9424   11.9165   -2.9257 H   0  0  0  0  0  0  0  0  0  0  0  0
   -1.2368   10.7195   -1.8190 H   0  0  0  0  0  0  0  0  0  0  0  0
   -2.0624   13.3606   -1.1026 H   0  0  0  0  0  0  0  0  0  0  0  0
   -1.0332   12.3419   -0.0993 H   0  0  0  0  0  0  0  0  0  0  0  0
   -0.9414   15.5625   -2.0336 H   0  0  0  0  0  0  0  0  0  0  0  0
    0.3710   15.0439   -3.1450 H   0  0  0  0  0  0  0  0  0  0  0  0
   -1.2015   14.1755   -3.1450 H   0  0  0  0  0  0  0  0  0  0  0  0
    0.8857   13.6886    0.5070 H   0  0  0  0  0  0  0  0  0  0  0  0
   -1.2712   15.0941    0.3930 H   0  0  0  0  0  0  0  0  0  0  0  0
    0.1070   15.5531    1.5244 H   0  0  0  0  0  0  0  0  0  0  0  0
   -1.0575   17.5365    0.2417 H   0  0  0  0  0  0  0  0  0  0  0  0
    1.8185   16.2891   -2.3027 H   0  0  0  0  0  0  0  0  0  0  0  0
    3.3610   17.6871   -0.0305 H   0  0  0  0  0  0  0  0  0  0  0  0
    4.0714   16.8873   -1.5022 H   0  0  0  0  0  0  0  0  0  0  0  0
    4.0307   19.3525   -1.7050 H   0  0  0  0  0  0  0  0  0  0  0  0
    3.0070   18.5254   -2.9436 H   0  0  0  0  0  0  0  0  0  0  0  0
    1.8135   20.4324   -2.1041 H   0  0  0  0  0  0  0  0  0  0  0  0
    2.4530   19.2400    0.4250 H   0  0  0  0  0  0  0  0  0  0  0  0
   -0.7722   18.0604   -3.0807 H   0  0  0  0  0  0  0  0  0  0  0  0
    0.1201   19.5593   -3.5094 H   0  0  0  0  0  0  0  0  0  0  0  0
    0.9702   17.9769   -3.5094 H   0  0  0  0  0  0  0  0  0  0  0  0
   -0.4927   19.6163    0.1875 H   0  0  0  0  0  0  0  0  0  0  0  0
   -0.4232   20.7032   -1.2409 H   0  0  0  0  0  0  0  0  0  0  0  0
   -1.5318   19.2898   -1.2409 H   0  0  0  0  0  0  0  0  0  0  0  0
    2.1156   15.1632    1.6543 H   0  0  0  0  0  0  0  0  0  0  0  0
    3.6505   14.6030    0.9079 H   0  0  0  0  0  0  0  0  0  0  0  0
    3.2375   16.3511    0.9079 H   0  0  0  0  0  0  0  0  0  0  0  0
    3.7693   14.8743   -1.9021 H   0  0  0  0  0  0  0  0  0  0  0  0
    3.4374   13.4929   -0.7122 H   0  0  0  0  0  0  0  0  0  0  0  0
    1.9971   14.0773   -3.3149 H   0  0  0  0  0  0  0  0  0  0  0  0
    3.0427   12.6637   -2.8969 H   0  0  0  0  0  0  0  0  0  0  0  0
    1.4175   12.0600    0.1397 H   0  0  0  0  0  0  0  0  0  0  0  0
    1.1072   10.6913   -0.9816 H   0  0  0  0  0  0  0  0  0  0  0  0
    2.7075   11.5074   -0.9816 H   0  0  0  0  0  0  0  0  0  0  0  0
  1  2  1  0
  2  3  1  0
  3  4  1  0
  4  5  1  0
  5  6  1  0
  6  7  1  0
  7  8  1  0
  7  9  1  0
  2 10  1  0
 10 11  1  0
 11 12  1  0
 12 13  1  0
 13 14  1  6
 13 15  1  0
 15 16  1  0
 16 17  1  0
 17 18  2  0
 18 19  1  0
 19 20  1  0
 20 21  1  0
 21 22  1  0
 22 23  1  0
 22 24  1  0
 24 25  1  0
 24 26  1  0
 19 27  1  0
 27 28  1  1
 27 29  1  0
 29 30  1  0
 30 31  1  0
 31 32  1  1
  7  5  1  0
 31 10  1  0
 31 13  1  0
 27 15  1  0
 24 18  1  0
  1 33  1  0
  1 34  1  0
  1 35  1  0
  2 36  1  1
  3 37  1  0
  3 38  1  0
  4 39  1  0
  4 40  1  0
  5 41  1  6
  8 42  1  0
  8 43  1  0
  8 44  1  0
  9 45  1  0
  9 46  1  0
  9 47  1  0
 10 48  1  6
 11 49  1  0
 11 50  1  0
 12 51  1  0
 12 52  1  0
 14 53  1  0
 14 54  1  0
 14 55  1  0
 15 56  1  1
 16 57  1  0
 16 58  1  0
 17 59  1  0
 19 60  1  6
 20 61  1  0
 20 62  1  0
 21 63  1  0
 21 64  1  0
 22 65  1  6
 23 66  1  0
 25 67  1  0
 25 68  1  0
 25 69  1  0
 26 70  1  0
 26 71  1  0
 26 72  1  0
 28 73  1  0
 28 74  1  0
 28 75  1  0
 29 76  1  0
 29 77  1  0
 30 78  1  0
 30 79  1  0
 32 80  1  0
 32 81  1  0
 32 82  1  0
M  END
>  <meeko>  (18) 
{"is_sidechain": [false], "intermolecular_energy": 2.731, "internal_energy": -0.839}

$$$$
EPH_relaxed_0001_pdb2pqr_Repair_33_r2_0001_out
     RDKit          3D

 82 86  0  0  0  0  0  0  0  0999 V2000
    0.0560   17.6250   -2.9760 C   0  0  0  0  0  0  0  0  0  0  0  0
    0.1010   17.1100   -1.5350 C   0  0  2  0  0  0  0  0  0  0  0  0
    0.3920   18.2370   -0.5240 C   0  0  0  0  0  0  0  0  0  0  0  0
    1.8460   18.7180   -0.5400 C   0  0  0  0  0  0  0  0  0  0  0  0
    2.2700   19.2440    0.7980 C   0  0  2  0  0  0  0  0  0  0  0  0
    3.3430   20.1940    0.7540 O   0  0  0  0  0  0  0  0  0  0  0  0
    3.6230   18.9530    1.4210 C   0  0  0  0  0  0  0  0  0  0  0  0
    4.6370   18.1020    0.7220 C   0  0  0  0  0  0  0  0  0  0  0  0
    3.7700   19.0850    2.9040 C   0  0  0  0  0  0  0  0  0  0  0  0
    1.1510   16.0130   -1.4080 C   0  0  1  0  0  0  0  0  0  0  0  0
    1.3410   15.5340    0.0560 C   0  0  0  0  0  0  0  0  0  0  0  0
    1.6440   14.0150   -0.0060 C   0  0  0  0  0  0  0  0  0  0  0  0
    1.9470   13.7380   -1.4970 C   0  0  1  0  0  0  0  0  0  0  0  0
    3.4340   14.1710   -1.6920 C   0  0  0  0  0  0  0  0  0  0  0  0
    1.7020   12.2750   -1.9920 C   0  0  2  0  0  0  0  0  0  0  0  0
    2.5750   11.2030   -1.3180 C   0  0  0  0  0  0  0  0  0  0  0  0
    3.8730   10.9170   -1.9980 C   0  0  0  0  0  0  0  0  0  0  0  0
    4.1960   11.2840   -3.2520 C   0  0  0  0  0  0  0  0  0  0  0  0
    3.1710   11.9780   -4.1590 C   0  0  1  0  0  0  0  0  0  0  0  0
    3.1880   11.3160   -5.5610 C   0  0  0  0  0  0  0  0  0  0  0  0
    4.5840   11.2840   -6.1760 C   0  0  0  0  0  0  0  0  0  0  0  0
    5.5610   10.5360   -5.2730 C   0  0  2  0  0  0  0  0  0  0  0  0
    5.1840    9.1570   -5.2290 O   0  0  0  0  0  0  0  0  0  0  0  0
    5.6220   11.1080   -3.8290 C   0  0  0  0  0  0  0  0  0  0  0  0
    6.3140   12.4940   -3.8470 C   0  0  0  0  0  0  0  0  0  0  0  0
    6.5350   10.1780   -2.9850 C   0  0  0  0  0  0  0  0  0  0  0  0
    1.7030   12.1150   -3.5670 C   0  0  1  0  0  0  0  0  0  0  0  0
    0.8790   10.8290   -3.8830 C   0  0  0  0  0  0  0  0  0  0  0  0
    0.9650   13.3030   -4.2890 C   0  0  0  0  0  0  0  0  0  0  0  0
    1.1500   14.7070   -3.6830 C   0  0  0  0  0  0  0  0  0  0  0  0
    0.8930   14.6900   -2.1730 C   0  0  2  0  0  0  0  0  0  0  0  0
   -0.6020   14.2790   -1.9460 C   0  0  0  0  0  0  0  0  0  0  0  0
   -0.0398   18.7208   -2.9709 H   0  0  0  0  0  0  0  0  0  0  0  0
    0.9824   17.3403   -3.4962 H   0  0  0  0  0  0  0  0  0  0  0  0
   -0.8070   17.1839   -3.4962 H   0  0  0  0  0  0  0  0  0  0  0  0
   -0.8930   16.7029   -1.2981 H   0  0  0  0  0  0  0  0  0  0  0  0
   -0.2592   19.0917   -0.7597 H   0  0  0  0  0  0  0  0  0  0  0  0
    0.2000   17.8271    0.4785 H   0  0  0  0  0  0  0  0  0  0  0  0
    2.4974   17.8752   -0.8146 H   0  0  0  0  0  0  0  0  0  0  0  0
    1.9292   19.5349   -1.2720 H   0  0  0  0  0  0  0  0  0  0  0  0
    1.2445   19.1534    1.1856 H   0  0  0  0  0  0  0  0  0  0  0  0
    5.2563   17.5823    1.4679 H   0  0  0  0  0  0  0  0  0  0  0  0
    4.1225   17.3612    0.0922 H   0  0  0  0  0  0  0  0  0  0  0  0
    5.2773   18.7372    0.0922 H   0  0  0  0  0  0  0  0  0  0  0  0
    3.0411   18.4305    3.4044 H   0  0  0  0  0  0  0  0  0  0  0  0
    4.7885   18.7925    3.1990 H   0  0  0  0  0  0  0  0  0  0  0  0
    3.5884   20.1290    3.1990 H   0  0  0  0  0  0  0  0  0  0  0  0
    2.0169   16.5355   -1.8407 H   0  0  0  0  0  0  0  0  0  0  0  0
    2.1808   16.0690    0.5236 H   0  0  0  0  0  0  0  0  0  0  0  0
    0.4411   15.7330    0.6565 H   0  0  0  0  0  0  0  0  0  0  0  0
    2.5140   13.7667    0.6197 H   0  0  0  0  0  0  0  0  0  0  0  0
    0.8076   13.4072    0.3695 H   0  0  0  0  0  0  0  0  0  0  0  0
    3.9077   14.3089   -0.7088 H   0  0  0  0  0  0  0  0  0  0  0  0
    3.9722   13.3923   -2.2523 H   0  0  0  0  0  0  0  0  0  0  0  0
    3.4700   15.1169   -2.2523 H   0  0  0  0  0  0  0  0  0  0  0  0
    0.6743   12.0801   -1.6516 H   0  0  0  0  0  0  0  0  0  0  0  0
    2.7947   11.5384   -0.2937 H   0  0  0  0  0  0  0  0  0  0  0  0
    1.9966   10.2684   -1.3613 H   0  0  0  0  0  0  0  0  0  0  0  0
    4.6291   10.3593   -1.4259 H   0  0  0  0  0  0  0  0  0  0  0  0
    3.4950   13.0263   -4.2376 H   0  0  0  0  0  0  0  0  0  0  0  0
    2.8199   10.2836   -5.4680 H   0  0  0  0  0  0  0  0  0  0  0  0
    2.5457   11.9168   -6.2217 H   0  0  0  0  0  0  0  0  0  0  0  0
    4.5360   10.7781   -7.1516 H   0  0  0  0  0  0  0  0  0  0  0  0
    4.9385   12.3184   -6.2960 H   0  0  0  0  0  0  0  0  0  0  0  0
    6.5667   10.6594   -5.7012 H   0  0  0  0  0  0  0  0  0  0  0  0
    4.2460    9.1000   -5.4770 H   0  0  0  0  0  0  0  0  0  0  0  0
    6.4832   12.8328   -2.8142 H   0  0  0  0  0  0  0  0  0  0  0  0
    7.2786   12.4154   -4.3698 H   0  0  0  0  0  0  0  0  0  0  0  0
    5.6715   13.2178   -4.3698 H   0  0  0  0  0  0  0  0  0  0  0  0
    6.3557   10.3607   -1.9152 H   0  0  0  0  0  0  0  0  0  0  0  0
    6.3072    9.1280   -3.2209 H   0  0  0  0  0  0  0  0  0  0  0  0
    7.5890   10.3864   -3.2209 H   0  0  0  0  0  0  0  0  0  0  0  0
    0.5719   10.3498   -2.9417 H   0  0  0  0  0  0  0  0  0  0  0  0
   -0.0143   11.0997   -4.4651 H   0  0  0  0  0  0  0  0  0  0  0  0
    1.4982   10.1306   -4.4651 H   0  0  0  0  0  0  0  0  0  0  0  0
    1.3276   13.3382   -5.3269 H   0  0  0  0  0  0  0  0  0  0  0  0
   -0.1074   13.0827   -4.1823 H   0  0  0  0  0  0  0  0  0  0  0  0
    2.1796   15.0466   -3.8691 H   0  0  0  0  0  0  0  0  0  0  0  0
    0.4284   15.3905   -4.1542 H   0  0  0  0  0  0  0  0  0  0  0  0
   -0.8070   14.2227   -0.8667 H   0  0  0  0  0  0  0  0  0  0  0  0
   -1.2623   15.0289   -2.4060 H   0  0  0  0  0  0  0  0  0  0  0  0
   -0.7862   13.2969   -2.4060 H   0  0  0  0  0  0  0  0  0  0  0  0
  1  2  1  0
  2  3  1  0
  3  4  1  0
  4  5  1  0
  5  6  1  0
  6  7  1  0
  7  8  1  0
  7  9  1  0
  2 10  1  0
 10 11  1  0
 11 12  1  0
 12 13  1  0
 13 14  1  6
 13 15  1  0
 15 16  1  0
 16 17  1  0
 17 18  2  0
 18 19  1  0
 19 20  1  0
 20 21  1  0
 21 22  1  0
 22 23  1  0
 22 24  1  0
 24 25  1  0
 24 26  1  0
 19 27  1  0
 27 28  1  1
 27 29  1  0
 29 30  1  0
 30 31  1  0
 31 32  1  6
  7  5  1  0
 31 10  1  0
 31 13  1  0
 27 15  1  0
 24 18  1  0
  1 33  1  0
  1 34  1  0
  1 35  1  0
  2 36  1  1
  3 37  1  0
  3 38  1  0
  4 39  1  0
  4 40  1  0
  5 41  1  1
  8 42  1  0
  8 43  1  0
  8 44  1  0
  9 45  1  0
  9 46  1  0
  9 47  1  0
 10 48  1  6
 11 49  1  0
 11 50  1  0
 12 51  1  0
 12 52  1  0
 14 53  1  0
 14 54  1  0
 14 55  1  0
 15 56  1  1
 16 57  1  0
 16 58  1  0
 17 59  1  0
 19 60  1  6
 20 61  1  0
 20 62  1  0
 21 63  1  0
 21 64  1  0
 22 65  1  6
 23 66  1  0
 25 67  1  0
 25 68  1  0
 25 69  1  0
 26 70  1  0
 26 71  1  0
 26 72  1  0
 28 73  1  0
 28 74  1  0
 28 75  1  0
 29 76  1  0
 29 77  1  0
 30 78  1  0
 30 79  1  0
 32 80  1  0
 32 81  1  0
 32 82  1  0
M  END
>  <meeko>  (19) 
{"is_sidechain": [false], "intermolecular_energy": 2.731, "internal_energy": -0.839}

$$$$
