EPH_relaxed_0001_pdb2pqr_Repair_9_r2_0001_out
     RDKit          3D

 82 86  0  0  0  0  0  0  0  0999 V2000
   -1.7190    8.5830   -1.8650 C   0  0  0  0  0  0  0  0  0  0  0  0
   -2.1040    9.1070   -0.4780 C   0  0  2  0  0  0  0  0  0  0  0  0
   -3.5980    9.4760   -0.3910 C   0  0  0  0  0  0  0  0  0  0  0  0
   -4.5220    8.2670   -0.2230 C   0  0  0  0  0  0  0  0  0  0  0  0
   -5.2180    7.9190   -1.5040 C   0  0  2  0  0  0  0  0  0  0  0  0
   -6.3520    8.7400   -1.8110 O   0  0  0  0  0  0  0  0  0  0  0  0
   -6.6240    7.3510   -1.5640 C   0  0  0  0  0  0  0  0  0  0  0  0
   -7.4180    7.0980   -0.3210 C   0  0  0  0  0  0  0  0  0  0  0  0
   -7.0370    6.5910   -2.7860 C   0  0  0  0  0  0  0  0  0  0  0  0
   -1.2470   10.3170   -0.1240 C   0  0  1  0  0  0  0  0  0  0  0  0
   -0.2250   10.0150    1.0040 C   0  0  0  0  0  0  0  0  0  0  0  0
    1.0480   10.8420    0.6860 C   0  0  0  0  0  0  0  0  0  0  0  0
    0.6050   11.8340   -0.4130 C   0  0  1  0  0  0  0  0  0  0  0  0
   -0.1080   12.9920    0.3550 C   0  0  0  0  0  0  0  0  0  0  0  0
    1.7320   12.3740   -1.3530 C   0  0  2  0  0  0  0  0  0  0  0  0
    2.8300   13.1920   -0.6520 C   0  0  0  0  0  0  0  0  0  0  0  0
    2.5790   14.6620   -0.5750 C   0  0  0  0  0  0  0  0  0  0  0  0
    1.6620   15.3370   -1.2930 C   0  0  0  0  0  0  0  0  0  0  0  0
    0.8260   14.6300   -2.3670 C   0  0  1  0  0  0  0  0  0  0  0  0
    0.8090   15.4880   -3.6590 C   0  0  0  0  0  0  0  0  0  0  0  0
    0.3440   16.9190   -3.4050 C   0  0  0  0  0  0  0  0  0  0  0  0
    1.2350   17.6080   -2.3750 C   0  0  2  0  0  0  0  0  0  0  0  0
    2.5420   17.7750   -2.9340 O   0  0  0  0  0  0  0  0  0  0  0  0
    1.3370   16.8290   -1.0340 C   0  0  0  0  0  0  0  0  0  0  0  0
   -0.0150   16.9080   -0.2820 C   0  0  0  0  0  0  0  0  0  0  0  0
    2.3750   17.5560   -0.1370 C   0  0  0  0  0  0  0  0  0  0  0  0
    1.1990   13.1110   -2.6480 C   0  0  1  0  0  0  0  0  0  0  0  0
    2.3400   13.0310   -3.7070 C   0  0  0  0  0  0  0  0  0  0  0  0
   -0.0460   12.3840   -3.2810 C   0  0  0  0  0  0  0  0  0  0  0  0
   -1.0630   11.7680   -2.3010 C   0  0  0  0  0  0  0  0  0  0  0  0
   -0.3580   10.9110   -1.2450 C   0  0  2  0  0  0  0  0  0  0  0  0
    0.3500    9.7260   -1.9870 C   0  0  0  0  0  0  0  0  0  0  0  0
   -1.0709    7.7008   -1.7568 H   0  0  0  0  0  0  0  0  0  0  0  0
   -2.6286    8.3041   -2.4171 H   0  0  0  0  0  0  0  0  0  0  0  0
   -1.1811    9.3677   -2.4171 H   0  0  0  0  0  0  0  0  0  0  0  0
   -1.9216    8.2977    0.2443 H   0  0  0  0  0  0  0  0  0  0  0  0
   -3.7409   10.1446    0.4707 H   0  0  0  0  0  0  0  0  0  0  0  0
   -3.8665    9.9557   -1.3438 H   0  0  0  0  0  0  0  0  0  0  0  0
   -3.9236    7.4037    0.1035 H   0  0  0  0  0  0  0  0  0  0  0  0
   -5.2874    8.5217    0.5249 H   0  0  0  0  0  0  0  0  0  0  0  0
   -4.2706    7.5934   -1.9583 H   0  0  0  0  0  0  0  0  0  0  0  0
   -6.7918    7.2975    0.5611 H   0  0  0  0  0  0  0  0  0  0  0  0
   -8.2956    7.7610   -0.3052 H   0  0  0  0  0  0  0  0  0  0  0  0
   -7.7502    6.0495   -0.3052 H   0  0  0  0  0  0  0  0  0  0  0  0
   -7.5423    5.6611   -2.4861 H   0  0  0  0  0  0  0  0  0  0  0  0
   -7.7252    7.2056   -3.3849 H   0  0  0  0  0  0  0  0  0  0  0  0
   -6.1469    6.3479   -3.3849 H   0  0  0  0  0  0  0  0  0  0  0  0
   -2.0386   11.0314    0.1464 H   0  0  0  0  0  0  0  0  0  0  0  0
   -0.6374   10.3139    1.9790 H   0  0  0  0  0  0  0  0  0  0  0  0
    0.0037    8.9402    1.0530 H   0  0  0  0  0  0  0  0  0  0  0  0
    1.3935   11.3819    1.5799 H   0  0  0  0  0  0  0  0  0  0  0  0
    1.8866   10.2082    0.3620 H   0  0  0  0  0  0  0  0  0  0  0  0
   -0.0080   12.8296    1.4383 H   0  0  0  0  0  0  0  0  0  0  0  0
    0.3557   13.9519    0.0838 H   0  0  0  0  0  0  0  0  0  0  0  0
   -1.1739   13.0101    0.0838 H   0  0  0  0  0  0  0  0  0  0  0  0
    2.2199   11.4481   -1.6916 H   0  0  0  0  0  0  0  0  0  0  0  0
    2.9348   12.8108    0.3745 H   0  0  0  0  0  0  0  0  0  0  0  0
    3.7371   13.0696   -1.2621 H   0  0  0  0  0  0  0  0  0  0  0  0
    3.1953   15.2421    0.1276 H   0  0  0  0  0  0  0  0  0  0  0  0
   -0.1919   14.5528   -1.9572 H   0  0  0  0  0  0  0  0  0  0  0  0
    1.8262   15.5167   -4.0767 H   0  0  0  0  0  0  0  0  0  0  0  0
    0.0972   15.0247   -4.3581 H   0  0  0  0  0  0  0  0  0  0  0  0
    0.3825   17.4828   -4.3487 H   0  0  0  0  0  0  0  0  0  0  0  0
   -0.6844   16.8898   -3.0157 H   0  0  0  0  0  0  0  0  0  0  0  0
    0.7759   18.5795   -2.1396 H   0  0  0  0  0  0  0  0  0  0  0  0
    2.4840   18.4660   -3.6150 H   0  0  0  0  0  0  0  0  0  0  0  0
    0.1676   16.8973    0.8027 H   0  0  0  0  0  0  0  0  0  0  0  0
   -0.5339   17.8380   -0.5573 H   0  0  0  0  0  0  0  0  0  0  0  0
   -0.6387   16.0448   -0.5573 H   0  0  0  0  0  0  0  0  0  0  0  0
    2.1294   17.3840    0.9213 H   0  0  0  0  0  0  0  0  0  0  0  0
    3.3808   17.1639   -0.3484 H   0  0  0  0  0  0  0  0  0  0  0  0
    2.3503   18.6352   -0.3484 H   0  0  0  0  0  0  0  0  0  0  0  0
    3.3112   12.9629   -3.1951 H   0  0  0  0  0  0  0  0  0  0  0  0
    2.1942   12.1409   -4.3366 H   0  0  0  0  0  0  0  0  0  0  0  0
    2.3198   13.9328   -4.3366 H   0  0  0  0  0  0  0  0  0  0  0  0
   -0.5824   13.1195   -3.8986 H   0  0  0  0  0  0  0  0  0  0  0  0
    0.3706   11.5314   -3.8373 H   0  0  0  0  0  0  0  0  0  0  0  0
   -1.6139   12.5768   -1.7987 H   0  0  0  0  0  0  0  0  0  0  0  0
   -1.7530   11.1268   -2.8691 H   0  0  0  0  0  0  0  0  0  0  0  0
    0.7675    9.0272   -1.2471 H   0  0  0  0  0  0  0  0  0  0  0  0
   -0.3813    9.1989   -2.6173 H   0  0  0  0  0  0  0  0  0  0  0  0
    1.1607   10.1202   -2.6173 H   0  0  0  0  0  0  0  0  0  0  0  0
  1  2  1  0
  2  3  1  0
  3  4  1  0
  4  5  1  0
  5  6  1  0
  6  7  1  0
  7  8  1  0
  7  9  1  0
  2 10  1  0
 10 11  1  0
 11 12  1  0
 12 13  1  0
 13 14  1  1
 13 15  1  0
 15 16  1  0
 16 17  1  0
 17 18  2  0
 18 19  1  0
 19 20  1  0
 20 21  1  0
 21 22  1  0
 22 23  1  0
 22 24  1  0
 24 25  1  0
 24 26  1  0
 19 27  1  0
 27 28  1  6
 27 29  1  0
 29 30  1  0
 30 31  1  0
 31 32  1  6
  7  5  1  0
 31 10  1  0
 31 13  1  0
 27 15  1  0
 24 18  1  0
  1 33  1  0
  1 34  1  0
  1 35  1  0
  2 36  1  1
  3 37  1  0
  3 38  1  0
  4 39  1  0
  4 40  1  0
  5 41  1  6
  8 42  1  0
  8 43  1  0
  8 44  1  0
  9 45  1  0
  9 46  1  0
  9 47  1  0
 10 48  1  1
 11 49  1  0
 11 50  1  0
 12 51  1  0
 12 52  1  0
 14 53  1  0
 14 54  1  0
 14 55  1  0
 15 56  1  6
 16 57  1  0
 16 58  1  0
 17 59  1  0
 19 60  1  1
 20 61  1  0
 20 62  1  0
 21 63  1  0
 21 64  1  0
 22 65  1  1
 23 66  1  0
 25 67  1  0
 25 68  1  0
 25 69  1  0
 26 70  1  0
 26 71  1  0
 26 72  1  0
 28 73  1  0
 28 74  1  0
 28 75  1  0
 29 76  1  0
 29 77  1  0
 30 78  1  0
 30 79  1  0
 32 80  1  0
 32 81  1  0
 32 82  1  0
M  END
>  <meeko>  (1) 
{"is_sidechain": [false], "intermolecular_energy": 2.731, "internal_energy": -0.839}

$$$$
EPH_relaxed_0001_pdb2pqr_Repair_9_r2_0001_out
     RDKit          3D

 82 86  0  0  0  0  0  0  0  0999 V2000
    4.1920   17.6270   -0.6020 C   0  0  0  0  0  0  0  0  0  0  0  0
    2.8310   18.1750   -0.1610 C   0  0  2  0  0  0  0  0  0  0  0  0
    2.8950   18.8430    1.2270 C   0  0  0  0  0  0  0  0  0  0  0  0
    4.2450   18.6740    1.9290 C   0  0  0  0  0  0  0  0  0  0  0  0
    4.2330   19.2710    3.3040 C   0  0  2  0  0  0  0  0  0  0  0  0
    5.2980   20.1940    3.5650 O   0  0  0  0  0  0  0  0  0  0  0  0
    5.2980   18.9890    4.3470 C   0  0  0  0  0  0  0  0  0  0  0  0
    6.4500   18.0780    4.0600 C   0  0  0  0  0  0  0  0  0  0  0  0
    4.9620   19.2070    5.7900 C   0  0  0  0  0  0  0  0  0  0  0  0
    1.7980   17.0540   -0.1520 C   0  0  1  0  0  0  0  0  0  0  0  0
    0.3630   17.5620   -0.4520 C   0  0  0  0  0  0  0  0  0  0  0  0
   -0.3470   16.4450   -1.2600 C   0  0  0  0  0  0  0  0  0  0  0  0
    0.5740   15.2110   -1.1130 C   0  0  1  0  0  0  0  0  0  0  0  0
    0.2160   14.6060    0.2800 C   0  0  0  0  0  0  0  0  0  0  0  0
    0.4820   14.1400   -2.2480 C   0  0  2  0  0  0  0  0  0  0  0  0
   -0.8900   13.4590   -2.3930 C   0  0  0  0  0  0  0  0  0  0  0  0
   -1.0720   12.2140   -1.5890 C   0  0  0  0  0  0  0  0  0  0  0  0
   -0.0840   11.5080   -1.0070 C   0  0  0  0  0  0  0  0  0  0  0  0
    1.3860   11.8930   -1.2130 C   0  0  1  0  0  0  0  0  0  0  0  0
    2.2130   10.6230   -1.5430 C   0  0  0  0  0  0  0  0  0  0  0  0
    2.0380    9.5240   -0.4990 C   0  0  0  0  0  0  0  0  0  0  0  0
    0.5700    9.1270   -0.3650 C   0  0  2  0  0  0  0  0  0  0  0  0
    0.1480    8.5040   -1.5820 O   0  0  0  0  0  0  0  0  0  0  0  0
   -0.3620   10.3280   -0.0430 C   0  0  0  0  0  0  0  0  0  0  0  0
   -0.1040   10.8130    1.4050 C   0  0  0  0  0  0  0  0  0  0  0  0
   -1.8280    9.8170   -0.0750 C   0  0  0  0  0  0  0  0  0  0  0  0
    1.6560   13.0790   -2.2360 C   0  0  1  0  0  0  0  0  0  0  0  0
    1.7630   12.5170   -3.6860 C   0  0  0  0  0  0  0  0  0  0  0  0
    3.0500   13.7330   -1.9090 C   0  0  0  0  0  0  0  0  0  0  0  0
    3.0580   14.8670   -0.8660 C   0  0  0  0  0  0  0  0  0  0  0  0
    1.9810   15.9100   -1.1810 C   0  0  2  0  0  0  0  0  0  0  0  0
    2.3280   16.5520   -2.5680 C   0  0  0  0  0  0  0  0  0  0  0  0
    4.7947   17.3843    0.2857 H   0  0  0  0  0  0  0  0  0  0  0  0
    4.0438   16.7185   -1.2041 H   0  0  0  0  0  0  0  0  0  0  0  0
    4.7147   18.3847   -1.2041 H   0  0  0  0  0  0  0  0  0  0  0  0
    2.5354   18.9481   -0.8856 H   0  0  0  0  0  0  0  0  0  0  0  0
    2.6995   19.9185    1.1043 H   0  0  0  0  0  0  0  0  0  0  0  0
    2.1407   18.3488    1.8570 H   0  0  0  0  0  0  0  0  0  0  0  0
    4.4739   17.6010    2.0081 H   0  0  0  0  0  0  0  0  0  0  0  0
    5.0087   19.1969    1.3346 H   0  0  0  0  0  0  0  0  0  0  0  0
    3.1345   19.2258    3.3400 H   0  0  0  0  0  0  0  0  0  0  0  0
    6.8883   17.7314    5.0075 H   0  0  0  0  0  0  0  0  0  0  0  0
    6.0972   17.2120    3.4808 H   0  0  0  0  0  0  0  0  0  0  0  0
    7.2114   18.6210    3.4808 H   0  0  0  0  0  0  0  0  0  0  0  0
    5.7181   18.7165    6.4207 H   0  0  0  0  0  0  0  0  0  0  0  0
    4.9494   20.2858    6.0046 H   0  0  0  0  0  0  0  0  0  0  0  0
    3.9717   18.7789    6.0046 H   0  0  0  0  0  0  0  0  0  0  0  0
    1.9505   16.6707    0.8677 H   0  0  0  0  0  0  0  0  0  0  0  0
   -0.1763   17.7508    0.4880 H   0  0  0  0  0  0  0  0  0  0  0  0
    0.3880   18.5045   -1.0187 H   0  0  0  0  0  0  0  0  0  0  0  0
   -1.3435   16.2376   -0.8428 H   0  0  0  0  0  0  0  0  0  0  0  0
   -0.5028   16.7261   -2.3120 H   0  0  0  0  0  0  0  0  0  0  0  0
    0.6034   15.2607    1.0746 H   0  0  0  0  0  0  0  0  0  0  0  0
   -0.8768   14.5228    0.3737 H   0  0  0  0  0  0  0  0  0  0  0  0
    0.6691   13.6080    0.3737 H   0  0  0  0  0  0  0  0  0  0  0  0
    0.6112   14.7476   -3.1558 H   0  0  0  0  0  0  0  0  0  0  0  0
   -1.6615   14.1794   -2.0834 H   0  0  0  0  0  0  0  0  0  0  0  0
   -0.9690   13.1549   -3.4472 H   0  0  0  0  0  0  0  0  0  0  0  0
   -2.0994   11.8423   -1.4614 H   0  0  0  0  0  0  0  0  0  0  0  0
    1.7240   12.3211   -0.2578 H   0  0  0  0  0  0  0  0  0  0  0  0
    1.8897   10.2357   -2.5205 H   0  0  0  0  0  0  0  0  0  0  0  0
    3.2751   10.9089   -1.5524 H   0  0  0  0  0  0  0  0  0  0  0  0
    2.6228    8.6431   -0.8022 H   0  0  0  0  0  0  0  0  0  0  0  0
    2.3890    9.9033    0.4720 H   0  0  0  0  0  0  0  0  0  0  0  0
    0.4923    8.4326    0.4846 H   0  0  0  0  0  0  0  0  0  0  0  0
   -0.8230    8.4600   -1.5690 H   0  0  0  0  0  0  0  0  0  0  0  0
   -0.4983   10.0718    2.1157 H   0  0  0  0  0  0  0  0  0  0  0  0
    0.9777   10.9341    1.5639 H   0  0  0  0  0  0  0  0  0  0  0  0
   -0.6082   11.7777    1.5639 H   0  0  0  0  0  0  0  0  0  0  0  0
   -2.1943    9.6893    0.9543 H   0  0  0  0  0  0  0  0  0  0  0  0
   -2.4597   10.5480   -0.6010 H   0  0  0  0  0  0  0  0  0  0  0  0
   -1.8685    8.8518   -0.6010 H   0  0  0  0  0  0  0  0  0  0  0  0
    1.9686   11.4371   -3.6464 H   0  0  0  0  0  0  0  0  0  0  0  0
    0.8157   12.6907   -4.2174 H   0  0  0  0  0  0  0  0  0  0  0  0
    2.5802   13.0266   -4.2174 H   0  0  0  0  0  0  0  0  0  0  0  0
    3.7128   12.9365   -1.5397 H   0  0  0  0  0  0  0  0  0  0  0  0
    3.3744   14.2040   -2.8486 H   0  0  0  0  0  0  0  0  0  0  0  0
    2.8661   14.4412    0.1299 H   0  0  0  0  0  0  0  0  0  0  0  0
    4.0412   15.3597   -0.8914 H   0  0  0  0  0  0  0  0  0  0  0  0
    2.8456   17.5096   -2.4096 H   0  0  0  0  0  0  0  0  0  0  0  0
    2.9811   15.8714   -3.1339 H   0  0  0  0  0  0  0  0  0  0  0  0
    1.4009   16.7256   -3.1339 H   0  0  0  0  0  0  0  0  0  0  0  0
  1  2  1  0
  2  3  1  0
  3  4  1  0
  4  5  1  0
  5  6  1  0
  6  7  1  0
  7  8  1  0
  7  9  1  0
  2 10  1  0
 10 11  1  0
 11 12  1  0
 12 13  1  0
 13 14  1  1
 13 15  1  0
 15 16  1  0
 16 17  1  0
 17 18  2  0
 18 19  1  0
 19 20  1  0
 20 21  1  0
 21 22  1  0
 22 23  1  0
 22 24  1  0
 24 25  1  0
 24 26  1  0
 19 27  1  0
 27 28  1  6
 27 29  1  0
 29 30  1  0
 30 31  1  0
 31 32  1  6
  7  5  1  0
 31 10  1  0
 31 13  1  0
 27 15  1  0
 24 18  1  0
  1 33  1  0
  1 34  1  0
  1 35  1  0
  2 36  1  6
  3 37  1  0
  3 38  1  0
  4 39  1  0
  4 40  1  0
  5 41  1  1
  8 42  1  0
  8 43  1  0
  8 44  1  0
  9 45  1  0
  9 46  1  0
  9 47  1  0
 10 48  1  1
 11 49  1  0
 11 50  1  0
 12 51  1  0
 12 52  1  0
 14 53  1  0
 14 54  1  0
 14 55  1  0
 15 56  1  6
 16 57  1  0
 16 58  1  0
 17 59  1  0
 19 60  1  1
 20 61  1  0
 20 62  1  0
 21 63  1  0
 21 64  1  0
 22 65  1  1
 23 66  1  0
 25 67  1  0
 25 68  1  0
 25 69  1  0
 26 70  1  0
 26 71  1  0
 26 72  1  0
 28 73  1  0
 28 74  1  0
 28 75  1  0
 29 76  1  0
 29 77  1  0
 30 78  1  0
 30 79  1  0
 32 80  1  0
 32 81  1  0
 32 82  1  0
M  END
>  <meeko>  (2) 
{"is_sidechain": [false], "intermolecular_energy": 2.731, "internal_energy": -0.839}

$$$$
EPH_relaxed_0001_pdb2pqr_Repair_9_r2_0001_out
     RDKit          3D

 82 86  0  0  0  0  0  0  0  0999 V2000
    2.4470   17.9610   -2.6390 C   0  0  0  0  0  0  0  0  0  0  0  0
    1.1030   17.6200   -1.9910 C   0  0  2  0  0  0  0  0  0  0  0  0
    1.1610   17.7080   -0.4520 C   0  0  0  0  0  0  0  0  0  0  0  0
    0.8220   19.0970    0.0970 C   0  0  0  0  0  0  0  0  0  0  0  0
   -0.6260   19.2080    0.4700 C   0  0  2  0  0  0  0  0  0  0  0  0
   -1.4850   18.2620   -0.1800 O   0  0  0  0  0  0  0  0  0  0  0  0
   -1.7080   19.6460   -0.4990 C   0  0  0  0  0  0  0  0  0  0  0  0
   -1.3880   20.0020   -1.9170 C   0  0  0  0  0  0  0  0  0  0  0  0
   -2.9850   20.1940    0.0550 C   0  0  0  0  0  0  0  0  0  0  0  0
    0.6600   16.2250   -2.4160 C   0  0  1  0  0  0  0  0  0  0  0  0
    0.7920   15.9960   -3.9450 C   0  0  0  0  0  0  0  0  0  0  0  0
    1.1920   14.5120   -4.1430 C   0  0  0  0  0  0  0  0  0  0  0  0
    0.9560   13.8560   -2.7620 C   0  0  1  0  0  0  0  0  0  0  0  0
   -0.5770   13.5670   -2.7130 C   0  0  0  0  0  0  0  0  0  0  0  0
    1.7950   12.5740   -2.4520 C   0  0  2  0  0  0  0  0  0  0  0  0
    1.5320   11.3800   -3.3860 C   0  0  0  0  0  0  0  0  0  0  0  0
    0.4580   10.4450   -2.9380 C   0  0  0  0  0  0  0  0  0  0  0  0
   -0.0690   10.3940   -1.7010 C   0  0  0  0  0  0  0  0  0  0  0  0
    0.4840   11.2750   -0.5720 C   0  0  1  0  0  0  0  0  0  0  0  0
    0.6780   10.4180    0.7060 C   0  0  0  0  0  0  0  0  0  0  0  0
   -0.5920    9.6780    1.1120 C   0  0  0  0  0  0  0  0  0  0  0  0
   -1.0780    8.7690   -0.0140 C   0  0  2  0  0  0  0  0  0  0  0  0
   -0.1250    7.7180   -0.2020 O   0  0  0  0  0  0  0  0  0  0  0  0
   -1.3000    9.5210   -1.3560 C   0  0  0  0  0  0  0  0  0  0  0  0
   -2.5350   10.4470   -1.2350 C   0  0  0  0  0  0  0  0  0  0  0  0
   -1.6520    8.4670   -2.4410 C   0  0  0  0  0  0  0  0  0  0  0  0
    1.7710   12.1350   -0.9320 C   0  0  1  0  0  0  0  0  0  0  0  0
    3.0600   11.2910   -0.6920 C   0  0  0  0  0  0  0  0  0  0  0  0
    1.8570   13.3650    0.0480 C   0  0  0  0  0  0  0  0  0  0  0  0
    1.1040   14.6420   -0.3720 C   0  0  0  0  0  0  0  0  0  0  0  0
    1.4330   15.0210   -1.8200 C   0  0  2  0  0  0  0  0  0  0  0  0
    2.9650   15.3390   -1.8950 C   0  0  0  0  0  0  0  0  0  0  0  0
    3.1946   18.1507   -1.8547 H   0  0  0  0  0  0  0  0  0  0  0  0
    2.7771   17.1181   -3.2640 H   0  0  0  0  0  0  0  0  0  0  0  0
    2.3353   18.8593   -3.2640 H   0  0  0  0  0  0  0  0  0  0  0  0
    0.3708   18.3644   -2.3371 H   0  0  0  0  0  0  0  0  0  0  0  0
    0.4442   16.9851   -0.0353 H   0  0  0  0  0  0  0  0  0  0  0  0
    2.1974   17.4887   -0.1557 H   0  0  0  0  0  0  0  0  0  0  0  0
    1.4356   19.2868    0.9900 H   0  0  0  0  0  0  0  0  0  0  0  0
    1.0310   19.8369   -0.6897 H   0  0  0  0  0  0  0  0  0  0  0  0
   -0.3639   19.5446    1.4839 H   0  0  0  0  0  0  0  0  0  0  0  0
   -0.6527   20.8200   -1.9327 H   0  0  0  0  0  0  0  0  0  0  0  0
   -0.9701   19.1234   -2.4303 H   0  0  0  0  0  0  0  0  0  0  0  0
   -2.3060   20.3242   -2.4303 H   0  0  0  0  0  0  0  0  0  0  0  0
   -2.9451   20.1769    1.1541 H   0  0  0  0  0  0  0  0  0  0  0  0
   -3.1203   21.2294   -0.2909 H   0  0  0  0  0  0  0  0  0  0  0  0
   -3.8287   19.5787   -0.2909 H   0  0  0  0  0  0  0  0  0  0  0  0
   -0.3722   16.2357   -2.0359 H   0  0  0  0  0  0  0  0  0  0  0  0
   -0.1678   16.1990   -4.4425 H   0  0  0  0  0  0  0  0  0  0  0  0
    1.5448   16.6691   -4.3812 H   0  0  0  0  0  0  0  0  0  0  0  0
    0.5615   14.0390   -4.9103 H   0  0  0  0  0  0  0  0  0  0  0  0
    2.2320   14.4025   -4.4843 H   0  0  0  0  0  0  0  0  0  0  0  0
   -0.9051   13.5051   -1.6649 H   0  0  0  0  0  0  0  0  0  0  0  0
   -1.1195   14.3787   -3.2198 H   0  0  0  0  0  0  0  0  0  0  0  0
   -0.7868   12.6135   -3.2198 H   0  0  0  0  0  0  0  0  0  0  0  0
    2.8206   12.9051   -2.6723 H   0  0  0  0  0  0  0  0  0  0  0  0
    1.2484   11.7759   -4.3723 H   0  0  0  0  0  0  0  0  0  0  0  0
    2.4618   10.7923   -3.3981 H   0  0  0  0  0  0  0  0  0  0  0  0
    0.0639    9.7375   -3.6824 H   0  0  0  0  0  0  0  0  0  0  0  0
   -0.2760   12.0490   -0.3896 H   0  0  0  0  0  0  0  0  0  0  0  0
    1.4716    9.6798    0.5184 H   0  0  0  0  0  0  0  0  0  0  0  0
    0.9447   11.0991    1.5275 H   0  0  0  0  0  0  0  0  0  0  0  0
   -0.3835    9.0674    2.0029 H   0  0  0  0  0  0  0  0  0  0  0  0
   -1.3759   10.4188    1.3280 H   0  0  0  0  0  0  0  0  0  0  0  0
   -2.0574    8.3675    0.2853 H   0  0  0  0  0  0  0  0  0  0  0  0
   -0.5960    6.8730   -0.1100 H   0  0  0  0  0  0  0  0  0  0  0  0
   -2.7626   10.6177   -0.1724 H   0  0  0  0  0  0  0  0  0  0  0  0
   -2.3211   11.4092   -1.7233 H   0  0  0  0  0  0  0  0  0  0  0  0
   -3.3987    9.9720   -1.7233 H   0  0  0  0  0  0  0  0  0  0  0  0
   -1.9646    7.5309   -1.9551 H   0  0  0  0  0  0  0  0  0  0  0  0
   -2.4722    8.8463   -3.0682 H   0  0  0  0  0  0  0  0  0  0  0  0
   -0.7685    8.2773   -3.0682 H   0  0  0  0  0  0  0  0  0  0  0  0
    3.2296   11.1800    0.3892 H   0  0  0  0  0  0  0  0  0  0  0  0
    2.9379   10.2974   -1.1479 H   0  0  0  0  0  0  0  0  0  0  0  0
    3.9219   11.8002   -1.1479 H   0  0  0  0  0  0  0  0  0  0  0  0
    1.4532   13.0450    1.0199 H   0  0  0  0  0  0  0  0  0  0  0  0
    2.9197   13.6487    0.0612 H   0  0  0  0  0  0  0  0  0  0  0  0
    0.0216   14.4674   -0.2827 H   0  0  0  0  0  0  0  0  0  0  0  0
    1.4164   15.4662    0.2861 H   0  0  0  0  0  0  0  0  0  0  0  0
    3.3722   15.4235   -0.8767 H   0  0  0  0  0  0  0  0  0  0  0  0
    3.4818   14.5290   -2.4305 H   0  0  0  0  0  0  0  0  0  0  0  0
    3.1168   16.2878   -2.4305 H   0  0  0  0  0  0  0  0  0  0  0  0
  1  2  1  0
  2  3  1  0
  3  4  1  0
  4  5  1  0
  5  6  1  0
  6  7  1  0
  7  8  1  0
  7  9  1  0
  2 10  1  0
 10 11  1  0
 11 12  1  0
 12 13  1  0
 13 14  1  1
 13 15  1  0
 15 16  1  0
 16 17  1  0
 17 18  2  0
 18 19  1  0
 19 20  1  0
 20 21  1  0
 21 22  1  0
 22 23  1  0
 22 24  1  0
 24 25  1  0
 24 26  1  0
 19 27  1  0
 27 28  1  6
 27 29  1  0
 29 30  1  0
 30 31  1  0
 31 32  1  1
  7  5  1  0
 31 10  1  0
 31 13  1  0
 27 15  1  0
 24 18  1  0
  1 33  1  0
  1 34  1  0
  1 35  1  0
  2 36  1  6
  3 37  1  0
  3 38  1  0
  4 39  1  0
  4 40  1  0
  5 41  1  1
  8 42  1  0
  8 43  1  0
  8 44  1  0
  9 45  1  0
  9 46  1  0
  9 47  1  0
 10 48  1  1
 11 49  1  0
 11 50  1  0
 12 51  1  0
 12 52  1  0
 14 53  1  0
 14 54  1  0
 14 55  1  0
 15 56  1  6
 16 57  1  0
 16 58  1  0
 17 59  1  0
 19 60  1  1
 20 61  1  0
 20 62  1  0
 21 63  1  0
 21 64  1  0
 22 65  1  1
 23 66  1  0
 25 67  1  0
 25 68  1  0
 25 69  1  0
 26 70  1  0
 26 71  1  0
 26 72  1  0
 28 73  1  0
 28 74  1  0
 28 75  1  0
 29 76  1  0
 29 77  1  0
 30 78  1  0
 30 79  1  0
 32 80  1  0
 32 81  1  0
 32 82  1  0
M  END
>  <meeko>  (3) 
{"is_sidechain": [false], "intermolecular_energy": 2.731, "internal_energy": -0.839}

$$$$
EPH_relaxed_0001_pdb2pqr_Repair_9_r2_0001_out
     RDKit          3D

 82 86  0  0  0  0  0  0  0  0999 V2000
    0.4090   18.3800   -0.0400 C   0  0  0  0  0  0  0  0  0  0  0  0
    1.4960   17.3250   -0.2620 C   0  0  2  0  0  0  0  0  0  0  0  0
    2.7040   17.8900   -1.0350 C   0  0  0  0  0  0  0  0  0  0  0  0
    3.9360   18.1350   -0.1590 C   0  0  0  0  0  0  0  0  0  0  0  0
    3.5570   18.6150    1.2090 C   0  0  2  0  0  0  0  0  0  0  0  0
    3.7960   20.0090    1.4420 O   0  0  0  0  0  0  0  0  0  0  0  0
    4.5650   19.0920    2.2380 C   0  0  0  0  0  0  0  0  0  0  0  0
    6.0320   19.1120    1.9420 C   0  0  0  0  0  0  0  0  0  0  0  0
    4.1750   19.0750    3.6830 C   0  0  0  0  0  0  0  0  0  0  0  0
    0.9150   16.1280   -1.0050 C   0  0  1  0  0  0  0  0  0  0  0  0
    0.7800   16.3810   -2.5310 C   0  0  0  0  0  0  0  0  0  0  0  0
    1.0620   15.0290   -3.2350 C   0  0  0  0  0  0  0  0  0  0  0  0
    1.0210   13.9810   -2.0980 C   0  0  1  0  0  0  0  0  0  0  0  0
   -0.4960   13.6910   -1.8730 C   0  0  0  0  0  0  0  0  0  0  0  0
    1.8300   12.6650   -2.3410 C   0  0  2  0  0  0  0  0  0  0  0  0
    1.3520   11.8160   -3.5320 C   0  0  0  0  0  0  0  0  0  0  0  0
    0.3190   10.7890   -3.2090 C   0  0  0  0  0  0  0  0  0  0  0  0
    0.0010   10.3610   -1.9730 C   0  0  0  0  0  0  0  0  0  0  0  0
    0.7790   10.8520   -0.7450 C   0  0  1  0  0  0  0  0  0  0  0  0
    1.1350    9.6430    0.1590 C   0  0  0  0  0  0  0  0  0  0  0  0
   -0.0900    8.8140    0.5370 C   0  0  0  0  0  0  0  0  0  0  0  0
   -0.8030    8.2960   -0.7090 C   0  0  2  0  0  0  0  0  0  0  0  0
    0.0480    7.3540   -1.3690 O   0  0  0  0  0  0  0  0  0  0  0  0
   -1.2020    9.4240   -1.7010 C   0  0  0  0  0  0  0  0  0  0  0  0
   -2.3490   10.2690   -1.0930 C   0  0  0  0  0  0  0  0  0  0  0  0
   -1.7840    8.7560   -2.9750 C   0  0  0  0  0  0  0  0  0  0  0  0
    2.0330   11.7800   -1.0450 C   0  0  1  0  0  0  0  0  0  0  0  0
    3.2960   10.9020   -1.2990 C   0  0  0  0  0  0  0  0  0  0  0  0
    2.3460   12.6490    0.2300 C   0  0  0  0  0  0  0  0  0  0  0  0
    1.6040   13.9940    0.3530 C   0  0  0  0  0  0  0  0  0  0  0  0
    1.7090   14.7990   -0.9450 C   0  0  2  0  0  0  0  0  0  0  0  0
    3.2230   15.1240   -1.1850 C   0  0  0  0  0  0  0  0  0  0  0  0
    0.2566   18.5279    1.0393 H   0  0  0  0  0  0  0  0  0  0  0  0
    0.7202   19.3295   -0.4999 H   0  0  0  0  0  0  0  0  0  0  0  0
   -0.5308   18.0405   -0.4999 H   0  0  0  0  0  0  0  0  0  0  0  0
    1.8567   17.0082    0.7277 H   0  0  0  0  0  0  0  0  0  0  0  0
    2.9763   17.1744   -1.8248 H   0  0  0  0  0  0  0  0  0  0  0  0
    2.3984   18.8661   -1.4398 H   0  0  0  0  0  0  0  0  0  0  0  0
    4.4983   17.1944   -0.0636 H   0  0  0  0  0  0  0  0  0  0  0  0
    4.5480   18.9134   -0.6381 H   0  0  0  0  0  0  0  0  0  0  0  0
    2.7370   17.8838    1.2636 H   0  0  0  0  0  0  0  0  0  0  0  0
    6.5965   19.1197    2.8861 H   0  0  0  0  0  0  0  0  0  0  0  0
    6.3011   18.2174    1.3612 H   0  0  0  0  0  0  0  0  0  0  0  0
    6.2766   20.0136    1.3612 H   0  0  0  0  0  0  0  0  0  0  0  0
    5.0797   19.1144    4.3074 H   0  0  0  0  0  0  0  0  0  0  0  0
    3.5402   19.9463    3.9017 H   0  0  0  0  0  0  0  0  0  0  0  0
    3.6184   18.1517    3.9017 H   0  0  0  0  0  0  0  0  0  0  0  0
   -0.0378   16.0210   -0.4659 H   0  0  0  0  0  0  0  0  0  0  0  0
   -0.2366   16.7273   -2.7691 H   0  0  0  0  0  0  0  0  0  0  0  0
    1.4849   17.1558   -2.8668 H   0  0  0  0  0  0  0  0  0  0  0  0
    0.2896   14.8150   -3.9884 H   0  0  0  0  0  0  0  0  0  0  0  0
    2.0243   15.0289   -3.7679 H   0  0  0  0  0  0  0  0  0  0  0  0
   -0.7055   13.6509   -0.7939 H   0  0  0  0  0  0  0  0  0  0  0  0
   -1.0945   14.4910   -2.3333 H   0  0  0  0  0  0  0  0  0  0  0  0
   -0.7572   12.7267   -2.3333 H   0  0  0  0  0  0  0  0  0  0  0  0
    2.8217   13.0469   -2.6250 H   0  0  0  0  0  0  0  0  0  0  0  0
    0.9306   12.4962   -4.2868 H   0  0  0  0  0  0  0  0  0  0  0  0
    2.2341   11.2603   -3.8829 H   0  0  0  0  0  0  0  0  0  0  0  0
   -0.2292   10.3438   -4.0524 H   0  0  0  0  0  0  0  0  0  0  0  0
    0.1025   11.5331   -0.2080 H   0  0  0  0  0  0  0  0  0  0  0  0
    1.8452    8.9977   -0.3787 H   0  0  0  0  0  0  0  0  0  0  0  0
    1.5707   10.0380    1.0886 H   0  0  0  0  0  0  0  0  0  0  0  0
    0.2293    7.9589    1.1508 H   0  0  0  0  0  0  0  0  0  0  0  0
   -0.7863    9.4527    1.1002 H   0  0  0  0  0  0  0  0  0  0  0  0
   -1.7398    7.8228   -0.3796 H   0  0  0  0  0  0  0  0  0  0  0  0
   -0.0180    6.5110   -0.8900 H   0  0  0  0  0  0  0  0  0  0  0  0
   -2.2928   10.2276    0.0048 H   0  0  0  0  0  0  0  0  0  0  0  0
   -2.2517   11.3129   -1.4260 H   0  0  0  0  0  0  0  0  0  0  0  0
   -3.3171    9.8666   -1.4260 H   0  0  0  0  0  0  0  0  0  0  0  0
   -2.4808    7.9562   -2.6839 H   0  0  0  0  0  0  0  0  0  0  0  0
   -2.3190    9.5091   -3.5721 H   0  0  0  0  0  0  0  0  0  0  0  0
   -0.9647    8.3291   -3.5721 H   0  0  0  0  0  0  0  0  0  0  0  0
    3.7318   10.5991   -0.3355 H   0  0  0  0  0  0  0  0  0  0  0  0
    3.0110   10.0063   -1.8704 H   0  0  0  0  0  0  0  0  0  0  0  0
    4.0363   11.4812   -1.8704 H   0  0  0  0  0  0  0  0  0  0  0  0
    2.0914   12.0463    1.1143 H   0  0  0  0  0  0  0  0  0  0  0  0
    3.4101   12.9140    0.1438 H   0  0  0  0  0  0  0  0  0  0  0  0
    0.5434   13.8011    0.5719 H   0  0  0  0  0  0  0  0  0  0  0  0
    2.0652   14.5758    1.1646 H   0  0  0  0  0  0  0  0  0  0  0  0
    3.7326   15.2334   -0.2163 H   0  0  0  0  0  0  0  0  0  0  0  0
    3.6881   14.3052   -1.7536 H   0  0  0  0  0  0  0  0  0  0  0  0
    3.3111   16.0615   -1.7536 H   0  0  0  0  0  0  0  0  0  0  0  0
  1  2  1  0
  2  3  1  0
  3  4  1  0
  4  5  1  0
  5  6  1  0
  6  7  1  0
  7  8  1  0
  7  9  1  0
  2 10  1  0
 10 11  1  0
 11 12  1  0
 12 13  1  0
 13 14  1  1
 13 15  1  0
 15 16  1  0
 16 17  1  0
 17 18  2  0
 18 19  1  0
 19 20  1  0
 20 21  1  0
 21 22  1  0
 22 23  1  0
 22 24  1  0
 24 25  1  0
 24 26  1  0
 19 27  1  0
 27 28  1  6
 27 29  1  0
 29 30  1  0
 30 31  1  0
 31 32  1  6
  7  5  1  0
 31 10  1  0
 31 13  1  0
 27 15  1  0
 24 18  1  0
  1 33  1  0
  1 34  1  0
  1 35  1  0
  2 36  1  1
  3 37  1  0
  3 38  1  0
  4 39  1  0
  4 40  1  0
  5 41  1  1
  8 42  1  0
  8 43  1  0
  8 44  1  0
  9 45  1  0
  9 46  1  0
  9 47  1  0
 10 48  1  1
 11 49  1  0
 11 50  1  0
 12 51  1  0
 12 52  1  0
 14 53  1  0
 14 54  1  0
 14 55  1  0
 15 56  1  6
 16 57  1  0
 16 58  1  0
 17 59  1  0
 19 60  1  1
 20 61  1  0
 20 62  1  0
 21 63  1  0
 21 64  1  0
 22 65  1  1
 23 66  1  0
 25 67  1  0
 25 68  1  0
 25 69  1  0
 26 70  1  0
 26 71  1  0
 26 72  1  0
 28 73  1  0
 28 74  1  0
 28 75  1  0
 29 76  1  0
 29 77  1  0
 30 78  1  0
 30 79  1  0
 32 80  1  0
 32 81  1  0
 32 82  1  0
M  END
>  <meeko>  (4) 
{"is_sidechain": [false], "intermolecular_energy": 2.731, "internal_energy": -0.839}

$$$$
EPH_relaxed_0001_pdb2pqr_Repair_9_r2_0001_out
     RDKit          3D

 82 86  0  0  0  0  0  0  0  0999 V2000
    2.1960   17.9980   -2.5180 C   0  0  0  0  0  0  0  0  0  0  0  0
    0.6760   17.8560   -2.6360 C   0  0  2  0  0  0  0  0  0  0  0  0
   -0.0530   18.3400   -1.3670 C   0  0  0  0  0  0  0  0  0  0  0  0
    0.6460   17.9390   -0.0650 C   0  0  0  0  0  0  0  0  0  0  0  0
    1.2180   19.1280    0.6450 C   0  0  2  0  0  0  0  0  0  0  0  0
    2.1290   19.9110   -0.1370 O   0  0  0  0  0  0  0  0  0  0  0  0
    2.6840   19.2560    1.0150 C   0  0  0  0  0  0  0  0  0  0  0  0
    3.6690   18.1780    0.6860 C   0  0  0  0  0  0  0  0  0  0  0  0
    3.0650   20.1940    2.1170 C   0  0  0  0  0  0  0  0  0  0  0  0
    0.3110   16.4040   -2.9250 C   0  0  1  0  0  0  0  0  0  0  0  0
    0.3880   16.0580   -4.4360 C   0  0  0  0  0  0  0  0  0  0  0  0
    0.8800   14.5910   -4.5350 C   0  0  0  0  0  0  0  0  0  0  0  0
    0.7500   14.0390   -3.0950 C   0  0  1  0  0  0  0  0  0  0  0  0
   -0.7560   13.6570   -2.9460 C   0  0  0  0  0  0  0  0  0  0  0  0
    1.6880   12.8440   -2.7270 C   0  0  2  0  0  0  0  0  0  0  0  0
    1.4650   11.5620   -3.5480 C   0  0  0  0  0  0  0  0  0  0  0  0
    0.4790   10.6000   -2.9730 C   0  0  0  0  0  0  0  0  0  0  0  0
    0.0120   10.6190   -1.7100 C   0  0  0  0  0  0  0  0  0  0  0  0
    0.5540   11.6240   -0.6850 C   0  0  1  0  0  0  0  0  0  0  0  0
    0.8640   10.8900    0.6460 C   0  0  0  0  0  0  0  0  0  0  0  0
   -0.3340   10.1070    1.1740 C   0  0  0  0  0  0  0  0  0  0  0  0
   -0.8070    9.0780    0.1510 C   0  0  2  0  0  0  0  0  0  0  0  0
    0.2060    8.0790   -0.0010 O   0  0  0  0  0  0  0  0  0  0  0  0
   -1.1400    9.7000   -1.2340 C   0  0  0  0  0  0  0  0  0  0  0  0
   -2.4280   10.5520   -1.1260 C   0  0  0  0  0  0  0  0  0  0  0  0
   -1.4680    8.5400   -2.2130 C   0  0  0  0  0  0  0  0  0  0  0  0
    1.7630   12.5320   -1.1770 C   0  0  1  0  0  0  0  0  0  0  0  0
    3.1150   11.7950   -0.9360 C   0  0  0  0  0  0  0  0  0  0  0  0
    1.8090   13.8420   -0.3050 C   0  0  0  0  0  0  0  0  0  0  0  0
    0.9530   15.0290   -0.7870 C   0  0  0  0  0  0  0  0  0  0  0  0
    1.1890   15.3060   -2.2750 C   0  0  2  0  0  0  0  0  0  0  0  0
    2.6910   15.7150   -2.4530 C   0  0  0  0  0  0  0  0  0  0  0  0
    2.4804   18.0246   -1.4557 H   0  0  0  0  0  0  0  0  0  0  0  0
    2.6833   17.1415   -3.0067 H   0  0  0  0  0  0  0  0  0  0  0  0
    2.5162   18.9300   -3.0067 H   0  0  0  0  0  0  0  0  0  0  0  0
    0.3475   18.4952   -3.4688 H   0  0  0  0  0  0  0  0  0  0  0  0
   -0.1194   19.4374   -1.4018 H   0  0  0  0  0  0  0  0  0  0  0  0
   -1.0426   17.8597   -1.3618 H   0  0  0  0  0  0  0  0  0  0  0  0
   -0.0838   17.4468    0.5946 H   0  0  0  0  0  0  0  0  0  0  0  0
    1.4729   17.2580   -0.3150 H   0  0  0  0  0  0  0  0  0  0  0  0
    0.2956   19.2512    1.2314 H   0  0  0  0  0  0  0  0  0  0  0  0
    4.0640   17.7457    1.6171 H   0  0  0  0  0  0  0  0  0  0  0  0
    3.1704   17.3922    0.0995 H   0  0  0  0  0  0  0  0  0  0  0  0
    4.4964   18.6039    0.0995 H   0  0  0  0  0  0  0  0  0  0  0  0
    2.8709   19.7163    3.0886 H   0  0  0  0  0  0  0  0  0  0  0  0
    4.1342   20.4396    2.0362 H   0  0  0  0  0  0  0  0  0  0  0  0
    2.4699   21.1156    2.0362 H   0  0  0  0  0  0  0  0  0  0  0  0
   -0.7008   16.3799   -2.4942 H   0  0  0  0  0  0  0  0  0  0  0  0
   -0.6054   16.1563   -4.8981 H   0  0  0  0  0  0  0  0  0  0  0  0
    1.0716   16.7400   -4.9628 H   0  0  0  0  0  0  0  0  0  0  0  0
    0.2502   14.0160   -5.2298 H   0  0  0  0  0  0  0  0  0  0  0  0
    1.9087   14.5204   -4.9181 H   0  0  0  0  0  0  0  0  0  0  0  0
   -1.0138   13.5916   -1.8786 H   0  0  0  0  0  0  0  0  0  0  0  0
   -1.3786   14.4257   -3.4272 H   0  0  0  0  0  0  0  0  0  0  0  0
   -0.9369   12.6845   -3.4272 H   0  0  0  0  0  0  0  0  0  0  0  0
    2.6774   13.2210   -3.0251 H   0  0  0  0  0  0  0  0  0  0  0  0
    1.1105   11.8556   -4.5471 H   0  0  0  0  0  0  0  0  0  0  0  0
    2.4313   11.0365   -3.5602 H   0  0  0  0  0  0  0  0  0  0  0  0
    0.1019    9.8084   -3.6372 H   0  0  0  0  0  0  0  0  0  0  0  0
   -0.2480   12.3601   -0.5272 H   0  0  0  0  0  0  0  0  0  0  0  0
    1.6961   10.1906    0.4776 H   0  0  0  0  0  0  0  0  0  0  0  0
    1.1219   11.6523    1.3959 H   0  0  0  0  0  0  0  0  0  0  0  0
   -0.0450    9.5878    2.0997 H   0  0  0  0  0  0  0  0  0  0  0  0
   -1.1558   10.8118    1.3687 H   0  0  0  0  0  0  0  0  0  0  0  0
   -1.7418    8.6404    0.5313 H   0  0  0  0  0  0  0  0  0  0  0  0
    0.3670    7.6880    0.8740 H   0  0  0  0  0  0  0  0  0  0  0  0
   -2.6727   10.7139   -0.0659 H   0  0  0  0  0  0  0  0  0  0  0  0
   -2.2677   11.5228   -1.6177 H   0  0  0  0  0  0  0  0  0  0  0  0
   -3.2588   10.0247   -1.6177 H   0  0  0  0  0  0  0  0  0  0  0  0
   -1.7233    7.6370   -1.6391 H   0  0  0  0  0  0  0  0  0  0  0  0
   -2.3208    8.8251   -2.8467 H   0  0  0  0  0  0  0  0  0  0  0  0
   -0.5922    8.3363   -2.8467 H   0  0  0  0  0  0  0  0  0  0  0  0
    3.2923   11.6984    0.1453 H   0  0  0  0  0  0  0  0  0  0  0  0
    3.0736   10.7946   -1.3916 H   0  0  0  0  0  0  0  0  0  0  0  0
    3.9333   12.3718   -1.3916 H   0  0  0  0  0  0  0  0  0  0  0  0
    1.4721   13.5789    0.7085 H   0  0  0  0  0  0  0  0  0  0  0  0
    2.8494   14.1933   -0.3689 H   0  0  0  0  0  0  0  0  0  0  0  0
   -0.1099   14.7940   -0.6288 H   0  0  0  0  0  0  0  0  0  0  0  0
    1.2388   15.9234   -0.2139 H   0  0  0  0  0  0  0  0  0  0  0  0
    3.1562   15.8417   -1.4643 H   0  0  0  0  0  0  0  0  0  0  0  0
    3.2216   14.9286   -3.0098 H   0  0  0  0  0  0  0  0  0  0  0  0
    2.7497   16.6618   -3.0098 H   0  0  0  0  0  0  0  0  0  0  0  0
  1  2  1  0
  2  3  1  0
  3  4  1  0
  4  5  1  0
  5  6  1  0
  6  7  1  0
  7  8  1  0
  7  9  1  0
  2 10  1  0
 10 11  1  0
 11 12  1  0
 12 13  1  0
 13 14  1  1
 13 15  1  0
 15 16  1  0
 16 17  1  0
 17 18  2  0
 18 19  1  0
 19 20  1  0
 20 21  1  0
 21 22  1  0
 22 23  1  0
 22 24  1  0
 24 25  1  0
 24 26  1  0
 19 27  1  0
 27 28  1  6
 27 29  1  0
 29 30  1  0
 30 31  1  0
 31 32  1  1
  7  5  1  0
 31 10  1  0
 31 13  1  0
 27 15  1  0
 24 18  1  0
  1 33  1  0
  1 34  1  0
  1 35  1  0
  2 36  1  6
  3 37  1  0
  3 38  1  0
  4 39  1  0
  4 40  1  0
  5 41  1  1
  8 42  1  0
  8 43  1  0
  8 44  1  0
  9 45  1  0
  9 46  1  0
  9 47  1  0
 10 48  1  1
 11 49  1  0
 11 50  1  0
 12 51  1  0
 12 52  1  0
 14 53  1  0
 14 54  1  0
 14 55  1  0
 15 56  1  6
 16 57  1  0
 16 58  1  0
 17 59  1  0
 19 60  1  1
 20 61  1  0
 20 62  1  0
 21 63  1  0
 21 64  1  0
 22 65  1  1
 23 66  1  0
 25 67  1  0
 25 68  1  0
 25 69  1  0
 26 70  1  0
 26 71  1  0
 26 72  1  0
 28 73  1  0
 28 74  1  0
 28 75  1  0
 29 76  1  0
 29 77  1  0
 30 78  1  0
 30 79  1  0
 32 80  1  0
 32 81  1  0
 32 82  1  0
M  END
>  <meeko>  (5) 
{"is_sidechain": [false], "intermolecular_energy": 2.731, "internal_energy": -0.839}

$$$$
EPH_relaxed_0001_pdb2pqr_Repair_9_r2_0001_out
     RDKit          3D

 82 86  0  0  0  0  0  0  0  0999 V2000
   -3.4070    9.3110    0.5490 C   0  0  0  0  0  0  0  0  0  0  0  0
   -2.5860    9.6780   -0.6910 C   0  0  2  0  0  0  0  0  0  0  0  0
   -1.9190    8.4440   -1.3320 C   0  0  0  0  0  0  0  0  0  0  0  0
   -2.8350    7.6800   -2.2930 C   0  0  0  0  0  0  0  0  0  0  0  0
   -4.2750    7.7910   -1.8930 C   0  0  2  0  0  0  0  0  0  0  0  0
   -4.8310    6.6000   -1.3220 O   0  0  0  0  0  0  0  0  0  0  0  0
   -5.3940    7.0250   -2.5730 C   0  0  0  0  0  0  0  0  0  0  0  0
   -5.1210    6.0930   -3.7120 C   0  0  0  0  0  0  0  0  0  0  0  0
   -6.7910    7.5490   -2.4590 C   0  0  0  0  0  0  0  0  0  0  0  0
   -1.5270   10.7110   -0.3250 C   0  0  1  0  0  0  0  0  0  0  0  0
   -0.4270   10.1360    0.6070 C   0  0  0  0  0  0  0  0  0  0  0  0
    0.9030   10.8270    0.2100 C   0  0  0  0  0  0  0  0  0  0  0  0
    0.4740   12.0050   -0.6970 C   0  0  1  0  0  0  0  0  0  0  0  0
    0.0360   13.1320    0.2900 C   0  0  0  0  0  0  0  0  0  0  0  0
    1.5430   12.5150   -1.7180 C   0  0  2  0  0  0  0  0  0  0  0  0
    2.8250   13.0870   -1.0890 C   0  0  0  0  0  0  0  0  0  0  0  0
    2.8000   14.5540   -0.8110 C   0  0  0  0  0  0  0  0  0  0  0  0
    1.9080   15.4290   -1.3120 C   0  0  0  0  0  0  0  0  0  0  0  0
    0.8520   14.9820   -2.3310 C   0  0  1  0  0  0  0  0  0  0  0  0
    0.8000   15.9990   -3.5020 C   0  0  0  0  0  0  0  0  0  0  0  0
    0.5810   17.4310   -3.0240 C   0  0  0  0  0  0  0  0  0  0  0  0
    1.6820   17.8580   -2.0580 C   0  0  2  0  0  0  0  0  0  0  0  0
    2.9200   17.9300   -2.7720 O   0  0  0  0  0  0  0  0  0  0  0  0
    1.8350   16.9030   -0.8410 C   0  0  0  0  0  0  0  0  0  0  0  0
    0.6120   17.0540    0.0960 C   0  0  0  0  0  0  0  0  0  0  0  0
    3.0700   17.3670   -0.0220 C   0  0  0  0  0  0  0  0  0  0  0  0
    0.9660   13.4790   -2.8330 C   0  0  1  0  0  0  0  0  0  0  0  0
    1.9440   13.3940   -4.0440 C   0  0  0  0  0  0  0  0  0  0  0  0
   -0.4390   13.0060   -3.3630 C   0  0  0  0  0  0  0  0  0  0  0  0
   -1.4060   12.4010   -2.3270 C   0  0  0  0  0  0  0  0  0  0  0  0
   -0.7060   11.3290   -1.4850 C   0  0  2  0  0  0  0  0  0  0  0  0
   -0.2740   10.1720   -2.4480 C   0  0  0  0  0  0  0  0  0  0  0  0
   -2.8371    9.5658    1.4547 H   0  0  0  0  0  0  0  0  0  0  0  0
   -4.3533    9.8718    0.5414 H   0  0  0  0  0  0  0  0  0  0  0  0
   -3.6202    8.2319    0.5414 H   0  0  0  0  0  0  0  0  0  0  0  0
   -3.2784   10.1017   -1.4333 H   0  0  0  0  0  0  0  0  0  0  0  0
   -1.0320    8.7789   -1.8898 H   0  0  0  0  0  0  0  0  0  0  0  0
   -1.6639    7.7545   -0.5138 H   0  0  0  0  0  0  0  0  0  0  0  0
   -2.7134    8.0930   -3.3052 H   0  0  0  0  0  0  0  0  0  0  0  0
   -2.5522    6.6174   -2.2639 H   0  0  0  0  0  0  0  0  0  0  0  0
   -4.1504    8.8574   -1.6535 H   0  0  0  0  0  0  0  0  0  0  0  0
   -4.8323    5.1073   -3.3181 H   0  0  0  0  0  0  0  0  0  0  0  0
   -6.0270    5.9909   -4.3275 H   0  0  0  0  0  0  0  0  0  0  0  0
   -4.3031    6.4958   -4.3275 H   0  0  0  0  0  0  0  0  0  0  0  0
   -7.0593    7.6496   -1.3970 H   0  0  0  0  0  0  0  0  0  0  0  0
   -6.8549    8.5322   -2.9481 H   0  0  0  0  0  0  0  0  0  0  0  0
   -7.4857    6.8503   -2.9481 H   0  0  0  0  0  0  0  0  0  0  0  0
   -2.1688   11.4778    0.1334 H   0  0  0  0  0  0  0  0  0  0  0  0
   -0.6685   10.3548    1.6576 H   0  0  0  0  0  0  0  0  0  0  0  0
   -0.3512    9.0438    0.5009 H   0  0  0  0  0  0  0  0  0  0  0  0
    1.4307   11.1956    1.1020 H   0  0  0  0  0  0  0  0  0  0  0  0
    1.5954   10.1395   -0.2980 H   0  0  0  0  0  0  0  0  0  0  0  0
    0.1707   12.7855    1.3253 H   0  0  0  0  0  0  0  0  0  0  0  0
    0.6515   14.0277    0.1202 H   0  0  0  0  0  0  0  0  0  0  0  0
   -1.0228   13.3770    0.1202 H   0  0  0  0  0  0  0  0  0  0  0  0
    1.8473   11.5872   -2.2245 H   0  0  0  0  0  0  0  0  0  0  0  0
    2.9992   12.5637   -0.1373 H   0  0  0  0  0  0  0  0  0  0  0  0
    3.6229   12.9315   -1.8301 H   0  0  0  0  0  0  0  0  0  0  0  0
    3.5755   14.9531   -0.1406 H   0  0  0  0  0  0  0  0  0  0  0  0
   -0.1081   14.9811   -1.7941 H   0  0  0  0  0  0  0  0  0  0  0  0
    1.7515   15.9525   -4.0519 H   0  0  0  0  0  0  0  0  0  0  0  0
   -0.0517   15.7270   -4.1428 H   0  0  0  0  0  0  0  0  0  0  0  0
    0.5835   18.1050   -3.8933 H   0  0  0  0  0  0  0  0  0  0  0  0
   -0.3849   17.4823   -2.5002 H   0  0  0  0  0  0  0  0  0  0  0  0
    1.4003   18.8405   -1.6514 H   0  0  0  0  0  0  0  0  0  0  0  0
    3.5730   17.4010   -2.2830 H   0  0  0  0  0  0  0  0  0  0  0  0
    0.9453   17.0128    1.1435 H   0  0  0  0  0  0  0  0  0  0  0  0
    0.1209   18.0196   -0.0948 H   0  0  0  0  0  0  0  0  0  0  0  0
   -0.0992   16.2368   -0.0948 H   0  0  0  0  0  0  0  0  0  0  0  0
    2.8496   17.2842    1.0525 H   0  0  0  0  0  0  0  0  0  0  0  0
    3.9335   16.7320   -0.2692 H   0  0  0  0  0  0  0  0  0  0  0  0
    3.3018   18.4135   -0.2692 H   0  0  0  0  0  0  0  0  0  0  0  0
    2.9766   13.3043   -3.6758 H   0  0  0  0  0  0  0  0  0  0  0  0
    1.6950   12.5141   -4.6554 H   0  0  0  0  0  0  0  0  0  0  0  0
    1.8505   14.3037   -4.6554 H   0  0  0  0  0  0  0  0  0  0  0  0
   -0.9360   13.8786   -3.8120 H   0  0  0  0  0  0  0  0  0  0  0  0
   -0.2207   12.1874   -4.0646 H   0  0  0  0  0  0  0  0  0  0  0  0
   -1.7686   13.1999   -1.6635 H   0  0  0  0  0  0  0  0  0  0  0  0
   -2.2463   11.9341   -2.8618 H   0  0  0  0  0  0  0  0  0  0  0  0
    0.0502    9.3037   -1.8556 H   0  0  0  0  0  0  0  0  0  0  0  0
   -1.1258    9.8857   -3.0824 H   0  0  0  0  0  0  0  0  0  0  0  0
    0.5570   10.5140   -3.0824 H   0  0  0  0  0  0  0  0  0  0  0  0
  1  2  1  0
  2  3  1  0
  3  4  1  0
  4  5  1  0
  5  6  1  0
  6  7  1  0
  7  8  1  0
  7  9  1  0
  2 10  1  0
 10 11  1  0
 11 12  1  0
 12 13  1  0
 13 14  1  1
 13 15  1  0
 15 16  1  0
 16 17  1  0
 17 18  2  0
 18 19  1  0
 19 20  1  0
 20 21  1  0
 21 22  1  0
 22 23  1  0
 22 24  1  0
 24 25  1  0
 24 26  1  0
 19 27  1  0
 27 28  1  6
 27 29  1  0
 29 30  1  0
 30 31  1  0
 31 32  1  6
  7  5  1  0
 31 10  1  0
 31 13  1  0
 27 15  1  0
 24 18  1  0
  1 33  1  0
  1 34  1  0
  1 35  1  0
  2 36  1  6
  3 37  1  0
  3 38  1  0
  4 39  1  0
  4 40  1  0
  5 41  1  1
  8 42  1  0
  8 43  1  0
  8 44  1  0
  9 45  1  0
  9 46  1  0
  9 47  1  0
 10 48  1  1
 11 49  1  0
 11 50  1  0
 12 51  1  0
 12 52  1  0
 14 53  1  0
 14 54  1  0
 14 55  1  0
 15 56  1  6
 16 57  1  0
 16 58  1  0
 17 59  1  0
 19 60  1  1
 20 61  1  0
 20 62  1  0
 21 63  1  0
 21 64  1  0
 22 65  1  1
 23 66  1  0
 25 67  1  0
 25 68  1  0
 25 69  1  0
 26 70  1  0
 26 71  1  0
 26 72  1  0
 28 73  1  0
 28 74  1  0
 28 75  1  0
 29 76  1  0
 29 77  1  0
 30 78  1  0
 30 79  1  0
 32 80  1  0
 32 81  1  0
 32 82  1  0
M  END
>  <meeko>  (6) 
{"is_sidechain": [false], "intermolecular_energy": 2.731, "internal_energy": -0.839}

$$$$
EPH_relaxed_0001_pdb2pqr_Repair_9_r2_0001_out
     RDKit          3D

 82 86  0  0  0  0  0  0  0  0999 V2000
    3.9780   17.5500    0.2630 C   0  0  0  0  0  0  0  0  0  0  0  0
    2.8550   17.9800   -0.6860 C   0  0  2  0  0  0  0  0  0  0  0  0
    2.2400   19.3340   -0.2810 C   0  0  0  0  0  0  0  0  0  0  0  0
    1.1960   19.2270    0.8340 C   0  0  0  0  0  0  0  0  0  0  0  0
   -0.0590   19.9720    0.4920 C   0  0  2  0  0  0  0  0  0  0  0  0
   -0.9520   20.1780    1.5950 O   0  0  0  0  0  0  0  0  0  0  0  0
   -1.4400   19.3460    0.5300 C   0  0  0  0  0  0  0  0  0  0  0  0
   -1.6380   17.9140    0.9180 C   0  0  0  0  0  0  0  0  0  0  0  0
   -2.5340   19.9770   -0.2750 C   0  0  0  0  0  0  0  0  0  0  0  0
    1.7730   16.9080   -0.7300 C   0  0  1  0  0  0  0  0  0  0  0  0
    0.4620   17.4090   -1.3920 C   0  0  0  0  0  0  0  0  0  0  0  0
   -0.1410   16.2050   -2.1590 C   0  0  0  0  0  0  0  0  0  0  0  0
    0.6520   14.9800   -1.6470 C   0  0  1  0  0  0  0  0  0  0  0  0
   -0.0160   14.6090   -0.2860 C   0  0  0  0  0  0  0  0  0  0  0  0
    0.7210   13.7500   -2.6100 C   0  0  2  0  0  0  0  0  0  0  0  0
   -0.6340   13.0990   -2.9360 C   0  0  0  0  0  0  0  0  0  0  0  0
   -1.0520   12.0000   -2.0170 C   0  0  0  0  0  0  0  0  0  0  0  0
   -0.2480   11.3600   -1.1470 C   0  0  0  0  0  0  0  0  0  0  0  0
    1.2560   11.6620   -1.0960 C   0  0  1  0  0  0  0  0  0  0  0  0
    2.0500   10.3290   -1.0590 C   0  0  0  0  0  0  0  0  0  0  0  0
    1.6000    9.4110    0.0730 C   0  0  0  0  0  0  0  0  0  0  0  0
    0.1130    9.0880   -0.0450 C   0  0  2  0  0  0  0  0  0  0  0  0
   -0.0950    8.2980   -1.2200 O   0  0  0  0  0  0  0  0  0  0  0  0
   -0.7870   10.3540   -0.1010 C   0  0  0  0  0  0  0  0  0  0  0  0
   -0.7940   11.0480    1.2830 C   0  0  0  0  0  0  0  0  0  0  0  0
   -2.2460    9.8910   -0.3620 C   0  0  0  0  0  0  0  0  0  0  0  0
    1.7990   12.6660   -2.2010 C   0  0  1  0  0  0  0  0  0  0  0  0
    2.1590   11.8830   -3.5010 C   0  0  0  0  0  0  0  0  0  0  0  0
    3.1380   13.3170   -1.6890 C   0  0  0  0  0  0  0  0  0  0  0  0
    3.0090   14.5980   -0.8430 C   0  0  0  0  0  0  0  0  0  0  0  0
    2.0850   15.6140   -1.5220 C   0  0  2  0  0  0  0  0  0  0  0  0
    2.7430   16.0220   -2.8840 C   0  0  0  0  0  0  0  0  0  0  0  0
    3.6468   17.6768    1.3043 H   0  0  0  0  0  0  0  0  0  0  0  0
    4.2256   16.4934    0.0831 H   0  0  0  0  0  0  0  0  0  0  0  0
    4.8680   18.1710    0.0831 H   0  0  0  0  0  0  0  0  0  0  0  0
    3.2957   18.1039   -1.6862 H   0  0  0  0  0  0  0  0  0  0  0  0
    3.0497   19.9940    0.0636 H   0  0  0  0  0  0  0  0  0  0  0  0
    1.7238   19.7307   -1.1677 H   0  0  0  0  0  0  0  0  0  0  0  0
    0.9495   18.1665    0.9909 H   0  0  0  0  0  0  0  0  0  0  0  0
    1.6212   19.6720    1.7457 H   0  0  0  0  0  0  0  0  0  0  0  0
    0.4673   20.5512   -0.2810 H   0  0  0  0  0  0  0  0  0  0  0  0
   -1.6497   17.8295    2.0147 H   0  0  0  0  0  0  0  0  0  0  0  0
   -2.5946   17.5531    0.5122 H   0  0  0  0  0  0  0  0  0  0  0  0
   -0.8152   17.3070    0.5122 H   0  0  0  0  0  0  0  0  0  0  0  0
   -3.2847   20.4100    0.4025 H   0  0  0  0  0  0  0  0  0  0  0  0
   -2.1117   20.7702   -0.9094 H   0  0  0  0  0  0  0  0  0  0  0  0
   -3.0091   19.2142   -0.9094 H   0  0  0  0  0  0  0  0  0  0  0  0
    1.6942   16.6825    0.3437 H   0  0  0  0  0  0  0  0  0  0  0  0
   -0.2416   17.7582   -0.6219 H   0  0  0  0  0  0  0  0  0  0  0  0
    0.6599   18.2509   -2.0718 H   0  0  0  0  0  0  0  0  0  0  0  0
   -1.2119   16.0969   -1.9321 H   0  0  0  0  0  0  0  0  0  0  0  0
   -0.0653   16.3249   -3.2498 H   0  0  0  0  0  0  0  0  0  0  0  0
    0.6176   14.9609    0.5414 H   0  0  0  0  0  0  0  0  0  0  0  0
   -1.0043   15.0875   -0.2201 H   0  0  0  0  0  0  0  0  0  0  0  0
   -0.1321   13.5171   -0.2201 H   0  0  0  0  0  0  0  0  0  0  0  0
    1.0668   14.2061   -3.5494 H   0  0  0  0  0  0  0  0  0  0  0  0
   -1.4048   13.8830   -2.9006 H   0  0  0  0  0  0  0  0  0  0  0  0
   -0.5187   12.6381   -3.9281 H   0  0  0  0  0  0  0  0  0  0  0  0
   -2.1057   11.6864   -2.0534 H   0  0  0  0  0  0  0  0  0  0  0  0
    1.4232   12.2221   -0.1641 H   0  0  0  0  0  0  0  0  0  0  0  0
    1.9054    9.8059   -2.0158 H   0  0  0  0  0  0  0  0  0  0  0  0
    3.1083   10.5755   -0.8881 H   0  0  0  0  0  0  0  0  0  0  0  0
    2.1763    8.4751    0.0282 H   0  0  0  0  0  0  0  0  0  0  0  0
    1.7730    9.9238    1.0307 H   0  0  0  0  0  0  0  0  0  0  0  0
   -0.1775    8.5368    0.8615 H   0  0  0  0  0  0  0  0  0  0  0  0
    0.5730    7.5920   -1.2220 H   0  0  0  0  0  0  0  0  0  0  0  0
   -0.7863   10.2853    2.0757 H   0  0  0  0  0  0  0  0  0  0  0  0
    0.0978   11.6849    1.3783 H   0  0  0  0  0  0  0  0  0  0  0  0
   -1.6984   11.6668    1.3783 H   0  0  0  0  0  0  0  0  0  0  0  0
   -2.7567    9.7289    0.5987 H   0  0  0  0  0  0  0  0  0  0  0  0
   -2.7791   10.6641   -0.9348 H   0  0  0  0  0  0  0  0  0  0  0  0
   -2.2358    8.9520   -0.9348 H   0  0  0  0  0  0  0  0  0  0  0  0
    2.6047   10.9136   -3.2336 H   0  0  0  0  0  0  0  0  0  0  0  0
    1.2471   11.7164   -4.0931 H   0  0  0  0  0  0  0  0  0  0  0  0
    2.8791   12.4668   -4.0931 H   0  0  0  0  0  0  0  0  0  0  0  0
    3.6607   12.5662   -1.0782 H   0  0  0  0  0  0  0  0  0  0  0  0
    3.6739   13.6258   -2.5987 H   0  0  0  0  0  0  0  0  0  0  0  0
    2.5953   14.3380    0.1425 H   0  0  0  0  0  0  0  0  0  0  0  0
    4.0066   15.0488   -0.7356 H   0  0  0  0  0  0  0  0  0  0  0  0
    3.6633   16.5926   -2.6902 H   0  0  0  0  0  0  0  0  0  0  0  0
    2.9872   15.1166   -3.4590 H   0  0  0  0  0  0  0  0  0  0  0  0
    2.0406   16.6432   -3.4590 H   0  0  0  0  0  0  0  0  0  0  0  0
  1  2  1  0
  2  3  1  0
  3  4  1  0
  4  5  1  0
  5  6  1  0
  6  7  1  0
  7  8  1  0
  7  9  1  0
  2 10  1  0
 10 11  1  0
 11 12  1  0
 12 13  1  0
 13 14  1  1
 13 15  1  0
 15 16  1  0
 16 17  1  0
 17 18  2  0
 18 19  1  0
 19 20  1  0
 20 21  1  0
 21 22  1  0
 22 23  1  0
 22 24  1  0
 24 25  1  0
 24 26  1  0
 19 27  1  0
 27 28  1  6
 27 29  1  0
 29 30  1  0
 30 31  1  0
 31 32  1  6
  7  5  1  0
 31 10  1  0
 31 13  1  0
 27 15  1  0
 24 18  1  0
  1 33  1  0
  1 34  1  0
  1 35  1  0
  2 36  1  6
  3 37  1  0
  3 38  1  0
  4 39  1  0
  4 40  1  0
  5 41  1  6
  8 42  1  0
  8 43  1  0
  8 44  1  0
  9 45  1  0
  9 46  1  0
  9 47  1  0
 10 48  1  1
 11 49  1  0
 11 50  1  0
 12 51  1  0
 12 52  1  0
 14 53  1  0
 14 54  1  0
 14 55  1  0
 15 56  1  6
 16 57  1  0
 16 58  1  0
 17 59  1  0
 19 60  1  1
 20 61  1  0
 20 62  1  0
 21 63  1  0
 21 64  1  0
 22 65  1  1
 23 66  1  0
 25 67  1  0
 25 68  1  0
 25 69  1  0
 26 70  1  0
 26 71  1  0
 26 72  1  0
 28 73  1  0
 28 74  1  0
 28 75  1  0
 29 76  1  0
 29 77  1  0
 30 78  1  0
 30 79  1  0
 32 80  1  0
 32 81  1  0
 32 82  1  0
M  END
>  <meeko>  (7) 
{"is_sidechain": [false], "intermolecular_energy": 2.731, "internal_energy": -0.839}

$$$$
EPH_relaxed_0001_pdb2pqr_Repair_9_r2_0001_out
     RDKit          3D

 82 86  0  0  0  0  0  0  0  0999 V2000
   -5.1720    5.8880   -1.6400 C   0  0  0  0  0  0  0  0  0  0  0  0
   -5.4460    7.3850   -1.8020 C   0  0  2  0  0  0  0  0  0  0  0  0
   -5.1920    8.1670   -0.4980 C   0  0  0  0  0  0  0  0  0  0  0  0
   -4.2070    9.3280   -0.6580 C   0  0  0  0  0  0  0  0  0  0  0  0
   -2.7990    8.9060   -0.3630 C   0  0  2  0  0  0  0  0  0  0  0  0
   -2.1580    9.6480    0.6830 O   0  0  0  0  0  0  0  0  0  0  0  0
   -1.5900    9.7820   -0.6300 C   0  0  0  0  0  0  0  0  0  0  0  0
   -1.7320   11.1510   -1.2180 C   0  0  0  0  0  0  0  0  0  0  0  0
   -0.2510    9.1280   -0.7760 C   0  0  0  0  0  0  0  0  0  0  0  0
   -6.8800    7.6040   -2.2700 C   0  0  1  0  0  0  0  0  0  0  0  0
   -7.1810    6.9020   -3.6210 C   0  0  0  0  0  0  0  0  0  0  0  0
   -8.6540    6.4230   -3.5580 C   0  0  0  0  0  0  0  0  0  0  0  0
   -9.2470    7.1460   -2.3260 C   0  0  1  0  0  0  0  0  0  0  0  0
   -9.6030    8.5780   -2.8340 C   0  0  0  0  0  0  0  0  0  0  0  0
  -10.4710    6.4550   -1.6420 C   0  0  2  0  0  0  0  0  0  0  0  0
  -11.7230    6.3210   -2.5270 C   0  0  0  0  0  0  0  0  0  0  0  0
  -12.6820    7.4630   -2.4530 C   0  0  0  0  0  0  0  0  0  0  0  0
  -12.6920    8.4150   -1.5010 C   0  0  0  0  0  0  0  0  0  0  0  0
  -11.7300    8.3460   -0.3080 C   0  0  1  0  0  0  0  0  0  0  0  0
  -12.5100    8.6270    1.0030 C   0  0  0  0  0  0  0  0  0  0  0  0
  -13.2860    9.9400    0.9530 C   0  0  0  0  0  0  0  0  0  0  0  0
  -14.2730    9.9470   -0.2110 C   0  0  2  0  0  0  0  0  0  0  0  0
  -15.2870    8.9680    0.0390 O   0  0  0  0  0  0  0  0  0  0  0  0
  -13.6020    9.6650   -1.5850 C   0  0  0  0  0  0  0  0  0  0  0  0
  -12.7280   10.8760   -1.9950 C   0  0  0  0  0  0  0  0  0  0  0  0
  -14.7250    9.5590   -2.6520 C   0  0  0  0  0  0  0  0  0  0  0  0
  -10.8320    7.0390   -0.2160 C   0  0  1  0  0  0  0  0  0  0  0  0
  -11.6030    5.9150    0.5420 C   0  0  0  0  0  0  0  0  0  0  0  0
   -9.5500    7.3540    0.6420 C   0  0  0  0  0  0  0  0  0  0  0  0
   -8.3330    7.9230   -0.1110 C   0  0  0  0  0  0  0  0  0  0  0  0
   -8.0140    7.0840   -1.3520 C   0  0  2  0  0  0  0  0  0  0  0  0
   -7.6310    5.6440   -0.8700 C   0  0  0  0  0  0  0  0  0  0  0  0
   -5.1261    5.6373   -0.5699 H   0  0  0  0  0  0  0  0  0  0  0  0
   -5.9799    5.3137   -2.1168 H   0  0  0  0  0  0  0  0  0  0  0  0
   -4.2130    5.6371   -2.1168 H   0  0  0  0  0  0  0  0  0  0  0  0
   -4.7456    7.7689   -2.5584 H   0  0  0  0  0  0  0  0  0  0  0  0
   -6.1514    8.5720   -0.1435 H   0  0  0  0  0  0  0  0  0  0  0  0
   -4.7438    7.4618    0.2174 H   0  0  0  0  0  0  0  0  0  0  0  0
   -4.2585    9.6991   -1.6922 H   0  0  0  0  0  0  0  0  0  0  0  0
   -4.4859   10.1152    0.0579 H   0  0  0  0  0  0  0  0  0  0  0  0
   -3.0297    7.8649   -0.6328 H   0  0  0  0  0  0  0  0  0  0  0  0
   -1.8088   11.8916   -0.4083 H   0  0  0  0  0  0  0  0  0  0  0  0
   -0.8524   11.3764   -1.8389 H   0  0  0  0  0  0  0  0  0  0  0  0
   -2.6391   11.1911   -1.8389 H   0  0  0  0  0  0  0  0  0  0  0  0
    0.1678    8.9235    0.2204 H   0  0  0  0  0  0  0  0  0  0  0  0
   -0.3627    8.1830   -1.3278 H   0  0  0  0  0  0  0  0  0  0  0  0
    0.4256    9.7971   -1.3278 H   0  0  0  0  0  0  0  0  0  0  0  0
   -6.8974    8.7033   -2.3045 H   0  0  0  0  0  0  0  0  0  0  0  0
   -7.0479    7.6090   -4.4531 H   0  0  0  0  0  0  0  0  0  0  0  0
   -6.4976    6.0563   -3.7874 H   0  0  0  0  0  0  0  0  0  0  0  0
   -9.1944    6.7078   -4.4728 H   0  0  0  0  0  0  0  0  0  0  0  0
   -8.7338    5.3288   -3.4780 H   0  0  0  0  0  0  0  0  0  0  0  0
   -9.7681    9.2421   -1.9727 H   0  0  0  0  0  0  0  0  0  0  0  0
   -8.7743    8.9673   -3.4437 H   0  0  0  0  0  0  0  0  0  0  0  0
  -10.5175    8.5340   -3.4437 H   0  0  0  0  0  0  0  0  0  0  0  0
  -10.1049    5.4298   -1.4840 H   0  0  0  0  0  0  0  0  0  0  0  0
  -11.3919    6.2224   -3.5714 H   0  0  0  0  0  0  0  0  0  0  0  0
  -12.2676    5.4418   -2.1523 H   0  0  0  0  0  0  0  0  0  0  0  0
  -13.4445    7.5324   -3.2428 H   0  0  0  0  0  0  0  0  0  0  0  0
  -10.9826    9.1359   -0.4740 H   0  0  0  0  0  0  0  0  0  0  0  0
  -13.2199    7.8043    1.1741 H   0  0  0  0  0  0  0  0  0  0  0  0
  -11.7755    8.7044    1.8181 H   0  0  0  0  0  0  0  0  0  0  0  0
  -13.8396   10.0669    1.8950 H   0  0  0  0  0  0  0  0  0  0  0  0
  -12.5717   10.7645    0.8122 H   0  0  0  0  0  0  0  0  0  0  0  0
  -14.7028   10.9576   -0.2734 H   0  0  0  0  0  0  0  0  0  0  0  0
  -16.1260    9.4410    0.1700 H   0  0  0  0  0  0  0  0  0  0  0  0
  -12.3604   11.3853   -1.0920 H   0  0  0  0  0  0  0  0  0  0  0  0
  -11.8731   10.5258   -2.5921 H   0  0  0  0  0  0  0  0  0  0  0  0
  -13.3297   11.5770   -2.5921 H   0  0  0  0  0  0  0  0  0  0  0  0
  -15.6997    9.4670   -2.1505 H   0  0  0  0  0  0  0  0  0  0  0  0
  -14.7198   10.4616   -3.2807 H   0  0  0  0  0  0  0  0  0  0  0  0
  -14.5510    8.6733   -3.2807 H   0  0  0  0  0  0  0  0  0  0  0  0
  -11.4991    6.0664    1.6266 H   0  0  0  0  0  0  0  0  0  0  0  0
  -12.6675    5.9510    0.2670 H   0  0  0  0  0  0  0  0  0  0  0  0
  -11.1862    4.9349    0.2670 H   0  0  0  0  0  0  0  0  0  0  0  0
   -9.8365    8.0853    1.4122 H   0  0  0  0  0  0  0  0  0  0  0  0
   -9.2180    6.3803    1.0315 H   0  0  0  0  0  0  0  0  0  0  0  0
   -8.5524    8.9553   -0.4213 H   0  0  0  0  0  0  0  0  0  0  0  0
   -7.4626    7.8994    0.5612 H   0  0  0  0  0  0  0  0  0  0  0  0
   -7.6234    5.6153    0.2296 H   0  0  0  0  0  0  0  0  0  0  0  0
   -8.3683    4.9218   -1.2505 H   0  0  0  0  0  0  0  0  0  0  0  0
   -6.6323    5.3835   -1.2505 H   0  0  0  0  0  0  0  0  0  0  0  0
  1  2  1  0
  2  3  1  0
  3  4  1  0
  4  5  1  0
  5  6  1  0
  6  7  1  0
  7  8  1  0
  7  9  1  0
  2 10  1  0
 10 11  1  0
 11 12  1  0
 12 13  1  0
 13 14  1  6
 13 15  1  0
 15 16  1  0
 16 17  1  0
 17 18  2  0
 18 19  1  0
 19 20  1  0
 20 21  1  0
 21 22  1  0
 22 23  1  0
 22 24  1  0
 24 25  1  0
 24 26  1  0
 19 27  1  0
 27 28  1  1
 27 29  1  0
 29 30  1  0
 30 31  1  0
 31 32  1  1
  7  5  1  0
 31 10  1  0
 31 13  1  0
 27 15  1  0
 24 18  1  0
  1 33  1  0
  1 34  1  0
  1 35  1  0
  2 36  1  6
  3 37  1  0
  3 38  1  0
  4 39  1  0
  4 40  1  0
  5 41  1  1
  8 42  1  0
  8 43  1  0
  8 44  1  0
  9 45  1  0
  9 46  1  0
  9 47  1  0
 10 48  1  6
 11 49  1  0
 11 50  1  0
 12 51  1  0
 12 52  1  0
 14 53  1  0
 14 54  1  0
 14 55  1  0
 15 56  1  1
 16 57  1  0
 16 58  1  0
 17 59  1  0
 19 60  1  6
 20 61  1  0
 20 62  1  0
 21 63  1  0
 21 64  1  0
 22 65  1  6
 23 66  1  0
 25 67  1  0
 25 68  1  0
 25 69  1  0
 26 70  1  0
 26 71  1  0
 26 72  1  0
 28 73  1  0
 28 74  1  0
 28 75  1  0
 29 76  1  0
 29 77  1  0
 30 78  1  0
 30 79  1  0
 32 80  1  0
 32 81  1  0
 32 82  1  0
M  END
>  <meeko>  (8) 
{"is_sidechain": [false], "intermolecular_energy": 2.731, "internal_energy": -0.839}

$$$$
EPH_relaxed_0001_pdb2pqr_Repair_9_r2_0001_out
     RDKit          3D

 82 86  0  0  0  0  0  0  0  0999 V2000
    0.4090    8.7960   -2.3610 C   0  0  0  0  0  0  0  0  0  0  0  0
    1.1470    9.9360   -3.0680 C   0  0  2  0  0  0  0  0  0  0  0  0
    2.6500    9.9540   -2.7270 C   0  0  0  0  0  0  0  0  0  0  0  0
    3.5200   10.5920   -3.8130 C   0  0  0  0  0  0  0  0  0  0  0  0
    4.9180   10.8360   -3.3320 C   0  0  2  0  0  0  0  0  0  0  0  0
    5.5220   12.0380   -3.8290 O   0  0  0  0  0  0  0  0  0  0  0  0
    6.1340   10.8040   -4.2400 C   0  0  0  0  0  0  0  0  0  0  0  0
    6.0070   10.5200   -5.7030 C   0  0  0  0  0  0  0  0  0  0  0  0
    7.4780   10.5660   -3.6270 C   0  0  0  0  0  0  0  0  0  0  0  0
    0.5130   11.2720   -2.7010 C   0  0  1  0  0  0  0  0  0  0  0  0
   -0.8630   11.1090   -2.0010 C   0  0  0  0  0  0  0  0  0  0  0  0
   -0.9720   12.2500   -0.9580 C   0  0  0  0  0  0  0  0  0  0  0  0
    0.1800   13.2180   -1.3160 C   0  0  1  0  0  0  0  0  0  0  0  0
   -0.3710   14.0760   -2.4980 C   0  0  0  0  0  0  0  0  0  0  0  0
    0.7160   14.1150   -0.1530 C   0  0  2  0  0  0  0  0  0  0  0  0
   -0.3100   15.0960    0.4410 C   0  0  0  0  0  0  0  0  0  0  0  0
   -0.3510   16.4420   -0.2020 C   0  0  0  0  0  0  0  0  0  0  0  0
    0.5900   16.9470   -1.0210 C   0  0  0  0  0  0  0  0  0  0  0  0
    1.8880   16.1780   -1.2980 C   0  0  1  0  0  0  0  0  0  0  0  0
    3.0970   17.1420   -1.1730 C   0  0  0  0  0  0  0  0  0  0  0  0
    2.9530   18.3790   -2.0530 C   0  0  0  0  0  0  0  0  0  0  0  0
    1.6810   19.1490   -1.7090 C   0  0  2  0  0  0  0  0  0  0  0  0
    1.8120   19.6890   -0.3900 O   0  0  0  0  0  0  0  0  0  0  0  0
    0.3960   18.2770   -1.7910 C   0  0  0  0  0  0  0  0  0  0  0  0
    0.0890   17.9420   -3.2710 C   0  0  0  0  0  0  0  0  0  0  0  0
   -0.7950   19.1340   -1.2840 C   0  0  0  0  0  0  0  0  0  0  0  0
    2.0880   14.8360   -0.4710 C   0  0  1  0  0  0  0  0  0  0  0  0
    2.7530   15.1530    0.9040 C   0  0  0  0  0  0  0  0  0  0  0  0
    3.0910   13.9000   -1.2440 C   0  0  0  0  0  0  0  0  0  0  0  0
    2.4860   12.9520   -2.2960 C   0  0  0  0  0  0  0  0  0  0  0  0
    1.2920   12.1840   -1.7200 C   0  0  2  0  0  0  0  0  0  0  0  0
    1.8200   11.2950   -0.5430 C   0  0  0  0  0  0  0  0  0  0  0  0
    0.4925    8.9250   -1.2718 H   0  0  0  0  0  0  0  0  0  0  0  0
   -0.6518    8.8101   -2.6516 H   0  0  0  0  0  0  0  0  0  0  0  0
    0.8561    7.8339   -2.6516 H   0  0  0  0  0  0  0  0  0  0  0  0
    1.0567    9.7673   -4.1512 H   0  0  0  0  0  0  0  0  0  0  0  0
    2.7877   10.5207   -1.7943 H   0  0  0  0  0  0  0  0  0  0  0  0
    2.9707    8.9060   -2.6327 H   0  0  0  0  0  0  0  0  0  0  0  0
    3.5547    9.9193   -4.6827 H   0  0  0  0  0  0  0  0  0  0  0  0
    3.0760   11.5619   -4.0818 H   0  0  0  0  0  0  0  0  0  0  0  0
    4.6991   10.3410   -2.3744 H   0  0  0  0  0  0  0  0  0  0  0  0
    5.5618    9.5243   -5.8459 H   0  0  0  0  0  0  0  0  0  0  0  0
    5.3630   11.2800   -6.1695 H   0  0  0  0  0  0  0  0  0  0  0  0
    7.0028   10.5468   -6.1695 H   0  0  0  0  0  0  0  0  0  0  0  0
    7.3890   10.5818   -2.5307 H   0  0  0  0  0  0  0  0  0  0  0  0
    7.8599    9.5862   -3.9498 H   0  0  0  0  0  0  0  0  0  0  0  0
    8.1732   11.3550   -3.9498 H   0  0  0  0  0  0  0  0  0  0  0  0
    0.4746   11.7367   -3.6973 H   0  0  0  0  0  0  0  0  0  0  0  0
   -1.6752   11.1909   -2.7383 H   0  0  0  0  0  0  0  0  0  0  0  0
   -0.9466   10.1238   -1.5188 H   0  0  0  0  0  0  0  0  0  0  0  0
   -1.9446   12.7576   -1.0381 H   0  0  0  0  0  0  0  0  0  0  0  0
   -0.8990   11.8790    0.0750 H   0  0  0  0  0  0  0  0  0  0  0  0
   -0.9247   14.9383   -2.0982 H   0  0  0  0  0  0  0  0  0  0  0  0
    0.4675   14.4325   -3.1144 H   0  0  0  0  0  0  0  0  0  0  0  0
   -1.0440   13.4618   -3.1144 H   0  0  0  0  0  0  0  0  0  0  0  0
    0.9179   13.3788    0.6390 H   0  0  0  0  0  0  0  0  0  0  0  0
   -1.3079   14.6432    0.3457 H   0  0  0  0  0  0  0  0  0  0  0  0
   -0.0010   15.2657    1.4830 H   0  0  0  0  0  0  0  0  0  0  0  0
   -1.2247   17.0753    0.0116 H   0  0  0  0  0  0  0  0  0  0  0  0
    1.8100   15.8101   -2.3317 H   0  0  0  0  0  0  0  0  0  0  0  0
    3.1845   17.4635   -0.1247 H   0  0  0  0  0  0  0  0  0  0  0  0
    3.9931   16.5981   -1.5063 H   0  0  0  0  0  0  0  0  0  0  0  0
    3.8231   19.0340   -1.8982 H   0  0  0  0  0  0  0  0  0  0  0  0
    2.8951   18.0574   -3.1034 H   0  0  0  0  0  0  0  0  0  0  0  0
    1.5664   19.9480   -2.4563 H   0  0  0  0  0  0  0  0  0  0  0  0
    2.5950   20.2650   -0.3850 H   0  0  0  0  0  0  0  0  0  0  0  0
   -0.6535   17.1317   -3.3171 H   0  0  0  0  0  0  0  0  0  0  0  0
   -0.3110   18.8349   -3.7737 H   0  0  0  0  0  0  0  0  0  0  0  0
    1.0134   17.6213   -3.7737 H   0  0  0  0  0  0  0  0  0  0  0  0
   -0.8014   19.1386   -0.1840 H   0  0  0  0  0  0  0  0  0  0  0  0
   -0.6892   20.1644   -1.6544 H   0  0  0  0  0  0  0  0  0  0  0  0
   -1.7383   18.7063   -1.6544 H   0  0  0  0  0  0  0  0  0  0  0  0
    2.0841   14.8342    1.7170 H   0  0  0  0  0  0  0  0  0  0  0  0
    3.7084   14.6135    0.9823 H   0  0  0  0  0  0  0  0  0  0  0  0
    2.9354   16.2349    0.9823 H   0  0  0  0  0  0  0  0  0  0  0  0
    3.8197   14.5448   -1.7571 H   0  0  0  0  0  0  0  0  0  0  0  0
    3.5198   13.2405   -0.4751 H   0  0  0  0  0  0  0  0  0  0  0  0
    2.1506   13.5421   -3.1616 H   0  0  0  0  0  0  0  0  0  0  0  0
    3.2560   12.2273   -2.5991 H   0  0  0  0  0  0  0  0  0  0  0  0
    1.5457   11.7568    0.4169 H   0  0  0  0  0  0  0  0  0  0  0  0
    1.3703   10.2933   -0.6098 H   0  0  0  0  0  0  0  0  0  0  0  0
    2.9147   11.2106   -0.6098 H   0  0  0  0  0  0  0  0  0  0  0  0
  1  2  1  0
  2  3  1  0
  3  4  1  0
  4  5  1  0
  5  6  1  0
  6  7  1  0
  7  8  1  0
  7  9  1  0
  2 10  1  0
 10 11  1  0
 11 12  1  0
 12 13  1  0
 13 14  1  6
 13 15  1  0
 15 16  1  0
 16 17  1  0
 17 18  2  0
 18 19  1  0
 19 20  1  0
 20 21  1  0
 21 22  1  0
 22 23  1  0
 22 24  1  0
 24 25  1  0
 24 26  1  0
 19 27  1  0
 27 28  1  1
 27 29  1  0
 29 30  1  0
 30 31  1  0
 31 32  1  1
  7  5  1  0
 31 10  1  0
 31 13  1  0
 27 15  1  0
 24 18  1  0
  1 33  1  0
  1 34  1  0
  1 35  1  0
  2 36  1  6
  3 37  1  0
  3 38  1  0
  4 39  1  0
  4 40  1  0
  5 41  1  1
  8 42  1  0
  8 43  1  0
  8 44  1  0
  9 45  1  0
  9 46  1  0
  9 47  1  0
 10 48  1  6
 11 49  1  0
 11 50  1  0
 12 51  1  0
 12 52  1  0
 14 53  1  0
 14 54  1  0
 14 55  1  0
 15 56  1  1
 16 57  1  0
 16 58  1  0
 17 59  1  0
 19 60  1  6
 20 61  1  0
 20 62  1  0
 21 63  1  0
 21 64  1  0
 22 65  1  6
 23 66  1  0
 25 67  1  0
 25 68  1  0
 25 69  1  0
 26 70  1  0
 26 71  1  0
 26 72  1  0
 28 73  1  0
 28 74  1  0
 28 75  1  0
 29 76  1  0
 29 77  1  0
 30 78  1  0
 30 79  1  0
 32 80  1  0
 32 81  1  0
 32 82  1  0
M  END
>  <meeko>  (9) 
{"is_sidechain": [false], "intermolecular_energy": 2.731, "internal_energy": -0.839}

$$$$
EPH_relaxed_0001_pdb2pqr_Repair_9_r2_0001_out
     RDKit          3D

 82 86  0  0  0  0  0  0  0  0999 V2000
   -0.3790   10.6520   -4.2910 C   0  0  0  0  0  0  0  0  0  0  0  0
    0.8240   10.4330   -3.3690 C   0  0  2  0  0  0  0  0  0  0  0  0
    0.7660    9.0690   -2.6540 C   0  0  0  0  0  0  0  0  0  0  0  0
   -0.6070    8.7420   -2.0610 C   0  0  0  0  0  0  0  0  0  0  0  0
   -0.6580    9.0220   -0.5900 C   0  0  2  0  0  0  0  0  0  0  0  0
   -1.9680    8.9530   -0.0120 O   0  0  0  0  0  0  0  0  0  0  0  0
   -1.3340   10.2430    0.0060 C   0  0  0  0  0  0  0  0  0  0  0  0
   -2.0060   11.2630   -0.8580 C   0  0  0  0  0  0  0  0  0  0  0  0
   -0.9220   10.6930    1.3730 C   0  0  0  0  0  0  0  0  0  0  0  0
    0.9030   11.5570   -2.3430 C   0  0  1  0  0  0  0  0  0  0  0  0
    1.9510   11.2790   -1.2320 C   0  0  0  0  0  0  0  0  0  0  0  0
    2.5730   12.6470   -0.8510 C   0  0  0  0  0  0  0  0  0  0  0  0
    1.6410   13.6950   -1.5050 C   0  0  1  0  0  0  0  0  0  0  0  0
    0.4350   13.8270   -0.5230 C   0  0  0  0  0  0  0  0  0  0  0  0
    2.2810   15.0850   -1.8240 C   0  0  2  0  0  0  0  0  0  0  0  0
    2.7810   15.8700   -0.5990 C   0  0  0  0  0  0  0  0  0  0  0  0
    1.7810   16.7870    0.0220 C   0  0  0  0  0  0  0  0  0  0  0  0
    0.6300   17.1900   -0.5460 C   0  0  0  0  0  0  0  0  0  0  0  0
    0.2810   16.7930   -1.9870 C   0  0  1  0  0  0  0  0  0  0  0  0
   -0.2220   18.0390   -2.7600 C   0  0  0  0  0  0  0  0  0  0  0  0
   -1.3780   18.7400   -2.0530 C   0  0  0  0  0  0  0  0  0  0  0  0
   -0.9750   19.1710   -0.6450 C   0  0  2  0  0  0  0  0  0  0  0  0
    0.0240   20.1910   -0.7440 O   0  0  0  0  0  0  0  0  0  0  0  0
   -0.4420   17.9990    0.2260 C   0  0  0  0  0  0  0  0  0  0  0  0
   -1.6070   17.0450    0.5840 C   0  0  0  0  0  0  0  0  0  0  0  0
    0.0620   18.5930    1.5690 C   0  0  0  0  0  0  0  0  0  0  0  0
    1.4070   15.9970   -2.7780 C   0  0  1  0  0  0  0  0  0  0  0  0
    2.3890   16.9990   -3.4580 C   0  0  0  0  0  0  0  0  0  0  0  0
    0.7350   15.1760   -3.9410 C   0  0  0  0  0  0  0  0  0  0  0  0
    0.2300   13.7630   -3.5920 C   0  0  0  0  0  0  0  0  0  0  0  0
    1.3090   12.9620   -2.8560 C   0  0  2  0  0  0  0  0  0  0  0  0
    2.5260   12.7930   -3.8270 C   0  0  0  0  0  0  0  0  0  0  0  0
   -1.2813   10.8163   -3.6837 H   0  0  0  0  0  0  0  0  0  0  0  0
   -0.1990   11.5321   -4.9258 H   0  0  0  0  0  0  0  0  0  0  0  0
   -0.5207    9.7649   -4.9258 H   0  0  0  0  0  0  0  0  0  0  0  0
    1.7278   10.4383   -3.9960 H   0  0  0  0  0  0  0  0  0  0  0  0
    1.0260    8.2850   -3.3804 H   0  0  0  0  0  0  0  0  0  0  0  0
    1.4754    9.1160   -1.8146 H   0  0  0  0  0  0  0  0  0  0  0  0
   -1.3683    9.3541   -2.5667 H   0  0  0  0  0  0  0  0  0  0  0  0
   -0.7983    7.6693   -2.2120 H   0  0  0  0  0  0  0  0  0  0  0  0
    0.3443    8.5912   -0.4494 H   0  0  0  0  0  0  0  0  0  0  0  0
   -2.5002   12.0131   -0.2231 H   0  0  0  0  0  0  0  0  0  0  0  0
   -1.2559   11.7570   -1.4931 H   0  0  0  0  0  0  0  0  0  0  0  0
   -2.7560   10.7688   -1.4931 H   0  0  0  0  0  0  0  0  0  0  0  0
   -1.4606   10.1047    2.1305 H   0  0  0  0  0  0  0  0  0  0  0  0
    0.1611   10.5460    1.4965 H   0  0  0  0  0  0  0  0  0  0  0  0
   -1.1638   11.7590    1.4965 H   0  0  0  0  0  0  0  0  0  0  0  0
   -0.1428   11.5690   -2.0021 H   0  0  0  0  0  0  0  0  0  0  0  0
    1.4631   10.8275   -0.3556 H   0  0  0  0  0  0  0  0  0  0  0  0
    2.7228   10.5786   -1.5836 H   0  0  0  0  0  0  0  0  0  0  0  0
    2.5935   12.7735    0.2415 H   0  0  0  0  0  0  0  0  0  0  0  0
    3.6137   12.7422   -1.1942 H   0  0  0  0  0  0  0  0  0  0  0  0
    0.8003   13.7870    0.5138 H   0  0  0  0  0  0  0  0  0  0  0  0
   -0.0749   14.7863   -0.6954 H   0  0  0  0  0  0  0  0  0  0  0  0
   -0.2703   13.0007   -0.6954 H   0  0  0  0  0  0  0  0  0  0  0  0
    3.1833   14.8055   -2.3877 H   0  0  0  0  0  0  0  0  0  0  0  0
    3.0963   15.1437    0.1646 H   0  0  0  0  0  0  0  0  0  0  0  0
    3.5981   16.5112   -0.9612 H   0  0  0  0  0  0  0  0  0  0  0  0
    2.0040   17.1658    1.0303 H   0  0  0  0  0  0  0  0  0  0  0  0
   -0.5270   16.0504   -1.9111 H   0  0  0  0  0  0  0  0  0  0  0  0
    0.6111   18.7498   -2.8631 H   0  0  0  0  0  0  0  0  0  0  0  0
   -0.5878   17.6983   -3.7399 H   0  0  0  0  0  0  0  0  0  0  0  0
   -1.6685   19.6288   -2.6323 H   0  0  0  0  0  0  0  0  0  0  0  0
   -2.2213   18.0378   -1.9775 H   0  0  0  0  0  0  0  0  0  0  0  0
   -1.8788   19.5474   -0.1435 H   0  0  0  0  0  0  0  0  0  0  0  0
   -0.3720   20.9470   -1.2080 H   0  0  0  0  0  0  0  0  0  0  0  0
   -1.6974   16.9710    1.6778 H   0  0  0  0  0  0  0  0  0  0  0  0
   -2.5448   17.4379    0.1643 H   0  0  0  0  0  0  0  0  0  0  0  0
   -1.4068   16.0481    0.1643 H   0  0  0  0  0  0  0  0  0  0  0  0
   -0.3994   18.0492    2.4065 H   0  0  0  0  0  0  0  0  0  0  0  0
    1.1561   18.4942    1.6260 H   0  0  0  0  0  0  0  0  0  0  0  0
   -0.2136   19.6564    1.6260 H   0  0  0  0  0  0  0  0  0  0  0  0
    2.9366   17.5577   -2.6847 H   0  0  0  0  0  0  0  0  0  0  0  0
    3.1031   16.4445   -4.0845 H   0  0  0  0  0  0  0  0  0  0  0  0
    1.8202   17.7018   -4.0845 H   0  0  0  0  0  0  0  0  0  0  0  0
   -0.1258   15.7568   -4.3041 H   0  0  0  0  0  0  0  0  0  0  0  0
    1.5327   15.0216   -4.6825 H   0  0  0  0  0  0  0  0  0  0  0  0
   -0.6580   13.8469   -2.9482 H   0  0  0  0  0  0  0  0  0  0  0  0
   -0.0203   13.2390   -4.5262 H   0  0  0  0  0  0  0  0  0  0  0  0
    3.4479   12.6650   -3.2407 H   0  0  0  0  0  0  0  0  0  0  0  0
    2.3689   11.9080   -4.4612 H   0  0  0  0  0  0  0  0  0  0  0  0
    2.6160   13.6873   -4.4612 H   0  0  0  0  0  0  0  0  0  0  0  0
  1  2  1  0
  2  3  1  0
  3  4  1  0
  4  5  1  0
  5  6  1  0
  6  7  1  0
  7  8  1  0
  7  9  1  0
  2 10  1  0
 10 11  1  0
 11 12  1  0
 12 13  1  0
 13 14  1  1
 13 15  1  0
 15 16  1  0
 16 17  1  0
 17 18  2  0
 18 19  1  0
 19 20  1  0
 20 21  1  0
 21 22  1  0
 22 23  1  0
 22 24  1  0
 24 25  1  0
 24 26  1  0
 19 27  1  0
 27 28  1  6
 27 29  1  0
 29 30  1  0
 30 31  1  0
 31 32  1  6
  7  5  1  0
 31 10  1  0
 31 13  1  0
 27 15  1  0
 24 18  1  0
  1 33  1  0
  1 34  1  0
  1 35  1  0
  2 36  1  6
  3 37  1  0
  3 38  1  0
  4 39  1  0
  4 40  1  0
  5 41  1  1
  8 42  1  0
  8 43  1  0
  8 44  1  0
  9 45  1  0
  9 46  1  0
  9 47  1  0
 10 48  1  1
 11 49  1  0
 11 50  1  0
 12 51  1  0
 12 52  1  0
 14 53  1  0
 14 54  1  0
 14 55  1  0
 15 56  1  6
 16 57  1  0
 16 58  1  0
 17 59  1  0
 19 60  1  1
 20 61  1  0
 20 62  1  0
 21 63  1  0
 21 64  1  0
 22 65  1  1
 23 66  1  0
 25 67  1  0
 25 68  1  0
 25 69  1  0
 26 70  1  0
 26 71  1  0
 26 72  1  0
 28 73  1  0
 28 74  1  0
 28 75  1  0
 29 76  1  0
 29 77  1  0
 30 78  1  0
 30 79  1  0
 32 80  1  0
 32 81  1  0
 32 82  1  0
M  END
>  <meeko>  (10) 
{"is_sidechain": [false], "intermolecular_energy": 2.731, "internal_energy": -0.839}

$$$$
EPH_relaxed_0001_pdb2pqr_Repair_9_r2_0001_out
     RDKit          3D

 82 86  0  0  0  0  0  0  0  0999 V2000
    3.1310   18.5820   -3.4580 C   0  0  0  0  0  0  0  0  0  0  0  0
    2.0840   18.1540   -2.4250 C   0  0  2  0  0  0  0  0  0  0  0  0
    1.9590   19.1700   -1.2710 C   0  0  0  0  0  0  0  0  0  0  0  0
    0.8400   20.1940   -1.4710 C   0  0  0  0  0  0  0  0  0  0  0  0
   -0.3070   19.9520   -0.5370 C   0  0  2  0  0  0  0  0  0  0  0  0
   -1.0230   18.7330   -0.7710 O   0  0  0  0  0  0  0  0  0  0  0  0
   -1.7590   19.9490   -0.9780 C   0  0  0  0  0  0  0  0  0  0  0  0
   -2.1420   20.1940   -2.4040 C   0  0  0  0  0  0  0  0  0  0  0  0
   -2.8190   20.1940    0.0500 C   0  0  0  0  0  0  0  0  0  0  0  0
    2.4320   16.7770   -1.8720 C   0  0  1  0  0  0  0  0  0  0  0  0
    3.2890   16.8510   -0.5800 C   0  0  0  0  0  0  0  0  0  0  0  0
    2.8520   15.6640    0.3160 C   0  0  0  0  0  0  0  0  0  0  0  0
    2.0070   14.7630   -0.6150 C   0  0  1  0  0  0  0  0  0  0  0  0
    3.0510   13.9320   -1.4240 C   0  0  0  0  0  0  0  0  0  0  0  0
    0.9530   13.8440    0.0830 C   0  0  2  0  0  0  0  0  0  0  0  0
    1.5370   12.7950    1.0460 C   0  0  0  0  0  0  0  0  0  0  0  0
    1.8640   11.4760    0.4290 C   0  0  0  0  0  0  0  0  0  0  0  0
    1.4380   11.0470   -0.7730 C   0  0  0  0  0  0  0  0  0  0  0  0
    0.4570   11.8830   -1.6050 C   0  0  1  0  0  0  0  0  0  0  0  0
   -0.6760   10.9690   -2.1430 C   0  0  0  0  0  0  0  0  0  0  0  0
   -0.1400    9.7640   -2.9100 C   0  0  0  0  0  0  0  0  0  0  0  0
    0.7850    8.9260   -2.0320 C   0  0  2  0  0  0  0  0  0  0  0  0
    0.0140    8.3380   -0.9800 O   0  0  0  0  0  0  0  0  0  0  0  0
    1.9600    9.7430   -1.4250 C   0  0  0  0  0  0  0  0  0  0  0  0
    2.9600   10.1250   -2.5430 C   0  0  0  0  0  0  0  0  0  0  0  0
    2.7330    8.8150   -0.4500 C   0  0  0  0  0  0  0  0  0  0  0  0
   -0.1000   13.1980   -0.9060 C   0  0  1  0  0  0  0  0  0  0  0  0
   -1.3600   12.8540   -0.0540 C   0  0  0  0  0  0  0  0  0  0  0  0
   -0.5770   14.2070   -2.0160 C   0  0  0  0  0  0  0  0  0  0  0  0
    0.4850   15.1710   -2.5810 C   0  0  0  0  0  0  0  0  0  0  0  0
    1.2550   15.8620   -1.4520 C   0  0  2  0  0  0  0  0  0  0  0  0
    0.2340   16.7240   -0.6340 C   0  0  0  0  0  0  0  0  0  0  0  0
    4.0290   18.9491   -2.9395 H   0  0  0  0  0  0  0  0  0  0  0  0
    3.3978   17.7208   -4.0882 H   0  0  0  0  0  0  0  0  0  0  0  0
    2.7181   19.3835   -4.0882 H   0  0  0  0  0  0  0  0  0  0  0  0
    1.1109   18.1135   -2.9363 H   0  0  0  0  0  0  0  0  0  0  0  0
    1.7611   18.6166   -0.3411 H   0  0  0  0  0  0  0  0  0  0  0  0
    2.9046   19.7308   -1.2329 H   0  0  0  0  0  0  0  0  0  0  0  0
    1.2420   21.2015   -1.2882 H   0  0  0  0  0  0  0  0  0  0  0  0
    0.4684   20.0986   -2.5019 H   0  0  0  0  0  0  0  0  0  0  0  0
    0.2158   20.4747    0.2775 H   0  0  0  0  0  0  0  0  0  0  0  0
   -3.0682   20.7865   -2.4383 H   0  0  0  0  0  0  0  0  0  0  0  0
   -1.3357   20.7444   -2.9109 H   0  0  0  0  0  0  0  0  0  0  0  0
   -2.3036   19.2312   -2.9109 H   0  0  0  0  0  0  0  0  0  0  0  0
   -2.3847   20.0936    1.0556 H   0  0  0  0  0  0  0  0  0  0  0  0
   -3.2234   21.2093   -0.0751 H   0  0  0  0  0  0  0  0  0  0  0  0
   -3.6279   19.4591   -0.0751 H   0  0  0  0  0  0  0  0  0  0  0  0
    2.9467   16.3517   -2.7462 H   0  0  0  0  0  0  0  0  0  0  0  0
    4.3571   16.7646   -0.8286 H   0  0  0  0  0  0  0  0  0  0  0  0
    3.1417   17.8108   -0.0631 H   0  0  0  0  0  0  0  0  0  0  0  0
    3.7296   15.1183    0.6929 H   0  0  0  0  0  0  0  0  0  0  0  0
    2.2883   15.9946    1.2008 H   0  0  0  0  0  0  0  0  0  0  0  0
    3.7170   13.4019   -0.7273 H   0  0  0  0  0  0  0  0  0  0  0  0
    2.5266   13.2014   -2.0575 H   0  0  0  0  0  0  0  0  0  0  0  0
    3.6453   14.6069   -2.0575 H   0  0  0  0  0  0  0  0  0  0  0  0
    0.4021   14.5557    0.7154 H   0  0  0  0  0  0  0  0  0  0  0  0
    2.4611   13.2069    1.4776 H   0  0  0  0  0  0  0  0  0  0  0  0
    0.7531   12.5964    1.7917 H   0  0  0  0  0  0  0  0  0  0  0  0
    2.5083   10.7965    1.0062 H   0  0  0  0  0  0  0  0  0  0  0  0
    1.0400   12.2887   -2.4450 H   0  0  0  0  0  0  0  0  0  0  0  0
   -1.2726   10.6086   -1.2920 H   0  0  0  0  0  0  0  0  0  0  0  0
   -1.2839   11.5651   -2.8395 H   0  0  0  0  0  0  0  0  0  0  0  0
   -0.9853    9.1417   -3.2391 H   0  0  0  0  0  0  0  0  0  0  0  0
    0.4318   10.1259   -3.7772 H   0  0  0  0  0  0  0  0  0  0  0  0
    1.2375    8.1543   -2.6720 H   0  0  0  0  0  0  0  0  0  0  0  0
   -0.9060    8.2780   -1.2880 H   0  0  0  0  0  0  0  0  0  0  0  0
    3.8966   10.4828   -2.0906 H   0  0  0  0  0  0  0  0  0  0  0  0
    3.1675    9.2428   -3.1665 H   0  0  0  0  0  0  0  0  0  0  0  0
    2.5265   10.9208   -3.1665 H   0  0  0  0  0  0  0  0  0  0  0  0
    2.4987    9.0963    0.5873 H   0  0  0  0  0  0  0  0  0  0  0  0
    2.4340    7.7707   -0.6232 H   0  0  0  0  0  0  0  0  0  0  0  0
    3.8142    8.9203   -0.6232 H   0  0  0  0  0  0  0  0  0  0  0  0
   -1.1096   12.9224    1.0149 H   0  0  0  0  0  0  0  0  0  0  0  0
   -2.1661   13.5649   -0.2880 H   0  0  0  0  0  0  0  0  0  0  0  0
   -1.6930   11.8321   -0.2880 H   0  0  0  0  0  0  0  0  0  0  0  0
   -0.9707   13.6160   -2.8561 H   0  0  0  0  0  0  0  0  0  0  0  0
   -1.3170   14.8523   -1.5200 H   0  0  0  0  0  0  0  0  0  0  0  0
    1.1920   14.6027   -3.2032 H   0  0  0  0  0  0  0  0  0  0  0  0
   -0.0236   15.9404   -3.1804 H   0  0  0  0  0  0  0  0  0  0  0  0
    0.4088   16.5764    0.4420 H   0  0  0  0  0  0  0  0  0  0  0  0
    0.3676   17.7867   -0.8848 H   0  0  0  0  0  0  0  0  0  0  0  0
   -0.7912   16.4141   -0.8848 H   0  0  0  0  0  0  0  0  0  0  0  0
  1  2  1  0
  2  3  1  0
  3  4  1  0
  4  5  1  0
  5  6  1  0
  6  7  1  0
  7  8  1  0
  7  9  1  0
  2 10  1  0
 10 11  1  0
 11 12  1  0
 12 13  1  0
 13 14  1  6
 13 15  1  0
 15 16  1  0
 16 17  1  0
 17 18  2  0
 18 19  1  0
 19 20  1  0
 20 21  1  0
 21 22  1  0
 22 23  1  0
 22 24  1  0
 24 25  1  0
 24 26  1  0
 19 27  1  0
 27 28  1  1
 27 29  1  0
 29 30  1  0
 30 31  1  0
 31 32  1  1
  7  5  1  0
 31 10  1  0
 31 13  1  0
 27 15  1  0
 24 18  1  0
  1 33  1  0
  1 34  1  0
  1 35  1  0
  2 36  1  6
  3 37  1  0
  3 38  1  0
  4 39  1  0
  4 40  1  0
  5 41  1  1
  8 42  1  0
  8 43  1  0
  8 44  1  0
  9 45  1  0
  9 46  1  0
  9 47  1  0
 10 48  1  6
 11 49  1  0
 11 50  1  0
 12 51  1  0
 12 52  1  0
 14 53  1  0
 14 54  1  0
 14 55  1  0
 15 56  1  1
 16 57  1  0
 16 58  1  0
 17 59  1  0
 19 60  1  6
 20 61  1  0
 20 62  1  0
 21 63  1  0
 21 64  1  0
 22 65  1  6
 23 66  1  0
 25 67  1  0
 25 68  1  0
 25 69  1  0
 26 70  1  0
 26 71  1  0
 26 72  1  0
 28 73  1  0
 28 74  1  0
 28 75  1  0
 29 76  1  0
 29 77  1  0
 30 78  1  0
 30 79  1  0
 32 80  1  0
 32 81  1  0
 32 82  1  0
M  END
>  <meeko>  (11) 
{"is_sidechain": [false], "intermolecular_energy": 2.731, "internal_energy": -0.839}

$$$$
EPH_relaxed_0001_pdb2pqr_Repair_9_r2_0001_out
     RDKit          3D

 82 86  0  0  0  0  0  0  0  0999 V2000
   -3.7290    7.2470   -3.4530 C   0  0  0  0  0  0  0  0  0  0  0  0
   -3.7330    7.3010   -1.9220 C   0  0  2  0  0  0  0  0  0  0  0  0
   -5.1390    7.0640   -1.3360 C   0  0  0  0  0  0  0  0  0  0  0  0
   -6.2670    7.2210   -2.3600 C   0  0  0  0  0  0  0  0  0  0  0  0
   -7.5890    7.4570   -1.6950 C   0  0  2  0  0  0  0  0  0  0  0  0
   -8.1880    6.2880   -1.1220 O   0  0  0  0  0  0  0  0  0  0  0  0
   -8.8990    6.8940   -2.2140 C   0  0  0  0  0  0  0  0  0  0  0  0
   -8.9500    6.0500   -3.4490 C   0  0  0  0  0  0  0  0  0  0  0  0
  -10.1760    7.5600   -1.8070 C   0  0  0  0  0  0  0  0  0  0  0  0
   -3.1910    8.6450   -1.4490 C   0  0  1  0  0  0  0  0  0  0  0  0
   -3.8180    9.1020   -0.1050 C   0  0  0  0  0  0  0  0  0  0  0  0
   -2.7080    9.8520    0.6750 C   0  0  0  0  0  0  0  0  0  0  0  0
   -1.5920   10.0910   -0.3690 C   0  0  1  0  0  0  0  0  0  0  0  0
   -2.0540   11.3490   -1.1690 C   0  0  0  0  0  0  0  0  0  0  0  0
   -0.1440   10.2650    0.1950 C   0  0  2  0  0  0  0  0  0  0  0  0
    0.0560   11.4830    1.1150 C   0  0  0  0  0  0  0  0  0  0  0  0
    0.4740   12.7400    0.4270 C   0  0  0  0  0  0  0  0  0  0  0  0
    0.9570   12.8210   -0.8270 C   0  0  0  0  0  0  0  0  0  0  0  0
    1.2140   11.5570   -1.6560 C   0  0  1  0  0  0  0  0  0  0  0  0
    2.6100   11.6520   -2.3270 C   0  0  0  0  0  0  0  0  0  0  0  0
    2.7800   12.9300   -3.1440 C   0  0  0  0  0  0  0  0  0  0  0  0
    2.5730   14.1660   -2.2720 C   0  0  2  0  0  0  0  0  0  0  0  0
    3.6340   14.2370   -1.3150 O   0  0  0  0  0  0  0  0  0  0  0  0
    1.2040   14.1750   -1.5370 C   0  0  0  0  0  0  0  0  0  0  0  0
    0.0650   14.4020   -2.5620 C   0  0  0  0  0  0  0  0  0  0  0  0
    1.1820   15.4020   -0.5850 C   0  0  0  0  0  0  0  0  0  0  0  0
    0.9940   10.1760   -0.9010 C   0  0  1  0  0  0  0  0  0  0  0  0
    2.3000    9.7630   -0.1540 C   0  0  0  0  0  0  0  0  0  0  0  0
    0.7140    9.0470   -1.9630 C   0  0  0  0  0  0  0  0  0  0  0  0
   -0.7520    8.8440   -2.3910 C   0  0  0  0  0  0  0  0  0  0  0  0
   -1.6700    8.7400   -1.1690 C   0  0  2  0  0  0  0  0  0  0  0  0
   -1.2430    7.4710   -0.3570 C   0  0  0  0  0  0  0  0  0  0  0  0
   -3.6515    6.2005   -3.7828 H   0  0  0  0  0  0  0  0  0  0  0  0
   -4.6620    7.6845   -3.8378 H   0  0  0  0  0  0  0  0  0  0  0  0
   -2.8706    7.8172   -3.8378 H   0  0  0  0  0  0  0  0  0  0  0  0
   -3.0842    6.4897   -1.5601 H   0  0  0  0  0  0  0  0  0  0  0  0
   -5.1783    6.0425   -0.9298 H   0  0  0  0  0  0  0  0  0  0  0  0
   -5.2982    7.8296   -0.5623 H   0  0  0  0  0  0  0  0  0  0  0  0
   -6.0389    8.0758   -3.0137 H   0  0  0  0  0  0  0  0  0  0  0  0
   -6.3361    6.2891   -2.9403 H   0  0  0  0  0  0  0  0  0  0  0  0
   -7.2871    8.4737   -1.4031 H   0  0  0  0  0  0  0  0  0  0  0  0
   -9.0141    4.9891   -3.1657 H   0  0  0  0  0  0  0  0  0  0  0  0
   -9.8332    6.3245   -4.0445 H   0  0  0  0  0  0  0  0  0  0  0  0
   -8.0402    6.2162   -4.0445 H   0  0  0  0  0  0  0  0  0  0  0  0
  -10.2388    7.5927   -0.7093 H   0  0  0  0  0  0  0  0  0  0  0  0
  -10.1986    8.5847   -2.2063 H   0  0  0  0  0  0  0  0  0  0  0  0
  -11.0292    6.9920   -2.2063 H   0  0  0  0  0  0  0  0  0  0  0  0
   -3.4531    9.2658   -2.3184 H   0  0  0  0  0  0  0  0  0  0  0  0
   -4.6686    9.7737   -0.2930 H   0  0  0  0  0  0  0  0  0  0  0  0
   -4.1912    8.2412    0.4693 H   0  0  0  0  0  0  0  0  0  0  0  0
   -3.0860   10.8084    1.0654 H   0  0  0  0  0  0  0  0  0  0  0  0
   -2.3506    9.2813    1.5448 H   0  0  0  0  0  0  0  0  0  0  0  0
   -2.3458   12.1435   -0.4664 H   0  0  0  0  0  0  0  0  0  0  0  0
   -1.2278   11.7047   -1.8022 H   0  0  0  0  0  0  0  0  0  0  0  0
   -2.9140   11.0854   -1.8022 H   0  0  0  0  0  0  0  0  0  0  0  0
   -0.0349    9.3812    0.8407 H   0  0  0  0  0  0  0  0  0  0  0  0
   -0.8952   11.6785    1.6317 H   0  0  0  0  0  0  0  0  0  0  0  0
    0.8802   11.2193    1.7941 H   0  0  0  0  0  0  0  0  0  0  0  0
    0.3794   13.6790    0.9921 H   0  0  0  0  0  0  0  0  0  0  0  0
    0.4296   11.5351   -2.4269 H   0  0  0  0  0  0  0  0  0  0  0  0
    3.3807   11.6297   -1.5425 H   0  0  0  0  0  0  0  0  0  0  0  0
    2.7087   10.7996   -3.0153 H   0  0  0  0  0  0  0  0  0  0  0  0
    3.7948   12.9541   -3.5678 H   0  0  0  0  0  0  0  0  0  0  0  0
    2.0280   12.9364   -3.9468 H   0  0  0  0  0  0  0  0  0  0  0  0
    2.5774   15.0431   -2.9359 H   0  0  0  0  0  0  0  0  0  0  0  0
    4.4680   14.0790   -1.7880 H   0  0  0  0  0  0  0  0  0  0  0  0
   -0.8776   14.5899   -2.0271 H   0  0  0  0  0  0  0  0  0  0  0  0
    0.3074   15.2695   -3.1934 H   0  0  0  0  0  0  0  0  0  0  0  0
   -0.0437   13.5078   -3.1934 H   0  0  0  0  0  0  0  0  0  0  0  0
    1.1882   15.0561    0.4592 H   0  0  0  0  0  0  0  0  0  0  0  0
    2.0691   16.0256   -0.7700 H   0  0  0  0  0  0  0  0  0  0  0  0
    0.2731   15.9934   -0.7700 H   0  0  0  0  0  0  0  0  0  0  0  0
    2.1335    9.8157    0.9320 H   0  0  0  0  0  0  0  0  0  0  0  0
    2.5728    8.7347   -0.4337 H   0  0  0  0  0  0  0  0  0  0  0  0
    3.1145   10.4474   -0.4337 H   0  0  0  0  0  0  0  0  0  0  0  0
    1.2939    9.2884   -2.8660 H   0  0  0  0  0  0  0  0  0  0  0  0
    1.0018    8.1080   -1.4675 H   0  0  0  0  0  0  0  0  0  0  0  0
   -1.0686    9.6983   -3.0074 H   0  0  0  0  0  0  0  0  0  0  0  0
   -0.8238    7.9081   -2.9646 H   0  0  0  0  0  0  0  0  0  0  0  0
   -1.3145    7.6836    0.7199 H   0  0  0  0  0  0  0  0  0  0  0  0
   -1.9085    6.6326   -0.6102 H   0  0  0  0  0  0  0  0  0  0  0  0
   -0.2060    7.2054   -0.6102 H   0  0  0  0  0  0  0  0  0  0  0  0
  1  2  1  0
  2  3  1  0
  3  4  1  0
  4  5  1  0
  5  6  1  0
  6  7  1  0
  7  8  1  0
  7  9  1  0
  2 10  1  0
 10 11  1  0
 11 12  1  0
 12 13  1  0
 13 14  1  6
 13 15  1  0
 15 16  1  0
 16 17  1  0
 17 18  2  0
 18 19  1  0
 19 20  1  0
 20 21  1  0
 21 22  1  0
 22 23  1  0
 22 24  1  0
 24 25  1  0
 24 26  1  0
 19 27  1  0
 27 28  1  1
 27 29  1  0
 29 30  1  0
 30 31  1  0
 31 32  1  1
  7  5  1  0
 31 10  1  0
 31 13  1  0
 27 15  1  0
 24 18  1  0
  1 33  1  0
  1 34  1  0
  1 35  1  0
  2 36  1  1
  3 37  1  0
  3 38  1  0
  4 39  1  0
  4 40  1  0
  5 41  1  1
  8 42  1  0
  8 43  1  0
  8 44  1  0
  9 45  1  0
  9 46  1  0
  9 47  1  0
 10 48  1  6
 11 49  1  0
 11 50  1  0
 12 51  1  0
 12 52  1  0
 14 53  1  0
 14 54  1  0
 14 55  1  0
 15 56  1  1
 16 57  1  0
 16 58  1  0
 17 59  1  0
 19 60  1  6
 20 61  1  0
 20 62  1  0
 21 63  1  0
 21 64  1  0
 22 65  1  6
 23 66  1  0
 25 67  1  0
 25 68  1  0
 25 69  1  0
 26 70  1  0
 26 71  1  0
 26 72  1  0
 28 73  1  0
 28 74  1  0
 28 75  1  0
 29 76  1  0
 29 77  1  0
 30 78  1  0
 30 79  1  0
 32 80  1  0
 32 81  1  0
 32 82  1  0
M  END
>  <meeko>  (12) 
{"is_sidechain": [false], "intermolecular_energy": 2.731, "internal_energy": -0.839}

$$$$
EPH_relaxed_0001_pdb2pqr_Repair_9_r2_0001_out
     RDKit          3D

 82 86  0  0  0  0  0  0  0  0999 V2000
   -0.8490   16.3460   -5.8410 C   0  0  0  0  0  0  0  0  0  0  0  0
    0.2360   15.6400   -6.6590 C   0  0  2  0  0  0  0  0  0  0  0  0
   -0.1740   15.4620   -8.1350 C   0  0  0  0  0  0  0  0  0  0  0  0
    0.4560   16.4910   -9.0770 C   0  0  0  0  0  0  0  0  0  0  0  0
    1.8550   16.1110   -9.4580 C   0  0  2  0  0  0  0  0  0  0  0  0
    2.3110   16.6680  -10.6970 O   0  0  0  0  0  0  0  0  0  0  0  0
    2.1890   15.2370  -10.6520 C   0  0  0  0  0  0  0  0  0  0  0  0
    1.1180   14.6890  -11.5420 C   0  0  0  0  0  0  0  0  0  0  0  0
    3.5030   14.5200  -10.6690 C   0  0  0  0  0  0  0  0  0  0  0  0
    0.5540   14.2840   -6.0400 C   0  0  1  0  0  0  0  0  0  0  0  0
    1.8200   13.6290   -6.6530 C   0  0  0  0  0  0  0  0  0  0  0  0
    2.5250   12.8590   -5.5070 C   0  0  0  0  0  0  0  0  0  0  0  0
    1.4820   12.8170   -4.3660 C   0  0  1  0  0  0  0  0  0  0  0  0
    0.5260   11.6410   -4.7380 C   0  0  0  0  0  0  0  0  0  0  0  0
    2.0490   12.6640   -2.9170 C   0  0  2  0  0  0  0  0  0  0  0  0
    2.8180   11.3580   -2.6520 C   0  0  0  0  0  0  0  0  0  0  0  0
    1.9910   10.2220   -2.1470 C   0  0  0  0  0  0  0  0  0  0  0  0
    0.7460   10.3240   -1.6450 C   0  0  0  0  0  0  0  0  0  0  0  0
    0.0820   11.6940   -1.4580 C   0  0  1  0  0  0  0  0  0  0  0  0
   -0.5680   11.7660   -0.0510 C   0  0  0  0  0  0  0  0  0  0  0  0
   -1.5300   10.6110    0.2090 C   0  0  0  0  0  0  0  0  0  0  0  0
   -0.8190    9.2670    0.0700 C   0  0  2  0  0  0  0  0  0  0  0  0
    0.1440    9.1450    1.1220 O   0  0  0  0  0  0  0  0  0  0  0  0
   -0.1170    9.0840   -1.3050 C   0  0  0  0  0  0  0  0  0  0  0  0
   -1.1840    8.9150   -2.4150 C   0  0  0  0  0  0  0  0  0  0  0  0
    0.6790    7.7520   -1.2610 C   0  0  0  0  0  0  0  0  0  0  0  0
    0.9950   12.9560   -1.7740 C   0  0  1  0  0  0  0  0  0  0  0  0
    1.8110   13.3530   -0.5060 C   0  0  0  0  0  0  0  0  0  0  0  0
    0.0720   14.1860   -2.1110 C   0  0  0  0  0  0  0  0  0  0  0  0
   -0.3570   14.3510   -3.5810 C   0  0  0  0  0  0  0  0  0  0  0  0
    0.8500   14.2480   -4.5190 C   0  0  2  0  0  0  0  0  0  0  0  0
    1.8180   15.4330   -4.1840 C   0  0  0  0  0  0  0  0  0  0  0  0
   -0.6444   16.2129   -4.7684 H   0  0  0  0  0  0  0  0  0  0  0  0
   -0.8511   17.4189   -6.0835 H   0  0  0  0  0  0  0  0  0  0  0  0
   -1.8308   15.9133   -6.0835 H   0  0  0  0  0  0  0  0  0  0  0  0
    1.1326   16.2770   -6.6394 H   0  0  0  0  0  0  0  0  0  0  0  0
    0.1334   14.4577   -8.4621 H   0  0  0  0  0  0  0  0  0  0  0  0
   -1.2635   15.6047   -8.1854 H   0  0  0  0  0  0  0  0  0  0  0  0
   -0.1553   16.5607   -9.9889 H   0  0  0  0  0  0  0  0  0  0  0  0
    0.4940   17.4574   -8.5529 H   0  0  0  0  0  0  0  0  0  0  0  0
    2.1538   16.0610   -8.4005 H   0  0  0  0  0  0  0  0  0  0  0  0
    0.3065   14.2738  -10.9263 H   0  0  0  0  0  0  0  0  0  0  0  0
    0.7210   15.4948  -12.1769 H   0  0  0  0  0  0  0  0  0  0  0  0
    1.5392   13.8956  -12.1769 H   0  0  0  0  0  0  0  0  0  0  0  0
    3.8352   14.3387   -9.6361 H   0  0  0  0  0  0  0  0  0  0  0  0
    3.3895   13.5588  -11.1917 H   0  0  0  0  0  0  0  0  0  0  0  0
    4.2499   15.1356  -11.1917 H   0  0  0  0  0  0  0  0  0  0  0  0
   -0.3890   13.7591   -6.2528 H   0  0  0  0  0  0  0  0  0  0  0  0
    1.5355   12.9343   -7.4571 H   0  0  0  0  0  0  0  0  0  0  0  0
    2.4868   14.3886   -7.0870 H   0  0  0  0  0  0  0  0  0  0  0  0
    2.7899   11.8410   -5.8287 H   0  0  0  0  0  0  0  0  0  0  0  0
    3.4638   13.3408   -5.1965 H   0  0  0  0  0  0  0  0  0  0  0  0
    0.1454   11.1729   -3.8182 H   0  0  0  0  0  0  0  0  0  0  0  0
   -0.3176   12.0271   -5.3290 H   0  0  0  0  0  0  0  0  0  0  0  0
    1.0763   10.8941   -5.3290 H   0  0  0  0  0  0  0  0  0  0  0  0
    2.7993   13.4672   -2.8716 H   0  0  0  0  0  0  0  0  0  0  0  0
    3.2882   11.0431   -3.5953 H   0  0  0  0  0  0  0  0  0  0  0  0
    3.5402   11.5867   -1.8544 H   0  0  0  0  0  0  0  0  0  0  0  0
    2.4365    9.2171   -2.1886 H   0  0  0  0  0  0  0  0  0  0  0  0
   -0.6958   11.7637   -2.2327 H   0  0  0  0  0  0  0  0  0  0  0  0
    0.2285   11.7389    0.7072 H   0  0  0  0  0  0  0  0  0  0  0  0
   -1.1461   12.7003    0.0022 H   0  0  0  0  0  0  0  0  0  0  0  0
   -1.9335   10.7011    1.2283 H   0  0  0  0  0  0  0  0  0  0  0  0
   -2.3421   10.6569   -0.5316 H   0  0  0  0  0  0  0  0  0  0  0  0
   -1.5844    8.4799    0.1380 H   0  0  0  0  0  0  0  0  0  0  0  0
   -0.0210    8.3010    1.5750 H   0  0  0  0  0  0  0  0  0  0  0  0
   -2.1706    8.7587   -1.9544 H   0  0  0  0  0  0  0  0  0  0  0  0
   -1.2101    9.8202   -3.0394 H   0  0  0  0  0  0  0  0  0  0  0  0
   -0.9291    8.0460   -3.0394 H   0  0  0  0  0  0  0  0  0  0  0  0
    0.8519    7.4626   -0.2139 H   0  0  0  0  0  0  0  0  0  0  0  0
    0.1036    6.9640   -1.7689 H   0  0  0  0  0  0  0  0  0  0  0  0
    1.6455    7.8855   -1.7689 H   0  0  0  0  0  0  0  0  0  0  0  0
    1.2445   13.0774    0.3957 H   0  0  0  0  0  0  0  0  0  0  0  0
    2.7750   12.8232   -0.5096 H   0  0  0  0  0  0  0  0  0  0  0  0
    1.9891   14.4385   -0.5096 H   0  0  0  0  0  0  0  0  0  0  0  0
   -0.8420   14.0915   -1.5063 H   0  0  0  0  0  0  0  0  0  0  0  0
    0.6828   15.0733   -1.8884 H   0  0  0  0  0  0  0  0  0  0  0  0
   -1.0793   13.5615   -3.8359 H   0  0  0  0  0  0  0  0  0  0  0  0
   -0.8132   15.3443   -3.7040 H   0  0  0  0  0  0  0  0  0  0  0  0
    1.9043   15.5386   -3.0925 H   0  0  0  0  0  0  0  0  0  0  0  0
    2.8103   15.2281   -4.6121 H   0  0  0  0  0  0  0  0  0  0  0  0
    1.4192   16.3645   -4.6121 H   0  0  0  0  0  0  0  0  0  0  0  0
  1  2  1  0
  2  3  1  0
  3  4  1  0
  4  5  1  0
  5  6  1  0
  6  7  1  0
  7  8  1  0
  7  9  1  0
  2 10  1  0
 10 11  1  0
 11 12  1  0
 12 13  1  0
 13 14  1  6
 13 15  1  0
 15 16  1  0
 16 17  1  0
 17 18  2  0
 18 19  1  0
 19 20  1  0
 20 21  1  0
 21 22  1  0
 22 23  1  0
 22 24  1  0
 24 25  1  0
 24 26  1  0
 19 27  1  0
 27 28  1  1
 27 29  1  0
 29 30  1  0
 30 31  1  0
 31 32  1  1
  7  5  1  0
 31 10  1  0
 31 13  1  0
 27 15  1  0
 24 18  1  0
  1 33  1  0
  1 34  1  0
  1 35  1  0
  2 36  1  6
  3 37  1  0
  3 38  1  0
  4 39  1  0
  4 40  1  0
  5 41  1  1
  8 42  1  0
  8 43  1  0
  8 44  1  0
  9 45  1  0
  9 46  1  0
  9 47  1  0
 10 48  1  1
 11 49  1  0
 11 50  1  0
 12 51  1  0
 12 52  1  0
 14 53  1  0
 14 54  1  0
 14 55  1  0
 15 56  1  6
 16 57  1  0
 16 58  1  0
 17 59  1  0
 19 60  1  6
 20 61  1  0
 20 62  1  0
 21 63  1  0
 21 64  1  0
 22 65  1  1
 23 66  1  0
 25 67  1  0
 25 68  1  0
 25 69  1  0
 26 70  1  0
 26 71  1  0
 26 72  1  0
 28 73  1  0
 28 74  1  0
 28 75  1  0
 29 76  1  0
 29 77  1  0
 30 78  1  0
 30 79  1  0
 32 80  1  0
 32 81  1  0
 32 82  1  0
M  END
>  <meeko>  (13) 
{"is_sidechain": [false], "intermolecular_energy": 2.731, "internal_energy": -0.839}

$$$$
EPH_relaxed_0001_pdb2pqr_Repair_9_r2_0001_out
     RDKit          3D

 82 86  0  0  0  0  0  0  0  0999 V2000
    0.1090    9.4860   -2.6800 C   0  0  0  0  0  0  0  0  0  0  0  0
    1.2290   10.4680   -3.0370 C   0  0  2  0  0  0  0  0  0  0  0  0
    2.6110    9.7860   -3.0710 C   0  0  0  0  0  0  0  0  0  0  0  0
    3.6030   10.4520   -4.0280 C   0  0  0  0  0  0  0  0  0  0  0  0
    4.9630   10.5860   -3.4120 C   0  0  2  0  0  0  0  0  0  0  0  0
    5.5570   11.8830   -3.5490 O   0  0  0  0  0  0  0  0  0  0  0  0
    6.2290   10.8040   -4.2200 C   0  0  0  0  0  0  0  0  0  0  0  0
    6.1950   10.9010   -5.7130 C   0  0  0  0  0  0  0  0  0  0  0  0
    7.5430   10.4370   -3.6040 C   0  0  0  0  0  0  0  0  0  0  0  0
    1.2430   11.6240   -2.0430 C   0  0  1  0  0  0  0  0  0  0  0  0
    2.3460   11.4680   -0.9610 C   0  0  0  0  0  0  0  0  0  0  0  0
    2.8580   12.8950   -0.6370 C   0  0  0  0  0  0  0  0  0  0  0  0
    1.8200   13.8390   -1.2850 C   0  0  1  0  0  0  0  0  0  0  0  0
    0.6380   13.8960   -0.2670 C   0  0  0  0  0  0  0  0  0  0  0  0
    2.3270   15.2700   -1.6620 C   0  0  2  0  0  0  0  0  0  0  0  0
    2.7960   16.1290   -0.4750 C   0  0  0  0  0  0  0  0  0  0  0  0
    1.7400   16.9750    0.1570 C   0  0  0  0  0  0  0  0  0  0  0  0
    0.5410   17.2610   -0.3830 C   0  0  0  0  0  0  0  0  0  0  0  0
    0.1830   16.7950   -1.8000 C   0  0  1  0  0  0  0  0  0  0  0  0
   -0.4500   17.9720   -2.5880 C   0  0  0  0  0  0  0  0  0  0  0  0
   -1.6390   18.5910   -1.8600 C   0  0  0  0  0  0  0  0  0  0  0  0
   -1.2310   19.0950   -0.4780 C   0  0  2  0  0  0  0  0  0  0  0  0
   -0.3270   20.1930   -0.6370 O   0  0  0  0  0  0  0  0  0  0  0  0
   -0.5710   17.9980    0.4040 C   0  0  0  0  0  0  0  0  0  0  0  0
   -1.6380   16.9580    0.8260 C   0  0  0  0  0  0  0  0  0  0  0  0
   -0.0790   18.6710    1.7140 C   0  0  0  0  0  0  0  0  0  0  0  0
    1.3480   16.0760   -2.6080 C   0  0  1  0  0  0  0  0  0  0  0  0
    2.2180   17.1390   -3.3460 C   0  0  0  0  0  0  0  0  0  0  0  0
    0.7130   15.1680   -3.7260 C   0  0  0  0  0  0  0  0  0  0  0  0
    0.3440   13.7270   -3.3240 C   0  0  0  0  0  0  0  0  0  0  0  0
    1.5100   13.0430   -2.6050 C   0  0  2  0  0  0  0  0  0  0  0  0
    2.7060   12.9510   -3.6120 C   0  0  0  0  0  0  0  0  0  0  0  0
    0.0226    9.4103   -1.5860 H   0  0  0  0  0  0  0  0  0  0  0  0
   -0.8421    9.8466   -3.0988 H   0  0  0  0  0  0  0  0  0  0  0  0
    0.3421    8.4959   -3.0988 H   0  0  0  0  0  0  0  0  0  0  0  0
    1.0245   10.8493   -4.0483 H   0  0  0  0  0  0  0  0  0  0  0  0
    3.0361    9.8121   -2.0568 H   0  0  0  0  0  0  0  0  0  0  0  0
    2.4539    8.7596   -3.4342 H   0  0  0  0  0  0  0  0  0  0  0  0
    3.6832    9.8418   -4.9397 H   0  0  0  0  0  0  0  0  0  0  0  0
    3.2309   11.4608   -4.2602 H   0  0  0  0  0  0  0  0  0  0  0  0
    4.7048    9.8606   -2.6264 H   0  0  0  0  0  0  0  0  0  0  0  0
    5.8444   11.9012   -6.0076 H   0  0  0  0  0  0  0  0  0  0  0  0
    7.2054   10.7337   -6.1144 H   0  0  0  0  0  0  0  0  0  0  0  0
    5.5102   10.1395   -6.1144 H   0  0  0  0  0  0  0  0  0  0  0  0
    7.4538   10.4619   -2.5079 H   0  0  0  0  0  0  0  0  0  0  0  0
    7.8288    9.4247   -3.9257 H   0  0  0  0  0  0  0  0  0  0  0  0
    8.3120   11.1547   -3.9257 H   0  0  0  0  0  0  0  0  0  0  0  0
    0.2113   11.5565   -1.6674 H   0  0  0  0  0  0  0  0  0  0  0  0
    1.9271   11.0014   -0.0573 H   0  0  0  0  0  0  0  0  0  0  0  0
    3.1642   10.8263   -1.3200 H   0  0  0  0  0  0  0  0  0  0  0  0
    2.9017   13.0541    0.4506 H   0  0  0  0  0  0  0  0  0  0  0  0
    3.8751   13.0694   -1.0180 H   0  0  0  0  0  0  0  0  0  0  0  0
    1.0359   13.8768    0.7583 H   0  0  0  0  0  0  0  0  0  0  0  0
    0.0658   14.8228   -0.4210 H   0  0  0  0  0  0  0  0  0  0  0  0
   -0.0207   13.0286   -0.4210 H   0  0  0  0  0  0  0  0  0  0  0  0
    3.2313   15.0532   -2.2496 H   0  0  0  0  0  0  0  0  0  0  0  0
    3.1970   15.4541    0.2955 H   0  0  0  0  0  0  0  0  0  0  0  0
    3.5427   16.8273   -0.8810 H   0  0  0  0  0  0  0  0  0  0  0  0
    1.9608   17.4001    1.1472 H   0  0  0  0  0  0  0  0  0  0  0  0
   -0.5549   15.9885   -1.6778 H   0  0  0  0  0  0  0  0  0  0  0  0
    0.3150   18.7482   -2.7374 H   0  0  0  0  0  0  0  0  0  0  0  0
   -0.8155   17.5740   -3.5461 H   0  0  0  0  0  0  0  0  0  0  0  0
   -2.0237   19.4347   -2.4517 H   0  0  0  0  0  0  0  0  0  0  0  0
   -2.4151   17.8211   -1.7377 H   0  0  0  0  0  0  0  0  0  0  0  0
   -2.1477   19.4070    0.0438 H   0  0  0  0  0  0  0  0  0  0  0  0
    0.4620   20.0040   -0.1010 H   0  0  0  0  0  0  0  0  0  0  0  0
   -1.6883   16.9090    1.9238 H   0  0  0  0  0  0  0  0  0  0  0  0
   -2.6187   17.2563    0.4270 H   0  0  0  0  0  0  0  0  0  0  0  0
   -1.3649   15.9700    0.4270 H   0  0  0  0  0  0  0  0  0  0  0  0
   -0.4792   18.1236    2.5801 H   0  0  0  0  0  0  0  0  0  0  0  0
    1.0204   18.6530    1.7449 H   0  0  0  0  0  0  0  0  0  0  0  0
   -0.4297   19.7131    1.7449 H   0  0  0  0  0  0  0  0  0  0  0  0
    2.7334   17.7688   -2.6059 H   0  0  0  0  0  0  0  0  0  0  0  0
    2.9622   16.6302   -3.9763 H   0  0  0  0  0  0  0  0  0  0  0  0
    1.5721   17.7679   -3.9763 H   0  0  0  0  0  0  0  0  0  0  0  0
   -0.2061   15.6622   -4.0739 H   0  0  0  0  0  0  0  0  0  0  0  0
    1.4969   15.0619   -4.4904 H   0  0  0  0  0  0  0  0  0  0  0  0
   -0.5273   13.7525   -2.6530 H   0  0  0  0  0  0  0  0  0  0  0  0
    0.1113   13.1572   -4.2357 H   0  0  0  0  0  0  0  0  0  0  0  0
    3.6508   12.8783   -3.0534 H   0  0  0  0  0  0  0  0  0  0  0  0
    2.5847   12.0595   -4.2449 H   0  0  0  0  0  0  0  0  0  0  0  0
    2.7225   13.8505   -4.2449 H   0  0  0  0  0  0  0  0  0  0  0  0
  1  2  1  0
  2  3  1  0
  3  4  1  0
  4  5  1  0
  5  6  1  0
  6  7  1  0
  7  8  1  0
  7  9  1  0
  2 10  1  0
 10 11  1  0
 11 12  1  0
 12 13  1  0
 13 14  1  1
 13 15  1  0
 15 16  1  0
 16 17  1  0
 17 18  2  0
 18 19  1  0
 19 20  1  0
 20 21  1  0
 21 22  1  0
 22 23  1  0
 22 24  1  0
 24 25  1  0
 24 26  1  0
 19 27  1  0
 27 28  1  6
 27 29  1  0
 29 30  1  0
 30 31  1  0
 31 32  1  6
  7  5  1  0
 31 10  1  0
 31 13  1  0
 27 15  1  0
 24 18  1  0
  1 33  1  0
  1 34  1  0
  1 35  1  0
  2 36  1  6
  3 37  1  0
  3 38  1  0
  4 39  1  0
  4 40  1  0
  5 41  1  1
  8 42  1  0
  8 43  1  0
  8 44  1  0
  9 45  1  0
  9 46  1  0
  9 47  1  0
 10 48  1  1
 11 49  1  0
 11 50  1  0
 12 51  1  0
 12 52  1  0
 14 53  1  0
 14 54  1  0
 14 55  1  0
 15 56  1  6
 16 57  1  0
 16 58  1  0
 17 59  1  0
 19 60  1  1
 20 61  1  0
 20 62  1  0
 21 63  1  0
 21 64  1  0
 22 65  1  1
 23 66  1  0
 25 67  1  0
 25 68  1  0
 25 69  1  0
 26 70  1  0
 26 71  1  0
 26 72  1  0
 28 73  1  0
 28 74  1  0
 28 75  1  0
 29 76  1  0
 29 77  1  0
 30 78  1  0
 30 79  1  0
 32 80  1  0
 32 81  1  0
 32 82  1  0
M  END
>  <meeko>  (14) 
{"is_sidechain": [false], "intermolecular_energy": 2.731, "internal_energy": -0.839}

$$$$
EPH_relaxed_0001_pdb2pqr_Repair_9_r2_0001_out
     RDKit          3D

 82 86  0  0  0  0  0  0  0  0999 V2000
   -0.2020   20.1930   -1.7090 C   0  0  0  0  0  0  0  0  0  0  0  0
   -0.6190   18.8870   -1.0280 C   0  0  2  0  0  0  0  0  0  0  0  0
   -0.4580   18.9530    0.5040 C   0  0  0  0  0  0  0  0  0  0  0  0
    0.5980   19.9590    0.9680 C   0  0  0  0  0  0  0  0  0  0  0  0
    1.7120   19.2890    1.7140 C   0  0  2  0  0  0  0  0  0  0  0  0
    2.6150   20.1860    2.3750 O   0  0  0  0  0  0  0  0  0  0  0  0
    3.1710   19.3960    1.3120 C   0  0  0  0  0  0  0  0  0  0  0  0
    3.5960   20.1940    0.1190 C   0  0  0  0  0  0  0  0  0  0  0  0
    4.1220   18.3390    1.7800 C   0  0  0  0  0  0  0  0  0  0  0  0
    0.1960   17.7260   -1.5880 C   0  0  1  0  0  0  0  0  0  0  0  0
    1.6660   18.1200   -1.8930 C   0  0  0  0  0  0  0  0  0  0  0  0
    2.5370   16.8770   -1.5810 C   0  0  0  0  0  0  0  0  0  0  0  0
    1.5230   15.7190   -1.4270 C   0  0  1  0  0  0  0  0  0  0  0  0
    1.1940   15.2780   -2.8880 C   0  0  0  0  0  0  0  0  0  0  0  0
    1.9820   14.5100   -0.5490 C   0  0  2  0  0  0  0  0  0  0  0  0
    3.2100   13.7490   -1.0770 C   0  0  0  0  0  0  0  0  0  0  0  0
    2.9090   12.6080   -1.9920 C   0  0  0  0  0  0  0  0  0  0  0  0
    1.7040   12.0300   -2.1510 C   0  0  0  0  0  0  0  0  0  0  0  0
    0.5060   12.4590   -1.2940 C   0  0  1  0  0  0  0  0  0  0  0  0
   -0.2240   11.2000   -0.7580 C   0  0  0  0  0  0  0  0  0  0  0  0
   -0.6190   10.2340   -1.8710 C   0  0  0  0  0  0  0  0  0  0  0  0
    0.6060    9.7850   -2.6640 C   0  0  2  0  0  0  0  0  0  0  0  0
    1.4410    8.9930   -1.8130 O   0  0  0  0  0  0  0  0  0  0  0  0
    1.4270   10.9700   -3.2450 C   0  0  0  0  0  0  0  0  0  0  0  0
    0.6280   11.6460   -4.3860 C   0  0  0  0  0  0  0  0  0  0  0  0
    2.7090   10.3870   -3.8990 C   0  0  0  0  0  0  0  0  0  0  0  0
    0.8150   13.5180   -0.1500 C   0  0  1  0  0  0  0  0  0  0  0  0
    1.2780   12.7830    1.1450 C   0  0  0  0  0  0  0  0  0  0  0  0
   -0.5140   14.2770    0.2210 C   0  0  0  0  0  0  0  0  0  0  0  0
   -0.8520   15.5320   -0.6050 C   0  0  0  0  0  0  0  0  0  0  0  0
    0.3550   16.4720   -0.6920 C   0  0  2  0  0  0  0  0  0  0  0  0
    0.6950   16.9500    0.7610 C   0  0  0  0  0  0  0  0  0  0  0  0
    0.0382   20.9453   -0.9433 H   0  0  0  0  0  0  0  0  0  0  0  0
    0.6833   20.0129   -2.3365 H   0  0  0  0  0  0  0  0  0  0  0  0
   -1.0279   20.5593   -2.3365 H   0  0  0  0  0  0  0  0  0  0  0  0
   -1.6866   18.7292   -1.2407 H   0  0  0  0  0  0  0  0  0  0  0  0
   -1.4256   19.2376    0.9431 H   0  0  0  0  0  0  0  0  0  0  0  0
   -0.1232   17.9590    0.8356 H   0  0  0  0  0  0  0  0  0  0  0  0
    1.0151   20.4696    0.0875 H   0  0  0  0  0  0  0  0  0  0  0  0
    0.1134   20.6762    1.6468 H   0  0  0  0  0  0  0  0  0  0  0  0
    1.0708   18.4248    1.9422 H   0  0  0  0  0  0  0  0  0  0  0  0
    4.0886   21.1190    0.4532 H   0  0  0  0  0  0  0  0  0  0  0  0
    4.2986   19.6025   -0.4864 H   0  0  0  0  0  0  0  0  0  0  0  0
    2.7131   20.4469   -0.4864 H   0  0  0  0  0  0  0  0  0  0  0  0
    4.1381   18.3211    2.8797 H   0  0  0  0  0  0  0  0  0  0  0  0
    3.7957   17.3588    1.4021 H   0  0  0  0  0  0  0  0  0  0  0  0
    5.1311   18.5603    1.4021 H   0  0  0  0  0  0  0  0  0  0  0  0
   -0.4121   17.4832   -2.4719 H   0  0  0  0  0  0  0  0  0  0  0  0
    1.7711   18.3999   -2.9516 H   0  0  0  0  0  0  0  0  0  0  0  0
    1.9774   18.9826   -1.2855 H   0  0  0  0  0  0  0  0  0  0  0  0
    3.2350   16.6747   -2.4067 H   0  0  0  0  0  0  0  0  0  0  0  0
    3.1531   17.0147   -0.6802 H   0  0  0  0  0  0  0  0  0  0  0  0
    0.5364   14.3965   -2.8656 H   0  0  0  0  0  0  0  0  0  0  0  0
    0.6870   16.1004   -3.4139 H   0  0  0  0  0  0  0  0  0  0  0  0
    2.1268   15.0263   -3.4139 H   0  0  0  0  0  0  0  0  0  0  0  0
    2.3119   15.0036    0.3770 H   0  0  0  0  0  0  0  0  0  0  0  0
    3.8441   14.4636   -1.6222 H   0  0  0  0  0  0  0  0  0  0  0  0
    3.6985   13.3103   -0.1944 H   0  0  0  0  0  0  0  0  0  0  0  0
    3.7427   12.2058   -2.5864 H   0  0  0  0  0  0  0  0  0  0  0  0
   -0.1612   13.0210   -1.9641 H   0  0  0  0  0  0  0  0  0  0  0  0
    0.4436   10.6768   -0.0576 H   0  0  0  0  0  0  0  0  0  0  0  0
   -1.1477   11.5350   -0.2635 H   0  0  0  0  0  0  0  0  0  0  0  0
   -1.1036    9.3519   -1.4270 H   0  0  0  0  0  0  0  0  0  0  0  0
   -1.3101   10.7493   -2.5543 H   0  0  0  0  0  0  0  0  0  0  0  0
    0.2467    9.2005   -3.5238 H   0  0  0  0  0  0  0  0  0  0  0  0
    2.2700    8.8220   -2.2910 H   0  0  0  0  0  0  0  0  0  0  0  0
   -0.1447   12.2997   -3.9552 H   0  0  0  0  0  0  0  0  0  0  0  0
    1.3106   12.2449   -5.0067 H   0  0  0  0  0  0  0  0  0  0  0  0
    0.1504   10.8736   -5.0067 H   0  0  0  0  0  0  0  0  0  0  0  0
    3.4093   10.0685   -3.1128 H   0  0  0  0  0  0  0  0  0  0  0  0
    2.4411    9.5222   -4.5237 H   0  0  0  0  0  0  0  0  0  0  0  0
    3.1847   11.1573   -4.5237 H   0  0  0  0  0  0  0  0  0  0  0  0
    0.9278   13.3389    2.0272 H   0  0  0  0  0  0  0  0  0  0  0  0
    0.8565   11.7671    1.1606 H   0  0  0  0  0  0  0  0  0  0  0  0
    2.3763   12.7245    1.1606 H   0  0  0  0  0  0  0  0  0  0  0  0
   -1.3462   13.5673    0.1033 H   0  0  0  0  0  0  0  0  0  0  0  0
   -0.3598   14.6415    1.2473 H   0  0  0  0  0  0  0  0  0  0  0  0
   -1.1443   15.2266   -1.6205 H   0  0  0  0  0  0  0  0  0  0  0  0
   -1.6775   16.0655   -0.1111 H   0  0  0  0  0  0  0  0  0  0  0  0
    0.2171   16.2782    1.4892 H   0  0  0  0  0  0  0  0  0  0  0  0
    1.7852   16.9331    0.9069 H   0  0  0  0  0  0  0  0  0  0  0  0
    0.3214   17.9743    0.9069 H   0  0  0  0  0  0  0  0  0  0  0  0
  1  2  1  0
  2  3  1  0
  3  4  1  0
  4  5  1  0
  5  6  1  0
  6  7  1  0
  7  8  1  0
  7  9  1  0
  2 10  1  0
 10 11  1  0
 11 12  1  0
 12 13  1  0
 13 14  1  6
 13 15  1  0
 15 16  1  0
 16 17  1  0
 17 18  2  0
 18 19  1  0
 19 20  1  0
 20 21  1  0
 21 22  1  0
 22 23  1  0
 22 24  1  0
 24 25  1  0
 24 26  1  0
 19 27  1  0
 27 28  1  1
 27 29  1  0
 29 30  1  0
 30 31  1  0
 31 32  1  1
  7  5  1  0
 31 10  1  0
 31 13  1  0
 27 15  1  0
 24 18  1  0
  1 33  1  0
  1 34  1  0
  1 35  1  0
  2 36  1  1
  3 37  1  0
  3 38  1  0
  4 39  1  0
  4 40  1  0
  5 41  1  1
  8 42  1  0
  8 43  1  0
  8 44  1  0
  9 45  1  0
  9 46  1  0
  9 47  1  0
 10 48  1  6
 11 49  1  0
 11 50  1  0
 12 51  1  0
 12 52  1  0
 14 53  1  0
 14 54  1  0
 14 55  1  0
 15 56  1  1
 16 57  1  0
 16 58  1  0
 17 59  1  0
 19 60  1  6
 20 61  1  0
 20 62  1  0
 21 63  1  0
 21 64  1  0
 22 65  1  6
 23 66  1  0
 25 67  1  0
 25 68  1  0
 25 69  1  0
 26 70  1  0
 26 71  1  0
 26 72  1  0
 28 73  1  0
 28 74  1  0
 28 75  1  0
 29 76  1  0
 29 77  1  0
 30 78  1  0
 30 79  1  0
 32 80  1  0
 32 81  1  0
 32 82  1  0
M  END
>  <meeko>  (15) 
{"is_sidechain": [false], "intermolecular_energy": 2.731, "internal_energy": -0.839}

$$$$
EPH_relaxed_0001_pdb2pqr_Repair_9_r2_0001_out
     RDKit          3D

 82 86  0  0  0  0  0  0  0  0999 V2000
   -2.0700    7.8060   -2.1180 C   0  0  0  0  0  0  0  0  0  0  0  0
   -2.1590    8.4700   -0.7410 C   0  0  2  0  0  0  0  0  0  0  0  0
   -3.5990    8.4740   -0.1900 C   0  0  0  0  0  0  0  0  0  0  0  0
   -4.6640    8.1720   -1.2480 C   0  0  0  0  0  0  0  0  0  0  0  0
   -5.8100    7.3950   -0.6750 C   0  0  2  0  0  0  0  0  0  0  0  0
   -5.8680    6.0230   -1.0850 O   0  0  0  0  0  0  0  0  0  0  0  0
   -6.9570    6.8580   -1.5110 C   0  0  0  0  0  0  0  0  0  0  0  0
   -7.0150    7.0760   -2.9900 C   0  0  0  0  0  0  0  0  0  0  0  0
   -8.2550    6.5490   -0.8310 C   0  0  0  0  0  0  0  0  0  0  0  0
   -1.6270    9.8970   -0.8170 C   0  0  1  0  0  0  0  0  0  0  0  0
   -1.1610   10.4340    0.5620 C   0  0  0  0  0  0  0  0  0  0  0  0
    0.0600   11.3510    0.2950 C   0  0  0  0  0  0  0  0  0  0  0  0
    0.0520   11.5760   -1.2350 C   0  0  1  0  0  0  0  0  0  0  0  0
   -1.0040   12.7020   -1.4690 C   0  0  0  0  0  0  0  0  0  0  0  0
    1.4270   11.9300   -1.8890 C   0  0  2  0  0  0  0  0  0  0  0  0
    2.0590   13.2480   -1.4080 C   0  0  0  0  0  0  0  0  0  0  0  0
    1.6890   14.4590   -2.1990 C   0  0  0  0  0  0  0  0  0  0  0  0
    1.1150   14.4520   -3.4170 C   0  0  0  0  0  0  0  0  0  0  0  0
    0.8690   13.1350   -4.1640 C   0  0  1  0  0  0  0  0  0  0  0  0
    1.3380   13.2800   -5.6360 C   0  0  0  0  0  0  0  0  0  0  0  0
    0.7020   14.4770   -6.3370 C   0  0  0  0  0  0  0  0  0  0  0  0
    1.0180   15.7740   -5.5970 C   0  0  2  0  0  0  0  0  0  0  0  0
    2.4220   16.0320   -5.6980 O   0  0  0  0  0  0  0  0  0  0  0  0
    0.5990   15.7420   -4.1000 C   0  0  0  0  0  0  0  0  0  0  0  0
   -0.9460   15.7650   -3.9910 C   0  0  0  0  0  0  0  0  0  0  0  0
    1.1010   17.0530   -3.4360 C   0  0  0  0  0  0  0  0  0  0  0  0
    1.4400   11.8260   -3.4680 C   0  0  1  0  0  0  0  0  0  0  0  0
    2.9250   11.6040   -3.8870 C   0  0  0  0  0  0  0  0  0  0  0  0
    0.6400   10.5750   -3.9910 C   0  0  0  0  0  0  0  0  0  0  0  0
   -0.6470   10.2050   -3.2290 C   0  0  0  0  0  0  0  0  0  0  0  0
   -0.3940   10.1490   -1.7200 C   0  0  2  0  0  0  0  0  0  0  0  0
    0.6480    9.0100   -1.4510 C   0  0  0  0  0  0  0  0  0  0  0  0
   -1.9248    6.7227   -1.9940 H   0  0  0  0  0  0  0  0  0  0  0  0
   -3.0008    7.9898   -2.6746 H   0  0  0  0  0  0  0  0  0  0  0  0
   -1.2205    8.2285   -2.6746 H   0  0  0  0  0  0  0  0  0  0  0  0
   -1.5420    7.8789   -0.0482 H   0  0  0  0  0  0  0  0  0  0  0  0
   -3.6701    7.7132    0.6013 H   0  0  0  0  0  0  0  0  0  0  0  0
   -3.7969    9.4891    0.1846 H   0  0  0  0  0  0  0  0  0  0  0  0
   -5.0441    9.1217   -1.6524 H   0  0  0  0  0  0  0  0  0  0  0  0
   -4.1993    7.5646   -2.0386 H   0  0  0  0  0  0  0  0  0  0  0  0
   -5.7862    7.9944    0.2470 H   0  0  0  0  0  0  0  0  0  0  0  0
   -7.2928    8.1202   -3.1961 H   0  0  0  0  0  0  0  0  0  0  0  0
   -6.0295    6.8650   -3.4307 H   0  0  0  0  0  0  0  0  0  0  0  0
   -7.7654    6.4031   -3.4307 H   0  0  0  0  0  0  0  0  0  0  0  0
   -8.1147    6.5824    0.2595 H   0  0  0  0  0  0  0  0  0  0  0  0
   -9.0099    7.2925   -1.1265 H   0  0  0  0  0  0  0  0  0  0  0  0
   -8.5939    5.5451   -1.1265 H   0  0  0  0  0  0  0  0  0  0  0  0
   -2.5098   10.4013   -1.2370 H   0  0  0  0  0  0  0  0  0  0  0  0
   -1.9695   11.0085    1.0377 H   0  0  0  0  0  0  0  0  0  0  0  0
   -0.8946    9.6082    1.2381 H   0  0  0  0  0  0  0  0  0  0  0  0
   -0.0482   12.3068    0.8286 H   0  0  0  0  0  0  0  0  0  0  0  0
    1.0019   10.9041    0.6459 H   0  0  0  0  0  0  0  0  0  0  0  0
   -1.3583   13.0798   -0.4986 H   0  0  0  0  0  0  0  0  0  0  0  0
   -0.5437   13.5241   -2.0366 H   0  0  0  0  0  0  0  0  0  0  0  0
   -1.8540   12.2954   -2.0366 H   0  0  0  0  0  0  0  0  0  0  0  0
    2.0802   11.1299   -1.5106 H   0  0  0  0  0  0  0  0  0  0  0  0
    1.7471   13.4142   -0.3663 H   0  0  0  0  0  0  0  0  0  0  0  0
    3.1456   13.1262   -1.5287 H   0  0  0  0  0  0  0  0  0  0  0  0
    1.9034   15.4395   -1.7488 H   0  0  0  0  0  0  0  0  0  0  0  0
   -0.2175   12.9657   -4.1329 H   0  0  0  0  0  0  0  0  0  0  0  0
    2.4309   13.4044   -5.6474 H   0  0  0  0  0  0  0  0  0  0  0  0
    1.0284   12.3732   -6.1762 H   0  0  0  0  0  0  0  0  0  0  0  0
    1.0936   14.5432   -7.3628 H   0  0  0  0  0  0  0  0  0  0  0  0
   -0.3890   14.3372   -6.3500 H   0  0  0  0  0  0  0  0  0  0  0  0
    0.4319   16.5756   -6.0702 H   0  0  0  0  0  0  0  0  0  0  0  0
    2.6520   16.0400   -6.6420 H   0  0  0  0  0  0  0  0  0  0  0  0
   -1.2387   15.7694   -2.9307 H   0  0  0  0  0  0  0  0  0  0  0  0
   -1.3348   16.6690   -4.4825 H   0  0  0  0  0  0  0  0  0  0  0  0
   -1.3616   14.8729   -4.4825 H   0  0  0  0  0  0  0  0  0  0  0  0
    1.0610   16.9484   -2.3417 H   0  0  0  0  0  0  0  0  0  0  0  0
    2.1376   17.2484   -3.7480 H   0  0  0  0  0  0  0  0  0  0  0  0
    0.4601   17.8908   -3.7480 H   0  0  0  0  0  0  0  0  0  0  0  0
    3.5500   11.5106   -2.9866 H   0  0  0  0  0  0  0  0  0  0  0  0
    3.0037   10.6841   -4.4850 H   0  0  0  0  0  0  0  0  0  0  0  0
    3.2692   12.4607   -4.4850 H   0  0  0  0  0  0  0  0  0  0  0  0
    0.3625   10.7711   -5.0372 H   0  0  0  0  0  0  0  0  0  0  0  0
    1.3163    9.7197   -3.8459 H   0  0  0  0  0  0  0  0  0  0  0  0
   -1.4181   10.9615   -3.4367 H   0  0  0  0  0  0  0  0  0  0  0  0
   -0.9806    9.2123   -3.5656 H   0  0  0  0  0  0  0  0  0  0  0  0
    0.7716    8.8748   -0.3664 H   0  0  0  0  0  0  0  0  0  0  0  0
    0.2892    8.0716   -1.8989 H   0  0  0  0  0  0  0  0  0  0  0  0
    1.6146    9.2840   -1.8989 H   0  0  0  0  0  0  0  0  0  0  0  0
  1  2  1  0
  2  3  1  0
  3  4  1  0
  4  5  1  0
  5  6  1  0
  6  7  1  0
  7  8  1  0
  7  9  1  0
  2 10  1  0
 10 11  1  0
 11 12  1  0
 12 13  1  0
 13 14  1  1
 13 15  1  0
 15 16  1  0
 16 17  1  0
 17 18  2  0
 18 19  1  0
 19 20  1  0
 20 21  1  0
 21 22  1  0
 22 23  1  0
 22 24  1  0
 24 25  1  0
 24 26  1  0
 19 27  1  0
 27 28  1  6
 27 29  1  0
 29 30  1  0
 30 31  1  0
 31 32  1  6
  7  5  1  0
 31 10  1  0
 31 13  1  0
 27 15  1  0
 24 18  1  0
  1 33  1  0
  1 34  1  0
  1 35  1  0
  2 36  1  1
  3 37  1  0
  3 38  1  0
  4 39  1  0
  4 40  1  0
  5 41  1  1
  8 42  1  0
  8 43  1  0
  8 44  1  0
  9 45  1  0
  9 46  1  0
  9 47  1  0
 10 48  1  6
 11 49  1  0
 11 50  1  0
 12 51  1  0
 12 52  1  0
 14 53  1  0
 14 54  1  0
 14 55  1  0
 15 56  1  1
 16 57  1  0
 16 58  1  0
 17 59  1  0
 19 60  1  6
 20 61  1  0
 20 62  1  0
 21 63  1  0
 21 64  1  0
 22 65  1  6
 23 66  1  0
 25 67  1  0
 25 68  1  0
 25 69  1  0
 26 70  1  0
 26 71  1  0
 26 72  1  0
 28 73  1  0
 28 74  1  0
 28 75  1  0
 29 76  1  0
 29 77  1  0
 30 78  1  0
 30 79  1  0
 32 80  1  0
 32 81  1  0
 32 82  1  0
M  END
>  <meeko>  (16) 
{"is_sidechain": [false], "intermolecular_energy": 2.731, "internal_energy": -0.839}

$$$$
EPH_relaxed_0001_pdb2pqr_Repair_9_r2_0001_out
     RDKit          3D

 82 86  0  0  0  0  0  0  0  0999 V2000
    2.8410   11.3700   -5.3860 C   0  0  0  0  0  0  0  0  0  0  0  0
    1.8510   11.0640   -4.2590 C   0  0  2  0  0  0  0  0  0  0  0  0
    0.7330   10.1040   -4.7130 C   0  0  0  0  0  0  0  0  0  0  0  0
   -0.3380    9.8590   -3.6470 C   0  0  0  0  0  0  0  0  0  0  0  0
    0.1900    9.0400   -2.5080 C   0  0  2  0  0  0  0  0  0  0  0  0
   -0.6600    7.9590   -2.1020 O   0  0  0  0  0  0  0  0  0  0  0  0
   -0.4550    9.0020   -1.1350 C   0  0  0  0  0  0  0  0  0  0  0  0
   -1.6850    9.7970   -0.8280 C   0  0  0  0  0  0  0  0  0  0  0  0
    0.3790    8.5830    0.0360 C   0  0  0  0  0  0  0  0  0  0  0  0
    1.2440   12.3590   -3.7330 C   0  0  1  0  0  0  0  0  0  0  0  0
   -0.2960   12.2720   -3.5630 C   0  0  0  0  0  0  0  0  0  0  0  0
   -0.6580   13.1250   -2.3200 C   0  0  0  0  0  0  0  0  0  0  0  0
    0.6240   13.9350   -2.0170 C   0  0  1  0  0  0  0  0  0  0  0  0
    0.5820   15.1380   -3.0100 C   0  0  0  0  0  0  0  0  0  0  0  0
    0.8050   14.4130   -0.5390 C   0  0  2  0  0  0  0  0  0  0  0  0
   -0.2760   15.3820   -0.0290 C   0  0  0  0  0  0  0  0  0  0  0  0
    0.0170   16.8310   -0.2380 C   0  0  0  0  0  0  0  0  0  0  0  0
    1.2190   17.3490   -0.5500 C   0  0  0  0  0  0  0  0  0  0  0  0
    2.4650   16.4570   -0.6280 C   0  0  1  0  0  0  0  0  0  0  0  0
    3.6360   17.1350    0.1310 C   0  0  0  0  0  0  0  0  0  0  0  0
    3.9040   18.5560   -0.3560 C   0  0  0  0  0  0  0  0  0  0  0  0
    2.6590   19.4270   -0.2090 C   0  0  2  0  0  0  0  0  0  0  0  0
    2.3790   19.5980    1.1840 O   0  0  0  0  0  0  0  0  0  0  0  0
    1.4110   18.8390   -0.9250 C   0  0  0  0  0  0  0  0  0  0  0  0
    1.5990   18.9340   -2.4590 C   0  0  0  0  0  0  0  0  0  0  0  0
    0.1950   19.7400   -0.5800 C   0  0  0  0  0  0  0  0  0  0  0  0
    2.2590   14.9400   -0.2020 C   0  0  1  0  0  0  0  0  0  0  0  0
    2.4410   14.7900    1.3390 C   0  0  0  0  0  0  0  0  0  0  0  0
    3.3830   14.0620   -0.8690 C   0  0  0  0  0  0  0  0  0  0  0  0
    3.0950   13.5200   -2.2820 C   0  0  0  0  0  0  0  0  0  0  0  0
    1.7170   12.8530   -2.3430 C   0  0  2  0  0  0  0  0  0  0  0  0
    1.7350   11.6260   -1.3690 C   0  0  0  0  0  0  0  0  0  0  0  0
    3.8075   11.6687   -4.9540 H   0  0  0  0  0  0  0  0  0  0  0  0
    2.9786   10.4725   -6.0069 H   0  0  0  0  0  0  0  0  0  0  0  0
    2.4482   12.1887   -6.0069 H   0  0  0  0  0  0  0  0  0  0  0  0
    2.4102   10.5630   -3.4551 H   0  0  0  0  0  0  0  0  0  0  0  0
    0.2468   10.5327   -5.6017 H   0  0  0  0  0  0  0  0  0  0  0  0
    1.2073    9.1336   -4.9212 H   0  0  0  0  0  0  0  0  0  0  0  0
   -0.6829   10.8287   -3.2589 H   0  0  0  0  0  0  0  0  0  0  0  0
   -1.1653    9.3041   -4.1135 H   0  0  0  0  0  0  0  0  0  0  0  0
    1.2264    9.2159   -2.8318 H   0  0  0  0  0  0  0  0  0  0  0  0
   -1.8077    9.8763    0.2623 H   0  0  0  0  0  0  0  0  0  0  0  0
   -1.5882   10.8039   -1.2603 H   0  0  0  0  0  0  0  0  0  0  0  0
   -2.5633    9.2952   -1.2603 H   0  0  0  0  0  0  0  0  0  0  0  0
   -0.1415    8.8445    0.9691 H   0  0  0  0  0  0  0  0  0  0  0  0
    0.5424    7.4958   -0.0005 H   0  0  0  0  0  0  0  0  0  0  0  0
    1.3488    9.1009   -0.0005 H   0  0  0  0  0  0  0  0  0  0  0  0
    1.5854   13.0530   -4.5152 H   0  0  0  0  0  0  0  0  0  0  0  0
   -0.7988   12.6716   -4.4560 H   0  0  0  0  0  0  0  0  0  0  0  0
   -0.6207   11.2289   -3.4342 H   0  0  0  0  0  0  0  0  0  0  0  0
   -1.4993   13.7980   -2.5423 H   0  0  0  0  0  0  0  0  0  0  0  0
   -0.9726   12.5065   -1.4665 H   0  0  0  0  0  0  0  0  0  0  0  0
    0.5491   16.0802   -2.4433 H   0  0  0  0  0  0  0  0  0  0  0  0
    1.4812   15.1222   -3.6433 H   0  0  0  0  0  0  0  0  0  0  0  0
   -0.3140   15.0596   -3.6433 H   0  0  0  0  0  0  0  0  0  0  0  0
    0.6628   13.4818    0.0290 H   0  0  0  0  0  0  0  0  0  0  0  0
   -1.2162   15.1468   -0.5493 H   0  0  0  0  0  0  0  0  0  0  0  0
   -0.3268   15.2356    1.0600 H   0  0  0  0  0  0  0  0  0  0  0  0
   -0.8210   17.5349   -0.1275 H   0  0  0  0  0  0  0  0  0  0  0  0
    2.7122   16.3727   -1.6966 H   0  0  0  0  0  0  0  0  0  0  0  0
    3.3885   17.1702    1.2022 H   0  0  0  0  0  0  0  0  0  0  0  0
    4.5431   16.5414   -0.0556 H   0  0  0  0  0  0  0  0  0  0  0  0
    4.7206   18.9921    0.2380 H   0  0  0  0  0  0  0  0  0  0  0  0
    4.1810   18.5162   -1.4198 H   0  0  0  0  0  0  0  0  0  0  0  0
    2.8718   20.3915   -0.6932 H   0  0  0  0  0  0  0  0  0  0  0  0
    1.4130   19.6340    1.2870 H   0  0  0  0  0  0  0  0  0  0  0  0
    2.5605   19.4199   -2.6812 H   0  0  0  0  0  0  0  0  0  0  0  0
    1.5901   17.9232   -2.8928 H   0  0  0  0  0  0  0  0  0  0  0  0
    0.7799   19.5264   -2.8928 H   0  0  0  0  0  0  0  0  0  0  0  0
    0.0930   19.8156    0.5126 H   0  0  0  0  0  0  0  0  0  0  0  0
    0.3499   20.7431   -1.0041 H   0  0  0  0  0  0  0  0  0  0  0  0
   -0.7195   19.2998   -1.0041 H   0  0  0  0  0  0  0  0  0  0  0  0
    1.6927   15.4067    1.8583 H   0  0  0  0  0  0  0  0  0  0  0  0
    2.3081   13.7356    1.6230 H   0  0  0  0  0  0  0  0  0  0  0  0
    3.4506   15.1218    1.6230 H   0  0  0  0  0  0  0  0  0  0  0  0
    4.2939   14.6759   -0.9275 H   0  0  0  0  0  0  0  0  0  0  0  0
    3.4679   13.1702   -0.2307 H   0  0  0  0  0  0  0  0  0  0  0  0
    3.1237   14.3531   -2.9997 H   0  0  0  0  0  0  0  0  0  0  0  0
    3.8593   12.7696   -2.5324 H   0  0  0  0  0  0  0  0  0  0  0  0
    1.7298   11.9835   -0.3287 H   0  0  0  0  0  0  0  0  0  0  0  0
    0.8459   11.0033   -1.5472 H   0  0  0  0  0  0  0  0  0  0  0  0
    2.6420   11.0297   -1.5472 H   0  0  0  0  0  0  0  0  0  0  0  0
  1  2  1  0
  2  3  1  0
  3  4  1  0
  4  5  1  0
  5  6  1  0
  6  7  1  0
  7  8  1  0
  7  9  1  0
  2 10  1  0
 10 11  1  0
 11 12  1  0
 12 13  1  0
 13 14  1  6
 13 15  1  0
 15 16  1  0
 16 17  1  0
 17 18  2  0
 18 19  1  0
 19 20  1  0
 20 21  1  0
 21 22  1  0
 22 23  1  0
 22 24  1  0
 24 25  1  0
 24 26  1  0
 19 27  1  0
 27 28  1  1
 27 29  1  0
 29 30  1  0
 30 31  1  0
 31 32  1  1
  7  5  1  0
 31 10  1  0
 31 13  1  0
 27 15  1  0
 24 18  1  0
  1 33  1  0
  1 34  1  0
  1 35  1  0
  2 36  1  1
  3 37  1  0
  3 38  1  0
  4 39  1  0
  4 40  1  0
  5 41  1  1
  8 42  1  0
  8 43  1  0
  8 44  1  0
  9 45  1  0
  9 46  1  0
  9 47  1  0
 10 48  1  6
 11 49  1  0
 11 50  1  0
 12 51  1  0
 12 52  1  0
 14 53  1  0
 14 54  1  0
 14 55  1  0
 15 56  1  1
 16 57  1  0
 16 58  1  0
 17 59  1  0
 19 60  1  6
 20 61  1  0
 20 62  1  0
 21 63  1  0
 21 64  1  0
 22 65  1  6
 23 66  1  0
 25 67  1  0
 25 68  1  0
 25 69  1  0
 26 70  1  0
 26 71  1  0
 26 72  1  0
 28 73  1  0
 28 74  1  0
 28 75  1  0
 29 76  1  0
 29 77  1  0
 30 78  1  0
 30 79  1  0
 32 80  1  0
 32 81  1  0
 32 82  1  0
M  END
>  <meeko>  (17) 
{"is_sidechain": [false], "intermolecular_energy": 2.731, "internal_energy": -0.839}

$$$$
EPH_relaxed_0001_pdb2pqr_Repair_9_r2_0001_out
     RDKit          3D

 82 86  0  0  0  0  0  0  0  0999 V2000
   -1.7200   14.8300    0.5260 C   0  0  0  0  0  0  0  0  0  0  0  0
   -0.3810   15.5310    0.2770 C   0  0  2  0  0  0  0  0  0  0  0  0
   -0.4570   16.5260   -0.8990 C   0  0  0  0  0  0  0  0  0  0  0  0
   -0.0470   17.9530   -0.5240 C   0  0  0  0  0  0  0  0  0  0  0  0
    1.3780   18.0170   -0.0650 C   0  0  2  0  0  0  0  0  0  0  0  0
    2.0520   19.2440   -0.3750 O   0  0  0  0  0  0  0  0  0  0  0  0
    2.5620   18.0620   -1.0140 C   0  0  0  0  0  0  0  0  0  0  0  0
    2.3730   18.0430   -2.4980 C   0  0  0  0  0  0  0  0  0  0  0  0
    3.9030   17.6330   -0.5060 C   0  0  0  0  0  0  0  0  0  0  0  0
    0.7060   14.4960    0.0130 C   0  0  1  0  0  0  0  0  0  0  0  0
    0.8350   13.4590    1.1610 C   0  0  0  0  0  0  0  0  0  0  0  0
    1.2070   12.1060    0.5020 C   0  0  0  0  0  0  0  0  0  0  0  0
    1.6030   12.4740   -0.9470 C   0  0  1  0  0  0  0  0  0  0  0  0
    3.0790   12.9740   -0.8450 C   0  0  0  0  0  0  0  0  0  0  0  0
    1.4500   11.3420   -2.0150 C   0  0  2  0  0  0  0  0  0  0  0  0
    2.3300   10.1020   -1.7810 C   0  0  0  0  0  0  0  0  0  0  0  0
    3.6750   10.1430   -2.4290 C   0  0  0  0  0  0  0  0  0  0  0  0
    4.0510   11.0000   -3.3960 C   0  0  0  0  0  0  0  0  0  0  0  0
    3.0490   11.9890   -4.0060 C   0  0  1  0  0  0  0  0  0  0  0  0
    3.1730   11.9650   -5.5520 C   0  0  0  0  0  0  0  0  0  0  0  0
    4.6010   12.2130   -6.0280 C   0  0  0  0  0  0  0  0  0  0  0  0
    5.5580   11.1750   -5.4470 C   0  0  2  0  0  0  0  0  0  0  0  0
    5.2390    9.8940   -5.9990 O   0  0  0  0  0  0  0  0  0  0  0  0
    5.5140   11.1020   -3.8950 C   0  0  0  0  0  0  0  0  0  0  0  0
    6.1440   12.3830   -3.2950 C   0  0  0  0  0  0  0  0  0  0  0  0
    6.4180    9.9220   -3.4470 C   0  0  0  0  0  0  0  0  0  0  0  0
    1.5450   11.8450   -3.5120 C   0  0  1  0  0  0  0  0  0  0  0  0
    0.7970   10.7910   -4.3840 C   0  0  0  0  0  0  0  0  0  0  0  0
    0.7990   13.2140   -3.7320 C   0  0  0  0  0  0  0  0  0  0  0  0
    0.8890   14.2460   -2.5910 C   0  0  0  0  0  0  0  0  0  0  0  0
    0.5490   13.6030   -1.2430 C   0  0  2  0  0  0  0  0  0  0  0  0
   -0.9370   13.1110   -1.3080 C   0  0  0  0  0  0  0  0  0  0  0  0
   -1.8912   14.7404    1.6089 H   0  0  0  0  0  0  0  0  0  0  0  0
   -2.5318   15.4188    0.0740 H   0  0  0  0  0  0  0  0  0  0  0  0
   -1.6986   13.8274    0.0740 H   0  0  0  0  0  0  0  0  0  0  0  0
   -0.1351   16.1063    1.1817 H   0  0  0  0  0  0  0  0  0  0  0  0
    0.2106   16.1713   -1.6980 H   0  0  0  0  0  0  0  0  0  0  0  0
   -1.5087   16.5667   -1.2188 H   0  0  0  0  0  0  0  0  0  0  0  0
   -0.1676   18.6016   -1.4042 H   0  0  0  0  0  0  0  0  0  0  0  0
   -0.6895   18.2884    0.3035 H   0  0  0  0  0  0  0  0  0  0  0  0
    1.1519   17.3799    0.8027 H   0  0  0  0  0  0  0  0  0  0  0  0
    1.3031   17.9354   -2.7300 H   0  0  0  0  0  0  0  0  0  0  0  0
    2.7486   18.9834   -2.9275 H   0  0  0  0  0  0  0  0  0  0  0  0
    2.9283   17.1962   -2.9275 H   0  0  0  0  0  0  0  0  0  0  0  0
    3.8963   17.6352    0.5940 H   0  0  0  0  0  0  0  0  0  0  0  0
    4.1255   16.6188   -0.8693 H   0  0  0  0  0  0  0  0  0  0  0  0
    4.6728   18.3297   -0.8693 H   0  0  0  0  0  0  0  0  0  0  0  0
    1.5711   15.1646   -0.1075 H   0  0  0  0  0  0  0  0  0  0  0  0
    1.6233   13.7676    1.8634 H   0  0  0  0  0  0  0  0  0  0  0  0
   -0.1047   13.3775    1.7269 H   0  0  0  0  0  0  0  0  0  0  0  0
    2.0514   11.6369    1.0282 H   0  0  0  0  0  0  0  0  0  0  0  0
    0.3788   11.3829    0.5374 H   0  0  0  0  0  0  0  0  0  0  0  0
    3.3614   13.0697    0.2138 H   0  0  0  0  0  0  0  0  0  0  0  0
    3.7458   12.2516   -1.3385 H   0  0  0  0  0  0  0  0  0  0  0  0
    3.1695   13.9529   -1.3385 H   0  0  0  0  0  0  0  0  0  0  0  0
    0.4141   11.0073   -1.8572 H   0  0  0  0  0  0  0  0  0  0  0  0
    2.4783    9.9901   -0.6968 H   0  0  0  0  0  0  0  0  0  0  0  0
    1.7957    9.2582   -2.2419 H   0  0  0  0  0  0  0  0  0  0  0  0
    4.4213    9.4108   -2.0869 H   0  0  0  0  0  0  0  0  0  0  0  0
    3.3309   12.9816   -3.6247 H   0  0  0  0  0  0  0  0  0  0  0  0
    2.8457   10.9802   -5.9168 H   0  0  0  0  0  0  0  0  0  0  0  0
    2.5430   12.7740   -5.9502 H   0  0  0  0  0  0  0  0  0  0  0  0
    4.6297   12.1543   -7.1261 H   0  0  0  0  0  0  0  0  0  0  0  0
    4.9162   13.2104   -5.6877 H   0  0  0  0  0  0  0  0  0  0  0  0
    6.5797   11.4802   -5.7171 H   0  0  0  0  0  0  0  0  0  0  0  0
    4.7320    9.4040   -5.3300 H   0  0  0  0  0  0  0  0  0  0  0  0
    6.1158   12.3257   -2.1969 H   0  0  0  0  0  0  0  0  0  0  0  0
    7.1878   12.4703   -3.6310 H   0  0  0  0  0  0  0  0  0  0  0  0
    5.5759   13.2630   -3.6310 H   0  0  0  0  0  0  0  0  0  0  0  0
    6.4495    9.8809   -2.3482 H   0  0  0  0  0  0  0  0  0  0  0  0
    6.0095    8.9783   -3.8377 H   0  0  0  0  0  0  0  0  0  0  0  0
    7.4355   10.0707   -3.8377 H   0  0  0  0  0  0  0  0  0  0  0  0
    0.2854   10.0701   -3.7294 H   0  0  0  0  0  0  0  0  0  0  0  0
    0.0565   11.2994   -5.0189 H   0  0  0  0  0  0  0  0  0  0  0  0
    1.5214   10.2598   -5.0189 H   0  0  0  0  0  0  0  0  0  0  0  0
    1.2184   13.6799   -4.6359 H   0  0  0  0  0  0  0  0  0  0  0  0
   -0.2674   12.9528   -3.8002 H   0  0  0  0  0  0  0  0  0  0  0  0
    1.9117   14.6489   -2.5499 H   0  0  0  0  0  0  0  0  0  0  0  0
    0.1660   15.0512   -2.7881 H   0  0  0  0  0  0  0  0  0  0  0  0
   -1.3256   12.9823   -0.2870 H   0  0  0  0  0  0  0  0  0  0  0  0
   -1.5467   13.8552   -1.8413 H   0  0  0  0  0  0  0  0  0  0  0  0
   -0.9821   12.1500   -1.8413 H   0  0  0  0  0  0  0  0  0  0  0  0
  1  2  1  0
  2  3  1  0
  3  4  1  0
  4  5  1  0
  5  6  1  0
  6  7  1  0
  7  8  1  0
  7  9  1  0
  2 10  1  0
 10 11  1  0
 11 12  1  0
 12 13  1  0
 13 14  1  1
 13 15  1  0
 15 16  1  0
 16 17  1  0
 17 18  2  0
 18 19  1  0
 19 20  1  0
 20 21  1  0
 21 22  1  0
 22 23  1  0
 22 24  1  0
 24 25  1  0
 24 26  1  0
 19 27  1  0
 27 28  1  6
 27 29  1  0
 29 30  1  0
 30 31  1  0
 31 32  1  6
  7  5  1  0
 31 10  1  0
 31 13  1  0
 27 15  1  0
 24 18  1  0
  1 33  1  0
  1 34  1  0
  1 35  1  0
  2 36  1  1
  3 37  1  0
  3 38  1  0
  4 39  1  0
  4 40  1  0
  5 41  1  1
  8 42  1  0
  8 43  1  0
  8 44  1  0
  9 45  1  0
  9 46  1  0
  9 47  1  0
 10 48  1  6
 11 49  1  0
 11 50  1  0
 12 51  1  0
 12 52  1  0
 14 53  1  0
 14 54  1  0
 14 55  1  0
 15 56  1  6
 16 57  1  0
 16 58  1  0
 17 59  1  0
 19 60  1  1
 20 61  1  0
 20 62  1  0
 21 63  1  0
 21 64  1  0
 22 65  1  1
 23 66  1  0
 25 67  1  0
 25 68  1  0
 25 69  1  0
 26 70  1  0
 26 71  1  0
 26 72  1  0
 28 73  1  0
 28 74  1  0
 28 75  1  0
 29 76  1  0
 29 77  1  0
 30 78  1  0
 30 79  1  0
 32 80  1  0
 32 81  1  0
 32 82  1  0
M  END
>  <meeko>  (18) 
{"is_sidechain": [false], "intermolecular_energy": 2.731, "internal_energy": -0.839}

$$$$
EPH_relaxed_0001_pdb2pqr_Repair_9_r2_0001_out
     RDKit          3D

 82 86  0  0  0  0  0  0  0  0999 V2000
    0.9090   14.8090   -2.6070 C   0  0  0  0  0  0  0  0  0  0  0  0
    1.1870   14.1270   -3.9490 C   0  0  2  0  0  0  0  0  0  0  0  0
    0.5100   14.8610   -5.1240 C   0  0  0  0  0  0  0  0  0  0  0  0
    1.1820   14.6090   -6.4760 C   0  0  0  0  0  0  0  0  0  0  0  0
    0.9000   15.7130   -7.4500 C   0  0  2  0  0  0  0  0  0  0  0  0
    0.3780   15.2790   -8.7130 O   0  0  0  0  0  0  0  0  0  0  0  0
    1.6700   15.9060   -8.7430 C   0  0  0  0  0  0  0  0  0  0  0  0
    2.7840   14.9850   -9.1320 C   0  0  0  0  0  0  0  0  0  0  0  0
    1.6690   17.2600   -9.3810 C   0  0  0  0  0  0  0  0  0  0  0  0
    0.7200   12.6770   -3.9020 C   0  0  1  0  0  0  0  0  0  0  0  0
    1.8470   11.6750   -4.2670 C   0  0  0  0  0  0  0  0  0  0  0  0
    1.6210   10.4110   -3.3970 C   0  0  0  0  0  0  0  0  0  0  0  0
    0.2010   10.5900   -2.8110 C   0  0  1  0  0  0  0  0  0  0  0  0
   -0.7630   10.1310   -3.9500 C   0  0  0  0  0  0  0  0  0  0  0  0
   -0.0920    9.8420   -1.4700 C   0  0  2  0  0  0  0  0  0  0  0  0
   -0.0020    8.3070   -1.5460 C   0  0  0  0  0  0  0  0  0  0  0  0
   -1.2780    7.6100   -1.8880 C   0  0  0  0  0  0  0  0  0  0  0  0
   -2.5050    8.1600   -1.8450 C   0  0  0  0  0  0  0  0  0  0  0  0
   -2.7110    9.5900   -1.3280 C   0  0  1  0  0  0  0  0  0  0  0  0
   -3.9050    9.6160   -0.3380 C   0  0  0  0  0  0  0  0  0  0  0  0
   -5.1760    9.0250   -0.9400 C   0  0  0  0  0  0  0  0  0  0  0  0
   -4.9480    7.5840   -1.3890 C   0  0  2  0  0  0  0  0  0  0  0  0
   -4.7160    6.7720   -0.2340 O   0  0  0  0  0  0  0  0  0  0  0  0
   -3.7620    7.4320   -2.3820 C   0  0  0  0  0  0  0  0  0  0  0  0
   -4.1420    8.0600   -3.7460 C   0  0  0  0  0  0  0  0  0  0  0  0
   -3.5510    5.9170   -2.6460 C   0  0  0  0  0  0  0  0  0  0  0  0
   -1.4190   10.3080   -0.7440 C   0  0  1  0  0  0  0  0  0  0  0  0
   -1.2490    9.9530    0.7650 C   0  0  0  0  0  0  0  0  0  0  0  0
   -1.6220   11.8680   -0.8130 C   0  0  0  0  0  0  0  0  0  0  0  0
   -1.2020   12.5660   -2.1210 C   0  0  0  0  0  0  0  0  0  0  0  0
    0.2080   12.1390   -2.5420 C   0  0  2  0  0  0  0  0  0  0  0  0
    1.2030   12.6070   -1.4260 C   0  0  0  0  0  0  0  0  0  0  0  0
    1.1856   14.1304   -1.7866 H   0  0  0  0  0  0  0  0  0  0  0  0
    1.5025   15.7323   -2.5350 H   0  0  0  0  0  0  0  0  0  0  0  0
   -0.1609   15.0543   -2.5350 H   0  0  0  0  0  0  0  0  0  0  0  0
    2.2731   14.1620   -4.1195 H   0  0  0  0  0  0  0  0  0  0  0  0
   -0.5353   14.5245   -5.1877 H   0  0  0  0  0  0  0  0  0  0  0  0
    0.5923   15.9388   -4.9200 H   0  0  0  0  0  0  0  0  0  0  0  0
    2.2692   14.5356   -6.3255 H   0  0  0  0  0  0  0  0  0  0  0  0
    0.7773   13.6741   -6.8910 H   0  0  0  0  0  0  0  0  0  0  0  0
    0.6492   16.4028   -6.6307 H   0  0  0  0  0  0  0  0  0  0  0  0
    3.2646   14.5877   -8.2258 H   0  0  0  0  0  0  0  0  0  0  0  0
    2.3807   14.1530   -9.7280 H   0  0  0  0  0  0  0  0  0  0  0  0
    3.5253   15.5375   -9.7280 H   0  0  0  0  0  0  0  0  0  0  0  0
    1.6684   18.0337   -8.5991 H   0  0  0  0  0  0  0  0  0  0  0  0
    2.5671   17.3713  -10.0064 H   0  0  0  0  0  0  0  0  0  0  0  0
    0.7708   17.3700  -10.0064 H   0  0  0  0  0  0  0  0  0  0  0  0
   -0.1088   12.7261   -4.6236 H   0  0  0  0  0  0  0  0  0  0  0  0
    1.7917   11.4150   -5.3344 H   0  0  0  0  0  0  0  0  0  0  0  0
    2.8393   12.1112   -4.0796 H   0  0  0  0  0  0  0  0  0  0  0  0
    1.6753    9.5010   -4.0126 H   0  0  0  0  0  0  0  0  0  0  0  0
    2.3851   10.3017   -2.6133 H   0  0  0  0  0  0  0  0  0  0  0  0
   -1.6726    9.6979   -3.5082 H   0  0  0  0  0  0  0  0  0  0  0  0
   -1.0339   10.9967   -4.5721 H   0  0  0  0  0  0  0  0  0  0  0  0
   -0.2617    9.3749   -4.5721 H   0  0  0  0  0  0  0  0  0  0  0  0
    0.7477   10.1597   -0.8344 H   0  0  0  0  0  0  0  0  0  0  0  0
    0.7432    8.0476   -2.3124 H   0  0  0  0  0  0  0  0  0  0  0  0
    0.2693    7.9673   -0.5356 H   0  0  0  0  0  0  0  0  0  0  0  0
   -1.2086    6.5579   -2.2016 H   0  0  0  0  0  0  0  0  0  0  0  0
   -2.9455   10.2021   -2.2114 H   0  0  0  0  0  0  0  0  0  0  0  0
   -3.6348    9.0348    0.5559 H   0  0  0  0  0  0  0  0  0  0  0  0
   -4.1105   10.6677   -0.0897 H   0  0  0  0  0  0  0  0  0  0  0  0
   -5.9751    9.0444   -0.1843 H   0  0  0  0  0  0  0  0  0  0  0  0
   -5.4611    9.6250   -1.8168 H   0  0  0  0  0  0  0  0  0  0  0  0
   -5.8508    7.2597   -1.9272 H   0  0  0  0  0  0  0  0  0  0  0  0
   -5.3900    7.0010    0.4270 H   0  0  0  0  0  0  0  0  0  0  0  0
   -4.7047    8.9900   -3.5774 H   0  0  0  0  0  0  0  0  0  0  0  0
   -3.2271    8.2830   -4.3146 H   0  0  0  0  0  0  0  0  0  0  0  0
   -4.7640    7.3530   -4.3146 H   0  0  0  0  0  0  0  0  0  0  0  0
   -3.4768    5.3844   -1.6864 H   0  0  0  0  0  0  0  0  0  0  0  0
   -4.4029    5.5226   -3.2194 H   0  0  0  0  0  0  0  0  0  0  0  0
   -2.6238    5.7704   -3.2194 H   0  0  0  0  0  0  0  0  0  0  0  0
   -1.6425   10.7746    1.3815 H   0  0  0  0  0  0  0  0  0  0  0  0
   -1.8024    9.0291    0.9889 H   0  0  0  0  0  0  0  0  0  0  0  0
   -0.1823    9.8049    0.9889 H   0  0  0  0  0  0  0  0  0  0  0  0
   -2.6915   12.0717   -0.6556 H   0  0  0  0  0  0  0  0  0  0  0  0
   -0.9558   12.2794   -0.0404 H   0  0  0  0  0  0  0  0  0  0  0  0
   -1.9122   12.2967   -2.9167 H   0  0  0  0  0  0  0  0  0  0  0  0
   -1.2043   13.6534   -1.9548 H   0  0  0  0  0  0  0  0  0  0  0  0
    0.7674   12.4021   -0.4369 H   0  0  0  0  0  0  0  0  0  0  0  0
    2.1524   12.0610   -1.5287 H   0  0  0  0  0  0  0  0  0  0  0  0
    1.3878   13.6865   -1.5287 H   0  0  0  0  0  0  0  0  0  0  0  0
  1  2  1  0
  2  3  1  0
  3  4  1  0
  4  5  1  0
  5  6  1  0
  6  7  1  0
  7  8  1  0
  7  9  1  0
  2 10  1  0
 10 11  1  0
 11 12  1  0
 12 13  1  0
 13 14  1  6
 13 15  1  0
 15 16  1  0
 16 17  1  0
 17 18  2  0
 18 19  1  0
 19 20  1  0
 20 21  1  0
 21 22  1  0
 22 23  1  0
 22 24  1  0
 24 25  1  0
 24 26  1  0
 19 27  1  0
 27 28  1  1
 27 29  1  0
 29 30  1  0
 30 31  1  0
 31 32  1  1
  7  5  1  0
 31 10  1  0
 31 13  1  0
 27 15  1  0
 24 18  1  0
  1 33  1  0
  1 34  1  0
  1 35  1  0
  2 36  1  6
  3 37  1  0
  3 38  1  0
  4 39  1  0
  4 40  1  0
  5 41  1  1
  8 42  1  0
  8 43  1  0
  8 44  1  0
  9 45  1  0
  9 46  1  0
  9 47  1  0
 10 48  1  6
 11 49  1  0
 11 50  1  0
 12 51  1  0
 12 52  1  0
 14 53  1  0
 14 54  1  0
 14 55  1  0
 15 56  1  1
 16 57  1  0
 16 58  1  0
 17 59  1  0
 19 60  1  6
 20 61  1  0
 20 62  1  0
 21 63  1  0
 21 64  1  0
 22 65  1  6
 23 66  1  0
 25 67  1  0
 25 68  1  0
 25 69  1  0
 26 70  1  0
 26 71  1  0
 26 72  1  0
 28 73  1  0
 28 74  1  0
 28 75  1  0
 29 76  1  0
 29 77  1  0
 30 78  1  0
 30 79  1  0
 32 80  1  0
 32 81  1  0
 32 82  1  0
M  END
>  <meeko>  (19) 
{"is_sidechain": [false], "intermolecular_energy": 2.731, "internal_energy": -0.839}

$$$$
