EPH_relaxed_0001_pdb2pqr_Repair_257_r2_0001_out
     RDKit          3D

 82 86  0  0  0  0  0  0  0  0999 V2000
    3.7480   17.7170   -3.1700 C   0  0  0  0  0  0  0  0  0  0  0  0
    3.0710   17.0770   -1.9540 C   0  0  2  0  0  0  0  0  0  0  0  0
    3.8340   17.3660   -0.6460 C   0  0  0  0  0  0  0  0  0  0  0  0
    3.1930   18.4600    0.2120 C   0  0  0  0  0  0  0  0  0  0  0  0
    1.7650   18.7010   -0.1740 C   0  0  2  0  0  0  0  0  0  0  0  0
    1.4590   20.0580   -0.5220 O   0  0  0  0  0  0  0  0  0  0  0  0
    0.8060   19.5420    0.6490 C   0  0  0  0  0  0  0  0  0  0  0  0
    1.2380   20.1940    1.9250 C   0  0  0  0  0  0  0  0  0  0  0  0
   -0.6650   19.3270    0.4740 C   0  0  0  0  0  0  0  0  0  0  0  0
    2.9450   15.5720   -2.1620 C   0  0  1  0  0  0  0  0  0  0  0  0
    4.3120   14.8890   -2.4310 C   0  0  0  0  0  0  0  0  0  0  0  0
    4.2500   13.4880   -1.7690 C   0  0  0  0  0  0  0  0  0  0  0  0
    2.7550   13.2810   -1.4340 C   0  0  1  0  0  0  0  0  0  0  0  0
    2.1040   12.8150   -2.7750 C   0  0  0  0  0  0  0  0  0  0  0  0
    2.4390   12.2920   -0.2650 C   0  0  2  0  0  0  0  0  0  0  0  0
    2.8860   10.8380   -0.5020 C   0  0  0  0  0  0  0  0  0  0  0  0
    1.8700    9.9560   -1.1490 C   0  0  0  0  0  0  0  0  0  0  0  0
    0.5570   10.2310   -1.2660 C   0  0  0  0  0  0  0  0  0  0  0  0
   -0.0440   11.4910   -0.6310 C   0  0  1  0  0  0  0  0  0  0  0  0
   -1.3490   11.1200    0.1210 C   0  0  0  0  0  0  0  0  0  0  0  0
   -2.3460   10.3820   -0.7660 C   0  0  0  0  0  0  0  0  0  0  0  0
   -1.7310    9.1040   -1.3320 C   0  0  2  0  0  0  0  0  0  0  0  0
   -1.4980    8.1890   -0.2560 O   0  0  0  0  0  0  0  0  0  0  0  0
   -0.4050    9.3520   -2.1040 C   0  0  0  0  0  0  0  0  0  0  0  0
   -0.7060   10.0910   -3.4310 C   0  0  0  0  0  0  0  0  0  0  0  0
    0.1830    7.9710   -2.4990 C   0  0  0  0  0  0  0  0  0  0  0  0
    0.9470   12.3600    0.2570 C   0  0  1  0  0  0  0  0  0  0  0  0
    0.9620   11.8200    1.7200 C   0  0  0  0  0  0  0  0  0  0  0  0
    0.4070   13.8370    0.3340 C   0  0  0  0  0  0  0  0  0  0  0  0
    0.8510   14.7980   -0.7850 C   0  0  0  0  0  0  0  0  0  0  0  0
    2.3680   14.7380   -0.9900 C   0  0  2  0  0  0  0  0  0  0  0  0
    3.0490   15.2230    0.3350 C   0  0  0  0  0  0  0  0  0  0  0  0
    4.5083   18.4357   -2.8303 H   0  0  0  0  0  0  0  0  0  0  0  0
    4.2279   16.9347   -3.7764 H   0  0  0  0  0  0  0  0  0  0  0  0
    2.9939   18.2401   -3.7764 H   0  0  0  0  0  0  0  0  0  0  0  0
    2.0706   17.5243   -1.8582 H   0  0  0  0  0  0  0  0  0  0  0  0
    3.8730   16.4392   -0.0547 H   0  0  0  0  0  0  0  0  0  0  0  0
    4.8341   17.7252   -0.9301 H   0  0  0  0  0  0  0  0  0  0  0  0
    3.2301   18.1529    1.2676 H   0  0  0  0  0  0  0  0  0  0  0  0
    3.7535   19.3931    0.0533 H   0  0  0  0  0  0  0  0  0  0  0  0
    1.6836   17.6881   -0.5952 H   0  0  0  0  0  0  0  0  0  0  0  0
    0.8555   19.6166    2.7796 H   0  0  0  0  0  0  0  0  0  0  0  0
    2.3367   20.2262    1.9666 H   0  0  0  0  0  0  0  0  0  0  0  0
    0.8393   21.2184    1.9666 H   0  0  0  0  0  0  0  0  0  0  0  0
   -1.1453   19.2568    1.4611 H   0  0  0  0  0  0  0  0  0  0  0  0
   -1.0952   20.1718   -0.0839 H   0  0  0  0  0  0  0  0  0  0  0  0
   -0.8354   18.3944   -0.0839 H   0  0  0  0  0  0  0  0  0  0  0  0
    2.2464   15.5615   -3.0116 H   0  0  0  0  0  0  0  0  0  0  0  0
    4.4791   14.7893   -3.5137 H   0  0  0  0  0  0  0  0  0  0  0  0
    5.1393   15.4848   -2.0179 H   0  0  0  0  0  0  0  0  0  0  0  0
    4.6028   12.7133   -2.4657 H   0  0  0  0  0  0  0  0  0  0  0  0
    4.8908   13.4190   -0.8776 H   0  0  0  0  0  0  0  0  0  0  0  0
    1.2271   12.1873   -2.5582 H   0  0  0  0  0  0  0  0  0  0  0  0
    1.7904   13.6951   -3.3556 H   0  0  0  0  0  0  0  0  0  0  0  0
    2.8360   12.2344   -3.3556 H   0  0  0  0  0  0  0  0  0  0  0  0
    3.0777   12.6732    0.5454 H   0  0  0  0  0  0  0  0  0  0  0  0
    3.7783   10.8572   -1.1450 H   0  0  0  0  0  0  0  0  0  0  0  0
    3.0702   10.4100    0.4944 H   0  0  0  0  0  0  0  0  0  0  0  0
    2.2237    9.0012   -1.5651 H   0  0  0  0  0  0  0  0  0  0  0  0
   -0.2745   12.1712   -1.4642 H   0  0  0  0  0  0  0  0  0  0  0  0
   -1.0928   10.4758    0.9750 H   0  0  0  0  0  0  0  0  0  0  0  0
   -1.8234   12.0569    0.4483 H   0  0  0  0  0  0  0  0  0  0  0  0
   -3.2335   10.1214   -0.1706 H   0  0  0  0  0  0  0  0  0  0  0  0
   -2.6241   11.0387   -1.6035 H   0  0  0  0  0  0  0  0  0  0  0  0
   -2.4439    8.6886   -2.0594 H   0  0  0  0  0  0  0  0  0  0  0  0
   -1.8510    8.5930    0.5550 H   0  0  0  0  0  0  0  0  0  0  0  0
   -1.1125   11.0891   -3.2108 H   0  0  0  0  0  0  0  0  0  0  0  0
    0.2221   10.1932   -4.0125 H   0  0  0  0  0  0  0  0  0  0  0  0
   -1.4414    9.5156   -4.0125 H   0  0  0  0  0  0  0  0  0  0  0  0
    0.4253    7.4019   -1.5894 H   0  0  0  0  0  0  0  0  0  0  0  0
   -0.5561    7.4143   -3.0938 H   0  0  0  0  0  0  0  0  0  0  0  0
    1.0966    8.1180   -3.0938 H   0  0  0  0  0  0  0  0  0  0  0  0
    0.9385   12.6656    2.4232 H   0  0  0  0  0  0  0  0  0  0  0  0
    0.0812   11.1818    1.8844 H   0  0  0  0  0  0  0  0  0  0  0  0
    1.8768   11.2317    1.8844 H   0  0  0  0  0  0  0  0  0  0  0  0
   -0.6919   13.7909    0.3165 H   0  0  0  0  0  0  0  0  0  0  0  0
    0.8363   14.2527    1.2575 H   0  0  0  0  0  0  0  0  0  0  0  0
    0.3498   14.5148   -1.7223 H   0  0  0  0  0  0  0  0  0  0  0  0
    0.5766   15.8233   -0.4960 H   0  0  0  0  0  0  0  0  0  0  0  0
    2.4940   14.8277    1.1985 H   0  0  0  0  0  0  0  0  0  0  0  0
    4.0866   14.8593    0.3684 H   0  0  0  0  0  0  0  0  0  0  0  0
    3.0446   16.3225    0.3684 H   0  0  0  0  0  0  0  0  0  0  0  0
  1  2  1  0
  2  3  1  0
  3  4  1  0
  4  5  1  0
  5  6  1  0
  6  7  1  0
  7  8  1  0
  7  9  1  0
  2 10  1  0
 10 11  1  0
 11 12  1  0
 12 13  1  0
 13 14  1  6
 13 15  1  0
 15 16  1  0
 16 17  1  0
 17 18  2  0
 18 19  1  0
 19 20  1  0
 20 21  1  0
 21 22  1  0
 22 23  1  0
 22 24  1  0
 24 25  1  0
 24 26  1  0
 19 27  1  0
 27 28  1  1
 27 29  1  0
 29 30  1  0
 30 31  1  0
 31 32  1  1
  7  5  1  0
 31 10  1  0
 31 13  1  0
 27 15  1  0
 24 18  1  0
  1 33  1  0
  1 34  1  0
  1 35  1  0
  2 36  1  1
  3 37  1  0
  3 38  1  0
  4 39  1  0
  4 40  1  0
  5 41  1  6
  8 42  1  0
  8 43  1  0
  8 44  1  0
  9 45  1  0
  9 46  1  0
  9 47  1  0
 10 48  1  6
 11 49  1  0
 11 50  1  0
 12 51  1  0
 12 52  1  0
 14 53  1  0
 14 54  1  0
 14 55  1  0
 15 56  1  1
 16 57  1  0
 16 58  1  0
 17 59  1  0
 19 60  1  6
 20 61  1  0
 20 62  1  0
 21 63  1  0
 21 64  1  0
 22 65  1  6
 23 66  1  0
 25 67  1  0
 25 68  1  0
 25 69  1  0
 26 70  1  0
 26 71  1  0
 26 72  1  0
 28 73  1  0
 28 74  1  0
 28 75  1  0
 29 76  1  0
 29 77  1  0
 30 78  1  0
 30 79  1  0
 32 80  1  0
 32 81  1  0
 32 82  1  0
M  END
>  <meeko>  (1) 
{"is_sidechain": [false], "intermolecular_energy": 2.731, "internal_energy": -0.839}

$$$$
EPH_relaxed_0001_pdb2pqr_Repair_257_r2_0001_out
     RDKit          3D

 82 86  0  0  0  0  0  0  0  0999 V2000
    4.4030   17.5710   -2.5250 C   0  0  0  0  0  0  0  0  0  0  0  0
    3.0500   17.0860   -1.9980 C   0  0  2  0  0  0  0  0  0  0  0  0
    2.8540   17.4220   -0.5060 C   0  0  0  0  0  0  0  0  0  0  0  0
    3.9280   18.3540    0.0620 C   0  0  0  0  0  0  0  0  0  0  0  0
    3.5960   18.7990    1.4540 C   0  0  2  0  0  0  0  0  0  0  0  0
    3.9240   20.1650    1.7400 O   0  0  0  0  0  0  0  0  0  0  0  0
    4.6450   19.1710    2.4860 C   0  0  0  0  0  0  0  0  0  0  0  0
    6.1060   19.1140    2.1680 C   0  0  0  0  0  0  0  0  0  0  0  0
    4.2740   19.1180    3.9350 C   0  0  0  0  0  0  0  0  0  0  0  0
    2.9160   15.5840   -2.2150 C   0  0  1  0  0  0  0  0  0  0  0  0
    4.2710   14.9050   -2.5480 C   0  0  0  0  0  0  0  0  0  0  0  0
    4.2370   13.4970   -1.8990 C   0  0  0  0  0  0  0  0  0  0  0  0
    2.7570   13.2850   -1.5050 C   0  0  1  0  0  0  0  0  0  0  0  0
    2.0520   12.8320   -2.8220 C   0  0  0  0  0  0  0  0  0  0  0  0
    2.4900   12.2830   -0.3340 C   0  0  2  0  0  0  0  0  0  0  0  0
    2.9270   10.8330   -0.6040 C   0  0  0  0  0  0  0  0  0  0  0  0
    1.8860    9.9570   -1.2170 C   0  0  0  0  0  0  0  0  0  0  0  0
    0.5690   10.2310   -1.2780 C   0  0  0  0  0  0  0  0  0  0  0  0
   -0.0060   11.4850   -0.6060 C   0  0  1  0  0  0  0  0  0  0  0  0
   -1.2780   11.1050    0.1960 C   0  0  0  0  0  0  0  0  0  0  0  0
   -2.3110   10.3750   -0.6570 C   0  0  0  0  0  0  0  0  0  0  0  0
   -1.7190    9.1040   -1.2610 C   0  0  2  0  0  0  0  0  0  0  0  0
   -1.4410    8.1780   -0.2060 O   0  0  0  0  0  0  0  0  0  0  0  0
   -0.4260    9.3610   -2.0840 C   0  0  0  0  0  0  0  0  0  0  0  0
   -0.7810   10.1130   -3.3910 C   0  0  0  0  0  0  0  0  0  0  0  0
    0.1460    7.9840   -2.5180 C   0  0  0  0  0  0  0  0  0  0  0  0
    1.0210   12.3450    0.2500 C   0  0  1  0  0  0  0  0  0  0  0  0
    1.0960   11.7900    1.7050 C   0  0  0  0  0  0  0  0  0  0  0  0
    0.4840   13.8210    0.3640 C   0  0  0  0  0  0  0  0  0  0  0  0
    0.8810   14.7940   -0.7620 C   0  0  0  0  0  0  0  0  0  0  0  0
    2.3880   14.7370   -1.0300 C   0  0  2  0  0  0  0  0  0  0  0  0
    3.1230   15.2090    0.2710 C   0  0  0  0  0  0  0  0  0  0  0  0
    5.0631   17.8076   -1.6775 H   0  0  0  0  0  0  0  0  0  0  0  0
    4.8621   16.7815   -3.1381 H   0  0  0  0  0  0  0  0  0  0  0  0
    4.2560   18.4724   -3.1381 H   0  0  0  0  0  0  0  0  0  0  0  0
    2.2668   17.6144   -2.5613 H   0  0  0  0  0  0  0  0  0  0  0  0
    1.8742   17.9071   -0.3852 H   0  0  0  0  0  0  0  0  0  0  0  0
    2.9249   16.4747    0.0486 H   0  0  0  0  0  0  0  0  0  0  0  0
    4.8902   17.8211    0.0781 H   0  0  0  0  0  0  0  0  0  0  0  0
    3.9820   19.2460   -0.5794 H   0  0  0  0  0  0  0  0  0  0  0  0
    2.7331   18.1179    1.4914 H   0  0  0  0  0  0  0  0  0  0  0  0
    6.6843   19.0914    3.1035 H   0  0  0  0  0  0  0  0  0  0  0  0
    6.3189   18.2069    1.5834 H   0  0  0  0  0  0  0  0  0  0  0  0
    6.3889   20.0018    1.5834 H   0  0  0  0  0  0  0  0  0  0  0  0
    5.1771   19.2470    4.5497 H   0  0  0  0  0  0  0  0  0  0  0  0
    3.5591   19.9231    4.1601 H   0  0  0  0  0  0  0  0  0  0  0  0
    3.8131   18.1449    4.1601 H   0  0  0  0  0  0  0  0  0  0  0  0
    2.1821   15.5821   -3.0344 H   0  0  0  0  0  0  0  0  0  0  0  0
    4.3930   14.8170   -3.6377 H   0  0  0  0  0  0  0  0  0  0  0  0
    5.1146   15.4970   -2.1634 H   0  0  0  0  0  0  0  0  0  0  0  0
    4.5612   12.7301   -2.6179 H   0  0  0  0  0  0  0  0  0  0  0  0
    4.9139   13.4192   -1.0354 H   0  0  0  0  0  0  0  0  0  0  0  0
    1.1503   12.2526   -2.5746 H   0  0  0  0  0  0  0  0  0  0  0  0
    1.7689   13.7177   -3.4097 H   0  0  0  0  0  0  0  0  0  0  0  0
    2.7400   12.2065   -3.4097 H   0  0  0  0  0  0  0  0  0  0  0  0
    3.1619   12.6557    0.4532 H   0  0  0  0  0  0  0  0  0  0  0  0
    3.7918   10.8596   -1.2833 H   0  0  0  0  0  0  0  0  0  0  0  0
    3.1525   10.3951    0.3795 H   0  0  0  0  0  0  0  0  0  0  0  0
    2.2231    9.0066   -1.6564 H   0  0  0  0  0  0  0  0  0  0  0  0
   -0.2710   12.1735   -1.4219 H   0  0  0  0  0  0  0  0  0  0  0  0
   -0.9860   10.4521    1.0318 H   0  0  0  0  0  0  0  0  0  0  0  0
   -1.7388   12.0379    0.5529 H   0  0  0  0  0  0  0  0  0  0  0  0
   -3.1729   10.1073   -0.0282 H   0  0  0  0  0  0  0  0  0  0  0  0
   -2.6241   11.0400   -1.4753 H   0  0  0  0  0  0  0  0  0  0  0  0
   -2.4615    8.6960   -1.9626 H   0  0  0  0  0  0  0  0  0  0  0  0
   -1.4740    7.2830   -0.5830 H   0  0  0  0  0  0  0  0  0  0  0  0
   -1.2386   11.0823   -3.1436 H   0  0  0  0  0  0  0  0  0  0  0  0
    0.1339   10.2788   -3.9787 H   0  0  0  0  0  0  0  0  0  0  0  0
   -1.4905    9.5119   -3.9787 H   0  0  0  0  0  0  0  0  0  0  0  0
    0.3922    7.3912   -1.6247 H   0  0  0  0  0  0  0  0  0  0  0  0
   -0.6040    7.4482   -3.1184 H   0  0  0  0  0  0  0  0  0  0  0  0
    1.0549    8.1372   -3.1184 H   0  0  0  0  0  0  0  0  0  0  0  0
    0.9840   12.6186    2.4197 H   0  0  0  0  0  0  0  0  0  0  0  0
    0.2884   11.0596    1.8609 H   0  0  0  0  0  0  0  0  0  0  0  0
    2.0685   11.3002    1.8609 H   0  0  0  0  0  0  0  0  0  0  0  0
   -0.6147   13.7741    0.3911 H   0  0  0  0  0  0  0  0  0  0  0  0
    0.9510   14.2275    1.2732 H   0  0  0  0  0  0  0  0  0  0  0  0
    0.3415   14.5204   -1.6808 H   0  0  0  0  0  0  0  0  0  0  0  0
    0.6185   15.8160   -0.4511 H   0  0  0  0  0  0  0  0  0  0  0  0
    2.5705   14.8542    1.1535 H   0  0  0  0  0  0  0  0  0  0  0  0
    4.1425   14.7963    0.2864 H   0  0  0  0  0  0  0  0  0  0  0  0
    3.1719   16.3078    0.2864 H   0  0  0  0  0  0  0  0  0  0  0  0
  1  2  1  0
  2  3  1  0
  3  4  1  0
  4  5  1  0
  5  6  1  0
  6  7  1  0
  7  8  1  0
  7  9  1  0
  2 10  1  0
 10 11  1  0
 11 12  1  0
 12 13  1  0
 13 14  1  6
 13 15  1  0
 15 16  1  0
 16 17  1  0
 17 18  2  0
 18 19  1  0
 19 20  1  0
 20 21  1  0
 21 22  1  0
 22 23  1  0
 22 24  1  0
 24 25  1  0
 24 26  1  0
 19 27  1  0
 27 28  1  1
 27 29  1  0
 29 30  1  0
 30 31  1  0
 31 32  1  1
  7  5  1  0
 31 10  1  0
 31 13  1  0
 27 15  1  0
 24 18  1  0
  1 33  1  0
  1 34  1  0
  1 35  1  0
  2 36  1  6
  3 37  1  0
  3 38  1  0
  4 39  1  0
  4 40  1  0
  5 41  1  1
  8 42  1  0
  8 43  1  0
  8 44  1  0
  9 45  1  0
  9 46  1  0
  9 47  1  0
 10 48  1  6
 11 49  1  0
 11 50  1  0
 12 51  1  0
 12 52  1  0
 14 53  1  0
 14 54  1  0
 14 55  1  0
 15 56  1  1
 16 57  1  0
 16 58  1  0
 17 59  1  0
 19 60  1  6
 20 61  1  0
 20 62  1  0
 21 63  1  0
 21 64  1  0
 22 65  1  6
 23 66  1  0
 25 67  1  0
 25 68  1  0
 25 69  1  0
 26 70  1  0
 26 71  1  0
 26 72  1  0
 28 73  1  0
 28 74  1  0
 28 75  1  0
 29 76  1  0
 29 77  1  0
 30 78  1  0
 30 79  1  0
 32 80  1  0
 32 81  1  0
 32 82  1  0
M  END
>  <meeko>  (2) 
{"is_sidechain": [false], "intermolecular_energy": 2.731, "internal_energy": -0.839}

$$$$
EPH_relaxed_0001_pdb2pqr_Repair_257_r2_0001_out
     RDKit          3D

 82 86  0  0  0  0  0  0  0  0999 V2000
   -2.4970    7.9400   -2.8600 C   0  0  0  0  0  0  0  0  0  0  0  0
   -2.7270    8.2900   -1.3870 C   0  0  2  0  0  0  0  0  0  0  0  0
   -4.2260    8.4330   -1.0530 C   0  0  0  0  0  0  0  0  0  0  0  0
   -5.0120    7.1250   -1.1760 C   0  0  0  0  0  0  0  0  0  0  0  0
   -6.0450    7.1990   -2.2590 C   0  0  2  0  0  0  0  0  0  0  0  0
   -6.8750    8.3670   -2.2160 O   0  0  0  0  0  0  0  0  0  0  0  0
   -7.5370    7.1100   -2.0000 C   0  0  0  0  0  0  0  0  0  0  0  0
   -8.0800    6.9390   -0.6160 C   0  0  0  0  0  0  0  0  0  0  0  0
   -8.4360    6.7010   -3.1250 C   0  0  0  0  0  0  0  0  0  0  0  0
   -1.9900    9.5770   -1.0370 C   0  0  1  0  0  0  0  0  0  0  0  0
   -2.3850   10.1310    0.3580 C   0  0  0  0  0  0  0  0  0  0  0  0
   -1.1100   10.7720    0.9620 C   0  0  0  0  0  0  0  0  0  0  0  0
   -0.1200   10.8630   -0.2230 C   0  0  1  0  0  0  0  0  0  0  0  0
   -0.5470   12.1460   -1.0040 C   0  0  0  0  0  0  0  0  0  0  0  0
    1.3990   10.8910    0.1460 C   0  0  2  0  0  0  0  0  0  0  0  0
    1.8440   12.1010    0.9870 C   0  0  0  0  0  0  0  0  0  0  0  0
    2.3000   13.2880    0.2050 C   0  0  0  0  0  0  0  0  0  0  0  0
    2.6210   13.2870   -1.1030 C   0  0  0  0  0  0  0  0  0  0  0  0
    2.6330   11.9830   -1.9100 C   0  0  1  0  0  0  0  0  0  0  0  0
    3.9310   11.9100   -2.7560 C   0  0  0  0  0  0  0  0  0  0  0  0
    4.1270   13.1420   -3.6340 C   0  0  0  0  0  0  0  0  0  0  0  0
    4.1680   14.4130   -2.7900 C   0  0  2  0  0  0  0  0  0  0  0  0
    5.3460   14.3900   -1.9780 O   0  0  0  0  0  0  0  0  0  0  0  0
    2.9150   14.5890   -1.8880 C   0  0  0  0  0  0  0  0  0  0  0  0
    1.6820   14.9160   -2.7670 C   0  0  0  0  0  0  0  0  0  0  0  0
    3.1460   15.8320   -0.9870 C   0  0  0  0  0  0  0  0  0  0  0  0
    2.3690   10.6530   -1.0820 C   0  0  1  0  0  0  0  0  0  0  0  0
    3.7090   10.1170   -0.4930 C   0  0  0  0  0  0  0  0  0  0  0  0
    1.8350    9.5370   -2.0570 C   0  0  0  0  0  0  0  0  0  0  0  0
    0.3130    9.4860   -2.2880 C   0  0  0  0  0  0  0  0  0  0  0  0
   -0.4440    9.5110   -0.9560 C   0  0  2  0  0  0  0  0  0  0  0  0
   -0.0520    8.2220   -0.1580 C   0  0  0  0  0  0  0  0  0  0  0  0
   -1.8941    7.0225   -2.9291 H   0  0  0  0  0  0  0  0  0  0  0  0
   -3.4664    7.7798   -3.3545 H   0  0  0  0  0  0  0  0  0  0  0  0
   -1.9653    8.7663   -3.3545 H   0  0  0  0  0  0  0  0  0  0  0  0
   -2.3312    7.4601   -0.7832 H   0  0  0  0  0  0  0  0  0  0  0  0
   -4.3181    8.7975   -0.0192 H   0  0  0  0  0  0  0  0  0  0  0  0
   -4.6528    9.1343   -1.7852 H   0  0  0  0  0  0  0  0  0  0  0  0
   -4.3117    6.3086   -1.4065 H   0  0  0  0  0  0  0  0  0  0  0  0
   -5.5281    6.9440   -0.2216 H   0  0  0  0  0  0  0  0  0  0  0  0
   -5.3845    6.6644   -2.9575 H   0  0  0  0  0  0  0  0  0  0  0  0
   -7.2982    7.1852    0.1176 H   0  0  0  0  0  0  0  0  0  0  0  0
   -8.9402    7.6097   -0.4742 H   0  0  0  0  0  0  0  0  0  0  0  0
   -8.4007    5.8964   -0.4742 H   0  0  0  0  0  0  0  0  0  0  0  0
   -9.3656    6.2781   -2.7163 H   0  0  0  0  0  0  0  0  0  0  0  0
   -8.6734    7.5797   -3.7427 H   0  0  0  0  0  0  0  0  0  0  0  0
   -7.9296    5.9447   -3.7427 H   0  0  0  0  0  0  0  0  0  0  0  0
   -2.2963   10.2027   -1.8883 H   0  0  0  0  0  0  0  0  0  0  0  0
   -3.1768   10.8876    0.2548 H   0  0  0  0  0  0  0  0  0  0  0  0
   -2.7695    9.3301    1.0066 H   0  0  0  0  0  0  0  0  0  0  0  0
   -1.3305   11.7729    1.3615 H   0  0  0  0  0  0  0  0  0  0  0  0
   -0.7050   10.1854    1.7998 H   0  0  0  0  0  0  0  0  0  0  0  0
   -0.8111   12.9394   -0.2893 H   0  0  0  0  0  0  0  0  0  0  0  0
    0.2868   12.4848   -1.6364 H   0  0  0  0  0  0  0  0  0  0  0  0
   -1.4176   11.9176   -1.6364 H   0  0  0  0  0  0  0  0  0  0  0  0
    1.4977   10.0160    0.8052 H   0  0  0  0  0  0  0  0  0  0  0  0
    0.9937   12.4118    1.6118 H   0  0  0  0  0  0  0  0  0  0  0  0
    2.7166   11.7646    1.5662 H   0  0  0  0  0  0  0  0  0  0  0  0
    2.3807   14.2443    0.7425 H   0  0  0  0  0  0  0  0  0  0  0  0
    1.7568   12.0278   -2.5735 H   0  0  0  0  0  0  0  0  0  0  0  0
    4.7908   11.8214   -2.0757 H   0  0  0  0  0  0  0  0  0  0  0  0
    3.8483   11.0367   -3.4197 H   0  0  0  0  0  0  0  0  0  0  0  0
    5.0745   13.0447   -4.1843 H   0  0  0  0  0  0  0  0  0  0  0  0
    3.2810   13.2125   -4.3336 H   0  0  0  0  0  0  0  0  0  0  0  0
    4.1796   15.2682   -3.4817 H   0  0  0  0  0  0  0  0  0  0  0  0
    5.4210   15.2560   -1.5450 H   0  0  0  0  0  0  0  0  0  0  0  0
    0.8214   15.1442   -2.1211 H   0  0  0  0  0  0  0  0  0  0  0  0
    1.9048   15.7861   -3.4020 H   0  0  0  0  0  0  0  0  0  0  0  0
    1.4443   14.0498   -3.4020 H   0  0  0  0  0  0  0  0  0  0  0  0
    3.0906   15.5338    0.0704 H   0  0  0  0  0  0  0  0  0  0  0  0
    4.1386   16.2573   -1.1965 H   0  0  0  0  0  0  0  0  0  0  0  0
    2.3725   16.5856   -1.1965 H   0  0  0  0  0  0  0  0  0  0  0  0
    3.6604   10.1365    0.6058 H   0  0  0  0  0  0  0  0  0  0  0  0
    3.8726    9.0842   -0.8346 H   0  0  0  0  0  0  0  0  0  0  0  0
    4.5397   10.7521   -0.8346 H   0  0  0  0  0  0  0  0  0  0  0  0
    2.3148    9.6920   -3.0346 H   0  0  0  0  0  0  0  0  0  0  0  0
    2.0836    8.5841   -1.5670 H   0  0  0  0  0  0  0  0  0  0  0  0
    0.0109   10.3556   -2.8902 H   0  0  0  0  0  0  0  0  0  0  0  0
    0.0687    8.5509   -2.8133 H   0  0  0  0  0  0  0  0  0  0  0  0
   -0.1140    8.4258    0.9212 H   0  0  0  0  0  0  0  0  0  0  0  0
   -0.7426    7.4060   -0.4173 H   0  0  0  0  0  0  0  0  0  0  0  0
    0.9760    7.9287   -0.4173 H   0  0  0  0  0  0  0  0  0  0  0  0
  1  2  1  0
  2  3  1  0
  3  4  1  0
  4  5  1  0
  5  6  1  0
  6  7  1  0
  7  8  1  0
  7  9  1  0
  2 10  1  0
 10 11  1  0
 11 12  1  0
 12 13  1  0
 13 14  1  6
 13 15  1  0
 15 16  1  0
 16 17  1  0
 17 18  2  0
 18 19  1  0
 19 20  1  0
 20 21  1  0
 21 22  1  0
 22 23  1  0
 22 24  1  0
 24 25  1  0
 24 26  1  0
 19 27  1  0
 27 28  1  1
 27 29  1  0
 29 30  1  0
 30 31  1  0
 31 32  1  1
  7  5  1  0
 31 10  1  0
 31 13  1  0
 27 15  1  0
 24 18  1  0
  1 33  1  0
  1 34  1  0
  1 35  1  0
  2 36  1  1
  3 37  1  0
  3 38  1  0
  4 39  1  0
  4 40  1  0
  5 41  1  6
  8 42  1  0
  8 43  1  0
  8 44  1  0
  9 45  1  0
  9 46  1  0
  9 47  1  0
 10 48  1  6
 11 49  1  0
 11 50  1  0
 12 51  1  0
 12 52  1  0
 14 53  1  0
 14 54  1  0
 14 55  1  0
 15 56  1  1
 16 57  1  0
 16 58  1  0
 17 59  1  0
 19 60  1  6
 20 61  1  0
 20 62  1  0
 21 63  1  0
 21 64  1  0
 22 65  1  6
 23 66  1  0
 25 67  1  0
 25 68  1  0
 25 69  1  0
 26 70  1  0
 26 71  1  0
 26 72  1  0
 28 73  1  0
 28 74  1  0
 28 75  1  0
 29 76  1  0
 29 77  1  0
 30 78  1  0
 30 79  1  0
 32 80  1  0
 32 81  1  0
 32 82  1  0
M  END
>  <meeko>  (3) 
{"is_sidechain": [false], "intermolecular_energy": 2.731, "internal_energy": -0.839}

$$$$
EPH_relaxed_0001_pdb2pqr_Repair_257_r2_0001_out
     RDKit          3D

 82 86  0  0  0  0  0  0  0  0999 V2000
   -5.1450    5.8680   -1.6660 C   0  0  0  0  0  0  0  0  0  0  0  0
   -5.4380    7.3690   -1.7490 C   0  0  2  0  0  0  0  0  0  0  0  0
   -5.2120    8.0800   -0.3990 C   0  0  0  0  0  0  0  0  0  0  0  0
   -4.1650    9.1950   -0.4590 C   0  0  0  0  0  0  0  0  0  0  0  0
   -2.8190    8.6710   -0.8580 C   0  0  2  0  0  0  0  0  0  0  0  0
   -1.7690    8.9410    0.0800 O   0  0  0  0  0  0  0  0  0  0  0  0
   -1.6440    9.5650   -1.2080 C   0  0  0  0  0  0  0  0  0  0  0  0
   -1.7610   11.0570   -1.1760 C   0  0  0  0  0  0  0  0  0  0  0  0
   -0.5400    9.0000   -2.0470 C   0  0  0  0  0  0  0  0  0  0  0  0
   -6.8690    7.5940   -2.2230 C   0  0  1  0  0  0  0  0  0  0  0  0
   -7.1640    6.9040   -3.5820 C   0  0  0  0  0  0  0  0  0  0  0  0
   -8.6380    6.4260   -3.5310 C   0  0  0  0  0  0  0  0  0  0  0  0
   -9.2360    7.1400   -2.2960 C   0  0  1  0  0  0  0  0  0  0  0  0
   -9.5880    8.5770   -2.7940 C   0  0  0  0  0  0  0  0  0  0  0  0
  -10.4660    6.4450   -1.6260 C   0  0  2  0  0  0  0  0  0  0  0  0
  -11.7130    6.3200   -2.5190 C   0  0  0  0  0  0  0  0  0  0  0  0
  -12.6710    7.4620   -2.4400 C   0  0  0  0  0  0  0  0  0  0  0  0
  -12.6850    8.4060   -1.4800 C   0  0  0  0  0  0  0  0  0  0  0  0
  -11.7300    8.3260   -0.2820 C   0  0  1  0  0  0  0  0  0  0  0  0
  -12.5170    8.5960    1.0270 C   0  0  0  0  0  0  0  0  0  0  0  0
  -13.2900    9.9100    0.9840 C   0  0  0  0  0  0  0  0  0  0  0  0
  -14.2710    9.9280   -0.1860 C   0  0  2  0  0  0  0  0  0  0  0  0
  -15.2870    8.9490    0.0490 O   0  0  0  0  0  0  0  0  0  0  0  0
  -13.5930    9.6580   -1.5580 C   0  0  0  0  0  0  0  0  0  0  0  0
  -12.7150   10.8710   -1.9530 C   0  0  0  0  0  0  0  0  0  0  0  0
  -14.7100    9.5630   -2.6320 C   0  0  0  0  0  0  0  0  0  0  0  0
  -10.8340    7.0160   -0.1970 C   0  0  1  0  0  0  0  0  0  0  0  0
  -11.6110    5.8870    0.5480 C   0  0  0  0  0  0  0  0  0  0  0  0
   -9.5570    7.3220    0.6720 C   0  0  0  0  0  0  0  0  0  0  0  0
   -8.3340    7.8960   -0.0690 C   0  0  0  0  0  0  0  0  0  0  0  0
   -8.0100    7.0680   -1.3160 C   0  0  2  0  0  0  0  0  0  0  0  0
   -7.6310    5.6220   -0.8440 C   0  0  0  0  0  0  0  0  0  0  0  0
   -5.0856    5.5638   -0.6106 H   0  0  0  0  0  0  0  0  0  0  0  0
   -5.9510    5.3090   -2.1639 H   0  0  0  0  0  0  0  0  0  0  0  0
   -4.1880    5.6531   -2.1639 H   0  0  0  0  0  0  0  0  0  0  0  0
   -4.7339    7.8041   -2.4735 H   0  0  0  0  0  0  0  0  0  0  0  0
   -6.1670    8.5175   -0.0727 H   0  0  0  0  0  0  0  0  0  0  0  0
   -4.8355    7.3227    0.3043 H   0  0  0  0  0  0  0  0  0  0  0  0
   -4.4870    9.9471   -1.1943 H   0  0  0  0  0  0  0  0  0  0  0  0
   -4.0771    9.6369    0.5445 H   0  0  0  0  0  0  0  0  0  0  0  0
   -3.2791    7.8188   -1.3796 H   0  0  0  0  0  0  0  0  0  0  0  0
   -1.7879   11.4004   -0.1313 H   0  0  0  0  0  0  0  0  0  0  0  0
   -0.8951   11.5037   -1.6866 H   0  0  0  0  0  0  0  0  0  0  0  0
   -2.6859   11.3633   -1.6866 H   0  0  0  0  0  0  0  0  0  0  0  0
    0.2477    8.5969   -1.3935 H   0  0  0  0  0  0  0  0  0  0  0  0
   -0.9375    8.1945   -2.6820 H   0  0  0  0  0  0  0  0  0  0  0  0
   -0.1191    9.7935   -2.6820 H   0  0  0  0  0  0  0  0  0  0  0  0
   -6.8838    8.6936   -2.2477 H   0  0  0  0  0  0  0  0  0  0  0  0
   -7.0258    7.6181   -4.4072 H   0  0  0  0  0  0  0  0  0  0  0  0
   -6.4807    6.0589   -3.7522 H   0  0  0  0  0  0  0  0  0  0  0  0
   -9.1733    6.7190   -4.4462 H   0  0  0  0  0  0  0  0  0  0  0  0
   -8.7198    5.3313   -3.4608 H   0  0  0  0  0  0  0  0  0  0  0  0
   -9.7494    9.2359   -1.9281 H   0  0  0  0  0  0  0  0  0  0  0  0
   -8.7590    8.9675   -3.4024 H   0  0  0  0  0  0  0  0  0  0  0  0
  -10.5037    8.5402   -3.4024 H   0  0  0  0  0  0  0  0  0  0  0  0
  -10.1024    5.4177   -1.4761 H   0  0  0  0  0  0  0  0  0  0  0  0
  -11.3763    6.2304   -3.5624 H   0  0  0  0  0  0  0  0  0  0  0  0
  -12.2604    5.4379   -2.1554 H   0  0  0  0  0  0  0  0  0  0  0  0
  -13.4295    7.5388   -3.2329 H   0  0  0  0  0  0  0  0  0  0  0  0
  -10.9812    9.1169   -0.4361 H   0  0  0  0  0  0  0  0  0  0  0  0
  -13.2292    7.7730    1.1864 H   0  0  0  0  0  0  0  0  0  0  0  0
  -11.7873    8.6645    1.8473 H   0  0  0  0  0  0  0  0  0  0  0  0
  -13.8486   10.0300    1.9240 H   0  0  0  0  0  0  0  0  0  0  0  0
  -12.5737   10.7347    0.8543 H   0  0  0  0  0  0  0  0  0  0  0  0
  -14.6994   10.9396   -0.2414 H   0  0  0  0  0  0  0  0  0  0  0  0
  -15.9830    9.0820   -0.6160 H   0  0  0  0  0  0  0  0  0  0  0  0
  -12.3520   11.3725   -1.0437 H   0  0  0  0  0  0  0  0  0  0  0  0
  -11.8571   10.5244   -2.5479 H   0  0  0  0  0  0  0  0  0  0  0  0
  -13.3122   11.5777   -2.5479 H   0  0  0  0  0  0  0  0  0  0  0  0
  -15.6887    9.4798   -2.1368 H   0  0  0  0  0  0  0  0  0  0  0  0
  -14.6925   10.4659   -3.2601 H   0  0  0  0  0  0  0  0  0  0  0  0
  -14.5403    8.6760   -3.2601 H   0  0  0  0  0  0  0  0  0  0  0  0
  -11.5128    6.0296    1.6343 H   0  0  0  0  0  0  0  0  0  0  0  0
  -12.6739    5.9268    0.2675 H   0  0  0  0  0  0  0  0  0  0  0  0
  -11.1942    4.9084    0.2675 H   0  0  0  0  0  0  0  0  0  0  0  0
   -9.8474    8.0471    1.4465 H   0  0  0  0  0  0  0  0  0  0  0  0
   -9.2287    6.3447    1.0556 H   0  0  0  0  0  0  0  0  0  0  0  0
   -8.5496    8.9316   -0.3707 H   0  0  0  0  0  0  0  0  0  0  0  0
   -7.4674    7.8645    0.6077 H   0  0  0  0  0  0  0  0  0  0  0  0
   -7.6215    5.5858    0.2554 H   0  0  0  0  0  0  0  0  0  0  0  0
   -8.3716    4.9050   -1.2281 H   0  0  0  0  0  0  0  0  0  0  0  0
   -6.6340    5.3605   -1.2281 H   0  0  0  0  0  0  0  0  0  0  0  0
  1  2  1  0
  2  3  1  0
  3  4  1  0
  4  5  1  0
  5  6  1  0
  6  7  1  0
  7  8  1  0
  7  9  1  0
  2 10  1  0
 10 11  1  0
 11 12  1  0
 12 13  1  0
 13 14  1  6
 13 15  1  0
 15 16  1  0
 16 17  1  0
 17 18  2  0
 18 19  1  0
 19 20  1  0
 20 21  1  0
 21 22  1  0
 22 23  1  0
 22 24  1  0
 24 25  1  0
 24 26  1  0
 19 27  1  0
 27 28  1  1
 27 29  1  0
 29 30  1  0
 30 31  1  0
 31 32  1  1
  7  5  1  0
 31 10  1  0
 31 13  1  0
 27 15  1  0
 24 18  1  0
  1 33  1  0
  1 34  1  0
  1 35  1  0
  2 36  1  6
  3 37  1  0
  3 38  1  0
  4 39  1  0
  4 40  1  0
  5 41  1  6
  8 42  1  0
  8 43  1  0
  8 44  1  0
  9 45  1  0
  9 46  1  0
  9 47  1  0
 10 48  1  6
 11 49  1  0
 11 50  1  0
 12 51  1  0
 12 52  1  0
 14 53  1  0
 14 54  1  0
 14 55  1  0
 15 56  1  1
 16 57  1  0
 16 58  1  0
 17 59  1  0
 19 60  1  6
 20 61  1  0
 20 62  1  0
 21 63  1  0
 21 64  1  0
 22 65  1  6
 23 66  1  0
 25 67  1  0
 25 68  1  0
 25 69  1  0
 26 70  1  0
 26 71  1  0
 26 72  1  0
 28 73  1  0
 28 74  1  0
 28 75  1  0
 29 76  1  0
 29 77  1  0
 30 78  1  0
 30 79  1  0
 32 80  1  0
 32 81  1  0
 32 82  1  0
M  END
>  <meeko>  (4) 
{"is_sidechain": [false], "intermolecular_energy": 2.731, "internal_energy": -0.839}

$$$$
EPH_relaxed_0001_pdb2pqr_Repair_257_r2_0001_out
     RDKit          3D

 82 86  0  0  0  0  0  0  0  0999 V2000
   -2.4850    8.0920   -2.6710 C   0  0  0  0  0  0  0  0  0  0  0  0
   -2.7000    8.4970   -1.2100 C   0  0  2  0  0  0  0  0  0  0  0  0
   -4.1910    8.7070   -0.8790 C   0  0  0  0  0  0  0  0  0  0  0  0
   -4.9520    7.4060   -0.6090 C   0  0  0  0  0  0  0  0  0  0  0  0
   -5.9640    7.1240   -1.6780 C   0  0  2  0  0  0  0  0  0  0  0  0
   -6.6700    5.8860   -1.5230 O   0  0  0  0  0  0  0  0  0  0  0  0
   -5.8280    5.9940   -2.6820 C   0  0  0  0  0  0  0  0  0  0  0  0
   -4.6480    5.0730   -2.6650 C   0  0  0  0  0  0  0  0  0  0  0  0
   -6.5850    6.0870   -3.9700 C   0  0  0  0  0  0  0  0  0  0  0  0
   -1.9140    9.7650   -0.9000 C   0  0  1  0  0  0  0  0  0  0  0  0
   -2.2420   10.3450    0.5010 C   0  0  0  0  0  0  0  0  0  0  0  0
   -0.9270   10.9550    1.0520 C   0  0  0  0  0  0  0  0  0  0  0  0
    0.0210   11.0050   -0.1690 C   0  0  1  0  0  0  0  0  0  0  0  0
   -0.3970   12.2910   -0.9490 C   0  0  0  0  0  0  0  0  0  0  0  0
    1.5530   10.9920    0.1450 C   0  0  2  0  0  0  0  0  0  0  0  0
    2.0630   12.1960    0.9550 C   0  0  0  0  0  0  0  0  0  0  0  0
    2.5240   13.3620    0.1440 C   0  0  0  0  0  0  0  0  0  0  0  0
    2.7970   13.3380   -1.1740 C   0  0  0  0  0  0  0  0  0  0  0  0
    2.7430   12.0250   -1.9660 C   0  0  1  0  0  0  0  0  0  0  0  0
    4.0070   11.9060   -2.8570 C   0  0  0  0  0  0  0  0  0  0  0  0
    4.2060   13.1220   -3.7560 C   0  0  0  0  0  0  0  0  0  0  0  0
    4.3140   14.4000   -2.9290 C   0  0  2  0  0  0  0  0  0  0  0  0
    5.5200   14.3510   -2.1590 O   0  0  0  0  0  0  0  0  0  0  0  0
    3.1000   14.6230   -1.9840 C   0  0  0  0  0  0  0  0  0  0  0  0
    1.8460   14.9760   -2.8220 C   0  0  0  0  0  0  0  0  0  0  0  0
    3.4000   15.8670   -1.1060 C   0  0  0  0  0  0  0  0  0  0  0  0
    2.4700   10.7120   -1.1140 C   0  0  1  0  0  0  0  0  0  0  0  0
    3.8150   10.1440   -0.5670 C   0  0  0  0  0  0  0  0  0  0  0  0
    1.8700    9.6030   -2.0570 C   0  0  0  0  0  0  0  0  0  0  0  0
    0.3390    9.5940   -2.2320 C   0  0  0  0  0  0  0  0  0  0  0  0
   -0.3680    9.6550   -0.8750 C   0  0  2  0  0  0  0  0  0  0  0  0
    0.0150    8.3630   -0.0760 C   0  0  0  0  0  0  0  0  0  0  0  0
   -1.9695    7.1210   -2.7103 H   0  0  0  0  0  0  0  0  0  0  0  0
   -3.4588    8.0109   -3.1761 H   0  0  0  0  0  0  0  0  0  0  0  0
   -1.8722    8.8531   -3.1761 H   0  0  0  0  0  0  0  0  0  0  0  0
   -2.3353    7.6713   -0.5813 H   0  0  0  0  0  0  0  0  0  0  0  0
   -4.2616    9.3425    0.0161 H   0  0  0  0  0  0  0  0  0  0  0  0
   -4.6534    9.1719   -1.7622 H   0  0  0  0  0  0  0  0  0  0  0  0
   -4.2334    6.5741   -0.5700 H   0  0  0  0  0  0  0  0  0  0  0  0
   -5.4842    7.5122    0.3478 H   0  0  0  0  0  0  0  0  0  0  0  0
   -6.1699    8.1978   -1.7989 H   0  0  0  0  0  0  0  0  0  0  0  0
   -4.3683    4.8547   -1.6238 H   0  0  0  0  0  0  0  0  0  0  0  0
   -4.9069    4.1358   -3.1793 H   0  0  0  0  0  0  0  0  0  0  0  0
   -3.8017    5.5518   -3.1793 H   0  0  0  0  0  0  0  0  0  0  0  0
   -7.6561    6.2186   -3.7571 H   0  0  0  0  0  0  0  0  0  0  0  0
   -6.2181    6.9468   -4.5497 H   0  0  0  0  0  0  0  0  0  0  0  0
   -6.4371    5.1639   -4.5497 H   0  0  0  0  0  0  0  0  0  0  0  0
   -2.2334   10.3909   -1.7464 H   0  0  0  0  0  0  0  0  0  0  0  0
   -3.0147   11.1234    0.4173 H   0  0  0  0  0  0  0  0  0  0  0  0
   -2.6260    9.5627    1.1722 H   0  0  0  0  0  0  0  0  0  0  0  0
   -1.1038   11.9659    1.4481 H   0  0  0  0  0  0  0  0  0  0  0  0
   -0.5088   10.3654    1.8812 H   0  0  0  0  0  0  0  0  0  0  0  0
   -0.6554   13.0859   -0.2339 H   0  0  0  0  0  0  0  0  0  0  0  0
    0.4391   12.6243   -1.5814 H   0  0  0  0  0  0  0  0  0  0  0  0
   -1.2692   12.0690   -1.5814 H   0  0  0  0  0  0  0  0  0  0  0  0
    1.6502   10.1217    0.8107 H   0  0  0  0  0  0  0  0  0  0  0  0
    1.2456   12.5376    1.6071 H   0  0  0  0  0  0  0  0  0  0  0  0
    2.9465   11.8400    1.5052 H   0  0  0  0  0  0  0  0  0  0  0  0
    2.6512   14.3211    0.6675 H   0  0  0  0  0  0  0  0  0  0  0  0
    1.8453   12.0877   -2.5986 H   0  0  0  0  0  0  0  0  0  0  0  0
    4.8880   11.8003   -2.2068 H   0  0  0  0  0  0  0  0  0  0  0  0
    3.8757   11.0284   -3.5070 H   0  0  0  0  0  0  0  0  0  0  0  0
    5.1296   12.9914   -4.3390 H   0  0  0  0  0  0  0  0  0  0  0  0
    3.3376   13.2095   -4.4255 H   0  0  0  0  0  0  0  0  0  0  0  0
    4.3249   15.2467   -3.6311 H   0  0  0  0  0  0  0  0  0  0  0  0
    5.5570   15.1580   -1.6190 H   0  0  0  0  0  0  0  0  0  0  0  0
    1.0091   15.2116   -2.1481 H   0  0  0  0  0  0  0  0  0  0  0  0
    2.0626   15.8481   -3.4565 H   0  0  0  0  0  0  0  0  0  0  0  0
    1.5758   14.1190   -3.4565 H   0  0  0  0  0  0  0  0  0  0  0  0
    3.3333   15.5905   -0.0434 H   0  0  0  0  0  0  0  0  0  0  0  0
    4.4128   16.2356   -1.3261 H   0  0  0  0  0  0  0  0  0  0  0  0
    2.6665   16.6567   -1.3261 H   0  0  0  0  0  0  0  0  0  0  0  0
    3.7961   10.1520    0.5328 H   0  0  0  0  0  0  0  0  0  0  0  0
    3.9495    9.1123   -0.9239 H   0  0  0  0  0  0  0  0  0  0  0  0
    4.6483   10.7670   -0.9239 H   0  0  0  0  0  0  0  0  0  0  0  0
    2.3181    9.7349   -3.0529 H   0  0  0  0  0  0  0  0  0  0  0  0
    2.1094    8.6478   -1.5668 H   0  0  0  0  0  0  0  0  0  0  0  0
    0.0403   10.4656   -2.8329 H   0  0  0  0  0  0  0  0  0  0  0  0
    0.0491    8.6607   -2.7370 H   0  0  0  0  0  0  0  0  0  0  0  0
   -0.0457    8.5677    1.0031 H   0  0  0  0  0  0  0  0  0  0  0  0
   -0.6813    7.5518   -0.3350 H   0  0  0  0  0  0  0  0  0  0  0  0
    1.0409    8.0623   -0.3350 H   0  0  0  0  0  0  0  0  0  0  0  0
  1  2  1  0
  2  3  1  0
  3  4  1  0
  4  5  1  0
  5  6  1  0
  6  7  1  0
  7  8  1  0
  7  9  1  0
  2 10  1  0
 10 11  1  0
 11 12  1  0
 12 13  1  0
 13 14  1  6
 13 15  1  0
 15 16  1  0
 16 17  1  0
 17 18  2  0
 18 19  1  0
 19 20  1  0
 20 21  1  0
 21 22  1  0
 22 23  1  0
 22 24  1  0
 24 25  1  0
 24 26  1  0
 19 27  1  0
 27 28  1  1
 27 29  1  0
 29 30  1  0
 30 31  1  0
 31 32  1  1
  7  5  1  0
 31 10  1  0
 31 13  1  0
 27 15  1  0
 24 18  1  0
  1 33  1  0
  1 34  1  0
  1 35  1  0
  2 36  1  1
  3 37  1  0
  3 38  1  0
  4 39  1  0
  4 40  1  0
  5 41  1  6
  8 42  1  0
  8 43  1  0
  8 44  1  0
  9 45  1  0
  9 46  1  0
  9 47  1  0
 10 48  1  6
 11 49  1  0
 11 50  1  0
 12 51  1  0
 12 52  1  0
 14 53  1  0
 14 54  1  0
 14 55  1  0
 15 56  1  1
 16 57  1  0
 16 58  1  0
 17 59  1  0
 19 60  1  6
 20 61  1  0
 20 62  1  0
 21 63  1  0
 21 64  1  0
 22 65  1  6
 23 66  1  0
 25 67  1  0
 25 68  1  0
 25 69  1  0
 26 70  1  0
 26 71  1  0
 26 72  1  0
 28 73  1  0
 28 74  1  0
 28 75  1  0
 29 76  1  0
 29 77  1  0
 30 78  1  0
 30 79  1  0
 32 80  1  0
 32 81  1  0
 32 82  1  0
M  END
>  <meeko>  (5) 
{"is_sidechain": [false], "intermolecular_energy": 2.731, "internal_energy": -0.839}

$$$$
EPH_relaxed_0001_pdb2pqr_Repair_257_r2_0001_out
     RDKit          3D

 82 86  0  0  0  0  0  0  0  0999 V2000
   -2.9710    9.5880    0.3170 C   0  0  0  0  0  0  0  0  0  0  0  0
   -2.9250    9.5980   -1.2130 C   0  0  2  0  0  0  0  0  0  0  0  0
   -2.6540    8.1970   -1.7950 C   0  0  0  0  0  0  0  0  0  0  0  0
   -3.8780    7.5570   -2.4560 C   0  0  0  0  0  0  0  0  0  0  0  0
   -5.0510    7.5120   -1.5230 C   0  0  2  0  0  0  0  0  0  0  0  0
   -5.4530    6.1930   -1.1310 O   0  0  0  0  0  0  0  0  0  0  0  0
   -6.4030    6.9410   -1.9070 C   0  0  0  0  0  0  0  0  0  0  0  0
   -6.6540    6.3770   -3.2700 C   0  0  0  0  0  0  0  0  0  0  0  0
   -7.6080    7.3740   -1.1310 C   0  0  0  0  0  0  0  0  0  0  0  0
   -1.8600   10.5770   -1.6940 C   0  0  1  0  0  0  0  0  0  0  0  0
   -2.1710   12.0440   -1.2920 C   0  0  0  0  0  0  0  0  0  0  0  0
   -0.8100   12.7260   -1.0020 C   0  0  0  0  0  0  0  0  0  0  0  0
    0.2460   11.7440   -1.5610 C   0  0  1  0  0  0  0  0  0  0  0  0
    0.2880   12.0300   -3.0950 C   0  0  0  0  0  0  0  0  0  0  0  0
    1.6700   11.8230   -0.9200 C   0  0  2  0  0  0  0  0  0  0  0  0
    2.3970   13.1660   -1.1090 C   0  0  0  0  0  0  0  0  0  0  0  0
    3.2490   13.2630   -2.3320 C   0  0  0  0  0  0  0  0  0  0  0  0
    3.6500   12.2260   -3.0900 C   0  0  0  0  0  0  0  0  0  0  0  0
    3.3270   10.7820   -2.6850 C   0  0  1  0  0  0  0  0  0  0  0  0
    4.6010    9.9080   -2.8210 C   0  0  0  0  0  0  0  0  0  0  0  0
    5.2260    9.9980   -4.2100 C   0  0  0  0  0  0  0  0  0  0  0  0
    5.5870   11.4410   -4.5530 C   0  0  2  0  0  0  0  0  0  0  0  0
    6.6390   11.8720   -3.6840 O   0  0  0  0  0  0  0  0  0  0  0  0
    4.3830   12.4180   -4.4410 C   0  0  0  0  0  0  0  0  0  0  0  0
    3.3770   12.1360   -5.5840 C   0  0  0  0  0  0  0  0  0  0  0  0
    4.9130   13.8580   -4.6740 C   0  0  0  0  0  0  0  0  0  0  0  0
    2.6100   10.6010   -1.2780 C   0  0  1  0  0  0  0  0  0  0  0  0
    3.6780   10.5140   -0.1440 C   0  0  0  0  0  0  0  0  0  0  0  0
    1.8380    9.2290   -1.2670 C   0  0  0  0  0  0  0  0  0  0  0  0
    0.3940    9.2400   -1.8020 C   0  0  0  0  0  0  0  0  0  0  0  0
   -0.4170   10.3740   -1.1670 C   0  0  2  0  0  0  0  0  0  0  0  0
   -0.4950   10.1020    0.3740 C   0  0  0  0  0  0  0  0  0  0  0  0
   -1.9691    9.8058    0.7154 H   0  0  0  0  0  0  0  0  0  0  0  0
   -3.6793   10.3532    0.6675 H   0  0  0  0  0  0  0  0  0  0  0  0
   -3.2977    8.5979    0.6675 H   0  0  0  0  0  0  0  0  0  0  0  0
   -3.9142    9.9183   -1.5719 H   0  0  0  0  0  0  0  0  0  0  0  0
   -1.8573    8.2823   -2.5487 H   0  0  0  0  0  0  0  0  0  0  0  0
   -2.3682    7.5493   -0.9531 H   0  0  0  0  0  0  0  0  0  0  0  0
   -4.1515    8.1447   -3.3447 H   0  0  0  0  0  0  0  0  0  0  0  0
   -3.6186    6.5241   -2.7315 H   0  0  0  0  0  0  0  0  0  0  0  0
   -4.7567    8.4693   -1.0681 H   0  0  0  0  0  0  0  0  0  0  0  0
   -7.0996    5.3757   -3.1761 H   0  0  0  0  0  0  0  0  0  0  0  0
   -7.3440    7.0355   -3.8179 H   0  0  0  0  0  0  0  0  0  0  0  0
   -5.7029    6.3052   -3.8179 H   0  0  0  0  0  0  0  0  0  0  0  0
   -7.3972    7.2983   -0.0540 H   0  0  0  0  0  0  0  0  0  0  0  0
   -7.8523    8.4162   -1.3844 H   0  0  0  0  0  0  0  0  0  0  0  0
   -8.4597    6.7257   -1.3844 H   0  0  0  0  0  0  0  0  0  0  0  0
   -1.8982   10.3741   -2.7745 H   0  0  0  0  0  0  0  0  0  0  0  0
   -2.6862   12.5612   -2.1149 H   0  0  0  0  0  0  0  0  0  0  0  0
   -2.8274   12.0813   -0.4101 H   0  0  0  0  0  0  0  0  0  0  0  0
   -0.7458   13.6977   -1.5136 H   0  0  0  0  0  0  0  0  0  0  0  0
   -0.6651   12.9286    0.0694 H   0  0  0  0  0  0  0  0  0  0  0  0
    0.4459   13.1055   -3.2633 H   0  0  0  0  0  0  0  0  0  0  0  0
    1.1124   11.4625   -3.5514 H   0  0  0  0  0  0  0  0  0  0  0  0
   -0.6648   11.7235   -3.5514 H   0  0  0  0  0  0  0  0  0  0  0  0
    1.4495   11.7519    0.1553 H   0  0  0  0  0  0  0  0  0  0  0  0
    1.6371   13.9597   -1.1601 H   0  0  0  0  0  0  0  0  0  0  0  0
    3.0805   13.2655   -0.2529 H   0  0  0  0  0  0  0  0  0  0  0  0
    3.5764   14.2673   -2.6391 H   0  0  0  0  0  0  0  0  0  0  0  0
    2.5587   10.4330   -3.3906 H   0  0  0  0  0  0  0  0  0  0  0  0
    5.3403   10.2442   -2.0791 H   0  0  0  0  0  0  0  0  0  0  0  0
    4.3075    8.8611   -2.6538 H   0  0  0  0  0  0  0  0  0  0  0  0
    6.1377    9.3831   -4.2351 H   0  0  0  0  0  0  0  0  0  0  0  0
    4.4961    9.6337   -4.9479 H   0  0  0  0  0  0  0  0  0  0  0  0
    5.9079   11.4592   -5.6050 H   0  0  0  0  0  0  0  0  0  0  0  0
    6.9840   12.7110   -4.0330 H   0  0  0  0  0  0  0  0  0  0  0  0
    2.4017   11.8626   -5.1549 H   0  0  0  0  0  0  0  0  0  0  0  0
    3.2649   13.0373   -6.2045 H   0  0  0  0  0  0  0  0  0  0  0  0
    3.7498   11.3077   -6.2045 H   0  0  0  0  0  0  0  0  0  0  0  0
    5.0920   14.3443   -3.7037 H   0  0  0  0  0  0  0  0  0  0  0  0
    5.8542   13.8149   -5.2417 H   0  0  0  0  0  0  0  0  0  0  0  0
    4.1685   14.4354   -5.2417 H   0  0  0  0  0  0  0  0  0  0  0  0
    3.1777   10.5548    0.8348 H   0  0  0  0  0  0  0  0  0  0  0  0
    4.2317    9.5678   -0.2336 H   0  0  0  0  0  0  0  0  0  0  0  0
    4.3776   11.3581   -0.2336 H   0  0  0  0  0  0  0  0  0  0  0  0
    2.4138    8.5184   -1.8781 H   0  0  0  0  0  0  0  0  0  0  0  0
    1.7491    8.9575   -0.2047 H   0  0  0  0  0  0  0  0  0  0  0  0
    0.4154    9.3799   -2.8929 H   0  0  0  0  0  0  0  0  0  0  0  0
   -0.0823    8.2820   -1.5461 H   0  0  0  0  0  0  0  0  0  0  0  0
   -0.2321   11.0189    0.9219 H   0  0  0  0  0  0  0  0  0  0  0  0
   -1.5172    9.7957    0.6410 H   0  0  0  0  0  0  0  0  0  0  0  0
    0.2095    9.3005    0.6410 H   0  0  0  0  0  0  0  0  0  0  0  0
  1  2  1  0
  2  3  1  0
  3  4  1  0
  4  5  1  0
  5  6  1  0
  6  7  1  0
  7  8  1  0
  7  9  1  0
  2 10  1  0
 10 11  1  0
 11 12  1  0
 12 13  1  0
 13 14  1  6
 13 15  1  0
 15 16  1  0
 16 17  1  0
 17 18  2  0
 18 19  1  0
 19 20  1  0
 20 21  1  0
 21 22  1  0
 22 23  1  0
 22 24  1  0
 24 25  1  0
 24 26  1  0
 19 27  1  0
 27 28  1  1
 27 29  1  0
 29 30  1  0
 30 31  1  0
 31 32  1  1
  7  5  1  0
 31 10  1  0
 31 13  1  0
 27 15  1  0
 24 18  1  0
  1 33  1  0
  1 34  1  0
  1 35  1  0
  2 36  1  6
  3 37  1  0
  3 38  1  0
  4 39  1  0
  4 40  1  0
  5 41  1  1
  8 42  1  0
  8 43  1  0
  8 44  1  0
  9 45  1  0
  9 46  1  0
  9 47  1  0
 10 48  1  6
 11 49  1  0
 11 50  1  0
 12 51  1  0
 12 52  1  0
 14 53  1  0
 14 54  1  0
 14 55  1  0
 15 56  1  1
 16 57  1  0
 16 58  1  0
 17 59  1  0
 19 60  1  6
 20 61  1  0
 20 62  1  0
 21 63  1  0
 21 64  1  0
 22 65  1  6
 23 66  1  0
 25 67  1  0
 25 68  1  0
 25 69  1  0
 26 70  1  0
 26 71  1  0
 26 72  1  0
 28 73  1  0
 28 74  1  0
 28 75  1  0
 29 76  1  0
 29 77  1  0
 30 78  1  0
 30 79  1  0
 32 80  1  0
 32 81  1  0
 32 82  1  0
M  END
>  <meeko>  (6) 
{"is_sidechain": [false], "intermolecular_energy": 2.731, "internal_energy": -0.839}

$$$$
EPH_relaxed_0001_pdb2pqr_Repair_257_r2_0001_out
     RDKit          3D

 82 86  0  0  0  0  0  0  0  0999 V2000
   -1.1880    9.6620   -2.7120 C   0  0  0  0  0  0  0  0  0  0  0  0
   -1.4130    9.6530   -1.1970 C   0  0  2  0  0  0  0  0  0  0  0  0
   -2.9110    9.6460   -0.8330 C   0  0  0  0  0  0  0  0  0  0  0  0
   -3.4860    8.2420   -0.6240 C   0  0  0  0  0  0  0  0  0  0  0  0
   -4.9740    8.2200   -0.8070 C   0  0  2  0  0  0  0  0  0  0  0  0
   -5.5890    6.9500   -0.5550 O   0  0  0  0  0  0  0  0  0  0  0  0
   -5.6710    7.4380   -1.9040 C   0  0  0  0  0  0  0  0  0  0  0  0
   -4.8970    6.6240   -2.8940 C   0  0  0  0  0  0  0  0  0  0  0  0
   -7.0500    7.8530   -2.3130 C   0  0  0  0  0  0  0  0  0  0  0  0
   -0.7280   10.8590   -0.5630 C   0  0  1  0  0  0  0  0  0  0  0  0
   -0.2700   10.5870    0.8940 C   0  0  0  0  0  0  0  0  0  0  0  0
    1.0530   11.3690    1.1000 C   0  0  0  0  0  0  0  0  0  0  0  0
    1.1370   12.3200   -0.1170 C   0  0  1  0  0  0  0  0  0  0  0  0
    0.2190   13.5270    0.2520 C   0  0  0  0  0  0  0  0  0  0  0  0
    2.5710   12.7900   -0.5290 C   0  0  2  0  0  0  0  0  0  0  0  0
    3.3170   13.6150    0.5330 C   0  0  0  0  0  0  0  0  0  0  0  0
    3.1150   15.0920    0.4510 C   0  0  0  0  0  0  0  0  0  0  0  0
    2.5990   15.7540   -0.6010 C   0  0  0  0  0  0  0  0  0  0  0  0
    2.2470   15.0160   -1.9000 C   0  0  1  0  0  0  0  0  0  0  0  0
    2.7940   15.8140   -3.1130 C   0  0  0  0  0  0  0  0  0  0  0  0
    2.3220   17.2650   -3.1190 C   0  0  0  0  0  0  0  0  0  0  0  0
    2.7410   17.9810   -1.8380 C   0  0  2  0  0  0  0  0  0  0  0  0
    4.1670   18.0920   -1.8170 O   0  0  0  0  0  0  0  0  0  0  0  0
    2.2540   17.2630   -0.5480 C   0  0  0  0  0  0  0  0  0  0  0  0
    0.7180   17.4060   -0.4200 C   0  0  0  0  0  0  0  0  0  0  0  0
    2.8630   18.0070    0.6710 C   0  0  0  0  0  0  0  0  0  0  0  0
    2.6430   13.4780   -1.9520 C   0  0  1  0  0  0  0  0  0  0  0  0
    4.1140   13.3240   -2.4470 C   0  0  0  0  0  0  0  0  0  0  0  0
    1.7380   12.7500   -3.0160 C   0  0  0  0  0  0  0  0  0  0  0  0
    0.3860   12.2030   -2.5200 C   0  0  0  0  0  0  0  0  0  0  0  0
    0.5640   11.3800   -1.2400 C   0  0  2  0  0  0  0  0  0  0  0  0
    1.4650   10.1470   -1.5860 C   0  0  0  0  0  0  0  0  0  0  0  0
   -0.1091    9.7052   -2.9222 H   0  0  0  0  0  0  0  0  0  0  0  0
   -1.6107    8.7462   -3.1509 H   0  0  0  0  0  0  0  0  0  0  0  0
   -1.6825   10.5411   -3.1509 H   0  0  0  0  0  0  0  0  0  0  0  0
   -0.9731    8.7254   -0.8020 H   0  0  0  0  0  0  0  0  0  0  0  0
   -3.0454   10.2185    0.0966 H   0  0  0  0  0  0  0  0  0  0  0  0
   -3.4506   10.0919   -1.6815 H   0  0  0  0  0  0  0  0  0  0  0  0
   -3.0270    7.5567   -1.3518 H   0  0  0  0  0  0  0  0  0  0  0  0
   -3.2623    7.9294    0.4067 H   0  0  0  0  0  0  0  0  0  0  0  0
   -5.0525    9.2690   -0.4853 H   0  0  0  0  0  0  0  0  0  0  0  0
   -4.2349    5.9277   -2.3584 H   0  0  0  0  0  0  0  0  0  0  0  0
   -5.5946    6.0542   -3.5255 H   0  0  0  0  0  0  0  0  0  0  0  0
   -4.2928    7.2920   -3.5255 H   0  0  0  0  0  0  0  0  0  0  0  0
   -7.6591    8.0363   -1.4155 H   0  0  0  0  0  0  0  0  0  0  0  0
   -6.9933    8.7739   -2.9120 H   0  0  0  0  0  0  0  0  0  0  0  0
   -7.5109    7.0538   -2.9120 H   0  0  0  0  0  0  0  0  0  0  0  0
   -1.5317   11.6031   -0.6651 H   0  0  0  0  0  0  0  0  0  0  0  0
   -1.0331   10.9401    1.6032 H   0  0  0  0  0  0  0  0  0  0  0  0
   -0.1240    9.5107    1.0679 H   0  0  0  0  0  0  0  0  0  0  0  0
    1.0237   11.9414    2.0389 H   0  0  0  0  0  0  0  0  0  0  0  0
    1.9253   10.7025    1.1698 H   0  0  0  0  0  0  0  0  0  0  0  0
    0.1518   13.6154    1.3464 H   0  0  0  0  0  0  0  0  0  0  0  0
    0.6440   14.4519   -0.1652 H   0  0  0  0  0  0  0  0  0  0  0  0
   -0.7858   13.3645   -0.1652 H   0  0  0  0  0  0  0  0  0  0  0  0
    3.1184   11.8390   -0.6064 H   0  0  0  0  0  0  0  0  0  0  0  0
    2.9772   13.2800    1.5241 H   0  0  0  0  0  0  0  0  0  0  0  0
    4.3887   13.4440    0.3536 H   0  0  0  0  0  0  0  0  0  0  0  0
    3.4133   15.6900    1.3248 H   0  0  0  0  0  0  0  0  0  0  0  0
    1.1484   14.9800   -1.9420 H   0  0  0  0  0  0  0  0  0  0  0  0
    3.8933   15.8008   -3.0771 H   0  0  0  0  0  0  0  0  0  0  0  0
    2.4133   15.3350   -4.0272 H   0  0  0  0  0  0  0  0  0  0  0  0
    2.7643   17.7837   -3.9823 H   0  0  0  0  0  0  0  0  0  0  0  0
    1.2240   17.2764   -3.1841 H   0  0  0  0  0  0  0  0  0  0  0  0
    2.2655   18.9729   -1.8439 H   0  0  0  0  0  0  0  0  0  0  0  0
    4.3930   19.0170   -2.0170 H   0  0  0  0  0  0  0  0  0  0  0  0
    0.4396   17.4319    0.6439 H   0  0  0  0  0  0  0  0  0  0  0  0
    0.3947   18.3381   -0.9064 H   0  0  0  0  0  0  0  0  0  0  0  0
    0.2282   16.5496   -0.9064 H   0  0  0  0  0  0  0  0  0  0  0  0
    2.4911   17.5526    1.6011 H   0  0  0  0  0  0  0  0  0  0  0  0
    3.9597   17.9289    0.6378 H   0  0  0  0  0  0  0  0  0  0  0  0
    2.5697   19.0667    0.6378 H   0  0  0  0  0  0  0  0  0  0  0  0
    4.7872   13.2535   -1.5799 H   0  0  0  0  0  0  0  0  0  0  0  0
    4.2026   12.4117   -3.0551 H   0  0  0  0  0  0  0  0  0  0  0  0
    4.3897   14.1982   -3.0551 H   0  0  0  0  0  0  0  0  0  0  0  0
    1.5306   13.4678   -3.8233 H   0  0  0  0  0  0  0  0  0  0  0  0
    2.3118   11.8634   -3.3236 H   0  0  0  0  0  0  0  0  0  0  0  0
   -0.2899   13.0462   -2.3146 H   0  0  0  0  0  0  0  0  0  0  0  0
   -0.0365   11.5521   -3.2997 H   0  0  0  0  0  0  0  0  0  0  0  0
    1.8112    9.6732   -0.6556 H   0  0  0  0  0  0  0  0  0  0  0  0
    0.8832    9.4209   -2.1728 H   0  0  0  0  0  0  0  0  0  0  0  0
    2.3335   10.4807   -2.1728 H   0  0  0  0  0  0  0  0  0  0  0  0
  1  2  1  0
  2  3  1  0
  3  4  1  0
  4  5  1  0
  5  6  1  0
  6  7  1  0
  7  8  1  0
  7  9  1  0
  2 10  1  0
 10 11  1  0
 11 12  1  0
 12 13  1  0
 13 14  1  1
 13 15  1  0
 15 16  1  0
 16 17  1  0
 17 18  2  0
 18 19  1  0
 19 20  1  0
 20 21  1  0
 21 22  1  0
 22 23  1  0
 22 24  1  0
 24 25  1  0
 24 26  1  0
 19 27  1  0
 27 28  1  6
 27 29  1  0
 29 30  1  0
 30 31  1  0
 31 32  1  6
  7  5  1  0
 31 10  1  0
 31 13  1  0
 27 15  1  0
 24 18  1  0
  1 33  1  0
  1 34  1  0
  1 35  1  0
  2 36  1  1
  3 37  1  0
  3 38  1  0
  4 39  1  0
  4 40  1  0
  5 41  1  1
  8 42  1  0
  8 43  1  0
  8 44  1  0
  9 45  1  0
  9 46  1  0
  9 47  1  0
 10 48  1  1
 11 49  1  0
 11 50  1  0
 12 51  1  0
 12 52  1  0
 14 53  1  0
 14 54  1  0
 14 55  1  0
 15 56  1  6
 16 57  1  0
 16 58  1  0
 17 59  1  0
 19 60  1  6
 20 61  1  0
 20 62  1  0
 21 63  1  0
 21 64  1  0
 22 65  1  6
 23 66  1  0
 25 67  1  0
 25 68  1  0
 25 69  1  0
 26 70  1  0
 26 71  1  0
 26 72  1  0
 28 73  1  0
 28 74  1  0
 28 75  1  0
 29 76  1  0
 29 77  1  0
 30 78  1  0
 30 79  1  0
 32 80  1  0
 32 81  1  0
 32 82  1  0
M  END
>  <meeko>  (7) 
{"is_sidechain": [false], "intermolecular_energy": 2.731, "internal_energy": -0.839}

$$$$
EPH_relaxed_0001_pdb2pqr_Repair_257_r2_0001_out
     RDKit          3D

 82 86  0  0  0  0  0  0  0  0999 V2000
   -2.8250   14.2490   -1.0090 C   0  0  0  0  0  0  0  0  0  0  0  0
   -1.9910   14.5250    0.2450 C   0  0  2  0  0  0  0  0  0  0  0  0
   -1.9720   16.0220    0.6130 C   0  0  0  0  0  0  0  0  0  0  0  0
   -0.7540   16.7730    0.0690 C   0  0  0  0  0  0  0  0  0  0  0  0
   -0.6770   18.1690    0.6090 C   0  0  2  0  0  0  0  0  0  0  0  0
   -0.5860   19.1940   -0.3900 O   0  0  0  0  0  0  0  0  0  0  0  0
    0.5500   19.0510    0.4770 C   0  0  0  0  0  0  0  0  0  0  0  0
    1.7870   18.5690   -0.2140 C   0  0  0  0  0  0  0  0  0  0  0  0
    0.7220   20.1870    1.4370 C   0  0  0  0  0  0  0  0  0  0  0  0
   -0.5680   14.0190    0.0440 C   0  0  1  0  0  0  0  0  0  0  0  0
    0.1020   13.5740    1.3720 C   0  0  0  0  0  0  0  0  0  0  0  0
    1.0150   12.3690    1.0300 C   0  0  0  0  0  0  0  0  0  0  0  0
    1.1000   12.3690   -0.5140 C   0  0  1  0  0  0  0  0  0  0  0  0
    2.1790   13.4450   -0.8560 C   0  0  0  0  0  0  0  0  0  0  0  0
    1.4200   10.9960   -1.1890 C   0  0  2  0  0  0  0  0  0  0  0  0
    2.7880   10.3930   -0.8250 C   0  0  0  0  0  0  0  0  0  0  0  0
    3.9150   10.7800   -1.7250 C   0  0  0  0  0  0  0  0  0  0  0  0
    3.7870   11.3440   -2.9410 C   0  0  0  0  0  0  0  0  0  0  0  0
    2.4030   11.5590   -3.5670 C   0  0  1  0  0  0  0  0  0  0  0  0
    2.4240   11.0810   -5.0430 C   0  0  0  0  0  0  0  0  0  0  0  0
    3.5390   11.7340   -5.8540 C   0  0  0  0  0  0  0  0  0  0  0  0
    4.9040   11.4490   -5.2320 C   0  0  2  0  0  0  0  0  0  0  0  0
    5.1800   10.0500   -5.3480 O   0  0  0  0  0  0  0  0  0  0  0  0
    5.0000   11.8790   -3.7410 C   0  0  0  0  0  0  0  0  0  0  0  0
    5.0020   13.4250   -3.6450 C   0  0  0  0  0  0  0  0  0  0  0  0
    6.3750   11.4080   -3.1960 C   0  0  0  0  0  0  0  0  0  0  0  0
    1.1740   10.9690   -2.7520 C   0  0  1  0  0  0  0  0  0  0  0  0
    0.9450    9.4760   -3.1410 C   0  0  0  0  0  0  0  0  0  0  0  0
   -0.1350   11.7410   -3.1650 C   0  0  0  0  0  0  0  0  0  0  0  0
   -0.4600   13.0260   -2.3800 C   0  0  0  0  0  0  0  0  0  0  0  0
   -0.3740   12.7840   -0.8710 C   0  0  2  0  0  0  0  0  0  0  0  0
   -1.4630   11.7230   -0.4940 C   0  0  0  0  0  0  0  0  0  0  0  0
   -3.8311   13.9160   -0.7143 H   0  0  0  0  0  0  0  0  0  0  0  0
   -2.9037   15.1690   -1.6068 H   0  0  0  0  0  0  0  0  0  0  0  0
   -2.3394   13.4637   -1.6068 H   0  0  0  0  0  0  0  0  0  0  0  0
   -2.4622   13.9869    1.0807 H   0  0  0  0  0  0  0  0  0  0  0  0
   -2.8798   16.4914    0.2061 H   0  0  0  0  0  0  0  0  0  0  0  0
   -1.9242   16.0832    1.7103 H   0  0  0  0  0  0  0  0  0  0  0  0
    0.1578   16.2289    0.3562 H   0  0  0  0  0  0  0  0  0  0  0  0
   -0.8489   16.8333   -1.0252 H   0  0  0  0  0  0  0  0  0  0  0  0
   -1.2979   17.8932    1.4741 H   0  0  0  0  0  0  0  0  0  0  0  0
    2.5362   18.2771    0.5367 H   0  0  0  0  0  0  0  0  0  0  0  0
    1.5409   17.7010   -0.8433 H   0  0  0  0  0  0  0  0  0  0  0  0
    2.1931   19.3747   -0.8433 H   0  0  0  0  0  0  0  0  0  0  0  0
    0.6646   19.8077    2.4679 H   0  0  0  0  0  0  0  0  0  0  0  0
    1.7019   20.6595    1.2742 H   0  0  0  0  0  0  0  0  0  0  0  0
   -0.0741   20.9284    1.2742 H   0  0  0  0  0  0  0  0  0  0  0  0
   -0.1218   14.9082   -0.4252 H   0  0  0  0  0  0  0  0  0  0  0  0
    0.7012   14.3971    1.7884 H   0  0  0  0  0  0  0  0  0  0  0  0
   -0.6533   13.2970    2.1222 H   0  0  0  0  0  0  0  0  0  0  0  0
    2.0130   12.4998    1.4737 H   0  0  0  0  0  0  0  0  0  0  0  0
    0.6205   11.4215    1.4258 H   0  0  0  0  0  0  0  0  0  0  0  0
    2.5931   13.8580    0.0756 H   0  0  0  0  0  0  0  0  0  0  0  0
    2.9861   12.9815   -1.4423 H   0  0  0  0  0  0  0  0  0  0  0  0
    1.7177   14.2534   -1.4423 H   0  0  0  0  0  0  0  0  0  0  0  0
    0.6702   10.3305   -0.7364 H   0  0  0  0  0  0  0  0  0  0  0  0
    3.0414   10.7163    0.1954 H   0  0  0  0  0  0  0  0  0  0  0  0
    2.6773    9.3033   -0.9269 H   0  0  0  0  0  0  0  0  0  0  0  0
    4.9362   10.5881   -1.3640 H   0  0  0  0  0  0  0  0  0  0  0  0
    2.2155   12.6422   -3.5272 H   0  0  0  0  0  0  0  0  0  0  0  0
    2.5690    9.9907   -5.0584 H   0  0  0  0  0  0  0  0  0  0  0  0
    1.4660   11.3688   -5.5006 H   0  0  0  0  0  0  0  0  0  0  0  0
    3.5199   11.3350   -6.8789 H   0  0  0  0  0  0  0  0  0  0  0  0
    3.3768   12.8219   -5.8621 H   0  0  0  0  0  0  0  0  0  0  0  0
    5.6474   12.0474   -5.7791 H   0  0  0  0  0  0  0  0  0  0  0  0
    4.7390    9.7280   -6.1520 H   0  0  0  0  0  0  0  0  0  0  0  0
    5.0024   13.7267   -2.5872 H   0  0  0  0  0  0  0  0  0  0  0  0
    5.9007   13.8219   -4.1398 H   0  0  0  0  0  0  0  0  0  0  0  0
    4.1044   13.8243   -4.1398 H   0  0  0  0  0  0  0  0  0  0  0  0
    6.3553   11.4147   -2.0962 H   0  0  0  0  0  0  0  0  0  0  0  0
    6.5810   10.3881   -3.5528 H   0  0  0  0  0  0  0  0  0  0  0  0
    7.1631   12.0874   -3.5528 H   0  0  0  0  0  0  0  0  0  0  0  0
    0.8520    8.8694   -2.2281 H   0  0  0  0  0  0  0  0  0  0  0  0
    0.0230    9.3890   -3.7346 H   0  0  0  0  0  0  0  0  0  0  0  0
    1.7985    9.1167   -3.7346 H   0  0  0  0  0  0  0  0  0  0  0  0
   -0.0394   12.0144   -4.2262 H   0  0  0  0  0  0  0  0  0  0  0  0
   -0.9603   11.0495   -2.9399 H   0  0  0  0  0  0  0  0  0  0  0  0
    0.2589   13.8101   -2.6600 H   0  0  0  0  0  0  0  0  0  0  0  0
   -1.4857   13.3373   -2.6269 H   0  0  0  0  0  0  0  0  0  0  0  0
   -1.5391   11.6488    0.6009 H   0  0  0  0  0  0  0  0  0  0  0  0
   -2.4341   12.0309   -0.9091 H   0  0  0  0  0  0  0  0  0  0  0  0
   -1.1805   10.7443   -0.9091 H   0  0  0  0  0  0  0  0  0  0  0  0
  1  2  1  0
  2  3  1  0
  3  4  1  0
  4  5  1  0
  5  6  1  0
  6  7  1  0
  7  8  1  0
  7  9  1  0
  2 10  1  0
 10 11  1  0
 11 12  1  0
 12 13  1  0
 13 14  1  1
 13 15  1  0
 15 16  1  0
 16 17  1  0
 17 18  2  0
 18 19  1  0
 19 20  1  0
 20 21  1  0
 21 22  1  0
 22 23  1  0
 22 24  1  0
 24 25  1  0
 24 26  1  0
 19 27  1  0
 27 28  1  6
 27 29  1  0
 29 30  1  0
 30 31  1  0
 31 32  1  1
  7  5  1  0
 31 10  1  0
 31 13  1  0
 27 15  1  0
 24 18  1  0
  1 33  1  0
  1 34  1  0
  1 35  1  0
  2 36  1  1
  3 37  1  0
  3 38  1  0
  4 39  1  0
  4 40  1  0
  5 41  1  1
  8 42  1  0
  8 43  1  0
  8 44  1  0
  9 45  1  0
  9 46  1  0
  9 47  1  0
 10 48  1  6
 11 49  1  0
 11 50  1  0
 12 51  1  0
 12 52  1  0
 14 53  1  0
 14 54  1  0
 14 55  1  0
 15 56  1  1
 16 57  1  0
 16 58  1  0
 17 59  1  0
 19 60  1  6
 20 61  1  0
 20 62  1  0
 21 63  1  0
 21 64  1  0
 22 65  1  6
 23 66  1  0
 25 67  1  0
 25 68  1  0
 25 69  1  0
 26 70  1  0
 26 71  1  0
 26 72  1  0
 28 73  1  0
 28 74  1  0
 28 75  1  0
 29 76  1  0
 29 77  1  0
 30 78  1  0
 30 79  1  0
 32 80  1  0
 32 81  1  0
 32 82  1  0
M  END
>  <meeko>  (8) 
{"is_sidechain": [false], "intermolecular_energy": 2.731, "internal_energy": -0.839}

$$$$
EPH_relaxed_0001_pdb2pqr_Repair_257_r2_0001_out
     RDKit          3D

 82 86  0  0  0  0  0  0  0  0999 V2000
    2.5070   17.6610   -3.1630 C   0  0  0  0  0  0  0  0  0  0  0  0
    3.2640   16.8950   -2.0740 C   0  0  2  0  0  0  0  0  0  0  0  0
    4.7690   17.2310   -2.0670 C   0  0  0  0  0  0  0  0  0  0  0  0
    5.2630   17.8680   -3.3690 C   0  0  0  0  0  0  0  0  0  0  0  0
    6.2370   16.9830   -4.0840 C   0  0  2  0  0  0  0  0  0  0  0  0
    7.2410   16.3950   -3.2460 O   0  0  0  0  0  0  0  0  0  0  0  0
    7.7090   17.3150   -4.2450 C   0  0  0  0  0  0  0  0  0  0  0  0
    8.2890   18.5770   -3.6860 C   0  0  0  0  0  0  0  0  0  0  0  0
    8.4730   16.6630   -5.3540 C   0  0  0  0  0  0  0  0  0  0  0  0
    3.0660   15.3950   -2.2600 C   0  0  1  0  0  0  0  0  0  0  0  0
    4.3960   14.6470   -2.5390 C   0  0  0  0  0  0  0  0  0  0  0  0
    4.2810   13.2590   -1.8580 C   0  0  0  0  0  0  0  0  0  0  0  0
    2.7820   13.1250   -1.4990 C   0  0  1  0  0  0  0  0  0  0  0  0
    2.0910   12.6720   -2.8230 C   0  0  0  0  0  0  0  0  0  0  0  0
    2.4390   12.1660   -0.3120 C   0  0  2  0  0  0  0  0  0  0  0  0
    2.8150   10.6910   -0.5360 C   0  0  0  0  0  0  0  0  0  0  0  0
    1.7500    9.8480   -1.1560 C   0  0  0  0  0  0  0  0  0  0  0  0
    0.4500   10.1810   -1.2590 C   0  0  0  0  0  0  0  0  0  0  0  0
   -0.0830   11.4760   -0.6320 C   0  0  1  0  0  0  0  0  0  0  0  0
   -1.3930   11.1750    0.1430 C   0  0  0  0  0  0  0  0  0  0  0  0
   -2.4350   10.4720   -0.7200 C   0  0  0  0  0  0  0  0  0  0  0  0
   -1.8880    9.1600   -1.2770 C   0  0  2  0  0  0  0  0  0  0  0  0
   -1.6810    8.2500   -0.1920 O   0  0  0  0  0  0  0  0  0  0  0  0
   -0.5630    9.3370   -2.0710 C   0  0  0  0  0  0  0  0  0  0  0  0
   -0.8500   10.0720   -3.4040 C   0  0  0  0  0  0  0  0  0  0  0  0
   -0.0450    7.9250   -2.4550 C   0  0  0  0  0  0  0  0  0  0  0  0
    0.9590   12.3100    0.2300 C   0  0  1  0  0  0  0  0  0  0  0  0
    0.9710   11.7890    1.7000 C   0  0  0  0  0  0  0  0  0  0  0  0
    0.4890   13.8110    0.2950 C   0  0  0  0  0  0  0  0  0  0  0  0
    0.9590   14.7360   -0.8430 C   0  0  0  0  0  0  0  0  0  0  0  0
    2.4690   14.6040   -1.0690 C   0  0  2  0  0  0  0  0  0  0  0  0
    3.1910   15.0740    0.2400 C   0  0  0  0  0  0  0  0  0  0  0  0
    1.8074   18.3689   -2.6945 H   0  0  0  0  0  0  0  0  0  0  0  0
    3.2238   18.2135   -3.7883 H   0  0  0  0  0  0  0  0  0  0  0  0
    1.9461   16.9508   -3.7883 H   0  0  0  0  0  0  0  0  0  0  0  0
    2.8517   17.2067   -1.1030 H   0  0  0  0  0  0  0  0  0  0  0  0
    4.9648   17.9312   -1.2416 H   0  0  0  0  0  0  0  0  0  0  0  0
    5.3102   16.2808   -1.9482 H   0  0  0  0  0  0  0  0  0  0  0  0
    4.3999   18.0520   -4.0257 H   0  0  0  0  0  0  0  0  0  0  0  0
    5.7749   18.8087   -3.1178 H   0  0  0  0  0  0  0  0  0  0  0  0
    5.4653   16.6806   -4.8072 H   0  0  0  0  0  0  0  0  0  0  0  0
    8.2693   18.5342   -2.5870 H   0  0  0  0  0  0  0  0  0  0  0  0
    9.3280   18.6869   -4.0301 H   0  0  0  0  0  0  0  0  0  0  0  0
    7.6958   19.4371   -4.0301 H   0  0  0  0  0  0  0  0  0  0  0  0
    9.2449   16.0042   -4.9296 H   0  0  0  0  0  0  0  0  0  0  0  0
    7.7848   16.0695   -5.9739 H   0  0  0  0  0  0  0  0  0  0  0  0
    8.9509   17.4359   -5.9739 H   0  0  0  0  0  0  0  0  0  0  0  0
    2.3552   15.4053   -3.0994 H   0  0  0  0  0  0  0  0  0  0  0  0
    4.5424   14.5262   -3.6225 H   0  0  0  0  0  0  0  0  0  0  0  0
    5.2553   15.2097   -2.1453 H   0  0  0  0  0  0  0  0  0  0  0  0
    4.5879   12.4604   -2.5494 H   0  0  0  0  0  0  0  0  0  0  0  0
    4.9314   13.1717   -0.9752 H   0  0  0  0  0  0  0  0  0  0  0  0
    1.1929   12.0832   -2.5850 H   0  0  0  0  0  0  0  0  0  0  0  0
    1.8041   13.5579   -3.4086 H   0  0  0  0  0  0  0  0  0  0  0  0
    2.7890   12.0556   -3.4086 H   0  0  0  0  0  0  0  0  0  0  0  0
    3.1068   12.5266    0.4842 H   0  0  0  0  0  0  0  0  0  0  0  0
    3.6972   10.6611   -1.1924 H   0  0  0  0  0  0  0  0  0  0  0  0
    2.9946   10.2678    0.4633 H   0  0  0  0  0  0  0  0  0  0  0  0
    2.0535    8.8722   -1.5630 H   0  0  0  0  0  0  0  0  0  0  0  0
   -0.2935   12.1556   -1.4710 H   0  0  0  0  0  0  0  0  0  0  0  0
   -1.1543   10.5310    1.0022 H   0  0  0  0  0  0  0  0  0  0  0  0
   -1.8194   12.1369    0.4639 H   0  0  0  0  0  0  0  0  0  0  0  0
   -3.3248   10.2603   -0.1089 H   0  0  0  0  0  0  0  0  0  0  0  0
   -2.6942   11.1298   -1.5626 H   0  0  0  0  0  0  0  0  0  0  0  0
   -2.6299    8.7681   -1.9884 H   0  0  0  0  0  0  0  0  0  0  0  0
   -2.4640    8.2930    0.3820 H   0  0  0  0  0  0  0  0  0  0  0  0
   -1.2425   11.0773   -3.1913 H   0  0  0  0  0  0  0  0  0  0  0  0
    0.0810   10.1570   -3.9837 H   0  0  0  0  0  0  0  0  0  0  0  0
   -1.5923    9.5036   -3.9837 H   0  0  0  0  0  0  0  0  0  0  0  0
    0.1657    7.3506   -1.5408 H   0  0  0  0  0  0  0  0  0  0  0  0
   -0.8100    7.4026   -3.0481 H   0  0  0  0  0  0  0  0  0  0  0  0
    0.8764    8.0212   -3.0481 H   0  0  0  0  0  0  0  0  0  0  0  0
    0.9513   12.6437    2.3921 H   0  0  0  0  0  0  0  0  0  0  0  0
    0.0872   11.1572    1.8723 H   0  0  0  0  0  0  0  0  0  0  0  0
    1.8830   11.1986    1.8723 H   0  0  0  0  0  0  0  0  0  0  0  0
   -0.6110   13.8155    0.2946 H   0  0  0  0  0  0  0  0  0  0  0  0
    0.9515   14.2181    1.2062 H   0  0  0  0  0  0  0  0  0  0  0  0
    0.4314   14.4638   -1.7691 H   0  0  0  0  0  0  0  0  0  0  0  0
    0.7357   15.7764   -0.5642 H   0  0  0  0  0  0  0  0  0  0  0  0
    2.6339   14.7113    1.1164 H   0  0  0  0  0  0  0  0  0  0  0  0
    4.2129   14.6676    0.2612 H   0  0  0  0  0  0  0  0  0  0  0  0
    3.2330   16.1730    0.2612 H   0  0  0  0  0  0  0  0  0  0  0  0
  1  2  1  0
  2  3  1  0
  3  4  1  0
  4  5  1  0
  5  6  1  0
  6  7  1  0
  7  8  1  0
  7  9  1  0
  2 10  1  0
 10 11  1  0
 11 12  1  0
 12 13  1  0
 13 14  1  6
 13 15  1  0
 15 16  1  0
 16 17  1  0
 17 18  2  0
 18 19  1  0
 19 20  1  0
 20 21  1  0
 21 22  1  0
 22 23  1  0
 22 24  1  0
 24 25  1  0
 24 26  1  0
 19 27  1  0
 27 28  1  1
 27 29  1  0
 29 30  1  0
 30 31  1  0
 31 32  1  1
  7  5  1  0
 31 10  1  0
 31 13  1  0
 27 15  1  0
 24 18  1  0
  1 33  1  0
  1 34  1  0
  1 35  1  0
  2 36  1  1
  3 37  1  0
  3 38  1  0
  4 39  1  0
  4 40  1  0
  5 41  1  6
  8 42  1  0
  8 43  1  0
  8 44  1  0
  9 45  1  0
  9 46  1  0
  9 47  1  0
 10 48  1  6
 11 49  1  0
 11 50  1  0
 12 51  1  0
 12 52  1  0
 14 53  1  0
 14 54  1  0
 14 55  1  0
 15 56  1  1
 16 57  1  0
 16 58  1  0
 17 59  1  0
 19 60  1  6
 20 61  1  0
 20 62  1  0
 21 63  1  0
 21 64  1  0
 22 65  1  6
 23 66  1  0
 25 67  1  0
 25 68  1  0
 25 69  1  0
 26 70  1  0
 26 71  1  0
 26 72  1  0
 28 73  1  0
 28 74  1  0
 28 75  1  0
 29 76  1  0
 29 77  1  0
 30 78  1  0
 30 79  1  0
 32 80  1  0
 32 81  1  0
 32 82  1  0
M  END
>  <meeko>  (9) 
{"is_sidechain": [false], "intermolecular_energy": 2.731, "internal_energy": -0.839}

$$$$
EPH_relaxed_0001_pdb2pqr_Repair_257_r2_0001_out
     RDKit          3D

 82 86  0  0  0  0  0  0  0  0999 V2000
    4.6830   16.7720   -1.5200 C   0  0  0  0  0  0  0  0  0  0  0  0
    4.8090   15.2480   -1.5880 C   0  0  2  0  0  0  0  0  0  0  0  0
    5.1220   14.7540   -3.0150 C   0  0  0  0  0  0  0  0  0  0  0  0
    6.0720   13.5540   -3.0570 C   0  0  0  0  0  0  0  0  0  0  0  0
    5.6140   12.5190   -4.0390 C   0  0  2  0  0  0  0  0  0  0  0  0
    5.1560   11.2950   -3.4490 O   0  0  0  0  0  0  0  0  0  0  0  0
    6.3350   11.2030   -4.2650 C   0  0  0  0  0  0  0  0  0  0  0  0
    7.5750   10.8530   -3.5040 C   0  0  0  0  0  0  0  0  0  0  0  0
    6.1180   10.4810   -5.5580 C   0  0  0  0  0  0  0  0  0  0  0  0
    3.5280   14.5970   -1.0810 C   0  0  1  0  0  0  0  0  0  0  0  0
    2.5860   15.6050   -0.3700 C   0  0  0  0  0  0  0  0  0  0  0  0
    1.1350   15.1690   -0.6970 C   0  0  0  0  0  0  0  0  0  0  0  0
    1.2800   13.7520   -1.2990 C   0  0  1  0  0  0  0  0  0  0  0  0
    1.4200   12.8050   -0.0660 C   0  0  0  0  0  0  0  0  0  0  0  0
    0.1340   13.2870   -2.2560 C   0  0  2  0  0  0  0  0  0  0  0  0
   -1.2570   13.1830   -1.6060 C   0  0  0  0  0  0  0  0  0  0  0  0
   -1.5890   11.8510   -1.0190 C   0  0  0  0  0  0  0  0  0  0  0  0
   -0.9270   10.7040   -1.2590 C   0  0  0  0  0  0  0  0  0  0  0  0
    0.2190   10.6540   -2.2770 C   0  0  1  0  0  0  0  0  0  0  0  0
    0.0410    9.4170   -3.1960 C   0  0  0  0  0  0  0  0  0  0  0  0
   -0.0970    8.1180   -2.4080 C   0  0  0  0  0  0  0  0  0  0  0  0
   -1.2820    8.1850   -1.4490 C   0  0  2  0  0  0  0  0  0  0  0  0
   -2.4910    8.2430   -2.2120 O   0  0  0  0  0  0  0  0  0  0  0  0
   -1.2170    9.3980   -0.4790 C   0  0  0  0  0  0  0  0  0  0  0  0
   -0.0790    9.1820    0.5490 C   0  0  0  0  0  0  0  0  0  0  0  0
   -2.5380    9.4280    0.3360 C   0  0  0  0  0  0  0  0  0  0  0  0
    0.4770   11.9910   -3.0960 C   0  0  1  0  0  0  0  0  0  0  0  0
   -0.4360   12.0250   -4.3600 C   0  0  0  0  0  0  0  0  0  0  0  0
    1.9620   11.9940   -3.6210 C   0  0  0  0  0  0  0  0  0  0  0  0
    3.0310   12.5760   -2.6760 C   0  0  0  0  0  0  0  0  0  0  0  0
    2.5980   13.9410   -2.1330 C   0  0  2  0  0  0  0  0  0  0  0  0
    2.4700   14.9210   -3.3490 C   0  0  0  0  0  0  0  0  0  0  0  0
    4.6566   17.0911   -0.4676 H   0  0  0  0  0  0  0  0  0  0  0  0
    5.5460   17.2340   -2.0217 H   0  0  0  0  0  0  0  0  0  0  0  0
    3.7558   17.0860   -2.0217 H   0  0  0  0  0  0  0  0  0  0  0  0
    5.6531   14.9572   -0.9454 H   0  0  0  0  0  0  0  0  0  0  0  0
    4.1766   14.4654   -3.4976 H   0  0  0  0  0  0  0  0  0  0  0  0
    5.6253   15.5806   -3.5379 H   0  0  0  0  0  0  0  0  0  0  0  0
    7.0740   13.9025   -3.3477 H   0  0  0  0  0  0  0  0  0  0  0  0
    6.0890   13.0948   -2.0576 H   0  0  0  0  0  0  0  0  0  0  0  0
    5.2652   13.2979   -4.7330 H   0  0  0  0  0  0  0  0  0  0  0  0
    7.3713   10.9105   -2.4246 H   0  0  0  0  0  0  0  0  0  0  0  0
    7.8887    9.8312   -3.7640 H   0  0  0  0  0  0  0  0  0  0  0  0
    8.3766   11.5600   -3.7640 H   0  0  0  0  0  0  0  0  0  0  0  0
    5.8070    9.4461   -5.3524 H   0  0  0  0  0  0  0  0  0  0  0  0
    5.3336   10.9916   -6.1359 H   0  0  0  0  0  0  0  0  0  0  0  0
    7.0539   10.4746   -6.1359 H   0  0  0  0  0  0  0  0  0  0  0  0
    3.9606   13.8253   -0.4274 H   0  0  0  0  0  0  0  0  0  0  0  0
    2.7537   15.5782    0.7168 H   0  0  0  0  0  0  0  0  0  0  0  0
    2.7762   16.6326   -0.7132 H   0  0  0  0  0  0  0  0  0  0  0  0
    0.5224   15.1422    0.2162 H   0  0  0  0  0  0  0  0  0  0  0  0
    0.6352   15.8659   -1.3859 H   0  0  0  0  0  0  0  0  0  0  0  0
    1.3331   13.3929    0.8596 H   0  0  0  0  0  0  0  0  0  0  0  0
    0.6243   12.0460   -0.0944 H   0  0  0  0  0  0  0  0  0  0  0  0
    2.4013   12.3087   -0.0944 H   0  0  0  0  0  0  0  0  0  0  0  0
    0.0692   14.1220   -2.9691 H   0  0  0  0  0  0  0  0  0  0  0  0
   -1.3135   13.9321   -0.8025 H   0  0  0  0  0  0  0  0  0  0  0  0
   -1.9839   13.3486   -2.4149 H   0  0  0  0  0  0  0  0  0  0  0  0
   -2.4471   11.8030   -0.3324 H   0  0  0  0  0  0  0  0  0  0  0  0
    1.1438   10.5527   -1.6900 H   0  0  0  0  0  0  0  0  0  0  0  0
   -0.8640    9.5577   -3.8053 H   0  0  0  0  0  0  0  0  0  0  0  0
    0.9416    9.3337   -3.8221 H   0  0  0  0  0  0  0  0  0  0  0  0
   -0.2491    7.2853   -3.1105 H   0  0  0  0  0  0  0  0  0  0  0  0
    0.8208    7.9639   -1.8216 H   0  0  0  0  0  0  0  0  0  0  0  0
   -1.2511    7.2809   -0.8232 H   0  0  0  0  0  0  0  0  0  0  0  0
   -3.2120    8.4760   -1.6040 H   0  0  0  0  0  0  0  0  0  0  0  0
   -0.4859    9.2592    1.5681 H   0  0  0  0  0  0  0  0  0  0  0  0
    0.3611    8.1843    0.4046 H   0  0  0  0  0  0  0  0  0  0  0  0
    0.6961    9.9491    0.4046 H   0  0  0  0  0  0  0  0  0  0  0  0
   -2.3057    9.4227    1.4112 H   0  0  0  0  0  0  0  0  0  0  0  0
   -3.1018   10.3392    0.0871 H   0  0  0  0  0  0  0  0  0  0  0  0
   -3.1425    8.5434    0.0871 H   0  0  0  0  0  0  0  0  0  0  0  0
   -1.4906   12.0643   -4.0496 H   0  0  0  0  0  0  0  0  0  0  0  0
   -0.1973   12.9149   -4.9609 H   0  0  0  0  0  0  0  0  0  0  0  0
   -0.2641   11.1198   -4.9609 H   0  0  0  0  0  0  0  0  0  0  0  0
    2.2407   10.9521   -3.8375 H   0  0  0  0  0  0  0  0  0  0  0  0
    1.9570   12.6607   -4.4959 H   0  0  0  0  0  0  0  0  0  0  0  0
    3.1813   11.8848   -1.8336 H   0  0  0  0  0  0  0  0  0  0  0  0
    3.9663   12.7038   -3.2408 H   0  0  0  0  0  0  0  0  0  0  0  0
    2.3358   15.9483   -2.9794 H   0  0  0  0  0  0  0  0  0  0  0  0
    3.3827   14.8676   -3.9606 H   0  0  0  0  0  0  0  0  0  0  0  0
    1.6016   14.6350   -3.9606 H   0  0  0  0  0  0  0  0  0  0  0  0
  1  2  1  0
  2  3  1  0
  3  4  1  0
  4  5  1  0
  5  6  1  0
  6  7  1  0
  7  8  1  0
  7  9  1  0
  2 10  1  0
 10 11  1  0
 11 12  1  0
 12 13  1  0
 13 14  1  1
 13 15  1  0
 15 16  1  0
 16 17  1  0
 17 18  2  0
 18 19  1  0
 19 20  1  0
 20 21  1  0
 21 22  1  0
 22 23  1  0
 22 24  1  0
 24 25  1  0
 24 26  1  0
 19 27  1  0
 27 28  1  6
 27 29  1  0
 29 30  1  0
 30 31  1  0
 31 32  1  6
  7  5  1  0
 31 10  1  0
 31 13  1  0
 27 15  1  0
 24 18  1  0
  1 33  1  0
  1 34  1  0
  1 35  1  0
  2 36  1  1
  3 37  1  0
  3 38  1  0
  4 39  1  0
  4 40  1  0
  5 41  1  6
  8 42  1  0
  8 43  1  0
  8 44  1  0
  9 45  1  0
  9 46  1  0
  9 47  1  0
 10 48  1  1
 11 49  1  0
 11 50  1  0
 12 51  1  0
 12 52  1  0
 14 53  1  0
 14 54  1  0
 14 55  1  0
 15 56  1  6
 16 57  1  0
 16 58  1  0
 17 59  1  0
 19 60  1  1
 20 61  1  0
 20 62  1  0
 21 63  1  0
 21 64  1  0
 22 65  1  1
 23 66  1  0
 25 67  1  0
 25 68  1  0
 25 69  1  0
 26 70  1  0
 26 71  1  0
 26 72  1  0
 28 73  1  0
 28 74  1  0
 28 75  1  0
 29 76  1  0
 29 77  1  0
 30 78  1  0
 30 79  1  0
 32 80  1  0
 32 81  1  0
 32 82  1  0
M  END
>  <meeko>  (10) 
{"is_sidechain": [false], "intermolecular_energy": 2.731, "internal_energy": -0.839}

$$$$
EPH_relaxed_0001_pdb2pqr_Repair_257_r2_0001_out
     RDKit          3D

 82 86  0  0  0  0  0  0  0  0999 V2000
    4.1980   17.1190    0.7600 C   0  0  0  0  0  0  0  0  0  0  0  0
    3.9840   16.2160   -0.4570 C   0  0  2  0  0  0  0  0  0  0  0  0
    3.9000   17.0200   -1.7700 C   0  0  0  0  0  0  0  0  0  0  0  0
    3.6500   18.5160   -1.5600 C   0  0  0  0  0  0  0  0  0  0  0  0
    2.1970   18.8090   -1.3340 C   0  0  2  0  0  0  0  0  0  0  0  0
    1.8360   20.1890   -1.4740 O   0  0  0  0  0  0  0  0  0  0  0  0
    1.6800   19.6220   -0.1630 C   0  0  0  0  0  0  0  0  0  0  0  0
    2.6100   20.1930    0.8620 C   0  0  0  0  0  0  0  0  0  0  0  0
    0.2520   19.4490    0.2530 C   0  0  0  0  0  0  0  0  0  0  0  0
    2.7180   15.3870   -0.2730 C   0  0  1  0  0  0  0  0  0  0  0  0
    1.4660   16.2610    0.0020 C   0  0  0  0  0  0  0  0  0  0  0  0
    0.2670   15.5540   -0.6800 C   0  0  0  0  0  0  0  0  0  0  0  0
    0.7970   14.1450   -1.0360 C   0  0  1  0  0  0  0  0  0  0  0  0
    0.6860   13.3280    0.2890 C   0  0  0  0  0  0  0  0  0  0  0  0
    0.0840   13.4180   -2.2230 C   0  0  2  0  0  0  0  0  0  0  0  0
   -1.4090   13.1170   -2.0030 C   0  0  0  0  0  0  0  0  0  0  0  0
   -1.7070   11.7930   -1.3810 C   0  0  0  0  0  0  0  0  0  0  0  0
   -0.8430   10.7660   -1.2750 C   0  0  0  0  0  0  0  0  0  0  0  0
    0.5560   10.8470   -1.8990 C   0  0  1  0  0  0  0  0  0  0  0  0
    0.8540    9.5360   -2.6720 C   0  0  0  0  0  0  0  0  0  0  0  0
    0.6710    8.2920   -1.8080 C   0  0  0  0  0  0  0  0  0  0  0  0
   -0.7490    8.2170   -1.2540 C   0  0  2  0  0  0  0  0  0  0  0  0
   -1.6570    8.0070   -2.3400 O   0  0  0  0  0  0  0  0  0  0  0  0
   -1.1660    9.4880   -0.4630 C   0  0  0  0  0  0  0  0  0  0  0  0
   -0.3830    9.5510    0.8720 C   0  0  0  0  0  0  0  0  0  0  0  0
   -2.6640    9.3430   -0.0810 C   0  0  0  0  0  0  0  0  0  0  0  0
    0.8570   12.1470   -2.7630 C   0  0  1  0  0  0  0  0  0  0  0  0
    0.3850   11.9300   -4.2330 C   0  0  0  0  0  0  0  0  0  0  0  0
    2.4130   12.3740   -2.8250 C   0  0  0  0  0  0  0  0  0  0  0  0
    3.0410   13.2010   -1.6860 C   0  0  0  0  0  0  0  0  0  0  0  0
    2.2660   14.5040   -1.4640 C   0  0  2  0  0  0  0  0  0  0  0  0
    2.3790   15.3570   -2.7730 C   0  0  0  0  0  0  0  0  0  0  0  0
    4.0591   16.5329    1.6804 H   0  0  0  0  0  0  0  0  0  0  0  0
    5.2183   17.5295    0.7371 H   0  0  0  0  0  0  0  0  0  0  0  0
    3.4704   17.9437    0.7371 H   0  0  0  0  0  0  0  0  0  0  0  0
    4.8570   15.5510   -0.5324 H   0  0  0  0  0  0  0  0  0  0  0  0
    4.8492   16.8992   -2.3126 H   0  0  0  0  0  0  0  0  0  0  0  0
    3.0415   16.6264   -2.3340 H   0  0  0  0  0  0  0  0  0  0  0  0
    4.2223   18.8535   -0.6833 H   0  0  0  0  0  0  0  0  0  0  0  0
    3.9699   19.0479   -2.4681 H   0  0  0  0  0  0  0  0  0  0  0  0
    1.9124   17.8231   -1.7302 H   0  0  0  0  0  0  0  0  0  0  0  0
    2.2327   19.9613    1.8690 H   0  0  0  0  0  0  0  0  0  0  0  0
    3.6102   19.7532    0.7351 H   0  0  0  0  0  0  0  0  0  0  0  0
    2.6704   21.2840    0.7351 H   0  0  0  0  0  0  0  0  0  0  0  0
    0.1884   19.4413    1.3511 H   0  0  0  0  0  0  0  0  0  0  0  0
   -0.3487   20.2809   -0.1433 H   0  0  0  0  0  0  0  0  0  0  0  0
   -0.1327   18.4977   -0.1433 H   0  0  0  0  0  0  0  0  0  0  0  0
    3.0347   14.7522    0.5677 H   0  0  0  0  0  0  0  0  0  0  0  0
    1.2915   16.3423    1.0850 H   0  0  0  0  0  0  0  0  0  0  0  0
    1.6007   17.2786   -0.3933 H   0  0  0  0  0  0  0  0  0  0  0  0
   -0.5869   15.4850    0.0099 H   0  0  0  0  0  0  0  0  0  0  0  0
   -0.0921   16.1007   -1.5644 H   0  0  0  0  0  0  0  0  0  0  0  0
    0.7785   14.0086    1.1482 H   0  0  0  0  0  0  0  0  0  0  0  0
   -0.2893   12.8207    0.3264 H   0  0  0  0  0  0  0  0  0  0  0  0
    1.4906   12.5789    0.3264 H   0  0  0  0  0  0  0  0  0  0  0  0
    0.1207   14.1761   -3.0192 H   0  0  0  0  0  0  0  0  0  0  0  0
   -1.8211   13.9001   -1.3496 H   0  0  0  0  0  0  0  0  0  0  0  0
   -1.8656   13.0932   -3.0035 H   0  0  0  0  0  0  0  0  0  0  0  0
   -2.7183   11.6439   -0.9748 H   0  0  0  0  0  0  0  0  0  0  0  0
    1.2578   10.9534   -1.0587 H   0  0  0  0  0  0  0  0  0  0  0  0
    0.1715    9.4712   -3.5323 H   0  0  0  0  0  0  0  0  0  0  0  0
    1.9062    9.5687   -2.9910 H   0  0  0  0  0  0  0  0  0  0  0  0
    0.8671    7.3979   -2.4180 H   0  0  0  0  0  0  0  0  0  0  0  0
    1.3748    8.3438   -0.9642 H   0  0  0  0  0  0  0  0  0  0  0  0
   -0.7812    7.3796   -0.5414 H   0  0  0  0  0  0  0  0  0  0  0  0
   -1.1300    7.7780   -3.1240 H   0  0  0  0  0  0  0  0  0  0  0  0
   -1.0886    9.4942    1.7140 H   0  0  0  0  0  0  0  0  0  0  0  0
    0.3199    8.7065    0.9250 H   0  0  0  0  0  0  0  0  0  0  0  0
    0.1758   10.4970    0.9250 H   0  0  0  0  0  0  0  0  0  0  0  0
   -2.7638    9.3333    1.0144 H   0  0  0  0  0  0  0  0  0  0  0  0
   -3.2313   10.1904   -0.4934 H   0  0  0  0  0  0  0  0  0  0  0  0
   -3.0582    8.4025   -0.4934 H   0  0  0  0  0  0  0  0  0  0  0  0
   -0.6144   11.4705   -4.2331 H   0  0  0  0  0  0  0  0  0  0  0  0
    0.3430   12.8992   -4.7515 H   0  0  0  0  0  0  0  0  0  0  0  0
    1.0934   11.2672   -4.7515 H   0  0  0  0  0  0  0  0  0  0  0  0
    2.8939   11.3847   -2.8221 H   0  0  0  0  0  0  0  0  0  0  0  0
    2.5812   12.9659   -3.7368 H   0  0  0  0  0  0  0  0  0  0  0  0
    3.0230   12.6090   -0.7591 H   0  0  0  0  0  0  0  0  0  0  0  0
    4.0759   13.4507   -1.9627 H   0  0  0  0  0  0  0  0  0  0  0  0
    2.5193   16.4158   -2.5097 H   0  0  0  0  0  0  0  0  0  0  0  0
    3.2389   15.0092   -3.3642 H   0  0  0  0  0  0  0  0  0  0  0  0
    1.4582   15.2451   -3.3642 H   0  0  0  0  0  0  0  0  0  0  0  0
  1  2  1  0
  2  3  1  0
  3  4  1  0
  4  5  1  0
  5  6  1  0
  6  7  1  0
  7  8  1  0
  7  9  1  0
  2 10  1  0
 10 11  1  0
 11 12  1  0
 12 13  1  0
 13 14  1  1
 13 15  1  0
 15 16  1  0
 16 17  1  0
 17 18  2  0
 18 19  1  0
 19 20  1  0
 20 21  1  0
 21 22  1  0
 22 23  1  0
 22 24  1  0
 24 25  1  0
 24 26  1  0
 19 27  1  0
 27 28  1  6
 27 29  1  0
 29 30  1  0
 30 31  1  0
 31 32  1  6
  7  5  1  0
 31 10  1  0
 31 13  1  0
 27 15  1  0
 24 18  1  0
  1 33  1  0
  1 34  1  0
  1 35  1  0
  2 36  1  6
  3 37  1  0
  3 38  1  0
  4 39  1  0
  4 40  1  0
  5 41  1  6
  8 42  1  0
  8 43  1  0
  8 44  1  0
  9 45  1  0
  9 46  1  0
  9 47  1  0
 10 48  1  1
 11 49  1  0
 11 50  1  0
 12 51  1  0
 12 52  1  0
 14 53  1  0
 14 54  1  0
 14 55  1  0
 15 56  1  6
 16 57  1  0
 16 58  1  0
 17 59  1  0
 19 60  1  1
 20 61  1  0
 20 62  1  0
 21 63  1  0
 21 64  1  0
 22 65  1  1
 23 66  1  0
 25 67  1  0
 25 68  1  0
 25 69  1  0
 26 70  1  0
 26 71  1  0
 26 72  1  0
 28 73  1  0
 28 74  1  0
 28 75  1  0
 29 76  1  0
 29 77  1  0
 30 78  1  0
 30 79  1  0
 32 80  1  0
 32 81  1  0
 32 82  1  0
M  END
>  <meeko>  (11) 
{"is_sidechain": [false], "intermolecular_energy": 2.731, "internal_energy": -0.839}

$$$$
EPH_relaxed_0001_pdb2pqr_Repair_257_r2_0001_out
     RDKit          3D

 82 86  0  0  0  0  0  0  0  0999 V2000
    0.4160   10.6530   -3.9430 C   0  0  0  0  0  0  0  0  0  0  0  0
    1.2850   10.3690   -2.7150 C   0  0  2  0  0  0  0  0  0  0  0  0
    0.8290    9.1030   -1.9610 C   0  0  0  0  0  0  0  0  0  0  0  0
   -0.6210    8.7050   -2.2480 C   0  0  0  0  0  0  0  0  0  0  0  0
   -1.4630    8.7450   -1.0080 C   0  0  2  0  0  0  0  0  0  0  0  0
   -2.8600    8.9690   -1.2400 O   0  0  0  0  0  0  0  0  0  0  0  0
   -2.1650    9.9960   -0.5130 C   0  0  0  0  0  0  0  0  0  0  0  0
   -2.0560   11.2940   -1.2490 C   0  0  0  0  0  0  0  0  0  0  0  0
   -2.5480   10.0760    0.9320 C   0  0  0  0  0  0  0  0  0  0  0  0
    1.2680   11.5690   -1.7760 C   0  0  1  0  0  0  0  0  0  0  0  0
    1.5090   11.1730   -0.2950 C   0  0  0  0  0  0  0  0  0  0  0  0
    2.3170   12.3270    0.3510 C   0  0  0  0  0  0  0  0  0  0  0  0
    2.2290   13.4850   -0.6710 C   0  0  1  0  0  0  0  0  0  0  0  0
    0.8380   14.1440   -0.4100 C   0  0  0  0  0  0  0  0  0  0  0  0
    3.3840   14.5370   -0.6250 C   0  0  2  0  0  0  0  0  0  0  0  0
    3.4990   15.3240    0.6920 C   0  0  0  0  0  0  0  0  0  0  0  0
    2.7170   16.5950    0.7460 C   0  0  0  0  0  0  0  0  0  0  0  0
    2.1850   17.2310   -0.3140 C   0  0  0  0  0  0  0  0  0  0  0  0
    2.4300   16.7240   -1.7410 C   0  0  1  0  0  0  0  0  0  0  0  0
    2.8150   17.9170   -2.6550 C   0  0  0  0  0  0  0  0  0  0  0  0
    1.7910   19.0470   -2.6050 C   0  0  0  0  0  0  0  0  0  0  0  0
    1.6180   19.5630   -1.1790 C   0  0  2  0  0  0  0  0  0  0  0  0
    2.8340   20.1940   -0.7660 O   0  0  0  0  0  0  0  0  0  0  0  0
    1.2380   18.4470   -0.1650 C   0  0  0  0  0  0  0  0  0  0  0  0
   -0.2110   17.9720   -0.4340 C   0  0  0  0  0  0  0  0  0  0  0  0
    1.2340   19.0740    1.2550 C   0  0  0  0  0  0  0  0  0  0  0  0
    3.4340   15.5000   -1.8800 C   0  0  1  0  0  0  0  0  0  0  0  0
    4.8990   16.0230   -1.9820 C   0  0  0  0  0  0  0  0  0  0  0  0
    3.1380   14.7420   -3.2280 C   0  0  0  0  0  0  0  0  0  0  0  0
    2.0710   13.6320   -3.1810 C   0  0  0  0  0  0  0  0  0  0  0  0
    2.3270   12.6740   -2.0140 C   0  0  2  0  0  0  0  0  0  0  0  0
    3.7090   11.9790   -2.2600 C   0  0  0  0  0  0  0  0  0  0  0  0
   -0.5828   10.9794   -3.6178 H   0  0  0  0  0  0  0  0  0  0  0  0
    0.8822   11.4455   -4.5468 H   0  0  0  0  0  0  0  0  0  0  0  0
    0.3242    9.7381   -4.5468 H   0  0  0  0  0  0  0  0  0  0  0  0
    2.3106   10.1904   -3.0703 H   0  0  0  0  0  0  0  0  0  0  0  0
    1.4829    8.2689   -2.2555 H   0  0  0  0  0  0  0  0  0  0  0  0
    0.8941    9.3279   -0.8862 H   0  0  0  0  0  0  0  0  0  0  0  0
   -1.0422    9.4019   -2.9875 H   0  0  0  0  0  0  0  0  0  0  0  0
   -0.6241    7.6740   -2.6314 H   0  0  0  0  0  0  0  0  0  0  0  0
   -0.8009    8.0235   -0.5069 H   0  0  0  0  0  0  0  0  0  0  0  0
   -1.9866   12.1205   -0.5265 H   0  0  0  0  0  0  0  0  0  0  0  0
   -1.1556   11.2828   -1.8808 H   0  0  0  0  0  0  0  0  0  0  0  0
   -2.9456   11.4331   -1.8808 H   0  0  0  0  0  0  0  0  0  0  0  0
   -1.6619    9.8909    1.5570 H   0  0  0  0  0  0  0  0  0  0  0  0
   -2.9481   11.0771    1.1504 H   0  0  0  0  0  0  0  0  0  0  0  0
   -3.3154    9.3188    1.1504 H   0  0  0  0  0  0  0  0  0  0  0  0
    0.2626   11.9584   -1.9941 H   0  0  0  0  0  0  0  0  0  0  0  0
    0.5477   11.0467    0.2245 H   0  0  0  0  0  0  0  0  0  0  0  0
    2.0554   10.2209   -0.2248 H   0  0  0  0  0  0  0  0  0  0  0  0
    1.8711   12.6226    1.3121 H   0  0  0  0  0  0  0  0  0  0  0  0
    3.3565   12.0388    0.5663 H   0  0  0  0  0  0  0  0  0  0  0  0
    0.6680   14.2245    0.6738 H   0  0  0  0  0  0  0  0  0  0  0  0
    0.8175   15.1476   -0.8599 H   0  0  0  0  0  0  0  0  0  0  0  0
    0.0484   13.5242   -0.8599 H   0  0  0  0  0  0  0  0  0  0  0  0
    4.2816   13.9029   -0.6727 H   0  0  0  0  0  0  0  0  0  0  0  0
    3.1487   14.6745    1.5078 H   0  0  0  0  0  0  0  0  0  0  0  0
    4.5564   15.6133    0.7823 H   0  0  0  0  0  0  0  0  0  0  0  0
    2.5628   17.0498    1.7357 H   0  0  0  0  0  0  0  0  0  0  0  0
    1.4772   16.2884   -2.0765 H   0  0  0  0  0  0  0  0  0  0  0  0
    3.7897   18.3099   -2.3301 H   0  0  0  0  0  0  0  0  0  0  0  0
    2.8524   17.5461   -3.6899 H   0  0  0  0  0  0  0  0  0  0  0  0
    2.1333   19.8718   -3.2473 H   0  0  0  0  0  0  0  0  0  0  0  0
    0.8237   18.6604   -2.9585 H   0  0  0  0  0  0  0  0  0  0  0  0
    0.7821   20.2779   -1.1865 H   0  0  0  0  0  0  0  0  0  0  0  0
    3.2540   20.5690   -1.5590 H   0  0  0  0  0  0  0  0  0  0  0  0
   -0.7253   17.8034    0.5236 H   0  0  0  0  0  0  0  0  0  0  0  0
   -0.7483   18.7410   -1.0084 H   0  0  0  0  0  0  0  0  0  0  0  0
   -0.1887   17.0341   -1.0084 H   0  0  0  0  0  0  0  0  0  0  0  0
    1.2391   18.2734    2.0093 H   0  0  0  0  0  0  0  0  0  0  0  0
    2.1282   19.7022    1.3810 H   0  0  0  0  0  0  0  0  0  0  0  0
    0.3319   19.6907    1.3810 H   0  0  0  0  0  0  0  0  0  0  0  0
    5.3075   16.1688   -0.9711 H   0  0  0  0  0  0  0  0  0  0  0  0
    5.5136   15.2887   -2.5234 H   0  0  0  0  0  0  0  0  0  0  0  0
    4.9097   16.9805   -2.5234 H   0  0  0  0  0  0  0  0  0  0  0  0
    2.8083   15.4895   -3.9646 H   0  0  0  0  0  0  0  0  0  0  0  0
    4.0770   14.2280   -3.4813 H   0  0  0  0  0  0  0  0  0  0  0  0
    1.0791   14.0914   -3.0583 H   0  0  0  0  0  0  0  0  0  0  0  0
    2.1177   13.0609   -4.1200 H   0  0  0  0  0  0  0  0  0  0  0  0
    4.1780   11.7431   -1.2934 H   0  0  0  0  0  0  0  0  0  0  0  0
    3.5562   11.0505   -2.8297 H   0  0  0  0  0  0  0  0  0  0  0  0
    4.3633   12.6553   -2.8297 H   0  0  0  0  0  0  0  0  0  0  0  0
  1  2  1  0
  2  3  1  0
  3  4  1  0
  4  5  1  0
  5  6  1  0
  6  7  1  0
  7  8  1  0
  7  9  1  0
  2 10  1  0
 10 11  1  0
 11 12  1  0
 12 13  1  0
 13 14  1  6
 13 15  1  0
 15 16  1  0
 16 17  1  0
 17 18  2  0
 18 19  1  0
 19 20  1  0
 20 21  1  0
 21 22  1  0
 22 23  1  0
 22 24  1  0
 24 25  1  0
 24 26  1  0
 19 27  1  0
 27 28  1  6
 27 29  1  0
 29 30  1  0
 30 31  1  0
 31 32  1  6
  7  5  1  0
 31 10  1  0
 31 13  1  0
 27 15  1  0
 24 18  1  0
  1 33  1  0
  1 34  1  0
  1 35  1  0
  2 36  1  6
  3 37  1  0
  3 38  1  0
  4 39  1  0
  4 40  1  0
  5 41  1  1
  8 42  1  0
  8 43  1  0
  8 44  1  0
  9 45  1  0
  9 46  1  0
  9 47  1  0
 10 48  1  1
 11 49  1  0
 11 50  1  0
 12 51  1  0
 12 52  1  0
 14 53  1  0
 14 54  1  0
 14 55  1  0
 15 56  1  6
 16 57  1  0
 16 58  1  0
 17 59  1  0
 19 60  1  6
 20 61  1  0
 20 62  1  0
 21 63  1  0
 21 64  1  0
 22 65  1  6
 23 66  1  0
 25 67  1  0
 25 68  1  0
 25 69  1  0
 26 70  1  0
 26 71  1  0
 26 72  1  0
 28 73  1  0
 28 74  1  0
 28 75  1  0
 29 76  1  0
 29 77  1  0
 30 78  1  0
 30 79  1  0
 32 80  1  0
 32 81  1  0
 32 82  1  0
M  END
>  <meeko>  (12) 
{"is_sidechain": [false], "intermolecular_energy": 2.731, "internal_energy": -0.839}

$$$$
EPH_relaxed_0001_pdb2pqr_Repair_257_r2_0001_out
     RDKit          3D

 82 86  0  0  0  0  0  0  0  0999 V2000
   -1.0930   10.4310    1.4790 C   0  0  0  0  0  0  0  0  0  0  0  0
   -1.7550   10.1070    0.1360 C   0  0  2  0  0  0  0  0  0  0  0  0
   -2.5620    8.7940    0.1880 C   0  0  0  0  0  0  0  0  0  0  0  0
   -3.9690    8.9130   -0.4020 C   0  0  0  0  0  0  0  0  0  0  0  0
   -4.4970    7.5830   -0.8490 C   0  0  2  0  0  0  0  0  0  0  0  0
   -4.6950    7.4610   -2.2630 O   0  0  0  0  0  0  0  0  0  0  0  0
   -5.8760    7.3890   -1.4490 C   0  0  0  0  0  0  0  0  0  0  0  0
   -6.8150    8.5400   -1.6360 C   0  0  0  0  0  0  0  0  0  0  0  0
   -6.4930    6.0260   -1.4010 C   0  0  0  0  0  0  0  0  0  0  0  0
   -0.6970   10.0260   -0.9580 C   0  0  1  0  0  0  0  0  0  0  0  0
   -1.1780    9.2210   -2.1950 C   0  0  0  0  0  0  0  0  0  0  0  0
   -0.5450    9.8930   -3.4400 C   0  0  0  0  0  0  0  0  0  0  0  0
    0.5320   10.8430   -2.8650 C   0  0  1  0  0  0  0  0  0  0  0  0
    1.7630    9.9280   -2.5770 C   0  0  0  0  0  0  0  0  0  0  0  0
    0.9190   12.0680   -3.7560 C   0  0  2  0  0  0  0  0  0  0  0  0
    1.5450   11.7130   -5.1170 C   0  0  0  0  0  0  0  0  0  0  0  0
    3.0330   11.5950   -5.1220 C   0  0  0  0  0  0  0  0  0  0  0  0
    3.8570   12.0420   -4.1560 C   0  0  0  0  0  0  0  0  0  0  0  0
    3.3110   12.8290   -2.9580 C   0  0  1  0  0  0  0  0  0  0  0  0
    4.1950   14.0810   -2.7140 C   0  0  0  0  0  0  0  0  0  0  0  0
    5.6730   13.7320   -2.5600 C   0  0  0  0  0  0  0  0  0  0  0  0
    6.1930   13.0020   -3.7960 C   0  0  2  0  0  0  0  0  0  0  0  0
    6.1760   13.9050   -4.9060 O   0  0  0  0  0  0  0  0  0  0  0  0
    5.3730   11.7280   -4.1450 C   0  0  0  0  0  0  0  0  0  0  0  0
    5.6350   10.6330   -3.0820 C   0  0  0  0  0  0  0  0  0  0  0  0
    5.9130   11.1670   -5.4880 C   0  0  0  0  0  0  0  0  0  0  0  0
    1.7610   13.1770   -3.0040 C   0  0  1  0  0  0  0  0  0  0  0  0
    1.5380   14.5100   -3.7820 C   0  0  0  0  0  0  0  0  0  0  0  0
    1.2460   13.4270   -1.5370 C   0  0  0  0  0  0  0  0  0  0  0  0
    0.7650   12.1930   -0.7500 C   0  0  0  0  0  0  0  0  0  0  0  0
   -0.2150   11.3600   -1.5820 C   0  0  2  0  0  0  0  0  0  0  0  0
   -1.4740   12.2470   -1.8680 C   0  0  0  0  0  0  0  0  0  0  0  0
   -1.7512   10.1089    2.2994 H   0  0  0  0  0  0  0  0  0  0  0  0
   -0.1314    9.9017    1.5510 H   0  0  0  0  0  0  0  0  0  0  0  0
   -0.9211   11.5151    1.5510 H   0  0  0  0  0  0  0  0  0  0  0  0
   -2.4616   10.9192   -0.0897 H   0  0  0  0  0  0  0  0  0  0  0  0
   -2.0126    8.0261   -0.3763 H   0  0  0  0  0  0  0  0  0  0  0  0
   -2.6797    8.5308    1.2495 H   0  0  0  0  0  0  0  0  0  0  0  0
   -4.6429    9.3251    0.3635 H   0  0  0  0  0  0  0  0  0  0  0  0
   -3.9181    9.5743   -1.2795 H   0  0  0  0  0  0  0  0  0  0  0  0
   -3.9708    7.0730   -0.0286 H   0  0  0  0  0  0  0  0  0  0  0  0
   -7.1269    8.9223   -0.6528 H   0  0  0  0  0  0  0  0  0  0  0  0
   -6.3081    9.3395   -2.1963 H   0  0  0  0  0  0  0  0  0  0  0  0
   -7.7000    8.2040   -2.1963 H   0  0  0  0  0  0  0  0  0  0  0  0
   -6.6304    5.7224   -0.3527 H   0  0  0  0  0  0  0  0  0  0  0  0
   -7.4692    6.0474   -1.9075 H   0  0  0  0  0  0  0  0  0  0  0  0
   -5.8328    5.3066   -1.9075 H   0  0  0  0  0  0  0  0  0  0  0  0
    0.1209    9.5593   -0.3894 H   0  0  0  0  0  0  0  0  0  0  0  0
   -0.8456    8.1752   -2.1190 H   0  0  0  0  0  0  0  0  0  0  0  0
   -2.2759    9.2195   -2.2625 H   0  0  0  0  0  0  0  0  0  0  0  0
   -0.0870    9.1393   -4.0975 H   0  0  0  0  0  0  0  0  0  0  0  0
   -1.2890   10.4262   -4.0500 H   0  0  0  0  0  0  0  0  0  0  0  0
    1.8986    9.8272   -1.4901 H   0  0  0  0  0  0  0  0  0  0  0  0
    1.5932    8.9351   -3.0190 H   0  0  0  0  0  0  0  0  0  0  0  0
    2.6648   10.3768   -3.0190 H   0  0  0  0  0  0  0  0  0  0  0  0
   -0.0610   12.5123   -3.9844 H   0  0  0  0  0  0  0  0  0  0  0  0
    1.1263   10.7494   -5.4429 H   0  0  0  0  0  0  0  0  0  0  0  0
    1.3033   12.5482   -5.7908 H   0  0  0  0  0  0  0  0  0  0  0  0
    3.4956   11.1006   -5.9890 H   0  0  0  0  0  0  0  0  0  0  0  0
    3.3768   12.1508   -2.0944 H   0  0  0  0  0  0  0  0  0  0  0  0
    4.0812   14.7650   -3.5679 H   0  0  0  0  0  0  0  0  0  0  0  0
    3.8621   14.5474   -1.7750 H   0  0  0  0  0  0  0  0  0  0  0  0
    6.2490   14.6586   -2.4203 H   0  0  0  0  0  0  0  0  0  0  0  0
    5.7888   13.0719   -1.6877 H   0  0  0  0  0  0  0  0  0  0  0  0
    7.2164   12.6650   -3.5743 H   0  0  0  0  0  0  0  0  0  0  0  0
    6.5800   13.4480   -5.6630 H   0  0  0  0  0  0  0  0  0  0  0  0
    5.5314   11.0661   -2.0762 H   0  0  0  0  0  0  0  0  0  0  0  0
    4.9064    9.8185   -3.2073 H   0  0  0  0  0  0  0  0  0  0  0  0
    6.6534   10.2365   -3.2073 H   0  0  0  0  0  0  0  0  0  0  0  0
    6.6627   10.3881   -5.2850 H   0  0  0  0  0  0  0  0  0  0  0  0
    5.0824   10.7348   -6.0653 H   0  0  0  0  0  0  0  0  0  0  0  0
    6.3765   11.9806   -6.0653 H   0  0  0  0  0  0  0  0  0  0  0  0
    1.4002   15.3337   -3.0661 H   0  0  0  0  0  0  0  0  0  0  0  0
    2.4141   14.7165   -4.4143 H   0  0  0  0  0  0  0  0  0  0  0  0
    0.6424   14.4201   -4.4143 H   0  0  0  0  0  0  0  0  0  0  0  0
    2.0694   13.8840   -0.9686 H   0  0  0  0  0  0  0  0  0  0  0  0
    0.3550   14.0622   -1.6490 H   0  0  0  0  0  0  0  0  0  0  0  0
    1.6342   11.5714   -0.4889 H   0  0  0  0  0  0  0  0  0  0  0  0
    0.2498   12.5359    0.1594 H   0  0  0  0  0  0  0  0  0  0  0  0
   -1.9235   12.5637   -0.9153 H   0  0  0  0  0  0  0  0  0  0  0  0
   -1.1740   13.1343   -2.4448 H   0  0  0  0  0  0  0  0  0  0  0  0
   -2.2086   11.6659   -2.4448 H   0  0  0  0  0  0  0  0  0  0  0  0
  1  2  1  0
  2  3  1  0
  3  4  1  0
  4  5  1  0
  5  6  1  0
  6  7  1  0
  7  8  1  0
  7  9  1  0
  2 10  1  0
 10 11  1  0
 11 12  1  0
 12 13  1  0
 13 14  1  1
 13 15  1  0
 15 16  1  0
 16 17  1  0
 17 18  2  0
 18 19  1  0
 19 20  1  0
 20 21  1  0
 21 22  1  0
 22 23  1  0
 22 24  1  0
 24 25  1  0
 24 26  1  0
 19 27  1  0
 27 28  1  6
 27 29  1  0
 29 30  1  0
 30 31  1  0
 31 32  1  6
  7  5  1  0
 31 10  1  0
 31 13  1  0
 27 15  1  0
 24 18  1  0
  1 33  1  0
  1 34  1  0
  1 35  1  0
  2 36  1  6
  3 37  1  0
  3 38  1  0
  4 39  1  0
  4 40  1  0
  5 41  1  1
  8 42  1  0
  8 43  1  0
  8 44  1  0
  9 45  1  0
  9 46  1  0
  9 47  1  0
 10 48  1  1
 11 49  1  0
 11 50  1  0
 12 51  1  0
 12 52  1  0
 14 53  1  0
 14 54  1  0
 14 55  1  0
 15 56  1  6
 16 57  1  0
 16 58  1  0
 17 59  1  0
 19 60  1  1
 20 61  1  0
 20 62  1  0
 21 63  1  0
 21 64  1  0
 22 65  1  1
 23 66  1  0
 25 67  1  0
 25 68  1  0
 25 69  1  0
 26 70  1  0
 26 71  1  0
 26 72  1  0
 28 73  1  0
 28 74  1  0
 28 75  1  0
 29 76  1  0
 29 77  1  0
 30 78  1  0
 30 79  1  0
 32 80  1  0
 32 81  1  0
 32 82  1  0
M  END
>  <meeko>  (13) 
{"is_sidechain": [false], "intermolecular_energy": 2.731, "internal_energy": -0.839}

$$$$
EPH_relaxed_0001_pdb2pqr_Repair_257_r2_0001_out
     RDKit          3D

 82 86  0  0  0  0  0  0  0  0999 V2000
    6.2310   11.9030   -4.5610 C   0  0  0  0  0  0  0  0  0  0  0  0
    5.3310   13.1160   -4.3090 C   0  0  2  0  0  0  0  0  0  0  0  0
    5.7580   13.9040   -3.0540 C   0  0  0  0  0  0  0  0  0  0  0  0
    5.1900   15.3250   -2.9970 C   0  0  0  0  0  0  0  0  0  0  0  0
    4.3510   15.5380   -1.7730 C   0  0  2  0  0  0  0  0  0  0  0  0
    2.9380   15.4320   -1.9900 O   0  0  0  0  0  0  0  0  0  0  0  0
    3.4230   16.7240   -1.5910 C   0  0  0  0  0  0  0  0  0  0  0  0
    3.2860   17.7770   -2.6460 C   0  0  0  0  0  0  0  0  0  0  0  0
    3.0260   17.1150   -0.2020 C   0  0  0  0  0  0  0  0  0  0  0  0
    3.8810   12.6670   -4.1730 C   0  0  1  0  0  0  0  0  0  0  0  0
    3.3190   12.0570   -5.4850 C   0  0  0  0  0  0  0  0  0  0  0  0
    2.3440   10.9260   -5.0710 C   0  0  0  0  0  0  0  0  0  0  0  0
    2.1220   11.1380   -3.5550 C   0  0  1  0  0  0  0  0  0  0  0  0
    1.0500   12.2680   -3.4610 C   0  0  0  0  0  0  0  0  0  0  0  0
    1.7030    9.8750   -2.7350 C   0  0  2  0  0  0  0  0  0  0  0  0
    0.3550    9.2520   -3.1390 C   0  0  0  0  0  0  0  0  0  0  0  0
   -0.8350    9.7770   -2.4060 C   0  0  0  0  0  0  0  0  0  0  0  0
   -0.7990   10.4990   -1.2700 C   0  0  0  0  0  0  0  0  0  0  0  0
    0.5290   10.7730   -0.5530 C   0  0  1  0  0  0  0  0  0  0  0  0
    0.3640   10.5010    0.9650 C   0  0  0  0  0  0  0  0  0  0  0  0
   -0.7990   11.2770    1.5750 C   0  0  0  0  0  0  0  0  0  0  0  0
   -2.1110   10.9340    0.8740 C   0  0  2  0  0  0  0  0  0  0  0  0
   -2.4380    9.5680    1.1500 O   0  0  0  0  0  0  0  0  0  0  0  0
   -2.0610   11.1590   -0.6630 C   0  0  0  0  0  0  0  0  0  0  0  0
   -2.0090   12.6770   -0.9660 C   0  0  0  0  0  0  0  0  0  0  0  0
   -3.3960   10.6420   -1.2650 C   0  0  0  0  0  0  0  0  0  0  0  0
    1.8090   10.0560   -1.1660 C   0  0  1  0  0  0  0  0  0  0  0  0
    1.9580    8.6260   -0.5620 C   0  0  0  0  0  0  0  0  0  0  0  0
    3.0980   10.8540   -0.7420 C   0  0  0  0  0  0  0  0  0  0  0  0
    3.5290   12.0150   -1.6580 C   0  0  0  0  0  0  0  0  0  0  0  0
    3.5700   11.5710   -3.1230 C   0  0  2  0  0  0  0  0  0  0  0  0
    4.6560   10.4500   -3.2530 C   0  0  0  0  0  0  0  0  0  0  0  0
    6.5482   11.4755   -3.5984 H   0  0  0  0  0  0  0  0  0  0  0  0
    5.6744   11.1459   -5.1328 H   0  0  0  0  0  0  0  0  0  0  0  0
    7.1169   12.2162   -5.1328 H   0  0  0  0  0  0  0  0  0  0  0  0
    5.4326   13.7895   -5.1728 H   0  0  0  0  0  0  0  0  0  0  0  0
    5.4121   13.3558   -2.1653 H   0  0  0  0  0  0  0  0  0  0  0  0
    6.8535   13.9967   -3.0897 H   0  0  0  0  0  0  0  0  0  0  0  0
    6.0240   16.0421   -2.9867 H   0  0  0  0  0  0  0  0  0  0  0  0
    4.5520   15.4750   -3.8804 H   0  0  0  0  0  0  0  0  0  0  0  0
    5.1358   15.1101   -1.1319 H   0  0  0  0  0  0  0  0  0  0  0  0
    3.1581   18.7598   -2.1687 H   0  0  0  0  0  0  0  0  0  0  0  0
    4.1902   17.7884   -3.2723 H   0  0  0  0  0  0  0  0  0  0  0  0
    2.4090   17.5566   -3.2723 H   0  0  0  0  0  0  0  0  0  0  0  0
    3.6145   16.5354    0.5244 H   0  0  0  0  0  0  0  0  0  0  0  0
    3.2161   18.1884   -0.0548 H   0  0  0  0  0  0  0  0  0  0  0  0
    1.9556   16.9086   -0.0548 H   0  0  0  0  0  0  0  0  0  0  0  0
    3.4217   13.6193   -3.8695 H   0  0  0  0  0  0  0  0  0  0  0  0
    2.7840   12.8261   -6.0614 H   0  0  0  0  0  0  0  0  0  0  0  0
    4.1297   11.6672   -6.1181 H   0  0  0  0  0  0  0  0  0  0  0  0
    1.3939   11.0126   -5.6185 H   0  0  0  0  0  0  0  0  0  0  0  0
    2.7435    9.9267   -5.2984 H   0  0  0  0  0  0  0  0  0  0  0  0
    0.8411   12.4882   -2.4037 H   0  0  0  0  0  0  0  0  0  0  0  0
    1.4282   13.1743   -3.9565 H   0  0  0  0  0  0  0  0  0  0  0  0
    0.1250   11.9380   -3.9565 H   0  0  0  0  0  0  0  0  0  0  0  0
    2.4698    9.1413   -3.0243 H   0  0  0  0  0  0  0  0  0  0  0  0
    0.2025    9.4382   -4.2124 H   0  0  0  0  0  0  0  0  0  0  0  0
    0.4239    8.1845   -2.8827 H   0  0  0  0  0  0  0  0  0  0  0  0
   -1.8254    9.5551   -2.8300 H   0  0  0  0  0  0  0  0  0  0  0  0
    0.7501   11.8376   -0.7193 H   0  0  0  0  0  0  0  0  0  0  0  0
    0.1868    9.4256    1.1134 H   0  0  0  0  0  0  0  0  0  0  0  0
    1.2857   10.8322    1.4658 H   0  0  0  0  0  0  0  0  0  0  0  0
   -0.8829   11.0207    2.6414 H   0  0  0  0  0  0  0  0  0  0  0  0
   -0.6061   12.3530    1.4521 H   0  0  0  0  0  0  0  0  0  0  0  0
   -2.8820   11.6139    1.2657 H   0  0  0  0  0  0  0  0  0  0  0  0
   -2.0400    9.3380    2.0070 H   0  0  0  0  0  0  0  0  0  0  0  0
   -1.9897   13.2391   -0.0207 H   0  0  0  0  0  0  0  0  0  0  0  0
   -1.1025   12.9042   -1.5463 H   0  0  0  0  0  0  0  0  0  0  0  0
   -2.8978   12.9657   -1.5463 H   0  0  0  0  0  0  0  0  0  0  0  0
   -4.0861   10.3748   -0.4511 H   0  0  0  0  0  0  0  0  0  0  0  0
   -3.8481   11.4301   -1.8851 H   0  0  0  0  0  0  0  0  0  0  0  0
   -3.1994    9.7550   -1.8851 H   0  0  0  0  0  0  0  0  0  0  0  0
    1.9514    8.6893    0.5362 H   0  0  0  0  0  0  0  0  0  0  0  0
    1.1205    7.9969   -0.8981 H   0  0  0  0  0  0  0  0  0  0  0  0
    2.9072    8.1831   -0.8981 H   0  0  0  0  0  0  0  0  0  0  0  0
    2.9171   11.2703    0.2600 H   0  0  0  0  0  0  0  0  0  0  0  0
    3.9192   10.1242   -0.7967 H   0  0  0  0  0  0  0  0  0  0  0  0
    2.8114   12.8420   -1.5526 H   0  0  0  0  0  0  0  0  0  0  0  0
    4.5372   12.3400   -1.3616 H   0  0  0  0  0  0  0  0  0  0  0  0
    4.9701   10.1257   -2.2499 H   0  0  0  0  0  0  0  0  0  0  0  0
    4.2352    9.5935   -3.8002 H   0  0  0  0  0  0  0  0  0  0  0  0
    5.5254   10.8434   -3.8002 H   0  0  0  0  0  0  0  0  0  0  0  0
  1  2  1  0
  2  3  1  0
  3  4  1  0
  4  5  1  0
  5  6  1  0
  6  7  1  0
  7  8  1  0
  7  9  1  0
  2 10  1  0
 10 11  1  0
 11 12  1  0
 12 13  1  0
 13 14  1  6
 13 15  1  0
 15 16  1  0
 16 17  1  0
 17 18  2  0
 18 19  1  0
 19 20  1  0
 20 21  1  0
 21 22  1  0
 22 23  1  0
 22 24  1  0
 24 25  1  0
 24 26  1  0
 19 27  1  0
 27 28  1  1
 27 29  1  0
 29 30  1  0
 30 31  1  0
 31 32  1  1
  7  5  1  0
 31 10  1  0
 31 13  1  0
 27 15  1  0
 24 18  1  0
  1 33  1  0
  1 34  1  0
  1 35  1  0
  2 36  1  6
  3 37  1  0
  3 38  1  0
  4 39  1  0
  4 40  1  0
  5 41  1  1
  8 42  1  0
  8 43  1  0
  8 44  1  0
  9 45  1  0
  9 46  1  0
  9 47  1  0
 10 48  1  1
 11 49  1  0
 11 50  1  0
 12 51  1  0
 12 52  1  0
 14 53  1  0
 14 54  1  0
 14 55  1  0
 15 56  1  6
 16 57  1  0
 16 58  1  0
 17 59  1  0
 19 60  1  1
 20 61  1  0
 20 62  1  0
 21 63  1  0
 21 64  1  0
 22 65  1  1
 23 66  1  0
 25 67  1  0
 25 68  1  0
 25 69  1  0
 26 70  1  0
 26 71  1  0
 26 72  1  0
 28 73  1  0
 28 74  1  0
 28 75  1  0
 29 76  1  0
 29 77  1  0
 30 78  1  0
 30 79  1  0
 32 80  1  0
 32 81  1  0
 32 82  1  0
M  END
>  <meeko>  (14) 
{"is_sidechain": [false], "intermolecular_energy": 2.731, "internal_energy": -0.839}

$$$$
EPH_relaxed_0001_pdb2pqr_Repair_257_r2_0001_out
     RDKit          3D

 82 86  0  0  0  0  0  0  0  0999 V2000
    3.6880   17.9180    0.6260 C   0  0  0  0  0  0  0  0  0  0  0  0
    3.8090   16.7010   -0.2950 C   0  0  2  0  0  0  0  0  0  0  0  0
    3.9840   17.1060   -1.7720 C   0  0  0  0  0  0  0  0  0  0  0  0
    5.2230   16.4980   -2.4350 C   0  0  0  0  0  0  0  0  0  0  0  0
    6.2010   17.5530   -2.8560 C   0  0  2  0  0  0  0  0  0  0  0  0
    5.9680   18.0990   -4.1610 O   0  0  0  0  0  0  0  0  0  0  0  0
    7.1940   17.3690   -3.9880 C   0  0  0  0  0  0  0  0  0  0  0  0
    7.2590   16.0950   -4.7700 C   0  0  0  0  0  0  0  0  0  0  0  0
    8.4170   18.2320   -4.0140 C   0  0  0  0  0  0  0  0  0  0  0  0
    2.5820   15.8090   -0.1410 C   0  0  1  0  0  0  0  0  0  0  0  0
    1.2690   16.6220    0.0160 C   0  0  0  0  0  0  0  0  0  0  0  0
    0.1550   15.8130   -0.6970 C   0  0  0  0  0  0  0  0  0  0  0  0
    0.7820   14.4220   -0.9480 C   0  0  1  0  0  0  0  0  0  0  0  0
    0.6370   13.6650    0.4090 C   0  0  0  0  0  0  0  0  0  0  0  0
    0.1840   13.5980   -2.1350 C   0  0  2  0  0  0  0  0  0  0  0  0
   -1.3000   13.2220   -1.9850 C   0  0  0  0  0  0  0  0  0  0  0  0
   -1.5620   11.9140   -1.3140 C   0  0  0  0  0  0  0  0  0  0  0  0
   -0.6500   10.9460   -1.1050 C   0  0  0  0  0  0  0  0  0  0  0  0
    0.7780   11.0770   -1.6510 C   0  0  1  0  0  0  0  0  0  0  0  0
    1.1950    9.7500   -2.3370 C   0  0  0  0  0  0  0  0  0  0  0  0
    1.0290    8.5410   -1.4210 C   0  0  0  0  0  0  0  0  0  0  0  0
   -0.4160    8.4100   -0.9460 C   0  0  2  0  0  0  0  0  0  0  0  0
   -1.2440    8.0950   -2.0700 O   0  0  0  0  0  0  0  0  0  0  0  0
   -0.9490    9.6920   -0.2470 C   0  0  0  0  0  0  0  0  0  0  0  0
   -0.2530    9.8650    1.1250 C   0  0  0  0  0  0  0  0  0  0  0  0
   -2.4570    9.4780    0.0550 C   0  0  0  0  0  0  0  0  0  0  0  0
    1.0570   12.3490   -2.5620 C   0  0  1  0  0  0  0  0  0  0  0  0
    0.6880   12.0340   -4.0440 C   0  0  0  0  0  0  0  0  0  0  0  0
    2.6000   12.6640   -2.5460 C   0  0  0  0  0  0  0  0  0  0  0  0
    3.1110   13.5800   -1.4180 C   0  0  0  0  0  0  0  0  0  0  0  0
    2.2530   14.8450   -1.3080 C   0  0  2  0  0  0  0  0  0  0  0  0
    2.3970   15.6380   -2.6520 C   0  0  0  0  0  0  0  0  0  0  0  0
    3.7207   17.5886    1.6750 H   0  0  0  0  0  0  0  0  0  0  0  0
    4.5219   18.6087    0.4323 H   0  0  0  0  0  0  0  0  0  0  0  0
    2.7344   18.4310    0.4323 H   0  0  0  0  0  0  0  0  0  0  0  0
    4.7112   16.1474    0.0044 H   0  0  0  0  0  0  0  0  0  0  0  0
    3.0949   16.7768   -2.3299 H   0  0  0  0  0  0  0  0  0  0  0  0
    4.1122   18.1983   -1.7925 H   0  0  0  0  0  0  0  0  0  0  0  0
    5.7142   15.8216   -1.7200 H   0  0  0  0  0  0  0  0  0  0  0  0
    4.8983   15.9534   -3.3339 H   0  0  0  0  0  0  0  0  0  0  0  0
    6.3223   17.8890   -1.8156 H   0  0  0  0  0  0  0  0  0  0  0  0
    7.3025   15.2415   -4.0774 H   0  0  0  0  0  0  0  0  0  0  0  0
    6.3641   16.0077   -5.4037 H   0  0  0  0  0  0  0  0  0  0  0  0
    8.1581   16.0992   -5.4037 H   0  0  0  0  0  0  0  0  0  0  0  0
    8.7313   18.4538   -2.9834 H   0  0  0  0  0  0  0  0  0  0  0  0
    9.2270   17.7043   -4.5388 H   0  0  0  0  0  0  0  0  0  0  0  0
    8.1914   19.1720   -4.5388 H   0  0  0  0  0  0  0  0  0  0  0  0
    2.8813   15.2348    0.7482 H   0  0  0  0  0  0  0  0  0  0  0  0
    1.0248   16.7454    1.0814 H   0  0  0  0  0  0  0  0  0  0  0  0
    1.3708   17.6258   -0.4223 H   0  0  0  0  0  0  0  0  0  0  0  0
   -0.7343   15.7279   -0.0552 H   0  0  0  0  0  0  0  0  0  0  0  0
   -0.1786   16.2941   -1.6283 H   0  0  0  0  0  0  0  0  0  0  0  0
    0.7726   14.3728    1.2400 H   0  0  0  0  0  0  0  0  0  0  0  0
   -0.3640   13.2133    0.4717 H   0  0  0  0  0  0  0  0  0  0  0  0
    1.4002   12.8753    0.4717 H   0  0  0  0  0  0  0  0  0  0  0  0
    0.2275   14.3164   -2.9668 H   0  0  0  0  0  0  0  0  0  0  0  0
   -1.7926   14.0104   -1.3969 H   0  0  0  0  0  0  0  0  0  0  0  0
   -1.6938   13.1238   -3.0074 H   0  0  0  0  0  0  0  0  0  0  0  0
   -2.5865   11.7255   -0.9607 H   0  0  0  0  0  0  0  0  0  0  0  0
    1.4212   11.2630   -0.7783 H   0  0  0  0  0  0  0  0  0  0  0  0
    0.5707    9.6037   -3.2308 H   0  0  0  0  0  0  0  0  0  0  0  0
    2.2611    9.8287   -2.5965 H   0  0  0  0  0  0  0  0  0  0  0  0
    1.3108    7.6312   -1.9713 H   0  0  0  0  0  0  0  0  0  0  0  0
    1.6765    8.6753   -0.5420 H   0  0  0  0  0  0  0  0  0  0  0  0
   -0.4451    7.6075   -0.1942 H   0  0  0  0  0  0  0  0  0  0  0  0
   -2.1460    7.9480   -1.7390 H   0  0  0  0  0  0  0  0  0  0  0  0
   -0.9801    9.6843    1.9304 H   0  0  0  0  0  0  0  0  0  0  0  0
    0.5745    9.1452    1.2097 H   0  0  0  0  0  0  0  0  0  0  0  0
    0.1412   10.8884    1.2097 H   0  0  0  0  0  0  0  0  0  0  0  0
   -2.6134    9.4558    1.1436 H   0  0  0  0  0  0  0  0  0  0  0  0
   -3.0391   10.3025   -0.3823 H   0  0  0  0  0  0  0  0  0  0  0  0
   -2.7868    8.5241   -0.3823 H   0  0  0  0  0  0  0  0  0  0  0  0
   -0.1484   11.3200   -4.0698 H   0  0  0  0  0  0  0  0  0  0  0  0
    0.3929   12.9630   -4.5538 H   0  0  0  0  0  0  0  0  0  0  0  0
    1.5592   11.5968   -4.5538 H   0  0  0  0  0  0  0  0  0  0  0  0
    3.1342   11.7059   -2.4642 H   0  0  0  0  0  0  0  0  0  0  0  0
    2.7895   13.2201   -3.4760 H   0  0  0  0  0  0  0  0  0  0  0  0
    3.0703   13.0334   -0.4643 H   0  0  0  0  0  0  0  0  0  0  0  0
    4.1451   13.8763   -1.6479 H   0  0  0  0  0  0  0  0  0  0  0  0
    2.5896   16.6987   -2.4331 H   0  0  0  0  0  0  0  0  0  0  0  0
    3.2349   15.2255   -3.2331 H   0  0  0  0  0  0  0  0  0  0  0  0
    1.4675   15.5465   -3.2331 H   0  0  0  0  0  0  0  0  0  0  0  0
  1  2  1  0
  2  3  1  0
  3  4  1  0
  4  5  1  0
  5  6  1  0
  6  7  1  0
  7  8  1  0
  7  9  1  0
  2 10  1  0
 10 11  1  0
 11 12  1  0
 12 13  1  0
 13 14  1  1
 13 15  1  0
 15 16  1  0
 16 17  1  0
 17 18  2  0
 18 19  1  0
 19 20  1  0
 20 21  1  0
 21 22  1  0
 22 23  1  0
 22 24  1  0
 24 25  1  0
 24 26  1  0
 19 27  1  0
 27 28  1  6
 27 29  1  0
 29 30  1  0
 30 31  1  0
 31 32  1  6
  7  5  1  0
 31 10  1  0
 31 13  1  0
 27 15  1  0
 24 18  1  0
  1 33  1  0
  1 34  1  0
  1 35  1  0
  2 36  1  1
  3 37  1  0
  3 38  1  0
  4 39  1  0
  4 40  1  0
  5 41  1  1
  8 42  1  0
  8 43  1  0
  8 44  1  0
  9 45  1  0
  9 46  1  0
  9 47  1  0
 10 48  1  1
 11 49  1  0
 11 50  1  0
 12 51  1  0
 12 52  1  0
 14 53  1  0
 14 54  1  0
 14 55  1  0
 15 56  1  6
 16 57  1  0
 16 58  1  0
 17 59  1  0
 19 60  1  1
 20 61  1  0
 20 62  1  0
 21 63  1  0
 21 64  1  0
 22 65  1  1
 23 66  1  0
 25 67  1  0
 25 68  1  0
 25 69  1  0
 26 70  1  0
 26 71  1  0
 26 72  1  0
 28 73  1  0
 28 74  1  0
 28 75  1  0
 29 76  1  0
 29 77  1  0
 30 78  1  0
 30 79  1  0
 32 80  1  0
 32 81  1  0
 32 82  1  0
M  END
>  <meeko>  (15) 
{"is_sidechain": [false], "intermolecular_energy": 2.731, "internal_energy": -0.839}

$$$$
EPH_relaxed_0001_pdb2pqr_Repair_257_r2_0001_out
     RDKit          3D

 82 86  0  0  0  0  0  0  0  0999 V2000
   -2.3140   10.0320    0.6300 C   0  0  0  0  0  0  0  0  0  0  0  0
   -0.8430   10.2070    1.0170 C   0  0  2  0  0  0  0  0  0  0  0  0
   -0.5850   11.5530    1.7220 C   0  0  0  0  0  0  0  0  0  0  0  0
    0.4410   11.4680    2.8550 C   0  0  0  0  0  0  0  0  0  0  0  0
    0.4080   12.6870    3.7260 C   0  0  2  0  0  0  0  0  0  0  0  0
    0.4810   12.4200    5.1330 O   0  0  0  0  0  0  0  0  0  0  0  0
   -0.7390   13.0150    4.6630 C   0  0  0  0  0  0  0  0  0  0  0  0
   -1.9340   12.1210    4.7760 C   0  0  0  0  0  0  0  0  0  0  0  0
   -0.9240   14.4350    5.0990 C   0  0  0  0  0  0  0  0  0  0  0  0
    0.0370   10.0900   -0.2220 C   0  0  1  0  0  0  0  0  0  0  0  0
   -0.6100    9.2250   -1.3360 C   0  0  0  0  0  0  0  0  0  0  0  0
   -0.1860    9.8490   -2.6900 C   0  0  0  0  0  0  0  0  0  0  0  0
    0.9470   10.8380   -2.3270 C   0  0  1  0  0  0  0  0  0  0  0  0
    2.2250    9.9510   -2.1920 C   0  0  0  0  0  0  0  0  0  0  0  0
    1.1710   12.0260   -3.3170 C   0  0  2  0  0  0  0  0  0  0  0  0
    1.5900   11.6190   -4.7410 C   0  0  0  0  0  0  0  0  0  0  0  0
    3.0620   11.5200   -4.9690 C   0  0  0  0  0  0  0  0  0  0  0  0
    4.0140   12.0190   -4.1590 C   0  0  0  0  0  0  0  0  0  0  0  0
    3.6420   12.8520   -2.9250 C   0  0  1  0  0  0  0  0  0  0  0  0
    4.5280   14.1240   -2.8730 C   0  0  0  0  0  0  0  0  0  0  0  0
    6.0180   13.8010   -2.9310 C   0  0  0  0  0  0  0  0  0  0  0  0
    6.3590   13.0230   -4.1990 C   0  0  2  0  0  0  0  0  0  0  0  0
    6.1560   13.8760   -5.3310 O   0  0  0  0  0  0  0  0  0  0  0  0
    5.5200   11.7250   -4.3660 C   0  0  0  0  0  0  0  0  0  0  0  0
    5.9620   10.6820   -3.3100 C   0  0  0  0  0  0  0  0  0  0  0  0
    5.8600   11.1120   -5.7510 C   0  0  0  0  0  0  0  0  0  0  0  0
    2.0960   13.1780   -2.7490 C   0  0  1  0  0  0  0  0  0  0  0  0
    1.7320   14.4720   -3.5390 C   0  0  0  0  0  0  0  0  0  0  0  0
    1.8050   13.4860   -1.2330 C   0  0  0  0  0  0  0  0  0  0  0  0
    1.4730   12.2820   -0.3310 C   0  0  0  0  0  0  0  0  0  0  0  0
    0.3940   11.4010   -0.9670 C   0  0  2  0  0  0  0  0  0  0  0  0
   -0.9100   12.2590   -1.0950 C   0  0  0  0  0  0  0  0  0  0  0  0
   -2.9266    9.9591    1.5407 H   0  0  0  0  0  0  0  0  0  0  0  0
   -2.6422   10.8974    0.0356 H   0  0  0  0  0  0  0  0  0  0  0  0
   -2.4300    9.1137    0.0356 H   0  0  0  0  0  0  0  0  0  0  0  0
   -0.5900    9.4079    1.7293 H   0  0  0  0  0  0  0  0  0  0  0  0
   -0.2180   12.2717    0.9745 H   0  0  0  0  0  0  0  0  0  0  0  0
   -1.5375   11.8667    2.1740 H   0  0  0  0  0  0  0  0  0  0  0  0
    0.2194   10.5839    3.4708 H   0  0  0  0  0  0  0  0  0  0  0  0
    1.4424   11.3949    2.4057 H   0  0  0  0  0  0  0  0  0  0  0  0
    0.9246   13.2794    2.9565 H   0  0  0  0  0  0  0  0  0  0  0  0
   -2.1641   11.9489    5.8378 H   0  0  0  0  0  0  0  0  0  0  0  0
   -2.7961   12.5977    4.2866 H   0  0  0  0  0  0  0  0  0  0  0  0
   -1.7201   11.1594    4.2866 H   0  0  0  0  0  0  0  0  0  0  0  0
   -0.9303   14.4833    6.1979 H   0  0  0  0  0  0  0  0  0  0  0  0
   -0.0982   15.0486    4.7097 H   0  0  0  0  0  0  0  0  0  0  0  0
   -1.8794   14.8166    4.7097 H   0  0  0  0  0  0  0  0  0  0  0  0
    0.9400    9.6581    0.2341 H   0  0  0  0  0  0  0  0  0  0  0  0
   -0.2497    8.1879   -1.2675 H   0  0  0  0  0  0  0  0  0  0  0  0
   -1.7052    9.2065   -1.2355 H   0  0  0  0  0  0  0  0  0  0  0  0
    0.1817    9.0726   -3.3770 H   0  0  0  0  0  0  0  0  0  0  0  0
   -1.0243   10.3449   -3.2012 H   0  0  0  0  0  0  0  0  0  0  0  0
    2.4514    9.7938   -1.1271 H   0  0  0  0  0  0  0  0  0  0  0  0
    2.0498    8.9793   -2.6769 H   0  0  0  0  0  0  0  0  0  0  0  0
    3.0740   10.4550   -2.6769 H   0  0  0  0  0  0  0  0  0  0  0  0
    0.1593   12.4471   -3.4124 H   0  0  0  0  0  0  0  0  0  0  0  0
    1.1456   10.6365   -4.9583 H   0  0  0  0  0  0  0  0  0  0  0  0
    1.2327   12.4206   -5.4041 H   0  0  0  0  0  0  0  0  0  0  0  0
    3.3969   10.9948   -5.8757 H   0  0  0  0  0  0  0  0  0  0  0  0
    3.8518   12.2148   -2.0533 H   0  0  0  0  0  0  0  0  0  0  0  0
    4.2728   14.7668   -3.7284 H   0  0  0  0  0  0  0  0  0  0  0  0
    4.3324   14.6286   -1.9153 H   0  0  0  0  0  0  0  0  0  0  0  0
    6.5906   14.7402   -2.9201 H   0  0  0  0  0  0  0  0  0  0  0  0
    6.2771   13.1822   -2.0593 H   0  0  0  0  0  0  0  0  0  0  0  0
    7.4103   12.7087   -4.1209 H   0  0  0  0  0  0  0  0  0  0  0  0
    6.2800   14.7930   -5.0340 H   0  0  0  0  0  0  0  0  0  0  0  0
    5.7907   11.0862   -2.3014 H   0  0  0  0  0  0  0  0  0  0  0  0
    5.3777    9.7591   -3.4393 H   0  0  0  0  0  0  0  0  0  0  0  0
    7.0316   10.4599   -3.4393 H   0  0  0  0  0  0  0  0  0  0  0  0
    6.3891   10.1580   -5.6098 H   0  0  0  0  0  0  0  0  0  0  0  0
    4.9305   10.9362   -6.3123 H   0  0  0  0  0  0  0  0  0  0  0  0
    6.5013   11.8074   -6.3123 H   0  0  0  0  0  0  0  0  0  0  0  0
    1.5041   15.2821   -2.8307 H   0  0  0  0  0  0  0  0  0  0  0  0
    2.5821   14.7666   -4.1718 H   0  0  0  0  0  0  0  0  0  0  0  0
    0.8530   14.2802   -4.1718 H   0  0  0  0  0  0  0  0  0  0  0  0
    2.6962   13.9782   -0.8164 H   0  0  0  0  0  0  0  0  0  0  0  0
    0.8952   14.1043   -1.2343 H   0  0  0  0  0  0  0  0  0  0  0  0
    2.3835   11.6834   -0.1804 H   0  0  0  0  0  0  0  0  0  0  0  0
    1.0958   12.6585    0.6313 H   0  0  0  0  0  0  0  0  0  0  0  0
   -1.2861   12.5065   -0.0913 H   0  0  0  0  0  0  0  0  0  0  0  0
   -0.6862   13.1869   -1.6418 H   0  0  0  0  0  0  0  0  0  0  0  0
   -1.6736   11.6863   -1.6418 H   0  0  0  0  0  0  0  0  0  0  0  0
  1  2  1  0
  2  3  1  0
  3  4  1  0
  4  5  1  0
  5  6  1  0
  6  7  1  0
  7  8  1  0
  7  9  1  0
  2 10  1  0
 10 11  1  0
 11 12  1  0
 12 13  1  0
 13 14  1  1
 13 15  1  0
 15 16  1  0
 16 17  1  0
 17 18  2  0
 18 19  1  0
 19 20  1  0
 20 21  1  0
 21 22  1  0
 22 23  1  0
 22 24  1  0
 24 25  1  0
 24 26  1  0
 19 27  1  0
 27 28  1  6
 27 29  1  0
 29 30  1  0
 30 31  1  0
 31 32  1  6
  7  5  1  0
 31 10  1  0
 31 13  1  0
 27 15  1  0
 24 18  1  0
  1 33  1  0
  1 34  1  0
  1 35  1  0
  2 36  1  1
  3 37  1  0
  3 38  1  0
  4 39  1  0
  4 40  1  0
  5 41  1  6
  8 42  1  0
  8 43  1  0
  8 44  1  0
  9 45  1  0
  9 46  1  0
  9 47  1  0
 10 48  1  1
 11 49  1  0
 11 50  1  0
 12 51  1  0
 12 52  1  0
 14 53  1  0
 14 54  1  0
 14 55  1  0
 15 56  1  6
 16 57  1  0
 16 58  1  0
 17 59  1  0
 19 60  1  1
 20 61  1  0
 20 62  1  0
 21 63  1  0
 21 64  1  0
 22 65  1  1
 23 66  1  0
 25 67  1  0
 25 68  1  0
 25 69  1  0
 26 70  1  0
 26 71  1  0
 26 72  1  0
 28 73  1  0
 28 74  1  0
 28 75  1  0
 29 76  1  0
 29 77  1  0
 30 78  1  0
 30 79  1  0
 32 80  1  0
 32 81  1  0
 32 82  1  0
M  END
>  <meeko>  (16) 
{"is_sidechain": [false], "intermolecular_energy": 2.731, "internal_energy": -0.839}

$$$$
EPH_relaxed_0001_pdb2pqr_Repair_257_r2_0001_out
     RDKit          3D

 82 86  0  0  0  0  0  0  0  0999 V2000
    3.6930   16.9120    0.8130 C   0  0  0  0  0  0  0  0  0  0  0  0
    3.7070   16.9050   -0.7180 C   0  0  2  0  0  0  0  0  0  0  0  0
    3.4840   18.3130   -1.3070 C   0  0  0  0  0  0  0  0  0  0  0  0
    2.6770   19.2410   -0.3960 C   0  0  0  0  0  0  0  0  0  0  0  0
    1.2030   19.0050   -0.5310 C   0  0  2  0  0  0  0  0  0  0  0  0
    0.4210   20.1920   -0.7190 O   0  0  0  0  0  0  0  0  0  0  0  0
    0.1850   19.4630    0.4970 C   0  0  0  0  0  0  0  0  0  0  0  0
    0.6000   20.1950    1.7350 C   0  0  0  0  0  0  0  0  0  0  0  0
   -1.1460   18.7790    0.5400 C   0  0  0  0  0  0  0  0  0  0  0  0
    2.6430   15.9470   -1.2430 C   0  0  1  0  0  0  0  0  0  0  0  0
    2.0470   16.4030   -2.6020 C   0  0  0  0  0  0  0  0  0  0  0  0
    1.7460   15.1160   -3.4120 C   0  0  0  0  0  0  0  0  0  0  0  0
    1.8640   13.9690   -2.3810 C   0  0  1  0  0  0  0  0  0  0  0  0
    0.4970   13.9650   -1.6270 C   0  0  0  0  0  0  0  0  0  0  0  0
    2.2110   12.5560   -2.9550 C   0  0  2  0  0  0  0  0  0  0  0  0
    1.1650   11.9700   -3.9190 C   0  0  0  0  0  0  0  0  0  0  0  0
    0.1020   11.1390   -3.2800 C   0  0  0  0  0  0  0  0  0  0  0  0
    0.1460   10.6390   -2.0310 C   0  0  0  0  0  0  0  0  0  0  0  0
    1.3940   10.8130   -1.1560 C   0  0  1  0  0  0  0  0  0  0  0  0
    1.7550    9.4580   -0.4920 C   0  0  0  0  0  0  0  0  0  0  0  0
    0.5830    8.8530    0.2760 C   0  0  0  0  0  0  0  0  0  0  0  0
   -0.6190    8.6410   -0.6410 C   0  0  2  0  0  0  0  0  0  0  0  0
   -0.2930    7.6340   -1.6030 O   0  0  0  0  0  0  0  0  0  0  0  0
   -1.0670    9.9370   -1.3730 C   0  0  0  0  0  0  0  0  0  0  0  0
   -1.7020   10.9160   -0.3550 C   0  0  0  0  0  0  0  0  0  0  0  0
   -2.1950    9.5560   -2.3700 C   0  0  0  0  0  0  0  0  0  0  0  0
    2.6430   11.5000   -1.8590 C   0  0  1  0  0  0  0  0  0  0  0  0
    3.5000   10.4230   -2.5920 C   0  0  0  0  0  0  0  0  0  0  0  0
    3.5730   12.1290   -0.7550 C   0  0  0  0  0  0  0  0  0  0  0  0
    3.2520   13.5710   -0.3160 C   0  0  0  0  0  0  0  0  0  0  0  0
    3.0800   14.4880   -1.5300 C   0  0  2  0  0  0  0  0  0  0  0  0
    4.4460   14.5300   -2.2960 C   0  0  0  0  0  0  0  0  0  0  0  0
    4.6172   16.4499    1.1902 H   0  0  0  0  0  0  0  0  0  0  0  0
    3.6275   17.9489    1.1743 H   0  0  0  0  0  0  0  0  0  0  0  0
    2.8242   16.3422    1.1743 H   0  0  0  0  0  0  0  0  0  0  0  0
    4.7034   16.5666   -1.0384 H   0  0  0  0  0  0  0  0  0  0  0  0
    4.4666   18.7730   -1.4884 H   0  0  0  0  0  0  0  0  0  0  0  0
    2.9025   18.1858   -2.2320 H   0  0  0  0  0  0  0  0  0  0  0  0
    2.9728   19.0613    0.6481 H   0  0  0  0  0  0  0  0  0  0  0  0
    2.8868   20.2796   -0.6916 H   0  0  0  0  0  0  0  0  0  0  0  0
    1.3791   18.0316   -1.0122 H   0  0  0  0  0  0  0  0  0  0  0  0
    0.2786   19.6282    2.6212 H   0  0  0  0  0  0  0  0  0  0  0  0
    1.6945   20.3044    1.7468 H   0  0  0  0  0  0  0  0  0  0  0  0
    0.1319   21.1903    1.7468 H   0  0  0  0  0  0  0  0  0  0  0  0
   -1.4455   18.6251    1.5872 H   0  0  0  0  0  0  0  0  0  0  0  0
   -1.8958   19.4035    0.0322 H   0  0  0  0  0  0  0  0  0  0  0  0
   -1.0747   17.8058    0.0322 H   0  0  0  0  0  0  0  0  0  0  0  0
    1.9398   15.9699   -0.3975 H   0  0  0  0  0  0  0  0  0  0  0  0
    1.1204   16.9725   -2.4374 H   0  0  0  0  0  0  0  0  0  0  0  0
    2.7489   17.0550   -3.1425 H   0  0  0  0  0  0  0  0  0  0  0  0
    0.7322   15.1531   -3.8372 H   0  0  0  0  0  0  0  0  0  0  0  0
    2.4343   14.9866   -4.2602 H   0  0  0  0  0  0  0  0  0  0  0  0
    0.6768   13.9655   -0.5418 H   0  0  0  0  0  0  0  0  0  0  0  0
   -0.0771   14.8615   -1.9040 H   0  0  0  0  0  0  0  0  0  0  0  0
   -0.0719   13.0652   -1.9040 H   0  0  0  0  0  0  0  0  0  0  0  0
    3.1009   12.7612   -3.5681 H   0  0  0  0  0  0  0  0  0  0  0  0
    0.6755   12.8069   -4.4386 H   0  0  0  0  0  0  0  0  0  0  0  0
    1.7155   11.2950   -4.5908 H   0  0  0  0  0  0  0  0  0  0  0  0
   -0.7925   10.9166   -3.8804 H   0  0  0  0  0  0  0  0  0  0  0  0
    1.1228   11.5466   -0.3825 H   0  0  0  0  0  0  0  0  0  0  0  0
    2.0647    8.7520   -1.2767 H   0  0  0  0  0  0  0  0  0  0  0  0
    2.5659    9.6439    0.2276 H   0  0  0  0  0  0  0  0  0  0  0  0
    0.8901    7.8842    0.6968 H   0  0  0  0  0  0  0  0  0  0  0  0
    0.2939    9.5469    1.0791 H   0  0  0  0  0  0  0  0  0  0  0  0
   -1.4642    8.3288   -0.0100 H   0  0  0  0  0  0  0  0  0  0  0  0
    0.6730    7.6370   -1.7170 H   0  0  0  0  0  0  0  0  0  0  0  0
   -1.4813   10.5758    0.6675 H   0  0  0  0  0  0  0  0  0  0  0  0
   -1.2843   11.9226   -0.5047 H   0  0  0  0  0  0  0  0  0  0  0  0
   -2.7914   10.9451   -0.5047 H   0  0  0  0  0  0  0  0  0  0  0  0
   -3.0922    9.2530   -1.8103 H   0  0  0  0  0  0  0  0  0  0  0  0
   -2.4333   10.4235   -3.0030 H   0  0  0  0  0  0  0  0  0  0  0  0
   -1.8585    8.7217   -3.0030 H   0  0  0  0  0  0  0  0  0  0  0  0
    4.0051    9.7883   -1.8490 H   0  0  0  0  0  0  0  0  0  0  0  0
    2.8469    9.8013   -3.2220 H   0  0  0  0  0  0  0  0  0  0  0  0
    4.2525   10.9197   -3.2220 H   0  0  0  0  0  0  0  0  0  0  0  0
    3.5115   11.4880    0.1368 H   0  0  0  0  0  0  0  0  0  0  0  0
    4.5706   12.1833   -1.2153 H   0  0  0  0  0  0  0  0  0  0  0  0
    2.3205   13.5701    0.2691 H   0  0  0  0  0  0  0  0  0  0  0  0
    4.0882   13.9469    0.2919 H   0  0  0  0  0  0  0  0  0  0  0  0
    5.2725   14.5554   -1.5706 H   0  0  0  0  0  0  0  0  0  0  0  0
    4.5399   13.6343   -2.9276 H   0  0  0  0  0  0  0  0  0  0  0  0
    4.4847   15.4298   -2.9276 H   0  0  0  0  0  0  0  0  0  0  0  0
  1  2  1  0
  2  3  1  0
  3  4  1  0
  4  5  1  0
  5  6  1  0
  6  7  1  0
  7  8  1  0
  7  9  1  0
  2 10  1  0
 10 11  1  0
 11 12  1  0
 12 13  1  0
 13 14  1  1
 13 15  1  0
 15 16  1  0
 16 17  1  0
 17 18  2  0
 18 19  1  0
 19 20  1  0
 20 21  1  0
 21 22  1  0
 22 23  1  0
 22 24  1  0
 24 25  1  0
 24 26  1  0
 19 27  1  0
 27 28  1  6
 27 29  1  0
 29 30  1  0
 30 31  1  0
 31 32  1  6
  7  5  1  0
 31 10  1  0
 31 13  1  0
 27 15  1  0
 24 18  1  0
  1 33  1  0
  1 34  1  0
  1 35  1  0
  2 36  1  1
  3 37  1  0
  3 38  1  0
  4 39  1  0
  4 40  1  0
  5 41  1  6
  8 42  1  0
  8 43  1  0
  8 44  1  0
  9 45  1  0
  9 46  1  0
  9 47  1  0
 10 48  1  1
 11 49  1  0
 11 50  1  0
 12 51  1  0
 12 52  1  0
 14 53  1  0
 14 54  1  0
 14 55  1  0
 15 56  1  6
 16 57  1  0
 16 58  1  0
 17 59  1  0
 19 60  1  1
 20 61  1  0
 20 62  1  0
 21 63  1  0
 21 64  1  0
 22 65  1  1
 23 66  1  0
 25 67  1  0
 25 68  1  0
 25 69  1  0
 26 70  1  0
 26 71  1  0
 26 72  1  0
 28 73  1  0
 28 74  1  0
 28 75  1  0
 29 76  1  0
 29 77  1  0
 30 78  1  0
 30 79  1  0
 32 80  1  0
 32 81  1  0
 32 82  1  0
M  END
>  <meeko>  (17) 
{"is_sidechain": [false], "intermolecular_energy": 2.731, "internal_energy": -0.839}

$$$$
EPH_relaxed_0001_pdb2pqr_Repair_257_r2_0001_out
     RDKit          3D

 82 86  0  0  0  0  0  0  0  0999 V2000
    6.0910   13.8490   -5.1940 C   0  0  0  0  0  0  0  0  0  0  0  0
    4.9810   14.2080   -4.2020 C   0  0  2  0  0  0  0  0  0  0  0  0
    5.5220   14.9660   -2.9730 C   0  0  0  0  0  0  0  0  0  0  0  0
    5.3630   16.4860   -3.0690 C   0  0  0  0  0  0  0  0  0  0  0  0
    4.8750   17.0740   -1.7800 C   0  0  2  0  0  0  0  0  0  0  0  0
    3.8050   16.3510   -1.1590 O   0  0  0  0  0  0  0  0  0  0  0  0
    3.4950   17.6800   -1.6070 C   0  0  0  0  0  0  0  0  0  0  0  0
    2.5170   17.7290   -2.7380 C   0  0  0  0  0  0  0  0  0  0  0  0
    3.2770   18.6560   -0.4920 C   0  0  0  0  0  0  0  0  0  0  0  0
    4.2540   12.9450   -3.7560 C   0  0  1  0  0  0  0  0  0  0  0  0
    5.2190   11.7530   -3.5160 C   0  0  0  0  0  0  0  0  0  0  0  0
    4.6400   10.9390   -2.3310 C   0  0  0  0  0  0  0  0  0  0  0  0
    3.2060   11.4880   -2.1440 C   0  0  1  0  0  0  0  0  0  0  0  0
    2.3520   10.7560   -3.2270 C   0  0  0  0  0  0  0  0  0  0  0  0
    2.5860   11.3310   -0.7180 C   0  0  2  0  0  0  0  0  0  0  0  0
    2.4020    9.8800   -0.2420 C   0  0  0  0  0  0  0  0  0  0  0  0
    1.0850    9.2610   -0.5760 C   0  0  0  0  0  0  0  0  0  0  0  0
   -0.0130    9.9270   -0.9770 C   0  0  0  0  0  0  0  0  0  0  0  0
   -0.0260   11.4600   -1.0350 C   0  0  1  0  0  0  0  0  0  0  0  0
   -1.3280   11.9920   -0.3800 C   0  0  0  0  0  0  0  0  0  0  0  0
   -2.5840   11.3740   -0.9880 C   0  0  0  0  0  0  0  0  0  0  0  0
   -2.5600    9.8530   -0.8590 C   0  0  2  0  0  0  0  0  0  0  0  0
   -2.6530    9.5070    0.5270 O   0  0  0  0  0  0  0  0  0  0  0  0
   -1.2890    9.2050   -1.4750 C   0  0  0  0  0  0  0  0  0  0  0  0
   -1.3420    9.3210   -3.0190 C   0  0  0  0  0  0  0  0  0  0  0  0
   -1.3230    7.6870   -1.1530 C   0  0  0  0  0  0  0  0  0  0  0  0
    1.2750   12.1870   -0.4830 C   0  0  1  0  0  0  0  0  0  0  0  0
    1.1530   12.4000    1.0570 C   0  0  0  0  0  0  0  0  0  0  0  0
    1.3740   13.6210   -1.1240 C   0  0  0  0  0  0  0  0  0  0  0  0
    2.1030   13.7290   -2.4770 C   0  0  0  0  0  0  0  0  0  0  0  0
    3.4570   13.0140   -2.4290 C   0  0  2  0  0  0  0  0  0  0  0  0
    4.3450   13.7420   -1.3640 C   0  0  0  0  0  0  0  0  0  0  0  0
    6.9960   13.5563   -4.6414 H   0  0  0  0  0  0  0  0  0  0  0  0
    5.7608   13.0118   -5.8266 H   0  0  0  0  0  0  0  0  0  0  0  0
    6.3136   14.7210   -5.8266 H   0  0  0  0  0  0  0  0  0  0  0  0
    4.2792   14.8781   -4.7200 H   0  0  0  0  0  0  0  0  0  0  0  0
    4.9799   14.6156   -2.0823 H   0  0  0  0  0  0  0  0  0  0  0  0
    6.6007   14.7583   -2.9160 H   0  0  0  0  0  0  0  0  0  0  0  0
    6.3375   16.9315   -3.3179 H   0  0  0  0  0  0  0  0  0  0  0  0
    4.6192   16.7047   -3.8493 H   0  0  0  0  0  0  0  0  0  0  0  0
    5.8812   17.4502   -1.5435 H   0  0  0  0  0  0  0  0  0  0  0  0
    1.4942   17.7802   -2.3364 H   0  0  0  0  0  0  0  0  0  0  0  0
    2.7138   18.6184   -3.3546 H   0  0  0  0  0  0  0  0  0  0  0  0
    2.6239   16.8244   -3.3546 H   0  0  0  0  0  0  0  0  0  0  0  0
    3.3919   18.1414    0.4734 H   0  0  0  0  0  0  0  0  0  0  0  0
    4.0160   19.4675   -0.5653 H   0  0  0  0  0  0  0  0  0  0  0  0
    2.2629   19.0759   -0.5653 H   0  0  0  0  0  0  0  0  0  0  0  0
    3.5643   12.8206   -4.6039 H   0  0  0  0  0  0  0  0  0  0  0  0
    5.2745   11.1236   -4.4164 H   0  0  0  0  0  0  0  0  0  0  0  0
    6.2358   12.1076   -3.2915 H   0  0  0  0  0  0  0  0  0  0  0  0
    4.6166    9.8659   -2.5717 H   0  0  0  0  0  0  0  0  0  0  0  0
    5.2474   11.0398   -1.4195 H   0  0  0  0  0  0  0  0  0  0  0  0
    1.6053   10.1160   -2.7342 H   0  0  0  0  0  0  0  0  0  0  0  0
    1.8400   11.5001   -3.8549 H   0  0  0  0  0  0  0  0  0  0  0  0
    3.0090   10.1362   -3.8549 H   0  0  0  0  0  0  0  0  0  0  0  0
    3.3674   11.7597   -0.0733 H   0  0  0  0  0  0  0  0  0  0  0  0
    3.1916    9.2684   -0.7030 H   0  0  0  0  0  0  0  0  0  0  0  0
    2.4535    9.9114    0.8563 H   0  0  0  0  0  0  0  0  0  0  0  0
    1.0057    8.1675   -0.4866 H   0  0  0  0  0  0  0  0  0  0  0  0
   -0.0100   11.7232   -2.1029 H   0  0  0  0  0  0  0  0  0  0  0  0
   -1.3039   11.7567    0.6943 H   0  0  0  0  0  0  0  0  0  0  0  0
   -1.3710   13.0770   -0.5561 H   0  0  0  0  0  0  0  0  0  0  0  0
   -3.4682   11.7660   -0.4640 H   0  0  0  0  0  0  0  0  0  0  0  0
   -2.6229   11.6356   -2.0557 H   0  0  0  0  0  0  0  0  0  0  0  0
   -3.4172    9.4604   -1.4256 H   0  0  0  0  0  0  0  0  0  0  0  0
   -3.5620    9.2030    0.6930 H   0  0  0  0  0  0  0  0  0  0  0  0
   -1.7841   10.2885   -3.2990 H   0  0  0  0  0  0  0  0  0  0  0  0
   -0.3229    9.2517   -3.4271 H   0  0  0  0  0  0  0  0  0  0  0  0
   -1.9567    8.5052   -3.4271 H   0  0  0  0  0  0  0  0  0  0  0  0
   -1.3262    7.5435   -0.0624 H   0  0  0  0  0  0  0  0  0  0  0  0
   -2.2314    7.2410   -1.5842 H   0  0  0  0  0  0  0  0  0  0  0  0
   -0.4355    7.2007   -1.5842 H   0  0  0  0  0  0  0  0  0  0  0  0
    1.6333   11.5614    1.5823 H   0  0  0  0  0  0  0  0  0  0  0  0
    1.6492   13.3408    1.3375 H   0  0  0  0  0  0  0  0  0  0  0  0
    0.0904   12.4480    1.3375 H   0  0  0  0  0  0  0  0  0  0  0  0
    0.3487   13.9925   -1.2680 H   0  0  0  0  0  0  0  0  0  0  0  0
    1.9832   14.2086   -0.4214 H   0  0  0  0  0  0  0  0  0  0  0  0
    1.4807   13.2690   -3.2588 H   0  0  0  0  0  0  0  0  0  0  0  0
    2.2757   14.7926   -2.6984 H   0  0  0  0  0  0  0  0  0  0  0  0
    4.0075   13.4653   -0.3543 H   0  0  0  0  0  0  0  0  0  0  0  0
    5.3950   13.4414   -1.4949 H   0  0  0  0  0  0  0  0  0  0  0  0
    4.2562   14.8306   -1.4949 H   0  0  0  0  0  0  0  0  0  0  0  0
  1  2  1  0
  2  3  1  0
  3  4  1  0
  4  5  1  0
  5  6  1  0
  6  7  1  0
  7  8  1  0
  7  9  1  0
  2 10  1  0
 10 11  1  0
 11 12  1  0
 12 13  1  0
 13 14  1  6
 13 15  1  0
 15 16  1  0
 16 17  1  0
 17 18  2  0
 18 19  1  0
 19 20  1  0
 20 21  1  0
 21 22  1  0
 22 23  1  0
 22 24  1  0
 24 25  1  0
 24 26  1  0
 19 27  1  0
 27 28  1  1
 27 29  1  0
 29 30  1  0
 30 31  1  0
 31 32  1  1
  7  5  1  0
 31 10  1  0
 31 13  1  0
 27 15  1  0
 24 18  1  0
  1 33  1  0
  1 34  1  0
  1 35  1  0
  2 36  1  6
  3 37  1  0
  3 38  1  0
  4 39  1  0
  4 40  1  0
  5 41  1  1
  8 42  1  0
  8 43  1  0
  8 44  1  0
  9 45  1  0
  9 46  1  0
  9 47  1  0
 10 48  1  6
 11 49  1  0
 11 50  1  0
 12 51  1  0
 12 52  1  0
 14 53  1  0
 14 54  1  0
 14 55  1  0
 15 56  1  1
 16 57  1  0
 16 58  1  0
 17 59  1  0
 19 60  1  6
 20 61  1  0
 20 62  1  0
 21 63  1  0
 21 64  1  0
 22 65  1  6
 23 66  1  0
 25 67  1  0
 25 68  1  0
 25 69  1  0
 26 70  1  0
 26 71  1  0
 26 72  1  0
 28 73  1  0
 28 74  1  0
 28 75  1  0
 29 76  1  0
 29 77  1  0
 30 78  1  0
 30 79  1  0
 32 80  1  0
 32 81  1  0
 32 82  1  0
M  END
>  <meeko>  (18) 
{"is_sidechain": [false], "intermolecular_energy": 2.731, "internal_energy": -0.839}

$$$$
EPH_relaxed_0001_pdb2pqr_Repair_257_r2_0001_out
     RDKit          3D

 82 86  0  0  0  0  0  0  0  0999 V2000
  -13.9720    9.7080    0.9100 C   0  0  0  0  0  0  0  0  0  0  0  0
  -13.2870    9.3220   -0.4040 C   0  0  2  0  0  0  0  0  0  0  0  0
  -14.2000    8.4690   -1.3070 C   0  0  0  0  0  0  0  0  0  0  0  0
  -15.2870    9.2760   -2.0220 C   0  0  0  0  0  0  0  0  0  0  0  0
  -14.7430   10.0040   -3.2130 C   0  0  2  0  0  0  0  0  0  0  0  0
  -13.5650   10.7790   -2.9550 O   0  0  0  0  0  0  0  0  0  0  0  0
  -14.7370   11.5160   -3.3390 C   0  0  0  0  0  0  0  0  0  0  0  0
  -15.2870   12.3910   -2.2560 C   0  0  0  0  0  0  0  0  0  0  0  0
  -14.6490   12.1210   -4.7050 C   0  0  0  0  0  0  0  0  0  0  0  0
  -11.9920    8.5720   -0.1150 C   0  0  1  0  0  0  0  0  0  0  0  0
  -12.1840    7.4240    0.9120 C   0  0  0  0  0  0  0  0  0  0  0  0
  -11.2240    6.2820    0.4910 C   0  0  0  0  0  0  0  0  0  0  0  0
  -10.2820    6.9290   -0.5510 C   0  0  1  0  0  0  0  0  0  0  0  0
   -9.2110    7.6880    0.2930 C   0  0  0  0  0  0  0  0  0  0  0  0
   -9.6210    5.9570   -1.5830 C   0  0  2  0  0  0  0  0  0  0  0  0
   -8.6910    4.8940   -0.9740 C   0  0  0  0  0  0  0  0  0  0  0  0
   -7.2570    5.2930   -0.8560 C   0  0  0  0  0  0  0  0  0  0  0  0
   -6.6830    6.3400   -1.4790 C   0  0  0  0  0  0  0  0  0  0  0  0
   -7.4740    7.1910   -2.4810 C   0  0  1  0  0  0  0  0  0  0  0  0
   -6.6190    7.4180   -3.7550 C   0  0  0  0  0  0  0  0  0  0  0  0
   -5.2470    8.0100   -3.4420 C   0  0  0  0  0  0  0  0  0  0  0  0
   -4.4690    7.1060   -2.4880 C   0  0  2  0  0  0  0  0  0  0  0  0
   -4.1600    5.8820   -3.1620 O   0  0  0  0  0  0  0  0  0  0  0  0
   -5.2360    6.7990   -1.1720 C   0  0  0  0  0  0  0  0  0  0  0  0
   -5.3060    8.0770   -0.3000 C   0  0  0  0  0  0  0  0  0  0  0  0
   -4.4040    5.7670   -0.3640 C   0  0  0  0  0  0  0  0  0  0  0  0
   -8.9420    6.6830   -2.8140 C   0  0  1  0  0  0  0  0  0  0  0  0
   -8.8950    5.6420   -3.9740 C   0  0  0  0  0  0  0  0  0  0  0  0
   -9.7980    7.8960   -3.3400 C   0  0  0  0  0  0  0  0  0  0  0  0
  -10.5240    8.7460   -2.2800 C   0  0  0  0  0  0  0  0  0  0  0  0
  -11.3020    7.8590   -1.3040 C   0  0  2  0  0  0  0  0  0  0  0  0
  -12.4020    7.0990   -2.1220 C   0  0  0  0  0  0  0  0  0  0  0  0
  -13.3607    9.3635    1.7572 H   0  0  0  0  0  0  0  0  0  0  0  0
  -14.0828   10.8013    0.9584 H   0  0  0  0  0  0  0  0  0  0  0  0
  -14.9646    9.2364    0.9584 H   0  0  0  0  0  0  0  0  0  0  0  0
  -13.0641   10.2529   -0.9461 H   0  0  0  0  0  0  0  0  0  0  0  0
  -13.5752    7.9780   -2.0676 H   0  0  0  0  0  0  0  0  0  0  0  0
  -14.7128    7.7468   -0.6547 H   0  0  0  0  0  0  0  0  0  0  0  0
  -16.0796    8.5898   -2.3550 H   0  0  0  0  0  0  0  0  0  0  0  0
  -15.6819   10.0209   -1.3155 H   0  0  0  0  0  0  0  0  0  0  0  0
  -15.0929    9.2088   -3.8877 H   0  0  0  0  0  0  0  0  0  0  0  0
  -15.0224   11.9701   -1.2748 H   0  0  0  0  0  0  0  0  0  0  0  0
  -14.8609   13.4009   -2.3487 H   0  0  0  0  0  0  0  0  0  0  0  0
  -16.3818   12.4450   -2.3487 H   0  0  0  0  0  0  0  0  0  0  0  0
  -14.4912   13.2060   -4.6160 H   0  0  0  0  0  0  0  0  0  0  0  0
  -13.8068   11.6716   -5.2515 H   0  0  0  0  0  0  0  0  0  0  0  0
  -15.5844   11.9301   -5.2515 H   0  0  0  0  0  0  0  0  0  0  0  0
  -11.3686    9.4082    0.2344 H   0  0  0  0  0  0  0  0  0  0  0  0
  -11.9339    7.7753    1.9240 H   0  0  0  0  0  0  0  0  0  0  0  0
  -13.2278    7.0773    0.9262 H   0  0  0  0  0  0  0  0  0  0  0  0
  -10.6526    5.9160    1.3567 H   0  0  0  0  0  0  0  0  0  0  0  0
  -11.7621    5.4131    0.0843 H   0  0  0  0  0  0  0  0  0  0  0  0
   -9.4170    7.5420    1.3636 H   0  0  0  0  0  0  0  0  0  0  0  0
   -8.2112    7.2957    0.0551 H   0  0  0  0  0  0  0  0  0  0  0  0
   -9.2499    8.7613    0.0551 H   0  0  0  0  0  0  0  0  0  0  0  0
  -10.4874    5.4054   -1.9767 H   0  0  0  0  0  0  0  0  0  0  0  0
   -9.0615    4.6556    0.0339 H   0  0  0  0  0  0  0  0  0  0  0  0
   -8.7129    4.0387   -1.6653 H   0  0  0  0  0  0  0  0  0  0  0  0
   -6.6155    4.6803   -0.2056 H   0  0  0  0  0  0  0  0  0  0  0  0
   -7.6626    8.1529   -1.9817 H   0  0  0  0  0  0  0  0  0  0  0  0
   -6.4788    6.4520   -4.2622 H   0  0  0  0  0  0  0  0  0  0  0  0
   -7.1548    8.1364   -4.3928 H   0  0  0  0  0  0  0  0  0  0  0  0
   -4.6796    8.1192   -4.3780 H   0  0  0  0  0  0  0  0  0  0  0  0
   -5.3878    8.9897   -2.9620 H   0  0  0  0  0  0  0  0  0  0  0  0
   -3.5532    7.6423   -2.1987 H   0  0  0  0  0  0  0  0  0  0  0  0
   -3.2360    5.9350   -3.4590 H   0  0  0  0  0  0  0  0  0  0  0  0
   -5.2906    7.7965    0.7635 H   0  0  0  0  0  0  0  0  0  0  0  0
   -4.4417    8.7202   -0.5221 H   0  0  0  0  0  0  0  0  0  0  0  0
   -6.2353    8.6220   -0.5221 H   0  0  0  0  0  0  0  0  0  0  0  0
   -4.5463    5.9435    0.7124 H   0  0  0  0  0  0  0  0  0  0  0  0
   -4.7373    4.7494   -0.6159 H   0  0  0  0  0  0  0  0  0  0  0  0
   -3.3389    5.8769   -0.6159 H   0  0  0  0  0  0  0  0  0  0  0  0
   -8.8492    4.6265   -3.5537 H   0  0  0  0  0  0  0  0  0  0  0  0
   -9.7986    5.7421   -4.5933 H   0  0  0  0  0  0  0  0  0  0  0  0
   -8.0041    5.8231   -4.5933 H   0  0  0  0  0  0  0  0  0  0  0  0
   -9.1230    8.5632   -3.8961 H   0  0  0  0  0  0  0  0  0  0  0  0
  -10.5987    7.4429   -3.9430 H   0  0  0  0  0  0  0  0  0  0  0  0
   -9.7815    9.3328   -1.7192 H   0  0  0  0  0  0  0  0  0  0  0  0
  -11.2348    9.4117   -2.7914 H   0  0  0  0  0  0  0  0  0  0  0  0
  -13.1046    6.6136   -1.4287 H   0  0  0  0  0  0  0  0  0  0  0  0
  -12.9472    7.8140   -2.7557 H   0  0  0  0  0  0  0  0  0  0  0  0
  -11.9261    6.3361   -2.7557 H   0  0  0  0  0  0  0  0  0  0  0  0
  1  2  1  0
  2  3  1  0
  3  4  1  0
  4  5  1  0
  5  6  1  0
  6  7  1  0
  7  8  1  0
  7  9  1  0
  2 10  1  0
 10 11  1  0
 11 12  1  0
 12 13  1  0
 13 14  1  1
 13 15  1  0
 15 16  1  0
 16 17  1  0
 17 18  2  0
 18 19  1  0
 19 20  1  0
 20 21  1  0
 21 22  1  0
 22 23  1  0
 22 24  1  0
 24 25  1  0
 24 26  1  0
 19 27  1  0
 27 28  1  6
 27 29  1  0
 29 30  1  0
 30 31  1  0
 31 32  1  6
  7  5  1  0
 31 10  1  0
 31 13  1  0
 27 15  1  0
 24 18  1  0
  1 33  1  0
  1 34  1  0
  1 35  1  0
  2 36  1  6
  3 37  1  0
  3 38  1  0
  4 39  1  0
  4 40  1  0
  5 41  1  6
  8 42  1  0
  8 43  1  0
  8 44  1  0
  9 45  1  0
  9 46  1  0
  9 47  1  0
 10 48  1  1
 11 49  1  0
 11 50  1  0
 12 51  1  0
 12 52  1  0
 14 53  1  0
 14 54  1  0
 14 55  1  0
 15 56  1  6
 16 57  1  0
 16 58  1  0
 17 59  1  0
 19 60  1  1
 20 61  1  0
 20 62  1  0
 21 63  1  0
 21 64  1  0
 22 65  1  1
 23 66  1  0
 25 67  1  0
 25 68  1  0
 25 69  1  0
 26 70  1  0
 26 71  1  0
 26 72  1  0
 28 73  1  0
 28 74  1  0
 28 75  1  0
 29 76  1  0
 29 77  1  0
 30 78  1  0
 30 79  1  0
 32 80  1  0
 32 81  1  0
 32 82  1  0
M  END
>  <meeko>  (19) 
{"is_sidechain": [false], "intermolecular_energy": 2.731, "internal_energy": -0.839}

$$$$
