EPH_relaxed_0001_pdb2pqr_Repair_176_r2_0001_out
     RDKit          3D

 82 86  0  0  0  0  0  0  0  0999 V2000
   -5.1630    5.8350   -1.7210 C   0  0  0  0  0  0  0  0  0  0  0  0
   -5.4560    7.3370   -1.7840 C   0  0  2  0  0  0  0  0  0  0  0  0
   -5.2280    8.0310   -0.4270 C   0  0  0  0  0  0  0  0  0  0  0  0
   -4.1850    9.1510   -0.4760 C   0  0  0  0  0  0  0  0  0  0  0  0
   -2.8200    8.6240   -0.8030 C   0  0  2  0  0  0  0  0  0  0  0  0
   -1.8080    8.9430    0.1600 O   0  0  0  0  0  0  0  0  0  0  0  0
   -1.6400    9.5130   -1.1480 C   0  0  0  0  0  0  0  0  0  0  0  0
   -1.7710   11.0040   -1.1830 C   0  0  0  0  0  0  0  0  0  0  0  0
   -0.5020    8.9250   -1.9210 C   0  0  0  0  0  0  0  0  0  0  0  0
   -6.8880    7.5680   -2.2530 C   0  0  1  0  0  0  0  0  0  0  0  0
   -7.1930    6.8710   -3.6060 C   0  0  0  0  0  0  0  0  0  0  0  0
   -8.6700    6.4040   -3.5450 C   0  0  0  0  0  0  0  0  0  0  0  0
   -9.2580    7.1290   -2.3120 C   0  0  1  0  0  0  0  0  0  0  0  0
   -9.6020    8.5650   -2.8180 C   0  0  0  0  0  0  0  0  0  0  0  0
  -10.4890    6.4460   -1.6310 C   0  0  2  0  0  0  0  0  0  0  0  0
  -11.7410    6.3240   -2.5180 C   0  0  0  0  0  0  0  0  0  0  0  0
  -12.6910    7.4730   -2.4410 C   0  0  0  0  0  0  0  0  0  0  0  0
  -12.6940    8.4240   -1.4880 C   0  0  0  0  0  0  0  0  0  0  0  0
  -11.7340    8.3450   -0.2940 C   0  0  1  0  0  0  0  0  0  0  0  0
  -12.5130    8.6290    1.0170 C   0  0  0  0  0  0  0  0  0  0  0  0
  -13.2780    9.9480    0.9690 C   0  0  0  0  0  0  0  0  0  0  0  0
  -14.2640    9.9650   -0.1960 C   0  0  2  0  0  0  0  0  0  0  0  0
  -15.2860    8.9940    0.0500 O   0  0  0  0  0  0  0  0  0  0  0  0
  -13.5940    9.6810   -1.5700 C   0  0  0  0  0  0  0  0  0  0  0  0
  -12.7100   10.8860   -1.9770 C   0  0  0  0  0  0  0  0  0  0  0  0
  -14.7170    9.5870   -2.6380 C   0  0  0  0  0  0  0  0  0  0  0  0
  -10.8460    7.0300   -0.2040 C   0  0  1  0  0  0  0  0  0  0  0  0
  -11.6280    5.9110    0.5510 C   0  0  0  0  0  0  0  0  0  0  0  0
   -9.5630    7.3330    0.6560 C   0  0  0  0  0  0  0  0  0  0  0  0
   -8.3400    7.8940   -0.0940 C   0  0  0  0  0  0  0  0  0  0  0  0
   -8.0270    7.0550   -1.3370 C   0  0  2  0  0  0  0  0  0  0  0  0
   -7.6560    5.6110   -0.8580 C   0  0  0  0  0  0  0  0  0  0  0  0
   -5.1010    5.5173   -0.6697 H   0  0  0  0  0  0  0  0  0  0  0  0
   -5.9703    5.2825   -2.2240 H   0  0  0  0  0  0  0  0  0  0  0  0
   -4.2072    5.6264   -2.2240 H   0  0  0  0  0  0  0  0  0  0  0  0
   -4.7526    7.7810   -2.5037 H   0  0  0  0  0  0  0  0  0  0  0  0
   -6.1835    8.4607   -0.0918 H   0  0  0  0  0  0  0  0  0  0  0  0
   -4.8460    7.2661    0.2651 H   0  0  0  0  0  0  0  0  0  0  0  0
   -4.4798    9.8792   -1.2460 H   0  0  0  0  0  0  0  0  0  0  0  0
   -4.1416    9.6227    0.5168 H   0  0  0  0  0  0  0  0  0  0  0  0
   -3.2539    7.7463   -1.3044 H   0  0  0  0  0  0  0  0  0  0  0  0
   -1.8052   11.3933   -0.1548 H   0  0  0  0  0  0  0  0  0  0  0  0
   -0.9073   11.4357   -1.7100 H   0  0  0  0  0  0  0  0  0  0  0  0
   -2.6967   11.2785   -1.7100 H   0  0  0  0  0  0  0  0  0  0  0  0
    0.2529    8.5349   -1.2225 H   0  0  0  0  0  0  0  0  0  0  0  0
   -0.8734    8.1060   -2.5544 H   0  0  0  0  0  0  0  0  0  0  0  0
   -0.0488    9.7018   -2.5544 H   0  0  0  0  0  0  0  0  0  0  0  0
   -6.8969    8.6675   -2.2853 H   0  0  0  0  0  0  0  0  0  0  0  0
   -7.0533    7.5785   -4.4366 H   0  0  0  0  0  0  0  0  0  0  0  0
   -6.5162    6.0202   -3.7737 H   0  0  0  0  0  0  0  0  0  0  0  0
   -9.2074    6.6952   -4.4595 H   0  0  0  0  0  0  0  0  0  0  0  0
   -8.7588    5.3103   -3.4674 H   0  0  0  0  0  0  0  0  0  0  0  0
   -9.7611    9.2293   -1.9558 H   0  0  0  0  0  0  0  0  0  0  0  0
   -8.7702    8.9481   -3.4274 H   0  0  0  0  0  0  0  0  0  0  0  0
  -10.5171    8.5296   -3.4274 H   0  0  0  0  0  0  0  0  0  0  0  0
  -10.1324    5.4172   -1.4751 H   0  0  0  0  0  0  0  0  0  0  0  0
  -11.4096    6.2263   -3.5623 H   0  0  0  0  0  0  0  0  0  0  0  0
  -12.2926    5.4475   -2.1472 H   0  0  0  0  0  0  0  0  0  0  0  0
  -13.4535    7.5491   -3.2301 H   0  0  0  0  0  0  0  0  0  0  0  0
  -10.9806    9.1296   -0.4574 H   0  0  0  0  0  0  0  0  0  0  0  0
  -13.2297    7.8117    1.1854 H   0  0  0  0  0  0  0  0  0  0  0  0
  -11.7788    8.6984    1.8332 H   0  0  0  0  0  0  0  0  0  0  0  0
  -13.8314   10.0776    1.9108 H   0  0  0  0  0  0  0  0  0  0  0  0
  -12.5569   10.7671    0.8305 H   0  0  0  0  0  0  0  0  0  0  0  0
  -14.6857   10.9792   -0.2558 H   0  0  0  0  0  0  0  0  0  0  0  0
  -15.4860    9.0140    1.0010 H   0  0  0  0  0  0  0  0  0  0  0  0
  -12.3395   11.3910   -1.0727 H   0  0  0  0  0  0  0  0  0  0  0  0
  -11.8572   10.5301   -2.5737 H   0  0  0  0  0  0  0  0  0  0  0  0
  -13.3055   11.5927   -2.5737 H   0  0  0  0  0  0  0  0  0  0  0  0
  -15.6931    9.5053   -2.1375 H   0  0  0  0  0  0  0  0  0  0  0  0
  -14.7017   10.4896   -3.2666 H   0  0  0  0  0  0  0  0  0  0  0  0
  -14.5518    8.6995   -3.2666 H   0  0  0  0  0  0  0  0  0  0  0  0
  -11.5243    6.0594    1.6360 H   0  0  0  0  0  0  0  0  0  0  0  0
  -12.6917    5.9568    0.2747 H   0  0  0  0  0  0  0  0  0  0  0  0
  -11.2194    4.9278    0.2747 H   0  0  0  0  0  0  0  0  0  0  0  0
   -9.8447    8.0649    1.4273 H   0  0  0  0  0  0  0  0  0  0  0  0
   -9.2393    6.3558    1.0437 H   0  0  0  0  0  0  0  0  0  0  0  0
   -8.5503    8.9289   -0.4019 H   0  0  0  0  0  0  0  0  0  0  0  0
   -7.4706    7.8618    0.5791 H   0  0  0  0  0  0  0  0  0  0  0  0
   -7.6481    5.5801    0.2415 H   0  0  0  0  0  0  0  0  0  0  0  0
   -8.3996    4.8958   -1.2395 H   0  0  0  0  0  0  0  0  0  0  0  0
   -6.6598    5.3428   -1.2395 H   0  0  0  0  0  0  0  0  0  0  0  0
  1  2  1  0
  2  3  1  0
  3  4  1  0
  4  5  1  0
  5  6  1  0
  6  7  1  0
  7  8  1  0
  7  9  1  0
  2 10  1  0
 10 11  1  0
 11 12  1  0
 12 13  1  0
 13 14  1  6
 13 15  1  0
 15 16  1  0
 16 17  1  0
 17 18  2  0
 18 19  1  0
 19 20  1  0
 20 21  1  0
 21 22  1  0
 22 23  1  0
 22 24  1  0
 24 25  1  0
 24 26  1  0
 19 27  1  0
 27 28  1  1
 27 29  1  0
 29 30  1  0
 30 31  1  0
 31 32  1  1
  7  5  1  0
 31 10  1  0
 31 13  1  0
 27 15  1  0
 24 18  1  0
  1 33  1  0
  1 34  1  0
  1 35  1  0
  2 36  1  6
  3 37  1  0
  3 38  1  0
  4 39  1  0
  4 40  1  0
  5 41  1  6
  8 42  1  0
  8 43  1  0
  8 44  1  0
  9 45  1  0
  9 46  1  0
  9 47  1  0
 10 48  1  6
 11 49  1  0
 11 50  1  0
 12 51  1  0
 12 52  1  0
 14 53  1  0
 14 54  1  0
 14 55  1  0
 15 56  1  1
 16 57  1  0
 16 58  1  0
 17 59  1  0
 19 60  1  6
 20 61  1  0
 20 62  1  0
 21 63  1  0
 21 64  1  0
 22 65  1  6
 23 66  1  0
 25 67  1  0
 25 68  1  0
 25 69  1  0
 26 70  1  0
 26 71  1  0
 26 72  1  0
 28 73  1  0
 28 74  1  0
 28 75  1  0
 29 76  1  0
 29 77  1  0
 30 78  1  0
 30 79  1  0
 32 80  1  0
 32 81  1  0
 32 82  1  0
M  END
>  <meeko>  (1) 
{"is_sidechain": [false], "intermolecular_energy": 2.731, "internal_energy": -0.839}

$$$$
EPH_relaxed_0001_pdb2pqr_Repair_176_r2_0001_out
     RDKit          3D

 82 86  0  0  0  0  0  0  0  0999 V2000
   -5.0330    8.4930   -0.4890 C   0  0  0  0  0  0  0  0  0  0  0  0
   -5.3610    7.4290   -1.5410 C   0  0  2  0  0  0  0  0  0  0  0  0
   -4.3570    7.4410   -2.7110 C   0  0  0  0  0  0  0  0  0  0  0  0
   -2.9270    7.0800   -2.2990 C   0  0  0  0  0  0  0  0  0  0  0  0
   -1.9460    8.1310   -2.7240 C   0  0  2  0  0  0  0  0  0  0  0  0
   -0.5990    7.9020   -2.2920 O   0  0  0  0  0  0  0  0  0  0  0  0
   -1.2480    9.0650   -1.7540 C   0  0  0  0  0  0  0  0  0  0  0  0
   -1.5030    8.9930   -0.2810 C   0  0  0  0  0  0  0  0  0  0  0  0
   -0.6990   10.3570   -2.2730 C   0  0  0  0  0  0  0  0  0  0  0  0
   -6.7760    7.6370   -2.0660 C   0  0  1  0  0  0  0  0  0  0  0  0
   -7.0130    6.9440   -3.4350 C   0  0  0  0  0  0  0  0  0  0  0  0
   -8.4820    6.4490   -3.4370 C   0  0  0  0  0  0  0  0  0  0  0  0
   -9.1340    7.1550   -2.2250 C   0  0  1  0  0  0  0  0  0  0  0  0
   -9.4830    8.5880   -2.7360 C   0  0  0  0  0  0  0  0  0  0  0  0
  -10.3780    6.4450   -1.6000 C   0  0  2  0  0  0  0  0  0  0  0  0
  -11.5900    6.3060   -2.5370 C   0  0  0  0  0  0  0  0  0  0  0  0
  -12.5640    7.4370   -2.4930 C   0  0  0  0  0  0  0  0  0  0  0  0
  -12.6240    8.3800   -1.5350 C   0  0  0  0  0  0  0  0  0  0  0  0
  -11.7120    8.3110   -0.3030 C   0  0  1  0  0  0  0  0  0  0  0  0
  -12.5490    8.5720    0.9760 C   0  0  0  0  0  0  0  0  0  0  0  0
  -13.3360    9.8770    0.9050 C   0  0  0  0  0  0  0  0  0  0  0  0
  -14.2740    9.8840   -0.2990 C   0  0  2  0  0  0  0  0  0  0  0  0
  -15.2860    8.8930   -0.1010 O   0  0  0  0  0  0  0  0  0  0  0  0
  -13.5430    9.6220   -1.6460 C   0  0  0  0  0  0  0  0  0  0  0  0
  -12.6660   10.8450   -2.0090 C   0  0  0  0  0  0  0  0  0  0  0  0
  -14.6190    9.5140   -2.7600 C   0  0  0  0  0  0  0  0  0  0  0  0
  -10.8040    7.0120   -0.1850 C   0  0  1  0  0  0  0  0  0  0  0  0
  -11.5950    5.8740    0.5310 C   0  0  0  0  0  0  0  0  0  0  0  0
   -9.5630    7.3330    0.7290 C   0  0  0  0  0  0  0  0  0  0  0  0
   -8.3210    7.9220    0.0330 C   0  0  0  0  0  0  0  0  0  0  0  0
   -7.9430    7.0970   -1.2010 C   0  0  2  0  0  0  0  0  0  0  0  0
   -7.5640    5.6560   -0.7160 C   0  0  0  0  0  0  0  0  0  0  0  0
   -5.1643    8.0670    0.5166 H   0  0  0  0  0  0  0  0  0  0  0  0
   -3.9913    8.8234   -0.6141 H   0  0  0  0  0  0  0  0  0  0  0  0
   -5.7079    9.3526   -0.6141 H   0  0  0  0  0  0  0  0  0  0  0  0
   -5.2867    6.4461   -1.0528 H   0  0  0  0  0  0  0  0  0  0  0  0
   -4.6946    6.7154   -3.4657 H   0  0  0  0  0  0  0  0  0  0  0  0
   -4.3294    8.4695   -3.1002 H   0  0  0  0  0  0  0  0  0  0  0  0
   -2.8866    6.9762   -1.2046 H   0  0  0  0  0  0  0  0  0  0  0  0
   -2.6550    6.1363   -2.7945 H   0  0  0  0  0  0  0  0  0  0  0  0
   -2.5100    8.3163   -3.6500 H   0  0  0  0  0  0  0  0  0  0  0  0
   -0.5832    9.2527    0.2635 H   0  0  0  0  0  0  0  0  0  0  0  0
   -2.3007    9.7010   -0.0119 H   0  0  0  0  0  0  0  0  0  0  0  0
   -1.8126    7.9723   -0.0119 H   0  0  0  0  0  0  0  0  0  0  0  0
   -0.4239   11.0045   -1.4274 H   0  0  0  0  0  0  0  0  0  0  0  0
    0.1918   10.1568   -2.8865 H   0  0  0  0  0  0  0  0  0  0  0  0
   -1.4614   10.8593   -2.8865 H   0  0  0  0  0  0  0  0  0  0  0  0
   -6.8033    8.7364   -2.0908 H   0  0  0  0  0  0  0  0  0  0  0  0
   -6.8534    7.6600   -4.2547 H   0  0  0  0  0  0  0  0  0  0  0  0
   -6.3140    6.1072   -3.5805 H   0  0  0  0  0  0  0  0  0  0  0  0
   -8.9870    6.7358   -4.3712 H   0  0  0  0  0  0  0  0  0  0  0  0
   -8.5528    5.3534   -3.3689 H   0  0  0  0  0  0  0  0  0  0  0  0
   -9.6453    9.2545   -1.8761 H   0  0  0  0  0  0  0  0  0  0  0  0
   -8.6522    8.9722   -3.3460 H   0  0  0  0  0  0  0  0  0  0  0  0
  -10.3975    8.5472   -3.3460 H   0  0  0  0  0  0  0  0  0  0  0  0
  -10.0082    5.4219   -1.4370 H   0  0  0  0  0  0  0  0  0  0  0  0
  -11.2148    6.2206   -3.5675 H   0  0  0  0  0  0  0  0  0  0  0  0
  -12.1399    5.4176   -2.1930 H   0  0  0  0  0  0  0  0  0  0  0  0
  -13.2941    7.5050   -3.3130 H   0  0  0  0  0  0  0  0  0  0  0  0
  -10.9672    9.1104   -0.4302 H   0  0  0  0  0  0  0  0  0  0  0  0
  -13.2566    7.7405    1.1099 H   0  0  0  0  0  0  0  0  0  0  0  0
  -11.8501    8.6496    1.8219 H   0  0  0  0  0  0  0  0  0  0  0  0
  -13.9295    9.9899    1.8243 H   0  0  0  0  0  0  0  0  0  0  0  0
  -12.6253   10.7101    0.8010 H   0  0  0  0  0  0  0  0  0  0  0  0
  -14.7123   10.8904   -0.3698 H   0  0  0  0  0  0  0  0  0  0  0  0
  -15.3100    8.3330   -0.8950 H   0  0  0  0  0  0  0  0  0  0  0  0
  -12.3166   11.3323   -1.0868 H   0  0  0  0  0  0  0  0  0  0  0  0
  -11.7993   10.5125   -2.5991 H   0  0  0  0  0  0  0  0  0  0  0  0
  -13.2590   11.5592   -2.5991 H   0  0  0  0  0  0  0  0  0  0  0  0
  -15.6135    9.4142   -2.3007 H   0  0  0  0  0  0  0  0  0  0  0  0
  -14.5926   10.4193   -3.3843 H   0  0  0  0  0  0  0  0  0  0  0  0
  -14.4132    8.6320   -3.3843 H   0  0  0  0  0  0  0  0  0  0  0  0
  -11.5092    5.9974    1.6207 H   0  0  0  0  0  0  0  0  0  0  0  0
  -12.6543    5.9237    0.2386 H   0  0  0  0  0  0  0  0  0  0  0  0
  -11.1793    4.8985    0.2386 H   0  0  0  0  0  0  0  0  0  0  0  0
   -9.8899    8.0542    1.4926 H   0  0  0  0  0  0  0  0  0  0  0  0
   -9.2369    6.3594    1.1237 H   0  0  0  0  0  0  0  0  0  0  0  0
   -8.5378    8.9549   -0.2770 H   0  0  0  0  0  0  0  0  0  0  0  0
   -7.4790    7.9018    0.7406 H   0  0  0  0  0  0  0  0  0  0  0  0
   -7.5570    5.6293    0.3837 H   0  0  0  0  0  0  0  0  0  0  0  0
   -8.3031    4.9351   -1.0956 H   0  0  0  0  0  0  0  0  0  0  0  0
   -6.5659    5.3920   -1.0956 H   0  0  0  0  0  0  0  0  0  0  0  0
  1  2  1  0
  2  3  1  0
  3  4  1  0
  4  5  1  0
  5  6  1  0
  6  7  1  0
  7  8  1  0
  7  9  1  0
  2 10  1  0
 10 11  1  0
 11 12  1  0
 12 13  1  0
 13 14  1  6
 13 15  1  0
 15 16  1  0
 16 17  1  0
 17 18  2  0
 18 19  1  0
 19 20  1  0
 20 21  1  0
 21 22  1  0
 22 23  1  0
 22 24  1  0
 24 25  1  0
 24 26  1  0
 19 27  1  0
 27 28  1  1
 27 29  1  0
 29 30  1  0
 30 31  1  0
 31 32  1  1
  7  5  1  0
 31 10  1  0
 31 13  1  0
 27 15  1  0
 24 18  1  0
  1 33  1  0
  1 34  1  0
  1 35  1  0
  2 36  1  1
  3 37  1  0
  3 38  1  0
  4 39  1  0
  4 40  1  0
  5 41  1  6
  8 42  1  0
  8 43  1  0
  8 44  1  0
  9 45  1  0
  9 46  1  0
  9 47  1  0
 10 48  1  6
 11 49  1  0
 11 50  1  0
 12 51  1  0
 12 52  1  0
 14 53  1  0
 14 54  1  0
 14 55  1  0
 15 56  1  1
 16 57  1  0
 16 58  1  0
 17 59  1  0
 19 60  1  6
 20 61  1  0
 20 62  1  0
 21 63  1  0
 21 64  1  0
 22 65  1  6
 23 66  1  0
 25 67  1  0
 25 68  1  0
 25 69  1  0
 26 70  1  0
 26 71  1  0
 26 72  1  0
 28 73  1  0
 28 74  1  0
 28 75  1  0
 29 76  1  0
 29 77  1  0
 30 78  1  0
 30 79  1  0
 32 80  1  0
 32 81  1  0
 32 82  1  0
M  END
>  <meeko>  (2) 
{"is_sidechain": [false], "intermolecular_energy": 2.731, "internal_energy": -0.839}

$$$$
EPH_relaxed_0001_pdb2pqr_Repair_176_r2_0001_out
     RDKit          3D

 82 86  0  0  0  0  0  0  0  0999 V2000
   -0.7940    8.8300   -0.8440 C   0  0  0  0  0  0  0  0  0  0  0  0
   -1.7170    9.7510   -0.0420 C   0  0  2  0  0  0  0  0  0  0  0  0
   -3.0270   10.0600   -0.7940 C   0  0  0  0  0  0  0  0  0  0  0  0
   -4.2540    9.3580   -0.2080 C   0  0  0  0  0  0  0  0  0  0  0  0
   -4.3500    7.9340   -0.6670 C   0  0  2  0  0  0  0  0  0  0  0  0
   -4.4210    7.7670   -2.0890 O   0  0  0  0  0  0  0  0  0  0  0  0
   -5.5780    7.3540   -1.3430 C   0  0  0  0  0  0  0  0  0  0  0  0
   -6.7950    8.1870   -1.5980 C   0  0  0  0  0  0  0  0  0  0  0  0
   -5.7780    5.8710   -1.3130 C   0  0  0  0  0  0  0  0  0  0  0  0
   -0.9910   11.0480    0.2950 C   0  0  1  0  0  0  0  0  0  0  0  0
    0.1620   10.8410    1.3130 C   0  0  0  0  0  0  0  0  0  0  0  0
    1.2850   11.8380    0.9260 C   0  0  0  0  0  0  0  0  0  0  0  0
    0.6170   12.8050   -0.0790 C   0  0  1  0  0  0  0  0  0  0  0  0
   -0.1610   13.8290    0.8050 C   0  0  0  0  0  0  0  0  0  0  0  0
    1.5740   13.5230   -1.0870 C   0  0  2  0  0  0  0  0  0  0  0  0
    2.6200   14.4510   -0.4450 C   0  0  0  0  0  0  0  0  0  0  0  0
    2.1930   15.8710   -0.2730 C   0  0  0  0  0  0  0  0  0  0  0  0
    1.1350   16.4470   -0.8730 C   0  0  0  0  0  0  0  0  0  0  0  0
    0.2980   15.6780   -1.9030 C   0  0  1  0  0  0  0  0  0  0  0  0
    0.0510   16.5750   -3.1440 C   0  0  0  0  0  0  0  0  0  0  0  0
   -0.5660   17.9220   -2.7800 C   0  0  0  0  0  0  0  0  0  0  0  0
    0.3230   18.6820   -1.7990 C   0  0  2  0  0  0  0  0  0  0  0  0
    1.5400   19.0390   -2.4620 O   0  0  0  0  0  0  0  0  0  0  0  0
    0.6480   17.8730   -0.5120 C   0  0  0  0  0  0  0  0  0  0  0  0
   -0.6270   17.7450    0.3580 C   0  0  0  0  0  0  0  0  0  0  0  0
    1.6650   18.6950    0.3250 C   0  0  0  0  0  0  0  0  0  0  0  0
    0.8330   14.2330   -2.2910 C   0  0  1  0  0  0  0  0  0  0  0  0
    1.8710   14.3430   -3.4500 C   0  0  0  0  0  0  0  0  0  0  0  0
   -0.3630   13.3730   -2.8470 C   0  0  0  0  0  0  0  0  0  0  0  0
   -1.1980   12.5930   -1.8140 C   0  0  0  0  0  0  0  0  0  0  0  0
   -0.2940   11.7960   -0.8690 C   0  0  2  0  0  0  0  0  0  0  0  0
    0.4860   10.7430   -1.7270 C   0  0  0  0  0  0  0  0  0  0  0  0
   -0.1883    8.2256   -0.1527 H   0  0  0  0  0  0  0  0  0  0  0  0
   -1.3996    8.1655   -1.4778 H   0  0  0  0  0  0  0  0  0  0  0  0
   -0.1308    9.4371   -1.4778 H   0  0  0  0  0  0  0  0  0  0  0  0
   -1.9863    9.2236    0.8850 H   0  0  0  0  0  0  0  0  0  0  0  0
   -3.1990   11.1459   -0.7598 H   0  0  0  0  0  0  0  0  0  0  0  0
   -2.9034    9.6864   -1.8212 H   0  0  0  0  0  0  0  0  0  0  0  0
   -4.1840    9.3748    0.8896 H   0  0  0  0  0  0  0  0  0  0  0  0
   -5.1519    9.8911   -0.5539 H   0  0  0  0  0  0  0  0  0  0  0  0
   -3.7488    7.5929    0.1887 H   0  0  0  0  0  0  0  0  0  0  0  0
   -7.2390    8.4909   -0.6385 H   0  0  0  0  0  0  0  0  0  0  0  0
   -6.5129    9.0823   -2.1714 H   0  0  0  0  0  0  0  0  0  0  0  0
   -7.5275    7.6000   -2.1714 H   0  0  0  0  0  0  0  0  0  0  0  0
   -5.8242    5.5283   -0.2688 H   0  0  0  0  0  0  0  0  0  0  0  0
   -6.7185    5.6174   -1.8241 H   0  0  0  0  0  0  0  0  0  0  0  0
   -4.9383    5.3774   -1.8241 H   0  0  0  0  0  0  0  0  0  0  0  0
   -1.8384   11.6412    0.6693 H   0  0  0  0  0  0  0  0  0  0  0  0
   -0.1924   11.0472    2.3337 H   0  0  0  0  0  0  0  0  0  0  0  0
    0.5288    9.8042    1.2888 H   0  0  0  0  0  0  0  0  0  0  0  0
    1.6422   12.3839    1.8117 H   0  0  0  0  0  0  0  0  0  0  0  0
    2.1633   11.3323    0.4983 H   0  0  0  0  0  0  0  0  0  0  0  0
    0.0116   13.6018    1.8674 H   0  0  0  0  0  0  0  0  0  0  0  0
    0.1936   14.8468    0.5854 H   0  0  0  0  0  0  0  0  0  0  0  0
   -1.2367   13.7601    0.5854 H   0  0  0  0  0  0  0  0  0  0  0  0
    2.1414   12.6824   -1.5130 H   0  0  0  0  0  0  0  0  0  0  0  0
    2.8679   14.0480    0.5480 H   0  0  0  0  0  0  0  0  0  0  0  0
    3.4741   14.4720   -1.1379 H   0  0  0  0  0  0  0  0  0  0  0  0
    2.7937   16.4995    0.4009 H   0  0  0  0  0  0  0  0  0  0  0  0
   -0.6590   15.4527   -1.4096 H   0  0  0  0  0  0  0  0  0  0  0  0
    1.0127   16.7524   -3.6476 H   0  0  0  0  0  0  0  0  0  0  0  0
   -0.6589   16.0493   -3.7995 H   0  0  0  0  0  0  0  0  0  0  0  0
   -0.6874   18.5212   -3.6944 H   0  0  0  0  0  0  0  0  0  0  0  0
   -1.5418   17.7442   -2.3043 H   0  0  0  0  0  0  0  0  0  0  0  0
   -0.2314   19.5755   -1.4759 H   0  0  0  0  0  0  0  0  0  0  0  0
    2.0490   18.2230   -2.6030 H   0  0  0  0  0  0  0  0  0  0  0  0
   -0.3492   17.7729    1.4220 H   0  0  0  0  0  0  0  0  0  0  0  0
   -1.3084   18.5793    0.1350 H   0  0  0  0  0  0  0  0  0  0  0  0
   -1.1289   16.7920    0.1350 H   0  0  0  0  0  0  0  0  0  0  0  0
    1.4704   18.5377    1.3961 H   0  0  0  0  0  0  0  0  0  0  0  0
    2.6872   18.3663    0.0859 H   0  0  0  0  0  0  0  0  0  0  0  0
    1.5580   19.7634    0.0859 H   0  0  0  0  0  0  0  0  0  0  0  0
    2.8813   14.4501   -3.0284 H   0  0  0  0  0  0  0  0  0  0  0  0
    1.8265   13.4351   -4.0695 H   0  0  0  0  0  0  0  0  0  0  0  0
    1.6372   15.2214   -4.0695 H   0  0  0  0  0  0  0  0  0  0  0  0
   -1.0436   14.0543   -3.3786 H   0  0  0  0  0  0  0  0  0  0  0  0
    0.1054   12.6033   -3.4780 H   0  0  0  0  0  0  0  0  0  0  0  0
   -1.7972   13.3032   -1.2253 H   0  0  0  0  0  0  0  0  0  0  0  0
   -1.8522   11.8898   -2.3502 H   0  0  0  0  0  0  0  0  0  0  0  0
    1.0067   10.0400   -1.0602 H   0  0  0  0  0  0  0  0  0  0  0  0
   -0.2222   10.1901   -2.3617 H   0  0  0  0  0  0  0  0  0  0  0  0
    1.2212   11.2593   -2.3617 H   0  0  0  0  0  0  0  0  0  0  0  0
  1  2  1  0
  2  3  1  0
  3  4  1  0
  4  5  1  0
  5  6  1  0
  6  7  1  0
  7  8  1  0
  7  9  1  0
  2 10  1  0
 10 11  1  0
 11 12  1  0
 12 13  1  0
 13 14  1  1
 13 15  1  0
 15 16  1  0
 16 17  1  0
 17 18  2  0
 18 19  1  0
 19 20  1  0
 20 21  1  0
 21 22  1  0
 22 23  1  0
 22 24  1  0
 24 25  1  0
 24 26  1  0
 19 27  1  0
 27 28  1  6
 27 29  1  0
 29 30  1  0
 30 31  1  0
 31 32  1  6
  7  5  1  0
 31 10  1  0
 31 13  1  0
 27 15  1  0
 24 18  1  0
  1 33  1  0
  1 34  1  0
  1 35  1  0
  2 36  1  1
  3 37  1  0
  3 38  1  0
  4 39  1  0
  4 40  1  0
  5 41  1  1
  8 42  1  0
  8 43  1  0
  8 44  1  0
  9 45  1  0
  9 46  1  0
  9 47  1  0
 10 48  1  1
 11 49  1  0
 11 50  1  0
 12 51  1  0
 12 52  1  0
 14 53  1  0
 14 54  1  0
 14 55  1  0
 15 56  1  6
 16 57  1  0
 16 58  1  0
 17 59  1  0
 19 60  1  1
 20 61  1  0
 20 62  1  0
 21 63  1  0
 21 64  1  0
 22 65  1  1
 23 66  1  0
 25 67  1  0
 25 68  1  0
 25 69  1  0
 26 70  1  0
 26 71  1  0
 26 72  1  0
 28 73  1  0
 28 74  1  0
 28 75  1  0
 29 76  1  0
 29 77  1  0
 30 78  1  0
 30 79  1  0
 32 80  1  0
 32 81  1  0
 32 82  1  0
M  END
>  <meeko>  (3) 
{"is_sidechain": [false], "intermolecular_energy": 2.731, "internal_energy": -0.839}

$$$$
EPH_relaxed_0001_pdb2pqr_Repair_176_r2_0001_out
     RDKit          3D

 82 86  0  0  0  0  0  0  0  0999 V2000
  -14.3210    5.5070    0.4630 C   0  0  0  0  0  0  0  0  0  0  0  0
  -13.7910    6.9340    0.2980 C   0  0  2  0  0  0  0  0  0  0  0  0
  -14.9160    7.9360   -0.0320 C   0  0  0  0  0  0  0  0  0  0  0  0
  -14.5140    9.4000    0.1680 C   0  0  0  0  0  0  0  0  0  0  0  0
  -15.2470   10.3100   -0.7710 C   0  0  2  0  0  0  0  0  0  0  0  0
  -15.1560    9.9420   -2.1540 O   0  0  0  0  0  0  0  0  0  0  0  0
  -14.5550   11.1960   -1.7900 C   0  0  0  0  0  0  0  0  0  0  0  0
  -13.0640   11.2160   -1.9200 C   0  0  0  0  0  0  0  0  0  0  0  0
  -15.2870   12.3910   -2.3150 C   0  0  0  0  0  0  0  0  0  0  0  0
  -12.7250    6.9710   -0.7910 C   0  0  1  0  0  0  0  0  0  0  0  0
  -13.0770    7.9530   -1.9390 C   0  0  0  0  0  0  0  0  0  0  0  0
  -11.7410    8.5700   -2.4270 C   0  0  0  0  0  0  0  0  0  0  0  0
  -10.6460    7.6880   -1.7810 C   0  0  1  0  0  0  0  0  0  0  0  0
  -10.5490    6.4310   -2.7020 C   0  0  0  0  0  0  0  0  0  0  0  0
   -9.2510    8.3600   -1.5720 C   0  0  2  0  0  0  0  0  0  0  0  0
   -8.5400    8.8030   -2.8630 C   0  0  0  0  0  0  0  0  0  0  0  0
   -7.6420    7.7810   -3.4790 C   0  0  0  0  0  0  0  0  0  0  0  0
   -7.1920    6.6670   -2.8710 C   0  0  0  0  0  0  0  0  0  0  0  0
   -7.5070    6.3930   -1.3950 C   0  0  1  0  0  0  0  0  0  0  0  0
   -6.2140    5.9480   -0.6640 C   0  0  0  0  0  0  0  0  0  0  0  0
   -5.5350    4.7630   -1.3450 C   0  0  0  0  0  0  0  0  0  0  0  0
   -5.1850    5.0940   -2.7930 C   0  0  2  0  0  0  0  0  0  0  0  0
   -4.1770    6.1090   -2.8040 O   0  0  0  0  0  0  0  0  0  0  0  0
   -6.4100    5.5650   -3.6270 C   0  0  0  0  0  0  0  0  0  0  0  0
   -7.3650    4.3700   -3.8700 C   0  0  0  0  0  0  0  0  0  0  0  0
   -5.8960    6.0010   -5.0260 C   0  0  0  0  0  0  0  0  0  0  0  0
   -8.2760    7.5510   -0.6240 C   0  0  1  0  0  0  0  0  0  0  0  0
   -7.2540    8.5810   -0.0530 C   0  0  0  0  0  0  0  0  0  0  0  0
   -9.0240    6.9340    0.6160 C   0  0  0  0  0  0  0  0  0  0  0  0
  -10.4460    6.3940    0.3720 C   0  0  0  0  0  0  0  0  0  0  0  0
  -11.3010    7.4210   -0.3770 C   0  0  2  0  0  0  0  0  0  0  0  0
  -11.4360    8.6880    0.5350 C   0  0  0  0  0  0  0  0  0  0  0  0
  -14.4090    5.2700    1.5336 H   0  0  0  0  0  0  0  0  0  0  0  0
  -15.3093    5.4256   -0.0130 H   0  0  0  0  0  0  0  0  0  0  0  0
  -13.6254    4.8002   -0.0130 H   0  0  0  0  0  0  0  0  0  0  0  0
  -13.3502    7.2363    1.2594 H   0  0  0  0  0  0  0  0  0  0  0  0
  -15.2081    7.7965   -1.0833 H   0  0  0  0  0  0  0  0  0  0  0  0
  -15.7431    7.7316    0.6638 H   0  0  0  0  0  0  0  0  0  0  0  0
  -14.7444    9.6947    1.2024 H   0  0  0  0  0  0  0  0  0  0  0  0
  -13.4372    9.4908   -0.0375 H   0  0  0  0  0  0  0  0  0  0  0  0
  -16.0099   10.5216   -0.0073 H   0  0  0  0  0  0  0  0  0  0  0  0
  -12.6087   11.2221   -0.9187 H   0  0  0  0  0  0  0  0  0  0  0  0
  -12.7317   10.3222   -2.4684 H   0  0  0  0  0  0  0  0  0  0  0  0
  -12.7558   12.1184   -2.4684 H   0  0  0  0  0  0  0  0  0  0  0  0
  -15.6564   12.9940   -1.4725 H   0  0  0  0  0  0  0  0  0  0  0  0
  -14.6055   12.9978   -2.9292 H   0  0  0  0  0  0  0  0  0  0  0  0
  -16.1372   12.0595   -2.9292 H   0  0  0  0  0  0  0  0  0  0  0  0
  -12.7163    5.9087   -1.0763 H   0  0  0  0  0  0  0  0  0  0  0  0
  -13.5675    7.4128   -2.7622 H   0  0  0  0  0  0  0  0  0  0  0  0
  -13.7687    8.7345   -1.5914 H   0  0  0  0  0  0  0  0  0  0  0  0
  -11.6733    8.5319   -3.5243 H   0  0  0  0  0  0  0  0  0  0  0  0
  -11.6432    9.6292   -2.1468 H   0  0  0  0  0  0  0  0  0  0  0  0
  -10.4792    5.5258   -2.0809 H   0  0  0  0  0  0  0  0  0  0  0  0
  -11.4452    6.3717   -3.3370 H   0  0  0  0  0  0  0  0  0  0  0  0
   -9.6543    6.5099   -3.3370 H   0  0  0  0  0  0  0  0  0  0  0  0
   -9.5140    9.2873   -1.0420 H   0  0  0  0  0  0  0  0  0  0  0  0
   -9.3107    9.0680   -3.6018 H   0  0  0  0  0  0  0  0  0  0  0  0
   -7.8928    9.6463   -2.5802 H   0  0  0  0  0  0  0  0  0  0  0  0
   -7.3211    7.9528   -4.5170 H   0  0  0  0  0  0  0  0  0  0  0  0
   -8.2409    5.5737   -1.3874 H   0  0  0  0  0  0  0  0  0  0  0  0
   -5.5110    6.7938   -0.6447 H   0  0  0  0  0  0  0  0  0  0  0  0
   -6.4962    5.6328    0.3514 H   0  0  0  0  0  0  0  0  0  0  0  0
   -4.6128    4.5142   -0.7995 H   0  0  0  0  0  0  0  0  0  0  0  0
   -6.2283    3.9090   -1.3375 H   0  0  0  0  0  0  0  0  0  0  0  0
   -4.8215    4.1687   -3.2639 H   0  0  0  0  0  0  0  0  0  0  0  0
   -4.6230    6.9660   -2.9160 H   0  0  0  0  0  0  0  0  0  0  0  0
   -7.6926    3.9600   -2.9033 H   0  0  0  0  0  0  0  0  0  0  0  0
   -8.2419    4.7114   -4.4396 H   0  0  0  0  0  0  0  0  0  0  0  0
   -6.8387    3.5900   -4.4396 H   0  0  0  0  0  0  0  0  0  0  0  0
   -5.0621    6.7083   -4.9062 H   0  0  0  0  0  0  0  0  0  0  0  0
   -5.5499    5.1168   -5.5814 H   0  0  0  0  0  0  0  0  0  0  0  0
   -6.7119    6.4867   -5.5814 H   0  0  0  0  0  0  0  0  0  0  0  0
   -7.2812    8.5536    1.0463 H   0  0  0  0  0  0  0  0  0  0  0  0
   -6.2424    8.3254   -0.4013 H   0  0  0  0  0  0  0  0  0  0  0  0
   -7.5175    9.5906   -0.4013 H   0  0  0  0  0  0  0  0  0  0  0  0
   -8.4121    6.1013    0.9931 H   0  0  0  0  0  0  0  0  0  0  0  0
   -9.1506    7.7694    1.3204 H   0  0  0  0  0  0  0  0  0  0  0  0
  -10.3835    5.4729   -0.2261 H   0  0  0  0  0  0  0  0  0  0  0  0
  -10.9156    6.1896    1.3455 H   0  0  0  0  0  0  0  0  0  0  0  0
  -11.4036    8.3843    1.5917 H   0  0  0  0  0  0  0  0  0  0  0  0
  -10.6065    9.3798    0.3267 H   0  0  0  0  0  0  0  0  0  0  0  0
  -12.3927    9.1894    0.3267 H   0  0  0  0  0  0  0  0  0  0  0  0
  1  2  1  0
  2  3  1  0
  3  4  1  0
  4  5  1  0
  5  6  1  0
  6  7  1  0
  7  8  1  0
  7  9  1  0
  2 10  1  0
 10 11  1  0
 11 12  1  0
 12 13  1  0
 13 14  1  6
 13 15  1  0
 15 16  1  0
 16 17  1  0
 17 18  2  0
 18 19  1  0
 19 20  1  0
 20 21  1  0
 21 22  1  0
 22 23  1  0
 22 24  1  0
 24 25  1  0
 24 26  1  0
 19 27  1  0
 27 28  1  1
 27 29  1  0
 29 30  1  0
 30 31  1  0
 31 32  1  1
  7  5  1  0
 31 10  1  0
 31 13  1  0
 27 15  1  0
 24 18  1  0
  1 33  1  0
  1 34  1  0
  1 35  1  0
  2 36  1  1
  3 37  1  0
  3 38  1  0
  4 39  1  0
  4 40  1  0
  5 41  1  1
  8 42  1  0
  8 43  1  0
  8 44  1  0
  9 45  1  0
  9 46  1  0
  9 47  1  0
 10 48  1  6
 11 49  1  0
 11 50  1  0
 12 51  1  0
 12 52  1  0
 14 53  1  0
 14 54  1  0
 14 55  1  0
 15 56  1  1
 16 57  1  0
 16 58  1  0
 17 59  1  0
 19 60  1  6
 20 61  1  0
 20 62  1  0
 21 63  1  0
 21 64  1  0
 22 65  1  6
 23 66  1  0
 25 67  1  0
 25 68  1  0
 25 69  1  0
 26 70  1  0
 26 71  1  0
 26 72  1  0
 28 73  1  0
 28 74  1  0
 28 75  1  0
 29 76  1  0
 29 77  1  0
 30 78  1  0
 30 79  1  0
 32 80  1  0
 32 81  1  0
 32 82  1  0
M  END
>  <meeko>  (4) 
{"is_sidechain": [false], "intermolecular_energy": 2.731, "internal_energy": -0.839}

$$$$
EPH_relaxed_0001_pdb2pqr_Repair_176_r2_0001_out
     RDKit          3D

 82 86  0  0  0  0  0  0  0  0999 V2000
    3.6180   18.2530   -2.3560 C   0  0  0  0  0  0  0  0  0  0  0  0
    2.2690   17.5650   -2.5790 C   0  0  2  0  0  0  0  0  0  0  0  0
    1.0820   18.5100   -2.2980 C   0  0  0  0  0  0  0  0  0  0  0  0
    1.1260   19.1570   -0.9120 C   0  0  0  0  0  0  0  0  0  0  0  0
   -0.1210   19.9390   -0.6250 C   0  0  2  0  0  0  0  0  0  0  0  0
   -0.3660   20.1860    0.7650 O   0  0  0  0  0  0  0  0  0  0  0  0
   -1.3260   19.3580    0.0890 C   0  0  0  0  0  0  0  0  0  0  0  0
   -1.3450   17.9380    0.5610 C   0  0  0  0  0  0  0  0  0  0  0  0
   -2.6580   20.0140   -0.1050 C   0  0  0  0  0  0  0  0  0  0  0  0
    2.1660   16.3250   -1.7000 C   0  0  1  0  0  0  0  0  0  0  0  0
    2.1830   16.6620   -0.1850 C   0  0  0  0  0  0  0  0  0  0  0  0
    1.2500   15.6400    0.5120 C   0  0  0  0  0  0  0  0  0  0  0  0
    0.9920   14.5540   -0.5590 C   0  0  1  0  0  0  0  0  0  0  0  0
    2.2500   13.6320   -0.5070 C   0  0  0  0  0  0  0  0  0  0  0  0
   -0.3310   13.7350   -0.4080 C   0  0  2  0  0  0  0  0  0  0  0  0
   -0.4380   12.9000    0.8800 C   0  0  0  0  0  0  0  0  0  0  0  0
    0.0840   11.5050    0.7810 C   0  0  0  0  0  0  0  0  0  0  0  0
    0.3540   10.8500   -0.3640 C   0  0  0  0  0  0  0  0  0  0  0  0
    0.0440   11.4850   -1.7260 C   0  0  1  0  0  0  0  0  0  0  0  0
   -0.6700   10.4460   -2.6310 C   0  0  0  0  0  0  0  0  0  0  0  0
    0.1150    9.1450   -2.7590 C   0  0  0  0  0  0  0  0  0  0  0  0
    0.3540    8.5140   -1.3890 C   0  0  2  0  0  0  0  0  0  0  0  0
   -0.9040    8.0950   -0.8490 O   0  0  0  0  0  0  0  0  0  0  0  0
    1.0590    9.4720   -0.3880 C   0  0  0  0  0  0  0  0  0  0  0  0
    2.5300    9.6850   -0.8220 C   0  0  0  0  0  0  0  0  0  0  0  0
    1.1120    8.7640    0.9930 C   0  0  0  0  0  0  0  0  0  0  0  0
   -0.7150   12.8810   -1.6840 C   0  0  1  0  0  0  0  0  0  0  0  0
   -2.2550   12.6480   -1.6170 C   0  0  0  0  0  0  0  0  0  0  0  0
   -0.4410   13.6560   -3.0270 C   0  0  0  0  0  0  0  0  0  0  0  0
    0.8180   14.5420   -3.0730 C   0  0  0  0  0  0  0  0  0  0  0  0
    0.8920   15.4540   -1.8440 C   0  0  2  0  0  0  0  0  0  0  0  0
   -0.3490   16.4090   -1.8820 C   0  0  0  0  0  0  0  0  0  0  0  0
    3.8066   18.3492   -1.2766 H   0  0  0  0  0  0  0  0  0  0  0  0
    4.4165   17.6520   -2.8156 H   0  0  0  0  0  0  0  0  0  0  0  0
    3.6004   19.2522   -2.8156 H   0  0  0  0  0  0  0  0  0  0  0  0
    2.2169   17.2746   -3.6387 H   0  0  0  0  0  0  0  0  0  0  0  0
    1.0872   19.3086   -3.0544 H   0  0  0  0  0  0  0  0  0  0  0  0
    0.1680   17.8993   -2.3390 H   0  0  0  0  0  0  0  0  0  0  0  0
    1.2343   18.3678   -0.1535 H   0  0  0  0  0  0  0  0  0  0  0  0
    1.9795   19.8503   -0.8842 H   0  0  0  0  0  0  0  0  0  0  0  0
   -0.0196   20.4928   -1.5700 H   0  0  0  0  0  0  0  0  0  0  0  0
   -1.3453   17.9172    1.6608 H   0  0  0  0  0  0  0  0  0  0  0  0
   -2.2499   17.4386    0.1846 H   0  0  0  0  0  0  0  0  0  0  0  0
   -0.4538   17.4145    0.1846 H   0  0  0  0  0  0  0  0  0  0  0  0
   -3.1047   20.2340    0.8758 H   0  0  0  0  0  0  0  0  0  0  0  0
   -2.5271   20.9507   -0.6667 H   0  0  0  0  0  0  0  0  0  0  0  0
   -3.3207   19.3392   -0.6667 H   0  0  0  0  0  0  0  0  0  0  0  0
    3.0445   15.7706   -2.0618 H   0  0  0  0  0  0  0  0  0  0  0  0
    3.2053   16.5729    0.2112 H   0  0  0  0  0  0  0  0  0  0  0  0
    1.8427   17.6926   -0.0063 H   0  0  0  0  0  0  0  0  0  0  0  0
    1.7409   15.2055    1.3953 H   0  0  0  0  0  0  0  0  0  0  0  0
    0.3184   16.1023    0.8704 H   0  0  0  0  0  0  0  0  0  0  0  0
    2.5177   13.4358    0.5417 H   0  0  0  0  0  0  0  0  0  0  0  0
    2.0286   12.6807   -1.0130 H   0  0  0  0  0  0  0  0  0  0  0  0
    3.0904   14.1296   -1.0130 H   0  0  0  0  0  0  0  0  0  0  0  0
   -1.0886   14.5270   -0.3147 H   0  0  0  0  0  0  0  0  0  0  0  0
    0.1261   13.4187    1.6691 H   0  0  0  0  0  0  0  0  0  0  0  0
   -1.5130   12.8081    1.0945 H   0  0  0  0  0  0  0  0  0  0  0  0
    0.2633   10.9665    1.7233 H   0  0  0  0  0  0  0  0  0  0  0  0
    1.0162   11.7561   -2.1634 H   0  0  0  0  0  0  0  0  0  0  0  0
   -1.6567   10.2216   -2.1996 H   0  0  0  0  0  0  0  0  0  0  0  0
   -0.7579   10.8834   -3.6365 H   0  0  0  0  0  0  0  0  0  0  0  0
   -0.4537    8.4416   -3.3849 H   0  0  0  0  0  0  0  0  0  0  0  0
    1.0898    9.3671   -3.2178 H   0  0  0  0  0  0  0  0  0  0  0  0
    1.0298    7.6581   -1.5330 H   0  0  0  0  0  0  0  0  0  0  0  0
   -1.0920    8.6520   -0.0750 H   0  0  0  0  0  0  0  0  0  0  0  0
    3.1660    9.7771    0.0707 H   0  0  0  0  0  0  0  0  0  0  0  0
    2.8632    8.8257   -1.4225 H   0  0  0  0  0  0  0  0  0  0  0  0
    2.6058   10.6035   -1.4225 H   0  0  0  0  0  0  0  0  0  0  0  0
    1.0557    9.5166    1.7933 H   0  0  0  0  0  0  0  0  0  0  0  0
    0.2633    8.0699    1.0820 H   0  0  0  0  0  0  0  0  0  0  0  0
    2.0546    8.2040    1.0820 H   0  0  0  0  0  0  0  0  0  0  0  0
   -2.5731   12.5999   -0.5651 H   0  0  0  0  0  0  0  0  0  0  0  0
   -2.7736   13.4779   -2.1193 H   0  0  0  0  0  0  0  0  0  0  0  0
   -2.5049   11.7018   -2.1193 H   0  0  0  0  0  0  0  0  0  0  0  0
   -0.3520   12.9094   -3.8299 H   0  0  0  0  0  0  0  0  0  0  0  0
   -1.2864   14.3513   -3.1357 H   0  0  0  0  0  0  0  0  0  0  0  0
    1.7100   13.8988   -3.0980 H   0  0  0  0  0  0  0  0  0  0  0  0
    0.7715   15.1710   -3.9742 H   0  0  0  0  0  0  0  0  0  0  0  0
   -0.6594   16.6479   -0.8541 H   0  0  0  0  0  0  0  0  0  0  0  0
   -0.0818   17.3367   -2.4093 H   0  0  0  0  0  0  0  0  0  0  0  0
   -1.1773   15.9131   -2.4093 H   0  0  0  0  0  0  0  0  0  0  0  0
  1  2  1  0
  2  3  1  0
  3  4  1  0
  4  5  1  0
  5  6  1  0
  6  7  1  0
  7  8  1  0
  7  9  1  0
  2 10  1  0
 10 11  1  0
 11 12  1  0
 12 13  1  0
 13 14  1  6
 13 15  1  0
 15 16  1  0
 16 17  1  0
 17 18  2  0
 18 19  1  0
 19 20  1  0
 20 21  1  0
 21 22  1  0
 22 23  1  0
 22 24  1  0
 24 25  1  0
 24 26  1  0
 19 27  1  0
 27 28  1  1
 27 29  1  0
 29 30  1  0
 30 31  1  0
 31 32  1  1
  7  5  1  0
 31 10  1  0
 31 13  1  0
 27 15  1  0
 24 18  1  0
  1 33  1  0
  1 34  1  0
  1 35  1  0
  2 36  1  6
  3 37  1  0
  3 38  1  0
  4 39  1  0
  4 40  1  0
  5 41  1  6
  8 42  1  0
  8 43  1  0
  8 44  1  0
  9 45  1  0
  9 46  1  0
  9 47  1  0
 10 48  1  1
 11 49  1  0
 11 50  1  0
 12 51  1  0
 12 52  1  0
 14 53  1  0
 14 54  1  0
 14 55  1  0
 15 56  1  1
 16 57  1  0
 16 58  1  0
 17 59  1  0
 19 60  1  6
 20 61  1  0
 20 62  1  0
 21 63  1  0
 21 64  1  0
 22 65  1  6
 23 66  1  0
 25 67  1  0
 25 68  1  0
 25 69  1  0
 26 70  1  0
 26 71  1  0
 26 72  1  0
 28 73  1  0
 28 74  1  0
 28 75  1  0
 29 76  1  0
 29 77  1  0
 30 78  1  0
 30 79  1  0
 32 80  1  0
 32 81  1  0
 32 82  1  0
M  END
>  <meeko>  (5) 
{"is_sidechain": [false], "intermolecular_energy": 2.731, "internal_energy": -0.839}

$$$$
EPH_relaxed_0001_pdb2pqr_Repair_176_r2_0001_out
     RDKit          3D

 82 86  0  0  0  0  0  0  0  0999 V2000
  -15.2050    8.8380    0.4330 C   0  0  0  0  0  0  0  0  0  0  0  0
  -14.3030    9.1210   -0.7710 C   0  0  2  0  0  0  0  0  0  0  0  0
  -14.6080    8.1860   -1.9580 C   0  0  0  0  0  0  0  0  0  0  0  0
  -14.6350    8.9000   -3.3130 C   0  0  0  0  0  0  0  0  0  0  0  0
  -15.2870   10.2450   -3.2170 C   0  0  2  0  0  0  0  0  0  0  0  0
  -14.9160   11.1660   -4.2510 O   0  0  0  0  0  0  0  0  0  0  0  0
  -14.5280   11.5240   -2.9150 C   0  0  0  0  0  0  0  0  0  0  0  0
  -13.0490   11.5180   -2.6890 C   0  0  0  0  0  0  0  0  0  0  0  0
  -15.2830   12.6910   -2.3600 C   0  0  0  0  0  0  0  0  0  0  0  0
  -12.8390    8.9890   -0.3660 C   0  0  1  0  0  0  0  0  0  0  0  0
  -12.6410    9.0090    1.1730 C   0  0  0  0  0  0  0  0  0  0  0  0
  -11.4630    8.0520    1.4850 C   0  0  0  0  0  0  0  0  0  0  0  0
  -10.8120    7.7730    0.1100 C   0  0  1  0  0  0  0  0  0  0  0  0
   -9.9000    9.0100   -0.1600 C   0  0  0  0  0  0  0  0  0  0  0  0
  -10.0190    6.4310   -0.0200 C   0  0  2  0  0  0  0  0  0  0  0  0
   -8.7980    6.3030    0.9080 C   0  0  0  0  0  0  0  0  0  0  0  0
   -7.5090    6.7940    0.3370 C   0  0  0  0  0  0  0  0  0  0  0  0
   -7.2780    7.0530   -0.9630 C   0  0  0  0  0  0  0  0  0  0  0  0
   -8.3440    6.7610   -2.0260 C   0  0  1  0  0  0  0  0  0  0  0  0
   -7.6910    6.0270   -3.2270 C   0  0  0  0  0  0  0  0  0  0  0  0
   -6.4940    6.7840   -3.7940 C   0  0  0  0  0  0  0  0  0  0  0  0
   -5.4300    7.0040   -2.7220 C   0  0  2  0  0  0  0  0  0  0  0  0
   -4.8800    5.7360   -2.3510 O   0  0  0  0  0  0  0  0  0  0  0  0
   -5.9750    7.7280   -1.4580 C   0  0  0  0  0  0  0  0  0  0  0  0
   -6.2910    9.2050   -1.8000 C   0  0  0  0  0  0  0  0  0  0  0  0
   -4.8390    7.7610   -0.4000 C   0  0  0  0  0  0  0  0  0  0  0  0
   -9.6590    6.0330   -1.5080 C   0  0  1  0  0  0  0  0  0  0  0  0
   -9.4500    4.4880   -1.5170 C   0  0  0  0  0  0  0  0  0  0  0  0
  -10.8380    6.3280   -2.5090 C   0  0  0  0  0  0  0  0  0  0  0  0
  -11.6600    7.6060   -2.2570 C   0  0  0  0  0  0  0  0  0  0  0  0
  -12.0980    7.6970   -0.7920 C   0  0  2  0  0  0  0  0  0  0  0  0
  -13.0350    6.4770   -0.4960 C   0  0  0  0  0  0  0  0  0  0  0  0
  -14.6428    9.0144    1.3619 H   0  0  0  0  0  0  0  0  0  0  0  0
  -16.0791    9.5051    0.4012 H   0  0  0  0  0  0  0  0  0  0  0  0
  -15.5413    7.7912    0.4012 H   0  0  0  0  0  0  0  0  0  0  0  0
  -14.5059   10.1503   -1.1017 H   0  0  0  0  0  0  0  0  0  0  0  0
  -13.8344    7.4048   -1.9924 H   0  0  0  0  0  0  0  0  0  0  0  0
  -15.6140    7.7733   -1.7919 H   0  0  0  0  0  0  0  0  0  0  0  0
  -13.6021    9.0290   -3.6687 H   0  0  0  0  0  0  0  0  0  0  0  0
  -15.2189    8.2848   -4.0134 H   0  0  0  0  0  0  0  0  0  0  0  0
  -16.1903    9.8008   -2.7735 H   0  0  0  0  0  0  0  0  0  0  0  0
  -12.8432   11.5172   -1.6084 H   0  0  0  0  0  0  0  0  0  0  0  0
  -12.6119   10.6181   -3.1462 H   0  0  0  0  0  0  0  0  0  0  0  0
  -12.6046   12.4143   -3.1462 H   0  0  0  0  0  0  0  0  0  0  0  0
  -15.2591   12.6540   -1.2609 H   0  0  0  0  0  0  0  0  0  0  0  0
  -14.8183   13.6262   -2.7056 H   0  0  0  0  0  0  0  0  0  0  0  0
  -16.3265   12.6505   -2.7056 H   0  0  0  0  0  0  0  0  0  0  0  0
  -12.4209    9.8560   -0.8985 H   0  0  0  0  0  0  0  0  0  0  0  0
  -12.4008   10.0279    1.5107 H   0  0  0  0  0  0  0  0  0  0  0  0
  -13.5566    8.6908    1.6930 H   0  0  0  0  0  0  0  0  0  0  0  0
  -10.7434    8.5309    2.1653 H   0  0  0  0  0  0  0  0  0  0  0  0
  -11.7957    7.1298    1.9837 H   0  0  0  0  0  0  0  0  0  0  0  0
   -9.5792    9.4451    0.7980 H   0  0  0  0  0  0  0  0  0  0  0  0
   -9.0160    8.6955   -0.7342 H   0  0  0  0  0  0  0  0  0  0  0  0
  -10.4618    9.7614   -0.7342 H   0  0  0  0  0  0  0  0  0  0  0  0
  -10.7473    5.6897    0.3407 H   0  0  0  0  0  0  0  0  0  0  0  0
   -9.0050    6.8771    1.8232 H   0  0  0  0  0  0  0  0  0  0  0  0
   -8.6618    5.2259    1.0850 H   0  0  0  0  0  0  0  0  0  0  0  0
   -6.6777    6.9579    1.0384 H   0  0  0  0  0  0  0  0  0  0  0  0
   -8.7260    7.7403   -2.3500 H   0  0  0  0  0  0  0  0  0  0  0  0
   -7.3546    5.0344   -2.8931 H   0  0  0  0  0  0  0  0  0  0  0  0
   -8.4462    5.9516   -4.0232 H   0  0  0  0  0  0  0  0  0  0  0  0
   -6.0583    6.2021   -4.6196 H   0  0  0  0  0  0  0  0  0  0  0  0
   -6.8376    7.7649   -4.1542 H   0  0  0  0  0  0  0  0  0  0  0  0
   -4.6590    7.6605   -3.1517 H   0  0  0  0  0  0  0  0  0  0  0  0
   -4.9250    5.1570   -3.1300 H   0  0  0  0  0  0  0  0  0  0  0  0
   -6.4137    9.7787   -0.8695 H   0  0  0  0  0  0  0  0  0  0  0  0
   -5.4636    9.6306   -2.3867 H   0  0  0  0  0  0  0  0  0  0  0  0
   -7.2201    9.2548   -2.3867 H   0  0  0  0  0  0  0  0  0  0  0  0
   -5.2771    7.7483    0.6089 H   0  0  0  0  0  0  0  0  0  0  0  0
   -4.1915    6.8813   -0.5297 H   0  0  0  0  0  0  0  0  0  0  0  0
   -4.2436    8.6768   -0.5297 H   0  0  0  0  0  0  0  0  0  0  0  0
   -9.4000    4.1187   -0.4820 H   0  0  0  0  0  0  0  0  0  0  0  0
  -10.2913    4.0072   -2.0377 H   0  0  0  0  0  0  0  0  0  0  0  0
   -8.5112    4.2480   -2.0377 H   0  0  0  0  0  0  0  0  0  0  0  0
  -10.4067    6.4034   -3.5181 H   0  0  0  0  0  0  0  0  0  0  0  0
  -11.5468    5.4982   -2.3712 H   0  0  0  0  0  0  0  0  0  0  0  0
  -11.0448    8.4839   -2.5037 H   0  0  0  0  0  0  0  0  0  0  0  0
  -12.5589    7.5751   -2.8903 H   0  0  0  0  0  0  0  0  0  0  0  0
  -13.1350    6.3469    0.5917 H   0  0  0  0  0  0  0  0  0  0  0  0
  -14.0263    6.6608   -0.9359 H   0  0  0  0  0  0  0  0  0  0  0  0
  -12.6017    5.5667   -0.9359 H   0  0  0  0  0  0  0  0  0  0  0  0
  1  2  1  0
  2  3  1  0
  3  4  1  0
  4  5  1  0
  5  6  1  0
  6  7  1  0
  7  8  1  0
  7  9  1  0
  2 10  1  0
 10 11  1  0
 11 12  1  0
 12 13  1  0
 13 14  1  6
 13 15  1  0
 15 16  1  0
 16 17  1  0
 17 18  2  0
 18 19  1  0
 19 20  1  0
 20 21  1  0
 21 22  1  0
 22 23  1  0
 22 24  1  0
 24 25  1  0
 24 26  1  0
 19 27  1  0
 27 28  1  1
 27 29  1  0
 29 30  1  0
 30 31  1  0
 31 32  1  1
  7  5  1  0
 31 10  1  0
 31 13  1  0
 27 15  1  0
 24 18  1  0
  1 33  1  0
  1 34  1  0
  1 35  1  0
  2 36  1  6
  3 37  1  0
  3 38  1  0
  4 39  1  0
  4 40  1  0
  5 41  1  1
  8 42  1  0
  8 43  1  0
  8 44  1  0
  9 45  1  0
  9 46  1  0
  9 47  1  0
 10 48  1  6
 11 49  1  0
 11 50  1  0
 12 51  1  0
 12 52  1  0
 14 53  1  0
 14 54  1  0
 14 55  1  0
 15 56  1  1
 16 57  1  0
 16 58  1  0
 17 59  1  0
 19 60  1  6
 20 61  1  0
 20 62  1  0
 21 63  1  0
 21 64  1  0
 22 65  1  6
 23 66  1  0
 25 67  1  0
 25 68  1  0
 25 69  1  0
 26 70  1  0
 26 71  1  0
 26 72  1  0
 28 73  1  0
 28 74  1  0
 28 75  1  0
 29 76  1  0
 29 77  1  0
 30 78  1  0
 30 79  1  0
 32 80  1  0
 32 81  1  0
 32 82  1  0
M  END
>  <meeko>  (6) 
{"is_sidechain": [false], "intermolecular_energy": 2.731, "internal_energy": -0.839}

$$$$
EPH_relaxed_0001_pdb2pqr_Repair_176_r2_0001_out
     RDKit          3D

 82 86  0  0  0  0  0  0  0  0999 V2000
   -5.0260    6.4080   -3.2110 C   0  0  0  0  0  0  0  0  0  0  0  0
   -5.8750    7.5720   -2.6930 C   0  0  2  0  0  0  0  0  0  0  0  0
   -5.3310    8.1430   -1.3680 C   0  0  0  0  0  0  0  0  0  0  0  0
   -3.8360    7.8880   -1.1560 C   0  0  0  0  0  0  0  0  0  0  0  0
   -3.2070    8.9520   -0.3080 C   0  0  2  0  0  0  0  0  0  0  0  0
   -3.0090   10.2070   -0.9710 O   0  0  0  0  0  0  0  0  0  0  0  0
   -1.8200    9.5120   -0.5600 C   0  0  0  0  0  0  0  0  0  0  0  0
   -0.9770    9.0240   -1.6960 C   0  0  0  0  0  0  0  0  0  0  0  0
   -1.0980   10.1720    0.5730 C   0  0  0  0  0  0  0  0  0  0  0  0
   -7.3200    7.1210   -2.5110 C   0  0  1  0  0  0  0  0  0  0  0  0
   -7.5180    5.6130   -2.8200 C   0  0  0  0  0  0  0  0  0  0  0  0
   -8.6030    5.0950   -1.8400 C   0  0  0  0  0  0  0  0  0  0  0  0
   -9.2250    6.3750   -1.2350 C   0  0  1  0  0  0  0  0  0  0  0  0
  -10.2490    6.8690   -2.3060 C   0  0  0  0  0  0  0  0  0  0  0  0
   -9.8910    6.2220    0.1710 C   0  0  2  0  0  0  0  0  0  0  0  0
  -11.0940    5.2650    0.2230 C   0  0  0  0  0  0  0  0  0  0  0  0
  -12.4230    5.8970   -0.0260 C   0  0  0  0  0  0  0  0  0  0  0  0
  -12.6780    7.2180    0.0010 C   0  0  0  0  0  0  0  0  0  0  0  0
  -11.5900    8.2230    0.4010 C   0  0  1  0  0  0  0  0  0  0  0  0
  -12.1730    9.2410    1.4150 C   0  0  0  0  0  0  0  0  0  0  0  0
  -13.4350    9.9250    0.8990 C   0  0  0  0  0  0  0  0  0  0  0  0
  -14.5140    8.8970    0.5660 C   0  0  2  0  0  0  0  0  0  0  0  0
  -14.9440    8.2720    1.7800 O   0  0  0  0  0  0  0  0  0  0  0  0
  -14.0390    7.8130   -0.4400 C   0  0  0  0  0  0  0  0  0  0  0  0
  -13.8610    8.4460   -1.8420 C   0  0  0  0  0  0  0  0  0  0  0  0
  -15.1720    6.7610   -0.5800 C   0  0  0  0  0  0  0  0  0  0  0  0
  -10.2130    7.5950    0.8890 C   0  0  1  0  0  0  0  0  0  0  0  0
  -10.2780    7.2940    2.4180 C   0  0  0  0  0  0  0  0  0  0  0  0
   -9.0670    8.6560    0.6930 C   0  0  0  0  0  0  0  0  0  0  0  0
   -8.3670    8.6780   -0.6790 C   0  0  0  0  0  0  0  0  0  0  0  0
   -7.9390    7.2680   -1.0990 C   0  0  2  0  0  0  0  0  0  0  0  0
   -6.8920    6.7550   -0.0520 C   0  0  0  0  0  0  0  0  0  0  0  0
   -4.6159    5.8457   -2.3591 H   0  0  0  0  0  0  0  0  0  0  0  0
   -5.6517    5.7417   -3.8230 H   0  0  0  0  0  0  0  0  0  0  0  0
   -4.2004    6.8002   -3.8230 H   0  0  0  0  0  0  0  0  0  0  0  0
   -5.8276    8.3752   -3.4430 H   0  0  0  0  0  0  0  0  0  0  0  0
   -5.5024    9.2296   -1.3617 H   0  0  0  0  0  0  0  0  0  0  0  0
   -5.8635    7.6296   -0.5538 H   0  0  0  0  0  0  0  0  0  0  0  0
   -3.7072    6.9145   -0.6603 H   0  0  0  0  0  0  0  0  0  0  0  0
   -3.3436    7.8977   -2.1396 H   0  0  0  0  0  0  0  0  0  0  0  0
   -3.6859    8.5472    0.5958 H   0  0  0  0  0  0  0  0  0  0  0  0
   -0.0891    8.5100   -1.2993 H   0  0  0  0  0  0  0  0  0  0  0  0
   -1.5611    8.3243   -2.3119 H   0  0  0  0  0  0  0  0  0  0  0  0
   -0.6612    9.8789   -2.3119 H   0  0  0  0  0  0  0  0  0  0  0  0
   -1.5005    9.8040    1.5283 H   0  0  0  0  0  0  0  0  0  0  0  0
   -0.0255    9.9356    0.5117 H   0  0  0  0  0  0  0  0  0  0  0  0
   -1.2374   11.2614    0.5117 H   0  0  0  0  0  0  0  0  0  0  0  0
   -7.8170    7.8076   -3.2122 H   0  0  0  0  0  0  0  0  0  0  0  0
   -7.8517    5.4798   -3.8597 H   0  0  0  0  0  0  0  0  0  0  0  0
   -6.5766    5.0574   -2.6971 H   0  0  0  0  0  0  0  0  0  0  0  0
   -9.3640    4.5099   -2.3771 H   0  0  0  0  0  0  0  0  0  0  0  0
   -8.1861    4.4295   -1.0698 H   0  0  0  0  0  0  0  0  0  0  0  0
  -11.1299    7.2939   -1.8025 H   0  0  0  0  0  0  0  0  0  0  0  0
   -9.7789    7.6394   -2.9349 H   0  0  0  0  0  0  0  0  0  0  0  0
  -10.5594    6.0215   -2.9349 H   0  0  0  0  0  0  0  0  0  0  0  0
   -9.0968    5.7348    0.7556 H   0  0  0  0  0  0  0  0  0  0  0  0
  -10.9408    4.4850   -0.5373 H   0  0  0  0  0  0  0  0  0  0  0  0
  -11.1297    4.8769    1.2516 H   0  0  0  0  0  0  0  0  0  0  0  0
  -13.2653    5.2262   -0.2506 H   0  0  0  0  0  0  0  0  0  0  0  0
  -11.3004    8.7429   -0.5241 H   0  0  0  0  0  0  0  0  0  0  0  0
  -12.4160    8.7100    2.3472 H   0  0  0  0  0  0  0  0  0  0  0  0
  -11.4143   10.0206    1.5783 H   0  0  0  0  0  0  0  0  0  0  0  0
  -13.8155   10.6092    1.6717 H   0  0  0  0  0  0  0  0  0  0  0  0
  -13.1844   10.4810   -0.0165 H   0  0  0  0  0  0  0  0  0  0  0  0
  -15.3420    9.4334    0.0794 H   0  0  0  0  0  0  0  0  0  0  0  0
  -14.8350    7.3120    1.6710 H   0  0  0  0  0  0  0  0  0  0  0  0
  -13.5647    9.4998   -1.7336 H   0  0  0  0  0  0  0  0  0  0  0  0
  -13.0813    7.9008   -2.3942 H   0  0  0  0  0  0  0  0  0  0  0  0
  -14.8106    8.3871   -2.3942 H   0  0  0  0  0  0  0  0  0  0  0  0
  -15.5081    6.4489    0.4198 H   0  0  0  0  0  0  0  0  0  0  0  0
  -16.0165    7.2025   -1.1295 H   0  0  0  0  0  0  0  0  0  0  0  0
  -14.7942    5.8862   -1.1295 H   0  0  0  0  0  0  0  0  0  0  0  0
  -10.0787    8.2170    2.9822 H   0  0  0  0  0  0  0  0  0  0  0  0
  -11.2785    6.9159    2.6751 H   0  0  0  0  0  0  0  0  0  0  0  0
   -9.5227    6.5368    2.6751 H   0  0  0  0  0  0  0  0  0  0  0  0
   -9.5036    9.6518    0.8597 H   0  0  0  0  0  0  0  0  0  0  0  0
   -8.2841    8.3694    1.4106 H   0  0  0  0  0  0  0  0  0  0  0  0
   -9.0610    9.0822   -1.4306 H   0  0  0  0  0  0  0  0  0  0  0  0
   -7.4694    9.3095   -0.6047 H   0  0  0  0  0  0  0  0  0  0  0  0
   -7.2693    6.9398    0.9646 H   0  0  0  0  0  0  0  0  0  0  0  0
   -6.7311    5.6760   -0.1928 H   0  0  0  0  0  0  0  0  0  0  0  0
   -5.9407    7.2891   -0.1928 H   0  0  0  0  0  0  0  0  0  0  0  0
  1  2  1  0
  2  3  1  0
  3  4  1  0
  4  5  1  0
  5  6  1  0
  6  7  1  0
  7  8  1  0
  7  9  1  0
  2 10  1  0
 10 11  1  0
 11 12  1  0
 12 13  1  0
 13 14  1  6
 13 15  1  0
 15 16  1  0
 16 17  1  0
 17 18  2  0
 18 19  1  0
 19 20  1  0
 20 21  1  0
 21 22  1  0
 22 23  1  0
 22 24  1  0
 24 25  1  0
 24 26  1  0
 19 27  1  0
 27 28  1  1
 27 29  1  0
 29 30  1  0
 30 31  1  0
 31 32  1  1
  7  5  1  0
 31 10  1  0
 31 13  1  0
 27 15  1  0
 24 18  1  0
  1 33  1  0
  1 34  1  0
  1 35  1  0
  2 36  1  6
  3 37  1  0
  3 38  1  0
  4 39  1  0
  4 40  1  0
  5 41  1  1
  8 42  1  0
  8 43  1  0
  8 44  1  0
  9 45  1  0
  9 46  1  0
  9 47  1  0
 10 48  1  6
 11 49  1  0
 11 50  1  0
 12 51  1  0
 12 52  1  0
 14 53  1  0
 14 54  1  0
 14 55  1  0
 15 56  1  1
 16 57  1  0
 16 58  1  0
 17 59  1  0
 19 60  1  6
 20 61  1  0
 20 62  1  0
 21 63  1  0
 21 64  1  0
 22 65  1  6
 23 66  1  0
 25 67  1  0
 25 68  1  0
 25 69  1  0
 26 70  1  0
 26 71  1  0
 26 72  1  0
 28 73  1  0
 28 74  1  0
 28 75  1  0
 29 76  1  0
 29 77  1  0
 30 78  1  0
 30 79  1  0
 32 80  1  0
 32 81  1  0
 32 82  1  0
M  END
>  <meeko>  (7) 
{"is_sidechain": [false], "intermolecular_energy": 2.731, "internal_energy": -0.839}

$$$$
EPH_relaxed_0001_pdb2pqr_Repair_176_r2_0001_out
     RDKit          3D

 82 86  0  0  0  0  0  0  0  0999 V2000
    0.0760    7.8460   -2.2930 C   0  0  0  0  0  0  0  0  0  0  0  0
   -1.3070    8.2710   -1.7900 C   0  0  2  0  0  0  0  0  0  0  0  0
   -2.4420    7.7130   -2.6710 C   0  0  0  0  0  0  0  0  0  0  0  0
   -3.6670    7.2520   -1.8770 C   0  0  0  0  0  0  0  0  0  0  0  0
   -4.6940    6.6130   -2.7620 C   0  0  2  0  0  0  0  0  0  0  0  0
   -5.2660    7.4880   -3.7430 O   0  0  0  0  0  0  0  0  0  0  0  0
   -6.1650    6.9850   -2.7410 C   0  0  0  0  0  0  0  0  0  0  0  0
   -6.6910    8.0350   -1.8140 C   0  0  0  0  0  0  0  0  0  0  0  0
   -7.1600    5.9970   -3.2660 C   0  0  0  0  0  0  0  0  0  0  0  0
   -1.3930    9.7920   -1.7290 C   0  0  1  0  0  0  0  0  0  0  0  0
   -2.8400   10.2990   -1.4890 C   0  0  0  0  0  0  0  0  0  0  0  0
   -2.7280   11.5710   -0.6110 C   0  0  0  0  0  0  0  0  0  0  0  0
   -1.2270   11.9420   -0.6510 C   0  0  1  0  0  0  0  0  0  0  0  0
   -1.0380   12.7040   -1.9990 C   0  0  0  0  0  0  0  0  0  0  0  0
   -0.6870   12.7700    0.5610 C   0  0  2  0  0  0  0  0  0  0  0  0
   -1.3230   14.1600    0.7360 C   0  0  0  0  0  0  0  0  0  0  0  0
   -0.6270   15.2740    0.0260 C   0  0  0  0  0  0  0  0  0  0  0  0
    0.6170   15.2180   -0.4860 C   0  0  0  0  0  0  0  0  0  0  0  0
    1.4950   13.9760   -0.2890 C   0  0  1  0  0  0  0  0  0  0  0  0
    2.9180   14.4120    0.1480 C   0  0  0  0  0  0  0  0  0  0  0  0
    3.5420   15.4210   -0.8120 C   0  0  0  0  0  0  0  0  0  0  0  0
    2.6680   16.6660   -0.9370 C   0  0  2  0  0  0  0  0  0  0  0  0
    2.6650   17.3550    0.3170 O   0  0  0  0  0  0  0  0  0  0  0  0
    1.2070   16.3500   -1.3630 C   0  0  0  0  0  0  0  0  0  0  0  0
    1.1850   15.8830   -2.8400 C   0  0  0  0  0  0  0  0  0  0  0  0
    0.3980   17.6740   -1.3140 C   0  0  0  0  0  0  0  0  0  0  0  0
    0.8910   12.8410    0.6460 C   0  0  1  0  0  0  0  0  0  0  0  0
    1.2440   13.1350    2.1360 C   0  0  0  0  0  0  0  0  0  0  0  0
    1.5720   11.4670    0.2910 C   0  0  0  0  0  0  0  0  0  0  0  0
    0.9220   10.6390   -0.8340 C   0  0  0  0  0  0  0  0  0  0  0  0
   -0.5880   10.5060   -0.6150 C   0  0  2  0  0  0  0  0  0  0  0  0
   -0.8100    9.7230    0.7250 C   0  0  0  0  0  0  0  0  0  0  0  0
    0.7326    7.6442   -1.4338 H   0  0  0  0  0  0  0  0  0  0  0  0
   -0.0195    6.9358   -2.9032 H   0  0  0  0  0  0  0  0  0  0  0  0
    0.5081    8.6528   -2.9032 H   0  0  0  0  0  0  0  0  0  0  0  0
   -1.4361    7.8510   -0.7816 H   0  0  0  0  0  0  0  0  0  0  0  0
   -2.7579    8.5008   -3.3707 H   0  0  0  0  0  0  0  0  0  0  0  0
   -2.0423    6.8282   -3.1881 H   0  0  0  0  0  0  0  0  0  0  0  0
   -3.3463    6.5223   -1.1189 H   0  0  0  0  0  0  0  0  0  0  0  0
   -4.1226    8.1357   -1.4064 H   0  0  0  0  0  0  0  0  0  0  0  0
   -4.1774    5.6437   -2.7015 H   0  0  0  0  0  0  0  0  0  0  0  0
   -6.5321    7.7178   -0.7728 H   0  0  0  0  0  0  0  0  0  0  0  0
   -6.1608    8.9819   -1.9938 H   0  0  0  0  0  0  0  0  0  0  0  0
   -7.7668    8.1773   -1.9938 H   0  0  0  0  0  0  0  0  0  0  0  0
   -7.6617    5.4988   -2.4233 H   0  0  0  0  0  0  0  0  0  0  0  0
   -7.9075    6.5205   -3.8802 H   0  0  0  0  0  0  0  0  0  0  0  0
   -6.6418    5.2458   -3.8802 H   0  0  0  0  0  0  0  0  0  0  0  0
   -0.9720   10.0401   -2.7145 H   0  0  0  0  0  0  0  0  0  0  0  0
   -3.3203   10.5419   -2.4483 H   0  0  0  0  0  0  0  0  0  0  0  0
   -3.4511    9.5299   -0.9940 H   0  0  0  0  0  0  0  0  0  0  0  0
   -3.3403   12.3848   -1.0266 H   0  0  0  0  0  0  0  0  0  0  0  0
   -3.0889   11.4031    0.4144 H   0  0  0  0  0  0  0  0  0  0  0  0
   -0.7778   13.7529   -1.7939 H   0  0  0  0  0  0  0  0  0  0  0  0
   -0.2297   12.2320   -2.5768 H   0  0  0  0  0  0  0  0  0  0  0  0
   -1.9732   12.6644   -2.5768 H   0  0  0  0  0  0  0  0  0  0  0  0
   -1.0258   12.1759    1.4225 H   0  0  0  0  0  0  0  0  0  0  0  0
   -2.3559   14.1108    0.3610 H   0  0  0  0  0  0  0  0  0  0  0  0
   -1.2543   14.3931    1.8088 H   0  0  0  0  0  0  0  0  0  0  0  0
   -1.1768   16.2199   -0.0884 H   0  0  0  0  0  0  0  0  0  0  0  0
    1.5413   13.4779   -1.2687 H   0  0  0  0  0  0  0  0  0  0  0  0
    2.8558   14.8679    1.1471 H   0  0  0  0  0  0  0  0  0  0  0  0
    3.5556   13.5156    0.1508 H   0  0  0  0  0  0  0  0  0  0  0  0
    4.5328   15.7130   -0.4337 H   0  0  0  0  0  0  0  0  0  0  0  0
    3.6319   14.9536   -1.8037 H   0  0  0  0  0  0  0  0  0  0  0  0
    3.0979   17.2914   -1.7332 H   0  0  0  0  0  0  0  0  0  0  0  0
    2.6820   16.6850    1.0210 H   0  0  0  0  0  0  0  0  0  0  0  0
    1.1333   14.7848   -2.8766 H   0  0  0  0  0  0  0  0  0  0  0  0
    0.3059   16.3086   -3.3461 H   0  0  0  0  0  0  0  0  0  0  0  0
    2.1002   16.2240   -3.3461 H   0  0  0  0  0  0  0  0  0  0  0  0
    0.2240   17.9588   -0.2659 H   0  0  0  0  0  0  0  0  0  0  0  0
    0.9648   18.4690   -1.8207 H   0  0  0  0  0  0  0  0  0  0  0  0
   -0.5680   17.5324   -1.8207 H   0  0  0  0  0  0  0  0  0  0  0  0
    0.5655   12.5699    2.7919 H   0  0  0  0  0  0  0  0  0  0  0  0
    2.2826   12.8311    2.3336 H   0  0  0  0  0  0  0  0  0  0  0  0
    1.1330   14.2114    2.3336 H   0  0  0  0  0  0  0  0  0  0  0  0
    2.6096   11.6773   -0.0077 H   0  0  0  0  0  0  0  0  0  0  0  0
    1.4684   10.8521    1.1972 H   0  0  0  0  0  0  0  0  0  0  0  0
    1.1032   11.1370   -1.7979 H   0  0  0  0  0  0  0  0  0  0  0  0
    1.3667    9.6329   -0.8305 H   0  0  0  0  0  0  0  0  0  0  0  0
   -0.6201   10.3927    1.5768 H   0  0  0  0  0  0  0  0  0  0  0  0
   -1.8469    9.3585    0.7692 H   0  0  0  0  0  0  0  0  0  0  0  0
   -0.1187    8.8685    0.7692 H   0  0  0  0  0  0  0  0  0  0  0  0
  1  2  1  0
  2  3  1  0
  3  4  1  0
  4  5  1  0
  5  6  1  0
  6  7  1  0
  7  8  1  0
  7  9  1  0
  2 10  1  0
 10 11  1  0
 11 12  1  0
 12 13  1  0
 13 14  1  6
 13 15  1  0
 15 16  1  0
 16 17  1  0
 17 18  2  0
 18 19  1  0
 19 20  1  0
 20 21  1  0
 21 22  1  0
 22 23  1  0
 22 24  1  0
 24 25  1  0
 24 26  1  0
 19 27  1  0
 27 28  1  1
 27 29  1  0
 29 30  1  0
 30 31  1  0
 31 32  1  1
  7  5  1  0
 31 10  1  0
 31 13  1  0
 27 15  1  0
 24 18  1  0
  1 33  1  0
  1 34  1  0
  1 35  1  0
  2 36  1  1
  3 37  1  0
  3 38  1  0
  4 39  1  0
  4 40  1  0
  5 41  1  6
  8 42  1  0
  8 43  1  0
  8 44  1  0
  9 45  1  0
  9 46  1  0
  9 47  1  0
 10 48  1  6
 11 49  1  0
 11 50  1  0
 12 51  1  0
 12 52  1  0
 14 53  1  0
 14 54  1  0
 14 55  1  0
 15 56  1  1
 16 57  1  0
 16 58  1  0
 17 59  1  0
 19 60  1  6
 20 61  1  0
 20 62  1  0
 21 63  1  0
 21 64  1  0
 22 65  1  6
 23 66  1  0
 25 67  1  0
 25 68  1  0
 25 69  1  0
 26 70  1  0
 26 71  1  0
 26 72  1  0
 28 73  1  0
 28 74  1  0
 28 75  1  0
 29 76  1  0
 29 77  1  0
 30 78  1  0
 30 79  1  0
 32 80  1  0
 32 81  1  0
 32 82  1  0
M  END
>  <meeko>  (8) 
{"is_sidechain": [false], "intermolecular_energy": 2.731, "internal_energy": -0.839}

$$$$
EPH_relaxed_0001_pdb2pqr_Repair_176_r2_0001_out
     RDKit          3D

 82 86  0  0  0  0  0  0  0  0999 V2000
   -3.5030   11.3720   -0.9480 C   0  0  0  0  0  0  0  0  0  0  0  0
   -2.0400   10.9430   -0.8000 C   0  0  2  0  0  0  0  0  0  0  0  0
   -1.8850    9.7190    0.1240 C   0  0  0  0  0  0  0  0  0  0  0  0
   -1.9170    8.3800   -0.6180 C   0  0  0  0  0  0  0  0  0  0  0  0
   -1.4070    8.5110   -2.0210 C   0  0  2  0  0  0  0  0  0  0  0  0
   -0.4970    7.4800   -2.4260 O   0  0  0  0  0  0  0  0  0  0  0  0
    0.0410    8.8110   -2.3600 C   0  0  0  0  0  0  0  0  0  0  0  0
    1.0700    8.9990   -1.2900 C   0  0  0  0  0  0  0  0  0  0  0  0
    0.3550    9.4010   -3.7000 C   0  0  0  0  0  0  0  0  0  0  0  0
   -1.2090   12.1050   -0.2690 C   0  0  1  0  0  0  0  0  0  0  0  0
   -0.0800   11.6430    0.6900 C   0  0  0  0  0  0  0  0  0  0  0  0
    1.1230   12.5920    0.4550 C   0  0  0  0  0  0  0  0  0  0  0  0
    0.5420   13.7590   -0.3770 C   0  0  1  0  0  0  0  0  0  0  0  0
   -0.1500   14.6910    0.6660 C   0  0  0  0  0  0  0  0  0  0  0  0
    1.5590   14.5450   -1.2680 C   0  0  2  0  0  0  0  0  0  0  0  0
    2.6770   15.2690   -0.4980 C   0  0  0  0  0  0  0  0  0  0  0  0
    2.3700   16.6750   -0.0990 C   0  0  0  0  0  0  0  0  0  0  0  0
    1.3660   17.4250   -0.5890 C   0  0  0  0  0  0  0  0  0  0  0  0
    0.4700   16.9010   -1.7190 C   0  0  1  0  0  0  0  0  0  0  0  0
    0.3040   18.0020   -2.8000 C   0  0  0  0  0  0  0  0  0  0  0  0
   -0.2000   19.3200   -2.2200 C   0  0  0  0  0  0  0  0  0  0  0  0
    0.7480   19.8380   -1.1400 C   0  0  2  0  0  0  0  0  0  0  0  0
    1.9920   20.1940   -1.7510 O   0  0  0  0  0  0  0  0  0  0  0  0
    0.9990   18.8100   -0.0020 C   0  0  0  0  0  0  0  0  0  0  0  0
   -0.2840   18.6530    0.8500 C   0  0  0  0  0  0  0  0  0  0  0  0
    2.0790   19.4010    0.9450 C   0  0  0  0  0  0  0  0  0  0  0  0
    0.8840   15.4970   -2.3370 C   0  0  1  0  0  0  0  0  0  0  0  0
    1.9310   15.7030   -3.4740 C   0  0  0  0  0  0  0  0  0  0  0  0
   -0.3790   14.8390   -3.0100 C   0  0  0  0  0  0  0  0  0  0  0  0
   -1.2790   13.9770   -2.1050 C   0  0  0  0  0  0  0  0  0  0  0  0
   -0.4480   12.9670   -1.3070 C   0  0  2  0  0  0  0  0  0  0  0  0
    0.2430   12.0020   -2.3300 C   0  0  0  0  0  0  0  0  0  0  0  0
   -3.9494   11.5029    0.0488 H   0  0  0  0  0  0  0  0  0  0  0  0
   -3.5524   12.3224   -1.4995 H   0  0  0  0  0  0  0  0  0  0  0  0
   -4.0579   10.5987   -1.4995 H   0  0  0  0  0  0  0  0  0  0  0  0
   -1.6777   10.6520   -1.7970 H   0  0  0  0  0  0  0  0  0  0  0  0
   -0.9229    9.8012    0.6509 H   0  0  0  0  0  0  0  0  0  0  0  0
   -2.7426    9.7255    0.8129 H   0  0  0  0  0  0  0  0  0  0  0  0
   -1.2889    7.6573   -0.0765 H   0  0  0  0  0  0  0  0  0  0  0  0
   -2.9616    8.0383   -0.6636 H   0  0  0  0  0  0  0  0  0  0  0  0
   -2.3515    8.9715   -2.3464 H   0  0  0  0  0  0  0  0  0  0  0  0
    0.5926    8.9118   -0.3028 H   0  0  0  0  0  0  0  0  0  0  0  0
    1.8483    8.2282   -1.3903 H   0  0  0  0  0  0  0  0  0  0  0  0
    1.5255    9.9952   -1.3903 H   0  0  0  0  0  0  0  0  0  0  0  0
    0.8679   10.3647   -3.5652 H   0  0  0  0  0  0  0  0  0  0  0  0
    1.0067    8.7139   -4.2596 H   0  0  0  0  0  0  0  0  0  0  0  0
   -0.5790    9.5578   -4.2596 H   0  0  0  0  0  0  0  0  0  0  0  0
   -2.0044   12.6998    0.2039 H   0  0  0  0  0  0  0  0  0  0  0  0
   -0.4184   11.7119    1.7344 H   0  0  0  0  0  0  0  0  0  0  0  0
    0.1988   10.5967    0.4965 H   0  0  0  0  0  0  0  0  0  0  0  0
    1.5215   12.9584    1.4126 H   0  0  0  0  0  0  0  0  0  0  0  0
    1.9572   12.0896   -0.0566 H   0  0  0  0  0  0  0  0  0  0  0  0
    0.1006   14.3535    1.6825 H   0  0  0  0  0  0  0  0  0  0  0  0
    0.2019   15.7237    0.5253 H   0  0  0  0  0  0  0  0  0  0  0  0
   -1.2403   14.6528    0.5253 H   0  0  0  0  0  0  0  0  0  0  0  0
    2.0550   13.7380   -1.8273 H   0  0  0  0  0  0  0  0  0  0  0  0
    2.8870   14.6945    0.4162 H   0  0  0  0  0  0  0  0  0  0  0  0
    3.5320   15.3283   -1.1875 H   0  0  0  0  0  0  0  0  0  0  0  0
    3.0194   17.1364    0.6595 H   0  0  0  0  0  0  0  0  0  0  0  0
   -0.5040   16.6800   -1.2580 H   0  0  0  0  0  0  0  0  0  0  0  0
    1.2793   18.1770   -3.2777 H   0  0  0  0  0  0  0  0  0  0  0  0
   -0.4441   17.6483   -3.5247 H   0  0  0  0  0  0  0  0  0  0  0  0
   -0.2692   20.0652   -3.0261 H   0  0  0  0  0  0  0  0  0  0  0  0
   -1.1884   19.1501   -1.7681 H   0  0  0  0  0  0  0  0  0  0  0  0
    0.2709   20.7122   -0.6729 H   0  0  0  0  0  0  0  0  0  0  0  0
    2.2280   21.0840   -1.4400 H   0  0  0  0  0  0  0  0  0  0  0  0
   -0.0213   18.6851    1.9177 H   0  0  0  0  0  0  0  0  0  0  0  0
   -0.9802   19.4726    0.6188 H   0  0  0  0  0  0  0  0  0  0  0  0
   -0.7621   17.6897    0.6188 H   0  0  0  0  0  0  0  0  0  0  0  0
    1.7793   19.2370    1.9906 H   0  0  0  0  0  0  0  0  0  0  0  0
    3.0425   18.9044    0.7575 H   0  0  0  0  0  0  0  0  0  0  0  0
    2.1802   20.4802    0.7575 H   0  0  0  0  0  0  0  0  0  0  0  0
    2.9192   15.8974   -3.0316 H   0  0  0  0  0  0  0  0  0  0  0  0
    1.9796   14.7972   -4.0962 H   0  0  0  0  0  0  0  0  0  0  0  0
    1.6328   16.5597   -4.0962 H   0  0  0  0  0  0  0  0  0  0  0  0
   -0.9986   15.6506   -3.4193 H   0  0  0  0  0  0  0  0  0  0  0  0
    0.0247   14.1434   -3.7604 H   0  0  0  0  0  0  0  0  0  0  0  0
   -1.8183   14.6321   -1.4050 H   0  0  0  0  0  0  0  0  0  0  0  0
   -1.9878   13.4246   -2.7393 H   0  0  0  0  0  0  0  0  0  0  0  0
    0.7989   11.2257   -1.7838 H   0  0  0  0  0  0  0  0  0  0  0  0
   -0.5226   11.5285   -2.9622 H   0  0  0  0  0  0  0  0  0  0  0  0
    0.9378   12.5743   -2.9622 H   0  0  0  0  0  0  0  0  0  0  0  0
  1  2  1  0
  2  3  1  0
  3  4  1  0
  4  5  1  0
  5  6  1  0
  6  7  1  0
  7  8  1  0
  7  9  1  0
  2 10  1  0
 10 11  1  0
 11 12  1  0
 12 13  1  0
 13 14  1  1
 13 15  1  0
 15 16  1  0
 16 17  1  0
 17 18  2  0
 18 19  1  0
 19 20  1  0
 20 21  1  0
 21 22  1  0
 22 23  1  0
 22 24  1  0
 24 25  1  0
 24 26  1  0
 19 27  1  0
 27 28  1  6
 27 29  1  0
 29 30  1  0
 30 31  1  0
 31 32  1  6
  7  5  1  0
 31 10  1  0
 31 13  1  0
 27 15  1  0
 24 18  1  0
  1 33  1  0
  1 34  1  0
  1 35  1  0
  2 36  1  6
  3 37  1  0
  3 38  1  0
  4 39  1  0
  4 40  1  0
  5 41  1  6
  8 42  1  0
  8 43  1  0
  8 44  1  0
  9 45  1  0
  9 46  1  0
  9 47  1  0
 10 48  1  1
 11 49  1  0
 11 50  1  0
 12 51  1  0
 12 52  1  0
 14 53  1  0
 14 54  1  0
 14 55  1  0
 15 56  1  6
 16 57  1  0
 16 58  1  0
 17 59  1  0
 19 60  1  1
 20 61  1  0
 20 62  1  0
 21 63  1  0
 21 64  1  0
 22 65  1  1
 23 66  1  0
 25 67  1  0
 25 68  1  0
 25 69  1  0
 26 70  1  0
 26 71  1  0
 26 72  1  0
 28 73  1  0
 28 74  1  0
 28 75  1  0
 29 76  1  0
 29 77  1  0
 30 78  1  0
 30 79  1  0
 32 80  1  0
 32 81  1  0
 32 82  1  0
M  END
>  <meeko>  (9) 
{"is_sidechain": [false], "intermolecular_energy": 2.731, "internal_energy": -0.839}

$$$$
EPH_relaxed_0001_pdb2pqr_Repair_176_r2_0001_out
     RDKit          3D

 82 86  0  0  0  0  0  0  0  0999 V2000
    4.0750   16.9810   -0.7970 C   0  0  0  0  0  0  0  0  0  0  0  0
    2.7060   17.6100   -0.5230 C   0  0  2  0  0  0  0  0  0  0  0  0
    2.7500   18.6070    0.6530 C   0  0  0  0  0  0  0  0  0  0  0  0
    4.1260   18.7160    1.3160 C   0  0  0  0  0  0  0  0  0  0  0  0
    4.0330   19.3060    2.6910 C   0  0  2  0  0  0  0  0  0  0  0  0
    5.1040   20.1940    3.0350 O   0  0  0  0  0  0  0  0  0  0  0  0
    5.0100   18.9860    3.8060 C   0  0  0  0  0  0  0  0  0  0  0  0
    6.1510   18.0400    3.5970 C   0  0  0  0  0  0  0  0  0  0  0  0
    4.5770   19.2080    5.2220 C   0  0  0  0  0  0  0  0  0  0  0  0
    1.6800   16.5190   -0.2420 C   0  0  1  0  0  0  0  0  0  0  0  0
    0.3440   17.0840    0.3120 C   0  0  0  0  0  0  0  0  0  0  0  0
   -0.7890   16.1910   -0.2560 C   0  0  0  0  0  0  0  0  0  0  0  0
   -0.0580   14.9580   -0.8380 C   0  0  1  0  0  0  0  0  0  0  0  0
    0.2210   14.0390    0.3920 C   0  0  0  0  0  0  0  0  0  0  0  0
   -0.8030   14.1870   -1.9770 C   0  0  2  0  0  0  0  0  0  0  0  0
   -2.1470   13.5590   -1.5680 C   0  0  0  0  0  0  0  0  0  0  0  0
   -2.0680   12.1590   -1.0570 C   0  0  0  0  0  0  0  0  0  0  0  0
   -1.0130   11.3350   -1.1930 C   0  0  0  0  0  0  0  0  0  0  0  0
    0.2170   11.7580   -2.0070 C   0  0  1  0  0  0  0  0  0  0  0  0
    0.6340   10.6020   -2.9540 C   0  0  0  0  0  0  0  0  0  0  0  0
    0.8490    9.2870   -2.2120 C   0  0  0  0  0  0  0  0  0  0  0  0
   -0.4130    8.8700   -1.4630 C   0  0  2  0  0  0  0  0  0  0  0  0
   -1.4320    8.5530   -2.4160 O   0  0  0  0  0  0  0  0  0  0  0  0
   -0.9340    9.9600   -0.4850 C   0  0  0  0  0  0  0  0  0  0  0  0
    0.0360   10.0880    0.7160 C   0  0  0  0  0  0  0  0  0  0  0  0
   -2.2860    9.4710    0.1000 C   0  0  0  0  0  0  0  0  0  0  0  0
    0.1030   13.1530   -2.7600 C   0  0  1  0  0  0  0  0  0  0  0  0
   -0.5580   12.9510   -4.1580 C   0  0  0  0  0  0  0  0  0  0  0  0
    1.5510   13.7110   -3.0300 C   0  0  0  0  0  0  0  0  0  0  0  0
    2.1850   14.5650   -1.9150 C   0  0  0  0  0  0  0  0  0  0  0  0
    1.2170   15.6520   -1.4400 C   0  0  2  0  0  0  0  0  0  0  0  0
    0.9350   16.6050   -2.6510 C   0  0  0  0  0  0  0  0  0  0  0  0
    4.5714   16.7529    0.1577 H   0  0  0  0  0  0  0  0  0  0  0  0
    3.9435   16.0530   -1.3728 H   0  0  0  0  0  0  0  0  0  0  0  0
    4.6935   17.6852   -1.3728 H   0  0  0  0  0  0  0  0  0  0  0  0
    2.4142   18.1724   -1.4222 H   0  0  0  0  0  0  0  0  0  0  0  0
    2.4661   19.6008    0.2766 H   0  0  0  0  0  0  0  0  0  0  0  0
    2.0532   18.2332    1.4177 H   0  0  0  0  0  0  0  0  0  0  0  0
    4.5677   17.7111    1.3882 H   0  0  0  0  0  0  0  0  0  0  0  0
    4.7523   19.3781    0.7001 H   0  0  0  0  0  0  0  0  0  0  0  0
    2.9339   19.2946    2.6471 H   0  0  0  0  0  0  0  0  0  0  0  0
    6.5420   17.7158    4.5727 H   0  0  0  0  0  0  0  0  0  0  0  0
    5.8015   17.1631    3.0323 H   0  0  0  0  0  0  0  0  0  0  0  0
    6.9480   18.5459    3.0323 H   0  0  0  0  0  0  0  0  0  0  0  0
    5.3437   18.8149    5.9058 H   0  0  0  0  0  0  0  0  0  0  0  0
    4.4443   20.2853    5.4002 H   0  0  0  0  0  0  0  0  0  0  0  0
    3.6248   18.6869    5.4002 H   0  0  0  0  0  0  0  0  0  0  0  0
    2.2538   15.9045    0.4674 H   0  0  0  0  0  0  0  0  0  0  0  0
    0.3427   17.0441    1.4113 H   0  0  0  0  0  0  0  0  0  0  0  0
    0.2058   18.1341    0.0149 H   0  0  0  0  0  0  0  0  0  0  0  0
   -1.4835   15.8900    0.5422 H   0  0  0  0  0  0  0  0  0  0  0  0
   -1.3932   16.7136   -1.0122 H   0  0  0  0  0  0  0  0  0  0  0  0
    0.0491   14.6052    1.3193 H   0  0  0  0  0  0  0  0  0  0  0  0
   -0.4541   13.1711    0.3619 H   0  0  0  0  0  0  0  0  0  0  0  0
    1.2647   13.6929    0.3619 H   0  0  0  0  0  0  0  0  0  0  0  0
   -1.0516   14.9925   -2.6837 H   0  0  0  0  0  0  0  0  0  0  0  0
   -2.5879   14.1847   -0.7780 H   0  0  0  0  0  0  0  0  0  0  0  0
   -2.7531   13.5142   -2.4848 H   0  0  0  0  0  0  0  0  0  0  0  0
   -2.9469   11.7675   -0.5239 H   0  0  0  0  0  0  0  0  0  0  0  0
    1.0161   11.9471   -1.2751 H   0  0  0  0  0  0  0  0  0  0  0  0
   -0.1572   10.4581   -3.7045 H   0  0  0  0  0  0  0  0  0  0  0  0
    1.5895   10.8816   -3.4217 H   0  0  0  0  0  0  0  0  0  0  0  0
    1.1123    8.5033   -2.9376 H   0  0  0  0  0  0  0  0  0  0  0  0
    1.6606    9.4246   -1.4824 H   0  0  0  0  0  0  0  0  0  0  0  0
   -0.1568    7.9940   -0.8490 H   0  0  0  0  0  0  0  0  0  0  0  0
   -1.3850    9.2140   -3.1280 H   0  0  0  0  0  0  0  0  0  0  0  0
   -0.5315   10.0131    1.6553 H   0  0  0  0  0  0  0  0  0  0  0  0
    0.7817    9.2805    0.6728 H   0  0  0  0  0  0  0  0  0  0  0  0
    0.5467   11.0613    0.6728 H   0  0  0  0  0  0  0  0  0  0  0  0
   -2.2378    9.4884    1.1988 H   0  0  0  0  0  0  0  0  0  0  0  0
   -3.0946   10.1336   -0.2421 H   0  0  0  0  0  0  0  0  0  0  0  0
   -2.4837    8.4444   -0.2421 H   0  0  0  0  0  0  0  0  0  0  0  0
   -1.6025   12.6318   -4.0271 H   0  0  0  0  0  0  0  0  0  0  0  0
   -0.5314   13.8983   -4.7165 H   0  0  0  0  0  0  0  0  0  0  0  0
   -0.0064   12.1804   -4.7165 H   0  0  0  0  0  0  0  0  0  0  0  0
    2.2121   12.8497   -3.2063 H   0  0  0  0  0  0  0  0  0  0  0  0
    1.4423   14.3914   -3.8874 H   0  0  0  0  0  0  0  0  0  0  0  0
    2.4411   13.9149   -1.0654 H   0  0  0  0  0  0  0  0  0  0  0  0
    3.0879   15.0497   -2.3148 H   0  0  0  0  0  0  0  0  0  0  0  0
    0.6415   17.5968   -2.2765 H   0  0  0  0  0  0  0  0  0  0  0  0
    1.8440   16.6985   -3.2634 H   0  0  0  0  0  0  0  0  0  0  0  0
    0.1215   16.1888   -3.2634 H   0  0  0  0  0  0  0  0  0  0  0  0
  1  2  1  0
  2  3  1  0
  3  4  1  0
  4  5  1  0
  5  6  1  0
  6  7  1  0
  7  8  1  0
  7  9  1  0
  2 10  1  0
 10 11  1  0
 11 12  1  0
 12 13  1  0
 13 14  1  1
 13 15  1  0
 15 16  1  0
 16 17  1  0
 17 18  2  0
 18 19  1  0
 19 20  1  0
 20 21  1  0
 21 22  1  0
 22 23  1  0
 22 24  1  0
 24 25  1  0
 24 26  1  0
 19 27  1  0
 27 28  1  6
 27 29  1  0
 29 30  1  0
 30 31  1  0
 31 32  1  6
  7  5  1  0
 31 10  1  0
 31 13  1  0
 27 15  1  0
 24 18  1  0
  1 33  1  0
  1 34  1  0
  1 35  1  0
  2 36  1  6
  3 37  1  0
  3 38  1  0
  4 39  1  0
  4 40  1  0
  5 41  1  1
  8 42  1  0
  8 43  1  0
  8 44  1  0
  9 45  1  0
  9 46  1  0
  9 47  1  0
 10 48  1  1
 11 49  1  0
 11 50  1  0
 12 51  1  0
 12 52  1  0
 14 53  1  0
 14 54  1  0
 14 55  1  0
 15 56  1  6
 16 57  1  0
 16 58  1  0
 17 59  1  0
 19 60  1  1
 20 61  1  0
 20 62  1  0
 21 63  1  0
 21 64  1  0
 22 65  1  1
 23 66  1  0
 25 67  1  0
 25 68  1  0
 25 69  1  0
 26 70  1  0
 26 71  1  0
 26 72  1  0
 28 73  1  0
 28 74  1  0
 28 75  1  0
 29 76  1  0
 29 77  1  0
 30 78  1  0
 30 79  1  0
 32 80  1  0
 32 81  1  0
 32 82  1  0
M  END
>  <meeko>  (10) 
{"is_sidechain": [false], "intermolecular_energy": 2.731, "internal_energy": -0.839}

$$$$
EPH_relaxed_0001_pdb2pqr_Repair_176_r2_0001_out
     RDKit          3D

 82 86  0  0  0  0  0  0  0  0999 V2000
  -14.0390    9.7920    0.8260 C   0  0  0  0  0  0  0  0  0  0  0  0
  -13.3930    9.2940   -0.4700 C   0  0  2  0  0  0  0  0  0  0  0  0
  -14.3290    8.3640   -1.2670 C   0  0  0  0  0  0  0  0  0  0  0  0
  -14.5690    8.8190   -2.7080 C   0  0  0  0  0  0  0  0  0  0  0  0
  -15.2730   10.1410   -2.7620 C   0  0  2  0  0  0  0  0  0  0  0  0
  -15.0870   10.8700   -3.9820 O   0  0  0  0  0  0  0  0  0  0  0  0
  -14.5490   11.4740   -2.7950 C   0  0  0  0  0  0  0  0  0  0  0  0
  -13.0550   11.5510   -2.7740 C   0  0  0  0  0  0  0  0  0  0  0  0
  -15.2870   12.7000   -2.3550 C   0  0  0  0  0  0  0  0  0  0  0  0
  -12.0870    8.5740   -0.1560 C   0  0  1  0  0  0  0  0  0  0  0  0
  -12.2590    7.4650    0.9160 C   0  0  0  0  0  0  0  0  0  0  0  0
  -11.2840    6.3210    0.5360 C   0  0  0  0  0  0  0  0  0  0  0  0
  -10.3550    6.9390   -0.5340 C   0  0  1  0  0  0  0  0  0  0  0  0
   -9.2920    7.7460    0.2750 C   0  0  0  0  0  0  0  0  0  0  0  0
   -9.6840    5.9370   -1.5290 C   0  0  2  0  0  0  0  0  0  0  0  0
   -8.7360    4.9120   -0.8830 C   0  0  0  0  0  0  0  0  0  0  0  0
   -7.3080    5.3360   -0.7860 C   0  0  0  0  0  0  0  0  0  0  0  0
   -6.7510    6.3650   -1.4520 C   0  0  0  0  0  0  0  0  0  0  0  0
   -7.5570    7.1640   -2.4840 C   0  0  1  0  0  0  0  0  0  0  0  0
   -6.7090    7.3530   -3.7690 C   0  0  0  0  0  0  0  0  0  0  0  0
   -5.3460    7.9760   -3.4850 C   0  0  0  0  0  0  0  0  0  0  0  0
   -4.5510    7.1220   -2.5000 C   0  0  2  0  0  0  0  0  0  0  0  0
   -4.2270    5.8770   -3.1260 O   0  0  0  0  0  0  0  0  0  0  0  0
   -5.3090    6.8560   -1.1690 C   0  0  0  0  0  0  0  0  0  0  0  0
   -5.3950    8.1660   -0.3480 C   0  0  0  0  0  0  0  0  0  0  0  0
   -4.4600    5.8690   -0.3240 C   0  0  0  0  0  0  0  0  0  0  0  0
   -9.0190    6.6230   -2.7910 C   0  0  1  0  0  0  0  0  0  0  0  0
   -8.9610    5.5380   -3.9090 C   0  0  0  0  0  0  0  0  0  0  0  0
   -9.8940    7.8020   -3.3610 C   0  0  0  0  0  0  0  0  0  0  0  0
  -10.6280    8.6830   -2.3320 C   0  0  0  0  0  0  0  0  0  0  0  0
  -11.3900    7.8240   -1.3190 C   0  0  2  0  0  0  0  0  0  0  0  0
  -12.4820    7.0170   -2.1020 C   0  0  0  0  0  0  0  0  0  0  0  0
  -13.4985    9.3754    1.6887 H   0  0  0  0  0  0  0  0  0  0  0  0
  -13.9929   10.8905    0.8601 H   0  0  0  0  0  0  0  0  0  0  0  0
  -15.0896    9.4679    0.8601 H   0  0  0  0  0  0  0  0  0  0  0  0
  -13.1911   10.1743   -1.0979 H   0  0  0  0  0  0  0  0  0  0  0  0
  -13.8823    7.3591   -1.2902 H   0  0  0  0  0  0  0  0  0  0  0  0
  -15.3046    8.3787   -0.7591 H   0  0  0  0  0  0  0  0  0  0  0  0
  -13.5993    8.9104   -3.2191 H   0  0  0  0  0  0  0  0  0  0  0  0
  -15.2062    8.0708   -3.2022 H   0  0  0  0  0  0  0  0  0  0  0  0
  -16.0874    9.7589   -2.1290 H   0  0  0  0  0  0  0  0  0  0  0  0
  -12.7034   11.5691   -1.7319 H   0  0  0  0  0  0  0  0  0  0  0  0
  -12.6354   10.6733   -3.2873 H   0  0  0  0  0  0  0  0  0  0  0  0
  -12.7278   12.4672   -3.2873 H   0  0  0  0  0  0  0  0  0  0  0  0
  -15.3106   12.7391   -1.2559 H   0  0  0  0  0  0  0  0  0  0  0  0
  -14.7769   13.5940   -2.7429 H   0  0  0  0  0  0  0  0  0  0  0  0
  -16.3158   12.6676   -2.7429 H   0  0  0  0  0  0  0  0  0  0  0  0
  -11.4749    9.4322    0.1582 H   0  0  0  0  0  0  0  0  0  0  0  0
  -12.0104    7.8594    1.9123 H   0  0  0  0  0  0  0  0  0  0  0  0
  -13.2977    7.1044    0.9483 H   0  0  0  0  0  0  0  0  0  0  0  0
  -10.7045    5.9974    1.4132 H   0  0  0  0  0  0  0  0  0  0  0  0
  -11.8113    5.4295    0.1657 H   0  0  0  0  0  0  0  0  0  0  0  0
   -9.4704    7.6105    1.3519 H   0  0  0  0  0  0  0  0  0  0  0  0
   -8.2851    7.3828    0.0216 H   0  0  0  0  0  0  0  0  0  0  0  0
   -9.3712    8.8135    0.0216 H   0  0  0  0  0  0  0  0  0  0  0  0
  -10.5446    5.3587   -1.8962 H   0  0  0  0  0  0  0  0  0  0  0  0
   -9.0995    4.7073    0.1348 H   0  0  0  0  0  0  0  0  0  0  0  0
   -8.7474    4.0305   -1.5409 H   0  0  0  0  0  0  0  0  0  0  0  0
   -6.6559    4.7591   -0.1137 H   0  0  0  0  0  0  0  0  0  0  0  0
   -7.7580    8.1421   -2.0226 H   0  0  0  0  0  0  0  0  0  0  0  0
   -6.5563    6.3699   -4.2383 H   0  0  0  0  0  0  0  0  0  0  0  0
   -7.2571    8.0381   -4.4325 H   0  0  0  0  0  0  0  0  0  0  0  0
   -4.7837    8.0569   -4.4270 H   0  0  0  0  0  0  0  0  0  0  0  0
   -5.4999    8.9713   -3.0426 H   0  0  0  0  0  0  0  0  0  0  0  0
   -3.6419    7.6825   -2.2366 H   0  0  0  0  0  0  0  0  0  0  0  0
   -3.7980    5.3150   -2.4590 H   0  0  0  0  0  0  0  0  0  0  0  0
   -5.3793    7.9275    0.7257 H   0  0  0  0  0  0  0  0  0  0  0  0
   -4.5372    8.8094   -0.5932 H   0  0  0  0  0  0  0  0  0  0  0  0
   -6.3296    8.6917   -0.5932 H   0  0  0  0  0  0  0  0  0  0  0  0
   -4.6276    6.0639    0.7455 H   0  0  0  0  0  0  0  0  0  0  0  0
   -4.7562    4.8361   -0.5593 H   0  0  0  0  0  0  0  0  0  0  0  0
   -3.3944    6.0075   -0.5593 H   0  0  0  0  0  0  0  0  0  0  0  0
   -8.9077    4.5402   -3.4491 H   0  0  0  0  0  0  0  0  0  0  0  0
   -9.8641    5.6062   -4.5333 H   0  0  0  0  0  0  0  0  0  0  0  0
   -8.0703    5.7021   -4.5333 H   0  0  0  0  0  0  0  0  0  0  0  0
   -9.2306    8.4560   -3.9460 H   0  0  0  0  0  0  0  0  0  0  0  0
  -10.6904    7.3143   -3.9423 H   0  0  0  0  0  0  0  0  0  0  0  0
   -9.8918    9.3014   -1.7976 H   0  0  0  0  0  0  0  0  0  0  0  0
  -11.3498    9.3185   -2.8660 H   0  0  0  0  0  0  0  0  0  0  0  0
  -13.1541    6.5203   -1.3867 H   0  0  0  0  0  0  0  0  0  0  0  0
  -13.0629    7.7045   -2.7344 H   0  0  0  0  0  0  0  0  0  0  0  0
  -11.9953    6.2599   -2.7344 H   0  0  0  0  0  0  0  0  0  0  0  0
  1  2  1  0
  2  3  1  0
  3  4  1  0
  4  5  1  0
  5  6  1  0
  6  7  1  0
  7  8  1  0
  7  9  1  0
  2 10  1  0
 10 11  1  0
 11 12  1  0
 12 13  1  0
 13 14  1  1
 13 15  1  0
 15 16  1  0
 16 17  1  0
 17 18  2  0
 18 19  1  0
 19 20  1  0
 20 21  1  0
 21 22  1  0
 22 23  1  0
 22 24  1  0
 24 25  1  0
 24 26  1  0
 19 27  1  0
 27 28  1  6
 27 29  1  0
 29 30  1  0
 30 31  1  0
 31 32  1  6
  7  5  1  0
 31 10  1  0
 31 13  1  0
 27 15  1  0
 24 18  1  0
  1 33  1  0
  1 34  1  0
  1 35  1  0
  2 36  1  6
  3 37  1  0
  3 38  1  0
  4 39  1  0
  4 40  1  0
  5 41  1  1
  8 42  1  0
  8 43  1  0
  8 44  1  0
  9 45  1  0
  9 46  1  0
  9 47  1  0
 10 48  1  1
 11 49  1  0
 11 50  1  0
 12 51  1  0
 12 52  1  0
 14 53  1  0
 14 54  1  0
 14 55  1  0
 15 56  1  6
 16 57  1  0
 16 58  1  0
 17 59  1  0
 19 60  1  1
 20 61  1  0
 20 62  1  0
 21 63  1  0
 21 64  1  0
 22 65  1  1
 23 66  1  0
 25 67  1  0
 25 68  1  0
 25 69  1  0
 26 70  1  0
 26 71  1  0
 26 72  1  0
 28 73  1  0
 28 74  1  0
 28 75  1  0
 29 76  1  0
 29 77  1  0
 30 78  1  0
 30 79  1  0
 32 80  1  0
 32 81  1  0
 32 82  1  0
M  END
>  <meeko>  (11) 
{"is_sidechain": [false], "intermolecular_energy": 2.731, "internal_energy": -0.839}

$$$$
EPH_relaxed_0001_pdb2pqr_Repair_176_r2_0001_out
     RDKit          3D

 82 86  0  0  0  0  0  0  0  0999 V2000
  -14.5060    9.7970    0.8870 C   0  0  0  0  0  0  0  0  0  0  0  0
  -13.7440    9.3250   -0.3550 C   0  0  2  0  0  0  0  0  0  0  0  0
  -14.3720    8.0610   -0.9760 C   0  0  0  0  0  0  0  0  0  0  0  0
  -15.2870    8.3510   -2.1690 C   0  0  0  0  0  0  0  0  0  0  0  0
  -15.0800    7.3670   -3.2790 C   0  0  2  0  0  0  0  0  0  0  0  0
  -13.8250    7.4900   -3.9610 O   0  0  0  0  0  0  0  0  0  0  0  0
  -15.0000    7.7600   -4.7420 C   0  0  0  0  0  0  0  0  0  0  0  0
  -15.1290    9.1870   -5.1750 C   0  0  0  0  0  0  0  0  0  0  0  0
  -15.2870    6.7200   -5.7790 C   0  0  0  0  0  0  0  0  0  0  0  0
  -12.2850    9.0620   -0.0010 C   0  0  1  0  0  0  0  0  0  0  0  0
  -12.0710    8.8340    1.5190 C   0  0  0  0  0  0  0  0  0  0  0  0
  -10.9380    7.7840    1.6590 C   0  0  0  0  0  0  0  0  0  0  0  0
  -10.3170    7.6910    0.2460 C   0  0  1  0  0  0  0  0  0  0  0  0
   -9.3470    8.9110    0.1530 C   0  0  0  0  0  0  0  0  0  0  0  0
   -9.5930    6.3500   -0.1030 C   0  0  2  0  0  0  0  0  0  0  0  0
   -8.3710    6.0210    0.7710 C   0  0  0  0  0  0  0  0  0  0  0  0
   -7.0650    6.5330    0.2600 C   0  0  0  0  0  0  0  0  0  0  0  0
   -6.8340    6.9790   -0.9880 C   0  0  0  0  0  0  0  0  0  0  0  0
   -7.9240    6.9060   -2.0650 C   0  0  1  0  0  0  0  0  0  0  0  0
   -7.3210    6.3370   -3.3760 C   0  0  0  0  0  0  0  0  0  0  0  0
   -6.0930    7.1140   -3.8400 C   0  0  0  0  0  0  0  0  0  0  0  0
   -5.0090    7.1150   -2.7660 C   0  0  2  0  0  0  0  0  0  0  0  0
   -4.5190    5.7800   -2.6050 O   0  0  0  0  0  0  0  0  0  0  0  0
   -5.5040    7.6590   -1.3960 C   0  0  0  0  0  0  0  0  0  0  0  0
   -5.7490    9.1850   -1.5010 C   0  0  0  0  0  0  0  0  0  0  0  0
   -4.3570    7.4740   -0.3660 C   0  0  0  0  0  0  0  0  0  0  0  0
   -9.2680    6.1700   -1.6420 C   0  0  1  0  0  0  0  0  0  0  0  0
   -9.1370    4.6370   -1.8930 C   0  0  0  0  0  0  0  0  0  0  0  0
  -10.4410    6.6730   -2.5640 C   0  0  0  0  0  0  0  0  0  0  0  0
  -11.1960    7.9340   -2.1030 C   0  0  0  0  0  0  0  0  0  0  0  0
  -11.6130    7.8180   -0.6340 C   0  0  2  0  0  0  0  0  0  0  0  0
  -12.6070    6.6130   -0.5140 C   0  0  0  0  0  0  0  0  0  0  0  0
  -13.9735    9.4672    1.7912 H   0  0  0  0  0  0  0  0  0  0  0  0
  -14.5729   10.8949    0.8809 H   0  0  0  0  0  0  0  0  0  0  0  0
  -15.5188    9.3679    0.8809 H   0  0  0  0  0  0  0  0  0  0  0  0
  -13.8055   10.1268   -1.1056 H   0  0  0  0  0  0  0  0  0  0  0  0
  -13.5602    7.3998   -1.3136 H   0  0  0  0  0  0  0  0  0  0  0  0
  -14.9956    7.5964   -0.1980 H   0  0  0  0  0  0  0  0  0  0  0  0
  -16.3341    8.2977   -1.8362 H   0  0  0  0  0  0  0  0  0  0  0  0
  -15.0448    9.3538   -2.5506 H   0  0  0  0  0  0  0  0  0  0  0  0
  -15.6773    6.6095   -2.7504 H   0  0  0  0  0  0  0  0  0  0  0  0
  -15.1876    9.8354   -4.2883 H   0  0  0  0  0  0  0  0  0  0  0  0
  -14.2526    9.4680   -5.7774 H   0  0  0  0  0  0  0  0  0  0  0  0
  -16.0416    9.3063   -5.7774 H   0  0  0  0  0  0  0  0  0  0  0  0
  -15.5485    5.7724   -5.2854 H   0  0  0  0  0  0  0  0  0  0  0  0
  -16.1275    7.0505   -6.4069 H   0  0  0  0  0  0  0  0  0  0  0  0
  -14.3959    6.5726   -6.4069 H   0  0  0  0  0  0  0  0  0  0  0  0
  -11.8297    9.9800   -0.4009 H   0  0  0  0  0  0  0  0  0  0  0  0
  -11.7769    9.7757    2.0056 H   0  0  0  0  0  0  0  0  0  0  0  0
  -12.9961    8.4832    1.9998 H   0  0  0  0  0  0  0  0  0  0  0  0
  -10.1882    8.1169    2.3918 H   0  0  0  0  0  0  0  0  0  0  0  0
  -11.3107    6.8126    2.0160 H   0  0  0  0  0  0  0  0  0  0  0  0
   -9.0808    9.2458    1.1664 H   0  0  0  0  0  0  0  0  0  0  0  0
   -8.4354    8.6144   -0.3865 H   0  0  0  0  0  0  0  0  0  0  0  0
   -9.8414    9.7323   -0.3865 H   0  0  0  0  0  0  0  0  0  0  0  0
  -10.3541    5.5982    0.1531 H   0  0  0  0  0  0  0  0  0  0  0  0
   -8.5395    6.4545    1.7678 H   0  0  0  0  0  0  0  0  0  0  0  0
   -8.2869    4.9242    0.7760 H   0  0  0  0  0  0  0  0  0  0  0  0
   -6.2197    6.5467    0.9638 H   0  0  0  0  0  0  0  0  0  0  0  0
   -8.2597    7.9408   -2.2277 H   0  0  0  0  0  0  0  0  0  0  0  0
   -7.0319    5.2894   -3.2057 H   0  0  0  0  0  0  0  0  0  0  0  0
   -8.0869    6.4229   -4.1609 H   0  0  0  0  0  0  0  0  0  0  0  0
   -5.6949    6.6463   -4.7526 H   0  0  0  0  0  0  0  0  0  0  0  0
   -6.3907    8.1542   -4.0387 H   0  0  0  0  0  0  0  0  0  0  0  0
   -4.2112    7.7934   -3.1028 H   0  0  0  0  0  0  0  0  0  0  0  0
   -4.9040    5.4220   -1.7870 H   0  0  0  0  0  0  0  0  0  0  0  0
   -5.8181    9.6156   -0.4911 H   0  0  0  0  0  0  0  0  0  0  0  0
   -4.9146    9.6539   -2.0432 H   0  0  0  0  0  0  0  0  0  0  0  0
   -6.6882    9.3691   -2.0432 H   0  0  0  0  0  0  0  0  0  0  0  0
   -4.7653    7.5399    0.6533 H   0  0  0  0  0  0  0  0  0  0  0  0
   -3.8895    6.4889   -0.5108 H   0  0  0  0  0  0  0  0  0  0  0  0
   -3.6035    8.2622   -0.5108 H   0  0  0  0  0  0  0  0  0  0  0  0
   -9.0920    4.1101   -0.9285 H   0  0  0  0  0  0  0  0  0  0  0  0
  -10.0082    4.2831   -2.4638 H   0  0  0  0  0  0  0  0  0  0  0  0
   -8.2184    4.4361   -2.4638 H   0  0  0  0  0  0  0  0  0  0  0  0
  -10.0168    6.8837   -3.5568 H   0  0  0  0  0  0  0  0  0  0  0  0
  -11.1888    5.8666   -2.5434 H   0  0  0  0  0  0  0  0  0  0  0  0
  -10.5408    8.8094   -2.2228 H   0  0  0  0  0  0  0  0  0  0  0  0
  -12.1022    8.0438   -2.7168 H   0  0  0  0  0  0  0  0  0  0  0  0
  -12.7891    6.3923    0.5481 H   0  0  0  0  0  0  0  0  0  0  0  0
  -13.5578    6.8719   -1.0029 H   0  0  0  0  0  0  0  0  0  0  0  0
  -12.1721    5.7288   -1.0029 H   0  0  0  0  0  0  0  0  0  0  0  0
  1  2  1  0
  2  3  1  0
  3  4  1  0
  4  5  1  0
  5  6  1  0
  6  7  1  0
  7  8  1  0
  7  9  1  0
  2 10  1  0
 10 11  1  0
 11 12  1  0
 12 13  1  0
 13 14  1  6
 13 15  1  0
 15 16  1  0
 16 17  1  0
 17 18  2  0
 18 19  1  0
 19 20  1  0
 20 21  1  0
 21 22  1  0
 22 23  1  0
 22 24  1  0
 24 25  1  0
 24 26  1  0
 19 27  1  0
 27 28  1  1
 27 29  1  0
 29 30  1  0
 30 31  1  0
 31 32  1  6
  7  5  1  0
 31 10  1  0
 31 13  1  0
 27 15  1  0
 24 18  1  0
  1 33  1  0
  1 34  1  0
  1 35  1  0
  2 36  1  6
  3 37  1  0
  3 38  1  0
  4 39  1  0
  4 40  1  0
  5 41  1  6
  8 42  1  0
  8 43  1  0
  8 44  1  0
  9 45  1  0
  9 46  1  0
  9 47  1  0
 10 48  1  6
 11 49  1  0
 11 50  1  0
 12 51  1  0
 12 52  1  0
 14 53  1  0
 14 54  1  0
 14 55  1  0
 15 56  1  1
 16 57  1  0
 16 58  1  0
 17 59  1  0
 19 60  1  6
 20 61  1  0
 20 62  1  0
 21 63  1  0
 21 64  1  0
 22 65  1  6
 23 66  1  0
 25 67  1  0
 25 68  1  0
 25 69  1  0
 26 70  1  0
 26 71  1  0
 26 72  1  0
 28 73  1  0
 28 74  1  0
 28 75  1  0
 29 76  1  0
 29 77  1  0
 30 78  1  0
 30 79  1  0
 32 80  1  0
 32 81  1  0
 32 82  1  0
M  END
>  <meeko>  (12) 
{"is_sidechain": [false], "intermolecular_energy": 2.731, "internal_energy": -0.839}

$$$$
EPH_relaxed_0001_pdb2pqr_Repair_176_r2_0001_out
     RDKit          3D

 82 86  0  0  0  0  0  0  0  0999 V2000
  -12.7800   10.7920   -2.2020 C   0  0  0  0  0  0  0  0  0  0  0  0
  -13.0310    9.5420   -1.3540 C   0  0  2  0  0  0  0  0  0  0  0  0
  -13.9840    9.8230   -0.1740 C   0  0  0  0  0  0  0  0  0  0  0  0
  -15.2310    8.9350   -0.1670 C   0  0  0  0  0  0  0  0  0  0  0  0
  -15.0280    7.7010    0.6600 C   0  0  2  0  0  0  0  0  0  0  0  0
  -13.7920    7.0160    0.4200 O   0  0  0  0  0  0  0  0  0  0  0  0
  -14.9890    6.3010    0.0770 C   0  0  0  0  0  0  0  0  0  0  0  0
  -15.1560    6.0610   -1.3910 C   0  0  0  0  0  0  0  0  0  0  0  0
  -15.2780    5.1420    0.9800 C   0  0  0  0  0  0  0  0  0  0  0  0
  -11.7070    8.9920   -0.8350 C   0  0  1  0  0  0  0  0  0  0  0  0
  -11.8570    8.2580    0.5240 C   0  0  0  0  0  0  0  0  0  0  0  0
  -10.8460    7.0830    0.5120 C   0  0  0  0  0  0  0  0  0  0  0  0
   -9.9250    7.3730   -0.6960 C   0  0  1  0  0  0  0  0  0  0  0  0
   -8.8940    8.4210   -0.1710 C   0  0  0  0  0  0  0  0  0  0  0  0
   -9.2170    6.1360   -1.3380 C   0  0  2  0  0  0  0  0  0  0  0  0
   -8.2460    5.3860   -0.4090 C   0  0  0  0  0  0  0  0  0  0  0  0
   -6.8310    5.8630   -0.4470 C   0  0  0  0  0  0  0  0  0  0  0  0
   -6.2980    6.6560   -1.3940 C   0  0  0  0  0  0  0  0  0  0  0  0
   -7.1170    7.0780   -2.6210 C   0  0  1  0  0  0  0  0  0  0  0  0
   -6.2640    6.8910   -3.9030 C   0  0  0  0  0  0  0  0  0  0  0  0
   -4.9210    7.6120   -3.8220 C   0  0  0  0  0  0  0  0  0  0  0  0
   -4.1120    7.1240   -2.6230 C   0  0  2  0  0  0  0  0  0  0  0  0
   -3.7460    5.7570   -2.8390 O   0  0  0  0  0  0  0  0  0  0  0  0
   -4.8740    7.2530   -1.2750 C   0  0  0  0  0  0  0  0  0  0  0  0
   -5.0050    8.7490   -0.8930 C   0  0  0  0  0  0  0  0  0  0  0  0
   -4.0040    6.5970   -0.1690 C   0  0  0  0  0  0  0  0  0  0  0  0
   -8.5610    6.4250   -2.7490 C   0  0  1  0  0  0  0  0  0  0  0  0
   -8.4610    5.0520   -3.4820 C   0  0  0  0  0  0  0  0  0  0  0  0
   -9.4640    7.3460   -3.6510 C   0  0  0  0  0  0  0  0  0  0  0  0
  -10.2320    8.4760   -2.9400 C   0  0  0  0  0  0  0  0  0  0  0  0
  -10.9790    7.9450   -1.7130 C   0  0  2  0  0  0  0  0  0  0  0  0
  -12.0390    6.9050   -2.2130 C   0  0  0  0  0  0  0  0  0  0  0  0
  -12.6068   11.6544   -1.5415 H   0  0  0  0  0  0  0  0  0  0  0  0
  -11.8959   10.6330   -2.8368 H   0  0  0  0  0  0  0  0  0  0  0  0
  -13.6570   10.9866   -2.8368 H   0  0  0  0  0  0  0  0  0  0  0  0
  -13.5163    8.7953   -1.9997 H   0  0  0  0  0  0  0  0  0  0  0  0
  -13.4340    9.6571    0.7641 H   0  0  0  0  0  0  0  0  0  0  0  0
  -14.3292   10.8621   -0.2792 H   0  0  0  0  0  0  0  0  0  0  0  0
  -16.0740    9.5073    0.2475 H   0  0  0  0  0  0  0  0  0  0  0  0
  -15.4367    8.6243   -1.2020 H   0  0  0  0  0  0  0  0  0  0  0  0
  -15.5969    8.1377    1.4940 H   0  0  0  0  0  0  0  0  0  0  0  0
  -15.7778    5.1673   -1.5480 H   0  0  0  0  0  0  0  0  0  0  0  0
  -15.6437    6.9326   -1.8519 H   0  0  0  0  0  0  0  0  0  0  0  0
  -14.1692    5.9067   -1.8519 H   0  0  0  0  0  0  0  0  0  0  0  0
  -15.1975    5.4650    2.0284 H   0  0  0  0  0  0  0  0  0  0  0  0
  -16.2959    4.7721    0.7875 H   0  0  0  0  0  0  0  0  0  0  0  0
  -14.5530    4.3375    0.7875 H   0  0  0  0  0  0  0  0  0  0  0  0
  -11.1227    9.9232   -0.7975 H   0  0  0  0  0  0  0  0  0  0  0  0
  -11.6296    8.9449    1.3526 H   0  0  0  0  0  0  0  0  0  0  0  0
  -12.8851    7.8928    0.6641 H   0  0  0  0  0  0  0  0  0  0  0  0
  -10.2657    7.0605    1.4462 H   0  0  0  0  0  0  0  0  0  0  0  0
  -11.3437    6.1053    0.4318 H   0  0  0  0  0  0  0  0  0  0  0  0
   -8.8964    8.4185    0.9290 H   0  0  0  0  0  0  0  0  0  0  0  0
   -7.8893    8.1616   -0.5360 H   0  0  0  0  0  0  0  0  0  0  0  0
   -9.1698    9.4213   -0.5360 H   0  0  0  0  0  0  0  0  0  0  0  0
  -10.0564    5.4467   -1.5120 H   0  0  0  0  0  0  0  0  0  0  0  0
   -8.6128    5.4914    0.6227 H   0  0  0  0  0  0  0  0  0  0  0  0
   -8.2263    4.3454   -0.7651 H   0  0  0  0  0  0  0  0  0  0  0  0
   -6.1684    5.5382    0.3688 H   0  0  0  0  0  0  0  0  0  0  0  0
   -7.3490    8.1439   -2.4791 H   0  0  0  0  0  0  0  0  0  0  0  0
   -6.0793    5.8167   -4.0502 H   0  0  0  0  0  0  0  0  0  0  0  0
   -6.8255    7.3238   -4.7441 H   0  0  0  0  0  0  0  0  0  0  0  0
   -4.3521    7.4181   -4.7433 H   0  0  0  0  0  0  0  0  0  0  0  0
   -5.1073    8.6898   -3.7050 H   0  0  0  0  0  0  0  0  0  0  0  0
   -3.2226    7.7663   -2.5430 H   0  0  0  0  0  0  0  0  0  0  0  0
   -3.7240    5.3180   -1.9730 H   0  0  0  0  0  0  0  0  0  0  0  0
   -5.0137    8.8483    0.2025 H   0  0  0  0  0  0  0  0  0  0  0  0
   -4.1524    9.3087   -1.3051 H   0  0  0  0  0  0  0  0  0  0  0  0
   -5.9419    9.1520   -1.3051 H   0  0  0  0  0  0  0  0  0  0  0  0
   -4.3884    6.8869    0.8200 H   0  0  0  0  0  0  0  0  0  0  0  0
   -4.0443    5.5025   -0.2717 H   0  0  0  0  0  0  0  0  0  0  0  0
   -2.9629    6.9368   -0.2717 H   0  0  0  0  0  0  0  0  0  0  0  0
   -8.4021    4.2431   -2.7389 H   0  0  0  0  0  0  0  0  0  0  0  0
   -9.3510    4.9070   -4.1120 H   0  0  0  0  0  0  0  0  0  0  0  0
   -7.5594    5.0375   -4.1120 H   0  0  0  0  0  0  0  0  0  0  0  0
   -8.8146    7.8100   -4.4080 H   0  0  0  0  0  0  0  0  0  0  0  0
  -10.2407    6.6803   -4.0555 H   0  0  0  0  0  0  0  0  0  0  0  0
   -9.5185    9.2496   -2.6198 H   0  0  0  0  0  0  0  0  0  0  0  0
  -10.9667    8.8962   -3.6426 H   0  0  0  0  0  0  0  0  0  0  0  0
  -12.5233    6.4299   -1.3471 H   0  0  0  0  0  0  0  0  0  0  0  0
  -12.7979    7.4186   -2.8214 H   0  0  0  0  0  0  0  0  0  0  0  0
  -11.5399    6.1364   -2.8214 H   0  0  0  0  0  0  0  0  0  0  0  0
  1  2  1  0
  2  3  1  0
  3  4  1  0
  4  5  1  0
  5  6  1  0
  6  7  1  0
  7  8  1  0
  7  9  1  0
  2 10  1  0
 10 11  1  0
 11 12  1  0
 12 13  1  0
 13 14  1  1
 13 15  1  0
 15 16  1  0
 16 17  1  0
 17 18  2  0
 18 19  1  0
 19 20  1  0
 20 21  1  0
 21 22  1  0
 22 23  1  0
 22 24  1  0
 24 25  1  0
 24 26  1  0
 19 27  1  0
 27 28  1  6
 27 29  1  0
 29 30  1  0
 30 31  1  0
 31 32  1  6
  7  5  1  0
 31 10  1  0
 31 13  1  0
 27 15  1  0
 24 18  1  0
  1 33  1  0
  1 34  1  0
  1 35  1  0
  2 36  1  6
  3 37  1  0
  3 38  1  0
  4 39  1  0
  4 40  1  0
  5 41  1  1
  8 42  1  0
  8 43  1  0
  8 44  1  0
  9 45  1  0
  9 46  1  0
  9 47  1  0
 10 48  1  1
 11 49  1  0
 11 50  1  0
 12 51  1  0
 12 52  1  0
 14 53  1  0
 14 54  1  0
 14 55  1  0
 15 56  1  6
 16 57  1  0
 16 58  1  0
 17 59  1  0
 19 60  1  1
 20 61  1  0
 20 62  1  0
 21 63  1  0
 21 64  1  0
 22 65  1  1
 23 66  1  0
 25 67  1  0
 25 68  1  0
 25 69  1  0
 26 70  1  0
 26 71  1  0
 26 72  1  0
 28 73  1  0
 28 74  1  0
 28 75  1  0
 29 76  1  0
 29 77  1  0
 30 78  1  0
 30 79  1  0
 32 80  1  0
 32 81  1  0
 32 82  1  0
M  END
>  <meeko>  (13) 
{"is_sidechain": [false], "intermolecular_energy": 2.731, "internal_energy": -0.839}

$$$$
EPH_relaxed_0001_pdb2pqr_Repair_176_r2_0001_out
     RDKit          3D

 82 86  0  0  0  0  0  0  0  0999 V2000
    4.1200   17.9400   -2.0040 C   0  0  0  0  0  0  0  0  0  0  0  0
    2.6450   17.5500   -1.8720 C   0  0  2  0  0  0  0  0  0  0  0  0
    1.8320   18.6060   -1.0970 C   0  0  0  0  0  0  0  0  0  0  0  0
    2.6960   19.5650   -0.2730 C   0  0  0  0  0  0  0  0  0  0  0  0
    2.8030   19.1260    1.1560 C   0  0  2  0  0  0  0  0  0  0  0  0
    2.7910   20.1930    2.1130 O   0  0  0  0  0  0  0  0  0  0  0  0
    4.0030   19.4250    2.0350 C   0  0  0  0  0  0  0  0  0  0  0  0
    5.1780   20.1940    1.5170 C   0  0  0  0  0  0  0  0  0  0  0  0
    4.2460   18.5600    3.2320 C   0  0  0  0  0  0  0  0  0  0  0  0
    2.5250   16.1940   -1.1850 C   0  0  1  0  0  0  0  0  0  0  0  0
    2.7230   16.2830    0.3510 C   0  0  0  0  0  0  0  0  0  0  0  0
    1.7810   15.2280    0.9860 C   0  0  0  0  0  0  0  0  0  0  0  0
    1.3240   14.3490   -0.2020 C   0  0  1  0  0  0  0  0  0  0  0  0
    2.4980   13.3460   -0.4320 C   0  0  0  0  0  0  0  0  0  0  0  0
   -0.0420   13.6090   -0.0290 C   0  0  2  0  0  0  0  0  0  0  0  0
   -0.0900   12.5870    1.1210 C   0  0  0  0  0  0  0  0  0  0  0  0
    0.2990   11.1940    0.7530 C   0  0  0  0  0  0  0  0  0  0  0  0
    0.3960   10.7140   -0.5010 C   0  0  0  0  0  0  0  0  0  0  0  0
    0.0060   11.5780   -1.7070 C   0  0  1  0  0  0  0  0  0  0  0  0
   -0.8810   10.7490   -2.6730 C   0  0  0  0  0  0  0  0  0  0  0  0
   -0.2270    9.4340   -3.0850 C   0  0  0  0  0  0  0  0  0  0  0  0
    0.0930    8.5780   -1.8620 C   0  0  2  0  0  0  0  0  0  0  0  0
   -1.1350    8.1650   -1.2540 O   0  0  0  0  0  0  0  0  0  0  0  0
    0.9740    9.3120   -0.8130 C   0  0  0  0  0  0  0  0  0  0  0  0
    2.4080    9.4910   -1.3720 C   0  0  0  0  0  0  0  0  0  0  0  0
    1.1040    8.3910    0.4300 C   0  0  0  0  0  0  0  0  0  0  0  0
   -0.6230   12.9980   -1.3680 C   0  0  1  0  0  0  0  0  0  0  0  0
   -2.1630   12.8640   -1.1650 C   0  0  0  0  0  0  0  0  0  0  0  0
   -0.4200   13.9580   -2.6000 C   0  0  0  0  0  0  0  0  0  0  0  0
    0.9000   14.7510   -2.6530 C   0  0  0  0  0  0  0  0  0  0  0  0
    1.1740   15.4480   -1.3160 C   0  0  2  0  0  0  0  0  0  0  0  0
    0.0210   16.4790   -1.0680 C   0  0  0  0  0  0  0  0  0  0  0  0
    4.5596   18.0562   -1.0024 H   0  0  0  0  0  0  0  0  0  0  0  0
    4.6595   17.1536   -2.5522 H   0  0  0  0  0  0  0  0  0  0  0  0
    4.2004   18.8903   -2.5522 H   0  0  0  0  0  0  0  0  0  0  0  0
    2.2267   17.4910   -2.8876 H   0  0  0  0  0  0  0  0  0  0  0  0
    1.2509   19.1966   -1.8205 H   0  0  0  0  0  0  0  0  0  0  0  0
    1.1906   18.0615   -0.3883 H   0  0  0  0  0  0  0  0  0  0  0  0
    3.7044   19.6021   -0.7110 H   0  0  0  0  0  0  0  0  0  0  0  0
    2.2211   20.5570   -0.2923 H   0  0  0  0  0  0  0  0  0  0  0  0
    2.2652   18.1925    0.9340 H   0  0  0  0  0  0  0  0  0  0  0  0
    5.7662   20.5789    2.3631 H   0  0  0  0  0  0  0  0  0  0  0  0
    5.8075   19.5326    0.9036 H   0  0  0  0  0  0  0  0  0  0  0  0
    4.8238   21.0356    0.9036 H   0  0  0  0  0  0  0  0  0  0  0  0
    4.0812   19.1466    4.1478 H   0  0  0  0  0  0  0  0  0  0  0  0
    3.5530   17.7059    3.2140 H   0  0  0  0  0  0  0  0  0  0  0  0
    5.2824   18.1917    3.2140 H   0  0  0  0  0  0  0  0  0  0  0  0
    3.3118   15.6446   -1.7226 H   0  0  0  0  0  0  0  0  0  0  0  0
    3.7687   16.0625    0.6114 H   0  0  0  0  0  0  0  0  0  0  0  0
    2.4912   17.2926    0.7210 H   0  0  0  0  0  0  0  0  0  0  0  0
    2.3199   14.6244    1.7311 H   0  0  0  0  0  0  0  0  0  0  0  0
    0.9336   15.6891    1.5144 H   0  0  0  0  0  0  0  0  0  0  0  0
    2.8899   13.0112    0.5398 H   0  0  0  0  0  0  0  0  0  0  0  0
    2.1323   12.4772   -0.9989 H   0  0  0  0  0  0  0  0  0  0  0  0
    3.2991   13.8429   -0.9989 H   0  0  0  0  0  0  0  0  0  0  0  0
   -0.7158   14.4261    0.2682 H   0  0  0  0  0  0  0  0  0  0  0  0
    0.5923   12.9327    1.9116 H   0  0  0  0  0  0  0  0  0  0  0  0
   -1.1420   12.5353    1.4382 H   0  0  0  0  0  0  0  0  0  0  0  0
    0.5257   10.5006    1.5763 H   0  0  0  0  0  0  0  0  0  0  0  0
    0.9488   11.8481   -2.2052 H   0  0  0  0  0  0  0  0  0  0  0  0
   -1.8350   10.5267   -2.1725 H   0  0  0  0  0  0  0  0  0  0  0  0
   -1.0313   11.3468   -3.5841 H   0  0  0  0  0  0  0  0  0  0  0  0
   -0.9139    8.8806   -3.7422 H   0  0  0  0  0  0  0  0  0  0  0  0
    0.7119    9.6585   -3.6122 H   0  0  0  0  0  0  0  0  0  0  0  0
    0.6755    7.7120   -2.2095 H   0  0  0  0  0  0  0  0  0  0  0  0
   -0.9140    7.5650   -0.5220 H   0  0  0  0  0  0  0  0  0  0  0  0
    3.1186    9.5797   -0.5370 H   0  0  0  0  0  0  0  0  0  0  0  0
    2.6730    8.6190   -1.9879 H   0  0  0  0  0  0  0  0  0  0  0  0
    2.4505   10.4014   -1.9879 H   0  0  0  0  0  0  0  0  0  0  0  0
    1.0186    8.9957    1.3449 H   0  0  0  0  0  0  0  0  0  0  0  0
    0.3034    7.6368    0.4129 H   0  0  0  0  0  0  0  0  0  0  0  0
    2.0821    7.8879    0.4129 H   0  0  0  0  0  0  0  0  0  0  0  0
   -2.3906   12.8442   -0.0890 H   0  0  0  0  0  0  0  0  0  0  0  0
   -2.6703   13.7214   -1.6314 H   0  0  0  0  0  0  0  0  0  0  0  0
   -2.5146   11.9319   -1.6314 H   0  0  0  0  0  0  0  0  0  0  0  0
   -0.4771   13.3456   -3.5120 H   0  0  0  0  0  0  0  0  0  0  0  0
   -1.2090   14.7186   -2.5052 H   0  0  0  0  0  0  0  0  0  0  0  0
    1.7265   14.0599   -2.8748 H   0  0  0  0  0  0  0  0  0  0  0  0
    0.8182   15.5171   -3.4381 H   0  0  0  0  0  0  0  0  0  0  0  0
   -0.1265   16.6109    0.0141 H   0  0  0  0  0  0  0  0  0  0  0  0
    0.2886   17.4446   -1.5220 H   0  0  0  0  0  0  0  0  0  0  0  0
   -0.9088   16.1055   -1.5220 H   0  0  0  0  0  0  0  0  0  0  0  0
  1  2  1  0
  2  3  1  0
  3  4  1  0
  4  5  1  0
  5  6  1  0
  6  7  1  0
  7  8  1  0
  7  9  1  0
  2 10  1  0
 10 11  1  0
 11 12  1  0
 12 13  1  0
 13 14  1  6
 13 15  1  0
 15 16  1  0
 16 17  1  0
 17 18  2  0
 18 19  1  0
 19 20  1  0
 20 21  1  0
 21 22  1  0
 22 23  1  0
 22 24  1  0
 24 25  1  0
 24 26  1  0
 19 27  1  0
 27 28  1  1
 27 29  1  0
 29 30  1  0
 30 31  1  0
 31 32  1  1
  7  5  1  0
 31 10  1  0
 31 13  1  0
 27 15  1  0
 24 18  1  0
  1 33  1  0
  1 34  1  0
  1 35  1  0
  2 36  1  6
  3 37  1  0
  3 38  1  0
  4 39  1  0
  4 40  1  0
  5 41  1  1
  8 42  1  0
  8 43  1  0
  8 44  1  0
  9 45  1  0
  9 46  1  0
  9 47  1  0
 10 48  1  6
 11 49  1  0
 11 50  1  0
 12 51  1  0
 12 52  1  0
 14 53  1  0
 14 54  1  0
 14 55  1  0
 15 56  1  1
 16 57  1  0
 16 58  1  0
 17 59  1  0
 19 60  1  6
 20 61  1  0
 20 62  1  0
 21 63  1  0
 21 64  1  0
 22 65  1  6
 23 66  1  0
 25 67  1  0
 25 68  1  0
 25 69  1  0
 26 70  1  0
 26 71  1  0
 26 72  1  0
 28 73  1  0
 28 74  1  0
 28 75  1  0
 29 76  1  0
 29 77  1  0
 30 78  1  0
 30 79  1  0
 32 80  1  0
 32 81  1  0
 32 82  1  0
M  END
>  <meeko>  (14) 
{"is_sidechain": [false], "intermolecular_energy": 2.731, "internal_energy": -0.839}

$$$$
EPH_relaxed_0001_pdb2pqr_Repair_176_r2_0001_out
     RDKit          3D

 82 86  0  0  0  0  0  0  0  0999 V2000
   -0.2650   18.5060   -2.4200 C   0  0  0  0  0  0  0  0  0  0  0  0
    0.7010   18.1740   -1.2800 C   0  0  2  0  0  0  0  0  0  0  0  0
    1.9320   19.1020   -1.2730 C   0  0  0  0  0  0  0  0  0  0  0  0
    2.0760   19.9240    0.0100 C   0  0  0  0  0  0  0  0  0  0  0  0
    3.4250   19.7420    0.6370 C   0  0  2  0  0  0  0  0  0  0  0  0
    3.5430   18.5880    1.4790 O   0  0  0  0  0  0  0  0  0  0  0  0
    3.6770   19.8620    2.1290 C   0  0  0  0  0  0  0  0  0  0  0  0
    2.5700   20.1770    3.0850 C   0  0  0  0  0  0  0  0  0  0  0  0
    5.0680   20.1560    2.5980 C   0  0  0  0  0  0  0  0  0  0  0  0
    1.1460   16.7190   -1.3830 C   0  0  1  0  0  0  0  0  0  0  0  0
    2.6770   16.5480   -1.1910 C   0  0  0  0  0  0  0  0  0  0  0  0
    2.8870   15.2000   -0.4550 C   0  0  0  0  0  0  0  0  0  0  0  0
    1.5160   14.4890   -0.5430 C   0  0  1  0  0  0  0  0  0  0  0  0
    1.4850   13.8510   -1.9670 C   0  0  0  0  0  0  0  0  0  0  0  0
    1.2120   13.4330    0.5690 C   0  0  2  0  0  0  0  0  0  0  0  0
    2.1620   12.2230    0.5970 C   0  0  0  0  0  0  0  0  0  0  0  0
    1.7350   11.0580   -0.2330 C   0  0  0  0  0  0  0  0  0  0  0  0
    0.5030   10.8710   -0.7420 C   0  0  0  0  0  0  0  0  0  0  0  0
   -0.6400   11.8410   -0.4170 C   0  0  1  0  0  0  0  0  0  0  0  0
   -1.9100   11.0350   -0.0380 C   0  0  0  0  0  0  0  0  0  0  0  0
   -2.2970   10.0150   -1.1040 C   0  0  0  0  0  0  0  0  0  0  0  0
   -1.1560    9.0330   -1.3580 C   0  0  2  0  0  0  0  0  0  0  0  0
   -0.9650    8.2350   -0.1850 O   0  0  0  0  0  0  0  0  0  0  0  0
    0.1800    9.7300   -1.7390 C   0  0  0  0  0  0  0  0  0  0  0  0
    0.0610   10.3430   -3.1570 C   0  0  0  0  0  0  0  0  0  0  0  0
    1.2800    8.6380   -1.8290 C   0  0  0  0  0  0  0  0  0  0  0  0
   -0.3030   12.9810    0.6370 C   0  0  1  0  0  0  0  0  0  0  0  0
   -0.5460   12.4560    2.0850 C   0  0  0  0  0  0  0  0  0  0  0  0
   -1.2970   14.1840    0.4290 C   0  0  0  0  0  0  0  0  0  0  0  0
   -0.8840   15.2570   -0.5970 C   0  0  0  0  0  0  0  0  0  0  0  0
    0.5560   15.7210   -0.3560 C   0  0  2  0  0  0  0  0  0  0  0  0
    0.6130   16.3870    1.0610 C   0  0  0  0  0  0  0  0  0  0  0  0
   -1.2269   18.8366   -2.0010 H   0  0  0  0  0  0  0  0  0  0  0  0
    0.1607   19.3094   -3.0391 H   0  0  0  0  0  0  0  0  0  0  0  0
   -0.4231   17.6106   -3.0391 H   0  0  0  0  0  0  0  0  0  0  0  0
    0.1630   18.3324   -0.3337 H   0  0  0  0  0  0  0  0  0  0  0  0
    2.8338   18.4835   -1.3921 H   0  0  0  0  0  0  0  0  0  0  0  0
    1.8006   19.8163   -2.0992 H   0  0  0  0  0  0  0  0  0  0  0  0
    1.9356   20.9881   -0.2308 H   0  0  0  0  0  0  0  0  0  0  0  0
    1.3159   19.5779    0.7258 H   0  0  0  0  0  0  0  0  0  0  0  0
    3.9177   20.1990   -0.2338 H   0  0  0  0  0  0  0  0  0  0  0  0
    2.9361   20.0728    4.1171 H   0  0  0  0  0  0  0  0  0  0  0  0
    2.2258   21.2087    2.9204 H   0  0  0  0  0  0  0  0  0  0  0  0
    1.7342   19.4810    2.9204 H   0  0  0  0  0  0  0  0  0  0  0  0
    5.0908   20.1608    3.6978 H   0  0  0  0  0  0  0  0  0  0  0  0
    5.7533   19.3829    2.2204 H   0  0  0  0  0  0  0  0  0  0  0  0
    5.3819   21.1403    2.2204 H   0  0  0  0  0  0  0  0  0  0  0  0
    0.7759   16.4833   -2.3917 H   0  0  0  0  0  0  0  0  0  0  0  0
    3.1816   16.5288   -2.1682 H   0  0  0  0  0  0  0  0  0  0  0  0
    3.0986   17.3837   -0.6131 H   0  0  0  0  0  0  0  0  0  0  0  0
    3.6663   14.6036   -0.9520 H   0  0  0  0  0  0  0  0  0  0  0  0
    3.2182   15.3398    0.5846 H   0  0  0  0  0  0  0  0  0  0  0  0
    1.4318   12.7560   -1.8771 H   0  0  0  0  0  0  0  0  0  0  0  0
    0.6036   14.2173   -2.5138 H   0  0  0  0  0  0  0  0  0  0  0  0
    2.3978   14.1301   -2.5138 H   0  0  0  0  0  0  0  0  0  0  0  0
    1.4184   13.9957    1.4914 H   0  0  0  0  0  0  0  0  0  0  0  0
    3.1464   12.5552    0.2356 H   0  0  0  0  0  0  0  0  0  0  0  0
    2.1719   11.8678    1.6380 H   0  0  0  0  0  0  0  0  0  0  0  0
    2.4906   10.2877   -0.4466 H   0  0  0  0  0  0  0  0  0  0  0  0
   -0.8232   12.4154   -1.3371 H   0  0  0  0  0  0  0  0  0  0  0  0
   -1.7211   10.5033    0.9063 H   0  0  0  0  0  0  0  0  0  0  0  0
   -2.7415   11.7488    0.0577 H   0  0  0  0  0  0  0  0  0  0  0  0
   -3.1828    9.4580   -0.7648 H   0  0  0  0  0  0  0  0  0  0  0  0
   -2.5150   10.5503   -2.0399 H   0  0  0  0  0  0  0  0  0  0  0  0
   -1.4417    8.4116   -2.2195 H   0  0  0  0  0  0  0  0  0  0  0  0
   -1.8160    8.1920    0.2820 H   0  0  0  0  0  0  0  0  0  0  0  0
   -0.1480   11.4198   -3.0746 H   0  0  0  0  0  0  0  0  0  0  0  0
    1.0050   10.1934   -3.7016 H   0  0  0  0  0  0  0  0  0  0  0  0
   -0.7584    9.8510   -3.7016 H   0  0  0  0  0  0  0  0  0  0  0  0
    1.5824    8.3378   -0.8149 H   0  0  0  0  0  0  0  0  0  0  0  0
    0.8857    7.7639   -2.3679 H   0  0  0  0  0  0  0  0  0  0  0  0
    2.1512    9.0387   -2.3679 H   0  0  0  0  0  0  0  0  0  0  0  0
   -0.1986   13.2065    2.8103 H   0  0  0  0  0  0  0  0  0  0  0  0
   -1.6205   12.2728    2.2331 H   0  0  0  0  0  0  0  0  0  0  0  0
    0.0097   11.5183    2.2331 H   0  0  0  0  0  0  0  0  0  0  0  0
   -2.2614   13.7665    0.1040 H   0  0  0  0  0  0  0  0  0  0  0  0
   -1.3235   14.7062    1.3968 H   0  0  0  0  0  0  0  0  0  0  0  0
   -0.9613   14.8350   -1.6099 H   0  0  0  0  0  0  0  0  0  0  0  0
   -1.5541   16.1225   -0.4882 H   0  0  0  0  0  0  0  0  0  0  0  0
    0.5464   15.6083    1.8351 H   0  0  0  0  0  0  0  0  0  0  0  0
    1.5612   16.9336    1.1714 H   0  0  0  0  0  0  0  0  0  0  0  0
   -0.2285   17.0867    1.1714 H   0  0  0  0  0  0  0  0  0  0  0  0
  1  2  1  0
  2  3  1  0
  3  4  1  0
  4  5  1  0
  5  6  1  0
  6  7  1  0
  7  8  1  0
  7  9  1  0
  2 10  1  0
 10 11  1  0
 11 12  1  0
 12 13  1  0
 13 14  1  6
 13 15  1  0
 15 16  1  0
 16 17  1  0
 17 18  2  0
 18 19  1  0
 19 20  1  0
 20 21  1  0
 21 22  1  0
 22 23  1  0
 22 24  1  0
 24 25  1  0
 24 26  1  0
 19 27  1  0
 27 28  1  1
 27 29  1  0
 29 30  1  0
 30 31  1  0
 31 32  1  1
  7  5  1  0
 31 10  1  0
 31 13  1  0
 27 15  1  0
 24 18  1  0
  1 33  1  0
  1 34  1  0
  1 35  1  0
  2 36  1  1
  3 37  1  0
  3 38  1  0
  4 39  1  0
  4 40  1  0
  5 41  1  6
  8 42  1  0
  8 43  1  0
  8 44  1  0
  9 45  1  0
  9 46  1  0
  9 47  1  0
 10 48  1  6
 11 49  1  0
 11 50  1  0
 12 51  1  0
 12 52  1  0
 14 53  1  0
 14 54  1  0
 14 55  1  0
 15 56  1  1
 16 57  1  0
 16 58  1  0
 17 59  1  0
 19 60  1  6
 20 61  1  0
 20 62  1  0
 21 63  1  0
 21 64  1  0
 22 65  1  6
 23 66  1  0
 25 67  1  0
 25 68  1  0
 25 69  1  0
 26 70  1  0
 26 71  1  0
 26 72  1  0
 28 73  1  0
 28 74  1  0
 28 75  1  0
 29 76  1  0
 29 77  1  0
 30 78  1  0
 30 79  1  0
 32 80  1  0
 32 81  1  0
 32 82  1  0
M  END
>  <meeko>  (15) 
{"is_sidechain": [false], "intermolecular_energy": 2.731, "internal_energy": -0.839}

$$$$
EPH_relaxed_0001_pdb2pqr_Repair_176_r2_0001_out
     RDKit          3D

 82 86  0  0  0  0  0  0  0  0999 V2000
  -11.4530    8.8590   -2.6680 C   0  0  0  0  0  0  0  0  0  0  0  0
  -11.0380    7.5860   -1.9250 C   0  0  2  0  0  0  0  0  0  0  0  0
  -12.1180    7.1170   -0.9300 C   0  0  0  0  0  0  0  0  0  0  0  0
  -13.5240    7.6220   -1.2640 C   0  0  0  0  0  0  0  0  0  0  0  0
  -13.7050    9.0570   -0.8700 C   0  0  2  0  0  0  0  0  0  0  0  0
  -15.0540    9.4250   -0.5510 O   0  0  0  0  0  0  0  0  0  0  0  0
  -14.4790   10.0620   -1.7040 C   0  0  0  0  0  0  0  0  0  0  0  0
  -15.1210    9.6720   -2.9980 C   0  0  0  0  0  0  0  0  0  0  0  0
  -14.1980   11.5190   -1.5090 C   0  0  0  0  0  0  0  0  0  0  0  0
   -9.7210    7.8170   -1.1940 C   0  0  1  0  0  0  0  0  0  0  0  0
   -9.8320    7.5600    0.3330 C   0  0  0  0  0  0  0  0  0  0  0  0
   -8.4760    6.9590    0.7850 C   0  0  0  0  0  0  0  0  0  0  0  0
   -7.5260    7.1960   -0.4120 C   0  0  1  0  0  0  0  0  0  0  0  0
   -7.0600    8.6790   -0.2660 C   0  0  0  0  0  0  0  0  0  0  0  0
   -6.3110    6.2190   -0.5340 C   0  0  2  0  0  0  0  0  0  0  0  0
   -5.3160    6.2660    0.6390 C   0  0  0  0  0  0  0  0  0  0  0  0
   -4.1910    7.2360    0.4820 C   0  0  0  0  0  0  0  0  0  0  0  0
   -3.8250    7.8290   -0.6690 C   0  0  0  0  0  0  0  0  0  0  0  0
   -4.5090    7.4680   -1.9940 C   0  0  1  0  0  0  0  0  0  0  0  0
   -3.4320    7.2460   -3.0890 C   0  0  0  0  0  0  0  0  0  0  0  0
   -2.4840    8.4330   -3.2260 C   0  0  0  0  0  0  0  0  0  0  0  0
   -1.7800    8.7250   -1.9040 C   0  0  2  0  0  0  0  0  0  0  0  0
   -0.9080    7.6340   -1.5950 O   0  0  0  0  0  0  0  0  0  0  0  0
   -2.7650    8.9570   -0.7230 C   0  0  0  0  0  0  0  0  0  0  0  0
   -3.4990   10.3060   -0.9160 C   0  0  0  0  0  0  0  0  0  0  0  0
   -1.9270    9.1000    0.5760 C   0  0  0  0  0  0  0  0  0  0  0  0
   -5.5660    6.2830   -1.9280 C   0  0  1  0  0  0  0  0  0  0  0  0
   -4.8420    4.9130   -2.1090 C   0  0  0  0  0  0  0  0  0  0  0  0
   -6.5660    6.4180   -3.1360 C   0  0  0  0  0  0  0  0  0  0  0  0
   -7.8090    7.3020   -2.9130 C   0  0  0  0  0  0  0  0  0  0  0  0
   -8.5150    6.9340   -1.6050 C   0  0  2  0  0  0  0  0  0  0  0  0
   -9.0150    5.4540   -1.7300 C   0  0  0  0  0  0  0  0  0  0  0  0
  -11.7083    9.6423   -1.9391 H   0  0  0  0  0  0  0  0  0  0  0  0
  -10.6205    9.2030   -3.2993 H   0  0  0  0  0  0  0  0  0  0  0  0
  -12.3283    8.6462   -3.2993 H   0  0  0  0  0  0  0  0  0  0  0  0
  -10.9122    6.7909   -2.6747 H   0  0  0  0  0  0  0  0  0  0  0  0
  -12.1352    6.0171   -0.9292 H   0  0  0  0  0  0  0  0  0  0  0  0
  -11.8521    7.5335    0.0527 H   0  0  0  0  0  0  0  0  0  0  0  0
  -13.6894    7.5260   -2.3472 H   0  0  0  0  0  0  0  0  0  0  0  0
  -14.2490    7.0171   -0.6998 H   0  0  0  0  0  0  0  0  0  0  0  0
  -12.6998    9.0862   -0.4242 H   0  0  0  0  0  0  0  0  0  0  0  0
  -16.0449    9.1108   -2.7944 H   0  0  0  0  0  0  0  0  0  0  0  0
  -15.3614   10.5769   -3.5754 H   0  0  0  0  0  0  0  0  0  0  0  0
  -14.4287    9.0417   -3.5754 H   0  0  0  0  0  0  0  0  0  0  0  0
  -14.1547   11.7433   -0.4330 H   0  0  0  0  0  0  0  0  0  0  0  0
  -13.2345   11.7722   -1.9754 H   0  0  0  0  0  0  0  0  0  0  0  0
  -14.9983   12.1124   -1.9754 H   0  0  0  0  0  0  0  0  0  0  0  0
   -9.5348    8.8638   -1.4759 H   0  0  0  0  0  0  0  0  0  0  0  0
  -10.0233    8.5046    0.8632 H   0  0  0  0  0  0  0  0  0  0  0  0
  -10.6626    6.8751    0.5590 H   0  0  0  0  0  0  0  0  0  0  0  0
   -8.1039    7.4726    1.6837 H   0  0  0  0  0  0  0  0  0  0  0  0
   -8.5585    5.8940    1.0476 H   0  0  0  0  0  0  0  0  0  0  0  0
   -6.9796    8.9347    0.8008 H   0  0  0  0  0  0  0  0  0  0  0  0
   -6.0792    8.8043   -0.7480 H   0  0  0  0  0  0  0  0  0  0  0  0
   -7.7929    9.3428   -0.7480 H   0  0  0  0  0  0  0  0  0  0  0  0
   -6.7940    5.2324   -0.4759 H   0  0  0  0  0  0  0  0  0  0  0  0
   -5.8740    6.5366    1.5475 H   0  0  0  0  0  0  0  0  0  0  0  0
   -4.8540    5.2688    0.6867 H   0  0  0  0  0  0  0  0  0  0  0  0
   -3.6129    7.4867    1.3836 H   0  0  0  0  0  0  0  0  0  0  0  0
   -5.1367    8.3319   -2.2579 H   0  0  0  0  0  0  0  0  0  0  0  0
   -2.8441    6.3533   -2.8295 H   0  0  0  0  0  0  0  0  0  0  0  0
   -3.9532    7.1223   -4.0498 H   0  0  0  0  0  0  0  0  0  0  0  0
   -1.7292    8.2041   -3.9928 H   0  0  0  0  0  0  0  0  0  0  0  0
   -3.0697    9.3183   -3.5145 H   0  0  0  0  0  0  0  0  0  0  0  0
   -1.2160    9.6609   -2.0308 H   0  0  0  0  0  0  0  0  0  0  0  0
   -0.0890    7.7580   -2.1050 H   0  0  0  0  0  0  0  0  0  0  0  0
   -3.7347   10.7391    0.0673 H   0  0  0  0  0  0  0  0  0  0  0  0
   -2.8531   10.9980   -1.4762 H   0  0  0  0  0  0  0  0  0  0  0  0
   -4.4309   10.1395   -1.4762 H   0  0  0  0  0  0  0  0  0  0  0  0
   -2.5845    8.9878    1.4507 H   0  0  0  0  0  0  0  0  0  0  0  0
   -1.1503    8.3214    0.5989 H   0  0  0  0  0  0  0  0  0  0  0  0
   -1.4524   10.0921    0.5989 H   0  0  0  0  0  0  0  0  0  0  0  0
   -4.6156    4.4846   -1.1215 H   0  0  0  0  0  0  0  0  0  0  0  0
   -5.4940    4.2246   -2.6666 H   0  0  0  0  0  0  0  0  0  0  0  0
   -3.9059    5.0638   -2.6666 H   0  0  0  0  0  0  0  0  0  0  0  0
   -6.0072    6.8376   -3.9855 H   0  0  0  0  0  0  0  0  0  0  0  0
   -6.9593    5.4038   -3.2992 H   0  0  0  0  0  0  0  0  0  0  0  0
   -7.4979    8.3562   -2.8699 H   0  0  0  0  0  0  0  0  0  0  0  0
   -8.5083    7.1410   -3.7467 H   0  0  0  0  0  0  0  0  0  0  0  0
   -9.1585    5.0294   -0.7255 H   0  0  0  0  0  0  0  0  0  0  0  0
   -9.9696    5.4344   -2.2761 H   0  0  0  0  0  0  0  0  0  0  0  0
   -8.2678    4.8594   -2.2761 H   0  0  0  0  0  0  0  0  0  0  0  0
  1  2  1  0
  2  3  1  0
  3  4  1  0
  4  5  1  0
  5  6  1  0
  6  7  1  0
  7  8  1  0
  7  9  1  0
  2 10  1  0
 10 11  1  0
 11 12  1  0
 12 13  1  0
 13 14  1  6
 13 15  1  0
 15 16  1  0
 16 17  1  0
 17 18  2  0
 18 19  1  0
 19 20  1  0
 20 21  1  0
 21 22  1  0
 22 23  1  0
 22 24  1  0
 24 25  1  0
 24 26  1  0
 19 27  1  0
 27 28  1  6
 27 29  1  0
 29 30  1  0
 30 31  1  0
 31 32  1  6
  7  5  1  0
 31 10  1  0
 31 13  1  0
 27 15  1  0
 24 18  1  0
  1 33  1  0
  1 34  1  0
  1 35  1  0
  2 36  1  6
  3 37  1  0
  3 38  1  0
  4 39  1  0
  4 40  1  0
  5 41  1  1
  8 42  1  0
  8 43  1  0
  8 44  1  0
  9 45  1  0
  9 46  1  0
  9 47  1  0
 10 48  1  1
 11 49  1  0
 11 50  1  0
 12 51  1  0
 12 52  1  0
 14 53  1  0
 14 54  1  0
 14 55  1  0
 15 56  1  6
 16 57  1  0
 16 58  1  0
 17 59  1  0
 19 60  1  6
 20 61  1  0
 20 62  1  0
 21 63  1  0
 21 64  1  0
 22 65  1  6
 23 66  1  0
 25 67  1  0
 25 68  1  0
 25 69  1  0
 26 70  1  0
 26 71  1  0
 26 72  1  0
 28 73  1  0
 28 74  1  0
 28 75  1  0
 29 76  1  0
 29 77  1  0
 30 78  1  0
 30 79  1  0
 32 80  1  0
 32 81  1  0
 32 82  1  0
M  END
>  <meeko>  (16) 
{"is_sidechain": [false], "intermolecular_energy": 2.731, "internal_energy": -0.839}

$$$$
EPH_relaxed_0001_pdb2pqr_Repair_176_r2_0001_out
     RDKit          3D

 82 86  0  0  0  0  0  0  0  0999 V2000
   -0.2910   18.2470   -1.5240 C   0  0  0  0  0  0  0  0  0  0  0  0
    0.7960   17.1700   -1.5490 C   0  0  2  0  0  0  0  0  0  0  0  0
    1.9760   17.5570   -2.4640 C   0  0  0  0  0  0  0  0  0  0  0  0
    2.9070   18.6090   -1.8560 C   0  0  0  0  0  0  0  0  0  0  0  0
    3.5410   18.1220   -0.5890 C   0  0  2  0  0  0  0  0  0  0  0  0
    2.6260   17.5610    0.3620 O   0  0  0  0  0  0  0  0  0  0  0  0
    3.3030   18.7620    0.7660 C   0  0  0  0  0  0  0  0  0  0  0  0
    2.4020   19.9460    0.9220 C   0  0  0  0  0  0  0  0  0  0  0  0
    4.3170   18.5480    1.8470 C   0  0  0  0  0  0  0  0  0  0  0  0
    0.2020   15.8410   -2.0000 C   0  0  1  0  0  0  0  0  0  0  0  0
    0.5380   15.5070   -3.4780 C   0  0  0  0  0  0  0  0  0  0  0  0
    0.7120   13.9680   -3.5600 C   0  0  0  0  0  0  0  0  0  0  0  0
    0.1490   13.4400   -2.2200 C   0  0  1  0  0  0  0  0  0  0  0  0
   -1.3990   13.4030   -2.4220 C   0  0  0  0  0  0  0  0  0  0  0  0
    0.7010   12.0610   -1.7340 C   0  0  2  0  0  0  0  0  0  0  0  0
    0.3960   10.8720   -2.6620 C   0  0  0  0  0  0  0  0  0  0  0  0
   -0.8770   10.1480   -2.3740 C   0  0  0  0  0  0  0  0  0  0  0  0
   -1.5980   10.2540   -1.2420 C   0  0  0  0  0  0  0  0  0  0  0  0
   -1.0960   11.0980   -0.0640 C   0  0  1  0  0  0  0  0  0  0  0  0
   -1.2560   10.2960    1.2540 C   0  0  0  0  0  0  0  0  0  0  0  0
   -2.6820    9.7940    1.4620 C   0  0  0  0  0  0  0  0  0  0  0  0
   -3.1240    8.9110    0.2990 C   0  0  2  0  0  0  0  0  0  0  0  0
   -2.3420    7.7120    0.3060 O   0  0  0  0  0  0  0  0  0  0  0  0
   -2.9970    9.6100   -1.0840 C   0  0  0  0  0  0  0  0  0  0  0  0
   -4.0630   10.7270   -1.2020 C   0  0  0  0  0  0  0  0  0  0  0  0
   -3.3400    8.5650   -2.1800 C   0  0  0  0  0  0  0  0  0  0  0  0
    0.3580   11.7200   -0.2270 C   0  0  1  0  0  0  0  0  0  0  0  0
    1.4310   10.6950    0.2530 C   0  0  0  0  0  0  0  0  0  0  0  0
    0.4900   12.9740    0.7150 C   0  0  0  0  0  0  0  0  0  0  0  0
    0.0390   14.3290    0.1360 C   0  0  0  0  0  0  0  0  0  0  0  0
    0.6550   14.5660   -1.2460 C   0  0  2  0  0  0  0  0  0  0  0  0
    2.2110   14.6310   -1.0720 C   0  0  0  0  0  0  0  0  0  0  0  0
   -0.5394   18.4931   -0.4811 H   0  0  0  0  0  0  0  0  0  0  0  0
    0.0747   19.1490   -2.0365 H   0  0  0  0  0  0  0  0  0  0  0  0
   -1.1896   17.8730   -2.0365 H   0  0  0  0  0  0  0  0  0  0  0  0
    1.1887   17.0732   -0.5261 H   0  0  0  0  0  0  0  0  0  0  0  0
    2.5647   16.6516   -2.6731 H   0  0  0  0  0  0  0  0  0  0  0  0
    1.5451   17.9973   -3.3753 H   0  0  0  0  0  0  0  0  0  0  0  0
    3.6984   18.8470   -2.5820 H   0  0  0  0  0  0  0  0  0  0  0  0
    2.3083   19.5008   -1.6190 H   0  0  0  0  0  0  0  0  0  0  0  0
    4.4623   17.8530   -1.1264 H   0  0  0  0  0  0  0  0  0  0  0  0
    2.2467   20.1501    1.9917 H   0  0  0  0  0  0  0  0  0  0  0  0
    2.8632   20.8231    0.4445 H   0  0  0  0  0  0  0  0  0  0  0  0
    1.4337   19.7353    0.4445 H   0  0  0  0  0  0  0  0  0  0  0  0
    3.8328   18.6502    2.8294 H   0  0  0  0  0  0  0  0  0  0  0  0
    4.7461   17.5395    1.7528 H   0  0  0  0  0  0  0  0  0  0  0  0
    5.1170   19.2971    1.7528 H   0  0  0  0  0  0  0  0  0  0  0  0
   -0.8615   16.0377   -1.7993 H   0  0  0  0  0  0  0  0  0  0  0  0
   -0.2821   15.8311   -4.1356 H   0  0  0  0  0  0  0  0  0  0  0  0
    1.4521   16.0259   -3.8024 H   0  0  0  0  0  0  0  0  0  0  0  0
    0.1445   13.5577   -4.4083 H   0  0  0  0  0  0  0  0  0  0  0  0
    1.7605   13.6744   -3.7166 H   0  0  0  0  0  0  0  0  0  0  0  0
   -1.8966   13.3911   -1.4411 H   0  0  0  0  0  0  0  0  0  0  0  0
   -1.7169   14.2938   -2.9836 H   0  0  0  0  0  0  0  0  0  0  0  0
   -1.6740   12.4980   -2.9836 H   0  0  0  0  0  0  0  0  0  0  0  0
    1.7894   12.2109   -1.7880 H   0  0  0  0  0  0  0  0  0  0  0  0
    0.3458   11.2503   -3.6937 H   0  0  0  0  0  0  0  0  0  0  0  0
    1.2038   10.1435   -2.4984 H   0  0  0  0  0  0  0  0  0  0  0  0
   -1.2583    9.4706   -3.1523 H   0  0  0  0  0  0  0  0  0  0  0  0
   -1.7361   11.9921   -0.0363 H   0  0  0  0  0  0  0  0  0  0  0  0
   -0.5778    9.4304    1.2250 H   0  0  0  0  0  0  0  0  0  0  0  0
   -1.0139   10.9711    2.0880 H   0  0  0  0  0  0  0  0  0  0  0  0
   -2.7261    9.2110    2.3937 H   0  0  0  0  0  0  0  0  0  0  0  0
   -3.3551   10.6621    1.5194 H   0  0  0  0  0  0  0  0  0  0  0  0
   -4.1919    8.6890    0.4413 H   0  0  0  0  0  0  0  0  0  0  0  0
   -1.6390    7.8240    0.9670 H   0  0  0  0  0  0  0  0  0  0  0  0
   -4.3700   11.0487   -0.1959 H   0  0  0  0  0  0  0  0  0  0  0  0
   -3.6384   11.5830   -1.7470 H   0  0  0  0  0  0  0  0  0  0  0  0
   -4.9379   10.3428   -1.7470 H   0  0  0  0  0  0  0  0  0  0  0  0
   -3.6493    7.6227   -1.7042 H   0  0  0  0  0  0  0  0  0  0  0  0
   -4.1602    8.9461   -2.8061 H   0  0  0  0  0  0  0  0  0  0  0  0
   -2.4535    8.3859   -2.8061 H   0  0  0  0  0  0  0  0  0  0  0  0
    1.4525   10.6745    1.3526 H   0  0  0  0  0  0  0  0  0  0  0  0
    1.1783    9.6943   -0.1275 H   0  0  0  0  0  0  0  0  0  0  0  0
    2.4191   10.9932   -0.1275 H   0  0  0  0  0  0  0  0  0  0  0  0
   -0.1126   12.7794    1.6144 H   0  0  0  0  0  0  0  0  0  0  0  0
    1.5691   13.0841    0.8978 H   0  0  0  0  0  0  0  0  0  0  0  0
   -1.0574   14.3356    0.0474 H   0  0  0  0  0  0  0  0  0  0  0  0
    0.3751   15.1290    0.8121 H   0  0  0  0  0  0  0  0  0  0  0  0
    2.4600   14.6414   -0.0006 H   0  0  0  0  0  0  0  0  0  0  0  0
    2.6701   13.7512   -1.5466 H   0  0  0  0  0  0  0  0  0  0  0  0
    2.5951   15.5460   -1.5466 H   0  0  0  0  0  0  0  0  0  0  0  0
  1  2  1  0
  2  3  1  0
  3  4  1  0
  4  5  1  0
  5  6  1  0
  6  7  1  0
  7  8  1  0
  7  9  1  0
  2 10  1  0
 10 11  1  0
 11 12  1  0
 12 13  1  0
 13 14  1  6
 13 15  1  0
 15 16  1  0
 16 17  1  0
 17 18  2  0
 18 19  1  0
 19 20  1  0
 20 21  1  0
 21 22  1  0
 22 23  1  0
 22 24  1  0
 24 25  1  0
 24 26  1  0
 19 27  1  0
 27 28  1  1
 27 29  1  0
 29 30  1  0
 30 31  1  0
 31 32  1  1
  7  5  1  0
 31 10  1  0
 31 13  1  0
 27 15  1  0
 24 18  1  0
  1 33  1  0
  1 34  1  0
  1 35  1  0
  2 36  1  1
  3 37  1  0
  3 38  1  0
  4 39  1  0
  4 40  1  0
  5 41  1  6
  8 42  1  0
  8 43  1  0
  8 44  1  0
  9 45  1  0
  9 46  1  0
  9 47  1  0
 10 48  1  6
 11 49  1  0
 11 50  1  0
 12 51  1  0
 12 52  1  0
 14 53  1  0
 14 54  1  0
 14 55  1  0
 15 56  1  1
 16 57  1  0
 16 58  1  0
 17 59  1  0
 19 60  1  1
 20 61  1  0
 20 62  1  0
 21 63  1  0
 21 64  1  0
 22 65  1  1
 23 66  1  0
 25 67  1  0
 25 68  1  0
 25 69  1  0
 26 70  1  0
 26 71  1  0
 26 72  1  0
 28 73  1  0
 28 74  1  0
 28 75  1  0
 29 76  1  0
 29 77  1  0
 30 78  1  0
 30 79  1  0
 32 80  1  0
 32 81  1  0
 32 82  1  0
M  END
>  <meeko>  (17) 
{"is_sidechain": [false], "intermolecular_energy": 2.731, "internal_energy": -0.839}

$$$$
EPH_relaxed_0001_pdb2pqr_Repair_176_r2_0001_out
     RDKit          3D

 82 86  0  0  0  0  0  0  0  0999 V2000
  -10.7330    6.6810   -3.4960 C   0  0  0  0  0  0  0  0  0  0  0  0
  -11.0790    7.1960   -2.0960 C   0  0  2  0  0  0  0  0  0  0  0  0
  -12.0200    8.4160   -2.1420 C   0  0  0  0  0  0  0  0  0  0  0  0
  -12.9970    8.4860   -0.9640 C   0  0  0  0  0  0  0  0  0  0  0  0
  -13.7910    7.2220   -0.8280 C   0  0  2  0  0  0  0  0  0  0  0  0
  -15.1730    7.3420   -1.1910 O   0  0  0  0  0  0  0  0  0  0  0  0
  -14.9040    7.0390    0.1880 C   0  0  0  0  0  0  0  0  0  0  0  0
  -15.2830    8.1340    1.1360 C   0  0  0  0  0  0  0  0  0  0  0  0
  -15.2880    5.6480    0.5860 C   0  0  0  0  0  0  0  0  0  0  0  0
   -9.8030    7.5510   -1.3420 C   0  0  1  0  0  0  0  0  0  0  0  0
   -9.9610    7.4180    0.1960 C   0  0  0  0  0  0  0  0  0  0  0  0
   -8.5970    6.9240    0.7450 C   0  0  0  0  0  0  0  0  0  0  0  0
   -7.6130    7.1050   -0.4350 C   0  0  1  0  0  0  0  0  0  0  0  0
   -7.2210    8.6160   -0.4010 C   0  0  0  0  0  0  0  0  0  0  0  0
   -6.3520    6.1810   -0.4310 C   0  0  2  0  0  0  0  0  0  0  0  0
   -5.4050    6.3750    0.7670 C   0  0  0  0  0  0  0  0  0  0  0  0
   -4.3210    7.3810    0.5660 C   0  0  0  0  0  0  0  0  0  0  0  0
   -3.9380    7.8930   -0.6190 C   0  0  0  0  0  0  0  0  0  0  0  0
   -4.5540    7.3880   -1.9300 C   0  0  1  0  0  0  0  0  0  0  0  0
   -3.4270    7.1270   -2.9640 C   0  0  0  0  0  0  0  0  0  0  0  0
   -2.5290    8.3430   -3.1710 C   0  0  0  0  0  0  0  0  0  0  0  0
   -1.8900    8.7790   -1.8550 C   0  0  2  0  0  0  0  0  0  0  0  0
   -0.9810    7.7610   -1.4240 O   0  0  0  0  0  0  0  0  0  0  0  0
   -2.9290    9.0620   -0.7330 C   0  0  0  0  0  0  0  0  0  0  0  0
   -3.7160   10.3530   -1.0660 C   0  0  0  0  0  0  0  0  0  0  0  0
   -2.1490    9.3540    0.5770 C   0  0  0  0  0  0  0  0  0  0  0  0
   -5.5570    6.1630   -1.7990 C   0  0  1  0  0  0  0  0  0  0  0  0
   -4.7660    4.8200   -1.8360 C   0  0  0  0  0  0  0  0  0  0  0  0
   -6.5160    6.1480   -3.0480 C   0  0  0  0  0  0  0  0  0  0  0  0
   -7.8050    6.9860   -2.9440 C   0  0  0  0  0  0  0  0  0  0  0  0
   -8.5440    6.6960   -1.6340 C   0  0  2  0  0  0  0  0  0  0  0  0
   -8.9700    5.1890   -1.6490 C   0  0  0  0  0  0  0  0  0  0  0  0
  -10.1214    5.7707   -3.4110 H   0  0  0  0  0  0  0  0  0  0  0  0
  -11.6600    6.4503   -4.0413 H   0  0  0  0  0  0  0  0  0  0  0  0
  -10.1690    7.4521   -4.0413 H   0  0  0  0  0  0  0  0  0  0  0  0
  -11.6098    6.3893   -1.5692 H   0  0  0  0  0  0  0  0  0  0  0  0
  -11.4057    9.3285   -2.1382 H   0  0  0  0  0  0  0  0  0  0  0  0
  -12.6250    8.3206   -3.0557 H   0  0  0  0  0  0  0  0  0  0  0  0
  -12.4274    8.6509   -0.0375 H   0  0  0  0  0  0  0  0  0  0  0  0
  -13.6978    9.3137   -1.1478 H   0  0  0  0  0  0  0  0  0  0  0  0
  -12.9089    6.6126   -1.0739 H   0  0  0  0  0  0  0  0  0  0  0  0
  -15.1610    7.7816    2.1709 H   0  0  0  0  0  0  0  0  0  0  0  0
  -14.6345    9.0062    0.9668 H   0  0  0  0  0  0  0  0  0  0  0  0
  -16.3320    8.4187    0.9668 H   0  0  0  0  0  0  0  0  0  0  0  0
  -15.3087    5.5731    1.6833 H   0  0  0  0  0  0  0  0  0  0  0  0
  -16.2845    5.4134    0.1836 H   0  0  0  0  0  0  0  0  0  0  0  0
  -14.5530    4.9354    0.1836 H   0  0  0  0  0  0  0  0  0  0  0  0
   -9.6535    8.5784   -1.7055 H   0  0  0  0  0  0  0  0  0  0  0  0
  -10.2158    8.3933    0.6363 H   0  0  0  0  0  0  0  0  0  0  0  0
  -10.7674    6.7146    0.4508 H   0  0  0  0  0  0  0  0  0  0  0  0
   -8.2836    7.5293    1.6084 H   0  0  0  0  0  0  0  0  0  0  0  0
   -8.6409    5.8823    1.0956 H   0  0  0  0  0  0  0  0  0  0  0  0
   -7.1346    8.9490    0.6438 H   0  0  0  0  0  0  0  0  0  0  0  0
   -6.2567    8.7562   -0.9114 H   0  0  0  0  0  0  0  0  0  0  0  0
   -7.9955    9.2073   -0.9114 H   0  0  0  0  0  0  0  0  0  0  0  0
   -6.7927    5.1810   -0.3051 H   0  0  0  0  0  0  0  0  0  0  0  0
   -6.0088    6.6936    1.6295 H   0  0  0  0  0  0  0  0  0  0  0  0
   -4.9002    5.4090    0.9155 H   0  0  0  0  0  0  0  0  0  0  0  0
   -3.7898    7.7342    1.4621 H   0  0  0  0  0  0  0  0  0  0  0  0
   -5.2106    8.1947   -2.2879 H   0  0  0  0  0  0  0  0  0  0  0  0
   -2.8094    6.2891   -2.6083 H   0  0  0  0  0  0  0  0  0  0  0  0
   -3.9050    6.8974   -3.9277 H   0  0  0  0  0  0  0  0  0  0  0  0
   -1.7359    8.0869   -3.8889 H   0  0  0  0  0  0  0  0  0  0  0  0
   -3.1424    9.1714   -3.5551 H   0  0  0  0  0  0  0  0  0  0  0  0
   -1.3646    9.7272   -2.0418 H   0  0  0  0  0  0  0  0  0  0  0  0
   -1.4120    6.9020   -1.5690 H   0  0  0  0  0  0  0  0  0  0  0  0
   -4.0185   10.8492   -0.1320 H   0  0  0  0  0  0  0  0  0  0  0  0
   -3.0775   11.0310   -1.6513 H   0  0  0  0  0  0  0  0  0  0  0  0
   -4.6112   10.0960   -1.6513 H   0  0  0  0  0  0  0  0  0  0  0  0
   -2.7844    9.1161    1.4428 H   0  0  0  0  0  0  0  0  0  0  0  0
   -1.2401    8.7353    0.6082 H   0  0  0  0  0  0  0  0  0  0  0  0
   -1.8698   10.4175    0.6082 H   0  0  0  0  0  0  0  0  0  0  0  0
   -4.5675    4.4829   -0.8079 H   0  0  0  0  0  0  0  0  0  0  0  0
   -5.3601    4.0589   -2.3631 H   0  0  0  0  0  0  0  0  0  0  0  0
   -3.8123    4.9706   -2.3631 H   0  0  0  0  0  0  0  0  0  0  0  0
   -5.9448    6.5216   -3.9107 H   0  0  0  0  0  0  0  0  0  0  0  0
   -6.8565    5.1058   -3.1371 H   0  0  0  0  0  0  0  0  0  0  0  0
   -7.5438    8.0539   -2.9809 H   0  0  0  0  0  0  0  0  0  0  0  0
   -8.4639    6.7213   -3.7841 H   0  0  0  0  0  0  0  0  0  0  0  0
   -9.0724    4.8266   -0.6155 H   0  0  0  0  0  0  0  0  0  0  0  0
   -9.9327    5.0853   -2.1710 H   0  0  0  0  0  0  0  0  0  0  0  0
   -8.2041    4.5966   -2.1710 H   0  0  0  0  0  0  0  0  0  0  0  0
  1  2  1  0
  2  3  1  0
  3  4  1  0
  4  5  1  0
  5  6  1  0
  6  7  1  0
  7  8  1  0
  7  9  1  0
  2 10  1  0
 10 11  1  0
 11 12  1  0
 12 13  1  0
 13 14  1  6
 13 15  1  0
 15 16  1  0
 16 17  1  0
 17 18  2  0
 18 19  1  0
 19 20  1  0
 20 21  1  0
 21 22  1  0
 22 23  1  0
 22 24  1  0
 24 25  1  0
 24 26  1  0
 19 27  1  0
 27 28  1  1
 27 29  1  0
 29 30  1  0
 30 31  1  0
 31 32  1  1
  7  5  1  0
 31 10  1  0
 31 13  1  0
 27 15  1  0
 24 18  1  0
  1 33  1  0
  1 34  1  0
  1 35  1  0
  2 36  1  1
  3 37  1  0
  3 38  1  0
  4 39  1  0
  4 40  1  0
  5 41  1  6
  8 42  1  0
  8 43  1  0
  8 44  1  0
  9 45  1  0
  9 46  1  0
  9 47  1  0
 10 48  1  1
 11 49  1  0
 11 50  1  0
 12 51  1  0
 12 52  1  0
 14 53  1  0
 14 54  1  0
 14 55  1  0
 15 56  1  1
 16 57  1  0
 16 58  1  0
 17 59  1  0
 19 60  1  6
 20 61  1  0
 20 62  1  0
 21 63  1  0
 21 64  1  0
 22 65  1  6
 23 66  1  0
 25 67  1  0
 25 68  1  0
 25 69  1  0
 26 70  1  0
 26 71  1  0
 26 72  1  0
 28 73  1  0
 28 74  1  0
 28 75  1  0
 29 76  1  0
 29 77  1  0
 30 78  1  0
 30 79  1  0
 32 80  1  0
 32 81  1  0
 32 82  1  0
M  END
>  <meeko>  (18) 
{"is_sidechain": [false], "intermolecular_energy": 2.731, "internal_energy": -0.839}

$$$$
