EPH_relaxed_0001_pdb2pqr_Repair_359_r2_0001_out
     RDKit          3D

 82 86  0  0  0  0  0  0  0  0999 V2000
   -1.8140    8.6750   -1.8130 C   0  0  0  0  0  0  0  0  0  0  0  0
   -2.2240    9.1750   -0.4250 C   0  0  2  0  0  0  0  0  0  0  0  0
   -3.7300    9.4940   -0.3440 C   0  0  0  0  0  0  0  0  0  0  0  0
   -4.6170    8.2520   -0.2260 C   0  0  0  0  0  0  0  0  0  0  0  0
   -5.2800    7.9190   -1.5280 C   0  0  2  0  0  0  0  0  0  0  0  0
   -6.4540    8.6890   -1.8180 O   0  0  0  0  0  0  0  0  0  0  0  0
   -6.6520    7.2790   -1.6290 C   0  0  0  0  0  0  0  0  0  0  0  0
   -7.4440    6.9330   -0.4070 C   0  0  0  0  0  0  0  0  0  0  0  0
   -7.0100    6.5470   -2.8850 C   0  0  0  0  0  0  0  0  0  0  0  0
   -1.4090   10.4090   -0.0550 C   0  0  1  0  0  0  0  0  0  0  0  0
   -0.4790   10.1670    1.1630 C   0  0  0  0  0  0  0  0  0  0  0  0
    0.8090   10.9950    0.9140 C   0  0  0  0  0  0  0  0  0  0  0  0
    0.4470   11.9350   -0.2590 C   0  0  1  0  0  0  0  0  0  0  0  0
   -0.3360   13.1150    0.3990 C   0  0  0  0  0  0  0  0  0  0  0  0
    1.6420   12.4480   -1.1270 C   0  0  2  0  0  0  0  0  0  0  0  0
    2.6720   13.3090   -0.3760 C   0  0  0  0  0  0  0  0  0  0  0  0
    2.4030   14.7770   -0.3820 C   0  0  0  0  0  0  0  0  0  0  0  0
    1.5410   15.4110   -1.2000 C   0  0  0  0  0  0  0  0  0  0  0  0
    0.8000   14.6490   -2.3060 C   0  0  1  0  0  0  0  0  0  0  0  0
    0.8810   15.4520   -3.6310 C   0  0  0  0  0  0  0  0  0  0  0  0
    0.3840   16.8860   -3.4770 C   0  0  0  0  0  0  0  0  0  0  0  0
    1.1830   17.6280   -2.4090 C   0  0  2  0  0  0  0  0  0  0  0  0
    2.5290   17.7880   -2.8680 O   0  0  0  0  0  0  0  0  0  0  0  0
    1.1830   16.9080   -1.0310 C   0  0  0  0  0  0  0  0  0  0  0  0
   -0.2260   17.0020   -0.3960 C   0  0  0  0  0  0  0  0  0  0  0  0
    2.1380   17.6840   -0.0860 C   0  0  0  0  0  0  0  0  0  0  0  0
    1.2090   13.1240   -2.4910 C   0  0  1  0  0  0  0  0  0  0  0  0
    2.4320   13.0140   -3.4510 C   0  0  0  0  0  0  0  0  0  0  0  0
    0.0250   12.3560   -3.1900 C   0  0  0  0  0  0  0  0  0  0  0  0
   -1.0620   11.7700   -2.2700 C   0  0  0  0  0  0  0  0  0  0  0  0
   -0.4370   10.9660   -1.1260 C   0  0  2  0  0  0  0  0  0  0  0  0
    0.3380    9.7590   -1.7560 C   0  0  0  0  0  0  0  0  0  0  0  0
   -1.1197    7.8283   -1.7074 H   0  0  0  0  0  0  0  0  0  0  0  0
   -2.7084    8.3492   -2.3643 H   0  0  0  0  0  0  0  0  0  0  0  0
   -1.3194    9.4882   -2.3643 H   0  0  0  0  0  0  0  0  0  0  0  0
   -2.0193    8.3660    0.2917 H   0  0  0  0  0  0  0  0  0  0  0  0
   -3.9034   10.1295    0.5370 H   0  0  0  0  0  0  0  0  0  0  0  0
   -4.0031    9.9958   -1.2840 H   0  0  0  0  0  0  0  0  0  0  0  0
   -3.9965    7.3992    0.0865 H   0  0  0  0  0  0  0  0  0  0  0  0
   -5.4024    8.4606    0.5154 H   0  0  0  0  0  0  0  0  0  0  0  0
   -4.3111    7.6637   -1.9819 H   0  0  0  0  0  0  0  0  0  0  0  0
   -6.8621    7.1872    0.4912 H   0  0  0  0  0  0  0  0  0  0  0  0
   -8.3855    7.5018   -0.4071 H   0  0  0  0  0  0  0  0  0  0  0  0
   -7.6664    5.8557   -0.4071 H   0  0  0  0  0  0  0  0  0  0  0  0
   -7.4799    5.5862   -2.6281 H   0  0  0  0  0  0  0  0  0  0  0  0
   -7.7134    7.1531   -3.4748 H   0  0  0  0  0  0  0  0  0  0  0  0
   -6.0997    6.3639   -3.4748 H   0  0  0  0  0  0  0  0  0  0  0  0
   -2.2259   11.1245    0.1205 H   0  0  0  0  0  0  0  0  0  0  0  0
   -0.9715   10.5015    2.0880 H   0  0  0  0  0  0  0  0  0  0  0  0
   -0.2457    9.0979    1.2756 H   0  0  0  0  0  0  0  0  0  0  0  0
    1.0764   11.5759    1.8090 H   0  0  0  0  0  0  0  0  0  0  0  0
    1.6768   10.3586    0.6863 H   0  0  0  0  0  0  0  0  0  0  0  0
   -0.2782   13.0279    1.4940 H   0  0  0  0  0  0  0  0  0  0  0  0
    0.1077   14.0707    0.0832 H   0  0  0  0  0  0  0  0  0  0  0  0
   -1.3890   13.0776    0.0832 H   0  0  0  0  0  0  0  0  0  0  0  0
    2.1639   11.5145   -1.3843 H   0  0  0  0  0  0  0  0  0  0  0  0
    2.6971   12.9726    0.6710 H   0  0  0  0  0  0  0  0  0  0  0  0
    3.6261   13.1728   -0.9062 H   0  0  0  0  0  0  0  0  0  0  0  0
    2.9553   15.3932    0.3428 H   0  0  0  0  0  0  0  0  0  0  0  0
   -0.2470   14.5763   -1.9765 H   0  0  0  0  0  0  0  0  0  0  0  0
    1.9287   15.4759   -3.9654 H   0  0  0  0  0  0  0  0  0  0  0  0
    0.2331   14.9510   -4.3653 H   0  0  0  0  0  0  0  0  0  0  0  0
    0.4936   17.4102   -4.4378 H   0  0  0  0  0  0  0  0  0  0  0  0
   -0.6723   16.8608   -3.1712 H   0  0  0  0  0  0  0  0  0  0  0  0
    0.6976   18.6027   -2.2529 H   0  0  0  0  0  0  0  0  0  0  0  0
    3.1110   17.7540   -2.0900 H   0  0  0  0  0  0  0  0  0  0  0  0
   -0.1353   16.9959    0.7002 H   0  0  0  0  0  0  0  0  0  0  0  0
   -0.7121   17.9346   -0.7186 H   0  0  0  0  0  0  0  0  0  0  0  0
   -0.8317   16.1423   -0.7186 H   0  0  0  0  0  0  0  0  0  0  0  0
    1.8735   17.4690    0.9599 H   0  0  0  0  0  0  0  0  0  0  0  0
    3.1752   17.3695   -0.2739 H   0  0  0  0  0  0  0  0  0  0  0  0
    2.0424   18.7636   -0.2739 H   0  0  0  0  0  0  0  0  0  0  0  0
    3.3559   12.9309   -2.8598 H   0  0  0  0  0  0  0  0  0  0  0  0
    2.3212   12.1222   -4.0854 H   0  0  0  0  0  0  0  0  0  0  0  0
    2.4821   13.9113   -4.0854 H   0  0  0  0  0  0  0  0  0  0  0  0
   -0.4660   13.0584   -3.8797 H   0  0  0  0  0  0  0  0  0  0  0  0
    0.4924   11.4856   -3.6736 H   0  0  0  0  0  0  0  0  0  0  0  0
   -1.6581   12.5926   -1.8480 H   0  0  0  0  0  0  0  0  0  0  0  0
   -1.6991   11.0980   -2.8637 H   0  0  0  0  0  0  0  0  0  0  0  0
    0.7447    9.1256   -0.9539 H   0  0  0  0  0  0  0  0  0  0  0  0
   -0.3490    9.1667   -2.3782 H   0  0  0  0  0  0  0  0  0  0  0  0
    1.1625   10.1372   -2.3782 H   0  0  0  0  0  0  0  0  0  0  0  0
  1  2  1  0
  2  3  1  0
  3  4  1  0
  4  5  1  0
  5  6  1  0
  6  7  1  0
  7  8  1  0
  7  9  1  0
  2 10  1  0
 10 11  1  0
 11 12  1  0
 12 13  1  0
 13 14  1  1
 13 15  1  0
 15 16  1  0
 16 17  1  0
 17 18  2  0
 18 19  1  0
 19 20  1  0
 20 21  1  0
 21 22  1  0
 22 23  1  0
 22 24  1  0
 24 25  1  0
 24 26  1  0
 19 27  1  0
 27 28  1  6
 27 29  1  0
 29 30  1  0
 30 31  1  0
 31 32  1  6
  7  5  1  0
 31 10  1  0
 31 13  1  0
 27 15  1  0
 24 18  1  0
  1 33  1  0
  1 34  1  0
  1 35  1  0
  2 36  1  1
  3 37  1  0
  3 38  1  0
  4 39  1  0
  4 40  1  0
  5 41  1  6
  8 42  1  0
  8 43  1  0
  8 44  1  0
  9 45  1  0
  9 46  1  0
  9 47  1  0
 10 48  1  1
 11 49  1  0
 11 50  1  0
 12 51  1  0
 12 52  1  0
 14 53  1  0
 14 54  1  0
 14 55  1  0
 15 56  1  6
 16 57  1  0
 16 58  1  0
 17 59  1  0
 19 60  1  1
 20 61  1  0
 20 62  1  0
 21 63  1  0
 21 64  1  0
 22 65  1  1
 23 66  1  0
 25 67  1  0
 25 68  1  0
 25 69  1  0
 26 70  1  0
 26 71  1  0
 26 72  1  0
 28 73  1  0
 28 74  1  0
 28 75  1  0
 29 76  1  0
 29 77  1  0
 30 78  1  0
 30 79  1  0
 32 80  1  0
 32 81  1  0
 32 82  1  0
M  END
>  <meeko>  (1) 
{"is_sidechain": [false], "intermolecular_energy": 2.731, "internal_energy": -0.839}

$$$$
EPH_relaxed_0001_pdb2pqr_Repair_359_r2_0001_out
     RDKit          3D

 82 86  0  0  0  0  0  0  0  0999 V2000
    2.3040   20.1640   -0.8890 C   0  0  0  0  0  0  0  0  0  0  0  0
    2.1220   19.2020    0.2880 C   0  0  2  0  0  0  0  0  0  0  0  0
    3.4700   18.6880    0.8320 C   0  0  0  0  0  0  0  0  0  0  0  0
    3.7470   19.0990    2.2800 C   0  0  0  0  0  0  0  0  0  0  0  0
    5.2160   19.2150    2.5530 C   0  0  2  0  0  0  0  0  0  0  0  0
    5.7670   18.1440    3.3300 O   0  0  0  0  0  0  0  0  0  0  0  0
    5.7940   19.4470    3.9360 C   0  0  0  0  0  0  0  0  0  0  0  0
    4.9130   19.5760    5.1390 C   0  0  0  0  0  0  0  0  0  0  0  0
    7.1680   20.0310    4.0490 C   0  0  0  0  0  0  0  0  0  0  0  0
    1.2470   18.0260   -0.1310 C   0  0  1  0  0  0  0  0  0  0  0  0
    0.2340   18.4030   -1.2440 C   0  0  0  0  0  0  0  0  0  0  0  0
    0.0840   17.1560   -2.1540 C   0  0  0  0  0  0  0  0  0  0  0  0
    0.7490   16.0100   -1.3570 C   0  0  1  0  0  0  0  0  0  0  0  0
   -0.3370   15.5500   -0.3340 C   0  0  0  0  0  0  0  0  0  0  0  0
    1.2950   14.8100   -2.1970 C   0  0  2  0  0  0  0  0  0  0  0  0
    0.2310   14.0300   -2.9900 C   0  0  0  0  0  0  0  0  0  0  0  0
   -0.3850   12.8790   -2.2670 C   0  0  0  0  0  0  0  0  0  0  0  0
    0.0970   12.3100   -1.1470 C   0  0  0  0  0  0  0  0  0  0  0  0
    1.4350   12.7610   -0.5470 C   0  0  1  0  0  0  0  0  0  0  0  0
    2.2880   11.5160   -0.1880 C   0  0  0  0  0  0  0  0  0  0  0  0
    1.5440   10.5380    0.7160 C   0  0  0  0  0  0  0  0  0  0  0  0
    0.2490   10.0670    0.0600 C   0  0  2  0  0  0  0  0  0  0  0  0
    0.5740    9.2800   -1.0900 O   0  0  0  0  0  0  0  0  0  0  0  0
   -0.6880   11.2360   -0.3540 C   0  0  0  0  0  0  0  0  0  0  0  0
   -1.2800   11.9020    0.9120 C   0  0  0  0  0  0  0  0  0  0  0  0
   -1.8910   10.6320   -1.1290 C   0  0  0  0  0  0  0  0  0  0  0  0
    2.2470   13.8350   -1.3920 C   0  0  1  0  0  0  0  0  0  0  0  0
    3.1420   13.1150   -2.4470 C   0  0  0  0  0  0  0  0  0  0  0  0
    3.2260   14.6100   -0.4340 C   0  0  0  0  0  0  0  0  0  0  0  0
    2.6630   15.8560    0.2750 C   0  0  0  0  0  0  0  0  0  0  0  0
    1.9610   16.7840   -0.7210 C   0  0  2  0  0  0  0  0  0  0  0  0
    3.0340   17.2800   -1.7500 C   0  0  0  0  0  0  0  0  0  0  0  0
    2.4958   21.1778   -0.5077 H   0  0  0  0  0  0  0  0  0  0  0  0
    3.1560   19.8357   -1.5025 H   0  0  0  0  0  0  0  0  0  0  0  0
    1.3910   20.1697   -1.5025 H   0  0  0  0  0  0  0  0  0  0  0  0
    1.6304   19.7607    1.0981 H   0  0  0  0  0  0  0  0  0  0  0  0
    3.4704   17.5894    0.7769 H   0  0  0  0  0  0  0  0  0  0  0  0
    4.2593   19.1400    0.2133 H   0  0  0  0  0  0  0  0  0  0  0  0
    3.2711   20.0721    2.4714 H   0  0  0  0  0  0  0  0  0  0  0  0
    3.3361   18.3218    2.9412 H   0  0  0  0  0  0  0  0  0  0  0  0
    5.3784   19.7231    1.5910 H   0  0  0  0  0  0  0  0  0  0  0  0
    5.5220   19.4868    6.0507 H   0  0  0  0  0  0  0  0  0  0  0  0
    4.4149   20.5567    5.1252 H   0  0  0  0  0  0  0  0  0  0  0  0
    4.1546   18.7793    5.1252 H   0  0  0  0  0  0  0  0  0  0  0  0
    7.4324   20.1434    5.1108 H   0  0  0  0  0  0  0  0  0  0  0  0
    7.8918   19.3627    3.5596 H   0  0  0  0  0  0  0  0  0  0  0  0
    7.1892   21.0159    3.5596 H   0  0  0  0  0  0  0  0  0  0  0  0
    0.7964   17.7749    0.8406 H   0  0  0  0  0  0  0  0  0  0  0  0
   -0.7370   18.6662   -0.7991 H   0  0  0  0  0  0  0  0  0  0  0  0
    0.5852   19.2720   -1.8197 H   0  0  0  0  0  0  0  0  0  0  0  0
   -0.9777   16.9355   -2.3388 H   0  0  0  0  0  0  0  0  0  0  0  0
    0.5472   17.3015   -3.1411 H   0  0  0  0  0  0  0  0  0  0  0  0
    0.0337   15.7070    0.6897 H   0  0  0  0  0  0  0  0  0  0  0  0
   -1.2552   16.1365   -0.4855 H   0  0  0  0  0  0  0  0  0  0  0  0
   -0.5546   14.4824   -0.4855 H   0  0  0  0  0  0  0  0  0  0  0  0
    1.9181   15.3141   -2.9504 H   0  0  0  0  0  0  0  0  0  0  0  0
   -0.5725   14.7306   -3.2611 H   0  0  0  0  0  0  0  0  0  0  0  0
    0.7521   13.6007   -3.8584 H   0  0  0  0  0  0  0  0  0  0  0  0
   -1.3121   12.4601   -2.6853 H   0  0  0  0  0  0  0  0  0  0  0  0
    1.1854   13.3181    0.3680 H   0  0  0  0  0  0  0  0  0  0  0  0
    2.5632   10.9970   -1.1180 H   0  0  0  0  0  0  0  0  0  0  0  0
    3.1762   11.8661    0.3583 H   0  0  0  0  0  0  0  0  0  0  0  0
    2.1869    9.6668    0.9103 H   0  0  0  0  0  0  0  0  0  0  0  0
    1.2951   11.0495    1.6575 H   0  0  0  0  0  0  0  0  0  0  0  0
   -0.3010    9.4729    0.8047 H   0  0  0  0  0  0  0  0  0  0  0  0
    1.0280    9.8600   -1.7250 H   0  0  0  0  0  0  0  0  0  0  0  0
   -0.8568   11.4259    1.8088 H   0  0  0  0  0  0  0  0  0  0  0  0
   -1.0306   12.9734    0.9134 H   0  0  0  0  0  0  0  0  0  0  0  0
   -2.3732   11.7800    0.9134 H   0  0  0  0  0  0  0  0  0  0  0  0
   -2.6374   10.2572   -0.4132 H   0  0  0  0  0  0  0  0  0  0  0  0
   -2.3468   11.4082   -1.7613 H   0  0  0  0  0  0  0  0  0  0  0  0
   -1.5408    9.8029   -1.7613 H   0  0  0  0  0  0  0  0  0  0  0  0
    3.8990   12.5060   -1.9312 H   0  0  0  0  0  0  0  0  0  0  0  0
    2.5161   12.4658   -3.0769 H   0  0  0  0  0  0  0  0  0  0  0  0
    3.6421   13.8654   -3.0769 H   0  0  0  0  0  0  0  0  0  0  0  0
    3.5572   13.9060    0.3436 H   0  0  0  0  0  0  0  0  0  0  0  0
    4.0274   14.9876   -1.0860 H   0  0  0  0  0  0  0  0  0  0  0  0
    1.9406   15.5382    1.0413 H   0  0  0  0  0  0  0  0  0  0  0  0
    3.4979   16.4040    0.7361 H   0  0  0  0  0  0  0  0  0  0  0  0
    3.9031   17.6818   -1.2085 H   0  0  0  0  0  0  0  0  0  0  0  0
    3.3529   16.4379   -2.3819 H   0  0  0  0  0  0  0  0  0  0  0  0
    2.5991   18.0684   -2.3819 H   0  0  0  0  0  0  0  0  0  0  0  0
  1  2  1  0
  2  3  1  0
  3  4  1  0
  4  5  1  0
  5  6  1  0
  6  7  1  0
  7  8  1  0
  7  9  1  0
  2 10  1  0
 10 11  1  0
 11 12  1  0
 12 13  1  0
 13 14  1  1
 13 15  1  0
 15 16  1  0
 16 17  1  0
 17 18  2  0
 18 19  1  0
 19 20  1  0
 20 21  1  0
 21 22  1  0
 22 23  1  0
 22 24  1  0
 24 25  1  0
 24 26  1  0
 19 27  1  0
 27 28  1  6
 27 29  1  0
 29 30  1  0
 30 31  1  0
 31 32  1  6
  7  5  1  0
 31 10  1  0
 31 13  1  0
 27 15  1  0
 24 18  1  0
  1 33  1  0
  1 34  1  0
  1 35  1  0
  2 36  1  1
  3 37  1  0
  3 38  1  0
  4 39  1  0
  4 40  1  0
  5 41  1  6
  8 42  1  0
  8 43  1  0
  8 44  1  0
  9 45  1  0
  9 46  1  0
  9 47  1  0
 10 48  1  1
 11 49  1  0
 11 50  1  0
 12 51  1  0
 12 52  1  0
 14 53  1  0
 14 54  1  0
 14 55  1  0
 15 56  1  6
 16 57  1  0
 16 58  1  0
 17 59  1  0
 19 60  1  1
 20 61  1  0
 20 62  1  0
 21 63  1  0
 21 64  1  0
 22 65  1  1
 23 66  1  0
 25 67  1  0
 25 68  1  0
 25 69  1  0
 26 70  1  0
 26 71  1  0
 26 72  1  0
 28 73  1  0
 28 74  1  0
 28 75  1  0
 29 76  1  0
 29 77  1  0
 30 78  1  0
 30 79  1  0
 32 80  1  0
 32 81  1  0
 32 82  1  0
M  END
>  <meeko>  (2) 
{"is_sidechain": [false], "intermolecular_energy": 2.731, "internal_energy": -0.839}

$$$$
EPH_relaxed_0001_pdb2pqr_Repair_359_r2_0001_out
     RDKit          3D

 82 86  0  0  0  0  0  0  0  0999 V2000
    2.2240   19.5530   -0.7810 C   0  0  0  0  0  0  0  0  0  0  0  0
    2.3540   18.4280    0.2490 C   0  0  2  0  0  0  0  0  0  0  0  0
    3.7930   17.8810    0.3320 C   0  0  0  0  0  0  0  0  0  0  0  0
    4.7170   18.7120    1.2270 C   0  0  0  0  0  0  0  0  0  0  0  0
    4.1700   18.8440    2.6170 C   0  0  2  0  0  0  0  0  0  0  0  0
    3.9740   20.1940    3.0570 O   0  0  0  0  0  0  0  0  0  0  0  0
    4.9580   19.4310    3.7730 C   0  0  0  0  0  0  0  0  0  0  0  0
    6.3600   19.9230    3.5920 C   0  0  0  0  0  0  0  0  0  0  0  0
    4.5480   19.0790    5.1690 C   0  0  0  0  0  0  0  0  0  0  0  0
    1.3870   17.2990   -0.0890 C   0  0  1  0  0  0  0  0  0  0  0  0
    0.2000   17.7740   -0.9690 C   0  0  0  0  0  0  0  0  0  0  0  0
   -0.1450   16.6020   -1.9240 C   0  0  0  0  0  0  0  0  0  0  0  0
    0.6220   15.3890   -1.3460 C   0  0  1  0  0  0  0  0  0  0  0  0
   -0.2750   14.8680   -0.1790 C   0  0  0  0  0  0  0  0  0  0  0  0
    0.9750   14.2500   -2.3560 C   0  0  2  0  0  0  0  0  0  0  0  0
   -0.2350   13.5470   -2.9970 C   0  0  0  0  0  0  0  0  0  0  0  0
   -0.7430   12.3520   -2.2590 C   0  0  0  0  0  0  0  0  0  0  0  0
   -0.0820   11.6930   -1.2890 C   0  0  0  0  0  0  0  0  0  0  0  0
    1.3540   12.0790   -0.9110 C   0  0  1  0  0  0  0  0  0  0  0  0
    2.2230   10.7990   -0.8050 C   0  0  0  0  0  0  0  0  0  0  0  0
    1.6280    9.7650    0.1460 C   0  0  0  0  0  0  0  0  0  0  0  0
    0.2230    9.3630   -0.2960 C   0  0  2  0  0  0  0  0  0  0  0  0
    0.3150    8.6620   -1.5400 O   0  0  0  0  0  0  0  0  0  0  0  0
   -0.7410   10.5730   -0.4480 C   0  0  0  0  0  0  0  0  0  0  0  0
   -1.0770   11.1490    0.9500 C   0  0  0  0  0  0  0  0  0  0  0  0
   -2.0790   10.0460   -1.0330 C   0  0  0  0  0  0  0  0  0  0  0  0
    2.0290   13.2030   -1.8100 C   0  0  1  0  0  0  0  0  0  0  0  0
    2.6990   12.5530   -3.0590 C   0  0  0  0  0  0  0  0  0  0  0  0
    3.1850   13.8900   -0.9920 C   0  0  0  0  0  0  0  0  0  0  0  0
    2.7930   15.0860   -0.1040 C   0  0  0  0  0  0  0  0  0  0  0  0
    1.9490   16.0960   -0.8870 C   0  0  2  0  0  0  0  0  0  0  0  0
    2.8320   16.6550   -2.0540 C   0  0  0  0  0  0  0  0  0  0  0  0
    2.1128   20.5156   -0.2605 H   0  0  0  0  0  0  0  0  0  0  0  0
    3.1251   19.5790   -1.4113 H   0  0  0  0  0  0  0  0  0  0  0  0
    1.3407   19.3728   -1.4113 H   0  0  0  0  0  0  0  0  0  0  0  0
    2.1033   18.8501    1.2334 H   0  0  0  0  0  0  0  0  0  0  0  0
    3.7526   16.8566    0.7307 H   0  0  0  0  0  0  0  0  0  0  0  0
    4.2106   17.9196   -0.6849 H   0  0  0  0  0  0  0  0  0  0  0  0
    5.7009   18.2225    1.2759 H   0  0  0  0  0  0  0  0  0  0  0  0
    4.7995   19.7196    0.7935 H   0  0  0  0  0  0  0  0  0  0  0  0
    3.6051   17.9063    2.5097 H   0  0  0  0  0  0  0  0  0  0  0  0
    6.8218   20.0850    4.5771 H   0  0  0  0  0  0  0  0  0  0  0  0
    6.9417   19.1753    3.0329 H   0  0  0  0  0  0  0  0  0  0  0  0
    6.3469   20.8702    3.0329 H   0  0  0  0  0  0  0  0  0  0  0  0
    5.1814   19.6228    5.8853 H   0  0  0  0  0  0  0  0  0  0  0  0
    3.4956   19.3592    5.3238 H   0  0  0  0  0  0  0  0  0  0  0  0
    4.6657   17.9963    5.3238 H   0  0  0  0  0  0  0  0  0  0  0  0
    1.1126   16.9800    0.9273 H   0  0  0  0  0  0  0  0  0  0  0  0
   -0.6673   18.0157   -0.3370 H   0  0  0  0  0  0  0  0  0  0  0  0
    0.4647   18.6797   -1.5343 H   0  0  0  0  0  0  0  0  0  0  0  0
   -1.2282   16.4104   -1.9282 H   0  0  0  0  0  0  0  0  0  0  0  0
    0.1366   16.8159   -2.9656 H   0  0  0  0  0  0  0  0  0  0  0  0
    0.1846   15.1350    0.7841 H   0  0  0  0  0  0  0  0  0  0  0  0
   -1.2719   15.3276   -0.2494 H   0  0  0  0  0  0  0  0  0  0  0  0
   -0.3697   13.7743   -0.2494 H   0  0  0  0  0  0  0  0  0  0  0  0
    1.4657   14.8021   -3.1711 H   0  0  0  0  0  0  0  0  0  0  0  0
   -1.0547   14.2772   -3.0668 H   0  0  0  0  0  0  0  0  0  0  0  0
    0.1100   13.1774   -3.9739 H   0  0  0  0  0  0  0  0  0  0  0  0
   -1.7414   11.9790   -2.5310 H   0  0  0  0  0  0  0  0  0  0  0  0
    1.2892   12.5682    0.0721 H   0  0  0  0  0  0  0  0  0  0  0  0
    2.3112   10.3489   -1.8048 H   0  0  0  0  0  0  0  0  0  0  0  0
    3.2046   11.0940   -0.4057 H   0  0  0  0  0  0  0  0  0  0  0  0
    2.2714    8.8728    0.1563 H   0  0  0  0  0  0  0  0  0  0  0  0
    1.5672   10.2065    1.1517 H   0  0  0  0  0  0  0  0  0  0  0  0
   -0.2004    8.7220    0.4913 H   0  0  0  0  0  0  0  0  0  0  0  0
    0.3930    9.3250   -2.2470 H   0  0  0  0  0  0  0  0  0  0  0  0
   -0.6849   10.4768    1.7274 H   0  0  0  0  0  0  0  0  0  0  0  0
   -0.6166   12.1422    1.0577 H   0  0  0  0  0  0  0  0  0  0  0  0
   -2.1682   11.2371    1.0577 H   0  0  0  0  0  0  0  0  0  0  0  0
   -2.7586    9.7783   -0.2105 H   0  0  0  0  0  0  0  0  0  0  0  0
   -2.5424   10.8288   -1.6515 H   0  0  0  0  0  0  0  0  0  0  0  0
   -1.8841    9.1575   -1.6515 H   0  0  0  0  0  0  0  0  0  0  0  0
    3.4528   11.8217   -2.7318 H   0  0  0  0  0  0  0  0  0  0  0  0
    1.9330   12.0447   -3.6631 H   0  0  0  0  0  0  0  0  0  0  0  0
    3.1838   13.3340   -3.6631 H   0  0  0  0  0  0  0  0  0  0  0  0
    3.6318   13.1245   -0.3406 H   0  0  0  0  0  0  0  0  0  0  0  0
    3.8654   14.3056   -1.7498 H   0  0  0  0  0  0  0  0  0  0  0  0
    2.2118   14.7209    0.7556 H   0  0  0  0  0  0  0  0  0  0  0  0
    3.7116   15.5858    0.2371 H   0  0  0  0  0  0  0  0  0  0  0  0
    3.6914   17.1991   -1.6353 H   0  0  0  0  0  0  0  0  0  0  0  0
    3.1927   15.8204   -2.6731 H   0  0  0  0  0  0  0  0  0  0  0  0
    2.2319   17.3381   -2.6731 H   0  0  0  0  0  0  0  0  0  0  0  0
  1  2  1  0
  2  3  1  0
  3  4  1  0
  4  5  1  0
  5  6  1  0
  6  7  1  0
  7  8  1  0
  7  9  1  0
  2 10  1  0
 10 11  1  0
 11 12  1  0
 12 13  1  0
 13 14  1  1
 13 15  1  0
 15 16  1  0
 16 17  1  0
 17 18  2  0
 18 19  1  0
 19 20  1  0
 20 21  1  0
 21 22  1  0
 22 23  1  0
 22 24  1  0
 24 25  1  0
 24 26  1  0
 19 27  1  0
 27 28  1  6
 27 29  1  0
 29 30  1  0
 30 31  1  0
 31 32  1  6
  7  5  1  0
 31 10  1  0
 31 13  1  0
 27 15  1  0
 24 18  1  0
  1 33  1  0
  1 34  1  0
  1 35  1  0
  2 36  1  1
  3 37  1  0
  3 38  1  0
  4 39  1  0
  4 40  1  0
  5 41  1  1
  8 42  1  0
  8 43  1  0
  8 44  1  0
  9 45  1  0
  9 46  1  0
  9 47  1  0
 10 48  1  1
 11 49  1  0
 11 50  1  0
 12 51  1  0
 12 52  1  0
 14 53  1  0
 14 54  1  0
 14 55  1  0
 15 56  1  6
 16 57  1  0
 16 58  1  0
 17 59  1  0
 19 60  1  1
 20 61  1  0
 20 62  1  0
 21 63  1  0
 21 64  1  0
 22 65  1  1
 23 66  1  0
 25 67  1  0
 25 68  1  0
 25 69  1  0
 26 70  1  0
 26 71  1  0
 26 72  1  0
 28 73  1  0
 28 74  1  0
 28 75  1  0
 29 76  1  0
 29 77  1  0
 30 78  1  0
 30 79  1  0
 32 80  1  0
 32 81  1  0
 32 82  1  0
M  END
>  <meeko>  (3) 
{"is_sidechain": [false], "intermolecular_energy": 2.731, "internal_energy": -0.839}

$$$$
EPH_relaxed_0001_pdb2pqr_Repair_359_r2_0001_out
     RDKit          3D

 82 86  0  0  0  0  0  0  0  0999 V2000
    2.3100   18.0620   -2.6710 C   0  0  0  0  0  0  0  0  0  0  0  0
    1.0220   17.6690   -1.9410 C   0  0  2  0  0  0  0  0  0  0  0  0
    1.1840   17.7210   -0.4090 C   0  0  0  0  0  0  0  0  0  0  0  0
    0.8440   19.0850    0.1990 C   0  0  0  0  0  0  0  0  0  0  0  0
   -0.5960   19.1670    0.6060 C   0  0  2  0  0  0  0  0  0  0  0  0
   -1.4700   18.2780   -0.1010 O   0  0  0  0  0  0  0  0  0  0  0  0
   -1.6940   19.6830   -0.3040 C   0  0  0  0  0  0  0  0  0  0  0  0
   -1.4000   20.1510   -1.6950 C   0  0  0  0  0  0  0  0  0  0  0  0
   -2.9600   20.1870    0.3160 C   0  0  0  0  0  0  0  0  0  0  0  0
    0.5860   16.2730   -2.3720 C   0  0  1  0  0  0  0  0  0  0  0  0
    0.7120   16.0540   -3.9030 C   0  0  0  0  0  0  0  0  0  0  0  0
    1.1210   14.5730   -4.1110 C   0  0  0  0  0  0  0  0  0  0  0  0
    0.8950   13.9090   -2.7320 C   0  0  1  0  0  0  0  0  0  0  0  0
   -0.6360   13.6100   -2.6780 C   0  0  0  0  0  0  0  0  0  0  0  0
    1.7440   12.6300   -2.4330 C   0  0  2  0  0  0  0  0  0  0  0  0
    1.4840   11.4400   -3.3730 C   0  0  0  0  0  0  0  0  0  0  0  0
    0.4180   10.4950   -2.9240 C   0  0  0  0  0  0  0  0  0  0  0  0
   -0.1030   10.4350   -1.6850 C   0  0  0  0  0  0  0  0  0  0  0  0
    0.4500   11.3130   -0.5550 C   0  0  1  0  0  0  0  0  0  0  0  0
    0.6550   10.4500    0.7180 C   0  0  0  0  0  0  0  0  0  0  0  0
   -0.6090    9.7000    1.1270 C   0  0  0  0  0  0  0  0  0  0  0  0
   -1.0940    8.7940   -0.0020 C   0  0  2  0  0  0  0  0  0  0  0  0
   -0.1350    7.7510   -0.2010 O   0  0  0  0  0  0  0  0  0  0  0  0
   -1.3270    9.5520   -1.3390 C   0  0  0  0  0  0  0  0  0  0  0  0
   -2.5670   10.4700   -1.2080 C   0  0  0  0  0  0  0  0  0  0  0  0
   -1.6770    8.5020   -2.4280 C   0  0  0  0  0  0  0  0  0  0  0  0
    1.7300   12.1830   -0.9150 C   0  0  1  0  0  0  0  0  0  0  0  0
    3.0250   11.3450   -0.6860 C   0  0  0  0  0  0  0  0  0  0  0  0
    1.8130   13.4080    0.0700 C   0  0  0  0  0  0  0  0  0  0  0  0
    1.0500   14.6820   -0.3390 C   0  0  0  0  0  0  0  0  0  0  0  0
    1.3690   15.0710   -1.7860 C   0  0  2  0  0  0  0  0  0  0  0  0
    2.8990   15.4000   -1.8670 C   0  0  0  0  0  0  0  0  0  0  0  0
    3.0910   18.3003   -1.9340 H   0  0  0  0  0  0  0  0  0  0  0  0
    2.6441   17.2249   -3.3016 H   0  0  0  0  0  0  0  0  0  0  0  0
    2.1198   18.9430   -3.3016 H   0  0  0  0  0  0  0  0  0  0  0  0
    0.2488   18.4015   -2.2159 H   0  0  0  0  0  0  0  0  0  0  0  0
    0.5190   16.9665    0.0365 H   0  0  0  0  0  0  0  0  0  0  0  0
    2.2444   17.5265   -0.1906 H   0  0  0  0  0  0  0  0  0  0  0  0
    1.4748   19.2474    1.0854 H   0  0  0  0  0  0  0  0  0  0  0  0
    1.0293   19.8560   -0.5633 H   0  0  0  0  0  0  0  0  0  0  0  0
   -0.3138   19.4203    1.6386 H   0  0  0  0  0  0  0  0  0  0  0  0
   -0.8153   21.0818   -1.6528 H   0  0  0  0  0  0  0  0  0  0  0  0
   -0.8238   19.3798   -2.2272 H   0  0  0  0  0  0  0  0  0  0  0  0
   -2.3449   20.3354   -2.2272 H   0  0  0  0  0  0  0  0  0  0  0  0
   -2.8710   20.1516    1.4118 H   0  0  0  0  0  0  0  0  0  0  0  0
   -3.1374   21.2243   -0.0041 H   0  0  0  0  0  0  0  0  0  0  0  0
   -3.8018   19.5554   -0.0041 H   0  0  0  0  0  0  0  0  0  0  0  0
   -0.4445   16.2744   -1.9872 H   0  0  0  0  0  0  0  0  0  0  0  0
   -0.2515   16.2535   -4.3947 H   0  0  0  0  0  0  0  0  0  0  0  0
    1.4579   16.7347   -4.3392 H   0  0  0  0  0  0  0  0  0  0  0  0
    0.4902   14.0999   -4.8780 H   0  0  0  0  0  0  0  0  0  0  0  0
    2.1600   14.4717   -4.4578 H   0  0  0  0  0  0  0  0  0  0  0  0
   -0.9604   13.5466   -1.6288 H   0  0  0  0  0  0  0  0  0  0  0  0
   -1.1854   14.4178   -3.1835 H   0  0  0  0  0  0  0  0  0  0  0  0
   -0.8411   12.6548   -3.1835 H   0  0  0  0  0  0  0  0  0  0  0  0
    2.7668   12.9679   -2.6560 H   0  0  0  0  0  0  0  0  0  0  0  0
    1.1923   11.8399   -4.3553 H   0  0  0  0  0  0  0  0  0  0  0  0
    2.4176   10.8587   -3.3943 H   0  0  0  0  0  0  0  0  0  0  0  0
    0.0255    9.7880   -3.6697 H   0  0  0  0  0  0  0  0  0  0  0  0
   -0.3138   12.0818   -0.3662 H   0  0  0  0  0  0  0  0  0  0  0  0
    1.4519    9.7174    0.5226 H   0  0  0  0  0  0  0  0  0  0  0  0
    0.9215   11.1286    1.5417 H   0  0  0  0  0  0  0  0  0  0  0  0
   -0.3925    9.0861    2.0137 H   0  0  0  0  0  0  0  0  0  0  0  0
   -1.3965   10.4345    1.3513 H   0  0  0  0  0  0  0  0  0  0  0  0
   -2.0691    8.3843    0.3001 H   0  0  0  0  0  0  0  0  0  0  0  0
    0.7340    8.0960    0.0650 H   0  0  0  0  0  0  0  0  0  0  0  0
   -2.7901   10.6352   -0.1436 H   0  0  0  0  0  0  0  0  0  0  0  0
   -2.3615   11.4353   -1.6937 H   0  0  0  0  0  0  0  0  0  0  0  0
   -3.4303    9.9916   -1.6937 H   0  0  0  0  0  0  0  0  0  0  0  0
   -1.9897    7.5640   -1.9459 H   0  0  0  0  0  0  0  0  0  0  0  0
   -2.4967    8.8831   -3.0548 H   0  0  0  0  0  0  0  0  0  0  0  0
   -0.7926    8.3150   -3.0548 H   0  0  0  0  0  0  0  0  0  0  0  0
    3.2016   11.2307    0.3937 H   0  0  0  0  0  0  0  0  0  0  0  0
    2.9055   10.3525   -1.1451 H   0  0  0  0  0  0  0  0  0  0  0  0
    3.8814   11.8606   -1.1451 H   0  0  0  0  0  0  0  0  0  0  0  0
    1.4164   13.0805    1.0423 H   0  0  0  0  0  0  0  0  0  0  0  0
    2.8739   13.6986    0.0786 H   0  0  0  0  0  0  0  0  0  0  0  0
   -0.0308   14.5000   -0.2452 H   0  0  0  0  0  0  0  0  0  0  0  0
    1.3606   15.5045    0.3221 H   0  0  0  0  0  0  0  0  0  0  0  0
    3.3094   15.4882   -0.8502 H   0  0  0  0  0  0  0  0  0  0  0  0
    3.4196   14.5933   -2.4038 H   0  0  0  0  0  0  0  0  0  0  0  0
    3.0420   16.3494   -2.4038 H   0  0  0  0  0  0  0  0  0  0  0  0
  1  2  1  0
  2  3  1  0
  3  4  1  0
  4  5  1  0
  5  6  1  0
  6  7  1  0
  7  8  1  0
  7  9  1  0
  2 10  1  0
 10 11  1  0
 11 12  1  0
 12 13  1  0
 13 14  1  1
 13 15  1  0
 15 16  1  0
 16 17  1  0
 17 18  2  0
 18 19  1  0
 19 20  1  0
 20 21  1  0
 21 22  1  0
 22 23  1  0
 22 24  1  0
 24 25  1  0
 24 26  1  0
 19 27  1  0
 27 28  1  6
 27 29  1  0
 29 30  1  0
 30 31  1  0
 31 32  1  1
  7  5  1  0
 31 10  1  0
 31 13  1  0
 27 15  1  0
 24 18  1  0
  1 33  1  0
  1 34  1  0
  1 35  1  0
  2 36  1  6
  3 37  1  0
  3 38  1  0
  4 39  1  0
  4 40  1  0
  5 41  1  1
  8 42  1  0
  8 43  1  0
  8 44  1  0
  9 45  1  0
  9 46  1  0
  9 47  1  0
 10 48  1  1
 11 49  1  0
 11 50  1  0
 12 51  1  0
 12 52  1  0
 14 53  1  0
 14 54  1  0
 14 55  1  0
 15 56  1  6
 16 57  1  0
 16 58  1  0
 17 59  1  0
 19 60  1  1
 20 61  1  0
 20 62  1  0
 21 63  1  0
 21 64  1  0
 22 65  1  1
 23 66  1  0
 25 67  1  0
 25 68  1  0
 25 69  1  0
 26 70  1  0
 26 71  1  0
 26 72  1  0
 28 73  1  0
 28 74  1  0
 28 75  1  0
 29 76  1  0
 29 77  1  0
 30 78  1  0
 30 79  1  0
 32 80  1  0
 32 81  1  0
 32 82  1  0
M  END
>  <meeko>  (4) 
{"is_sidechain": [false], "intermolecular_energy": 2.731, "internal_energy": -0.839}

$$$$
EPH_relaxed_0001_pdb2pqr_Repair_359_r2_0001_out
     RDKit          3D

 82 86  0  0  0  0  0  0  0  0999 V2000
    2.0260   18.3830   -2.1100 C   0  0  0  0  0  0  0  0  0  0  0  0
    1.5400   17.4620   -0.9870 C   0  0  2  0  0  0  0  0  0  0  0  0
    2.6750   17.0830   -0.0150 C   0  0  0  0  0  0  0  0  0  0  0  0
    3.6560   18.2270    0.2610 C   0  0  0  0  0  0  0  0  0  0  0  0
    3.4320   18.8340    1.6130 C   0  0  2  0  0  0  0  0  0  0  0  0
    3.8710   20.1940    1.7380 O   0  0  0  0  0  0  0  0  0  0  0  0
    4.5590   19.2280    2.5500 C   0  0  0  0  0  0  0  0  0  0  0  0
    5.9940   19.0280    2.1720 C   0  0  0  0  0  0  0  0  0  0  0  0
    4.2640   19.3500    4.0120 C   0  0  0  0  0  0  0  0  0  0  0  0
    0.9210   16.2020   -1.5810 C   0  0  1  0  0  0  0  0  0  0  0  0
    0.7250   16.2990   -3.1170 C   0  0  0  0  0  0  0  0  0  0  0  0
    0.9700   14.8790   -3.6900 C   0  0  0  0  0  0  0  0  0  0  0  0
    0.9690   13.9530   -2.4510 C   0  0  1  0  0  0  0  0  0  0  0  0
   -0.5400   13.7040   -2.1380 C   0  0  0  0  0  0  0  0  0  0  0  0
    1.7590   12.6110   -2.5910 C   0  0  2  0  0  0  0  0  0  0  0  0
    1.2270   11.6500   -3.6690 C   0  0  0  0  0  0  0  0  0  0  0  0
    0.2010   10.6720   -3.2010 C   0  0  0  0  0  0  0  0  0  0  0  0
   -0.0690   10.3760   -1.9160 C   0  0  0  0  0  0  0  0  0  0  0  0
    0.7620   10.9810   -0.7780 C   0  0  1  0  0  0  0  0  0  0  0  0
    1.1470    9.8670    0.2310 C   0  0  0  0  0  0  0  0  0  0  0  0
   -0.0650    9.0940    0.7400 C   0  0  0  0  0  0  0  0  0  0  0  0
   -0.8330    8.4590   -0.4160 C   0  0  2  0  0  0  0  0  0  0  0  0
   -0.0150    7.4460   -1.0110 O   0  0  0  0  0  0  0  0  0  0  0  0
   -1.2650    9.4840   -1.5010 C   0  0  0  0  0  0  0  0  0  0  0  0
   -2.3800   10.3990   -0.9380 C   0  0  0  0  0  0  0  0  0  0  0  0
   -1.9030    8.6960   -2.6770 C   0  0  0  0  0  0  0  0  0  0  0  0
    2.0090   11.8610   -1.2210 C   0  0  1  0  0  0  0  0  0  0  0  0
    3.2550   10.9480   -1.4350 C   0  0  0  0  0  0  0  0  0  0  0  0
    2.3800   12.8520   -0.0550 C   0  0  0  0  0  0  0  0  0  0  0  0
    1.6520   14.2100   -0.0400 C   0  0  0  0  0  0  0  0  0  0  0  0
    1.7090   14.8770   -1.4170 C   0  0  2  0  0  0  0  0  0  0  0  0
    3.2130   15.1610   -1.7500 C   0  0  0  0  0  0  0  0  0  0  0  0
    2.4973   19.2761   -1.6737 H   0  0  0  0  0  0  0  0  0  0  0  0
    2.7592   17.8481   -2.7314 H   0  0  0  0  0  0  0  0  0  0  0  0
    1.1706   18.6864   -2.7314 H   0  0  0  0  0  0  0  0  0  0  0  0
    0.7823   18.0132   -0.4108 H   0  0  0  0  0  0  0  0  0  0  0  0
    2.2256   16.7727    0.9399 H   0  0  0  0  0  0  0  0  0  0  0  0
    3.2493   16.2742   -0.4905 H   0  0  0  0  0  0  0  0  0  0  0  0
    4.6830   17.8360    0.2113 H   0  0  0  0  0  0  0  0  0  0  0  0
    3.4949   19.0078   -0.4969 H   0  0  0  0  0  0  0  0  0  0  0  0
    2.5266   18.2274    1.7623 H   0  0  0  0  0  0  0  0  0  0  0  0
    6.6047   18.9429    3.0829 H   0  0  0  0  0  0  0  0  0  0  0  0
    6.0918   18.1075    1.5777 H   0  0  0  0  0  0  0  0  0  0  0  0
    6.3397   19.8866    1.5777 H   0  0  0  0  0  0  0  0  0  0  0  0
    5.1280   18.9927    4.5915 H   0  0  0  0  0  0  0  0  0  0  0  0
    4.0668   20.4035    4.2596 H   0  0  0  0  0  0  0  0  0  0  0  0
    3.3803   18.7435    4.2596 H   0  0  0  0  0  0  0  0  0  0  0  0
   -0.0101   16.1613   -0.9967 H   0  0  0  0  0  0  0  0  0  0  0  0
   -0.2985   16.6293   -3.3481 H   0  0  0  0  0  0  0  0  0  0  0  0
    1.4201   17.0283   -3.5585 H   0  0  0  0  0  0  0  0  0  0  0  0
    0.1663   14.5971   -4.3862 H   0  0  0  0  0  0  0  0  0  0  0  0
    1.9097   14.8147   -4.2582 H   0  0  0  0  0  0  0  0  0  0  0  0
   -0.6893   13.6794   -1.0485 H   0  0  0  0  0  0  0  0  0  0  0  0
   -1.1432   14.5148   -2.5725 H   0  0  0  0  0  0  0  0  0  0  0  0
   -0.8508   12.7424   -2.5725 H   0  0  0  0  0  0  0  0  0  0  0  0
    2.7405   12.9514   -2.9526 H   0  0  0  0  0  0  0  0  0  0  0  0
    0.7794   12.2541   -4.4719 H   0  0  0  0  0  0  0  0  0  0  0  0
    2.0903   11.0521   -3.9965 H   0  0  0  0  0  0  0  0  0  0  0  0
   -0.3841   10.1488   -3.9717 H   0  0  0  0  0  0  0  0  0  0  0  0
    0.1122   11.7207   -0.2875 H   0  0  0  0  0  0  0  0  0  0  0  0
    1.8312    9.1630   -0.2653 H   0  0  0  0  0  0  0  0  0  0  0  0
    1.6219   10.3509    1.0972 H   0  0  0  0  0  0  0  0  0  0  0  0
    0.2745    8.3025    1.4243 H   0  0  0  0  0  0  0  0  0  0  0  0
   -0.7334    9.7942    1.2624 H   0  0  0  0  0  0  0  0  0  0  0  0
   -1.7581    8.0315   -0.0020 H   0  0  0  0  0  0  0  0  0  0  0  0
    0.2490    6.8300   -0.3060 H   0  0  0  0  0  0  0  0  0  0  0  0
   -2.3525   10.3765    0.1614 H   0  0  0  0  0  0  0  0  0  0  0  0
   -2.2200   11.4296   -1.2877 H   0  0  0  0  0  0  0  0  0  0  0  0
   -3.3596   10.0410   -1.2877 H   0  0  0  0  0  0  0  0  0  0  0  0
   -2.5479    7.8995   -2.2775 H   0  0  0  0  0  0  0  0  0  0  0  0
   -2.5046    9.3803   -3.2933 H   0  0  0  0  0  0  0  0  0  0  0  0
   -1.1085    8.2500   -3.2933 H   0  0  0  0  0  0  0  0  0  0  0  0
    3.6628   10.6492   -0.4580 H   0  0  0  0  0  0  0  0  0  0  0  0
    2.9597   10.0509   -1.9990 H   0  0  0  0  0  0  0  0  0  0  0  0
    4.0214   11.4999   -1.9990 H   0  0  0  0  0  0  0  0  0  0  0  0
    2.1586   12.3451    0.8958 H   0  0  0  0  0  0  0  0  0  0  0  0
    3.4413   13.0958   -0.2109 H   0  0  0  0  0  0  0  0  0  0  0  0
    0.6001   14.0514    0.2399 H   0  0  0  0  0  0  0  0  0  0  0  0
    2.1493   14.8668    0.6890 H   0  0  0  0  0  0  0  0  0  0  0  0
    3.7817   15.2684   -0.8146 H   0  0  0  0  0  0  0  0  0  0  0  0
    3.6234   14.3245   -2.3346 H   0  0  0  0  0  0  0  0  0  0  0  0
    3.2901   16.0896   -2.3346 H   0  0  0  0  0  0  0  0  0  0  0  0
  1  2  1  0
  2  3  1  0
  3  4  1  0
  4  5  1  0
  5  6  1  0
  6  7  1  0
  7  8  1  0
  7  9  1  0
  2 10  1  0
 10 11  1  0
 11 12  1  0
 12 13  1  0
 13 14  1  1
 13 15  1  0
 15 16  1  0
 16 17  1  0
 17 18  2  0
 18 19  1  0
 19 20  1  0
 20 21  1  0
 21 22  1  0
 22 23  1  0
 22 24  1  0
 24 25  1  0
 24 26  1  0
 19 27  1  0
 27 28  1  6
 27 29  1  0
 29 30  1  0
 30 31  1  0
 31 32  1  6
  7  5  1  0
 31 10  1  0
 31 13  1  0
 27 15  1  0
 24 18  1  0
  1 33  1  0
  1 34  1  0
  1 35  1  0
  2 36  1  1
  3 37  1  0
  3 38  1  0
  4 39  1  0
  4 40  1  0
  5 41  1  1
  8 42  1  0
  8 43  1  0
  8 44  1  0
  9 45  1  0
  9 46  1  0
  9 47  1  0
 10 48  1  1
 11 49  1  0
 11 50  1  0
 12 51  1  0
 12 52  1  0
 14 53  1  0
 14 54  1  0
 14 55  1  0
 15 56  1  6
 16 57  1  0
 16 58  1  0
 17 59  1  0
 19 60  1  1
 20 61  1  0
 20 62  1  0
 21 63  1  0
 21 64  1  0
 22 65  1  1
 23 66  1  0
 25 67  1  0
 25 68  1  0
 25 69  1  0
 26 70  1  0
 26 71  1  0
 26 72  1  0
 28 73  1  0
 28 74  1  0
 28 75  1  0
 29 76  1  0
 29 77  1  0
 30 78  1  0
 30 79  1  0
 32 80  1  0
 32 81  1  0
 32 82  1  0
M  END
>  <meeko>  (5) 
{"is_sidechain": [false], "intermolecular_energy": 2.731, "internal_energy": -0.839}

$$$$
EPH_relaxed_0001_pdb2pqr_Repair_359_r2_0001_out
     RDKit          3D

 82 86  0  0  0  0  0  0  0  0999 V2000
    3.7660   18.2740    0.6080 C   0  0  0  0  0  0  0  0  0  0  0  0
    2.7630   18.7930   -0.4270 C   0  0  2  0  0  0  0  0  0  0  0  0
    2.0490   20.0740    0.0490 C   0  0  0  0  0  0  0  0  0  0  0  0
    0.8970   19.8110    1.0230 C   0  0  0  0  0  0  0  0  0  0  0  0
   -0.4260   20.1940    0.4330 C   0  0  2  0  0  0  0  0  0  0  0  0
   -1.5180   20.1940    1.3620 O   0  0  0  0  0  0  0  0  0  0  0  0
   -1.5920   19.2320    0.2980 C   0  0  0  0  0  0  0  0  0  0  0  0
   -1.4870   17.8100    0.7550 C   0  0  0  0  0  0  0  0  0  0  0  0
   -2.6540   19.5310   -0.7130 C   0  0  0  0  0  0  0  0  0  0  0  0
    1.7370   17.7110   -0.7430 C   0  0  1  0  0  0  0  0  0  0  0  0
    0.8250   18.0860   -1.9420 C   0  0  0  0  0  0  0  0  0  0  0  0
    0.5200   16.7690   -2.7010 C   0  0  0  0  0  0  0  0  0  0  0  0
    0.9830   15.6490   -1.7400 C   0  0  1  0  0  0  0  0  0  0  0  0
   -0.1890   15.4820   -0.7230 C   0  0  0  0  0  0  0  0  0  0  0  0
    1.3710   14.2870   -2.4020 C   0  0  2  0  0  0  0  0  0  0  0  0
    0.2280   13.5740   -3.1450 C   0  0  0  0  0  0  0  0  0  0  0  0
   -0.5750   12.6230   -2.3200 C   0  0  0  0  0  0  0  0  0  0  0  0
   -0.2160   12.1370   -1.1170 C   0  0  0  0  0  0  0  0  0  0  0  0
    1.1550   12.4640   -0.5120 C   0  0  1  0  0  0  0  0  0  0  0  0
    1.8030   11.1650    0.0350 C   0  0  0  0  0  0  0  0  0  0  0  0
    0.8950   10.4250    1.0130 C   0  0  0  0  0  0  0  0  0  0  0  0
   -0.4350   10.0660    0.3570 C   0  0  2  0  0  0  0  0  0  0  0  0
   -0.1960    9.1020   -0.6730 O   0  0  0  0  0  0  0  0  0  0  0  0
   -1.1760   11.2950   -0.2400 C   0  0  0  0  0  0  0  0  0  0  0  0
   -1.7010   12.1940    0.9060 C   0  0  0  0  0  0  0  0  0  0  0  0
   -2.4300   10.7770   -0.9940 C   0  0  0  0  0  0  0  0  0  0  0  0
    2.1420   13.2950   -1.4400 C   0  0  1  0  0  0  0  0  0  0  0  0
    2.9520   12.3270   -2.3560 C   0  0  0  0  0  0  0  0  0  0  0  0
    3.1960   14.0360   -0.5360 C   0  0  0  0  0  0  0  0  0  0  0  0
    2.8020   15.4300   -0.0100 C   0  0  0  0  0  0  0  0  0  0  0  0
    2.2770   16.3150   -1.1440 C   0  0  2  0  0  0  0  0  0  0  0  0
    3.4420   16.5190   -2.1720 C   0  0  0  0  0  0  0  0  0  0  0  0
    3.3837   18.4718    1.6203 H   0  0  0  0  0  0  0  0  0  0  0  0
    3.9045   17.1911    0.4735 H   0  0  0  0  0  0  0  0  0  0  0  0
    4.7300   18.7864    0.4735 H   0  0  0  0  0  0  0  0  0  0  0  0
    3.3266   19.0480   -1.3366 H   0  0  0  0  0  0  0  0  0  0  0  0
    2.7873   20.7173    0.5500 H   0  0  0  0  0  0  0  0  0  0  0  0
    1.6140   20.5497   -0.8424 H   0  0  0  0  0  0  0  0  0  0  0  0
    0.8791   18.7400    1.2731 H   0  0  0  0  0  0  0  0  0  0  0  0
    1.0616   20.4231    1.9220 H   0  0  0  0  0  0  0  0  0  0  0  0
    0.0631   20.8664   -0.2872 H   0  0  0  0  0  0  0  0  0  0  0  0
   -1.4846   17.7775    1.8545 H   0  0  0  0  0  0  0  0  0  0  0  0
   -2.3453   17.2378    0.3731 H   0  0  0  0  0  0  0  0  0  0  0  0
   -0.5539   17.3701    0.3731 H   0  0  0  0  0  0  0  0  0  0  0  0
   -3.5886   19.7941   -0.1961 H   0  0  0  0  0  0  0  0  0  0  0  0
   -2.3336   20.3739   -1.3430 H   0  0  0  0  0  0  0  0  0  0  0  0
   -2.8204   18.6448   -1.3430 H   0  0  0  0  0  0  0  0  0  0  0  0
    1.2249   17.6514    0.2287 H   0  0  0  0  0  0  0  0  0  0  0  0
   -0.1094   18.5396   -1.5799 H   0  0  0  0  0  0  0  0  0  0  0  0
    1.3185   18.8161   -2.6004 H   0  0  0  0  0  0  0  0  0  0  0  0
   -0.5565   16.6813   -2.9096 H   0  0  0  0  0  0  0  0  0  0  0  0
    1.0299   16.7207   -3.6745 H   0  0  0  0  0  0  0  0  0  0  0  0
    0.2047   15.5381    0.3026 H   0  0  0  0  0  0  0  0  0  0  0  0
   -0.9256   16.2843   -0.8774 H   0  0  0  0  0  0  0  0  0  0  0  0
   -0.6722   14.5059   -0.8774 H   0  0  0  0  0  0  0  0  0  0  0  0
    2.0850   14.5974   -3.1791 H   0  0  0  0  0  0  0  0  0  0  0  0
   -0.4539   14.3429   -3.5372 H   0  0  0  0  0  0  0  0  0  0  0  0
    0.7064   12.9676   -3.9282 H   0  0  0  0  0  0  0  0  0  0  0  0
   -1.5407   12.2918   -2.7295 H   0  0  0  0  0  0  0  0  0  0  0  0
    0.9633   13.1623    0.3160 H   0  0  0  0  0  0  0  0  0  0  0  0
    2.0266   10.4990   -0.8115 H   0  0  0  0  0  0  0  0  0  0  0  0
    2.7162   11.4504    0.5778 H   0  0  0  0  0  0  0  0  0  0  0  0
    1.3954    9.5020    1.3410 H   0  0  0  0  0  0  0  0  0  0  0  0
    0.6965   11.0812    1.8732 H   0  0  0  0  0  0  0  0  0  0  0  0
   -1.0887    9.6562    1.1411 H   0  0  0  0  0  0  0  0  0  0  0  0
    0.7450    9.1540   -0.9120 H   0  0  0  0  0  0  0  0  0  0  0  0
   -1.4382   11.7440    1.8747 H   0  0  0  0  0  0  0  0  0  0  0  0
   -1.2433   13.1913    0.8287 H   0  0  0  0  0  0  0  0  0  0  0  0
   -2.7945   12.2854    0.8287 H   0  0  0  0  0  0  0  0  0  0  0  0
   -3.1918   10.4623   -0.2656 H   0  0  0  0  0  0  0  0  0  0  0  0
   -2.8363   11.5809   -1.6254 H   0  0  0  0  0  0  0  0  0  0  0  0
   -2.1505    9.9207   -1.6254 H   0  0  0  0  0  0  0  0  0  0  0  0
    3.5333   11.6323   -1.7320 H   0  0  0  0  0  0  0  0  0  0  0  0
    2.2582   11.7566   -2.9910 H   0  0  0  0  0  0  0  0  0  0  0  0
    3.6358   12.9094   -2.9910 H   0  0  0  0  0  0  0  0  0  0  0  0
    3.3956   13.3955    0.3357 H   0  0  0  0  0  0  0  0  0  0  0  0
    4.0641   14.2094   -1.1889 H   0  0  0  0  0  0  0  0  0  0  0  0
    2.0169   15.3184    0.7523 H   0  0  0  0  0  0  0  0  0  0  0  0
    3.6938   15.9067    0.4230 H   0  0  0  0  0  0  0  0  0  0  0  0
    4.3847   16.6841   -1.6298 H   0  0  0  0  0  0  0  0  0  0  0  0
    3.5344   15.6234   -2.8039 H   0  0  0  0  0  0  0  0  0  0  0  0
    3.2246   17.3927   -2.8039 H   0  0  0  0  0  0  0  0  0  0  0  0
  1  2  1  0
  2  3  1  0
  3  4  1  0
  4  5  1  0
  5  6  1  0
  6  7  1  0
  7  8  1  0
  7  9  1  0
  2 10  1  0
 10 11  1  0
 11 12  1  0
 12 13  1  0
 13 14  1  1
 13 15  1  0
 15 16  1  0
 16 17  1  0
 17 18  2  0
 18 19  1  0
 19 20  1  0
 20 21  1  0
 21 22  1  0
 22 23  1  0
 22 24  1  0
 24 25  1  0
 24 26  1  0
 19 27  1  0
 27 28  1  6
 27 29  1  0
 29 30  1  0
 30 31  1  0
 31 32  1  6
  7  5  1  0
 31 10  1  0
 31 13  1  0
 27 15  1  0
 24 18  1  0
  1 33  1  0
  1 34  1  0
  1 35  1  0
  2 36  1  6
  3 37  1  0
  3 38  1  0
  4 39  1  0
  4 40  1  0
  5 41  1  6
  8 42  1  0
  8 43  1  0
  8 44  1  0
  9 45  1  0
  9 46  1  0
  9 47  1  0
 10 48  1  1
 11 49  1  0
 11 50  1  0
 12 51  1  0
 12 52  1  0
 14 53  1  0
 14 54  1  0
 14 55  1  0
 15 56  1  6
 16 57  1  0
 16 58  1  0
 17 59  1  0
 19 60  1  1
 20 61  1  0
 20 62  1  0
 21 63  1  0
 21 64  1  0
 22 65  1  1
 23 66  1  0
 25 67  1  0
 25 68  1  0
 25 69  1  0
 26 70  1  0
 26 71  1  0
 26 72  1  0
 28 73  1  0
 28 74  1  0
 28 75  1  0
 29 76  1  0
 29 77  1  0
 30 78  1  0
 30 79  1  0
 32 80  1  0
 32 81  1  0
 32 82  1  0
M  END
>  <meeko>  (6) 
{"is_sidechain": [false], "intermolecular_energy": 2.731, "internal_energy": -0.839}

$$$$
EPH_relaxed_0001_pdb2pqr_Repair_359_r2_0001_out
     RDKit          3D

 82 86  0  0  0  0  0  0  0  0999 V2000
   -5.1630    5.8240   -1.9400 C   0  0  0  0  0  0  0  0  0  0  0  0
   -5.4960    7.3180   -1.8830 C   0  0  2  0  0  0  0  0  0  0  0  0
   -5.2760    7.9090   -0.4770 C   0  0  0  0  0  0  0  0  0  0  0  0
   -4.4710    9.2110   -0.4750 C   0  0  0  0  0  0  0  0  0  0  0  0
   -3.0500    8.9840   -0.0550 C   0  0  2  0  0  0  0  0  0  0  0  0
   -2.6180    9.7860    1.0520 O   0  0  0  0  0  0  0  0  0  0  0  0
   -1.9580   10.0270   -0.2010 C   0  0  0  0  0  0  0  0  0  0  0  0
   -2.2390   11.3750   -0.7880 C   0  0  0  0  0  0  0  0  0  0  0  0
   -0.5320    9.5710   -0.2290 C   0  0  0  0  0  0  0  0  0  0  0  0
   -6.9370    7.5450   -2.3240 C   0  0  1  0  0  0  0  0  0  0  0  0
   -7.2710    6.8390   -3.6650 C   0  0  0  0  0  0  0  0  0  0  0  0
   -8.7460    6.3720   -3.5710 C   0  0  0  0  0  0  0  0  0  0  0  0
   -9.3090    7.1070   -2.3320 C   0  0  1  0  0  0  0  0  0  0  0  0
   -9.6630    8.5390   -2.8410 C   0  0  0  0  0  0  0  0  0  0  0  0
  -10.5250    6.4300   -1.6200 C   0  0  2  0  0  0  0  0  0  0  0  0
  -11.7950    6.3020   -2.4800 C   0  0  0  0  0  0  0  0  0  0  0  0
  -12.7430    7.4510   -2.3930 C   0  0  0  0  0  0  0  0  0  0  0  0
  -12.7270    8.4090   -1.4470 C   0  0  0  0  0  0  0  0  0  0  0  0
  -11.7420    8.3390   -0.2720 C   0  0  1  0  0  0  0  0  0  0  0  0
  -12.4940    8.6330    1.0520 C   0  0  0  0  0  0  0  0  0  0  0  0
  -13.2600    9.9520    1.0100 C   0  0  0  0  0  0  0  0  0  0  0  0
  -14.2690    9.9610   -0.1350 C   0  0  2  0  0  0  0  0  0  0  0  0
  -15.2860    8.9920    0.1400 O   0  0  0  0  0  0  0  0  0  0  0  0
  -13.6280    9.6660   -1.5200 C   0  0  0  0  0  0  0  0  0  0  0  0
  -12.7520   10.8670   -1.9540 C   0  0  0  0  0  0  0  0  0  0  0  0
  -14.7720    9.5640   -2.5640 C   0  0  0  0  0  0  0  0  0  0  0  0
  -10.8530    7.0240   -0.1910 C   0  0  1  0  0  0  0  0  0  0  0  0
  -11.6190    5.9120    0.5890 C   0  0  0  0  0  0  0  0  0  0  0  0
   -9.5520    7.3340    0.6410 C   0  0  0  0  0  0  0  0  0  0  0  0
   -8.3450    7.8890   -0.1390 C   0  0  0  0  0  0  0  0  0  0  0  0
   -8.0580    7.0400   -1.3810 C   0  0  2  0  0  0  0  0  0  0  0  0
   -7.6770    5.5990   -0.8990 C   0  0  0  0  0  0  0  0  0  0  0  0
   -5.0749    5.4287   -0.9173 H   0  0  0  0  0  0  0  0  0  0  0  0
   -5.9641    5.2898   -2.4718 H   0  0  0  0  0  0  0  0  0  0  0  0
   -4.2109    5.6806   -2.4718 H   0  0  0  0  0  0  0  0  0  0  0  0
   -4.8104    7.8367   -2.5692 H   0  0  0  0  0  0  0  0  0  0  0  0
   -6.2595    8.1083   -0.0264 H   0  0  0  0  0  0  0  0  0  0  0  0
   -4.6940    7.1707    0.0942 H   0  0  0  0  0  0  0  0  0  0  0  0
   -4.4792    9.6367   -1.4893 H   0  0  0  0  0  0  0  0  0  0  0  0
   -4.9355    9.9001    0.2457 H   0  0  0  0  0  0  0  0  0  0  0  0
   -3.1053    7.9269   -0.3542 H   0  0  0  0  0  0  0  0  0  0  0  0
   -2.3908   12.1033    0.0222 H   0  0  0  0  0  0  0  0  0  0  0  0
   -1.3871   11.6894   -1.4088 H   0  0  0  0  0  0  0  0  0  0  0  0
   -3.1456   11.3228   -1.4088 H   0  0  0  0  0  0  0  0  0  0  0  0
   -0.1643    9.4534    0.8011 H   0  0  0  0  0  0  0  0  0  0  0  0
   -0.4656    8.6068   -0.7543 H   0  0  0  0  0  0  0  0  0  0  0  0
    0.0815   10.3178   -0.7543 H   0  0  0  0  0  0  0  0  0  0  0  0
   -6.9451    8.6442   -2.3640 H   0  0  0  0  0  0  0  0  0  0  0  0
   -7.1489    7.5410   -4.5030 H   0  0  0  0  0  0  0  0  0  0  0  0
   -6.5979    5.9868   -3.8403 H   0  0  0  0  0  0  0  0  0  0  0  0
   -9.3018    6.6558   -4.4768 H   0  0  0  0  0  0  0  0  0  0  0  0
   -8.8330    5.2790   -3.4832 H   0  0  0  0  0  0  0  0  0  0  0  0
   -9.8274    9.2039   -1.9802 H   0  0  0  0  0  0  0  0  0  0  0  0
   -8.8337    8.9268   -3.4508 H   0  0  0  0  0  0  0  0  0  0  0  0
  -10.5775    8.4957   -3.4508 H   0  0  0  0  0  0  0  0  0  0  0  0
  -10.1644    5.4027   -1.4630 H   0  0  0  0  0  0  0  0  0  0  0  0
  -11.4850    6.1961   -3.5301 H   0  0  0  0  0  0  0  0  0  0  0  0
  -12.3391    5.4289   -2.0906 H   0  0  0  0  0  0  0  0  0  0  0  0
  -13.5210    7.5214   -3.1675 H   0  0  0  0  0  0  0  0  0  0  0  0
  -10.9917    9.1221   -0.4561 H   0  0  0  0  0  0  0  0  0  0  0  0
  -13.2071    7.8171    1.2410 H   0  0  0  0  0  0  0  0  0  0  0  0
  -11.7433    8.7085    1.8524 H   0  0  0  0  0  0  0  0  0  0  0  0
  -13.7944   10.0883    1.9617 H   0  0  0  0  0  0  0  0  0  0  0  0
  -12.5418   10.7700    0.8513 H   0  0  0  0  0  0  0  0  0  0  0  0
  -14.6909   10.9751   -0.1947 H   0  0  0  0  0  0  0  0  0  0  0  0
  -14.8690    8.1140    0.1190 H   0  0  0  0  0  0  0  0  0  0  0  0
  -12.3733   11.3862   -1.0612 H   0  0  0  0  0  0  0  0  0  0  0  0
  -11.9046   10.5047   -2.5545 H   0  0  0  0  0  0  0  0  0  0  0  0
  -13.3559   11.5632   -2.5545 H   0  0  0  0  0  0  0  0  0  0  0  0
  -15.7371    9.4780   -2.0432 H   0  0  0  0  0  0  0  0  0  0  0  0
  -14.7746   10.4655   -3.1943 H   0  0  0  0  0  0  0  0  0  0  0  0
  -14.6151    8.6763   -3.1943 H   0  0  0  0  0  0  0  0  0  0  0  0
  -11.5048    6.0777    1.6704 H   0  0  0  0  0  0  0  0  0  0  0  0
  -12.6859    5.9464    0.3234 H   0  0  0  0  0  0  0  0  0  0  0  0
  -11.2066    4.9274    0.3234 H   0  0  0  0  0  0  0  0  0  0  0  0
   -9.8180    8.0721    1.4120 H   0  0  0  0  0  0  0  0  0  0  0  0
   -9.2202    6.3602    1.0303 H   0  0  0  0  0  0  0  0  0  0  0  0
   -8.5619    8.9213   -0.4510 H   0  0  0  0  0  0  0  0  0  0  0  0
   -7.4617    7.8624    0.5160 H   0  0  0  0  0  0  0  0  0  0  0  0
   -7.6694    5.5702    0.2006 H   0  0  0  0  0  0  0  0  0  0  0  0
   -8.4153    4.8779   -1.2796 H   0  0  0  0  0  0  0  0  0  0  0  0
   -6.6787    5.3370   -1.2796 H   0  0  0  0  0  0  0  0  0  0  0  0
  1  2  1  0
  2  3  1  0
  3  4  1  0
  4  5  1  0
  5  6  1  0
  6  7  1  0
  7  8  1  0
  7  9  1  0
  2 10  1  0
 10 11  1  0
 11 12  1  0
 12 13  1  0
 13 14  1  6
 13 15  1  0
 15 16  1  0
 16 17  1  0
 17 18  2  0
 18 19  1  0
 19 20  1  0
 20 21  1  0
 21 22  1  0
 22 23  1  0
 22 24  1  0
 24 25  1  0
 24 26  1  0
 19 27  1  0
 27 28  1  1
 27 29  1  0
 29 30  1  0
 30 31  1  0
 31 32  1  1
  7  5  1  0
 31 10  1  0
 31 13  1  0
 27 15  1  0
 24 18  1  0
  1 33  1  0
  1 34  1  0
  1 35  1  0
  2 36  1  6
  3 37  1  0
  3 38  1  0
  4 39  1  0
  4 40  1  0
  5 41  1  1
  8 42  1  0
  8 43  1  0
  8 44  1  0
  9 45  1  0
  9 46  1  0
  9 47  1  0
 10 48  1  6
 11 49  1  0
 11 50  1  0
 12 51  1  0
 12 52  1  0
 14 53  1  0
 14 54  1  0
 14 55  1  0
 15 56  1  1
 16 57  1  0
 16 58  1  0
 17 59  1  0
 19 60  1  6
 20 61  1  0
 20 62  1  0
 21 63  1  0
 21 64  1  0
 22 65  1  6
 23 66  1  0
 25 67  1  0
 25 68  1  0
 25 69  1  0
 26 70  1  0
 26 71  1  0
 26 72  1  0
 28 73  1  0
 28 74  1  0
 28 75  1  0
 29 76  1  0
 29 77  1  0
 30 78  1  0
 30 79  1  0
 32 80  1  0
 32 81  1  0
 32 82  1  0
M  END
>  <meeko>  (7) 
{"is_sidechain": [false], "intermolecular_energy": 2.731, "internal_energy": -0.839}

$$$$
EPH_relaxed_0001_pdb2pqr_Repair_359_r2_0001_out
     RDKit          3D

 82 86  0  0  0  0  0  0  0  0999 V2000
   -4.9410    7.0820   -2.5510 C   0  0  0  0  0  0  0  0  0  0  0  0
   -5.4210    7.8070   -1.2910 C   0  0  2  0  0  0  0  0  0  0  0  0
   -6.9200    8.1630   -1.3610 C   0  0  0  0  0  0  0  0  0  0  0  0
   -7.8470    6.9530   -1.2130 C   0  0  0  0  0  0  0  0  0  0  0  0
   -8.7580    7.0950   -0.0310 C   0  0  2  0  0  0  0  0  0  0  0  0
   -9.7770    6.0910    0.0630 O   0  0  0  0  0  0  0  0  0  0  0  0
  -10.2310    7.4380   -0.1460 C   0  0  0  0  0  0  0  0  0  0  0  0
  -10.8780    7.6630   -1.4770 C   0  0  0  0  0  0  0  0  0  0  0  0
  -10.9220    8.0330    1.0420 C   0  0  0  0  0  0  0  0  0  0  0  0
   -4.5960    9.0700   -1.0720 C   0  0  1  0  0  0  0  0  0  0  0  0
   -5.1290    9.9360    0.1000 C   0  0  0  0  0  0  0  0  0  0  0  0
   -3.8930   10.5760    0.7820 C   0  0  0  0  0  0  0  0  0  0  0  0
   -2.7300   10.3310   -0.2090 C   0  0  1  0  0  0  0  0  0  0  0  0
   -2.8760   11.4530   -1.2840 C   0  0  0  0  0  0  0  0  0  0  0  0
   -1.2930   10.3030    0.4060 C   0  0  2  0  0  0  0  0  0  0  0  0
   -0.8380   11.6180    1.0620 C   0  0  0  0  0  0  0  0  0  0  0  0
   -0.1290   12.5700    0.1580 C   0  0  0  0  0  0  0  0  0  0  0  0
    0.3840   12.2680   -1.0490 C   0  0  0  0  0  0  0  0  0  0  0  0
    0.3620   10.8270   -1.5760 C   0  0  1  0  0  0  0  0  0  0  0  0
    1.7560   10.4650   -2.1540 C   0  0  0  0  0  0  0  0  0  0  0  0
    2.2300   11.4640   -3.2050 C   0  0  0  0  0  0  0  0  0  0  0  0
    2.2950   12.8750   -2.6270 C   0  0  2  0  0  0  0  0  0  0  0  0
    3.3240   12.9200   -1.6340 O   0  0  0  0  0  0  0  0  0  0  0  0
    0.9490   13.3450   -2.0070 C   0  0  0  0  0  0  0  0  0  0  0  0
   -0.0860   13.5860   -3.1330 C   0  0  0  0  0  0  0  0  0  0  0  0
    1.1890   14.7250   -1.3360 C   0  0  0  0  0  0  0  0  0  0  0  0
   -0.1840    9.7280   -0.5660 C   0  0  1  0  0  0  0  0  0  0  0  0
    0.9770    9.2130    0.3390 C   0  0  0  0  0  0  0  0  0  0  0  0
   -0.6930    8.4840   -1.3860 C   0  0  0  0  0  0  0  0  0  0  0  0
   -2.1570    8.5180   -1.8630 C   0  0  0  0  0  0  0  0  0  0  0  0
   -3.1000    8.8880   -0.7140 C   0  0  2  0  0  0  0  0  0  0  0  0
   -2.9920    7.7650    0.3740 C   0  0  0  0  0  0  0  0  0  0  0  0
   -4.3548    6.1966   -2.2637 H   0  0  0  0  0  0  0  0  0  0  0  0
   -5.8105    6.7684   -3.1473 H   0  0  0  0  0  0  0  0  0  0  0  0
   -4.3128    7.7600   -3.1473 H   0  0  0  0  0  0  0  0  0  0  0  0
   -5.2837    7.1210   -0.4422 H   0  0  0  0  0  0  0  0  0  0  0  0
   -7.1461    8.8747   -0.5533 H   0  0  0  0  0  0  0  0  0  0  0  0
   -7.1034    8.5887   -2.3586 H   0  0  0  0  0  0  0  0  0  0  0  0
   -8.4566    6.8572   -2.1236 H   0  0  0  0  0  0  0  0  0  0  0  0
   -7.2237    6.0595   -1.0607 H   0  0  0  0  0  0  0  0  0  0  0  0
   -7.9456    7.5253    0.5731 H   0  0  0  0  0  0  0  0  0  0  0  0
  -11.9074    8.0210   -1.3284 H   0  0  0  0  0  0  0  0  0  0  0  0
  -10.3060    8.4150   -2.0403 H   0  0  0  0  0  0  0  0  0  0  0  0
  -10.8960    6.7184   -2.0403 H   0  0  0  0  0  0  0  0  0  0  0  0
  -10.4678    7.6419    1.9643 H   0  0  0  0  0  0  0  0  0  0  0  0
  -10.8168    9.1277    1.0171 H   0  0  0  0  0  0  0  0  0  0  0  0
  -11.9889    7.7665    1.0171 H   0  0  0  0  0  0  0  0  0  0  0  0
   -4.6918    9.5282   -2.0674 H   0  0  0  0  0  0  0  0  0  0  0  0
   -5.7988   10.7202   -0.2827 H   0  0  0  0  0  0  0  0  0  0  0  0
   -5.7015    9.3252    0.8136 H   0  0  0  0  0  0  0  0  0  0  0  0
   -4.0499   11.6535    0.9378 H   0  0  0  0  0  0  0  0  0  0  0  0
   -3.6937   10.1445    1.7740 H   0  0  0  0  0  0  0  0  0  0  0  0
   -3.0025   12.4250   -0.7847 H   0  0  0  0  0  0  0  0  0  0  0  0
   -1.9736   11.4783   -1.9125 H   0  0  0  0  0  0  0  0  0  0  0  0
   -3.7548   11.2465   -1.9125 H   0  0  0  0  0  0  0  0  0  0  0  0
   -1.4024    9.5814    1.2290 H   0  0  0  0  0  0  0  0  0  0  0  0
   -1.7294   12.1260    1.4587 H   0  0  0  0  0  0  0  0  0  0  0  0
   -0.1102   11.3353    1.8368 H   0  0  0  0  0  0  0  0  0  0  0  0
   -0.0160   13.6068    0.5078 H   0  0  0  0  0  0  0  0  0  0  0  0
   -0.3906   10.8081   -2.3780 H   0  0  0  0  0  0  0  0  0  0  0  0
    2.4853   10.4464   -1.3307 H   0  0  0  0  0  0  0  0  0  0  0  0
    1.6709    9.4824   -2.6412 H   0  0  0  0  0  0  0  0  0  0  0  0
    3.2314   11.1715   -3.5538 H   0  0  0  0  0  0  0  0  0  0  0  0
    1.5148   11.4598   -4.0408 H   0  0  0  0  0  0  0  0  0  0  0  0
    2.5149   13.5620   -3.4575 H   0  0  0  0  0  0  0  0  0  0  0  0
    3.4380   13.8490   -1.3700 H   0  0  0  0  0  0  0  0  0  0  0  0
   -1.0657   13.8141   -2.6878 H   0  0  0  0  0  0  0  0  0  0  0  0
    0.2399   14.4323   -3.7556 H   0  0  0  0  0  0  0  0  0  0  0  0
   -0.1675   12.6828   -3.7556 H   0  0  0  0  0  0  0  0  0  0  0  0
    1.1689   14.6094   -0.2423 H   0  0  0  0  0  0  0  0  0  0  0  0
    2.1689   15.1176   -1.6452 H   0  0  0  0  0  0  0  0  0  0  0  0
    0.3992   15.4254   -1.6452 H   0  0  0  0  0  0  0  0  0  0  0  0
    0.6998    9.3359    1.3964 H   0  0  0  0  0  0  0  0  0  0  0  0
    1.1609    8.1489    0.1295 H   0  0  0  0  0  0  0  0  0  0  0  0
    1.8892    9.7909    0.1295 H   0  0  0  0  0  0  0  0  0  0  0  0
   -0.0549    8.3891   -2.2770 H   0  0  0  0  0  0  0  0  0  0  0  0
   -0.6379    7.6366   -0.6869 H   0  0  0  0  0  0  0  0  0  0  0  0
   -2.2569    9.2643   -2.6649 H   0  0  0  0  0  0  0  0  0  0  0  0
   -2.4290    7.5179   -2.2315 H   0  0  0  0  0  0  0  0  0  0  0  0
   -3.0357    8.2189    1.3750 H   0  0  0  0  0  0  0  0  0  0  0  0
   -3.8263    7.0580    0.2553 H   0  0  0  0  0  0  0  0  0  0  0  0
   -2.0383    7.2300    0.2553 H   0  0  0  0  0  0  0  0  0  0  0  0
  1  2  1  0
  2  3  1  0
  3  4  1  0
  4  5  1  0
  5  6  1  0
  6  7  1  0
  7  8  1  0
  7  9  1  0
  2 10  1  0
 10 11  1  0
 11 12  1  0
 12 13  1  0
 13 14  1  6
 13 15  1  0
 15 16  1  0
 16 17  1  0
 17 18  2  0
 18 19  1  0
 19 20  1  0
 20 21  1  0
 21 22  1  0
 22 23  1  0
 22 24  1  0
 24 25  1  0
 24 26  1  0
 19 27  1  0
 27 28  1  1
 27 29  1  0
 29 30  1  0
 30 31  1  0
 31 32  1  1
  7  5  1  0
 31 10  1  0
 31 13  1  0
 27 15  1  0
 24 18  1  0
  1 33  1  0
  1 34  1  0
  1 35  1  0
  2 36  1  1
  3 37  1  0
  3 38  1  0
  4 39  1  0
  4 40  1  0
  5 41  1  1
  8 42  1  0
  8 43  1  0
  8 44  1  0
  9 45  1  0
  9 46  1  0
  9 47  1  0
 10 48  1  6
 11 49  1  0
 11 50  1  0
 12 51  1  0
 12 52  1  0
 14 53  1  0
 14 54  1  0
 14 55  1  0
 15 56  1  1
 16 57  1  0
 16 58  1  0
 17 59  1  0
 19 60  1  6
 20 61  1  0
 20 62  1  0
 21 63  1  0
 21 64  1  0
 22 65  1  6
 23 66  1  0
 25 67  1  0
 25 68  1  0
 25 69  1  0
 26 70  1  0
 26 71  1  0
 26 72  1  0
 28 73  1  0
 28 74  1  0
 28 75  1  0
 29 76  1  0
 29 77  1  0
 30 78  1  0
 30 79  1  0
 32 80  1  0
 32 81  1  0
 32 82  1  0
M  END
>  <meeko>  (8) 
{"is_sidechain": [false], "intermolecular_energy": 2.731, "internal_energy": -0.839}

$$$$
EPH_relaxed_0001_pdb2pqr_Repair_359_r2_0001_out
     RDKit          3D

 82 86  0  0  0  0  0  0  0  0999 V2000
   -4.5400   11.3560   -0.1900 C   0  0  0  0  0  0  0  0  0  0  0  0
   -3.1770   10.7750   -0.5800 C   0  0  2  0  0  0  0  0  0  0  0  0
   -2.9490    9.3750    0.0230 C   0  0  0  0  0  0  0  0  0  0  0  0
   -2.7560    8.2770   -1.0270 C   0  0  0  0  0  0  0  0  0  0  0  0
   -1.5810    8.5590   -1.9140 C   0  0  2  0  0  0  0  0  0  0  0  0
   -0.8200    7.4020   -2.2860 O   0  0  0  0  0  0  0  0  0  0  0  0
   -0.1400    8.3740   -1.4760 C   0  0  0  0  0  0  0  0  0  0  0  0
    0.2030    7.8900   -0.1030 C   0  0  0  0  0  0  0  0  0  0  0  0
    0.9310    9.1230   -2.2070 C   0  0  0  0  0  0  0  0  0  0  0  0
   -2.0650   11.7190   -0.1390 C   0  0  1  0  0  0  0  0  0  0  0  0
   -1.1510   11.0980    0.9510 C   0  0  0  0  0  0  0  0  0  0  0  0
    0.2820   11.6280    0.6880 C   0  0  0  0  0  0  0  0  0  0  0  0
    0.0920   12.7820   -0.3240 C   0  0  1  0  0  0  0  0  0  0  0  0
   -0.3380   14.0080    0.5420 C   0  0  0  0  0  0  0  0  0  0  0  0
    1.3220   13.1170   -1.2290 C   0  0  2  0  0  0  0  0  0  0  0  0
    2.5750   13.5980   -0.4750 C   0  0  0  0  0  0  0  0  0  0  0  0
    2.6730   15.0750   -0.2780 C   0  0  0  0  0  0  0  0  0  0  0  0
    1.9450   16.0010   -0.9300 C   0  0  0  0  0  0  0  0  0  0  0  0
    0.9760   15.5970   -2.0480 C   0  0  1  0  0  0  0  0  0  0  0  0
    1.1710   16.5370   -3.2670 C   0  0  0  0  0  0  0  0  0  0  0  0
    1.0500   18.0110   -2.8940 C   0  0  0  0  0  0  0  0  0  0  0  0
    2.0690   18.3880   -1.8210 C   0  0  2  0  0  0  0  0  0  0  0  0
    3.3830   18.2900   -2.3790 O   0  0  0  0  0  0  0  0  0  0  0  0
    1.9740   17.5010   -0.5480 C   0  0  0  0  0  0  0  0  0  0  0  0
    0.6710   17.8320    0.2210 C   0  0  0  0  0  0  0  0  0  0  0  0
    3.1450   17.8910    0.3930 C   0  0  0  0  0  0  0  0  0  0  0  0
    0.9870   14.0600   -2.4540 C   0  0  1  0  0  0  0  0  0  0  0  0
    2.0870   13.8020   -3.5290 C   0  0  0  0  0  0  0  0  0  0  0  0
   -0.3880   13.6970   -3.1310 C   0  0  0  0  0  0  0  0  0  0  0  0
   -1.5290   13.2580   -2.1930 C   0  0  0  0  0  0  0  0  0  0  0  0
   -1.0520   12.1780   -1.2170 C   0  0  2  0  0  0  0  0  0  0  0  0
   -0.6340   10.9240   -2.0590 C   0  0  0  0  0  0  0  0  0  0  0  0
   -4.6233   11.3915    0.9063 H   0  0  0  0  0  0  0  0  0  0  0  0
   -4.6354   12.3730   -0.5981 H   0  0  0  0  0  0  0  0  0  0  0  0
   -5.3398   10.7206   -0.5981 H   0  0  0  0  0  0  0  0  0  0  0  0
   -3.1630   10.6692   -1.6748 H   0  0  0  0  0  0  0  0  0  0  0  0
   -2.0504    9.4117    0.6564 H   0  0  0  0  0  0  0  0  0  0  0  0
   -3.8541    9.1191    0.5934 H   0  0  0  0  0  0  0  0  0  0  0  0
   -2.5933    7.3177   -0.5140 H   0  0  0  0  0  0  0  0  0  0  0  0
   -3.6586    8.2401   -1.6547 H   0  0  0  0  0  0  0  0  0  0  0  0
   -2.1074    9.4032   -2.3833 H   0  0  0  0  0  0  0  0  0  0  0  0
   -0.2634    8.5481    0.6449 H   0  0  0  0  0  0  0  0  0  0  0  0
   -0.1705    6.8637    0.0279 H   0  0  0  0  0  0  0  0  0  0  0  0
    1.2951    7.9023    0.0279 H   0  0  0  0  0  0  0  0  0  0  0  0
    1.6081    9.5965   -1.4809 H   0  0  0  0  0  0  0  0  0  0  0  0
    1.5005    8.4253   -2.8386 H   0  0  0  0  0  0  0  0  0  0  0  0
    0.4711    9.8973   -2.8386 H   0  0  0  0  0  0  0  0  0  0  0  0
   -2.6714   12.5736    0.1956 H   0  0  0  0  0  0  0  0  0  0  0  0
   -1.4911   11.4056    1.9509 H   0  0  0  0  0  0  0  0  0  0  0  0
   -1.1793    9.9991    0.9111 H   0  0  0  0  0  0  0  0  0  0  0  0
    0.7358   11.9988    1.6189 H   0  0  0  0  0  0  0  0  0  0  0  0
    0.9528   10.8444    0.3058 H   0  0  0  0  0  0  0  0  0  0  0  0
   -0.2486   13.7531    1.6083 H   0  0  0  0  0  0  0  0  0  0  0  0
    0.3134   14.8646    0.3139 H   0  0  0  0  0  0  0  0  0  0  0  0
   -1.3817   14.2700    0.3139 H   0  0  0  0  0  0  0  0  0  0  0  0
    1.5836   12.1332   -1.6459 H   0  0  0  0  0  0  0  0  0  0  0  0
    2.5787   13.1218    0.5166 H   0  0  0  0  0  0  0  0  0  0  0  0
    3.4341   13.3169   -1.1019 H   0  0  0  0  0  0  0  0  0  0  0  0
    3.4016   15.4370    0.4624 H   0  0  0  0  0  0  0  0  0  0  0  0
   -0.0354   15.7261   -1.6352 H   0  0  0  0  0  0  0  0  0  0  0  0
    2.1706   16.3615   -3.6913 H   0  0  0  0  0  0  0  0  0  0  0  0
    0.3772   16.3102   -3.9939 H   0  0  0  0  0  0  0  0  0  0  0  0
    1.2267   18.6246   -3.7897 H   0  0  0  0  0  0  0  0  0  0  0  0
    0.0399   18.1910   -2.4975 H   0  0  0  0  0  0  0  0  0  0  0  0
    1.8484   19.4176   -1.5029 H   0  0  0  0  0  0  0  0  0  0  0  0
    3.8510   17.5800   -1.9070 H   0  0  0  0  0  0  0  0  0  0  0  0
    0.8616   17.7836    1.3033 H   0  0  0  0  0  0  0  0  0  0  0  0
    0.3341   18.8443   -0.0471 H   0  0  0  0  0  0  0  0  0  0  0  0
   -0.1082   17.1033   -0.0471 H   0  0  0  0  0  0  0  0  0  0  0  0
    2.8251   17.7844    1.4400 H   0  0  0  0  0  0  0  0  0  0  0  0
    4.0037   17.2304    0.2029 H   0  0  0  0  0  0  0  0  0  0  0  0
    3.4361   18.9346    0.2029 H   0  0  0  0  0  0  0  0  0  0  0  0
    3.0416   13.5781   -3.0304 H   0  0  0  0  0  0  0  0  0  0  0  0
    1.7925   12.9485   -4.1574 H   0  0  0  0  0  0  0  0  0  0  0  0
    2.2027   14.6974   -4.1574 H   0  0  0  0  0  0  0  0  0  0  0  0
   -0.7326   14.5847   -3.6816 H   0  0  0  0  0  0  0  0  0  0  0  0
   -0.1771   12.8187   -3.7588 H   0  0  0  0  0  0  0  0  0  0  0  0
   -1.8804   14.1297   -1.6214 H   0  0  0  0  0  0  0  0  0  0  0  0
   -2.3448   12.8434   -2.8034 H   0  0  0  0  0  0  0  0  0  0  0  0
   -0.3600   10.1020   -1.3813 H   0  0  0  0  0  0  0  0  0  0  0  0
   -1.4764   10.6109   -2.6933 H   0  0  0  0  0  0  0  0  0  0  0  0
    0.2278   11.1789   -2.6933 H   0  0  0  0  0  0  0  0  0  0  0  0
  1  2  1  0
  2  3  1  0
  3  4  1  0
  4  5  1  0
  5  6  1  0
  6  7  1  0
  7  8  1  0
  7  9  1  0
  2 10  1  0
 10 11  1  0
 11 12  1  0
 12 13  1  0
 13 14  1  1
 13 15  1  0
 15 16  1  0
 16 17  1  0
 17 18  2  0
 18 19  1  0
 19 20  1  0
 20 21  1  0
 21 22  1  0
 22 23  1  0
 22 24  1  0
 24 25  1  0
 24 26  1  0
 19 27  1  0
 27 28  1  6
 27 29  1  0
 29 30  1  0
 30 31  1  0
 31 32  1  6
  7  5  1  0
 31 10  1  0
 31 13  1  0
 27 15  1  0
 24 18  1  0
  1 33  1  0
  1 34  1  0
  1 35  1  0
  2 36  1  6
  3 37  1  0
  3 38  1  0
  4 39  1  0
  4 40  1  0
  5 41  1  6
  8 42  1  0
  8 43  1  0
  8 44  1  0
  9 45  1  0
  9 46  1  0
  9 47  1  0
 10 48  1  1
 11 49  1  0
 11 50  1  0
 12 51  1  0
 12 52  1  0
 14 53  1  0
 14 54  1  0
 14 55  1  0
 15 56  1  6
 16 57  1  0
 16 58  1  0
 17 59  1  0
 19 60  1  1
 20 61  1  0
 20 62  1  0
 21 63  1  0
 21 64  1  0
 22 65  1  1
 23 66  1  0
 25 67  1  0
 25 68  1  0
 25 69  1  0
 26 70  1  0
 26 71  1  0
 26 72  1  0
 28 73  1  0
 28 74  1  0
 28 75  1  0
 29 76  1  0
 29 77  1  0
 30 78  1  0
 30 79  1  0
 32 80  1  0
 32 81  1  0
 32 82  1  0
M  END
>  <meeko>  (9) 
{"is_sidechain": [false], "intermolecular_energy": 2.731, "internal_energy": -0.839}

$$$$
EPH_relaxed_0001_pdb2pqr_Repair_359_r2_0001_out
     RDKit          3D

 82 86  0  0  0  0  0  0  0  0999 V2000
    2.3860   17.9290   -3.6790 C   0  0  0  0  0  0  0  0  0  0  0  0
    1.7890   17.7600   -2.2800 C   0  0  2  0  0  0  0  0  0  0  0  0
    2.2810   18.8470   -1.3030 C   0  0  0  0  0  0  0  0  0  0  0  0
    1.3930   20.0940   -1.2730 C   0  0  0  0  0  0  0  0  0  0  0  0
    0.2160   19.9150   -0.3630 C   0  0  2  0  0  0  0  0  0  0  0  0
   -0.4840   18.6750   -0.5270 O   0  0  0  0  0  0  0  0  0  0  0  0
   -1.2190   19.8660   -0.8510 C   0  0  0  0  0  0  0  0  0  0  0  0
   -1.5540   19.9970   -2.3040 C   0  0  0  0  0  0  0  0  0  0  0  0
   -2.3160   20.1800    0.1180 C   0  0  0  0  0  0  0  0  0  0  0  0
    2.1280   16.3780   -1.7340 C   0  0  1  0  0  0  0  0  0  0  0  0
    3.1130   16.4340   -0.5350 C   0  0  0  0  0  0  0  0  0  0  0  0
    2.7140   15.2840    0.4250 C   0  0  0  0  0  0  0  0  0  0  0  0
    1.7410   14.4080   -0.3980 C   0  0  1  0  0  0  0  0  0  0  0  0
    2.6610   13.5140   -1.2870 C   0  0  0  0  0  0  0  0  0  0  0  0
    0.7210   13.5510    0.4210 C   0  0  2  0  0  0  0  0  0  0  0  0
    1.3510   12.4930    1.3440 C   0  0  0  0  0  0  0  0  0  0  0  0
    1.5560   11.1490    0.7270 C   0  0  0  0  0  0  0  0  0  0  0  0
    0.9920   10.7200   -0.4170 C   0  0  0  0  0  0  0  0  0  0  0  0
   -0.0280   11.5870   -1.1660 C   0  0  1  0  0  0  0  0  0  0  0  0
   -1.2480   10.7180   -1.5700 C   0  0  0  0  0  0  0  0  0  0  0  0
   -0.8470    9.4760   -2.3590 C   0  0  0  0  0  0  0  0  0  0  0  0
    0.1230    8.6110   -1.5590 C   0  0  2  0  0  0  0  0  0  0  0  0
   -0.5650    8.0780   -0.4230 O   0  0  0  0  0  0  0  0  0  0  0  0
    1.3880    9.3820   -1.0890 C   0  0  0  0  0  0  0  0  0  0  0  0
    2.2880    9.6980   -2.3090 C   0  0  0  0  0  0  0  0  0  0  0  0
    2.2120    8.4360   -0.1750 C   0  0  0  0  0  0  0  0  0  0  0  0
   -0.4530   12.9380   -0.4450 C   0  0  1  0  0  0  0  0  0  0  0  0
   -1.6350   12.6690    0.5360 C   0  0  0  0  0  0  0  0  0  0  0  0
   -0.9920   13.9500   -1.5240 C   0  0  0  0  0  0  0  0  0  0  0  0
    0.0500   14.8520   -2.2120 C   0  0  0  0  0  0  0  0  0  0  0  0
    0.9590   15.5260   -1.1800 C   0  0  2  0  0  0  0  0  0  0  0  0
    0.0650   16.4490   -0.2840 C   0  0  0  0  0  0  0  0  0  0  0  0
    3.4412   18.2277   -3.5937 H   0  0  0  0  0  0  0  0  0  0  0  0
    2.3176   16.9762   -4.2244 H   0  0  0  0  0  0  0  0  0  0  0  0
    1.8283   18.7046   -4.2244 H   0  0  0  0  0  0  0  0  0  0  0  0
    0.6980   17.8671   -2.3709 H   0  0  0  0  0  0  0  0  0  0  0  0
    2.3104   18.4170   -0.2910 H   0  0  0  0  0  0  0  0  0  0  0  0
    3.2740   19.1673   -1.6514 H   0  0  0  0  0  0  0  0  0  0  0  0
    1.9897   20.9480   -0.9201 H   0  0  0  0  0  0  0  0  0  0  0  0
    1.0154   20.2704   -2.2910 H   0  0  0  0  0  0  0  0  0  0  0  0
    0.7070   20.5034    0.4262 H   0  0  0  0  0  0  0  0  0  0  0  0
   -2.5736   20.3957   -2.4107 H   0  0  0  0  0  0  0  0  0  0  0  0
   -0.8402   20.6822   -2.7845 H   0  0  0  0  0  0  0  0  0  0  0  0
   -1.4944   19.0093   -2.7845 H   0  0  0  0  0  0  0  0  0  0  0  0
   -1.9393   20.0722    1.1458 H   0  0  0  0  0  0  0  0  0  0  0  0
   -2.6602   21.2127   -0.0399 H   0  0  0  0  0  0  0  0  0  0  0  0
   -3.1545   19.4858   -0.0399 H   0  0  0  0  0  0  0  0  0  0  0  0
    2.5329   15.9140   -2.6455 H   0  0  0  0  0  0  0  0  0  0  0  0
    4.1459   16.2932   -0.8863 H   0  0  0  0  0  0  0  0  0  0  0  0
    3.0622   17.4084   -0.0270 H   0  0  0  0  0  0  0  0  0  0  0  0
    3.5992   14.7041    0.7252 H   0  0  0  0  0  0  0  0  0  0  0  0
    2.2564   15.6559    1.3536 H   0  0  0  0  0  0  0  0  0  0  0  0
    3.3008   12.8923   -0.6434 H   0  0  0  0  0  0  0  0  0  0  0  0
    2.0394   12.8657   -1.9221 H   0  0  0  0  0  0  0  0  0  0  0  0
    3.2912   14.1539   -1.9221 H   0  0  0  0  0  0  0  0  0  0  0  0
    0.2677   14.2981    1.0891 H   0  0  0  0  0  0  0  0  0  0  0  0
    2.3310   12.8691    1.6728 H   0  0  0  0  0  0  0  0  0  0  0  0
    0.6373   12.3440    2.1676 H   0  0  0  0  0  0  0  0  0  0  0  0
    2.2244   10.4506    1.2518 H   0  0  0  0  0  0  0  0  0  0  0  0
    0.4864   11.9511   -2.0676 H   0  0  0  0  0  0  0  0  0  0  0  0
   -1.7729   10.4011   -0.6567 H   0  0  0  0  0  0  0  0  0  0  0  0
   -1.8937   11.3300   -2.2170 H   0  0  0  0  0  0  0  0  0  0  0  0
   -1.7483    8.8885   -2.5881 H   0  0  0  0  0  0  0  0  0  0  0  0
   -0.3496    9.7950   -3.2868 H   0  0  0  0  0  0  0  0  0  0  0  0
    0.4746    7.8084   -2.2240 H   0  0  0  0  0  0  0  0  0  0  0  0
   -1.4280    8.5210   -0.3670 H   0  0  0  0  0  0  0  0  0  0  0  0
    3.2720   10.0435   -1.9591 H   0  0  0  0  0  0  0  0  0  0  0  0
    2.4132    8.7901   -2.9173 H   0  0  0  0  0  0  0  0  0  0  0  0
    1.8181   10.4849   -2.9173 H   0  0  0  0  0  0  0  0  0  0  0  0
    2.0055    8.6730    0.8791 H   0  0  0  0  0  0  0  0  0  0  0  0
    1.9300    7.3924   -0.3782 H   0  0  0  0  0  0  0  0  0  0  0  0
    3.2845    8.5722   -0.3782 H   0  0  0  0  0  0  0  0  0  0  0  0
   -1.2768   12.7505    1.5728 H   0  0  0  0  0  0  0  0  0  0  0  0
   -2.4303   13.4091    0.3636 H   0  0  0  0  0  0  0  0  0  0  0  0
   -2.0317   11.6576    0.3636 H   0  0  0  0  0  0  0  0  0  0  0  0
   -1.4945   13.3643   -2.3079 H   0  0  0  0  0  0  0  0  0  0  0  0
   -1.6480   14.6382   -0.9708 H   0  0  0  0  0  0  0  0  0  0  0  0
    0.6652   14.2400   -2.8881 H   0  0  0  0  0  0  0  0  0  0  0  0
   -0.4805   15.6337   -2.7755 H   0  0  0  0  0  0  0  0  0  0  0  0
    0.2684   16.2390    0.7764 H   0  0  0  0  0  0  0  0  0  0  0  0
    0.2945   17.5030   -0.4996 H   0  0  0  0  0  0  0  0  0  0  0  0
   -0.9957   16.2532   -0.4996 H   0  0  0  0  0  0  0  0  0  0  0  0
  1  2  1  0
  2  3  1  0
  3  4  1  0
  4  5  1  0
  5  6  1  0
  6  7  1  0
  7  8  1  0
  7  9  1  0
  2 10  1  0
 10 11  1  0
 11 12  1  0
 12 13  1  0
 13 14  1  6
 13 15  1  0
 15 16  1  0
 16 17  1  0
 17 18  2  0
 18 19  1  0
 19 20  1  0
 20 21  1  0
 21 22  1  0
 22 23  1  0
 22 24  1  0
 24 25  1  0
 24 26  1  0
 19 27  1  0
 27 28  1  1
 27 29  1  0
 29 30  1  0
 30 31  1  0
 31 32  1  1
  7  5  1  0
 31 10  1  0
 31 13  1  0
 27 15  1  0
 24 18  1  0
  1 33  1  0
  1 34  1  0
  1 35  1  0
  2 36  1  6
  3 37  1  0
  3 38  1  0
  4 39  1  0
  4 40  1  0
  5 41  1  1
  8 42  1  0
  8 43  1  0
  8 44  1  0
  9 45  1  0
  9 46  1  0
  9 47  1  0
 10 48  1  6
 11 49  1  0
 11 50  1  0
 12 51  1  0
 12 52  1  0
 14 53  1  0
 14 54  1  0
 14 55  1  0
 15 56  1  1
 16 57  1  0
 16 58  1  0
 17 59  1  0
 19 60  1  6
 20 61  1  0
 20 62  1  0
 21 63  1  0
 21 64  1  0
 22 65  1  6
 23 66  1  0
 25 67  1  0
 25 68  1  0
 25 69  1  0
 26 70  1  0
 26 71  1  0
 26 72  1  0
 28 73  1  0
 28 74  1  0
 28 75  1  0
 29 76  1  0
 29 77  1  0
 30 78  1  0
 30 79  1  0
 32 80  1  0
 32 81  1  0
 32 82  1  0
M  END
>  <meeko>  (10) 
{"is_sidechain": [false], "intermolecular_energy": 2.731, "internal_energy": -0.839}

$$$$
EPH_relaxed_0001_pdb2pqr_Repair_359_r2_0001_out
     RDKit          3D

 82 86  0  0  0  0  0  0  0  0999 V2000
   -3.8560    7.3320   -2.7440 C   0  0  0  0  0  0  0  0  0  0  0  0
   -3.9680    7.8620   -1.3120 C   0  0  2  0  0  0  0  0  0  0  0  0
   -5.4000    7.7300   -0.7550 C   0  0  0  0  0  0  0  0  0  0  0  0
   -6.3990    7.1480   -1.7580 C   0  0  0  0  0  0  0  0  0  0  0  0
   -7.8160    7.3870   -1.3300 C   0  0  2  0  0  0  0  0  0  0  0  0
   -8.5520    6.2000   -1.0080 O   0  0  0  0  0  0  0  0  0  0  0  0
   -9.0200    6.9480   -2.1430 C   0  0  0  0  0  0  0  0  0  0  0  0
   -8.8620    6.2350   -3.4490 C   0  0  0  0  0  0  0  0  0  0  0  0
  -10.3290    7.6370   -1.9120 C   0  0  0  0  0  0  0  0  0  0  0  0
   -3.5210    9.3180   -1.2600 C   0  0  1  0  0  0  0  0  0  0  0  0
   -4.6390   10.2690   -0.7580 C   0  0  0  0  0  0  0  0  0  0  0  0
   -3.9430   11.3850    0.0640 C   0  0  0  0  0  0  0  0  0  0  0  0
   -2.4400   11.2310   -0.2660 C   0  0  1  0  0  0  0  0  0  0  0  0
   -2.2540   11.9520   -1.6380 C   0  0  0  0  0  0  0  0  0  0  0  0
   -1.4380   11.7680    0.8080 C   0  0  2  0  0  0  0  0  0  0  0  0
   -1.5210   13.2800    1.0780 C   0  0  0  0  0  0  0  0  0  0  0  0
   -0.6310   14.1290    0.2320 C   0  0  0  0  0  0  0  0  0  0  0  0
    0.4030   13.6840   -0.5060 C   0  0  0  0  0  0  0  0  0  0  0  0
    0.8290   12.2110   -0.4590 C   0  0  1  0  0  0  0  0  0  0  0  0
    2.3700   12.1210   -0.3080 C   0  0  0  0  0  0  0  0  0  0  0  0
    3.1110   12.9080   -1.3840 C   0  0  0  0  0  0  0  0  0  0  0  0
    2.7040   14.3800   -1.3610 C   0  0  2  0  0  0  0  0  0  0  0  0
    3.1660   14.9660   -0.1400 O   0  0  0  0  0  0  0  0  0  0  0  0
    1.1710   14.5940   -1.4970 C   0  0  0  0  0  0  0  0  0  0  0  0
    0.7210   14.2360   -2.9340 C   0  0  0  0  0  0  0  0  0  0  0  0
    0.8830   16.1090   -1.3160 C   0  0  0  0  0  0  0  0  0  0  0  0
    0.0580   11.3000    0.5900 C   0  0  1  0  0  0  0  0  0  0  0  0
    0.7570   11.3830    1.9820 C   0  0  0  0  0  0  0  0  0  0  0  0
    0.1540    9.7960    0.1340 C   0  0  0  0  0  0  0  0  0  0  0  0
   -0.9330    9.2930   -0.8340 C   0  0  0  0  0  0  0  0  0  0  0  0
   -2.3310    9.6640   -0.3300 C   0  0  2  0  0  0  0  0  0  0  0  0
   -2.5550    8.9350    1.0390 C   0  0  0  0  0  0  0  0  0  0  0  0
   -3.6286    6.2560   -2.7200 H   0  0  0  0  0  0  0  0  0  0  0  0
   -4.8082    7.4939   -3.2704 H   0  0  0  0  0  0  0  0  0  0  0  0
   -3.0507    7.8653   -3.2704 H   0  0  0  0  0  0  0  0  0  0  0  0
   -3.3095    7.2486   -0.6794 H   0  0  0  0  0  0  0  0  0  0  0  0
   -5.3705    7.0730    0.1268 H   0  0  0  0  0  0  0  0  0  0  0  0
   -5.7447    8.7455   -0.5103 H   0  0  0  0  0  0  0  0  0  0  0  0
   -6.2376    7.6214   -2.7377 H   0  0  0  0  0  0  0  0  0  0  0  0
   -6.2358    6.0616   -1.8141 H   0  0  0  0  0  0  0  0  0  0  0  0
   -7.5425    8.3523   -0.8790 H   0  0  0  0  0  0  0  0  0  0  0  0
   -8.6274    5.1765   -3.2629 H   0  0  0  0  0  0  0  0  0  0  0  0
   -9.7981    6.3078   -4.0221 H   0  0  0  0  0  0  0  0  0  0  0  0
   -8.0443    6.6965   -4.0221 H   0  0  0  0  0  0  0  0  0  0  0  0
  -10.5080    7.7312   -0.8308 H   0  0  0  0  0  0  0  0  0  0  0  0
  -10.3020    8.6378   -2.3678 H   0  0  0  0  0  0  0  0  0  0  0  0
  -11.1387    7.0482   -2.3678 H   0  0  0  0  0  0  0  0  0  0  0  0
   -3.2303    9.4587   -2.3115 H   0  0  0  0  0  0  0  0  0  0  0  0
   -5.1756   10.7069   -1.6126 H   0  0  0  0  0  0  0  0  0  0  0  0
   -5.3726    9.7260   -0.1440 H   0  0  0  0  0  0  0  0  0  0  0  0
   -4.3080   12.3770   -0.2406 H   0  0  0  0  0  0  0  0  0  0  0  0
   -4.1451   11.2977    1.1417 H   0  0  0  0  0  0  0  0  0  0  0  0
   -1.9826   13.0040   -1.4656 H   0  0  0  0  0  0  0  0  0  0  0  0
   -1.4545   11.4557   -2.2076 H   0  0  0  0  0  0  0  0  0  0  0  0
   -3.1938   11.9044   -2.2076 H   0  0  0  0  0  0  0  0  0  0  0  0
   -1.7933   11.2805    1.7279 H   0  0  0  0  0  0  0  0  0  0  0  0
   -2.5594   13.5994    0.9058 H   0  0  0  0  0  0  0  0  0  0  0  0
   -1.1820   13.4229    2.1147 H   0  0  0  0  0  0  0  0  0  0  0  0
   -0.8376   15.2092    0.2099 H   0  0  0  0  0  0  0  0  0  0  0  0
    0.5235   11.7755   -1.4218 H   0  0  0  0  0  0  0  0  0  0  0  0
    2.6515   12.5204    0.6775 H   0  0  0  0  0  0  0  0  0  0  0  0
    2.6542   11.0635   -0.4130 H   0  0  0  0  0  0  0  0  0  0  0  0
    4.1936   12.8309   -1.2051 H   0  0  0  0  0  0  0  0  0  0  0  0
    2.8528   12.4875   -2.3671 H   0  0  0  0  0  0  0  0  0  0  0  0
    3.1660   14.8643   -2.2339 H   0  0  0  0  0  0  0  0  0  0  0  0
    3.4090   15.8880   -0.3300 H   0  0  0  0  0  0  0  0  0  0  0  0
   -0.1391   13.5517   -2.8891 H   0  0  0  0  0  0  0  0  0  0  0  0
    0.4320   15.1538   -3.4671 H   0  0  0  0  0  0  0  0  0  0  0  0
    1.5503   13.7481   -3.4671 H   0  0  0  0  0  0  0  0  0  0  0  0
    0.8376   16.3480   -0.2432 H   0  0  0  0  0  0  0  0  0  0  0  0
    1.6860   16.6939   -1.7883 H   0  0  0  0  0  0  0  0  0  0  0  0
   -0.0786   16.3584   -1.7883 H   0  0  0  0  0  0  0  0  0  0  0  0
    0.0023   11.2934    2.7772 H   0  0  0  0  0  0  0  0  0  0  0  0
    1.4867   10.5652    2.0752 H   0  0  0  0  0  0  0  0  0  0  0  0
    1.2749   12.3490    2.0752 H   0  0  0  0  0  0  0  0  0  0  0  0
    1.1278    9.6593   -0.3591 H   0  0  0  0  0  0  0  0  0  0  0  0
    0.0158    9.2073    1.0529 H   0  0  0  0  0  0  0  0  0  0  0  0
   -0.7740    9.7495   -1.8221 H   0  0  0  0  0  0  0  0  0  0  0  0
   -0.8636    8.1972   -0.9001 H   0  0  0  0  0  0  0  0  0  0  0  0
   -2.3413    9.6305    1.8640 H   0  0  0  0  0  0  0  0  0  0  0  0
   -3.5990    8.5952    1.1070 H   0  0  0  0  0  0  0  0  0  0  0  0
   -1.8819    8.0676    1.1070 H   0  0  0  0  0  0  0  0  0  0  0  0
  1  2  1  0
  2  3  1  0
  3  4  1  0
  4  5  1  0
  5  6  1  0
  6  7  1  0
  7  8  1  0
  7  9  1  0
  2 10  1  0
 10 11  1  0
 11 12  1  0
 12 13  1  0
 13 14  1  6
 13 15  1  0
 15 16  1  0
 16 17  1  0
 17 18  2  0
 18 19  1  0
 19 20  1  0
 20 21  1  0
 21 22  1  0
 22 23  1  0
 22 24  1  0
 24 25  1  0
 24 26  1  0
 19 27  1  0
 27 28  1  1
 27 29  1  0
 29 30  1  0
 30 31  1  0
 31 32  1  1
  7  5  1  0
 31 10  1  0
 31 13  1  0
 27 15  1  0
 24 18  1  0
  1 33  1  0
  1 34  1  0
  1 35  1  0
  2 36  1  1
  3 37  1  0
  3 38  1  0
  4 39  1  0
  4 40  1  0
  5 41  1  1
  8 42  1  0
  8 43  1  0
  8 44  1  0
  9 45  1  0
  9 46  1  0
  9 47  1  0
 10 48  1  6
 11 49  1  0
 11 50  1  0
 12 51  1  0
 12 52  1  0
 14 53  1  0
 14 54  1  0
 14 55  1  0
 15 56  1  1
 16 57  1  0
 16 58  1  0
 17 59  1  0
 19 60  1  6
 20 61  1  0
 20 62  1  0
 21 63  1  0
 21 64  1  0
 22 65  1  6
 23 66  1  0
 25 67  1  0
 25 68  1  0
 25 69  1  0
 26 70  1  0
 26 71  1  0
 26 72  1  0
 28 73  1  0
 28 74  1  0
 28 75  1  0
 29 76  1  0
 29 77  1  0
 30 78  1  0
 30 79  1  0
 32 80  1  0
 32 81  1  0
 32 82  1  0
M  END
>  <meeko>  (11) 
{"is_sidechain": [false], "intermolecular_energy": 2.731, "internal_energy": -0.839}

$$$$
EPH_relaxed_0001_pdb2pqr_Repair_359_r2_0001_out
     RDKit          3D

 82 86  0  0  0  0  0  0  0  0999 V2000
   -0.4280    7.7040   -2.3480 C   0  0  0  0  0  0  0  0  0  0  0  0
   -1.8060    8.1240   -1.8290 C   0  0  2  0  0  0  0  0  0  0  0  0
   -2.9430    7.6710   -2.7670 C   0  0  0  0  0  0  0  0  0  0  0  0
   -4.1470    7.0740   -2.0330 C   0  0  0  0  0  0  0  0  0  0  0  0
   -5.3600    7.0180   -2.9110 C   0  0  2  0  0  0  0  0  0  0  0  0
   -6.3000    8.0800   -2.7010 O   0  0  0  0  0  0  0  0  0  0  0  0
   -6.7600    6.7550   -2.3870 C   0  0  0  0  0  0  0  0  0  0  0  0
   -7.0190    6.5300   -0.9310 C   0  0  0  0  0  0  0  0  0  0  0  0
   -7.7930    6.2350   -3.3380 C   0  0  0  0  0  0  0  0  0  0  0  0
   -1.8540    9.6360   -1.6460 C   0  0  1  0  0  0  0  0  0  0  0  0
   -3.2420   10.1360   -1.1640 C   0  0  0  0  0  0  0  0  0  0  0  0
   -2.9820   11.3380   -0.2200 C   0  0  0  0  0  0  0  0  0  0  0  0
   -1.4950   11.6980   -0.4470 C   0  0  1  0  0  0  0  0  0  0  0  0
   -1.4860   12.5580   -1.7500 C   0  0  0  0  0  0  0  0  0  0  0  0
   -0.7730   12.4280    0.7320 C   0  0  2  0  0  0  0  0  0  0  0  0
   -1.3500   13.8060    1.0970 C   0  0  0  0  0  0  0  0  0  0  0  0
   -0.7410   14.9640    0.3780 C   0  0  0  0  0  0  0  0  0  0  0  0
    0.4150   14.9370   -0.3100 C   0  0  0  0  0  0  0  0  0  0  0  0
    1.2890   13.6760   -0.3320 C   0  0  1  0  0  0  0  0  0  0  0  0
    2.7680   14.0660   -0.0730 C   0  0  0  0  0  0  0  0  0  0  0  0
    3.2670   15.1390   -1.0370 C   0  0  0  0  0  0  0  0  0  0  0  0
    2.4090   16.3980   -0.9430 C   0  0  2  0  0  0  0  0  0  0  0  0
    2.5980   16.9900    0.3450 O   0  0  0  0  0  0  0  0  0  0  0  0
    0.8960   16.1260   -1.1770 C   0  0  0  0  0  0  0  0  0  0  0  0
    0.6540   15.7720   -2.6650 C   0  0  0  0  0  0  0  0  0  0  0  0
    0.1280   17.4500   -0.9150 C   0  0  0  0  0  0  0  0  0  0  0  0
    0.8030   12.4790    0.5940 C   0  0  1  0  0  0  0  0  0  0  0  0
    1.3700   12.6570    2.0350 C   0  0  0  0  0  0  0  0  0  0  0  0
    1.4000   11.1290    0.0450 C   0  0  0  0  0  0  0  0  0  0  0  0
    0.5800   10.3950   -1.0330 C   0  0  0  0  0  0  0  0  0  0  0  0
   -0.8850   10.2580   -0.6090 C   0  0  2  0  0  0  0  0  0  0  0  0
   -0.9280    9.3780    0.6870 C   0  0  0  0  0  0  0  0  0  0  0  0
    0.2382    7.5009   -1.4966 H   0  0  0  0  0  0  0  0  0  0  0  0
   -0.5280    6.7955   -2.9601 H   0  0  0  0  0  0  0  0  0  0  0  0
   -0.0043    8.5138   -2.9601 H   0  0  0  0  0  0  0  0  0  0  0  0
   -1.9596    7.6269   -0.8598 H   0  0  0  0  0  0  0  0  0  0  0  0
   -3.2854    8.5430   -3.3436 H   0  0  0  0  0  0  0  0  0  0  0  0
   -2.5326    6.8775   -3.4089 H   0  0  0  0  0  0  0  0  0  0  0  0
   -3.8957    6.0539   -1.7069 H   0  0  0  0  0  0  0  0  0  0  0  0
   -4.3770    7.7181   -1.1715 H   0  0  0  0  0  0  0  0  0  0  0  0
   -4.7791    6.5608   -3.7256 H   0  0  0  0  0  0  0  0  0  0  0  0
   -6.3204    7.1369   -0.3363 H   0  0  0  0  0  0  0  0  0  0  0  0
   -8.0525    6.8219   -0.6930 H   0  0  0  0  0  0  0  0  0  0  0  0
   -6.8745    5.4658   -0.6930 H   0  0  0  0  0  0  0  0  0  0  0  0
   -8.6343    5.8115   -2.7698 H   0  0  0  0  0  0  0  0  0  0  0  0
   -8.1556    7.0580   -3.9714 H   0  0  0  0  0  0  0  0  0  0  0  0
   -7.3480    5.4535   -3.9714 H   0  0  0  0  0  0  0  0  0  0  0  0
   -1.5736    9.9533   -2.6612 H   0  0  0  0  0  0  0  0  0  0  0  0
   -3.8494   10.4544   -2.0240 H   0  0  0  0  0  0  0  0  0  0  0  0
   -3.7905    9.3370   -0.6438 H   0  0  0  0  0  0  0  0  0  0  0  0
   -3.6314   12.1860   -0.4832 H   0  0  0  0  0  0  0  0  0  0  0  0
   -3.1969   11.0967    0.8315 H   0  0  0  0  0  0  0  0  0  0  0  0
   -1.4748   13.6255   -1.4847 H   0  0  0  0  0  0  0  0  0  0  0  0
   -0.5903   12.3178   -2.3417 H   0  0  0  0  0  0  0  0  0  0  0  0
   -2.3865   12.3366   -2.3417 H   0  0  0  0  0  0  0  0  0  0  0  0
   -0.9978   11.7744    1.5877 H   0  0  0  0  0  0  0  0  0  0  0  0
   -2.4266   13.7941    0.8714 H   0  0  0  0  0  0  0  0  0  0  0  0
   -1.1244   13.9573    2.1629 H   0  0  0  0  0  0  0  0  0  0  0  0
   -1.2833   15.9204    0.4137 H   0  0  0  0  0  0  0  0  0  0  0  0
    1.1858   13.2527   -1.3420 H   0  0  0  0  0  0  0  0  0  0  0  0
    2.8576   14.4463    0.9553 H   0  0  0  0  0  0  0  0  0  0  0  0
    3.3826   13.1667   -0.2266 H   0  0  0  0  0  0  0  0  0  0  0  0
    4.3075   15.3928   -0.7860 H   0  0  0  0  0  0  0  0  0  0  0  0
    3.2037   14.7466   -2.0627 H   0  0  0  0  0  0  0  0  0  0  0  0
    2.7331   17.0791   -1.7437 H   0  0  0  0  0  0  0  0  0  0  0  0
    2.9040   16.2920    0.9480 H   0  0  0  0  0  0  0  0  0  0  0  0
    0.0343   14.8655   -2.7301 H   0  0  0  0  0  0  0  0  0  0  0  0
    0.1364   16.6064   -3.1609 H   0  0  0  0  0  0  0  0  0  0  0  0
    1.6193   15.5926   -3.1609 H   0  0  0  0  0  0  0  0  0  0  0  0
    0.0345   17.6113    0.1691 H   0  0  0  0  0  0  0  0  0  0  0  0
    0.6797   18.2890   -1.3642 H   0  0  0  0  0  0  0  0  0  0  0  0
   -0.8741   17.3877   -1.3642 H   0  0  0  0  0  0  0  0  0  0  0  0
    0.5886   12.4117    2.7694 H   0  0  0  0  0  0  0  0  0  0  0  0
    2.2298   11.9855    2.1763 H   0  0  0  0  0  0  0  0  0  0  0  0
    1.6917   13.6994    2.1763 H   0  0  0  0  0  0  0  0  0  0  0  0
    2.3885   11.3519   -0.3830 H   0  0  0  0  0  0  0  0  0  0  0  0
    1.4148   10.4482    0.9089 H   0  0  0  0  0  0  0  0  0  0  0  0
    0.6308   10.9639   -1.9731 H   0  0  0  0  0  0  0  0  0  0  0  0
    1.0013    9.3880   -1.1689 H   0  0  0  0  0  0  0  0  0  0  0  0
   -0.8962   10.0288    1.5733 H   0  0  0  0  0  0  0  0  0  0  0  0
   -1.8561    8.7876    0.6987 H   0  0  0  0  0  0  0  0  0  0  0  0
   -0.0619    8.6999    0.6987 H   0  0  0  0  0  0  0  0  0  0  0  0
  1  2  1  0
  2  3  1  0
  3  4  1  0
  4  5  1  0
  5  6  1  0
  6  7  1  0
  7  8  1  0
  7  9  1  0
  2 10  1  0
 10 11  1  0
 11 12  1  0
 12 13  1  0
 13 14  1  6
 13 15  1  0
 15 16  1  0
 16 17  1  0
 17 18  2  0
 18 19  1  0
 19 20  1  0
 20 21  1  0
 21 22  1  0
 22 23  1  0
 22 24  1  0
 24 25  1  0
 24 26  1  0
 19 27  1  0
 27 28  1  1
 27 29  1  0
 29 30  1  0
 30 31  1  0
 31 32  1  1
  7  5  1  0
 31 10  1  0
 31 13  1  0
 27 15  1  0
 24 18  1  0
  1 33  1  0
  1 34  1  0
  1 35  1  0
  2 36  1  1
  3 37  1  0
  3 38  1  0
  4 39  1  0
  4 40  1  0
  5 41  1  6
  8 42  1  0
  8 43  1  0
  8 44  1  0
  9 45  1  0
  9 46  1  0
  9 47  1  0
 10 48  1  6
 11 49  1  0
 11 50  1  0
 12 51  1  0
 12 52  1  0
 14 53  1  0
 14 54  1  0
 14 55  1  0
 15 56  1  1
 16 57  1  0
 16 58  1  0
 17 59  1  0
 19 60  1  6
 20 61  1  0
 20 62  1  0
 21 63  1  0
 21 64  1  0
 22 65  1  6
 23 66  1  0
 25 67  1  0
 25 68  1  0
 25 69  1  0
 26 70  1  0
 26 71  1  0
 26 72  1  0
 28 73  1  0
 28 74  1  0
 28 75  1  0
 29 76  1  0
 29 77  1  0
 30 78  1  0
 30 79  1  0
 32 80  1  0
 32 81  1  0
 32 82  1  0
M  END
>  <meeko>  (12) 
{"is_sidechain": [false], "intermolecular_energy": 2.731, "internal_energy": -0.839}

$$$$
EPH_relaxed_0001_pdb2pqr_Repair_359_r2_0001_out
     RDKit          3D

 82 86  0  0  0  0  0  0  0  0999 V2000
   -1.1350   16.4860   -6.0520 C   0  0  0  0  0  0  0  0  0  0  0  0
    0.0710   15.7220   -6.6050 C   0  0  2  0  0  0  0  0  0  0  0  0
   -0.1230   15.3200   -8.0810 C   0  0  0  0  0  0  0  0  0  0  0  0
    0.4290   16.3440   -9.0760 C   0  0  0  0  0  0  0  0  0  0  0  0
    1.8420   16.0320   -9.4670 C   0  0  2  0  0  0  0  0  0  0  0  0
    2.2830   16.6650  -10.6750 O   0  0  0  0  0  0  0  0  0  0  0  0
    2.2110   15.2300  -10.7020 C   0  0  0  0  0  0  0  0  0  0  0  0
    1.1620   14.6910  -11.6230 C   0  0  0  0  0  0  0  0  0  0  0  0
    3.5480   14.5600  -10.7460 C   0  0  0  0  0  0  0  0  0  0  0  0
    0.3340   14.4820   -5.7580 C   0  0  1  0  0  0  0  0  0  0  0  0
    1.4130   13.5530   -6.3760 C   0  0  0  0  0  0  0  0  0  0  0  0
    2.2000   12.9330   -5.1940 C   0  0  0  0  0  0  0  0  0  0  0  0
    1.3480   13.2580   -3.9450 C   0  0  1  0  0  0  0  0  0  0  0  0
    0.2250   12.1730   -3.9310 C   0  0  0  0  0  0  0  0  0  0  0  0
    2.1120   13.3140   -2.5820 C   0  0  2  0  0  0  0  0  0  0  0  0
    2.7680   11.9920   -2.1470 C   0  0  0  0  0  0  0  0  0  0  0  0
    1.9130   11.1010   -1.3090 C   0  0  0  0  0  0  0  0  0  0  0  0
    0.7780   11.4670   -0.6840 C   0  0  0  0  0  0  0  0  0  0  0  0
    0.3020   12.9250   -0.7080 C   0  0  1  0  0  0  0  0  0  0  0  0
   -0.1120   13.3590    0.7230 C   0  0  0  0  0  0  0  0  0  0  0  0
   -1.1400   12.4190    1.3450 C   0  0  0  0  0  0  0  0  0  0  0  0
   -0.6070   10.9900    1.4040 C   0  0  2  0  0  0  0  0  0  0  0  0
    0.4880   10.9440    2.3240 O   0  0  0  0  0  0  0  0  0  0  0  0
   -0.1500   10.4480    0.0210 C   0  0  0  0  0  0  0  0  0  0  0  0
   -1.3870   10.2130   -0.8800 C   0  0  0  0  0  0  0  0  0  0  0  0
    0.4960    9.0540    0.2440 C   0  0  0  0  0  0  0  0  0  0  0  0
    1.2840   13.9650   -1.4010 C   0  0  1  0  0  0  0  0  0  0  0  0
    2.3240   14.4860   -0.3630 C   0  0  0  0  0  0  0  0  0  0  0  0
    0.4580   15.2200   -1.8700 C   0  0  0  0  0  0  0  0  0  0  0  0
   -0.1730   15.1510   -3.2740 C   0  0  0  0  0  0  0  0  0  0  0  0
    0.8560   14.7040   -4.3160 C   0  0  2  0  0  0  0  0  0  0  0  0
    1.9860   15.7880   -4.3680 C   0  0  0  0  0  0  0  0  0  0  0  0
   -1.1074   16.4685   -4.9525 H   0  0  0  0  0  0  0  0  0  0  0  0
   -1.1014   17.5279   -6.4031 H   0  0  0  0  0  0  0  0  0  0  0  0
   -2.0627   16.0105   -6.4031 H   0  0  0  0  0  0  0  0  0  0  0  0
    0.9392   16.3958   -6.5577 H   0  0  0  0  0  0  0  0  0  0  0  0
    0.3889   14.3611   -8.2498 H   0  0  0  0  0  0  0  0  0  0  0  0
   -1.2070   15.2541   -8.2561 H   0  0  0  0  0  0  0  0  0  0  0  0
   -0.1999   16.3389   -9.9785 H   0  0  0  0  0  0  0  0  0  0  0  0
    0.4174   17.3321   -8.5927 H   0  0  0  0  0  0  0  0  0  0  0  0
    2.1384   15.9401   -8.4117 H   0  0  0  0  0  0  0  0  0  0  0  0
    0.3372   14.2672  -11.0313 H   0  0  0  0  0  0  0  0  0  0  0  0
    0.7784   15.5036  -12.2574 H   0  0  0  0  0  0  0  0  0  0  0  0
    1.5993   13.9059  -12.2574 H   0  0  0  0  0  0  0  0  0  0  0  0
    3.9029   14.3821   -9.7201 H   0  0  0  0  0  0  0  0  0  0  0  0
    3.4597   13.5997  -11.2751 H   0  0  0  0  0  0  0  0  0  0  0  0
    4.2644   15.2056  -11.2751 H   0  0  0  0  0  0  0  0  0  0  0  0
   -0.6811   14.0591   -5.7307 H   0  0  0  0  0  0  0  0  0  0  0  0
    0.9349   12.7602   -6.9700 H   0  0  0  0  0  0  0  0  0  0  0  0
    2.0821   14.1151   -7.0441 H   0  0  0  0  0  0  0  0  0  0  0  0
    2.3011   11.8453   -5.3228 H   0  0  0  0  0  0  0  0  0  0  0  0
    3.2218   13.3331   -5.1176 H   0  0  0  0  0  0  0  0  0  0  0  0
   -0.0320   11.9247   -2.8907 H   0  0  0  0  0  0  0  0  0  0  0  0
   -0.6661   12.5609   -4.4462 H   0  0  0  0  0  0  0  0  0  0  0  0
    0.5820   11.2691   -4.4462 H   0  0  0  0  0  0  0  0  0  0  0  0
    2.9425   14.0000   -2.8051 H   0  0  0  0  0  0  0  0  0  0  0  0
    3.0494   11.4376   -3.0544 H   0  0  0  0  0  0  0  0  0  0  0  0
    3.6255   12.2709   -1.5170 H   0  0  0  0  0  0  0  0  0  0  0  0
    2.2376   10.0565   -1.1920 H   0  0  0  0  0  0  0  0  0  0  0  0
   -0.5741   12.9468   -1.3729 H   0  0  0  0  0  0  0  0  0  0  0  0
    0.7844   13.3728    1.3605 H   0  0  0  0  0  0  0  0  0  0  0  0
   -0.5721   14.3555    0.6497 H   0  0  0  0  0  0  0  0  0  0  0  0
   -1.3689   12.7603    2.3654 H   0  0  0  0  0  0  0  0  0  0  0  0
   -2.0473   12.4299    0.7232 H   0  0  0  0  0  0  0  0  0  0  0  0
   -1.4330   10.3440    1.7362 H   0  0  0  0  0  0  0  0  0  0  0  0
    0.9520   10.1010    2.1880 H   0  0  0  0  0  0  0  0  0  0  0  0
   -2.2729   10.0447   -0.2500 H   0  0  0  0  0  0  0  0  0  0  0  0
   -1.5511   11.0960   -1.5151 H   0  0  0  0  0  0  0  0  0  0  0  0
   -1.2159    9.3313   -1.5151 H   0  0  0  0  0  0  0  0  0  0  0  0
    0.5859    8.8599    1.3230 H   0  0  0  0  0  0  0  0  0  0  0  0
   -0.1350    8.2796   -0.2165 H   0  0  0  0  0  0  0  0  0  0  0  0
    1.4948    9.0348   -0.2165 H   0  0  0  0  0  0  0  0  0  0  0  0
    1.9512   14.2993    0.6549 H   0  0  0  0  0  0  0  0  0  0  0  0
    3.2796   13.9602   -0.5058 H   0  0  0  0  0  0  0  0  0  0  0  0
    2.4750   15.5662   -0.5058 H   0  0  0  0  0  0  0  0  0  0  0  0
   -0.3563   15.3719   -1.1462 H   0  0  0  0  0  0  0  0  0  0  0  0
    1.1874   16.0417   -1.9222 H   0  0  0  0  0  0  0  0  0  0  0  0
   -1.0057   14.4324   -3.2593 H   0  0  0  0  0  0  0  0  0  0  0  0
   -0.5344   16.1538   -3.5457 H   0  0  0  0  0  0  0  0  0  0  0  0
    2.2753   16.0655   -3.3436 H   0  0  0  0  0  0  0  0  0  0  0  0
    2.8598   15.3816   -4.8984 H   0  0  0  0  0  0  0  0  0  0  0  0
    1.6163   16.6779   -4.8984 H   0  0  0  0  0  0  0  0  0  0  0  0
  1  2  1  0
  2  3  1  0
  3  4  1  0
  4  5  1  0
  5  6  1  0
  6  7  1  0
  7  8  1  0
  7  9  1  0
  2 10  1  0
 10 11  1  0
 11 12  1  0
 12 13  1  0
 13 14  1  1
 13 15  1  0
 15 16  1  0
 16 17  1  0
 17 18  2  0
 18 19  1  0
 19 20  1  0
 20 21  1  0
 21 22  1  0
 22 23  1  0
 22 24  1  0
 24 25  1  0
 24 26  1  0
 19 27  1  0
 27 28  1  1
 27 29  1  0
 29 30  1  0
 30 31  1  0
 31 32  1  6
  7  5  1  0
 31 10  1  0
 31 13  1  0
 27 15  1  0
 24 18  1  0
  1 33  1  0
  1 34  1  0
  1 35  1  0
  2 36  1  6
  3 37  1  0
  3 38  1  0
  4 39  1  0
  4 40  1  0
  5 41  1  1
  8 42  1  0
  8 43  1  0
  8 44  1  0
  9 45  1  0
  9 46  1  0
  9 47  1  0
 10 48  1  1
 11 49  1  0
 11 50  1  0
 12 51  1  0
 12 52  1  0
 14 53  1  0
 14 54  1  0
 14 55  1  0
 15 56  1  6
 16 57  1  0
 16 58  1  0
 17 59  1  0
 19 60  1  6
 20 61  1  0
 20 62  1  0
 21 63  1  0
 21 64  1  0
 22 65  1  1
 23 66  1  0
 25 67  1  0
 25 68  1  0
 25 69  1  0
 26 70  1  0
 26 71  1  0
 26 72  1  0
 28 73  1  0
 28 74  1  0
 28 75  1  0
 29 76  1  0
 29 77  1  0
 30 78  1  0
 30 79  1  0
 32 80  1  0
 32 81  1  0
 32 82  1  0
M  END
>  <meeko>  (13) 
{"is_sidechain": [false], "intermolecular_energy": 2.731, "internal_energy": -0.839}

$$$$
EPH_relaxed_0001_pdb2pqr_Repair_359_r2_0001_out
     RDKit          3D

 82 86  0  0  0  0  0  0  0  0999 V2000
   -0.3370   15.1940   -7.4730 C   0  0  0  0  0  0  0  0  0  0  0  0
    1.0570   15.0890   -6.8500 C   0  0  2  0  0  0  0  0  0  0  0  0
    2.1700   15.0690   -7.9170 C   0  0  0  0  0  0  0  0  0  0  0  0
    2.2930   16.3760   -8.7040 C   0  0  0  0  0  0  0  0  0  0  0  0
    1.8520   16.2100  -10.1270 C   0  0  2  0  0  0  0  0  0  0  0  0
    1.1980   14.9660  -10.4090 O   0  0  0  0  0  0  0  0  0  0  0  0
    2.4520   15.1880  -11.0740 C   0  0  0  0  0  0  0  0  0  0  0  0
    3.5450   14.2640  -10.6360 C   0  0  0  0  0  0  0  0  0  0  0  0
    2.3210   15.4150  -12.5480 C   0  0  0  0  0  0  0  0  0  0  0  0
    1.1460   13.8410   -5.9800 C   0  0  1  0  0  0  0  0  0  0  0  0
    2.5280   13.1420   -6.0770 C   0  0  0  0  0  0  0  0  0  0  0  0
    2.8320   12.5560   -4.6740 C   0  0  0  0  0  0  0  0  0  0  0  0
    1.4870   12.6430   -3.9150 C   0  0  1  0  0  0  0  0  0  0  0  0
    0.6730   11.4010   -4.3970 C   0  0  0  0  0  0  0  0  0  0  0  0
    1.5760   12.7060   -2.3560 C   0  0  2  0  0  0  0  0  0  0  0  0
    2.2040   11.4700   -1.6880 C   0  0  0  0  0  0  0  0  0  0  0  0
    1.2420   10.3920   -1.3090 C   0  0  0  0  0  0  0  0  0  0  0  0
   -0.0950   10.5280   -1.2350 C   0  0  0  0  0  0  0  0  0  0  0  0
   -0.7620   11.8920   -1.4540 C   0  0  1  0  0  0  0  0  0  0  0  0
   -1.8140   12.1380   -0.3400 C   0  0  0  0  0  0  0  0  0  0  0  0
   -2.8280   11.0040   -0.2320 C   0  0  0  0  0  0  0  0  0  0  0  0
   -2.1310    9.6740    0.0430 C   0  0  2  0  0  0  0  0  0  0  0  0
   -1.5420    9.7230    1.3470 O   0  0  0  0  0  0  0  0  0  0  0  0
   -1.0420    9.3230   -1.0090 C   0  0  0  0  0  0  0  0  0  0  0  0
   -1.7160    8.9750   -2.3590 C   0  0  0  0  0  0  0  0  0  0  0  0
   -0.3210    8.0320   -0.5370 C   0  0  0  0  0  0  0  0  0  0  0  0
    0.2250   13.1230   -1.6450 C   0  0  1  0  0  0  0  0  0  0  0  0
    0.6160   13.7120   -0.2560 C   0  0  0  0  0  0  0  0  0  0  0  0
   -0.5280   14.2700   -2.4180 C   0  0  0  0  0  0  0  0  0  0  0  0
   -0.4790   14.2190   -3.9570 C   0  0  0  0  0  0  0  0  0  0  0  0
    0.9570   14.0220   -4.4530 C   0  0  2  0  0  0  0  0  0  0  0  0
    1.7940   15.2670   -4.0030 C   0  0  0  0  0  0  0  0  0  0  0  0
   -1.0919   15.2509   -6.6750 H   0  0  0  0  0  0  0  0  0  0  0  0
   -0.3930   16.0989   -8.0959 H   0  0  0  0  0  0  0  0  0  0  0  0
   -0.5279   14.3077   -8.0959 H   0  0  0  0  0  0  0  0  0  0  0  0
    1.2103   15.9848   -6.2302 H   0  0  0  0  0  0  0  0  0  0  0  0
    3.1291   14.8749   -7.4145 H   0  0  0  0  0  0  0  0  0  0  0  0
    1.9075   14.2825   -8.6399 H   0  0  0  0  0  0  0  0  0  0  0  0
    1.6662   17.1417   -8.2236 H   0  0  0  0  0  0  0  0  0  0  0  0
    3.3511   16.6769   -8.7058 H   0  0  0  0  0  0  0  0  0  0  0  0
    1.6755   17.2914  -10.2240 H   0  0  0  0  0  0  0  0  0  0  0  0
    3.5810   14.2336   -9.5370 H   0  0  0  0  0  0  0  0  0  0  0  0
    3.3488   13.2538  -11.0245 H   0  0  0  0  0  0  0  0  0  0  0  0
    4.5085   14.6256  -11.0245 H   0  0  0  0  0  0  0  0  0  0  0  0
    1.7786   16.3550  -12.7274 H   0  0  0  0  0  0  0  0  0  0  0  0
    3.3220   15.4773  -12.9998 H   0  0  0  0  0  0  0  0  0  0  0  0
    1.7662   14.5795  -12.9998 H   0  0  0  0  0  0  0  0  0  0  0  0
    0.3055   13.2667   -6.3968 H   0  0  0  0  0  0  0  0  0  0  0  0
    2.4933   12.3360   -6.8248 H   0  0  0  0  0  0  0  0  0  0  0  0
    3.3091   13.8521   -6.3863 H   0  0  0  0  0  0  0  0  0  0  0  0
    3.1660   11.5110   -4.7537 H   0  0  0  0  0  0  0  0  0  0  0  0
    3.6372   13.1012   -4.1598 H   0  0  0  0  0  0  0  0  0  0  0  0
    0.3063   10.8415   -3.5238 H   0  0  0  0  0  0  0  0  0  0  0  0
   -0.1816   11.7355   -5.0034 H   0  0  0  0  0  0  0  0  0  0  0  0
    1.3208   10.7509   -5.0034 H   0  0  0  0  0  0  0  0  0  0  0  0
    2.2885   13.5283   -2.1940 H   0  0  0  0  0  0  0  0  0  0  0  0
    2.9369   11.0412   -2.3873 H   0  0  0  0  0  0  0  0  0  0  0  0
    2.6490   11.8256   -0.7470 H   0  0  0  0  0  0  0  0  0  0  0  0
    1.6617    9.4036   -1.0702 H   0  0  0  0  0  0  0  0  0  0  0  0
   -1.2614   11.8340   -2.4324 H   0  0  0  0  0  0  0  0  0  0  0  0
   -1.2914   12.2365    0.6229 H   0  0  0  0  0  0  0  0  0  0  0  0
   -2.3647   13.0547   -0.5976 H   0  0  0  0  0  0  0  0  0  0  0  0
   -3.5255   11.2218    0.5902 H   0  0  0  0  0  0  0  0  0  0  0  0
   -3.3705   10.9258   -1.1857 H   0  0  0  0  0  0  0  0  0  0  0  0
   -2.8934    8.8835   -0.0196 H   0  0  0  0  0  0  0  0  0  0  0  0
   -0.5780    9.7680    1.2330 H   0  0  0  0  0  0  0  0  0  0  0  0
   -2.6790    8.4778   -2.1706 H   0  0  0  0  0  0  0  0  0  0  0  0
   -1.8860    9.8980   -2.9327 H   0  0  0  0  0  0  0  0  0  0  0  0
   -1.0619    8.3019   -2.9327 H   0  0  0  0  0  0  0  0  0  0  0  0
   -0.3045    8.0024    0.5625 H   0  0  0  0  0  0  0  0  0  0  0  0
   -0.8579    7.1514   -0.9195 H   0  0  0  0  0  0  0  0  0  0  0  0
    0.7103    8.0273   -0.9195 H   0  0  0  0  0  0  0  0  0  0  0  0
    0.1968   13.0805    0.5412 H   0  0  0  0  0  0  0  0  0  0  0  0
    1.7119   13.7389   -0.1644 H   0  0  0  0  0  0  0  0  0  0  0  0
    0.2153   14.7323   -0.1644 H   0  0  0  0  0  0  0  0  0  0  0  0
   -1.5856   14.2351   -2.1174 H   0  0  0  0  0  0  0  0  0  0  0  0
   -0.0010   15.1958   -2.1439 H   0  0  0  0  0  0  0  0  0  0  0  0
   -1.0996   13.3819   -4.3094 H   0  0  0  0  0  0  0  0  0  0  0  0
   -0.8591   15.1726   -4.3521 H   0  0  0  0  0  0  0  0  0  0  0  0
    1.8237   15.3112   -2.9043 H   0  0  0  0  0  0  0  0  0  0  0  0
    2.8184   15.1810   -4.3943 H   0  0  0  0  0  0  0  0  0  0  0  0
    1.3277   16.1832   -4.3943 H   0  0  0  0  0  0  0  0  0  0  0  0
  1  2  1  0
  2  3  1  0
  3  4  1  0
  4  5  1  0
  5  6  1  0
  6  7  1  0
  7  8  1  0
  7  9  1  0
  2 10  1  0
 10 11  1  0
 11 12  1  0
 12 13  1  0
 13 14  1  1
 13 15  1  0
 15 16  1  0
 16 17  1  0
 17 18  2  0
 18 19  1  0
 19 20  1  0
 20 21  1  0
 21 22  1  0
 22 23  1  0
 22 24  1  0
 24 25  1  0
 24 26  1  0
 19 27  1  0
 27 28  1  1
 27 29  1  0
 29 30  1  0
 30 31  1  0
 31 32  1  1
  7  5  1  0
 31 10  1  0
 31 13  1  0
 27 15  1  0
 24 18  1  0
  1 33  1  0
  1 34  1  0
  1 35  1  0
  2 36  1  1
  3 37  1  0
  3 38  1  0
  4 39  1  0
  4 40  1  0
  5 41  1  6
  8 42  1  0
  8 43  1  0
  8 44  1  0
  9 45  1  0
  9 46  1  0
  9 47  1  0
 10 48  1  6
 11 49  1  0
 11 50  1  0
 12 51  1  0
 12 52  1  0
 14 53  1  0
 14 54  1  0
 14 55  1  0
 15 56  1  6
 16 57  1  0
 16 58  1  0
 17 59  1  0
 19 60  1  6
 20 61  1  0
 20 62  1  0
 21 63  1  0
 21 64  1  0
 22 65  1  1
 23 66  1  0
 25 67  1  0
 25 68  1  0
 25 69  1  0
 26 70  1  0
 26 71  1  0
 26 72  1  0
 28 73  1  0
 28 74  1  0
 28 75  1  0
 29 76  1  0
 29 77  1  0
 30 78  1  0
 30 79  1  0
 32 80  1  0
 32 81  1  0
 32 82  1  0
M  END
>  <meeko>  (14) 
{"is_sidechain": [false], "intermolecular_energy": 2.731, "internal_energy": -0.839}

$$$$
EPH_relaxed_0001_pdb2pqr_Repair_359_r2_0001_out
     RDKit          3D

 82 86  0  0  0  0  0  0  0  0999 V2000
    3.2830   18.3080   -1.2580 C   0  0  0  0  0  0  0  0  0  0  0  0
    2.7780   17.2790   -2.2730 C   0  0  2  0  0  0  0  0  0  0  0  0
    1.3550   17.6030   -2.7700 C   0  0  0  0  0  0  0  0  0  0  0  0
    0.8460   18.9760   -2.3250 C   0  0  0  0  0  0  0  0  0  0  0  0
   -0.5840   18.9190   -1.8780 C   0  0  2  0  0  0  0  0  0  0  0  0
   -1.2370   20.1930   -1.7980 O   0  0  0  0  0  0  0  0  0  0  0  0
   -1.0710   19.4860   -0.5580 C   0  0  0  0  0  0  0  0  0  0  0  0
   -0.1330   20.1500    0.4000 C   0  0  0  0  0  0  0  0  0  0  0  0
   -2.3520   18.9650    0.0150 C   0  0  0  0  0  0  0  0  0  0  0  0
    2.8100   15.8840   -1.6590 C   0  0  1  0  0  0  0  0  0  0  0  0
    3.7250   15.8030   -0.4080 C   0  0  0  0  0  0  0  0  0  0  0  0
    3.0600   14.7990    0.5680 C   0  0  0  0  0  0  0  0  0  0  0  0
    1.9760   14.0920   -0.2780 C   0  0  1  0  0  0  0  0  0  0  0  0
    2.7440   12.9950   -1.0800 C   0  0  0  0  0  0  0  0  0  0  0  0
    0.7670   13.4890    0.5100 C   0  0  2  0  0  0  0  0  0  0  0  0
    1.1290   12.3730    1.5060 C   0  0  0  0  0  0  0  0  0  0  0  0
    1.0950   10.9880    0.9500 C   0  0  0  0  0  0  0  0  0  0  0  0
    0.5160   10.6240   -0.2090 C   0  0  0  0  0  0  0  0  0  0  0  0
   -0.2750   11.6370   -1.0470 C   0  0  1  0  0  0  0  0  0  0  0  0
   -1.6210   11.0050   -1.4890 C   0  0  0  0  0  0  0  0  0  0  0  0
   -1.4330    9.6730   -2.2090 C   0  0  0  0  0  0  0  0  0  0  0  0
   -0.6940    8.6740   -1.3220 C   0  0  2  0  0  0  0  0  0  0  0  0
   -1.5300    8.3390   -0.2100 O   0  0  0  0  0  0  0  0  0  0  0  0
    0.6730    9.2040   -0.8080 C   0  0  0  0  0  0  0  0  0  0  0  0
    1.6770    9.2810   -1.9840 C   0  0  0  0  0  0  0  0  0  0  0  0
    1.2470    8.1590    0.1860 C   0  0  0  0  0  0  0  0  0  0  0  0
   -0.4600   13.0770   -0.4000 C   0  0  1  0  0  0  0  0  0  0  0  0
   -1.7200   13.0900    0.5190 C   0  0  0  0  0  0  0  0  0  0  0  0
   -0.7340   14.1230   -1.5440 C   0  0  0  0  0  0  0  0  0  0  0  0
    0.4980   14.7720   -2.2020 C   0  0  0  0  0  0  0  0  0  0  0  0
    1.4700   15.3030   -1.1440 C   0  0  2  0  0  0  0  0  0  0  0  0
    0.7310   16.4230   -0.3350 C   0  0  0  0  0  0  0  0  0  0  0  0
    3.1010   17.9372   -0.2385 H   0  0  0  0  0  0  0  0  0  0  0  0
    4.3617   18.4673   -1.4031 H   0  0  0  0  0  0  0  0  0  0  0  0
    2.7491   19.2587   -1.4031 H   0  0  0  0  0  0  0  0  0  0  0  0
    3.4485   17.3175   -3.1441 H   0  0  0  0  0  0  0  0  0  0  0  0
    1.3558   17.5725   -3.8696 H   0  0  0  0  0  0  0  0  0  0  0  0
    0.6820   16.8524   -2.3300 H   0  0  0  0  0  0  0  0  0  0  0  0
    1.4666   19.3328   -1.4898 H   0  0  0  0  0  0  0  0  0  0  0  0
    0.9098   19.6603   -3.1839 H   0  0  0  0  0  0  0  0  0  0  0  0
   -0.7181   17.9358   -2.3527 H   0  0  0  0  0  0  0  0  0  0  0  0
   -0.4451   19.9291    1.4314 H   0  0  0  0  0  0  0  0  0  0  0  0
    0.8868   19.7715    0.2365 H   0  0  0  0  0  0  0  0  0  0  0  0
   -0.1510   21.2376    0.2365 H   0  0  0  0  0  0  0  0  0  0  0  0
   -2.2980   18.9869    1.1135 H   0  0  0  0  0  0  0  0  0  0  0  0
   -3.1880   19.5946   -0.3237 H   0  0  0  0  0  0  0  0  0  0  0  0
   -2.5113   17.9306   -0.3237 H   0  0  0  0  0  0  0  0  0  0  0  0
    3.1604   15.3079   -2.5281 H   0  0  0  0  0  0  0  0  0  0  0  0
    4.7261   15.4475   -0.6933 H   0  0  0  0  0  0  0  0  0  0  0  0
    3.8417   16.7913    0.0607 H   0  0  0  0  0  0  0  0  0  0  0  0
    3.7975   14.0725    0.9398 H   0  0  0  0  0  0  0  0  0  0  0  0
    2.6390   15.2958    1.4545 H   0  0  0  0  0  0  0  0  0  0  0  0
    3.2300   12.3008   -0.3787 H   0  0  0  0  0  0  0  0  0  0  0  0
    2.0358   12.4405   -1.7133 H   0  0  0  0  0  0  0  0  0  0  0  0
    3.5074   13.4707   -1.7133 H   0  0  0  0  0  0  0  0  0  0  0  0
    0.4367   14.3406    1.1229 H   0  0  0  0  0  0  0  0  0  0  0  0
    2.1463   12.5655    1.8775 H   0  0  0  0  0  0  0  0  0  0  0  0
    0.3602   12.4049    2.2921 H   0  0  0  0  0  0  0  0  0  0  0  0
    1.5849   10.1977    1.5377 H   0  0  0  0  0  0  0  0  0  0  0  0
    0.3444   11.8507   -1.9305 H   0  0  0  0  0  0  0  0  0  0  0  0
   -2.2425   10.8390   -0.5967 H   0  0  0  0  0  0  0  0  0  0  0  0
   -2.1013   11.7004   -2.1930 H   0  0  0  0  0  0  0  0  0  0  0  0
   -2.4195    9.2621   -2.4698 H   0  0  0  0  0  0  0  0  0  0  0  0
   -0.8364    9.8453   -3.1170 H   0  0  0  0  0  0  0  0  0  0  0  0
   -0.4747    7.7877   -1.9354 H   0  0  0  0  0  0  0  0  0  0  0  0
   -1.1860    7.5170    0.1790 H   0  0  0  0  0  0  0  0  0  0  0  0
    2.7002    9.3595   -1.5880 H   0  0  0  0  0  0  0  0  0  0  0  0
    1.5907    8.3736   -2.5998 H   0  0  0  0  0  0  0  0  0  0  0  0
    1.4534   10.1646   -2.5998 H   0  0  0  0  0  0  0  0  0  0  0  0
    1.0629    8.4942    1.2174 H   0  0  0  0  0  0  0  0  0  0  0  0
    0.7552    7.1887    0.0225 H   0  0  0  0  0  0  0  0  0  0  0  0
    2.3297    8.0535    0.0225 H   0  0  0  0  0  0  0  0  0  0  0  0
   -1.4051   13.0868    1.5730 H   0  0  0  0  0  0  0  0  0  0  0  0
   -2.3125   13.9943    0.3161 H   0  0  0  0  0  0  0  0  0  0  0  0
   -2.3310   12.1981    0.3161 H   0  0  0  0  0  0  0  0  0  0  0  0
   -1.3020   13.6104   -2.3344 H   0  0  0  0  0  0  0  0  0  0  0  0
   -1.2683   14.9508   -1.0548 H   0  0  0  0  0  0  0  0  0  0  0  0
    1.0133   14.0214   -2.8194 H   0  0  0  0  0  0  0  0  0  0  0  0
    0.1604   15.6154   -2.8222 H   0  0  0  0  0  0  0  0  0  0  0  0
    0.8530   16.2381    0.7425 H   0  0  0  0  0  0  0  0  0  0  0  0
    1.1603   17.4032   -0.5898 H   0  0  0  0  0  0  0  0  0  0  0  0
   -0.3391   16.4139   -0.5898 H   0  0  0  0  0  0  0  0  0  0  0  0
  1  2  1  0
  2  3  1  0
  3  4  1  0
  4  5  1  0
  5  6  1  0
  6  7  1  0
  7  8  1  0
  7  9  1  0
  2 10  1  0
 10 11  1  0
 11 12  1  0
 12 13  1  0
 13 14  1  6
 13 15  1  0
 15 16  1  0
 16 17  1  0
 17 18  2  0
 18 19  1  0
 19 20  1  0
 20 21  1  0
 21 22  1  0
 22 23  1  0
 22 24  1  0
 24 25  1  0
 24 26  1  0
 19 27  1  0
 27 28  1  1
 27 29  1  0
 29 30  1  0
 30 31  1  0
 31 32  1  1
  7  5  1  0
 31 10  1  0
 31 13  1  0
 27 15  1  0
 24 18  1  0
  1 33  1  0
  1 34  1  0
  1 35  1  0
  2 36  1  6
  3 37  1  0
  3 38  1  0
  4 39  1  0
  4 40  1  0
  5 41  1  6
  8 42  1  0
  8 43  1  0
  8 44  1  0
  9 45  1  0
  9 46  1  0
  9 47  1  0
 10 48  1  6
 11 49  1  0
 11 50  1  0
 12 51  1  0
 12 52  1  0
 14 53  1  0
 14 54  1  0
 14 55  1  0
 15 56  1  1
 16 57  1  0
 16 58  1  0
 17 59  1  0
 19 60  1  6
 20 61  1  0
 20 62  1  0
 21 63  1  0
 21 64  1  0
 22 65  1  6
 23 66  1  0
 25 67  1  0
 25 68  1  0
 25 69  1  0
 26 70  1  0
 26 71  1  0
 26 72  1  0
 28 73  1  0
 28 74  1  0
 28 75  1  0
 29 76  1  0
 29 77  1  0
 30 78  1  0
 30 79  1  0
 32 80  1  0
 32 81  1  0
 32 82  1  0
M  END
>  <meeko>  (15) 
{"is_sidechain": [false], "intermolecular_energy": 2.731, "internal_energy": -0.839}

$$$$
EPH_relaxed_0001_pdb2pqr_Repair_359_r2_0001_out
     RDKit          3D

 82 86  0  0  0  0  0  0  0  0999 V2000
   -1.2690    8.4500   -2.0090 C   0  0  0  0  0  0  0  0  0  0  0  0
   -1.2630    8.9310   -0.5550 C   0  0  2  0  0  0  0  0  0  0  0  0
   -2.6590    9.3920   -0.0910 C   0  0  0  0  0  0  0  0  0  0  0  0
   -2.6620   10.7690    0.5770 C   0  0  0  0  0  0  0  0  0  0  0  0
   -1.6350   10.8600    1.6650 C   0  0  2  0  0  0  0  0  0  0  0  0
   -2.0960   11.4770    2.8740 O   0  0  0  0  0  0  0  0  0  0  0  0
   -1.0580   12.1710    2.1640 C   0  0  0  0  0  0  0  0  0  0  0  0
   -1.4880   13.4830    1.5860 C   0  0  0  0  0  0  0  0  0  0  0  0
    0.2670   12.1510    2.8610 C   0  0  0  0  0  0  0  0  0  0  0  0
   -0.2580   10.0640   -0.3870 C   0  0  1  0  0  0  0  0  0  0  0  0
    1.1190    9.5690    0.1320 C   0  0  0  0  0  0  0  0  0  0  0  0
    2.1960   10.4580   -0.5390 C   0  0  0  0  0  0  0  0  0  0  0  0
    1.4030   11.6350   -1.1540 C   0  0  1  0  0  0  0  0  0  0  0  0
    1.1540   12.6160    0.0350 C   0  0  0  0  0  0  0  0  0  0  0  0
    2.0700   12.3590   -2.3690 C   0  0  2  0  0  0  0  0  0  0  0  0
    3.4130   13.0450   -2.0620 C   0  0  0  0  0  0  0  0  0  0  0  0
    3.3150   14.4700   -1.6270 C   0  0  0  0  0  0  0  0  0  0  0  0
    2.2300   15.2560   -1.7590 C   0  0  0  0  0  0  0  0  0  0  0  0
    0.9770   14.7530   -2.4870 C   0  0  1  0  0  0  0  0  0  0  0  0
    0.4820   15.8400   -3.4760 C   0  0  0  0  0  0  0  0  0  0  0  0
    0.2620   17.1900   -2.8000 C   0  0  0  0  0  0  0  0  0  0  0  0
    1.5450   17.6840   -2.1370 C   0  0  2  0  0  0  0  0  0  0  0  0
    2.5080   17.9730   -3.1560 O   0  0  0  0  0  0  0  0  0  0  0  0
    2.1430   16.6670   -1.1260 C   0  0  0  0  0  0  0  0  0  0  0  0
    1.2350   16.5820    0.1260 C   0  0  0  0  0  0  0  0  0  0  0  0
    3.5060   17.2250   -0.6360 C   0  0  0  0  0  0  0  0  0  0  0  0
    1.0970   13.3200   -3.1640 C   0  0  1  0  0  0  0  0  0  0  0  0
    1.6860   13.4590   -4.6020 C   0  0  0  0  0  0  0  0  0  0  0  0
   -0.3440   12.7090   -3.3320 C   0  0  0  0  0  0  0  0  0  0  0  0
   -0.8990   11.9040   -2.1420 C   0  0  0  0  0  0  0  0  0  0  0  0
    0.1220   10.8720   -1.6530 C   0  0  2  0  0  0  0  0  0  0  0  0
    0.3760    9.8590   -2.8200 C   0  0  0  0  0  0  0  0  0  0  0  0
   -1.2827    7.3503   -2.0314 H   0  0  0  0  0  0  0  0  0  0  0  0
   -2.1624    8.8383   -2.5200 H   0  0  0  0  0  0  0  0  0  0  0  0
   -0.3662    8.8159   -2.5200 H   0  0  0  0  0  0  0  0  0  0  0  0
   -0.9704    8.0781    0.0751 H   0  0  0  0  0  0  0  0  0  0  0  0
   -3.3214    9.4303   -0.9683 H   0  0  0  0  0  0  0  0  0  0  0  0
   -3.0022    8.6683    0.6630 H   0  0  0  0  0  0  0  0  0  0  0  0
   -2.4450   11.5342   -0.1828 H   0  0  0  0  0  0  0  0  0  0  0  0
   -3.6529   10.9296    1.0267 H   0  0  0  0  0  0  0  0  0  0  0  0
   -1.1612    9.9265    1.3272 H   0  0  0  0  0  0  0  0  0  0  0  0
   -1.7181   14.1850    2.4011 H   0  0  0  0  0  0  0  0  0  0  0  0
   -0.6775   13.8938    0.9661 H   0  0  0  0  0  0  0  0  0  0  0  0
   -2.3844   13.3344    0.9661 H   0  0  0  0  0  0  0  0  0  0  0  0
    0.1088   12.1534    3.9496 H   0  0  0  0  0  0  0  0  0  0  0  0
    0.8193   11.2444    2.5728 H   0  0  0  0  0  0  0  0  0  0  0  0
    0.8464   13.0405    2.5728 H   0  0  0  0  0  0  0  0  0  0  0  0
   -0.8161   10.7026    0.3135 H   0  0  0  0  0  0  0  0  0  0  0  0
    1.1707    9.6720    1.2259 H   0  0  0  0  0  0  0  0  0  0  0  0
    1.2748    8.5079   -0.1124 H   0  0  0  0  0  0  0  0  0  0  0  0
    2.9175   10.8234    0.2066 H   0  0  0  0  0  0  0  0  0  0  0  0
    2.7794    9.9091   -1.2929 H   0  0  0  0  0  0  0  0  0  0  0  0
    1.2898   12.0809    0.9864 H   0  0  0  0  0  0  0  0  0  0  0  0
    1.8689   13.4501   -0.0219 H   0  0  0  0  0  0  0  0  0  0  0  0
    0.1278   13.0081   -0.0219 H   0  0  0  0  0  0  0  0  0  0  0  0
    2.3097   11.5218   -3.0411 H   0  0  0  0  0  0  0  0  0  0  0  0
    3.9092   12.4780   -1.2605 H   0  0  0  0  0  0  0  0  0  0  0  0
    3.9746   13.0528   -3.0078 H   0  0  0  0  0  0  0  0  0  0  0  0
    4.2051   14.9155   -1.1588 H   0  0  0  0  0  0  0  0  0  0  0  0
    0.2190   14.5847   -1.7078 H   0  0  0  0  0  0  0  0  0  0  0  0
    1.2328   15.9618   -4.2707 H   0  0  0  0  0  0  0  0  0  0  0  0
   -0.4855   15.5076   -3.8804 H   0  0  0  0  0  0  0  0  0  0  0  0
   -0.0580   17.9228   -3.5553 H   0  0  0  0  0  0  0  0  0  0  0  0
   -0.5106   17.0730   -2.0257 H   0  0  0  0  0  0  0  0  0  0  0  0
    1.2927   18.5865   -1.5610 H   0  0  0  0  0  0  0  0  0  0  0  0
    3.3910   17.8660   -2.7640 H   0  0  0  0  0  0  0  0  0  0  0  0
    1.8547   16.6400    1.0330 H   0  0  0  0  0  0  0  0  0  0  0  0
    0.5190   17.4170    0.1171 H   0  0  0  0  0  0  0  0  0  0  0  0
    0.6865   15.6286    0.1171 H   0  0  0  0  0  0  0  0  0  0  0  0
    3.5250   17.2328    0.4638 H   0  0  0  0  0  0  0  0  0  0  0  0
    4.3198   16.5876   -1.0123 H   0  0  0  0  0  0  0  0  0  0  0  0
    3.6392   18.2500   -1.0123 H   0  0  0  0  0  0  0  0  0  0  0  0
    2.7548   13.7112   -4.5377 H   0  0  0  0  0  0  0  0  0  0  0  0
    1.5655   12.5078   -5.1411 H   0  0  0  0  0  0  0  0  0  0  0  0
    1.1530   14.2560   -5.1411 H   0  0  0  0  0  0  0  0  0  0  0  0
   -1.0379   13.5406   -3.5240 H   0  0  0  0  0  0  0  0  0  0  0  0
   -0.2555   11.9838   -4.1544 H   0  0  0  0  0  0  0  0  0  0  0  0
   -1.1345   12.5948   -1.3190 H   0  0  0  0  0  0  0  0  0  0  0  0
   -1.8044   11.3726   -2.4704 H   0  0  0  0  0  0  0  0  0  0  0  0
    0.6234    8.8722   -2.4016 H   0  0  0  0  0  0  0  0  0  0  0  0
   -0.5297    9.7782   -3.4390 H   0  0  0  0  0  0  0  0  0  0  0  0
    1.2127   10.2151   -3.4390 H   0  0  0  0  0  0  0  0  0  0  0  0
  1  2  1  0
  2  3  1  0
  3  4  1  0
  4  5  1  0
  5  6  1  0
  6  7  1  0
  7  8  1  0
  7  9  1  0
  2 10  1  0
 10 11  1  0
 11 12  1  0
 12 13  1  0
 13 14  1  1
 13 15  1  0
 15 16  1  0
 16 17  1  0
 17 18  2  0
 18 19  1  0
 19 20  1  0
 20 21  1  0
 21 22  1  0
 22 23  1  0
 22 24  1  0
 24 25  1  0
 24 26  1  0
 19 27  1  0
 27 28  1  6
 27 29  1  0
 29 30  1  0
 30 31  1  0
 31 32  1  6
  7  5  1  0
 31 10  1  0
 31 13  1  0
 27 15  1  0
 24 18  1  0
  1 33  1  0
  1 34  1  0
  1 35  1  0
  2 36  1  1
  3 37  1  0
  3 38  1  0
  4 39  1  0
  4 40  1  0
  5 41  1  1
  8 42  1  0
  8 43  1  0
  8 44  1  0
  9 45  1  0
  9 46  1  0
  9 47  1  0
 10 48  1  1
 11 49  1  0
 11 50  1  0
 12 51  1  0
 12 52  1  0
 14 53  1  0
 14 54  1  0
 14 55  1  0
 15 56  1  6
 16 57  1  0
 16 58  1  0
 17 59  1  0
 19 60  1  1
 20 61  1  0
 20 62  1  0
 21 63  1  0
 21 64  1  0
 22 65  1  1
 23 66  1  0
 25 67  1  0
 25 68  1  0
 25 69  1  0
 26 70  1  0
 26 71  1  0
 26 72  1  0
 28 73  1  0
 28 74  1  0
 28 75  1  0
 29 76  1  0
 29 77  1  0
 30 78  1  0
 30 79  1  0
 32 80  1  0
 32 81  1  0
 32 82  1  0
M  END
>  <meeko>  (16) 
{"is_sidechain": [false], "intermolecular_energy": 2.731, "internal_energy": -0.839}

$$$$
EPH_relaxed_0001_pdb2pqr_Repair_359_r2_0001_out
     RDKit          3D

 82 86  0  0  0  0  0  0  0  0999 V2000
    0.2440    8.8490   -2.2780 C   0  0  0  0  0  0  0  0  0  0  0  0
    0.9910    9.9770   -2.9950 C   0  0  2  0  0  0  0  0  0  0  0  0
    2.4980    9.9760   -2.6650 C   0  0  0  0  0  0  0  0  0  0  0  0
    3.3740   10.5320   -3.7910 C   0  0  0  0  0  0  0  0  0  0  0  0
    4.7750   10.7930   -3.3250 C   0  0  2  0  0  0  0  0  0  0  0  0
    5.3560   12.0040   -3.8270 O   0  0  0  0  0  0  0  0  0  0  0  0
    5.9790   10.7790   -4.2480 C   0  0  0  0  0  0  0  0  0  0  0  0
    5.8390   10.4960   -5.7110 C   0  0  0  0  0  0  0  0  0  0  0  0
    7.3340   10.5570   -3.6520 C   0  0  0  0  0  0  0  0  0  0  0  0
    0.3780   11.3230   -2.6270 C   0  0  1  0  0  0  0  0  0  0  0  0
   -0.9760   11.1790   -1.8830 C   0  0  0  0  0  0  0  0  0  0  0  0
   -1.0450   12.3360   -0.8530 C   0  0  0  0  0  0  0  0  0  0  0  0
    0.1020   13.2910   -1.2610 C   0  0  1  0  0  0  0  0  0  0  0  0
   -0.4800   14.1360   -2.4380 C   0  0  0  0  0  0  0  0  0  0  0  0
    0.6800   14.2000   -0.1280 C   0  0  2  0  0  0  0  0  0  0  0  0
   -0.3200   15.1970    0.4830 C   0  0  0  0  0  0  0  0  0  0  0  0
   -0.3730   16.5340   -0.1780 C   0  0  0  0  0  0  0  0  0  0  0  0
    0.5450   17.0210   -1.0330 C   0  0  0  0  0  0  0  0  0  0  0  0
    1.8290   16.2380   -1.3390 C   0  0  1  0  0  0  0  0  0  0  0  0
    3.0480   17.1950   -1.2650 C   0  0  0  0  0  0  0  0  0  0  0  0
    2.8850   18.4210   -2.1590 C   0  0  0  0  0  0  0  0  0  0  0  0
    1.6290   19.2040   -1.7860 C   0  0  2  0  0  0  0  0  0  0  0  0
    1.8050   19.7620   -0.4800 O   0  0  0  0  0  0  0  0  0  0  0  0
    0.3370   18.3410   -1.8160 C   0  0  0  0  0  0  0  0  0  0  0  0
   -0.0190   17.9860   -3.2810 C   0  0  0  0  0  0  0  0  0  0  0  0
   -0.8320   19.2130   -1.2840 C   0  0  0  0  0  0  0  0  0  0  0  0
    2.0470   14.9070   -0.4990 C   0  0  1  0  0  0  0  0  0  0  0  0
    2.7560   15.2380    0.8490 C   0  0  0  0  0  0  0  0  0  0  0  0
    3.0180   13.9530   -1.2900 C   0  0  0  0  0  0  0  0  0  0  0  0
    2.3740   12.9940   -2.3090 C   0  0  0  0  0  0  0  0  0  0  0  0
    1.1940   12.2430   -1.6850 C   0  0  2  0  0  0  0  0  0  0  0  0
    1.7520   11.3670   -0.5110 C   0  0  0  0  0  0  0  0  0  0  0  0
    0.3333    8.9838   -1.1899 H   0  0  0  0  0  0  0  0  0  0  0  0
   -0.8178    8.8723   -2.5645 H   0  0  0  0  0  0  0  0  0  0  0  0
    0.6799    7.8805   -2.5645 H   0  0  0  0  0  0  0  0  0  0  0  0
    0.8893    9.8062   -4.0769 H   0  0  0  0  0  0  0  0  0  0  0  0
    2.6572   10.5893   -1.7658 H   0  0  0  0  0  0  0  0  0  0  0  0
    2.7940    8.9273   -2.5149 H   0  0  0  0  0  0  0  0  0  0  0  0
    3.4019    9.8030   -4.6142 H   0  0  0  0  0  0  0  0  0  0  0  0
    2.9398   11.4860   -4.1245 H   0  0  0  0  0  0  0  0  0  0  0  0
    4.5752   10.2932   -2.3657 H   0  0  0  0  0  0  0  0  0  0  0  0
    5.3552    9.5180   -5.8506 H   0  0  0  0  0  0  0  0  0  0  0  0
    5.2244   11.2792   -6.1788 H   0  0  0  0  0  0  0  0  0  0  0  0
    6.8345   10.4827   -6.1788 H   0  0  0  0  0  0  0  0  0  0  0  0
    7.2584   10.5694   -2.5547 H   0  0  0  0  0  0  0  0  0  0  0  0
    7.7245    9.5829   -3.9817 H   0  0  0  0  0  0  0  0  0  0  0  0
    8.0149   11.3556   -3.9817 H   0  0  0  0  0  0  0  0  0  0  0  0
    0.3114   11.7748   -3.6277 H   0  0  0  0  0  0  0  0  0  0  0  0
   -1.8101   11.2561   -2.5959 H   0  0  0  0  0  0  0  0  0  0  0  0
   -1.0511   10.2012   -1.3847 H   0  0  0  0  0  0  0  0  0  0  0  0
   -2.0163   12.8491   -0.9100 H   0  0  0  0  0  0  0  0  0  0  0  0
   -0.9423   11.9793    0.1825 H   0  0  0  0  0  0  0  0  0  0  0  0
   -1.0601   14.9782   -2.0329 H   0  0  0  0  0  0  0  0  0  0  0  0
    0.3447   14.5220   -3.0551 H   0  0  0  0  0  0  0  0  0  0  0  0
   -1.1346   13.5031   -3.0551 H   0  0  0  0  0  0  0  0  0  0  0  0
    0.9011   13.4734    0.6677 H   0  0  0  0  0  0  0  0  0  0  0  0
   -1.3234   14.7498    0.4260 H   0  0  0  0  0  0  0  0  0  0  0  0
    0.0235   15.3800    1.5118 H   0  0  0  0  0  0  0  0  0  0  0  0
   -1.2358   17.1759    0.0534 H   0  0  0  0  0  0  0  0  0  0  0  0
    1.7150   15.8557   -2.3641 H   0  0  0  0  0  0  0  0  0  0  0  0
    3.1698   17.5310   -0.2247 H   0  0  0  0  0  0  0  0  0  0  0  0
    3.9299   16.6399   -1.6173 H   0  0  0  0  0  0  0  0  0  0  0  0
    3.7637   19.0722   -2.0410 H   0  0  0  0  0  0  0  0  0  0  0  0
    2.7929   18.0853   -3.2025 H   0  0  0  0  0  0  0  0  0  0  0  0
    1.4959   19.9931   -2.5408 H   0  0  0  0  0  0  0  0  0  0  0  0
    1.2970   20.5910   -0.4440 H   0  0  0  0  0  0  0  0  0  0  0  0
   -0.7979   17.2093   -3.2912 H   0  0  0  0  0  0  0  0  0  0  0  0
   -0.3902   18.8843   -3.7961 H   0  0  0  0  0  0  0  0  0  0  0  0
    0.8782   17.6123   -3.7961 H   0  0  0  0  0  0  0  0  0  0  0  0
   -0.8232   19.2065   -0.1841 H   0  0  0  0  0  0  0  0  0  0  0  0
   -0.7135   20.2451   -1.6455 H   0  0  0  0  0  0  0  0  0  0  0  0
   -1.7876   18.8053   -1.6455 H   0  0  0  0  0  0  0  0  0  0  0  0
    2.1101   14.9364    1.6867 H   0  0  0  0  0  0  0  0  0  0  0  0
    3.7091   14.6918    0.9058 H   0  0  0  0  0  0  0  0  0  0  0  0
    2.9492   16.3194    0.9058 H   0  0  0  0  0  0  0  0  0  0  0  0
    3.7343   14.5853   -1.8351 H   0  0  0  0  0  0  0  0  0  0  0  0
    3.4660   13.3012   -0.5255 H   0  0  0  0  0  0  0  0  0  0  0  0
    2.0155   13.5739   -3.1722 H   0  0  0  0  0  0  0  0  0  0  0  0
    3.1293   12.2596   -2.6255 H   0  0  0  0  0  0  0  0  0  0  0  0
    1.4652   11.8172    0.4508 H   0  0  0  0  0  0  0  0  0  0  0  0
    1.3337   10.3520   -0.5800 H   0  0  0  0  0  0  0  0  0  0  0  0
    2.8487   11.3170   -0.5800 H   0  0  0  0  0  0  0  0  0  0  0  0
  1  2  1  0
  2  3  1  0
  3  4  1  0
  4  5  1  0
  5  6  1  0
  6  7  1  0
  7  8  1  0
  7  9  1  0
  2 10  1  0
 10 11  1  0
 11 12  1  0
 12 13  1  0
 13 14  1  6
 13 15  1  0
 15 16  1  0
 16 17  1  0
 17 18  2  0
 18 19  1  0
 19 20  1  0
 20 21  1  0
 21 22  1  0
 22 23  1  0
 22 24  1  0
 24 25  1  0
 24 26  1  0
 19 27  1  0
 27 28  1  1
 27 29  1  0
 29 30  1  0
 30 31  1  0
 31 32  1  1
  7  5  1  0
 31 10  1  0
 31 13  1  0
 27 15  1  0
 24 18  1  0
  1 33  1  0
  1 34  1  0
  1 35  1  0
  2 36  1  6
  3 37  1  0
  3 38  1  0
  4 39  1  0
  4 40  1  0
  5 41  1  1
  8 42  1  0
  8 43  1  0
  8 44  1  0
  9 45  1  0
  9 46  1  0
  9 47  1  0
 10 48  1  6
 11 49  1  0
 11 50  1  0
 12 51  1  0
 12 52  1  0
 14 53  1  0
 14 54  1  0
 14 55  1  0
 15 56  1  1
 16 57  1  0
 16 58  1  0
 17 59  1  0
 19 60  1  6
 20 61  1  0
 20 62  1  0
 21 63  1  0
 21 64  1  0
 22 65  1  6
 23 66  1  0
 25 67  1  0
 25 68  1  0
 25 69  1  0
 26 70  1  0
 26 71  1  0
 26 72  1  0
 28 73  1  0
 28 74  1  0
 28 75  1  0
 29 76  1  0
 29 77  1  0
 30 78  1  0
 30 79  1  0
 32 80  1  0
 32 81  1  0
 32 82  1  0
M  END
>  <meeko>  (17) 
{"is_sidechain": [false], "intermolecular_energy": 2.731, "internal_energy": -0.839}

$$$$
EPH_relaxed_0001_pdb2pqr_Repair_359_r2_0001_out
     RDKit          3D

 82 86  0  0  0  0  0  0  0  0999 V2000
    1.2960   18.8890   -2.7320 C   0  0  0  0  0  0  0  0  0  0  0  0
    0.7090   18.0540   -1.5910 C   0  0  2  0  0  0  0  0  0  0  0  0
    1.1510   18.5710   -0.2070 C   0  0  0  0  0  0  0  0  0  0  0  0
    2.2120   19.6730   -0.2710 C   0  0  0  0  0  0  0  0  0  0  0  0
    3.5040   19.2350    0.3490 C   0  0  2  0  0  0  0  0  0  0  0  0
    3.3740   18.2100    1.3430 O   0  0  0  0  0  0  0  0  0  0  0  0
    3.8600   19.4820    1.8030 C   0  0  0  0  0  0  0  0  0  0  0  0
    2.9220   20.1940    2.7260 C   0  0  0  0  0  0  0  0  0  0  0  0
    5.3040   19.4680    2.1980 C   0  0  0  0  0  0  0  0  0  0  0  0
    1.1130   16.5940   -1.7540 C   0  0  1  0  0  0  0  0  0  0  0  0
    2.6530   16.4010   -1.7960 C   0  0  0  0  0  0  0  0  0  0  0  0
    2.9530   15.0510   -1.0940 C   0  0  0  0  0  0  0  0  0  0  0  0
    1.5750   14.3600   -0.9710 C   0  0  1  0  0  0  0  0  0  0  0  0
    1.3200   13.7200   -2.3710 C   0  0  0  0  0  0  0  0  0  0  0  0
    1.4290   13.3110    0.1790 C   0  0  2  0  0  0  0  0  0  0  0  0
    2.3550   12.0870    0.0680 C   0  0  0  0  0  0  0  0  0  0  0  0
    1.7910   10.9270   -0.6830 C   0  0  0  0  0  0  0  0  0  0  0  0
    0.4940   10.7560   -1.0000 C   0  0  0  0  0  0  0  0  0  0  0  0
   -0.5730   11.7430   -0.5090 C   0  0  1  0  0  0  0  0  0  0  0  0
   -1.7830   10.9560    0.0610 C   0  0  0  0  0  0  0  0  0  0  0  0
   -2.3400    9.9400   -0.9300 C   0  0  0  0  0  0  0  0  0  0  0  0
   -1.2640    8.9410   -1.3500 C   0  0  2  0  0  0  0  0  0  0  0  0
   -0.9090    8.1430   -0.2160 O   0  0  0  0  0  0  0  0  0  0  0  0
    0.0080    9.6180   -1.9310 C   0  0  0  0  0  0  0  0  0  0  0  0
   -0.3160   10.2300   -3.3170 C   0  0  0  0  0  0  0  0  0  0  0  0
    1.0660    8.5110   -2.1820 C   0  0  0  0  0  0  0  0  0  0  0  0
   -0.0650   12.8800    0.4770 C   0  0  1  0  0  0  0  0  0  0  0  0
   -0.0930   12.3610    1.9480 C   0  0  0  0  0  0  0  0  0  0  0  0
   -1.0620   14.0970    0.4170 C   0  0  0  0  0  0  0  0  0  0  0  0
   -0.7940   15.1610   -0.6640 C   0  0  0  0  0  0  0  0  0  0  0  0
    0.6720   15.6050   -0.6460 C   0  0  2  0  0  0  0  0  0  0  0  0
    0.9520   16.2740    0.7430 C   0  0  0  0  0  0  0  0  0  0  0  0
    1.8811   19.7213   -2.3138 H   0  0  0  0  0  0  0  0  0  0  0  0
    1.9491   18.2563   -3.3510 H   0  0  0  0  0  0  0  0  0  0  0  0
    0.4796   19.2894   -3.3510 H   0  0  0  0  0  0  0  0  0  0  0  0
   -0.3860   18.1448   -1.6439 H   0  0  0  0  0  0  0  0  0  0  0  0
    0.2675   18.9695    0.3131 H   0  0  0  0  0  0  0  0  0  0  0  0
    1.6030   17.7204    0.3242 H   0  0  0  0  0  0  0  0  0  0  0  0
    2.3923   19.9335   -1.3244 H   0  0  0  0  0  0  0  0  0  0  0  0
    1.8388   20.5415    0.2915 H   0  0  0  0  0  0  0  0  0  0  0  0
    4.0471   19.4315   -0.5872 H   0  0  0  0  0  0  0  0  0  0  0  0
    3.2017   19.9817    3.7684 H   0  0  0  0  0  0  0  0  0  0  0  0
    2.9804   21.2773    2.5441 H   0  0  0  0  0  0  0  0  0  0  0  0
    1.8943   19.8465    2.5441 H   0  0  0  0  0  0  0  0  0  0  0  0
    5.3840   19.4672    3.2951 H   0  0  0  0  0  0  0  0  0  0  0  0
    5.7858   18.5651    1.7946 H   0  0  0  0  0  0  0  0  0  0  0  0
    5.8032   20.3613    1.7946 H   0  0  0  0  0  0  0  0  0  0  0  0
    0.5904   16.3628   -2.6939 H   0  0  0  0  0  0  0  0  0  0  0  0
    3.0030   16.3721   -2.8384 H   0  0  0  0  0  0  0  0  0  0  0  0
    3.1694   17.2317   -1.2927 H   0  0  0  0  0  0  0  0  0  0  0  0
    3.6398   14.4423   -1.7004 H   0  0  0  0  0  0  0  0  0  0  0  0
    3.4394   15.1882   -0.1169 H   0  0  0  0  0  0  0  0  0  0  0  0
    0.9157   12.7052   -2.2421 H   0  0  0  0  0  0  0  0  0  0  0  0
    0.5979   14.3343   -2.9289 H   0  0  0  0  0  0  0  0  0  0  0  0
    2.2666   13.6694   -2.9289 H   0  0  0  0  0  0  0  0  0  0  0  0
    1.7811   13.8730    1.0566 H   0  0  0  0  0  0  0  0  0  0  0  0
    3.2781   12.4040   -0.4394 H   0  0  0  0  0  0  0  0  0  0  0  0
    2.5170   11.7336    1.0970 H   0  0  0  0  0  0  0  0  0  0  0  0
    2.4950   10.1454   -1.0048 H   0  0  0  0  0  0  0  0  0  0  0  0
   -0.8849   12.3183   -1.3932 H   0  0  0  0  0  0  0  0  0  0  0  0
   -1.4614   10.4236    0.9683 H   0  0  0  0  0  0  0  0  0  0  0  0
   -2.5805   11.6818    0.2782 H   0  0  0  0  0  0  0  0  0  0  0  0
   -3.1719    9.3962   -0.4587 H   0  0  0  0  0  0  0  0  0  0  0  0
   -2.6891   10.4768   -1.8244 H   0  0  0  0  0  0  0  0  0  0  0  0
   -1.6850    8.3221   -2.1560 H   0  0  0  0  0  0  0  0  0  0  0  0
   -1.7330    7.8320    0.1950 H   0  0  0  0  0  0  0  0  0  0  0  0
   -0.8268   11.1948   -3.1815 H   0  0  0  0  0  0  0  0  0  0  0  0
    0.6181   10.3851   -3.8768 H   0  0  0  0  0  0  0  0  0  0  0  0
   -0.9694    9.5446   -3.8768 H   0  0  0  0  0  0  0  0  0  0  0  0
    1.4319    8.1281   -1.2179 H   0  0  0  0  0  0  0  0  0  0  0  0
    0.6088    7.6895   -2.7530 H   0  0  0  0  0  0  0  0  0  0  0  0
    1.9073    8.9306   -2.7530 H   0  0  0  0  0  0  0  0  0  0  0  0
   -0.0469   13.2155    2.6392 H   0  0  0  0  0  0  0  0  0  0  0  0
   -1.0228   11.7992    2.1210 H   0  0  0  0  0  0  0  0  0  0  0  0
    0.7709   11.7024    2.1210 H   0  0  0  0  0  0  0  0  0  0  0  0
   -2.0703   13.6930    0.2437 H   0  0  0  0  0  0  0  0  0  0  0  0
   -0.9343   14.6215    1.3754 H   0  0  0  0  0  0  0  0  0  0  0  0
   -1.0295   14.7377   -1.6516 H   0  0  0  0  0  0  0  0  0  0  0  0
   -1.4278   16.0364   -0.4588 H   0  0  0  0  0  0  0  0  0  0  0  0
    0.6626   15.5825    1.5480 H   0  0  0  0  0  0  0  0  0  0  0  0
    2.0235   16.5078    0.8280 H   0  0  0  0  0  0  0  0  0  0  0  0
    0.3665   17.2013    0.8280 H   0  0  0  0  0  0  0  0  0  0  0  0
  1  2  1  0
  2  3  1  0
  3  4  1  0
  4  5  1  0
  5  6  1  0
  6  7  1  0
  7  8  1  0
  7  9  1  0
  2 10  1  0
 10 11  1  0
 11 12  1  0
 12 13  1  0
 13 14  1  6
 13 15  1  0
 15 16  1  0
 16 17  1  0
 17 18  2  0
 18 19  1  0
 19 20  1  0
 20 21  1  0
 21 22  1  0
 22 23  1  0
 22 24  1  0
 24 25  1  0
 24 26  1  0
 19 27  1  0
 27 28  1  1
 27 29  1  0
 29 30  1  0
 30 31  1  0
 31 32  1  1
  7  5  1  0
 31 10  1  0
 31 13  1  0
 27 15  1  0
 24 18  1  0
  1 33  1  0
  1 34  1  0
  1 35  1  0
  2 36  1  1
  3 37  1  0
  3 38  1  0
  4 39  1  0
  4 40  1  0
  5 41  1  6
  8 42  1  0
  8 43  1  0
  8 44  1  0
  9 45  1  0
  9 46  1  0
  9 47  1  0
 10 48  1  6
 11 49  1  0
 11 50  1  0
 12 51  1  0
 12 52  1  0
 14 53  1  0
 14 54  1  0
 14 55  1  0
 15 56  1  1
 16 57  1  0
 16 58  1  0
 17 59  1  0
 19 60  1  6
 20 61  1  0
 20 62  1  0
 21 63  1  0
 21 64  1  0
 22 65  1  6
 23 66  1  0
 25 67  1  0
 25 68  1  0
 25 69  1  0
 26 70  1  0
 26 71  1  0
 26 72  1  0
 28 73  1  0
 28 74  1  0
 28 75  1  0
 29 76  1  0
 29 77  1  0
 30 78  1  0
 30 79  1  0
 32 80  1  0
 32 81  1  0
 32 82  1  0
M  END
>  <meeko>  (18) 
{"is_sidechain": [false], "intermolecular_energy": 2.731, "internal_energy": -0.839}

$$$$
EPH_relaxed_0001_pdb2pqr_Repair_359_r2_0001_out
     RDKit          3D

 82 86  0  0  0  0  0  0  0  0999 V2000
   -3.1700    8.1580    0.4080 C   0  0  0  0  0  0  0  0  0  0  0  0
   -3.7820    9.5600    0.3340 C   0  0  2  0  0  0  0  0  0  0  0  0
   -5.2430    9.5310   -0.1580 C   0  0  0  0  0  0  0  0  0  0  0  0
   -5.5900    8.2880   -0.9810 C   0  0  0  0  0  0  0  0  0  0  0  0
   -7.0720    8.1160   -1.1270 C   0  0  2  0  0  0  0  0  0  0  0  0
   -7.5600    6.8130   -0.7810 O   0  0  0  0  0  0  0  0  0  0  0  0
   -7.7110    7.2030   -2.1560 C   0  0  0  0  0  0  0  0  0  0  0  0
   -6.8820    6.4020   -3.1100 C   0  0  0  0  0  0  0  0  0  0  0  0
   -9.1310    7.4590   -2.5570 C   0  0  0  0  0  0  0  0  0  0  0  0
   -2.9430   10.4460   -0.5790 C   0  0  1  0  0  0  0  0  0  0  0  0
   -3.4700   11.9040   -0.6480 C   0  0  0  0  0  0  0  0  0  0  0  0
   -2.2290   12.8230   -0.7810 C   0  0  0  0  0  0  0  0  0  0  0  0
   -1.0660   11.8610   -1.1180 C   0  0  1  0  0  0  0  0  0  0  0  0
   -1.1930   11.5990   -2.6510 C   0  0  0  0  0  0  0  0  0  0  0  0
    0.3690   12.3500   -0.7330 C   0  0  2  0  0  0  0  0  0  0  0  0
    0.8360   13.6290   -1.4490 C   0  0  0  0  0  0  0  0  0  0  0  0
    1.5610   13.4110   -2.7360 C   0  0  0  0  0  0  0  0  0  0  0  0
    2.0750   12.2400   -3.1550 C   0  0  0  0  0  0  0  0  0  0  0  0
    2.0380   10.9970   -2.2560 C   0  0  1  0  0  0  0  0  0  0  0  0
    3.4300   10.3120   -2.2630 C   0  0  0  0  0  0  0  0  0  0  0  0
    3.9210    9.9980   -3.6730 C   0  0  0  0  0  0  0  0  0  0  0  0
    4.0000   11.2670   -4.5180 C   0  0  2  0  0  0  0  0  0  0  0  0
    5.0250   12.1120   -3.9860 O   0  0  0  0  0  0  0  0  0  0  0  0
    2.6570   12.0480   -4.5770 C   0  0  0  0  0  0  0  0  0  0  0  0
    1.6290   11.2530   -5.4200 C   0  0  0  0  0  0  0  0  0  0  0  0
    2.9110   13.3760   -5.3410 C   0  0  0  0  0  0  0  0  0  0  0  0
    1.4750   11.2200   -0.7870 C   0  0  1  0  0  0  0  0  0  0  0  0
    2.6260   11.6780    0.1600 C   0  0  0  0  0  0  0  0  0  0  0  0
    0.9550    9.8460   -0.2220 C   0  0  0  0  0  0  0  0  0  0  0  0
   -0.5070    9.4740   -0.5350 C   0  0  0  0  0  0  0  0  0  0  0  0
   -1.4500   10.6370   -0.2100 C   0  0  2  0  0  0  0  0  0  0  0  0
   -1.3600   10.9090    1.3310 C   0  0  0  0  0  0  0  0  0  0  0  0
   -3.0435    7.8683    1.4616 H   0  0  0  0  0  0  0  0  0  0  0  0
   -3.8366    7.4401   -0.0922 H   0  0  0  0  0  0  0  0  0  0  0  0
   -2.1903    8.1587   -0.0922 H   0  0  0  0  0  0  0  0  0  0  0  0
   -3.7850    9.9735    1.3533 H   0  0  0  0  0  0  0  0  0  0  0  0
   -5.9057    9.5628    0.7194 H   0  0  0  0  0  0  0  0  0  0  0  0
   -5.3778   10.4012   -0.8172 H   0  0  0  0  0  0  0  0  0  0  0  0
   -5.1422    8.3860   -1.9809 H   0  0  0  0  0  0  0  0  0  0  0  0
   -5.1925    7.4069   -0.4559 H   0  0  0  0  0  0  0  0  0  0  0  0
   -7.2436    9.1717   -0.8701 H   0  0  0  0  0  0  0  0  0  0  0  0
   -6.2033    5.7463   -2.5448 H   0  0  0  0  0  0  0  0  0  0  0  0
   -7.5407    5.7895   -3.7433 H   0  0  0  0  0  0  0  0  0  0  0  0
   -6.2925    7.0813   -3.7433 H   0  0  0  0  0  0  0  0  0  0  0  0
   -9.7520    7.5709   -1.6560 H   0  0  0  0  0  0  0  0  0  0  0  0
   -9.1827    8.3809   -3.1548 H   0  0  0  0  0  0  0  0  0  0  0  0
   -9.5014    6.6131   -3.1548 H   0  0  0  0  0  0  0  0  0  0  0  0
   -3.0296    9.8768   -1.5163 H   0  0  0  0  0  0  0  0  0  0  0  0
   -4.1282   12.0278   -1.5206 H   0  0  0  0  0  0  0  0  0  0  0  0
   -4.0531   12.1558    0.2501 H   0  0  0  0  0  0  0  0  0  0  0  0
   -2.3732   13.5559   -1.5885 H   0  0  0  0  0  0  0  0  0  0  0  0
   -2.0391   13.4028    0.1343 H   0  0  0  0  0  0  0  0  0  0  0  0
   -1.6673   10.6206   -2.8177 H   0  0  0  0  0  0  0  0  0  0  0  0
   -1.8088   12.3876   -3.1080 H   0  0  0  0  0  0  0  0  0  0  0  0
   -0.1924   11.6041   -3.1080 H   0  0  0  0  0  0  0  0  0  0  0  0
    0.2482   12.6272    0.3246 H   0  0  0  0  0  0  0  0  0  0  0  0
   -0.0513   14.2444   -1.6588 H   0  0  0  0  0  0  0  0  0  0  0  0
    1.5564   14.1110   -0.7718 H   0  0  0  0  0  0  0  0  0  0  0  0
    1.6855   14.2810   -3.3975 H   0  0  0  0  0  0  0  0  0  0  0  0
    1.2883   10.3242   -2.6978 H   0  0  0  0  0  0  0  0  0  0  0  0
    4.1552   10.9822   -1.7783 H   0  0  0  0  0  0  0  0  0  0  0  0
    3.3354    9.3586   -1.7226 H   0  0  0  0  0  0  0  0  0  0  0  0
    4.9205    9.5425   -3.6131 H   0  0  0  0  0  0  0  0  0  0  0  0
    3.2102    9.3046   -4.1462 H   0  0  0  0  0  0  0  0  0  0  0  0
    4.2316   10.9629   -5.5494 H   0  0  0  0  0  0  0  0  0  0  0  0
    4.5990   12.7560   -3.3960 H   0  0  0  0  0  0  0  0  0  0  0  0
    0.9392   10.7195   -4.7495 H   0  0  0  0  0  0  0  0  0  0  0  0
    1.0595   11.9479   -6.0546 H   0  0  0  0  0  0  0  0  0  0  0  0
    2.1583   10.5270   -6.0546 H   0  0  0  0  0  0  0  0  0  0  0  0
    3.0668   14.1907   -4.6185 H   0  0  0  0  0  0  0  0  0  0  0  0
    3.8052   13.2703   -5.9728 H   0  0  0  0  0  0  0  0  0  0  0  0
    2.0409   13.6077   -5.9728 H   0  0  0  0  0  0  0  0  0  0  0  0
    2.3114   11.5528    1.2066 H   0  0  0  0  0  0  0  0  0  0  0  0
    3.5213   11.0676   -0.0293 H   0  0  0  0  0  0  0  0  0  0  0  0
    2.8572   12.7366   -0.0293 H   0  0  0  0  0  0  0  0  0  0  0  0
    1.5957    9.0528   -0.6346 H   0  0  0  0  0  0  0  0  0  0  0  0
    0.9971    9.9506    0.8722 H   0  0  0  0  0  0  0  0  0  0  0  0
   -0.5948    9.2272   -1.6034 H   0  0  0  0  0  0  0  0  0  0  0  0
   -0.7894    8.6097    0.0841 H   0  0  0  0  0  0  0  0  0  0  0  0
   -1.6592   10.0046    1.8811 H   0  0  0  0  0  0  0  0  0  0  0  0
   -0.3261   11.1745    1.5967 H   0  0  0  0  0  0  0  0  0  0  0  0
   -2.0315   11.7388    1.5967 H   0  0  0  0  0  0  0  0  0  0  0  0
  1  2  1  0
  2  3  1  0
  3  4  1  0
  4  5  1  0
  5  6  1  0
  6  7  1  0
  7  8  1  0
  7  9  1  0
  2 10  1  0
 10 11  1  0
 11 12  1  0
 12 13  1  0
 13 14  1  6
 13 15  1  0
 15 16  1  0
 16 17  1  0
 17 18  2  0
 18 19  1  0
 19 20  1  0
 20 21  1  0
 21 22  1  0
 22 23  1  0
 22 24  1  0
 24 25  1  0
 24 26  1  0
 19 27  1  0
 27 28  1  1
 27 29  1  0
 29 30  1  0
 30 31  1  0
 31 32  1  1
  7  5  1  0
 31 10  1  0
 31 13  1  0
 27 15  1  0
 24 18  1  0
  1 33  1  0
  1 34  1  0
  1 35  1  0
  2 36  1  1
  3 37  1  0
  3 38  1  0
  4 39  1  0
  4 40  1  0
  5 41  1  1
  8 42  1  0
  8 43  1  0
  8 44  1  0
  9 45  1  0
  9 46  1  0
  9 47  1  0
 10 48  1  6
 11 49  1  0
 11 50  1  0
 12 51  1  0
 12 52  1  0
 14 53  1  0
 14 54  1  0
 14 55  1  0
 15 56  1  1
 16 57  1  0
 16 58  1  0
 17 59  1  0
 19 60  1  6
 20 61  1  0
 20 62  1  0
 21 63  1  0
 21 64  1  0
 22 65  1  6
 23 66  1  0
 25 67  1  0
 25 68  1  0
 25 69  1  0
 26 70  1  0
 26 71  1  0
 26 72  1  0
 28 73  1  0
 28 74  1  0
 28 75  1  0
 29 76  1  0
 29 77  1  0
 30 78  1  0
 30 79  1  0
 32 80  1  0
 32 81  1  0
 32 82  1  0
M  END
>  <meeko>  (19) 
{"is_sidechain": [false], "intermolecular_energy": 2.731, "internal_energy": -0.839}

$$$$
