EPH_relaxed_0001_pdb2pqr_Repair_410_r2_0001_out
     RDKit          3D

 82 86  0  0  0  0  0  0  0  0999 V2000
   -1.5860    8.5600   -1.7990 C   0  0  0  0  0  0  0  0  0  0  0  0
   -1.9770    9.1350   -0.4350 C   0  0  2  0  0  0  0  0  0  0  0  0
   -3.4670    9.5290   -0.3760 C   0  0  0  0  0  0  0  0  0  0  0  0
   -4.4160    8.3330   -0.2610 C   0  0  0  0  0  0  0  0  0  0  0  0
   -5.0650    8.0120   -1.5730 C   0  0  2  0  0  0  0  0  0  0  0  0
   -6.3230    8.6630   -1.7930 O   0  0  0  0  0  0  0  0  0  0  0  0
   -6.3590    7.2290   -1.6970 C   0  0  0  0  0  0  0  0  0  0  0  0
   -7.0800    6.7180   -0.4900 C   0  0  0  0  0  0  0  0  0  0  0  0
   -6.6590    6.5460   -2.9950 C   0  0  0  0  0  0  0  0  0  0  0  0
   -1.1060   10.3430   -0.1110 C   0  0  1  0  0  0  0  0  0  0  0  0
   -0.0220   10.0290    0.9550 C   0  0  0  0  0  0  0  0  0  0  0  0
    1.2290   10.8640    0.5810 C   0  0  0  0  0  0  0  0  0  0  0  0
    0.7230   11.8710   -0.4790 C   0  0  1  0  0  0  0  0  0  0  0  0
    0.0510   13.0150    0.3430 C   0  0  0  0  0  0  0  0  0  0  0  0
    1.7960   12.4270   -1.4710 C   0  0  2  0  0  0  0  0  0  0  0  0
    2.9280   13.2400   -0.8190 C   0  0  0  0  0  0  0  0  0  0  0  0
    2.6780   14.7070   -0.7080 C   0  0  0  0  0  0  0  0  0  0  0  0
    1.7210   15.3890   -1.3650 C   0  0  0  0  0  0  0  0  0  0  0  0
    0.8290   14.6940   -2.4020 C   0  0  1  0  0  0  0  0  0  0  0  0
    0.7390   15.5710   -3.6790 C   0  0  0  0  0  0  0  0  0  0  0  0
    0.2840   16.9960   -3.3790 C   0  0  0  0  0  0  0  0  0  0  0  0
    1.2290   17.6730   -2.3900 C   0  0  2  0  0  0  0  0  0  0  0  0
    2.5020   17.8530   -3.0170 O   0  0  0  0  0  0  0  0  0  0  0  0
    1.4060   16.8760   -1.0670 C   0  0  0  0  0  0  0  0  0  0  0  0
    0.0970   16.9400   -0.2420 C   0  0  0  0  0  0  0  0  0  0  0  0
    2.4890   17.5940   -0.2180 C   0  0  0  0  0  0  0  0  0  0  0  0
    1.1910   13.1810   -2.7240 C   0  0  1  0  0  0  0  0  0  0  0  0
    2.2730   13.1200   -3.8460 C   0  0  0  0  0  0  0  0  0  0  0  0
   -0.0850   12.4580   -3.2980 C   0  0  0  0  0  0  0  0  0  0  0  0
   -1.0450   11.8250   -2.2730 C   0  0  0  0  0  0  0  0  0  0  0  0
   -0.2810   10.9560   -1.2700 C   0  0  2  0  0  0  0  0  0  0  0  0
    0.3880    9.7830   -2.0660 C   0  0  0  0  0  0  0  0  0  0  0  0
   -0.9728    7.6582   -1.6546 H   0  0  0  0  0  0  0  0  0  0  0  0
   -2.4948    8.2993   -2.3612 H   0  0  0  0  0  0  0  0  0  0  0  0
   -1.0094    9.3094   -2.3612 H   0  0  0  0  0  0  0  0  0  0  0  0
   -1.8139    8.3470    0.3150 H   0  0  0  0  0  0  0  0  0  0  0  0
   -3.6200   10.1790    0.4982 H   0  0  0  0  0  0  0  0  0  0  0  0
   -3.7029   10.0366   -1.3229 H   0  0  0  0  0  0  0  0  0  0  0  0
   -3.8449    7.4562    0.0782 H   0  0  0  0  0  0  0  0  0  0  0  0
   -5.2069    8.5909    0.4587 H   0  0  0  0  0  0  0  0  0  0  0  0
   -4.0841    7.8968   -2.0572 H   0  0  0  0  0  0  0  0  0  0  0  0
   -6.5740    7.0766    0.4185 H   0  0  0  0  0  0  0  0  0  0  0  0
   -8.1174    7.0836   -0.5005 H   0  0  0  0  0  0  0  0  0  0  0  0
   -7.0787    5.6181   -0.5005 H   0  0  0  0  0  0  0  0  0  0  0  0
   -7.0941    5.5555   -2.7961 H   0  0  0  0  0  0  0  0  0  0  0  0
   -7.3740    7.1515   -3.5713 H   0  0  0  0  0  0  0  0  0  0  0  0
   -5.7294    6.4292   -3.5713 H   0  0  0  0  0  0  0  0  0  0  0  0
   -1.8841   11.0501    0.2125 H   0  0  0  0  0  0  0  0  0  0  0  0
   -0.3813   10.3124    1.9553 H   0  0  0  0  0  0  0  0  0  0  0  0
    0.2123    8.9544    0.9750 H   0  0  0  0  0  0  0  0  0  0  0  0
    1.6211   11.3923    1.4626 H   0  0  0  0  0  0  0  0  0  0  0  0
    2.0508   10.2381    0.2031 H   0  0  0  0  0  0  0  0  0  0  0  0
    0.1698   12.8128    1.4177 H   0  0  0  0  0  0  0  0  0  0  0  0
    0.5292   13.9741    0.0953 H   0  0  0  0  0  0  0  0  0  0  0  0
   -1.0196   13.0643    0.0953 H   0  0  0  0  0  0  0  0  0  0  0  0
    2.2674   11.5076   -1.8484 H   0  0  0  0  0  0  0  0  0  0  0  0
    3.0893   12.8452    0.1950 H   0  0  0  0  0  0  0  0  0  0  0  0
    3.8008   13.1295   -1.4793 H   0  0  0  0  0  0  0  0  0  0  0  0
    3.3306   15.2794   -0.0324 H   0  0  0  0  0  0  0  0  0  0  0  0
   -0.1651   14.6070   -1.9392 H   0  0  0  0  0  0  0  0  0  0  0  0
    1.7319   15.6098   -4.1508 H   0  0  0  0  0  0  0  0  0  0  0  0
   -0.0082   15.1151   -4.3452 H   0  0  0  0  0  0  0  0  0  0  0  0
    0.2683   17.5736   -4.3150 H   0  0  0  0  0  0  0  0  0  0  0  0
   -0.7213   16.9575   -2.9342 H   0  0  0  0  0  0  0  0  0  0  0  0
    0.7812   18.6397   -2.1161 H   0  0  0  0  0  0  0  0  0  0  0  0
    3.1780   17.4890   -2.4210 H   0  0  0  0  0  0  0  0  0  0  0  0
    0.3389   16.9282    0.8310 H   0  0  0  0  0  0  0  0  0  0  0  0
   -0.4450   17.8657   -0.4855 H   0  0  0  0  0  0  0  0  0  0  0  0
   -0.5327   16.0716   -0.4855 H   0  0  0  0  0  0  0  0  0  0  0  0
    2.2720   17.4502    0.8508 H   0  0  0  0  0  0  0  0  0  0  0  0
    3.4775   17.1718   -0.4515 H   0  0  0  0  0  0  0  0  0  0  0  0
    2.4850   18.6689   -0.4515 H   0  0  0  0  0  0  0  0  0  0  0  0
    3.2721   13.0637   -3.3892 H   0  0  0  0  0  0  0  0  0  0  0  0
    2.1044   12.2299   -4.4700 H   0  0  0  0  0  0  0  0  0  0  0  0
    2.2055   14.0234   -4.4700 H   0  0  0  0  0  0  0  0  0  0  0  0
   -0.6565   13.1999   -3.8751 H   0  0  0  0  0  0  0  0  0  0  0  0
    0.3031   11.6145   -3.8878 H   0  0  0  0  0  0  0  0  0  0  0  0
   -1.5696   12.6248   -1.7298 H   0  0  0  0  0  0  0  0  0  0  0  0
   -1.7636   11.1896   -2.8115 H   0  0  0  0  0  0  0  0  0  0  0  0
    0.8054    9.0511   -1.3588 H   0  0  0  0  0  0  0  0  0  0  0  0
   -0.3661    9.2924   -2.6989 H   0  0  0  0  0  0  0  0  0  0  0  0
    1.1942   10.1823   -2.6989 H   0  0  0  0  0  0  0  0  0  0  0  0
  1  2  1  0
  2  3  1  0
  3  4  1  0
  4  5  1  0
  5  6  1  0
  6  7  1  0
  7  8  1  0
  7  9  1  0
  2 10  1  0
 10 11  1  0
 11 12  1  0
 12 13  1  0
 13 14  1  1
 13 15  1  0
 15 16  1  0
 16 17  1  0
 17 18  2  0
 18 19  1  0
 19 20  1  0
 20 21  1  0
 21 22  1  0
 22 23  1  0
 22 24  1  0
 24 25  1  0
 24 26  1  0
 19 27  1  0
 27 28  1  6
 27 29  1  0
 29 30  1  0
 30 31  1  0
 31 32  1  6
  7  5  1  0
 31 10  1  0
 31 13  1  0
 27 15  1  0
 24 18  1  0
  1 33  1  0
  1 34  1  0
  1 35  1  0
  2 36  1  1
  3 37  1  0
  3 38  1  0
  4 39  1  0
  4 40  1  0
  5 41  1  6
  8 42  1  0
  8 43  1  0
  8 44  1  0
  9 45  1  0
  9 46  1  0
  9 47  1  0
 10 48  1  1
 11 49  1  0
 11 50  1  0
 12 51  1  0
 12 52  1  0
 14 53  1  0
 14 54  1  0
 14 55  1  0
 15 56  1  6
 16 57  1  0
 16 58  1  0
 17 59  1  0
 19 60  1  1
 20 61  1  0
 20 62  1  0
 21 63  1  0
 21 64  1  0
 22 65  1  1
 23 66  1  0
 25 67  1  0
 25 68  1  0
 25 69  1  0
 26 70  1  0
 26 71  1  0
 26 72  1  0
 28 73  1  0
 28 74  1  0
 28 75  1  0
 29 76  1  0
 29 77  1  0
 30 78  1  0
 30 79  1  0
 32 80  1  0
 32 81  1  0
 32 82  1  0
M  END
>  <meeko>  (1) 
{"is_sidechain": [false], "intermolecular_energy": 2.731, "internal_energy": -0.839}

$$$$
EPH_relaxed_0001_pdb2pqr_Repair_410_r2_0001_out
     RDKit          3D

 82 86  0  0  0  0  0  0  0  0999 V2000
    2.3460   19.7220   -1.0140 C   0  0  0  0  0  0  0  0  0  0  0  0
    2.1350   18.8660    0.2380 C   0  0  2  0  0  0  0  0  0  0  0  0
    3.4690   18.4120    0.8630 C   0  0  0  0  0  0  0  0  0  0  0  0
    3.7610   19.0520    2.2230 C   0  0  0  0  0  0  0  0  0  0  0  0
    5.2320   19.1250    2.4980 C   0  0  2  0  0  0  0  0  0  0  0  0
    5.7340   18.0900    3.3530 O   0  0  0  0  0  0  0  0  0  0  0  0
    5.8140   19.4300    3.8660 C   0  0  0  0  0  0  0  0  0  0  0  0
    4.9340   19.6820    5.0490 C   0  0  0  0  0  0  0  0  0  0  0  0
    7.2110   19.9610    3.9470 C   0  0  0  0  0  0  0  0  0  0  0  0
    1.2790   17.6510   -0.1020 C   0  0  1  0  0  0  0  0  0  0  0  0
    0.1080   17.9940   -1.0600 C   0  0  0  0  0  0  0  0  0  0  0  0
   -0.0910   16.7640   -1.9820 C   0  0  0  0  0  0  0  0  0  0  0  0
    0.7360   15.6400   -1.3160 C   0  0  1  0  0  0  0  0  0  0  0  0
   -0.1770   15.0910   -0.1760 C   0  0  0  0  0  0  0  0  0  0  0  0
    1.2330   14.4960   -2.2590 C   0  0  2  0  0  0  0  0  0  0  0  0
    0.1180   13.6740   -2.9310 C   0  0  0  0  0  0  0  0  0  0  0  0
   -0.3320   12.4700   -2.1710 C   0  0  0  0  0  0  0  0  0  0  0  0
    0.3250   11.9030   -1.1430 C   0  0  0  0  0  0  0  0  0  0  0  0
    1.7030   12.4190   -0.7090 C   0  0  1  0  0  0  0  0  0  0  0  0
    2.6650   11.2180   -0.5050 C   0  0  0  0  0  0  0  0  0  0  0  0
    2.1020   10.1750    0.4560 C   0  0  0  0  0  0  0  0  0  0  0  0
    0.7600    9.6440   -0.0400 C   0  0  2  0  0  0  0  0  0  0  0  0
    0.9730    8.9070   -1.2470 O   0  0  0  0  0  0  0  0  0  0  0  0
   -0.2880   10.7650   -0.2900 C   0  0  0  0  0  0  0  0  0  0  0  0
   -0.7430   11.3630    1.0640 C   0  0  0  0  0  0  0  0  0  0  0  0
   -1.5460   10.1100   -0.9200 C   0  0  0  0  0  0  0  0  0  0  0  0
    2.3350   13.5590   -1.6180 C   0  0  1  0  0  0  0  0  0  0  0  0
    3.1210   12.9200   -2.8030 C   0  0  0  0  0  0  0  0  0  0  0  0
    3.3880   14.3670   -0.7710 C   0  0  0  0  0  0  0  0  0  0  0  0
    2.8550   15.5600    0.0460 C   0  0  0  0  0  0  0  0  0  0  0  0
    1.9770   16.4680   -0.8200 C   0  0  2  0  0  0  0  0  0  0  0  0
    2.8740   17.0530   -1.9630 C   0  0  0  0  0  0  0  0  0  0  0  0
    2.5995   20.7503   -0.7167 H   0  0  0  0  0  0  0  0  0  0  0  0
    3.1671   19.3004   -1.6124 H   0  0  0  0  0  0  0  0  0  0  0  0
    1.4230   19.7303   -1.6124 H   0  0  0  0  0  0  0  0  0  0  0  0
    1.6176   19.4896    0.9820 H   0  0  0  0  0  0  0  0  0  0  0  0
    3.4380   17.3201    0.9925 H   0  0  0  0  0  0  0  0  0  0  0  0
    4.2694   18.7310    0.1792 H   0  0  0  0  0  0  0  0  0  0  0  0
    3.3455   20.0705    2.2340 H   0  0  0  0  0  0  0  0  0  0  0  0
    3.2977   18.4282    3.0015 H   0  0  0  0  0  0  0  0  0  0  0  0
    5.4197   19.5561    1.5036 H   0  0  0  0  0  0  0  0  0  0  0  0
    5.5068   19.5180    5.9737 H   0  0  0  0  0  0  0  0  0  0  0  0
    4.5713   20.7201    5.0217 H   0  0  0  0  0  0  0  0  0  0  0  0
    4.0768   18.9932    5.0217 H   0  0  0  0  0  0  0  0  0  0  0  0
    7.5008   20.0711    5.0024 H   0  0  0  0  0  0  0  0  0  0  0  0
    7.8986   19.2615    3.4491 H   0  0  0  0  0  0  0  0  0  0  0  0
    7.2604   20.9406    3.4491 H   0  0  0  0  0  0  0  0  0  0  0  0
    0.9754   17.3500    0.9115 H   0  0  0  0  0  0  0  0  0  0  0  0
   -0.8087   18.1875   -0.4835 H   0  0  0  0  0  0  0  0  0  0  0  0
    0.3306   18.8964   -1.6483 H   0  0  0  0  0  0  0  0  0  0  0  0
   -1.1539   16.4855   -2.0340 H   0  0  0  0  0  0  0  0  0  0  0  0
    0.2292   16.9612   -3.0157 H   0  0  0  0  0  0  0  0  0  0  0  0
    0.2578   15.3525    0.8000 H   0  0  0  0  0  0  0  0  0  0  0  0
   -1.1791   15.5365   -0.2622 H   0  0  0  0  0  0  0  0  0  0  0  0
   -0.2534   13.9970   -0.2622 H   0  0  0  0  0  0  0  0  0  0  0  0
    1.7229   15.0553   -3.0696 H   0  0  0  0  0  0  0  0  0  0  0  0
   -0.7521   14.3322   -3.0716 H   0  0  0  0  0  0  0  0  0  0  0  0
    0.5424   13.2982   -3.8737 H   0  0  0  0  0  0  0  0  0  0  0  0
   -1.2816   12.0072   -2.4778 H   0  0  0  0  0  0  0  0  0  0  0  0
    1.5453   12.9383    0.2478 H   0  0  0  0  0  0  0  0  0  0  0  0
    2.8438   10.7398   -1.4793 H   0  0  0  0  0  0  0  0  0  0  0  0
    3.5967   11.6066   -0.0681 H   0  0  0  0  0  0  0  0  0  0  0  0
    2.8124    9.3390    0.5364 H   0  0  0  0  0  0  0  0  0  0  0  0
    1.9512   10.6476    1.4378 H   0  0  0  0  0  0  0  0  0  0  0  0
    0.3479    8.9999    0.7508 H   0  0  0  0  0  0  0  0  0  0  0  0
    0.2200    8.3020   -1.3600 H   0  0  0  0  0  0  0  0  0  0  0  0
   -0.3016   10.7829    1.8878 H   0  0  0  0  0  0  0  0  0  0  0  0
   -0.4105   12.4093    1.1330 H   0  0  0  0  0  0  0  0  0  0  0  0
   -1.8401   11.3216    1.1330 H   0  0  0  0  0  0  0  0  0  0  0  0
   -2.2166    9.7608   -0.1211 H   0  0  0  0  0  0  0  0  0  0  0  0
   -2.0713   10.8491   -1.5427 H   0  0  0  0  0  0  0  0  0  0  0  0
   -1.2417    9.2558   -1.5427 H   0  0  0  0  0  0  0  0  0  0  0  0
    3.9175   12.2724   -2.4078 H   0  0  0  0  0  0  0  0  0  0  0  0
    2.4335   12.3214   -3.4187 H   0  0  0  0  0  0  0  0  0  0  0  0
    3.5666   13.7152   -3.4187 H   0  0  0  0  0  0  0  0  0  0  0  0
    3.8577   13.6647   -0.0666 H   0  0  0  0  0  0  0  0  0  0  0  0
    4.0740   14.8076   -1.5094 H   0  0  0  0  0  0  0  0  0  0  0  0
    2.2591   15.1811    0.8895 H   0  0  0  0  0  0  0  0  0  0  0  0
    3.7114   16.1453    0.4122 H   0  0  0  0  0  0  0  0  0  0  0  0
    3.7179   17.6034   -1.5215 H   0  0  0  0  0  0  0  0  0  0  0  0
    3.2577   16.2309   -2.5851 H   0  0  0  0  0  0  0  0  0  0  0  0
    2.2764   17.7355   -2.5851 H   0  0  0  0  0  0  0  0  0  0  0  0
  1  2  1  0
  2  3  1  0
  3  4  1  0
  4  5  1  0
  5  6  1  0
  6  7  1  0
  7  8  1  0
  7  9  1  0
  2 10  1  0
 10 11  1  0
 11 12  1  0
 12 13  1  0
 13 14  1  1
 13 15  1  0
 15 16  1  0
 16 17  1  0
 17 18  2  0
 18 19  1  0
 19 20  1  0
 20 21  1  0
 21 22  1  0
 22 23  1  0
 22 24  1  0
 24 25  1  0
 24 26  1  0
 19 27  1  0
 27 28  1  6
 27 29  1  0
 29 30  1  0
 30 31  1  0
 31 32  1  6
  7  5  1  0
 31 10  1  0
 31 13  1  0
 27 15  1  0
 24 18  1  0
  1 33  1  0
  1 34  1  0
  1 35  1  0
  2 36  1  1
  3 37  1  0
  3 38  1  0
  4 39  1  0
  4 40  1  0
  5 41  1  6
  8 42  1  0
  8 43  1  0
  8 44  1  0
  9 45  1  0
  9 46  1  0
  9 47  1  0
 10 48  1  1
 11 49  1  0
 11 50  1  0
 12 51  1  0
 12 52  1  0
 14 53  1  0
 14 54  1  0
 14 55  1  0
 15 56  1  6
 16 57  1  0
 16 58  1  0
 17 59  1  0
 19 60  1  1
 20 61  1  0
 20 62  1  0
 21 63  1  0
 21 64  1  0
 22 65  1  1
 23 66  1  0
 25 67  1  0
 25 68  1  0
 25 69  1  0
 26 70  1  0
 26 71  1  0
 26 72  1  0
 28 73  1  0
 28 74  1  0
 28 75  1  0
 29 76  1  0
 29 77  1  0
 30 78  1  0
 30 79  1  0
 32 80  1  0
 32 81  1  0
 32 82  1  0
M  END
>  <meeko>  (2) 
{"is_sidechain": [false], "intermolecular_energy": 2.731, "internal_energy": -0.839}

$$$$
EPH_relaxed_0001_pdb2pqr_Repair_410_r2_0001_out
     RDKit          3D

 82 86  0  0  0  0  0  0  0  0999 V2000
    0.5140   18.4530    0.0960 C   0  0  0  0  0  0  0  0  0  0  0  0
    1.5870   17.3880   -0.1490 C   0  0  2  0  0  0  0  0  0  0  0  0
    2.7990   17.9510   -0.9170 C   0  0  0  0  0  0  0  0  0  0  0  0
    4.0290   18.1880   -0.0370 C   0  0  0  0  0  0  0  0  0  0  0  0
    3.6470   18.6430    1.3390 C   0  0  2  0  0  0  0  0  0  0  0  0
    3.8890   20.0320    1.5990 O   0  0  0  0  0  0  0  0  0  0  0  0
    4.6530   19.0980    2.3790 C   0  0  0  0  0  0  0  0  0  0  0  0
    6.1210   19.1200    2.0880 C   0  0  0  0  0  0  0  0  0  0  0  0
    4.2590   19.0540    3.8230 C   0  0  0  0  0  0  0  0  0  0  0  0
    0.9870   16.2120   -0.9120 C   0  0  1  0  0  0  0  0  0  0  0  0
    0.7970   16.5140   -2.4220 C   0  0  0  0  0  0  0  0  0  0  0  0
    1.0630   15.1880   -3.1800 C   0  0  0  0  0  0  0  0  0  0  0  0
    1.0680   14.1030   -2.0780 C   0  0  1  0  0  0  0  0  0  0  0  0
   -0.4390   13.7950   -1.8100 C   0  0  0  0  0  0  0  0  0  0  0  0
    1.8750   12.8020   -2.3930 C   0  0  2  0  0  0  0  0  0  0  0  0
    1.3610   11.9890   -3.5940 C   0  0  0  0  0  0  0  0  0  0  0  0
    0.3460   10.9440   -3.2690 C   0  0  0  0  0  0  0  0  0  0  0  0
    0.0740   10.4740   -2.0380 C   0  0  0  0  0  0  0  0  0  0  0  0
    0.8910   10.9290   -0.8220 C   0  0  1  0  0  0  0  0  0  0  0  0
    1.2860    9.6940    0.0290 C   0  0  0  0  0  0  0  0  0  0  0  0
    0.0810    8.8440    0.4210 C   0  0  0  0  0  0  0  0  0  0  0  0
   -0.6730    8.3620   -0.8160 C   0  0  2  0  0  0  0  0  0  0  0  0
    0.1610    7.4490   -1.5360 O   0  0  0  0  0  0  0  0  0  0  0  0
   -1.1130    9.5200   -1.7550 C   0  0  0  0  0  0  0  0  0  0  0  0
   -2.2430   10.3370   -1.0800 C   0  0  0  0  0  0  0  0  0  0  0  0
   -1.7350    8.8900   -3.0300 C   0  0  0  0  0  0  0  0  0  0  0  0
    2.1290   11.8760   -1.1350 C   0  0  1  0  0  0  0  0  0  0  0  0
    3.3880   11.0150   -1.4620 C   0  0  0  0  0  0  0  0  0  0  0  0
    2.4810   12.7050    0.1570 C   0  0  0  0  0  0  0  0  0  0  0  0
    1.7360   14.0390    0.3510 C   0  0  0  0  0  0  0  0  0  0  0  0
    1.7910   14.8880   -0.9230 C   0  0  2  0  0  0  0  0  0  0  0  0
    3.2930   15.2310   -1.2050 C   0  0  0  0  0  0  0  0  0  0  0  0
    0.3749   18.5911    1.1784 H   0  0  0  0  0  0  0  0  0  0  0  0
    0.8309   19.4039   -0.3572 H   0  0  0  0  0  0  0  0  0  0  0  0
   -0.4345   18.1290   -0.3572 H   0  0  0  0  0  0  0  0  0  0  0  0
    1.9475   17.0490    0.8334 H   0  0  0  0  0  0  0  0  0  0  0  0
    3.0707   17.2372   -1.7086 H   0  0  0  0  0  0  0  0  0  0  0  0
    2.4983   18.9296   -1.3195 H   0  0  0  0  0  0  0  0  0  0  0  0
    4.5965   17.2491    0.0428 H   0  0  0  0  0  0  0  0  0  0  0  0
    4.6368   18.9777   -0.5028 H   0  0  0  0  0  0  0  0  0  0  0  0
    2.8250   17.9130    1.3776 H   0  0  0  0  0  0  0  0  0  0  0  0
    6.6822   19.1284    3.0340 H   0  0  0  0  0  0  0  0  0  0  0  0
    6.3933   18.2258    1.5081 H   0  0  0  0  0  0  0  0  0  0  0  0
    6.3664   20.0219    1.5081 H   0  0  0  0  0  0  0  0  0  0  0  0
    5.1564   19.1542    4.4512 H   0  0  0  0  0  0  0  0  0  0  0  0
    3.5659   19.8803    4.0393 H   0  0  0  0  0  0  0  0  0  0  0  0
    3.7652   18.0951    4.0393 H   0  0  0  0  0  0  0  0  0  0  0  0
    0.0536   16.0807   -0.3450 H   0  0  0  0  0  0  0  0  0  0  0  0
   -0.2295   16.8601   -2.6129 H   0  0  0  0  0  0  0  0  0  0  0  0
    1.4845   17.3049   -2.7563 H   0  0  0  0  0  0  0  0  0  0  0  0
    0.2664   14.9932   -3.9131 H   0  0  0  0  0  0  0  0  0  0  0  0
    2.0062   15.2127   -3.7454 H   0  0  0  0  0  0  0  0  0  0  0  0
   -0.6185   13.7583   -0.7254 H   0  0  0  0  0  0  0  0  0  0  0  0
   -1.0600   14.5848   -2.2579 H   0  0  0  0  0  0  0  0  0  0  0  0
   -0.7003   12.8249   -2.2579 H   0  0  0  0  0  0  0  0  0  0  0  0
    2.8534   13.2007   -2.6992 H   0  0  0  0  0  0  0  0  0  0  0  0
    0.9092   12.6904   -4.3109 H   0  0  0  0  0  0  0  0  0  0  0  0
    2.2337   11.4517   -3.9937 H   0  0  0  0  0  0  0  0  0  0  0  0
   -0.2284   10.5223   -4.1070 H   0  0  0  0  0  0  0  0  0  0  0  0
    0.2290   11.5863   -0.2392 H   0  0  0  0  0  0  0  0  0  0  0  0
    1.9816    9.0722   -0.5536 H   0  0  0  0  0  0  0  0  0  0  0  0
    1.7508   10.0618    0.9556 H   0  0  0  0  0  0  0  0  0  0  0  0
    0.4273    7.9713    0.9942 H   0  0  0  0  0  0  0  0  0  0  0  0
   -0.5990    9.4586    1.0291 H   0  0  0  0  0  0  0  0  0  0  0  0
   -1.5949    7.8711   -0.4709 H   0  0  0  0  0  0  0  0  0  0  0  0
   -0.2120    6.5580   -1.4220 H   0  0  0  0  0  0  0  0  0  0  0  0
   -2.1443   10.2656    0.0132 H   0  0  0  0  0  0  0  0  0  0  0  0
   -2.1673   11.3906   -1.3870 H   0  0  0  0  0  0  0  0  0  0  0  0
   -3.2198    9.9349   -1.3870 H   0  0  0  0  0  0  0  0  0  0  0  0
   -2.4804    8.1350   -2.7397 H   0  0  0  0  0  0  0  0  0  0  0  0
   -2.2218    9.6753   -3.6269 H   0  0  0  0  0  0  0  0  0  0  0  0
   -0.9436    8.4133   -3.6269 H   0  0  0  0  0  0  0  0  0  0  0  0
    3.8634   10.6899   -0.5248 H   0  0  0  0  0  0  0  0  0  0  0  0
    3.0872   10.1326   -2.0459 H   0  0  0  0  0  0  0  0  0  0  0  0
    4.1012   11.6153   -2.0459 H   0  0  0  0  0  0  0  0  0  0  0  0
    2.2613   12.0714    1.0290 H   0  0  0  0  0  0  0  0  0  0  0  0
    3.5397   12.9808    0.0423 H   0  0  0  0  0  0  0  0  0  0  0  0
    0.6849   13.8313    0.5999 H   0  0  0  0  0  0  0  0  0  0  0  0
    2.2215   14.5967    1.1654 H   0  0  0  0  0  0  0  0  0  0  0  0
    3.8267   15.3529   -0.2509 H   0  0  0  0  0  0  0  0  0  0  0  0
    3.7536   14.4149   -1.7811 H   0  0  0  0  0  0  0  0  0  0  0  0
    3.3537   16.1661   -1.7811 H   0  0  0  0  0  0  0  0  0  0  0  0
  1  2  1  0
  2  3  1  0
  3  4  1  0
  4  5  1  0
  5  6  1  0
  6  7  1  0
  7  8  1  0
  7  9  1  0
  2 10  1  0
 10 11  1  0
 11 12  1  0
 12 13  1  0
 13 14  1  1
 13 15  1  0
 15 16  1  0
 16 17  1  0
 17 18  2  0
 18 19  1  0
 19 20  1  0
 20 21  1  0
 21 22  1  0
 22 23  1  0
 22 24  1  0
 24 25  1  0
 24 26  1  0
 19 27  1  0
 27 28  1  6
 27 29  1  0
 29 30  1  0
 30 31  1  0
 31 32  1  6
  7  5  1  0
 31 10  1  0
 31 13  1  0
 27 15  1  0
 24 18  1  0
  1 33  1  0
  1 34  1  0
  1 35  1  0
  2 36  1  1
  3 37  1  0
  3 38  1  0
  4 39  1  0
  4 40  1  0
  5 41  1  1
  8 42  1  0
  8 43  1  0
  8 44  1  0
  9 45  1  0
  9 46  1  0
  9 47  1  0
 10 48  1  1
 11 49  1  0
 11 50  1  0
 12 51  1  0
 12 52  1  0
 14 53  1  0
 14 54  1  0
 14 55  1  0
 15 56  1  6
 16 57  1  0
 16 58  1  0
 17 59  1  0
 19 60  1  1
 20 61  1  0
 20 62  1  0
 21 63  1  0
 21 64  1  0
 22 65  1  1
 23 66  1  0
 25 67  1  0
 25 68  1  0
 25 69  1  0
 26 70  1  0
 26 71  1  0
 26 72  1  0
 28 73  1  0
 28 74  1  0
 28 75  1  0
 29 76  1  0
 29 77  1  0
 30 78  1  0
 30 79  1  0
 32 80  1  0
 32 81  1  0
 32 82  1  0
M  END
>  <meeko>  (3) 
{"is_sidechain": [false], "intermolecular_energy": 2.731, "internal_energy": -0.839}

$$$$
EPH_relaxed_0001_pdb2pqr_Repair_410_r2_0001_out
     RDKit          3D

 82 86  0  0  0  0  0  0  0  0999 V2000
    3.8460   17.7470    0.5200 C   0  0  0  0  0  0  0  0  0  0  0  0
    2.8020   18.1570   -0.5220 C   0  0  2  0  0  0  0  0  0  0  0  0
    2.1110   19.4870   -0.1600 C   0  0  0  0  0  0  0  0  0  0  0  0
    0.9850   19.3350    0.8660 C   0  0  0  0  0  0  0  0  0  0  0  0
   -0.2680   20.0260    0.4200 C   0  0  2  0  0  0  0  0  0  0  0  0
   -1.2610   20.1840    1.4420 O   0  0  0  0  0  0  0  0  0  0  0  0
   -1.6180   19.3380    0.3370 C   0  0  0  0  0  0  0  0  0  0  0  0
   -1.7830   17.8960    0.7030 C   0  0  0  0  0  0  0  0  0  0  0  0
   -2.6660   19.9250   -0.5570 C   0  0  0  0  0  0  0  0  0  0  0  0
    1.7620   17.0540   -0.6770 C   0  0  1  0  0  0  0  0  0  0  0  0
    0.5340   17.5050   -1.5130 C   0  0  0  0  0  0  0  0  0  0  0  0
    0.0640   16.2670   -2.3210 C   0  0  0  0  0  0  0  0  0  0  0  0
    0.8160   15.0760   -1.6820 C   0  0  1  0  0  0  0  0  0  0  0  0
   -0.0110   14.7160   -0.4090 C   0  0  0  0  0  0  0  0  0  0  0  0
    1.0390   13.8290   -2.5980 C   0  0  2  0  0  0  0  0  0  0  0  0
   -0.2470   13.1340   -3.0780 C   0  0  0  0  0  0  0  0  0  0  0  0
   -0.7500   12.0430   -2.1920 C   0  0  0  0  0  0  0  0  0  0  0  0
   -0.0480   11.4440   -1.2120 C   0  0  0  0  0  0  0  0  0  0  0  0
    1.4280   11.7890   -0.9770 C   0  0  1  0  0  0  0  0  0  0  0  0
    2.2440   10.4800   -0.8080 C   0  0  0  0  0  0  0  0  0  0  0  0
    1.6770    9.5740    0.2800 C   0  0  0  0  0  0  0  0  0  0  0  0
    0.2260    9.2060   -0.0180 C   0  0  2  0  0  0  0  0  0  0  0  0
    0.1900    8.3860   -1.1900 O   0  0  0  0  0  0  0  0  0  0  0  0
   -0.6910   10.4450   -0.2190 C   0  0  0  0  0  0  0  0  0  0  0  0
   -0.8930   11.1680    1.1360 C   0  0  0  0  0  0  0  0  0  0  0  0
   -2.0930    9.9370   -0.6520 C   0  0  0  0  0  0  0  0  0  0  0  0
    2.0830   12.7850   -2.0280 C   0  0  1  0  0  0  0  0  0  0  0  0
    2.6260   11.9850   -3.2520 C   0  0  0  0  0  0  0  0  0  0  0  0
    3.3290   13.4840   -1.3670 C   0  0  0  0  0  0  0  0  0  0  0  0
    3.0600   14.7780   -0.5750 C   0  0  0  0  0  0  0  0  0  0  0  0
    2.2050   15.7530   -1.3910 C   0  0  2  0  0  0  0  0  0  0  0  0
    3.0210   16.1510   -2.6680 C   0  0  0  0  0  0  0  0  0  0  0  0
    3.4390   17.9068    1.5294 H   0  0  0  0  0  0  0  0  0  0  0  0
    4.0962   16.6838    0.3897 H   0  0  0  0  0  0  0  0  0  0  0  0
    4.7529   18.3558    0.3897 H   0  0  0  0  0  0  0  0  0  0  0  0
    3.3281   18.3083   -1.4761 H   0  0  0  0  0  0  0  0  0  0  0  0
    2.8675   20.1704    0.2530 H   0  0  0  0  0  0  0  0  0  0  0  0
    1.6553   19.8746   -1.0831 H   0  0  0  0  0  0  0  0  0  0  0  0
    0.7717   18.2649    1.0054 H   0  0  0  0  0  0  0  0  0  0  0  0
    1.3148   19.7971    1.8082 H   0  0  0  0  0  0  0  0  0  0  0  0
    0.2962   20.6340   -0.3025 H   0  0  0  0  0  0  0  0  0  0  0  0
   -1.7946   17.7947    1.7983 H   0  0  0  0  0  0  0  0  0  0  0  0
   -2.7302   17.5189    0.2899 H   0  0  0  0  0  0  0  0  0  0  0  0
   -0.9455   17.3147    0.2899 H   0  0  0  0  0  0  0  0  0  0  0  0
   -3.4628   20.3713    0.0560 H   0  0  0  0  0  0  0  0  0  0  0  0
   -2.2136   20.7010   -1.1919 H   0  0  0  0  0  0  0  0  0  0  0  0
   -3.0914   19.1338   -1.1919 H   0  0  0  0  0  0  0  0  0  0  0  0
    1.5524   16.8482    0.3831 H   0  0  0  0  0  0  0  0  0  0  0  0
   -0.2708   17.8510   -0.8477 H   0  0  0  0  0  0  0  0  0  0  0  0
    0.7960   18.3375   -2.1825 H   0  0  0  0  0  0  0  0  0  0  0  0
   -1.0240   16.1336   -2.2293 H   0  0  0  0  0  0  0  0  0  0  0  0
    0.2753   16.3655   -3.3960 H   0  0  0  0  0  0  0  0  0  0  0  0
    0.5705   14.9691    0.4897 H   0  0  0  0  0  0  0  0  0  0  0  0
   -0.9518   15.2860   -0.4096 H   0  0  0  0  0  0  0  0  0  0  0  0
   -0.2348   13.6390   -0.4096 H   0  0  0  0  0  0  0  0  0  0  0  0
    1.4910   14.2737   -3.4969 H   0  0  0  0  0  0  0  0  0  0  0  0
   -1.0355   13.8966   -3.1595 H   0  0  0  0  0  0  0  0  0  0  0  0
    0.0043   12.6565   -4.0366 H   0  0  0  0  0  0  0  0  0  0  0  0
   -1.7823   11.6992   -2.3537 H   0  0  0  0  0  0  0  0  0  0  0  0
    1.4600   12.3725   -0.0450 H   0  0  0  0  0  0  0  0  0  0  0  0
    2.2350    9.9331   -1.7624 H   0  0  0  0  0  0  0  0  0  0  0  0
    3.2657   10.7593   -0.5112 H   0  0  0  0  0  0  0  0  0  0  0  0
    2.2782    8.6543    0.3321 H   0  0  0  0  0  0  0  0  0  0  0  0
    1.7130   10.1119    1.2388 H   0  0  0  0  0  0  0  0  0  0  0  0
   -0.1639    8.6656    0.8572 H   0  0  0  0  0  0  0  0  0  0  0  0
    0.4200    7.4800   -0.9230 H   0  0  0  0  0  0  0  0  0  0  0  0
   -0.6967   10.4654    1.9593 H   0  0  0  0  0  0  0  0  0  0  0  0
   -0.1979   12.0177    1.2054 H   0  0  0  0  0  0  0  0  0  0  0  0
   -1.9279   11.5343    1.2054 H   0  0  0  0  0  0  0  0  0  0  0  0
   -2.6960    9.7185    0.2417 H   0  0  0  0  0  0  0  0  0  0  0  0
   -2.5941   10.7107   -1.2522 H   0  0  0  0  0  0  0  0  0  0  0  0
   -1.9821    9.0219   -1.2522 H   0  0  0  0  0  0  0  0  0  0  0  0
    3.2107   11.1236   -2.8969 H   0  0  0  0  0  0  0  0  0  0  0  0
    1.7820   11.6292   -3.8612 H   0  0  0  0  0  0  0  0  0  0  0  0
    3.2683   12.6380   -3.8612 H   0  0  0  0  0  0  0  0  0  0  0  0
    3.7892   12.7611   -0.6773 H   0  0  0  0  0  0  0  0  0  0  0  0
    3.9683   13.7890   -2.2086 H   0  0  0  0  0  0  0  0  0  0  0  0
    2.5300   14.5267    0.3556 H   0  0  0  0  0  0  0  0  0  0  0  0
    4.0237   15.2591   -0.3516 H   0  0  0  0  0  0  0  0  0  0  0  0
    3.9717   16.6147   -2.3659 H   0  0  0  0  0  0  0  0  0  0  0  0
    3.2258   15.2516   -3.2673 H   0  0  0  0  0  0  0  0  0  0  0  0
    2.4384   16.8661   -3.2673 H   0  0  0  0  0  0  0  0  0  0  0  0
  1  2  1  0
  2  3  1  0
  3  4  1  0
  4  5  1  0
  5  6  1  0
  6  7  1  0
  7  8  1  0
  7  9  1  0
  2 10  1  0
 10 11  1  0
 11 12  1  0
 12 13  1  0
 13 14  1  1
 13 15  1  0
 15 16  1  0
 16 17  1  0
 17 18  2  0
 18 19  1  0
 19 20  1  0
 20 21  1  0
 21 22  1  0
 22 23  1  0
 22 24  1  0
 24 25  1  0
 24 26  1  0
 19 27  1  0
 27 28  1  6
 27 29  1  0
 29 30  1  0
 30 31  1  0
 31 32  1  6
  7  5  1  0
 31 10  1  0
 31 13  1  0
 27 15  1  0
 24 18  1  0
  1 33  1  0
  1 34  1  0
  1 35  1  0
  2 36  1  6
  3 37  1  0
  3 38  1  0
  4 39  1  0
  4 40  1  0
  5 41  1  6
  8 42  1  0
  8 43  1  0
  8 44  1  0
  9 45  1  0
  9 46  1  0
  9 47  1  0
 10 48  1  1
 11 49  1  0
 11 50  1  0
 12 51  1  0
 12 52  1  0
 14 53  1  0
 14 54  1  0
 14 55  1  0
 15 56  1  6
 16 57  1  0
 16 58  1  0
 17 59  1  0
 19 60  1  1
 20 61  1  0
 20 62  1  0
 21 63  1  0
 21 64  1  0
 22 65  1  1
 23 66  1  0
 25 67  1  0
 25 68  1  0
 25 69  1  0
 26 70  1  0
 26 71  1  0
 26 72  1  0
 28 73  1  0
 28 74  1  0
 28 75  1  0
 29 76  1  0
 29 77  1  0
 30 78  1  0
 30 79  1  0
 32 80  1  0
 32 81  1  0
 32 82  1  0
M  END
>  <meeko>  (4) 
{"is_sidechain": [false], "intermolecular_energy": 2.731, "internal_energy": -0.839}

$$$$
EPH_relaxed_0001_pdb2pqr_Repair_410_r2_0001_out
     RDKit          3D

 82 86  0  0  0  0  0  0  0  0999 V2000
   -2.2880    9.9640   -0.9100 C   0  0  0  0  0  0  0  0  0  0  0  0
   -0.9040   10.2790   -1.4830 C   0  0  2  0  0  0  0  0  0  0  0  0
    0.0900    9.1200   -1.2710 C   0  0  0  0  0  0  0  0  0  0  0  0
    0.4860    8.9080    0.1930 C   0  0  0  0  0  0  0  0  0  0  0  0
    1.9590    8.6730    0.3410 C   0  0  2  0  0  0  0  0  0  0  0  0
    2.3260    7.8700    1.4710 O   0  0  0  0  0  0  0  0  0  0  0  0
    2.7840    9.2320    1.4840 C   0  0  0  0  0  0  0  0  0  0  0  0
    2.1640   10.0720    2.5560 C   0  0  0  0  0  0  0  0  0  0  0  0
    4.2630    9.3730    1.2970 C   0  0  0  0  0  0  0  0  0  0  0  0
   -0.3580   11.5550   -0.8510 C   0  0  1  0  0  0  0  0  0  0  0  0
    0.7900   11.2790    0.1560 C   0  0  0  0  0  0  0  0  0  0  0  0
    1.7820   12.4640    0.0380 C   0  0  0  0  0  0  0  0  0  0  0  0
    1.0180   13.5330   -0.7780 C   0  0  1  0  0  0  0  0  0  0  0  0
    0.0950   14.2460    0.2600 C   0  0  0  0  0  0  0  0  0  0  0  0
    1.8960   14.5580   -1.5680 C   0  0  2  0  0  0  0  0  0  0  0  0
    2.8000   15.4500   -0.6990 C   0  0  0  0  0  0  0  0  0  0  0  0
    2.1890   16.7390   -0.2590 C   0  0  0  0  0  0  0  0  0  0  0  0
    1.0790   17.2960   -0.7770 C   0  0  0  0  0  0  0  0  0  0  0  0
    0.3700   16.6650   -1.9830 C   0  0  1  0  0  0  0  0  0  0  0  0
    0.0370   17.7670   -3.0230 C   0  0  0  0  0  0  0  0  0  0  0  0
   -0.7560   18.9210   -2.4180 C   0  0  0  0  0  0  0  0  0  0  0  0
    0.0060   19.5600   -1.2600 C   0  0  2  0  0  0  0  0  0  0  0  0
    1.1810   20.1940   -1.7760 O   0  0  0  0  0  0  0  0  0  0  0  0
    0.4050   18.5430   -0.1540 C   0  0  0  0  0  0  0  0  0  0  0  0
   -0.8620   18.0820    0.6090 C   0  0  0  0  0  0  0  0  0  0  0  0
    1.2890   19.2880    0.8830 C   0  0  0  0  0  0  0  0  0  0  0  0
    1.0960   15.4100   -2.6350 C   0  0  1  0  0  0  0  0  0  0  0  0
    2.1350   15.8870   -3.6940 C   0  0  0  0  0  0  0  0  0  0  0  0
    0.0320   14.5480   -3.4130 C   0  0  0  0  0  0  0  0  0  0  0  0
   -0.7170   13.4720   -2.6040 C   0  0  0  0  0  0  0  0  0  0  0  0
    0.2620   12.6100   -1.8010 C   0  0  2  0  0  0  0  0  0  0  0  0
    1.1890   11.8640   -2.8200 C   0  0  0  0  0  0  0  0  0  0  0  0
   -2.2410    9.9747    0.1889 H   0  0  0  0  0  0  0  0  0  0  0  0
   -3.0081   10.7212   -1.2536 H   0  0  0  0  0  0  0  0  0  0  0  0
   -2.6095    8.9697   -1.2536 H   0  0  0  0  0  0  0  0  0  0  0  0
   -1.0196   10.4206   -2.5677 H   0  0  0  0  0  0  0  0  0  0  0  0
   -0.3721    8.1938   -1.6433 H   0  0  0  0  0  0  0  0  0  0  0  0
    1.0083    9.3803   -1.8177 H   0  0  0  0  0  0  0  0  0  0  0  0
    0.2079    9.8020    0.7704 H   0  0  0  0  0  0  0  0  0  0  0  0
   -0.0421    8.0178    0.5654 H   0  0  0  0  0  0  0  0  0  0  0  0
    2.0971    8.6991   -0.7500 H   0  0  0  0  0  0  0  0  0  0  0  0
    2.4533    9.6801    3.5423 H   0  0  0  0  0  0  0  0  0  0  0  0
    2.5141   11.1101    2.4569 H   0  0  0  0  0  0  0  0  0  0  0  0
    1.0688   10.0433    2.4569 H   0  0  0  0  0  0  0  0  0  0  0  0
    4.7541    9.4198    2.2802 H   0  0  0  0  0  0  0  0  0  0  0  0
    4.6459    8.5073    0.7367 H   0  0  0  0  0  0  0  0  0  0  0  0
    4.4755   10.2955    0.7367 H   0  0  0  0  0  0  0  0  0  0  0  0
   -1.2822   11.9492   -0.4034 H   0  0  0  0  0  0  0  0  0  0  0  0
    0.3905   11.2198    1.1792 H   0  0  0  0  0  0  0  0  0  0  0  0
    1.2879   10.3233   -0.0646 H   0  0  0  0  0  0  0  0  0  0  0  0
    2.0454   12.8505    1.0336 H   0  0  0  0  0  0  0  0  0  0  0  0
    2.7274   12.1703   -0.4415 H   0  0  0  0  0  0  0  0  0  0  0  0
    0.4239   13.9919    1.2785 H   0  0  0  0  0  0  0  0  0  0  0  0
    0.1545   15.3350    0.1164 H   0  0  0  0  0  0  0  0  0  0  0  0
   -0.9436   13.9134    0.1164 H   0  0  0  0  0  0  0  0  0  0  0  0
    2.5767   13.9013   -2.1296 H   0  0  0  0  0  0  0  0  0  0  0  0
    3.0765   14.8802    0.2004 H   0  0  0  0  0  0  0  0  0  0  0  0
    3.6593   15.7199   -1.3304 H   0  0  0  0  0  0  0  0  0  0  0  0
    2.6888   17.2796    0.5583 H   0  0  0  0  0  0  0  0  0  0  0  0
   -0.5605   16.2262   -1.5936 H   0  0  0  0  0  0  0  0  0  0  0  0
    0.9786   18.1622   -3.4319 H   0  0  0  0  0  0  0  0  0  0  0  0
   -0.5842   17.3096   -3.8072 H   0  0  0  0  0  0  0  0  0  0  0  0
   -0.9348   19.6803   -3.1936 H   0  0  0  0  0  0  0  0  0  0  0  0
   -1.7100   18.5286   -2.0359 H   0  0  0  0  0  0  0  0  0  0  0  0
   -0.6655   20.2914   -0.7866 H   0  0  0  0  0  0  0  0  0  0  0  0
    1.2100   21.0970   -1.4150 H   0  0  0  0  0  0  0  0  0  0  0  0
   -0.6819   18.1475    1.6922 H   0  0  0  0  0  0  0  0  0  0  0  0
   -1.7090   18.7296    0.3383 H   0  0  0  0  0  0  0  0  0  0  0  0
   -1.0948   17.0416    0.3383 H   0  0  0  0  0  0  0  0  0  0  0  0
    0.9682   19.0176    1.8998 H   0  0  0  0  0  0  0  0  0  0  0  0
    2.3413   19.0003    0.7418 H   0  0  0  0  0  0  0  0  0  0  0  0
    1.1837   20.3738    0.7418 H   0  0  0  0  0  0  0  0  0  0  0  0
    3.0199   16.2933   -3.1823 H   0  0  0  0  0  0  0  0  0  0  0  0
    2.4340   15.0360   -4.3236 H   0  0  0  0  0  0  0  0  0  0  0  0
    1.6845   16.6684   -4.3236 H   0  0  0  0  0  0  0  0  0  0  0  0
   -0.7194   15.2384   -3.8238 H   0  0  0  0  0  0  0  0  0  0  0  0
    0.6084   13.9917   -4.1668 H   0  0  0  0  0  0  0  0  0  0  0  0
   -1.4154   13.9639   -1.9110 H   0  0  0  0  0  0  0  0  0  0  0  0
   -1.2630   12.8230   -3.3045 H   0  0  0  0  0  0  0  0  0  0  0  0
    1.9315   11.2665   -2.2708 H   0  0  0  0  0  0  0  0  0  0  0  0
    0.5801   11.2011   -3.4524 H   0  0  0  0  0  0  0  0  0  0  0  0
    1.7063   12.6006   -3.4524 H   0  0  0  0  0  0  0  0  0  0  0  0
  1  2  1  0
  2  3  1  0
  3  4  1  0
  4  5  1  0
  5  6  1  0
  6  7  1  0
  7  8  1  0
  7  9  1  0
  2 10  1  0
 10 11  1  0
 11 12  1  0
 12 13  1  0
 13 14  1  1
 13 15  1  0
 15 16  1  0
 16 17  1  0
 17 18  2  0
 18 19  1  0
 19 20  1  0
 20 21  1  0
 21 22  1  0
 22 23  1  0
 22 24  1  0
 24 25  1  0
 24 26  1  0
 19 27  1  0
 27 28  1  6
 27 29  1  0
 29 30  1  0
 30 31  1  0
 31 32  1  6
  7  5  1  0
 31 10  1  0
 31 13  1  0
 27 15  1  0
 24 18  1  0
  1 33  1  0
  1 34  1  0
  1 35  1  0
  2 36  1  6
  3 37  1  0
  3 38  1  0
  4 39  1  0
  4 40  1  0
  5 41  1  6
  8 42  1  0
  8 43  1  0
  8 44  1  0
  9 45  1  0
  9 46  1  0
  9 47  1  0
 10 48  1  1
 11 49  1  0
 11 50  1  0
 12 51  1  0
 12 52  1  0
 14 53  1  0
 14 54  1  0
 14 55  1  0
 15 56  1  6
 16 57  1  0
 16 58  1  0
 17 59  1  0
 19 60  1  1
 20 61  1  0
 20 62  1  0
 21 63  1  0
 21 64  1  0
 22 65  1  1
 23 66  1  0
 25 67  1  0
 25 68  1  0
 25 69  1  0
 26 70  1  0
 26 71  1  0
 26 72  1  0
 28 73  1  0
 28 74  1  0
 28 75  1  0
 29 76  1  0
 29 77  1  0
 30 78  1  0
 30 79  1  0
 32 80  1  0
 32 81  1  0
 32 82  1  0
M  END
>  <meeko>  (5) 
{"is_sidechain": [false], "intermolecular_energy": 2.731, "internal_energy": -0.839}

$$$$
EPH_relaxed_0001_pdb2pqr_Repair_410_r2_0001_out
     RDKit          3D

 82 86  0  0  0  0  0  0  0  0999 V2000
   -5.2660    5.7740   -1.5770 C   0  0  0  0  0  0  0  0  0  0  0  0
   -5.4830    7.2720   -1.8060 C   0  0  2  0  0  0  0  0  0  0  0  0
   -5.1880    8.1010   -0.5400 C   0  0  0  0  0  0  0  0  0  0  0  0
   -4.2120    9.2570   -0.7750 C   0  0  0  0  0  0  0  0  0  0  0  0
   -2.8160    8.8950   -0.3660 C   0  0  2  0  0  0  0  0  0  0  0  0
   -2.2970    9.6590    0.7300 O   0  0  0  0  0  0  0  0  0  0  0  0
   -1.6280    9.8240   -0.5310 C   0  0  0  0  0  0  0  0  0  0  0  0
   -1.7820   11.1880   -1.1270 C   0  0  0  0  0  0  0  0  0  0  0  0
   -0.2550    9.2300   -0.5670 C   0  0  0  0  0  0  0  0  0  0  0  0
   -6.9120    7.5250   -2.2740 C   0  0  1  0  0  0  0  0  0  0  0  0
   -7.2280    6.8350   -3.6280 C   0  0  0  0  0  0  0  0  0  0  0  0
   -8.7120    6.3890   -3.5660 C   0  0  0  0  0  0  0  0  0  0  0  0
   -9.2890    7.1210   -2.3320 C   0  0  1  0  0  0  0  0  0  0  0  0
   -9.6120    8.5630   -2.8350 C   0  0  0  0  0  0  0  0  0  0  0  0
  -10.5290    6.4550   -1.6510 C   0  0  2  0  0  0  0  0  0  0  0  0
  -11.7830    6.3530   -2.5370 C   0  0  0  0  0  0  0  0  0  0  0  0
  -12.7160    7.5150   -2.4580 C   0  0  0  0  0  0  0  0  0  0  0  0
  -12.7050    8.4640   -1.5030 C   0  0  0  0  0  0  0  0  0  0  0  0
  -11.7450    8.3690   -0.3100 C   0  0  1  0  0  0  0  0  0  0  0  0
  -12.5190    8.6620    1.0020 C   0  0  0  0  0  0  0  0  0  0  0  0
  -13.2640    9.9930    0.9570 C   0  0  0  0  0  0  0  0  0  0  0  0
  -14.2510   10.0260   -0.2080 C   0  0  2  0  0  0  0  0  0  0  0  0
  -15.2870    9.0700    0.0380 O   0  0  0  0  0  0  0  0  0  0  0  0
  -13.5860    9.7350   -1.5820 C   0  0  0  0  0  0  0  0  0  0  0  0
  -12.6850   10.9270   -1.9880 C   0  0  0  0  0  0  0  0  0  0  0  0
  -14.7110    9.6590   -2.6500 C   0  0  0  0  0  0  0  0  0  0  0  0
  -10.8770    7.0410   -0.2230 C   0  0  1  0  0  0  0  0  0  0  0  0
  -11.6740    5.9330    0.5310 C   0  0  0  0  0  0  0  0  0  0  0  0
   -9.5890    7.3240    0.6370 C   0  0  0  0  0  0  0  0  0  0  0  0
   -8.3580    7.8690   -0.1130 C   0  0  0  0  0  0  0  0  0  0  0  0
   -8.0580    7.0270   -1.3580 C   0  0  2  0  0  0  0  0  0  0  0  0
   -7.7080    5.5770   -0.8810 C   0  0  0  0  0  0  0  0  0  0  0  0
   -5.2363    5.5687   -0.4967 H   0  0  0  0  0  0  0  0  0  0  0  0
   -6.0918    5.2097   -2.0349 H   0  0  0  0  0  0  0  0  0  0  0  0
   -4.3140    5.4672   -2.0349 H   0  0  0  0  0  0  0  0  0  0  0  0
   -4.7751    7.5942   -2.5839 H   0  0  0  0  0  0  0  0  0  0  0  0
   -6.1361    8.5170   -0.1686 H   0  0  0  0  0  0  0  0  0  0  0  0
   -4.7145    7.4229    0.1853 H   0  0  0  0  0  0  0  0  0  0  0  0
   -4.2149    9.5143   -1.8445 H   0  0  0  0  0  0  0  0  0  0  0  0
   -4.5382   10.1112   -0.1635 H   0  0  0  0  0  0  0  0  0  0  0  0
   -2.9778    7.8462   -0.6557 H   0  0  0  0  0  0  0  0  0  0  0  0
   -1.8661   11.9326   -0.3217 H   0  0  0  0  0  0  0  0  0  0  0  0
   -0.9041   11.4178   -1.7487 H   0  0  0  0  0  0  0  0  0  0  0  0
   -2.6890   11.2162   -1.7487 H   0  0  0  0  0  0  0  0  0  0  0  0
    0.1043    9.0745    0.4610 H   0  0  0  0  0  0  0  0  0  0  0  0
   -0.2866    8.2651   -1.0942 H   0  0  0  0  0  0  0  0  0  0  0  0
    0.4266    9.9137   -1.0942 H   0  0  0  0  0  0  0  0  0  0  0  0
   -6.9048    8.6246   -2.3045 H   0  0  0  0  0  0  0  0  0  0  0  0
   -7.0791    7.5420   -4.4575 H   0  0  0  0  0  0  0  0  0  0  0  0
   -6.5635    5.9751   -3.7982 H   0  0  0  0  0  0  0  0  0  0  0  0
   -9.2459    6.6887   -4.4799 H   0  0  0  0  0  0  0  0  0  0  0  0
   -8.8161    5.2966   -3.4890 H   0  0  0  0  0  0  0  0  0  0  0  0
   -9.7609    9.2278   -1.9714 H   0  0  0  0  0  0  0  0  0  0  0  0
   -8.7749    8.9350   -3.4440 H   0  0  0  0  0  0  0  0  0  0  0  0
  -10.5278    8.5424   -3.4440 H   0  0  0  0  0  0  0  0  0  0  0  0
  -10.1865    5.4211   -1.4969 H   0  0  0  0  0  0  0  0  0  0  0  0
  -11.4537    6.2520   -3.5817 H   0  0  0  0  0  0  0  0  0  0  0  0
  -12.3471    5.4843   -2.1668 H   0  0  0  0  0  0  0  0  0  0  0  0
  -13.4773    7.6037   -3.2470 H   0  0  0  0  0  0  0  0  0  0  0  0
  -10.9801    9.1426   -0.4726 H   0  0  0  0  0  0  0  0  0  0  0  0
  -13.2480    7.8553    1.1690 H   0  0  0  0  0  0  0  0  0  0  0  0
  -11.7836    8.7184    1.8181 H   0  0  0  0  0  0  0  0  0  0  0  0
  -13.8146   10.1296    1.8994 H   0  0  0  0  0  0  0  0  0  0  0  0
  -12.5310   10.8016    0.8196 H   0  0  0  0  0  0  0  0  0  0  0  0
  -14.6584   11.0461   -0.2668 H   0  0  0  0  0  0  0  0  0  0  0  0
  -14.8680    8.1960    0.1190 H   0  0  0  0  0  0  0  0  0  0  0  0
  -12.3077   11.4262   -1.0833 H   0  0  0  0  0  0  0  0  0  0  0  0
  -11.8371   10.5592   -2.5845 H   0  0  0  0  0  0  0  0  0  0  0  0
  -13.2701   11.6424   -2.5845 H   0  0  0  0  0  0  0  0  0  0  0  0
  -15.6882    9.5930   -2.1492 H   0  0  0  0  0  0  0  0  0  0  0  0
  -14.6814   10.5612   -3.2786 H   0  0  0  0  0  0  0  0  0  0  0  0
  -14.5603    8.7690   -3.2786 H   0  0  0  0  0  0  0  0  0  0  0  0
  -11.5686    6.0796    1.6161 H   0  0  0  0  0  0  0  0  0  0  0  0
  -12.7369    5.9934    0.2544 H   0  0  0  0  0  0  0  0  0  0  0  0
  -11.2787    4.9444    0.2544 H   0  0  0  0  0  0  0  0  0  0  0  0
   -9.8598    8.0584    1.4098 H   0  0  0  0  0  0  0  0  0  0  0  0
   -9.2791    6.3415    1.0227 H   0  0  0  0  0  0  0  0  0  0  0  0
   -8.5535    8.9073   -0.4192 H   0  0  0  0  0  0  0  0  0  0  0  0
   -7.4887    7.8235    0.5594 H   0  0  0  0  0  0  0  0  0  0  0  0
   -7.7002    5.5446    0.2185 H   0  0  0  0  0  0  0  0  0  0  0  0
   -8.4621    4.8732   -1.2632 H   0  0  0  0  0  0  0  0  0  0  0  0
   -6.7159    5.2947   -1.2632 H   0  0  0  0  0  0  0  0  0  0  0  0
  1  2  1  0
  2  3  1  0
  3  4  1  0
  4  5  1  0
  5  6  1  0
  6  7  1  0
  7  8  1  0
  7  9  1  0
  2 10  1  0
 10 11  1  0
 11 12  1  0
 12 13  1  0
 13 14  1  6
 13 15  1  0
 15 16  1  0
 16 17  1  0
 17 18  2  0
 18 19  1  0
 19 20  1  0
 20 21  1  0
 21 22  1  0
 22 23  1  0
 22 24  1  0
 24 25  1  0
 24 26  1  0
 19 27  1  0
 27 28  1  1
 27 29  1  0
 29 30  1  0
 30 31  1  0
 31 32  1  1
  7  5  1  0
 31 10  1  0
 31 13  1  0
 27 15  1  0
 24 18  1  0
  1 33  1  0
  1 34  1  0
  1 35  1  0
  2 36  1  6
  3 37  1  0
  3 38  1  0
  4 39  1  0
  4 40  1  0
  5 41  1  1
  8 42  1  0
  8 43  1  0
  8 44  1  0
  9 45  1  0
  9 46  1  0
  9 47  1  0
 10 48  1  6
 11 49  1  0
 11 50  1  0
 12 51  1  0
 12 52  1  0
 14 53  1  0
 14 54  1  0
 14 55  1  0
 15 56  1  1
 16 57  1  0
 16 58  1  0
 17 59  1  0
 19 60  1  6
 20 61  1  0
 20 62  1  0
 21 63  1  0
 21 64  1  0
 22 65  1  6
 23 66  1  0
 25 67  1  0
 25 68  1  0
 25 69  1  0
 26 70  1  0
 26 71  1  0
 26 72  1  0
 28 73  1  0
 28 74  1  0
 28 75  1  0
 29 76  1  0
 29 77  1  0
 30 78  1  0
 30 79  1  0
 32 80  1  0
 32 81  1  0
 32 82  1  0
M  END
>  <meeko>  (6) 
{"is_sidechain": [false], "intermolecular_energy": 2.731, "internal_energy": -0.839}

$$$$
EPH_relaxed_0001_pdb2pqr_Repair_410_r2_0001_out
     RDKit          3D

 82 86  0  0  0  0  0  0  0  0999 V2000
    0.4020    8.8800   -2.5630 C   0  0  0  0  0  0  0  0  0  0  0  0
    1.1670   10.0430   -3.2000 C   0  0  2  0  0  0  0  0  0  0  0  0
    2.6590   10.0380   -2.8120 C   0  0  0  0  0  0  0  0  0  0  0  0
    3.5760   10.6250   -3.8890 C   0  0  0  0  0  0  0  0  0  0  0  0
    4.9620   10.8590   -3.3700 C   0  0  2  0  0  0  0  0  0  0  0  0
    5.5760   12.0720   -3.8260 O   0  0  0  0  0  0  0  0  0  0  0  0
    6.1990   10.8480   -4.2490 C   0  0  0  0  0  0  0  0  0  0  0  0
    6.1070   10.5960   -5.7220 C   0  0  0  0  0  0  0  0  0  0  0  0
    7.5290   10.5960   -3.6110 C   0  0  0  0  0  0  0  0  0  0  0  0
    0.5280   11.3670   -2.7970 C   0  0  1  0  0  0  0  0  0  0  0  0
   -0.8430   11.1800   -2.0940 C   0  0  0  0  0  0  0  0  0  0  0  0
   -0.9520   12.2950   -1.0220 C   0  0  0  0  0  0  0  0  0  0  0  0
    0.1930   13.2770   -1.3630 C   0  0  1  0  0  0  0  0  0  0  0  0
   -0.3670   14.1610   -2.5220 C   0  0  0  0  0  0  0  0  0  0  0  0
    0.7310   14.1480   -0.1820 C   0  0  2  0  0  0  0  0  0  0  0  0
   -0.2960   15.1090    0.4410 C   0  0  0  0  0  0  0  0  0  0  0  0
   -0.3470   16.4710   -0.1690 C   0  0  0  0  0  0  0  0  0  0  0  0
    0.5870   17.0000   -0.9800 C   0  0  0  0  0  0  0  0  0  0  0  0
    1.8870   16.2440   -1.2820 C   0  0  1  0  0  0  0  0  0  0  0  0
    3.0930   17.2100   -1.1400 C   0  0  0  0  0  0  0  0  0  0  0  0
    2.9380   18.4680   -1.9890 C   0  0  0  0  0  0  0  0  0  0  0  0
    1.6640   19.2230   -1.6200 C   0  0  2  0  0  0  0  0  0  0  0  0
    1.7990   19.7320   -0.2890 O   0  0  0  0  0  0  0  0  0  0  0  0
    0.3830   18.3470   -1.7160 C   0  0  0  0  0  0  0  0  0  0  0  0
    0.0700   18.0460   -3.2030 C   0  0  0  0  0  0  0  0  0  0  0  0
   -0.8100   19.1850   -1.1820 C   0  0  0  0  0  0  0  0  0  0  0  0
    2.0990   14.8840   -0.4890 C   0  0  1  0  0  0  0  0  0  0  0  0
    2.7690   15.1700    0.8900 C   0  0  0  0  0  0  0  0  0  0  0  0
    3.1020   13.9720   -1.2900 C   0  0  0  0  0  0  0  0  0  0  0  0
    2.4950   13.0460   -2.3620 C   0  0  0  0  0  0  0  0  0  0  0  0
    1.3090   12.2580   -1.7980 C   0  0  2  0  0  0  0  0  0  0  0  0
    1.8460   11.3440   -0.6450 C   0  0  0  0  0  0  0  0  0  0  0  0
    0.4559    8.9620   -1.4674 H   0  0  0  0  0  0  0  0  0  0  0  0
   -0.6502    8.9148   -2.8820 H   0  0  0  0  0  0  0  0  0  0  0  0
    0.8506    7.9276   -2.8820 H   0  0  0  0  0  0  0  0  0  0  0  0
    1.1097    9.9193   -4.2915 H   0  0  0  0  0  0  0  0  0  0  0  0
    2.7808   10.6288   -1.8922 H   0  0  0  0  0  0  0  0  0  0  0  0
    2.9530    8.9867   -2.6769 H   0  0  0  0  0  0  0  0  0  0  0  0
    3.6259    9.9241   -4.7353 H   0  0  0  0  0  0  0  0  0  0  0  0
    3.1596   11.5935   -4.2030 H   0  0  0  0  0  0  0  0  0  0  0  0
    4.7212   10.3426   -2.4291 H   0  0  0  0  0  0  0  0  0  0  0  0
    5.7346    9.5759   -5.8969 H   0  0  0  0  0  0  0  0  0  0  0  0
    5.4157   11.3215   -6.1756 H   0  0  0  0  0  0  0  0  0  0  0  0
    7.1031   10.7055   -6.1756 H   0  0  0  0  0  0  0  0  0  0  0  0
    7.4205   10.6166   -2.5166 H   0  0  0  0  0  0  0  0  0  0  0  0
    7.9049    9.6107   -3.9237 H   0  0  0  0  0  0  0  0  0  0  0  0
    8.2393   11.3755   -3.9237 H   0  0  0  0  0  0  0  0  0  0  0  0
    0.4810   11.8562   -3.7811 H   0  0  0  0  0  0  0  0  0  0  0  0
   -1.6596   11.2760   -2.8247 H   0  0  0  0  0  0  0  0  0  0  0  0
   -0.9191   10.1829   -1.6358 H   0  0  0  0  0  0  0  0  0  0  0  0
   -1.9276   12.7994   -1.0841 H   0  0  0  0  0  0  0  0  0  0  0  0
   -0.8715   11.8993    0.0012 H   0  0  0  0  0  0  0  0  0  0  0  0
   -0.9104   15.0188   -2.0991 H   0  0  0  0  0  0  0  0  0  0  0  0
    0.4662   14.5241   -3.1417 H   0  0  0  0  0  0  0  0  0  0  0  0
   -1.0512   13.5628   -3.1417 H   0  0  0  0  0  0  0  0  0  0  0  0
    0.9408   13.3932    0.5902 H   0  0  0  0  0  0  0  0  0  0  0  0
   -1.2923   14.6538    0.3400 H   0  0  0  0  0  0  0  0  0  0  0  0
    0.0180   15.2548    1.4851 H   0  0  0  0  0  0  0  0  0  0  0  0
   -1.2225   17.0947    0.0646 H   0  0  0  0  0  0  0  0  0  0  0  0
    1.8035   15.9010   -2.3238 H   0  0  0  0  0  0  0  0  0  0  0  0
    3.1853   17.5060   -0.0846 H   0  0  0  0  0  0  0  0  0  0  0  0
    3.9897   16.6785   -1.4913 H   0  0  0  0  0  0  0  0  0  0  0  0
    3.8056   19.1234   -1.8227 H   0  0  0  0  0  0  0  0  0  0  0  0
    2.8761   18.1718   -3.0466 H   0  0  0  0  0  0  0  0  0  0  0  0
    1.5418   20.0390   -2.3475 H   0  0  0  0  0  0  0  0  0  0  0  0
    2.7500   19.8110   -0.1000 H   0  0  0  0  0  0  0  0  0  0  0  0
   -0.7216   17.2847   -3.2642 H   0  0  0  0  0  0  0  0  0  0  0  0
   -0.2679   18.9671   -3.7003 H   0  0  0  0  0  0  0  0  0  0  0  0
    0.9772   17.6724   -3.7003 H   0  0  0  0  0  0  0  0  0  0  0  0
   -0.7999   19.1779   -0.0821 H   0  0  0  0  0  0  0  0  0  0  0  0
   -0.7214   20.2204   -1.5428 H   0  0  0  0  0  0  0  0  0  0  0  0
   -1.7539   18.7505   -1.5428 H   0  0  0  0  0  0  0  0  0  0  0  0
    2.0831   14.8772    1.6986 H   0  0  0  0  0  0  0  0  0  0  0  0
    3.7008   14.5912    0.9720 H   0  0  0  0  0  0  0  0  0  0  0  0
    2.9956   16.2433    0.9720 H   0  0  0  0  0  0  0  0  0  0  0  0
    3.8246   14.6326   -1.7914 H   0  0  0  0  0  0  0  0  0  0  0  0
    3.5385   13.2963   -0.5398 H   0  0  0  0  0  0  0  0  0  0  0  0
    2.1512   13.6552   -3.2109 H   0  0  0  0  0  0  0  0  0  0  0  0
    3.2669   12.3330   -2.6873 H   0  0  0  0  0  0  0  0  0  0  0  0
    1.5850   11.7883    0.3268 H   0  0  0  0  0  0  0  0  0  0  0  0
    1.3907   10.3459   -0.7260 H   0  0  0  0  0  0  0  0  0  0  0  0
    2.9395   11.2559   -0.7260 H   0  0  0  0  0  0  0  0  0  0  0  0
  1  2  1  0
  2  3  1  0
  3  4  1  0
  4  5  1  0
  5  6  1  0
  6  7  1  0
  7  8  1  0
  7  9  1  0
  2 10  1  0
 10 11  1  0
 11 12  1  0
 12 13  1  0
 13 14  1  6
 13 15  1  0
 15 16  1  0
 16 17  1  0
 17 18  2  0
 18 19  1  0
 19 20  1  0
 20 21  1  0
 21 22  1  0
 22 23  1  0
 22 24  1  0
 24 25  1  0
 24 26  1  0
 19 27  1  0
 27 28  1  1
 27 29  1  0
 29 30  1  0
 30 31  1  0
 31 32  1  1
  7  5  1  0
 31 10  1  0
 31 13  1  0
 27 15  1  0
 24 18  1  0
  1 33  1  0
  1 34  1  0
  1 35  1  0
  2 36  1  6
  3 37  1  0
  3 38  1  0
  4 39  1  0
  4 40  1  0
  5 41  1  1
  8 42  1  0
  8 43  1  0
  8 44  1  0
  9 45  1  0
  9 46  1  0
  9 47  1  0
 10 48  1  6
 11 49  1  0
 11 50  1  0
 12 51  1  0
 12 52  1  0
 14 53  1  0
 14 54  1  0
 14 55  1  0
 15 56  1  1
 16 57  1  0
 16 58  1  0
 17 59  1  0
 19 60  1  6
 20 61  1  0
 20 62  1  0
 21 63  1  0
 21 64  1  0
 22 65  1  6
 23 66  1  0
 25 67  1  0
 25 68  1  0
 25 69  1  0
 26 70  1  0
 26 71  1  0
 26 72  1  0
 28 73  1  0
 28 74  1  0
 28 75  1  0
 29 76  1  0
 29 77  1  0
 30 78  1  0
 30 79  1  0
 32 80  1  0
 32 81  1  0
 32 82  1  0
M  END
>  <meeko>  (7) 
{"is_sidechain": [false], "intermolecular_energy": 2.731, "internal_energy": -0.839}

$$$$
EPH_relaxed_0001_pdb2pqr_Repair_410_r2_0001_out
     RDKit          3D

 82 86  0  0  0  0  0  0  0  0999 V2000
    3.3320   18.3980   -2.6870 C   0  0  0  0  0  0  0  0  0  0  0  0
    2.0680   17.5410   -2.8020 C   0  0  2  0  0  0  0  0  0  0  0  0
    0.7990   18.3210   -2.4030 C   0  0  0  0  0  0  0  0  0  0  0  0
    0.9710   19.1720   -1.1430 C   0  0  0  0  0  0  0  0  0  0  0  0
   -0.2860   19.9130   -0.7990 C   0  0  2  0  0  0  0  0  0  0  0  0
   -0.4550   20.1890    0.5980 O   0  0  0  0  0  0  0  0  0  0  0  0
   -1.4210   19.3070    0.0050 C   0  0  0  0  0  0  0  0  0  0  0  0
   -1.3540   17.9000    0.5120 C   0  0  0  0  0  0  0  0  0  0  0  0
   -2.7870   19.9060   -0.1220 C   0  0  0  0  0  0  0  0  0  0  0  0
    2.2060   16.2930   -1.9380 C   0  0  1  0  0  0  0  0  0  0  0  0
    2.5500   16.6250   -0.4610 C   0  0  0  0  0  0  0  0  0  0  0  0
    1.8310   15.5670    0.4140 C   0  0  0  0  0  0  0  0  0  0  0  0
    1.3760   14.4770   -0.5850 C   0  0  1  0  0  0  0  0  0  0  0  0
    2.6440   13.6000   -0.8270 C   0  0  0  0  0  0  0  0  0  0  0  0
    0.1490   13.6110   -0.1520 C   0  0  2  0  0  0  0  0  0  0  0  0
    0.3610   12.7670    1.1170 C   0  0  0  0  0  0  0  0  0  0  0  0
    0.8940   11.3920    0.8860 C   0  0  0  0  0  0  0  0  0  0  0  0
    0.9230   10.7530   -0.2980 C   0  0  0  0  0  0  0  0  0  0  0  0
    0.2940   11.3820   -1.5480 C   0  0  1  0  0  0  0  0  0  0  0  0
   -0.5690   10.3230   -2.2830 C   0  0  0  0  0  0  0  0  0  0  0  0
    0.2110    9.0500   -2.5990 C   0  0  0  0  0  0  0  0  0  0  0  0
    0.7710    8.4230   -1.3250 C   0  0  2  0  0  0  0  0  0  0  0  0
   -0.3190    7.9570   -0.5240 O   0  0  0  0  0  0  0  0  0  0  0  0
    1.6500    9.4000   -0.4960 C   0  0  0  0  0  0  0  0  0  0  0  0
    2.9790    9.6670   -1.2440 C   0  0  0  0  0  0  0  0  0  0  0  0
    2.0340    8.6890    0.8300 C   0  0  0  0  0  0  0  0  0  0  0  0
   -0.4820   12.7500   -1.3200 C   0  0  1  0  0  0  0  0  0  0  0  0
   -1.9590   12.4630   -0.9140 C   0  0  0  0  0  0  0  0  0  0  0  0
   -0.5410   13.5400   -2.6810 C   0  0  0  0  0  0  0  0  0  0  0  0
    0.6460   14.4710   -2.9960 C   0  0  0  0  0  0  0  0  0  0  0  0
    0.9620   15.3790   -1.8040 C   0  0  2  0  0  0  0  0  0  0  0  0
   -0.2870   16.2900   -1.5520 C   0  0  0  0  0  0  0  0  0  0  0  0
    3.5702   18.5595   -1.6253 H   0  0  0  0  0  0  0  0  0  0  0  0
    4.1709   17.8817   -3.1765 H   0  0  0  0  0  0  0  0  0  0  0  0
    3.1628   19.3684   -3.1765 H   0  0  0  0  0  0  0  0  0  0  0  0
    1.9590   17.2520   -3.8577 H   0  0  0  0  0  0  0  0  0  0  0  0
    0.5233   18.9849   -3.2356 H   0  0  0  0  0  0  0  0  0  0  0  0
    0.0194   17.5764   -2.1842 H   0  0  0  0  0  0  0  0  0  0  0  0
    1.2388   18.5147   -0.3026 H   0  0  0  0  0  0  0  0  0  0  0  0
    1.7635   19.9107   -1.3335 H   0  0  0  0  0  0  0  0  0  0  0  0
   -0.2652   20.4431   -1.7626 H   0  0  0  0  0  0  0  0  0  0  0  0
   -1.3543   17.9062    1.6120 H   0  0  0  0  0  0  0  0  0  0  0  0
   -2.2264   17.3373    0.1483 H   0  0  0  0  0  0  0  0  0  0  0  0
   -0.4321   17.4227    0.1483 H   0  0  0  0  0  0  0  0  0  0  0  0
   -3.2022   20.0881    0.8802 H   0  0  0  0  0  0  0  0  0  0  0  0
   -2.7206   20.8576   -0.6698 H   0  0  0  0  0  0  0  0  0  0  0  0
   -3.4420   19.2125   -0.6698 H   0  0  0  0  0  0  0  0  0  0  0  0
    2.9986   15.7706   -2.4937 H   0  0  0  0  0  0  0  0  0  0  0  0
    3.6374   16.5709   -0.3039 H   0  0  0  0  0  0  0  0  0  0  0  0
    2.2240   17.6423   -0.1985 H   0  0  0  0  0  0  0  0  0  0  0  0
    2.5213   15.1461    1.1599 H   0  0  0  0  0  0  0  0  0  0  0  0
    0.9881   15.9947    0.9767 H   0  0  0  0  0  0  0  0  0  0  0  0
    3.0742   13.3025    0.1407 H   0  0  0  0  0  0  0  0  0  0  0  0
    2.3649   12.7010   -1.3961 H   0  0  0  0  0  0  0  0  0  0  0  0
    3.3867   14.1784   -1.3961 H   0  0  0  0  0  0  0  0  0  0  0  0
   -0.5946   14.3752    0.1183 H   0  0  0  0  0  0  0  0  0  0  0  0
    1.0697   13.3017    1.7665 H   0  0  0  0  0  0  0  0  0  0  0  0
   -0.6348   12.6362    1.5656 H   0  0  0  0  0  0  0  0  0  0  0  0
    1.2973   10.8555    1.7575 H   0  0  0  0  0  0  0  0  0  0  0  0
    1.1337   11.6888   -2.1890 H   0  0  0  0  0  0  0  0  0  0  0  0
   -1.4262   10.0621   -1.6450 H   0  0  0  0  0  0  0  0  0  0  0  0
   -0.8940   10.7614   -3.2381 H   0  0  0  0  0  0  0  0  0  0  0  0
   -0.4596    8.3295   -3.0902 H   0  0  0  0  0  0  0  0  0  0  0  0
    1.0503    9.3078   -3.2617 H   0  0  0  0  0  0  0  0  0  0  0  0
    1.4262    7.5923   -1.6261 H   0  0  0  0  0  0  0  0  0  0  0  0
   -1.1180    8.4350   -0.8060 H   0  0  0  0  0  0  0  0  0  0  0  0
    3.7850    9.8289   -0.5131 H   0  0  0  0  0  0  0  0  0  0  0  0
    3.2250    8.8003   -1.8752 H   0  0  0  0  0  0  0  0  0  0  0  0
    2.8712   10.5614   -1.8752 H   0  0  0  0  0  0  0  0  0  0  0  0
    1.7038    9.3003    1.6828 H   0  0  0  0  0  0  0  0  0  0  0  0
    1.5448    7.7047    0.8733 H   0  0  0  0  0  0  0  0  0  0  0  0
    3.1254    8.5583    0.8733 H   0  0  0  0  0  0  0  0  0  0  0  0
   -2.0413   12.4470    0.1828 H   0  0  0  0  0  0  0  0  0  0  0  0
   -2.6104   13.2514   -1.3191 H   0  0  0  0  0  0  0  0  0  0  0  0
   -2.2678   11.4881   -1.3191 H   0  0  0  0  0  0  0  0  0  0  0  0
   -0.6083   12.8004   -3.4924 H   0  0  0  0  0  0  0  0  0  0  0  0
   -1.4123   14.2052   -2.5902 H   0  0  0  0  0  0  0  0  0  0  0  0
    1.5309   13.8600   -3.2274 H   0  0  0  0  0  0  0  0  0  0  0  0
    0.3780   15.1021   -3.8562 H   0  0  0  0  0  0  0  0  0  0  0  0
   -0.4446   16.4049   -0.4694 H   0  0  0  0  0  0  0  0  0  0  0  0
   -0.1175   17.2781   -2.0048 H   0  0  0  0  0  0  0  0  0  0  0  0
   -1.1760   15.8268   -2.0048 H   0  0  0  0  0  0  0  0  0  0  0  0
  1  2  1  0
  2  3  1  0
  3  4  1  0
  4  5  1  0
  5  6  1  0
  6  7  1  0
  7  8  1  0
  7  9  1  0
  2 10  1  0
 10 11  1  0
 11 12  1  0
 12 13  1  0
 13 14  1  6
 13 15  1  0
 15 16  1  0
 16 17  1  0
 17 18  2  0
 18 19  1  0
 19 20  1  0
 20 21  1  0
 21 22  1  0
 22 23  1  0
 22 24  1  0
 24 25  1  0
 24 26  1  0
 19 27  1  0
 27 28  1  1
 27 29  1  0
 29 30  1  0
 30 31  1  0
 31 32  1  1
  7  5  1  0
 31 10  1  0
 31 13  1  0
 27 15  1  0
 24 18  1  0
  1 33  1  0
  1 34  1  0
  1 35  1  0
  2 36  1  6
  3 37  1  0
  3 38  1  0
  4 39  1  0
  4 40  1  0
  5 41  1  6
  8 42  1  0
  8 43  1  0
  8 44  1  0
  9 45  1  0
  9 46  1  0
  9 47  1  0
 10 48  1  6
 11 49  1  0
 11 50  1  0
 12 51  1  0
 12 52  1  0
 14 53  1  0
 14 54  1  0
 14 55  1  0
 15 56  1  1
 16 57  1  0
 16 58  1  0
 17 59  1  0
 19 60  1  6
 20 61  1  0
 20 62  1  0
 21 63  1  0
 21 64  1  0
 22 65  1  6
 23 66  1  0
 25 67  1  0
 25 68  1  0
 25 69  1  0
 26 70  1  0
 26 71  1  0
 26 72  1  0
 28 73  1  0
 28 74  1  0
 28 75  1  0
 29 76  1  0
 29 77  1  0
 30 78  1  0
 30 79  1  0
 32 80  1  0
 32 81  1  0
 32 82  1  0
M  END
>  <meeko>  (8) 
{"is_sidechain": [false], "intermolecular_energy": 2.731, "internal_energy": -0.839}

$$$$
EPH_relaxed_0001_pdb2pqr_Repair_410_r2_0001_out
     RDKit          3D

 82 86  0  0  0  0  0  0  0  0999 V2000
    3.0190   12.5310   -5.7340 C   0  0  0  0  0  0  0  0  0  0  0  0
    1.6040   13.1130   -5.6630 C   0  0  2  0  0  0  0  0  0  0  0  0
    1.5140   14.5030   -6.3240 C   0  0  0  0  0  0  0  0  0  0  0  0
    0.4740   14.5860   -7.4440 C   0  0  0  0  0  0  0  0  0  0  0  0
    0.5850   15.8690   -8.2100 C   0  0  2  0  0  0  0  0  0  0  0  0
    0.3120   15.7550   -9.6130 O   0  0  0  0  0  0  0  0  0  0  0  0
    1.6520   16.1300   -9.2560 C   0  0  0  0  0  0  0  0  0  0  0  0
    2.6830   15.0980   -9.5940 C   0  0  0  0  0  0  0  0  0  0  0  0
    1.9920   17.5480   -9.5940 C   0  0  0  0  0  0  0  0  0  0  0  0
    1.1490   13.1960   -4.2110 C   0  0  1  0  0  0  0  0  0  0  0  0
   -0.2590   13.8320   -4.0610 C   0  0  0  0  0  0  0  0  0  0  0  0
   -0.9500   13.1140   -2.8750 C   0  0  0  0  0  0  0  0  0  0  0  0
    0.1860   12.3310   -2.1760 C   0  0  1  0  0  0  0  0  0  0  0  0
    0.9080   13.3860   -1.2800 C   0  0  0  0  0  0  0  0  0  0  0  0
   -0.2450   11.0730   -1.3530 C   0  0  2  0  0  0  0  0  0  0  0  0
   -1.1720   11.3610   -0.1600 C   0  0  0  0  0  0  0  0  0  0  0  0
   -0.4800   11.6240    1.1370 C   0  0  0  0  0  0  0  0  0  0  0  0
    0.8110   11.3520    1.4030 C   0  0  0  0  0  0  0  0  0  0  0  0
    1.6920   10.6290    0.3770 C   0  0  1  0  0  0  0  0  0  0  0  0
    2.4880    9.4990    1.0810 C   0  0  0  0  0  0  0  0  0  0  0  0
    3.2840   10.0050    2.2810 C   0  0  0  0  0  0  0  0  0  0  0  0
    2.3660   10.6650    3.3060 C   0  0  2  0  0  0  0  0  0  0  0  0
    1.5100    9.6660    3.8690 O   0  0  0  0  0  0  0  0  0  0  0  0
    1.5060   11.8140    2.7080 C   0  0  0  0  0  0  0  0  0  0  0  0
    2.4130   13.0230    2.3740 C   0  0  0  0  0  0  0  0  0  0  0  0
    0.5250   12.2980    3.8100 C   0  0  0  0  0  0  0  0  0  0  0  0
    0.9550   10.1280   -0.9390 C   0  0  1  0  0  0  0  0  0  0  0  0
    0.3440    8.7130   -0.7000 C   0  0  0  0  0  0  0  0  0  0  0  0
    2.0140    9.9650   -2.0920 C   0  0  0  0  0  0  0  0  0  0  0  0
    2.3090   11.2130   -2.9460 C   0  0  0  0  0  0  0  0  0  0  0  0
    1.0100   11.8650   -3.4310 C   0  0  2  0  0  0  0  0  0  0  0  0
    0.2740   10.8350   -4.3530 C   0  0  0  0  0  0  0  0  0  0  0  0
    3.4022   12.3734   -4.7150 H   0  0  0  0  0  0  0  0  0  0  0  0
    2.9939   11.5702   -6.2690 H   0  0  0  0  0  0  0  0  0  0  0  0
    3.6772   13.2314   -6.2690 H   0  0  0  0  0  0  0  0  0  0  0  0
    0.9398   12.4381   -6.2228 H   0  0  0  0  0  0  0  0  0  0  0  0
    1.2504   15.2390   -5.5502 H   0  0  0  0  0  0  0  0  0  0  0  0
    2.4942   14.7060   -6.7801 H   0  0  0  0  0  0  0  0  0  0  0  0
    0.6266   13.7439   -8.1351 H   0  0  0  0  0  0  0  0  0  0  0  0
   -0.5258   14.5451   -6.9870 H   0  0  0  0  0  0  0  0  0  0  0  0
    0.2529   16.4467   -7.3348 H   0  0  0  0  0  0  0  0  0  0  0  0
    3.1009   14.6797   -8.6664 H   0  0  0  0  0  0  0  0  0  0  0  0
    2.2173   14.2933  -10.1819 H   0  0  0  0  0  0  0  0  0  0  0  0
    3.4881   15.5629  -10.1819 H   0  0  0  0  0  0  0  0  0  0  0  0
    2.1299   18.1231   -8.6665 H   0  0  0  0  0  0  0  0  0  0  0  0
    2.9214   17.5721  -10.1819 H   0  0  0  0  0  0  0  0  0  0  0  0
    1.1746   17.9909  -10.1819 H   0  0  0  0  0  0  0  0  0  0  0  0
    1.9744   13.7918   -3.7942 H   0  0  0  0  0  0  0  0  0  0  0  0
   -0.1682   14.9080   -3.8514 H   0  0  0  0  0  0  0  0  0  0  0  0
   -0.8438   13.7191   -4.9858 H   0  0  0  0  0  0  0  0  0  0  0  0
   -1.3981   13.8454   -2.1863 H   0  0  0  0  0  0  0  0  0  0  0  0
   -1.7675   12.4562   -3.2053 H   0  0  0  0  0  0  0  0  0  0  0  0
    0.7414   13.1426   -0.2203 H   0  0  0  0  0  0  0  0  0  0  0  0
    1.9869   13.3722   -1.4942 H   0  0  0  0  0  0  0  0  0  0  0  0
    0.5045   14.3866   -1.4942 H   0  0  0  0  0  0  0  0  0  0  0  0
   -0.8559   10.5140   -2.0771 H   0  0  0  0  0  0  0  0  0  0  0  0
   -1.7788   12.2447   -0.4067 H   0  0  0  0  0  0  0  0  0  0  0  0
   -1.7654   10.4473   -0.0084 H   0  0  0  0  0  0  0  0  0  0  0  0
   -1.0755   12.0782    1.9427 H   0  0  0  0  0  0  0  0  0  0  0  0
    2.3873   11.3867   -0.0135 H   0  0  0  0  0  0  0  0  0  0  0  0
    1.7801    8.7309    1.4258 H   0  0  0  0  0  0  0  0  0  0  0  0
    3.2044    9.0911    0.3527 H   0  0  0  0  0  0  0  0  0  0  0  0
    3.8004    9.1567    2.7539 H   0  0  0  0  0  0  0  0  0  0  0  0
    4.0118   10.7513    1.9298 H   0  0  0  0  0  0  0  0  0  0  0  0
    3.0053   11.1203    4.0767 H   0  0  0  0  0  0  0  0  0  0  0  0
    1.4270    9.8510    4.8200 H   0  0  0  0  0  0  0  0  0  0  0  0
    2.7621   13.4884    3.3075 H   0  0  0  0  0  0  0  0  0  0  0  0
    3.2792   12.6809    1.7886 H   0  0  0  0  0  0  0  0  0  0  0  0
    1.8423   13.7589    1.7886 H   0  0  0  0  0  0  0  0  0  0  0  0
    0.9534   12.0866    4.8008 H   0  0  0  0  0  0  0  0  0  0  0  0
    0.3607   13.3806    3.7049 H   0  0  0  0  0  0  0  0  0  0  0  0
   -0.4341   11.7697    3.7049 H   0  0  0  0  0  0  0  0  0  0  0  0
    0.2634    8.5263    0.3810 H   0  0  0  0  0  0  0  0  0  0  0  0
   -0.6557    8.6634   -1.1562 H   0  0  0  0  0  0  0  0  0  0  0  0
    0.9934    7.9514   -1.1562 H   0  0  0  0  0  0  0  0  0  0  0  0
    2.9606    9.6455   -1.6317 H   0  0  0  0  0  0  0  0  0  0  0  0
    1.5714    9.2377   -2.7885 H   0  0  0  0  0  0  0  0  0  0  0  0
    2.8716   11.9387   -2.3404 H   0  0  0  0  0  0  0  0  0  0  0  0
    2.8967   10.9065   -3.8239 H   0  0  0  0  0  0  0  0  0  0  0  0
   -0.2533   10.0971   -3.7305 H   0  0  0  0  0  0  0  0  0  0  0  0
   -0.4516   11.3644   -4.9880 H   0  0  0  0  0  0  0  0  0  0  0  0
    1.0099   10.3201   -4.9880 H   0  0  0  0  0  0  0  0  0  0  0  0
  1  2  1  0
  2  3  1  0
  3  4  1  0
  4  5  1  0
  5  6  1  0
  6  7  1  0
  7  8  1  0
  7  9  1  0
  2 10  1  0
 10 11  1  0
 11 12  1  0
 12 13  1  0
 13 14  1  1
 13 15  1  0
 15 16  1  0
 16 17  1  0
 17 18  2  0
 18 19  1  0
 19 20  1  0
 20 21  1  0
 21 22  1  0
 22 23  1  0
 22 24  1  0
 24 25  1  0
 24 26  1  0
 19 27  1  0
 27 28  1  1
 27 29  1  0
 29 30  1  0
 30 31  1  0
 31 32  1  6
  7  5  1  0
 31 10  1  0
 31 13  1  0
 27 15  1  0
 24 18  1  0
  1 33  1  0
  1 34  1  0
  1 35  1  0
  2 36  1  6
  3 37  1  0
  3 38  1  0
  4 39  1  0
  4 40  1  0
  5 41  1  1
  8 42  1  0
  8 43  1  0
  8 44  1  0
  9 45  1  0
  9 46  1  0
  9 47  1  0
 10 48  1  1
 11 49  1  0
 11 50  1  0
 12 51  1  0
 12 52  1  0
 14 53  1  0
 14 54  1  0
 14 55  1  0
 15 56  1  6
 16 57  1  0
 16 58  1  0
 17 59  1  0
 19 60  1  6
 20 61  1  0
 20 62  1  0
 21 63  1  0
 21 64  1  0
 22 65  1  1
 23 66  1  0
 25 67  1  0
 25 68  1  0
 25 69  1  0
 26 70  1  0
 26 71  1  0
 26 72  1  0
 28 73  1  0
 28 74  1  0
 28 75  1  0
 29 76  1  0
 29 77  1  0
 30 78  1  0
 30 79  1  0
 32 80  1  0
 32 81  1  0
 32 82  1  0
M  END
>  <meeko>  (9) 
{"is_sidechain": [false], "intermolecular_energy": 2.731, "internal_energy": -0.839}

$$$$
EPH_relaxed_0001_pdb2pqr_Repair_410_r2_0001_out
     RDKit          3D

 82 86  0  0  0  0  0  0  0  0999 V2000
   -1.2140   16.2120   -5.5720 C   0  0  0  0  0  0  0  0  0  0  0  0
   -0.0160   15.5230   -6.2320 C   0  0  2  0  0  0  0  0  0  0  0  0
   -0.3060   15.1320   -7.6950 C   0  0  0  0  0  0  0  0  0  0  0  0
    0.1650   16.1730   -8.7150 C   0  0  0  0  0  0  0  0  0  0  0  0
    1.5970   15.9600   -9.1040 C   0  0  2  0  0  0  0  0  0  0  0  0
    2.0380   16.7460  -10.2190 O   0  0  0  0  0  0  0  0  0  0  0  0
    2.0230   15.3220  -10.4130 C   0  0  0  0  0  0  0  0  0  0  0  0
    1.0160   14.8560  -11.4170 C   0  0  0  0  0  0  0  0  0  0  0  0
    3.3870   14.7110  -10.5010 C   0  0  0  0  0  0  0  0  0  0  0  0
    0.3800   14.2880   -5.4320 C   0  0  1  0  0  0  0  0  0  0  0  0
    1.4020   13.3930   -6.1820 C   0  0  0  0  0  0  0  0  0  0  0  0
    2.3420   12.7900   -5.1060 C   0  0  0  0  0  0  0  0  0  0  0  0
    1.6370   13.0860   -3.7620 C   0  0  1  0  0  0  0  0  0  0  0  0
    0.5550   11.9690   -3.6220 C   0  0  0  0  0  0  0  0  0  0  0  0
    2.5580   13.1580   -2.5000 C   0  0  2  0  0  0  0  0  0  0  0  0
    3.2980   11.8530   -2.1560 C   0  0  0  0  0  0  0  0  0  0  0  0
    2.5740   10.9350   -1.2290 C   0  0  0  0  0  0  0  0  0  0  0  0
    1.5130   11.2670   -0.4700 C   0  0  0  0  0  0  0  0  0  0  0  0
    0.9960   12.7110   -0.4260 C   0  0  1  0  0  0  0  0  0  0  0  0
    0.7450   13.1260    1.0470 C   0  0  0  0  0  0  0  0  0  0  0  0
   -0.1750   12.1550    1.7810 C   0  0  0  0  0  0  0  0  0  0  0  0
    0.4010   10.7410    1.7660 C   0  0  2  0  0  0  0  0  0  0  0  0
    1.5990   10.7230    2.5480 O   0  0  0  0  0  0  0  0  0  0  0  0
    0.7040   10.2180    0.3340 C   0  0  0  0  0  0  0  0  0  0  0  0
   -0.6250    9.9520   -0.4150 C   0  0  0  0  0  0  0  0  0  0  0  0
    1.4100    8.8420    0.4670 C   0  0  0  0  0  0  0  0  0  0  0  0
    1.8600   13.7800   -1.2230 C   0  0  1  0  0  0  0  0  0  0  0  0
    3.0020   14.3270   -0.3130 C   0  0  0  0  0  0  0  0  0  0  0  0
    0.9490   15.0130   -1.5810 C   0  0  0  0  0  0  0  0  0  0  0  0
    0.1560   14.9320   -2.8990 C   0  0  0  0  0  0  0  0  0  0  0  0
    1.0650   14.5190   -4.0610 C   0  0  2  0  0  0  0  0  0  0  0  0
    2.1500   15.6340   -4.2400 C   0  0  0  0  0  0  0  0  0  0  0  0
   -1.1134   16.1541   -4.4781 H   0  0  0  0  0  0  0  0  0  0  0  0
   -1.2468   17.2669   -5.8819 H   0  0  0  0  0  0  0  0  0  0  0  0
   -2.1423   15.7098   -5.8819 H   0  0  0  0  0  0  0  0  0  0  0  0
    0.8161   16.2424   -6.2403 H   0  0  0  0  0  0  0  0  0  0  0  0
    0.2044   14.1812   -7.9081 H   0  0  0  0  0  0  0  0  0  0  0  0
   -1.3985   15.0536   -7.7965 H   0  0  0  0  0  0  0  0  0  0  0  0
   -0.4634   16.1001   -9.6149 H   0  0  0  0  0  0  0  0  0  0  0  0
    0.0794   17.1680   -8.2538 H   0  0  0  0  0  0  0  0  0  0  0  0
    1.8745   15.7559   -8.0593 H   0  0  0  0  0  0  0  0  0  0  0  0
    0.1378   14.4496  -10.8940 H   0  0  0  0  0  0  0  0  0  0  0  0
    0.7078   15.7030  -12.0475 H   0  0  0  0  0  0  0  0  0  0  0  0
    1.4622   14.0728  -12.0475 H   0  0  0  0  0  0  0  0  0  0  0  0
    3.7767   14.5364   -9.4873 H   0  0  0  0  0  0  0  0  0  0  0  0
    3.3261   13.7542  -11.0402 H   0  0  0  0  0  0  0  0  0  0  0  0
    4.0604   15.3935  -11.0402 H   0  0  0  0  0  0  0  0  0  0  0  0
   -0.6123   13.8362   -5.2859 H   0  0  0  0  0  0  0  0  0  0  0  0
    0.8783   12.5896   -6.7208 H   0  0  0  0  0  0  0  0  0  0  0  0
    1.9705   13.9764   -6.9212 H   0  0  0  0  0  0  0  0  0  0  0  0
    2.4566   11.7060   -5.2539 H   0  0  0  0  0  0  0  0  0  0  0  0
    3.3543   13.2182   -5.1492 H   0  0  0  0  0  0  0  0  0  0  0  0
    0.3656   11.7735   -2.5562 H   0  0  0  0  0  0  0  0  0  0  0  0
   -0.3765   12.2982   -4.1056 H   0  0  0  0  0  0  0  0  0  0  0  0
    0.9137   11.0484   -4.1056 H   0  0  0  0  0  0  0  0  0  0  0  0
    3.3363   13.8679   -2.8167 H   0  0  0  0  0  0  0  0  0  0  0  0
    3.4845   11.3105   -3.0946 H   0  0  0  0  0  0  0  0  0  0  0  0
    4.2166   12.1535   -1.6307 H   0  0  0  0  0  0  0  0  0  0  0  0
    2.9381    9.8993   -1.1600 H   0  0  0  0  0  0  0  0  0  0  0  0
    0.0460   12.7119   -0.9805 H   0  0  0  0  0  0  0  0  0  0  0  0
    1.7107   13.1619    1.5724 H   0  0  0  0  0  0  0  0  0  0  0  0
    0.2521   14.1093    1.0370 H   0  0  0  0  0  0  0  0  0  0  0  0
   -0.2896   12.4860    2.8237 H   0  0  0  0  0  0  0  0  0  0  0  0
   -1.1502   12.1424    1.2722 H   0  0  0  0  0  0  0  0  0  0  0  0
   -0.3606   10.0701    2.1903 H   0  0  0  0  0  0  0  0  0  0  0  0
    2.3500   10.8190    1.9380 H   0  0  0  0  0  0  0  0  0  0  0  0
   -1.4315    9.7906    0.3154 H   0  0  0  0  0  0  0  0  0  0  0  0
   -0.8700   10.8189   -1.0462 H   0  0  0  0  0  0  0  0  0  0  0  0
   -0.5175    9.0576   -1.0462 H   0  0  0  0  0  0  0  0  0  0  0  0
    1.5362    8.5960    1.5317 H   0  0  0  0  0  0  0  0  0  0  0  0
    0.7980    8.0674   -0.0182 H   0  0  0  0  0  0  0  0  0  0  0  0
    2.3962    8.8874   -0.0182 H   0  0  0  0  0  0  0  0  0  0  0  0
    2.7247   14.1942    0.7431 H   0  0  0  0  0  0  0  0  0  0  0  0
    3.9314   13.7763   -0.5201 H   0  0  0  0  0  0  0  0  0  0  0  0
    3.1555   15.3964   -0.5201 H   0  0  0  0  0  0  0  0  0  0  0  0
    0.2237   15.1392   -0.7636 H   0  0  0  0  0  0  0  0  0  0  0  0
    1.6442   15.8549   -1.7150 H   0  0  0  0  0  0  0  0  0  0  0  0
   -0.6485   14.1897   -2.7900 H   0  0  0  0  0  0  0  0  0  0  0  0
   -0.2636   15.9250   -3.1176 H   0  0  0  0  0  0  0  0  0  0  0  0
    2.4867   15.9800   -3.2516 H   0  0  0  0  0  0  0  0  0  0  0  0
    3.0064   15.2262   -4.7971 H   0  0  0  0  0  0  0  0  0  0  0  0
    1.7190   16.4790   -4.7971 H   0  0  0  0  0  0  0  0  0  0  0  0
  1  2  1  0
  2  3  1  0
  3  4  1  0
  4  5  1  0
  5  6  1  0
  6  7  1  0
  7  8  1  0
  7  9  1  0
  2 10  1  0
 10 11  1  0
 11 12  1  0
 12 13  1  0
 13 14  1  1
 13 15  1  0
 15 16  1  0
 16 17  1  0
 17 18  2  0
 18 19  1  0
 19 20  1  0
 20 21  1  0
 21 22  1  0
 22 23  1  0
 22 24  1  0
 24 25  1  0
 24 26  1  0
 19 27  1  0
 27 28  1  1
 27 29  1  0
 29 30  1  0
 30 31  1  0
 31 32  1  6
  7  5  1  0
 31 10  1  0
 31 13  1  0
 27 15  1  0
 24 18  1  0
  1 33  1  0
  1 34  1  0
  1 35  1  0
  2 36  1  6
  3 37  1  0
  3 38  1  0
  4 39  1  0
  4 40  1  0
  5 41  1  1
  8 42  1  0
  8 43  1  0
  8 44  1  0
  9 45  1  0
  9 46  1  0
  9 47  1  0
 10 48  1  1
 11 49  1  0
 11 50  1  0
 12 51  1  0
 12 52  1  0
 14 53  1  0
 14 54  1  0
 14 55  1  0
 15 56  1  6
 16 57  1  0
 16 58  1  0
 17 59  1  0
 19 60  1  6
 20 61  1  0
 20 62  1  0
 21 63  1  0
 21 64  1  0
 22 65  1  1
 23 66  1  0
 25 67  1  0
 25 68  1  0
 25 69  1  0
 26 70  1  0
 26 71  1  0
 26 72  1  0
 28 73  1  0
 28 74  1  0
 28 75  1  0
 29 76  1  0
 29 77  1  0
 30 78  1  0
 30 79  1  0
 32 80  1  0
 32 81  1  0
 32 82  1  0
M  END
>  <meeko>  (10) 
{"is_sidechain": [false], "intermolecular_energy": 2.731, "internal_energy": -0.839}

$$$$
EPH_relaxed_0001_pdb2pqr_Repair_410_r2_0001_out
     RDKit          3D

 82 86  0  0  0  0  0  0  0  0999 V2000
   -3.6880    7.2120   -3.4280 C   0  0  0  0  0  0  0  0  0  0  0  0
   -3.6890    7.2850   -1.8980 C   0  0  2  0  0  0  0  0  0  0  0  0
   -5.0910    7.0400   -1.3060 C   0  0  0  0  0  0  0  0  0  0  0  0
   -6.2190    7.1260   -2.3380 C   0  0  0  0  0  0  0  0  0  0  0  0
   -7.5440    7.3950   -1.6910 C   0  0  2  0  0  0  0  0  0  0  0  0
   -8.1890    6.2380   -1.1430 O   0  0  0  0  0  0  0  0  0  0  0  0
   -8.8620    6.8800   -2.2380 C   0  0  0  0  0  0  0  0  0  0  0  0
   -8.9200    6.0550   -3.4850 C   0  0  0  0  0  0  0  0  0  0  0  0
  -10.1240    7.5810   -1.8420 C   0  0  0  0  0  0  0  0  0  0  0  0
   -3.1600    8.6390   -1.4420 C   0  0  1  0  0  0  0  0  0  0  0  0
   -3.8370    9.1370   -0.1370 C   0  0  0  0  0  0  0  0  0  0  0  0
   -2.7550    9.9040    0.6650 C   0  0  0  0  0  0  0  0  0  0  0  0
   -1.5970   10.1090   -0.3400 C   0  0  1  0  0  0  0  0  0  0  0  0
   -2.0210   11.3460   -1.1930 C   0  0  0  0  0  0  0  0  0  0  0  0
   -0.1720   10.2940    0.2760 C   0  0  2  0  0  0  0  0  0  0  0  0
   -0.0020   11.5360    1.1670 C   0  0  0  0  0  0  0  0  0  0  0  0
    0.4500   12.7710    0.4610 C   0  0  0  0  0  0  0  0  0  0  0  0
    0.9810   12.8160   -0.7750 C   0  0  0  0  0  0  0  0  0  0  0  0
    1.2650   11.5270   -1.5570 C   0  0  1  0  0  0  0  0  0  0  0  0
    2.6860   11.5980   -2.1740 C   0  0  0  0  0  0  0  0  0  0  0  0
    2.8950   12.8510   -3.0190 C   0  0  0  0  0  0  0  0  0  0  0  0
    2.6600   14.1120   -2.1920 C   0  0  2  0  0  0  0  0  0  0  0  0
    3.6830   14.2060   -1.1950 O   0  0  0  0  0  0  0  0  0  0  0  0
    1.2630   14.1480   -1.5120 C   0  0  0  0  0  0  0  0  0  0  0  0
    0.1660   14.3500   -2.5870 C   0  0  0  0  0  0  0  0  0  0  0  0
    1.2090   15.4010   -0.5970 C   0  0  0  0  0  0  0  0  0  0  0  0
    1.0080   10.1690   -0.7720 C   0  0  1  0  0  0  0  0  0  0  0  0
    2.2810    9.7730    0.0370 C   0  0  0  0  0  0  0  0  0  0  0  0
    0.7650    9.0120   -1.8120 C   0  0  0  0  0  0  0  0  0  0  0  0
   -0.6840    8.8020   -2.2910 C   0  0  0  0  0  0  0  0  0  0  0  0
   -1.6500    8.7370   -1.1050 C   0  0  2  0  0  0  0  0  0  0  0  0
   -1.2620    7.4890   -0.2400 C   0  0  0  0  0  0  0  0  0  0  0  0
   -3.6736    6.1587   -3.7448 H   0  0  0  0  0  0  0  0  0  0  0  0
   -4.5929    7.7001   -3.8190 H   0  0  0  0  0  0  0  0  0  0  0  0
   -2.7968    7.7247   -3.8190 H   0  0  0  0  0  0  0  0  0  0  0  0
   -3.0305    6.4853   -1.5281 H   0  0  0  0  0  0  0  0  0  0  0  0
   -5.1075    6.0362   -0.8564 H   0  0  0  0  0  0  0  0  0  0  0  0
   -5.2708    7.8343   -0.5665 H   0  0  0  0  0  0  0  0  0  0  0  0
   -5.9952    7.9397   -3.0435 H   0  0  0  0  0  0  0  0  0  0  0  0
   -6.2818    6.1588   -2.8582 H   0  0  0  0  0  0  0  0  0  0  0  0
   -7.2152    8.3979   -1.3810 H   0  0  0  0  0  0  0  0  0  0  0  0
   -8.9948    4.9907   -3.2174 H   0  0  0  0  0  0  0  0  0  0  0  0
   -9.7998    6.3469   -4.0772 H   0  0  0  0  0  0  0  0  0  0  0  0
   -8.0080    6.2209   -4.0772 H   0  0  0  0  0  0  0  0  0  0  0  0
  -10.1933    7.6195   -0.7449 H   0  0  0  0  0  0  0  0  0  0  0  0
  -10.1169    8.6045   -2.2451 H   0  0  0  0  0  0  0  0  0  0  0  0
  -10.9892    7.0342   -2.2451 H   0  0  0  0  0  0  0  0  0  0  0  0
   -3.3853    9.2353   -2.3385 H   0  0  0  0  0  0  0  0  0  0  0  0
   -4.6758    9.8067   -0.3775 H   0  0  0  0  0  0  0  0  0  0  0  0
   -4.2370    8.2944    0.4462 H   0  0  0  0  0  0  0  0  0  0  0  0
   -3.1432   10.8726    1.0131 H   0  0  0  0  0  0  0  0  0  0  0  0
   -2.4354    9.3565    1.5639 H   0  0  0  0  0  0  0  0  0  0  0  0
   -2.3043   12.1725   -0.5247 H   0  0  0  0  0  0  0  0  0  0  0  0
   -1.1791   11.6597   -1.8276 H   0  0  0  0  0  0  0  0  0  0  0  0
   -2.8783   11.0773   -1.8276 H   0  0  0  0  0  0  0  0  0  0  0  0
   -0.0933    9.4293    0.9514 H   0  0  0  0  0  0  0  0  0  0  0  0
   -0.9719   11.7505    1.6395 H   0  0  0  0  0  0  0  0  0  0  0  0
    0.7933   11.2882    1.8854 H   0  0  0  0  0  0  0  0  0  0  0  0
    0.3398   13.7256    0.9964 H   0  0  0  0  0  0  0  0  0  0  0  0
    0.5121   11.4852   -2.3578 H   0  0  0  0  0  0  0  0  0  0  0  0
    3.4248   11.5950   -1.3591 H   0  0  0  0  0  0  0  0  0  0  0  0
    2.8075   10.7263   -2.8338 H   0  0  0  0  0  0  0  0  0  0  0  0
    3.9260   12.8588   -3.4024 H   0  0  0  0  0  0  0  0  0  0  0  0
    2.1754   12.8375   -3.8509 H   0  0  0  0  0  0  0  0  0  0  0  0
    2.6952   14.9693   -2.8804 H   0  0  0  0  0  0  0  0  0  0  0  0
    3.3010   13.9080   -0.3530 H   0  0  0  0  0  0  0  0  0  0  0  0
   -0.8014   14.5281   -2.0947 H   0  0  0  0  0  0  0  0  0  0  0  0
    0.4229   15.2159   -3.2148 H   0  0  0  0  0  0  0  0  0  0  0  0
    0.0976   13.4494   -3.2148 H   0  0  0  0  0  0  0  0  0  0  0  0
    1.2226   15.0863    0.4569 H   0  0  0  0  0  0  0  0  0  0  0  0
    2.0804   16.0410   -0.7998 H   0  0  0  0  0  0  0  0  0  0  0  0
    0.2858   15.9636   -0.7998 H   0  0  0  0  0  0  0  0  0  0  0  0
    2.0666    9.8397    1.1138 H   0  0  0  0  0  0  0  0  0  0  0  0
    2.5704    8.7424   -0.2161 H   0  0  0  0  0  0  0  0  0  0  0  0
    3.1040   10.4576   -0.2161 H   0  0  0  0  0  0  0  0  0  0  0  0
    1.3807    9.2262   -2.6980 H   0  0  0  0  0  0  0  0  0  0  0  0
    1.0294    8.0863   -1.2799 H   0  0  0  0  0  0  0  0  0  0  0  0
   -0.9719    9.6391   -2.9440 H   0  0  0  0  0  0  0  0  0  0  0  0
   -0.7374    7.8497   -2.8390 H   0  0  0  0  0  0  0  0  0  0  0  0
   -1.3412    7.7436    0.8272 H   0  0  0  0  0  0  0  0  0  0  0  0
   -1.9439    6.6571   -0.4700 H   0  0  0  0  0  0  0  0  0  0  0  0
   -0.2286    7.1904   -0.4700 H   0  0  0  0  0  0  0  0  0  0  0  0
  1  2  1  0
  2  3  1  0
  3  4  1  0
  4  5  1  0
  5  6  1  0
  6  7  1  0
  7  8  1  0
  7  9  1  0
  2 10  1  0
 10 11  1  0
 11 12  1  0
 12 13  1  0
 13 14  1  6
 13 15  1  0
 15 16  1  0
 16 17  1  0
 17 18  2  0
 18 19  1  0
 19 20  1  0
 20 21  1  0
 21 22  1  0
 22 23  1  0
 22 24  1  0
 24 25  1  0
 24 26  1  0
 19 27  1  0
 27 28  1  1
 27 29  1  0
 29 30  1  0
 30 31  1  0
 31 32  1  1
  7  5  1  0
 31 10  1  0
 31 13  1  0
 27 15  1  0
 24 18  1  0
  1 33  1  0
  1 34  1  0
  1 35  1  0
  2 36  1  1
  3 37  1  0
  3 38  1  0
  4 39  1  0
  4 40  1  0
  5 41  1  1
  8 42  1  0
  8 43  1  0
  8 44  1  0
  9 45  1  0
  9 46  1  0
  9 47  1  0
 10 48  1  6
 11 49  1  0
 11 50  1  0
 12 51  1  0
 12 52  1  0
 14 53  1  0
 14 54  1  0
 14 55  1  0
 15 56  1  1
 16 57  1  0
 16 58  1  0
 17 59  1  0
 19 60  1  6
 20 61  1  0
 20 62  1  0
 21 63  1  0
 21 64  1  0
 22 65  1  6
 23 66  1  0
 25 67  1  0
 25 68  1  0
 25 69  1  0
 26 70  1  0
 26 71  1  0
 26 72  1  0
 28 73  1  0
 28 74  1  0
 28 75  1  0
 29 76  1  0
 29 77  1  0
 30 78  1  0
 30 79  1  0
 32 80  1  0
 32 81  1  0
 32 82  1  0
M  END
>  <meeko>  (11) 
{"is_sidechain": [false], "intermolecular_energy": 2.731, "internal_energy": -0.839}

$$$$
EPH_relaxed_0001_pdb2pqr_Repair_410_r2_0001_out
     RDKit          3D

 82 86  0  0  0  0  0  0  0  0999 V2000
    2.4610   16.1890   -7.1440 C   0  0  0  0  0  0  0  0  0  0  0  0
    1.3900   15.1050   -6.9940 C   0  0  2  0  0  0  0  0  0  0  0  0
    0.1190   15.4290   -7.8050 C   0  0  0  0  0  0  0  0  0  0  0  0
    0.3990   16.1600   -9.1210 C   0  0  0  0  0  0  0  0  0  0  0  0
    1.8040   15.9360   -9.5930 C   0  0  2  0  0  0  0  0  0  0  0  0
    2.1380   16.6030  -10.8170 O   0  0  0  0  0  0  0  0  0  0  0  0
    2.1500   15.1660  -10.8540 C   0  0  0  0  0  0  0  0  0  0  0  0
    1.0860   14.5720  -11.7220 C   0  0  0  0  0  0  0  0  0  0  0  0
    3.5210   14.5780  -10.9800 C   0  0  0  0  0  0  0  0  0  0  0  0
    1.0370   14.9230   -5.5230 C   0  0  1  0  0  0  0  0  0  0  0  0
   -0.2890   15.6290   -5.1350 C   0  0  0  0  0  0  0  0  0  0  0  0
   -0.9740   14.7400   -4.0650 C   0  0  0  0  0  0  0  0  0  0  0  0
    0.1210   13.7370   -3.6330 C   0  0  1  0  0  0  0  0  0  0  0  0
    0.9970   14.5190   -2.6040 C   0  0  0  0  0  0  0  0  0  0  0  0
   -0.3790   12.3770   -3.0480 C   0  0  2  0  0  0  0  0  0  0  0  0
   -1.1980   12.4860   -1.7500 C   0  0  0  0  0  0  0  0  0  0  0  0
   -0.4050   12.4150   -0.4880 C   0  0  0  0  0  0  0  0  0  0  0  0
    0.8670   11.9870   -0.3860 C   0  0  0  0  0  0  0  0  0  0  0  0
    1.6080   11.4220   -1.6060 C   0  0  1  0  0  0  0  0  0  0  0  0
    2.3300   10.1080   -1.2100 C   0  0  0  0  0  0  0  0  0  0  0  0
    3.2450   10.2840   -0.0020 C   0  0  0  0  0  0  0  0  0  0  0  0
    2.4620   10.7920    1.2060 C   0  0  2  0  0  0  0  0  0  0  0  0
    1.5480    9.7730    1.6240 O   0  0  0  0  0  0  0  0  0  0  0  0
    1.6840   12.1070    0.9240 C   0  0  0  0  0  0  0  0  0  0  0  0
    2.6840   13.2800    0.7670 C   0  0  0  0  0  0  0  0  0  0  0  0
    0.8260   12.4330    2.1760 C   0  0  0  0  0  0  0  0  0  0  0  0
    0.7440   11.2690   -2.9310 C   0  0  1  0  0  0  0  0  0  0  0  0
    0.0130    9.8910   -2.9330 C   0  0  0  0  0  0  0  0  0  0  0  0
    1.7090   11.2610   -4.1750 C   0  0  0  0  0  0  0  0  0  0  0  0
    2.0720   12.6300   -4.7820 C   0  0  0  0  0  0  0  0  0  0  0  0
    0.8160   13.4750   -5.0190 C   0  0  2  0  0  0  0  0  0  0  0  0
   -0.0750   12.7240   -6.0670 C   0  0  0  0  0  0  0  0  0  0  0  0
    2.7889   16.5208   -6.1478 H   0  0  0  0  0  0  0  0  0  0  0  0
    3.3207   15.7812   -7.6960 H   0  0  0  0  0  0  0  0  0  0  0  0
    2.0429   17.0437   -7.6960 H   0  0  0  0  0  0  0  0  0  0  0  0
    1.8076   14.1693   -7.3942 H   0  0  0  0  0  0  0  0  0  0  0  0
   -0.3965   14.4848   -8.0349 H   0  0  0  0  0  0  0  0  0  0  0  0
   -0.4940   16.1018   -7.1873 H   0  0  0  0  0  0  0  0  0  0  0  0
   -0.2976   15.7915   -9.8884 H   0  0  0  0  0  0  0  0  0  0  0  0
    0.2632   17.2380   -8.9494 H   0  0  0  0  0  0  0  0  0  0  0  0
    2.1642   15.8548   -8.5568 H   0  0  0  0  0  0  0  0  0  0  0  0
    0.2999   14.1331  -11.0900 H   0  0  0  0  0  0  0  0  0  0  0  0
    0.6501   15.3573  -12.3571 H   0  0  0  0  0  0  0  0  0  0  0  0
    1.5257   13.7889  -12.3571 H   0  0  0  0  0  0  0  0  0  0  0  0
    3.9370   14.3996   -9.9774 H   0  0  0  0  0  0  0  0  0  0  0  0
    3.4627   13.6258  -11.5276 H   0  0  0  0  0  0  0  0  0  0  0  0
    4.1707   15.2766  -11.5276 H   0  0  0  0  0  0  0  0  0  0  0  0
    1.9409   15.3484   -5.0626 H   0  0  0  0  0  0  0  0  0  0  0  0
   -0.0798   16.6264   -4.7210 H   0  0  0  0  0  0  0  0  0  0  0  0
   -0.9380   15.7599   -6.0135 H   0  0  0  0  0  0  0  0  0  0  0  0
   -1.3042   15.3470   -3.2092 H   0  0  0  0  0  0  0  0  0  0  0  0
   -1.8717   14.2364   -4.4531 H   0  0  0  0  0  0  0  0  0  0  0  0
    0.6928   14.2475   -1.5824 H   0  0  0  0  0  0  0  0  0  0  0  0
    2.0558   14.2602   -2.7523 H   0  0  0  0  0  0  0  0  0  0  0  0
    0.8596   15.6003   -2.7523 H   0  0  0  0  0  0  0  0  0  0  0  0
   -1.0853   12.0353   -3.8190 H   0  0  0  0  0  0  0  0  0  0  0  0
   -1.7298   13.4488   -1.7635 H   0  0  0  0  0  0  0  0  0  0  0  0
   -1.8673   11.6131   -1.7383 H   0  0  0  0  0  0  0  0  0  0  0  0
   -0.9023   12.7401    0.4377 H   0  0  0  0  0  0  0  0  0  0  0  0
    2.3492   12.1828   -1.8919 H   0  0  0  0  0  0  0  0  0  0  0  0
    1.5720    9.3477   -0.9703 H   0  0  0  0  0  0  0  0  0  0  0  0
    2.9560    9.8017   -2.0610 H   0  0  0  0  0  0  0  0  0  0  0  0
    3.7027    9.3153    0.2471 H   0  0  0  0  0  0  0  0  0  0  0  0
    4.0205   11.0224   -0.2536 H   0  0  0  0  0  0  0  0  0  0  0  0
    3.1903   11.0226    1.9975 H   0  0  0  0  0  0  0  0  0  0  0  0
    1.9470    9.3130    2.3830 H   0  0  0  0  0  0  0  0  0  0  0  0
    2.9888   13.6376    1.7616 H   0  0  0  0  0  0  0  0  0  0  0  0
    3.5700   12.9349    0.2140 H   0  0  0  0  0  0  0  0  0  0  0  0
    2.2031   14.1003    0.2140 H   0  0  0  0  0  0  0  0  0  0  0  0
    1.4052   12.2129    3.0849 H   0  0  0  0  0  0  0  0  0  0  0  0
    0.5514   13.4981    2.1651 H   0  0  0  0  0  0  0  0  0  0  0  0
   -0.0866   11.8190    2.1651 H   0  0  0  0  0  0  0  0  0  0  0  0
   -0.1594    9.5659   -1.8964 H   0  0  0  0  0  0  0  0  0  0  0  0
   -0.9519    9.9886   -3.4520 H   0  0  0  0  0  0  0  0  0  0  0  0
    0.6349    9.1468   -3.4520 H   0  0  0  0  0  0  0  0  0  0  0  0
    2.6462   10.7751   -3.8659 H   0  0  0  0  0  0  0  0  0  0  0  0
    1.1549   10.7336   -4.9655 H   0  0  0  0  0  0  0  0  0  0  0  0
    2.7401   13.1644   -4.0907 H   0  0  0  0  0  0  0  0  0  0  0  0
    2.5708   12.4642   -5.7483 H   0  0  0  0  0  0  0  0  0  0  0  0
   -0.8137   12.1014   -5.5411 H   0  0  0  0  0  0  0  0  0  0  0  0
   -0.5972   13.4585   -6.6977 H   0  0  0  0  0  0  0  0  0  0  0  0
    0.5605   12.0850   -6.6977 H   0  0  0  0  0  0  0  0  0  0  0  0
  1  2  1  0
  2  3  1  0
  3  4  1  0
  4  5  1  0
  5  6  1  0
  6  7  1  0
  7  8  1  0
  7  9  1  0
  2 10  1  0
 10 11  1  0
 11 12  1  0
 12 13  1  0
 13 14  1  1
 13 15  1  0
 15 16  1  0
 16 17  1  0
 17 18  2  0
 18 19  1  0
 19 20  1  0
 20 21  1  0
 21 22  1  0
 22 23  1  0
 22 24  1  0
 24 25  1  0
 24 26  1  0
 19 27  1  0
 27 28  1  1
 27 29  1  0
 29 30  1  0
 30 31  1  0
 31 32  1  6
  7  5  1  0
 31 10  1  0
 31 13  1  0
 27 15  1  0
 24 18  1  0
  1 33  1  0
  1 34  1  0
  1 35  1  0
  2 36  1  6
  3 37  1  0
  3 38  1  0
  4 39  1  0
  4 40  1  0
  5 41  1  1
  8 42  1  0
  8 43  1  0
  8 44  1  0
  9 45  1  0
  9 46  1  0
  9 47  1  0
 10 48  1  1
 11 49  1  0
 11 50  1  0
 12 51  1  0
 12 52  1  0
 14 53  1  0
 14 54  1  0
 14 55  1  0
 15 56  1  6
 16 57  1  0
 16 58  1  0
 17 59  1  0
 19 60  1  6
 20 61  1  0
 20 62  1  0
 21 63  1  0
 21 64  1  0
 22 65  1  1
 23 66  1  0
 25 67  1  0
 25 68  1  0
 25 69  1  0
 26 70  1  0
 26 71  1  0
 26 72  1  0
 28 73  1  0
 28 74  1  0
 28 75  1  0
 29 76  1  0
 29 77  1  0
 30 78  1  0
 30 79  1  0
 32 80  1  0
 32 81  1  0
 32 82  1  0
M  END
>  <meeko>  (12) 
{"is_sidechain": [false], "intermolecular_energy": 2.731, "internal_energy": -0.839}

$$$$
EPH_relaxed_0001_pdb2pqr_Repair_410_r2_0001_out
     RDKit          3D

 82 86  0  0  0  0  0  0  0  0999 V2000
   -0.6170   16.0640   -5.0080 C   0  0  0  0  0  0  0  0  0  0  0  0
    0.8510   15.6290   -5.0290 C   0  0  2  0  0  0  0  0  0  0  0  0
    1.1270   14.5700   -6.1140 C   0  0  0  0  0  0  0  0  0  0  0  0
    0.9450   15.0910   -7.5430 C   0  0  0  0  0  0  0  0  0  0  0  0
    2.2260   15.0410   -8.3190 C   0  0  2  0  0  0  0  0  0  0  0  0
    2.5880   16.2720   -8.9580 O   0  0  0  0  0  0  0  0  0  0  0  0
    2.2950   15.1670   -9.8290 C   0  0  0  0  0  0  0  0  0  0  0  0
    1.0600   15.3530  -10.6540 C   0  0  0  0  0  0  0  0  0  0  0  0
    3.4970   14.6250  -10.5380 C   0  0  0  0  0  0  0  0  0  0  0  0
    1.2520   15.0900   -3.6610 C   0  0  1  0  0  0  0  0  0  0  0  0
    1.2990   16.1960   -2.5730 C   0  0  0  0  0  0  0  0  0  0  0  0
    0.8310   15.5400   -1.2480 C   0  0  0  0  0  0  0  0  0  0  0  0
    0.8510   14.0210   -1.5370 C   0  0  1  0  0  0  0  0  0  0  0  0
    2.3440   13.5990   -1.3660 C   0  0  0  0  0  0  0  0  0  0  0  0
   -0.1020   13.1400   -0.6650 C   0  0  2  0  0  0  0  0  0  0  0  0
    0.1990   13.1500    0.8440 C   0  0  0  0  0  0  0  0  0  0  0  0
    1.1460   12.0940    1.3130 C   0  0  0  0  0  0  0  0  0  0  0  0
    1.5100   11.0040    0.6130 C   0  0  0  0  0  0  0  0  0  0  0  0
    0.8780   10.6950   -0.7500 C   0  0  1  0  0  0  0  0  0  0  0  0
    0.4700    9.2000   -0.8060 C   0  0  0  0  0  0  0  0  0  0  0  0
    1.6290    8.2640   -0.4750 C   0  0  0  0  0  0  0  0  0  0  0  0
    2.1930    8.5640    0.9110 C   0  0  2  0  0  0  0  0  0  0  0  0
    1.2050    8.2320    1.8920 O   0  0  0  0  0  0  0  0  0  0  0  0
    2.6290   10.0450    1.0890 C   0  0  0  0  0  0  0  0  0  0  0  0
    3.8960   10.3200    0.2420 C   0  0  0  0  0  0  0  0  0  0  0  0
    3.0450   10.2460    2.5710 C   0  0  0  0  0  0  0  0  0  0  0  0
   -0.2960   11.6650   -1.2050 C   0  0  1  0  0  0  0  0  0  0  0  0
   -1.6560   11.1580   -0.6360 C   0  0  0  0  0  0  0  0  0  0  0  0
   -0.4250   11.6150   -2.7740 C   0  0  0  0  0  0  0  0  0  0  0  0
    0.4550   12.5930   -3.5750 C   0  0  0  0  0  0  0  0  0  0  0  0
    0.3350   14.0170   -3.0220 C   0  0  2  0  0  0  0  0  0  0  0  0
   -1.1520   14.4770   -3.2010 C   0  0  0  0  0  0  0  0  0  0  0  0
   -0.9549   16.1641   -3.9660 H   0  0  0  0  0  0  0  0  0  0  0  0
   -0.7202   17.0313   -5.5215 H   0  0  0  0  0  0  0  0  0  0  0  0
   -1.2305   15.3091   -5.5215 H   0  0  0  0  0  0  0  0  0  0  0  0
    1.4558   16.5152   -5.2717 H   0  0  0  0  0  0  0  0  0  0  0  0
    2.1636   14.2194   -6.0015 H   0  0  0  0  0  0  0  0  0  0  0  0
    0.3933   13.7632   -5.9700 H   0  0  0  0  0  0  0  0  0  0  0  0
    0.1937   14.4719   -8.0551 H   0  0  0  0  0  0  0  0  0  0  0  0
    0.6193   16.1402   -7.4864 H   0  0  0  0  0  0  0  0  0  0  0  0
    2.6473   14.3032   -7.6203 H   0  0  0  0  0  0  0  0  0  0  0  0
    0.1922   15.4837   -9.9908 H   0  0  0  0  0  0  0  0  0  0  0  0
    1.1738   16.2441  -11.2888 H   0  0  0  0  0  0  0  0  0  0  0  0
    0.9063   14.4679  -11.2888 H   0  0  0  0  0  0  0  0  0  0  0  0
    4.2391   14.2904   -9.7982 H   0  0  0  0  0  0  0  0  0  0  0  0
    3.1983   13.7744  -11.1684 H   0  0  0  0  0  0  0  0  0  0  0  0
    3.9367   15.4120  -11.1684 H   0  0  0  0  0  0  0  0  0  0  0  0
    2.2266   14.6484   -3.9160 H   0  0  0  0  0  0  0  0  0  0  0  0
    2.3249   16.5778   -2.4650 H   0  0  0  0  0  0  0  0  0  0  0  0
    0.6529   17.0441   -2.8437 H   0  0  0  0  0  0  0  0  0  0  0  0
    1.5199   15.7883   -0.4272 H   0  0  0  0  0  0  0  0  0  0  0  0
   -0.1633   15.8925   -0.9362 H   0  0  0  0  0  0  0  0  0  0  0  0
    2.5854   13.5308   -0.2950 H   0  0  0  0  0  0  0  0  0  0  0  0
    2.5051   12.6201   -1.8413 H   0  0  0  0  0  0  0  0  0  0  0  0
    2.9937   14.3487   -1.8413 H   0  0  0  0  0  0  0  0  0  0  0  0
   -1.0684   13.6526   -0.7808 H   0  0  0  0  0  0  0  0  0  0  0  0
    0.6295   14.1298    1.0982 H   0  0  0  0  0  0  0  0  0  0  0  0
   -0.7579   12.9454    1.3465 H   0  0  0  0  0  0  0  0  0  0  0  0
    1.5825   12.2180    2.3150 H   0  0  0  0  0  0  0  0  0  0  0  0
    1.6580   10.8965   -1.4990 H   0  0  0  0  0  0  0  0  0  0  0  0
   -0.3398    9.0282   -0.0817 H   0  0  0  0  0  0  0  0  0  0  0  0
    0.1469    8.9805   -1.8343 H   0  0  0  0  0  0  0  0  0  0  0  0
    1.2708    7.2243   -0.5007 H   0  0  0  0  0  0  0  0  0  0  0  0
    2.4255    8.4146   -1.2185 H   0  0  0  0  0  0  0  0  0  0  0  0
    3.0996    7.9539    1.0370 H   0  0  0  0  0  0  0  0  0  0  0  0
    1.2290    8.9200    2.5780 H   0  0  0  0  0  0  0  0  0  0  0  0
    4.7503   10.5054    0.9097 H   0  0  0  0  0  0  0  0  0  0  0  0
    4.1093    9.4472   -0.3927 H   0  0  0  0  0  0  0  0  0  0  0  0
    3.7283   11.2027   -0.3927 H   0  0  0  0  0  0  0  0  0  0  0  0
    2.2518    9.8627    3.2297 H   0  0  0  0  0  0  0  0  0  0  0  0
    3.9797    9.7002    2.7667 H   0  0  0  0  0  0  0  0  0  0  0  0
    3.1983   11.3175    2.7667 H   0  0  0  0  0  0  0  0  0  0  0  0
   -1.6212   11.1710    0.4634 H   0  0  0  0  0  0  0  0  0  0  0  0
   -2.4669   11.8142   -0.9849 H   0  0  0  0  0  0  0  0  0  0  0  0
   -1.8395   10.1311   -0.9849 H   0  0  0  0  0  0  0  0  0  0  0  0
   -0.1678   10.5953   -3.0967 H   0  0  0  0  0  0  0  0  0  0  0  0
   -1.4604   11.9188   -2.9874 H   0  0  0  0  0  0  0  0  0  0  0  0
    1.5042   12.2689   -3.5101 H   0  0  0  0  0  0  0  0  0  0  0  0
    0.1163   12.5933   -4.6216 H   0  0  0  0  0  0  0  0  0  0  0  0
   -1.6132   14.6197   -2.2126 H   0  0  0  0  0  0  0  0  0  0  0  0
   -1.1780   15.4252   -3.7580 H   0  0  0  0  0  0  0  0  0  0  0  0
   -1.7088   13.7091   -3.7580 H   0  0  0  0  0  0  0  0  0  0  0  0
  1  2  1  0
  2  3  1  0
  3  4  1  0
  4  5  1  0
  5  6  1  0
  6  7  1  0
  7  8  1  0
  7  9  1  0
  2 10  1  0
 10 11  1  0
 11 12  1  0
 12 13  1  0
 13 14  1  6
 13 15  1  0
 15 16  1  0
 16 17  1  0
 17 18  2  0
 18 19  1  0
 19 20  1  0
 20 21  1  0
 21 22  1  0
 22 23  1  0
 22 24  1  0
 24 25  1  0
 24 26  1  0
 19 27  1  0
 27 28  1  1
 27 29  1  0
 29 30  1  0
 30 31  1  0
 31 32  1  1
  7  5  1  0
 31 10  1  0
 31 13  1  0
 27 15  1  0
 24 18  1  0
  1 33  1  0
  1 34  1  0
  1 35  1  0
  2 36  1  6
  3 37  1  0
  3 38  1  0
  4 39  1  0
  4 40  1  0
  5 41  1  1
  8 42  1  0
  8 43  1  0
  8 44  1  0
  9 45  1  0
  9 46  1  0
  9 47  1  0
 10 48  1  6
 11 49  1  0
 11 50  1  0
 12 51  1  0
 12 52  1  0
 14 53  1  0
 14 54  1  0
 14 55  1  0
 15 56  1  1
 16 57  1  0
 16 58  1  0
 17 59  1  0
 19 60  1  6
 20 61  1  0
 20 62  1  0
 21 63  1  0
 21 64  1  0
 22 65  1  1
 23 66  1  0
 25 67  1  0
 25 68  1  0
 25 69  1  0
 26 70  1  0
 26 71  1  0
 26 72  1  0
 28 73  1  0
 28 74  1  0
 28 75  1  0
 29 76  1  0
 29 77  1  0
 30 78  1  0
 30 79  1  0
 32 80  1  0
 32 81  1  0
 32 82  1  0
M  END
>  <meeko>  (13) 
{"is_sidechain": [false], "intermolecular_energy": 2.731, "internal_energy": -0.839}

$$$$
EPH_relaxed_0001_pdb2pqr_Repair_410_r2_0001_out
     RDKit          3D

 82 86  0  0  0  0  0  0  0  0999 V2000
   -2.3690    7.8620   -2.1930 C   0  0  0  0  0  0  0  0  0  0  0  0
   -2.2740    8.4590   -0.7860 C   0  0  2  0  0  0  0  0  0  0  0  0
   -3.6310    8.4400   -0.0550 C   0  0  0  0  0  0  0  0  0  0  0  0
   -4.8370    8.5270   -0.9930 C   0  0  0  0  0  0  0  0  0  0  0  0
   -5.5300    7.2050   -1.1290 C   0  0  2  0  0  0  0  0  0  0  0  0
   -5.7100    6.7590   -2.4790 O   0  0  0  0  0  0  0  0  0  0  0  0
   -6.9090    7.0420   -1.7410 C   0  0  0  0  0  0  0  0  0  0  0  0
   -7.6780    8.2180   -2.2560 C   0  0  0  0  0  0  0  0  0  0  0  0
   -7.7060    5.8230   -1.3950 C   0  0  0  0  0  0  0  0  0  0  0  0
   -1.7420    9.8860   -0.8620 C   0  0  1  0  0  0  0  0  0  0  0  0
   -1.3180   10.4390    0.5240 C   0  0  0  0  0  0  0  0  0  0  0  0
   -0.0910   11.3560    0.2830 C   0  0  0  0  0  0  0  0  0  0  0  0
   -0.0550   11.5640   -1.2490 C   0  0  1  0  0  0  0  0  0  0  0  0
   -1.1050   12.6850   -1.5260 C   0  0  0  0  0  0  0  0  0  0  0  0
    1.3390   11.9140   -1.8660 C   0  0  2  0  0  0  0  0  0  0  0  0
    1.9530   13.2380   -1.3810 C   0  0  0  0  0  0  0  0  0  0  0  0
    1.6050   14.4400   -2.1960 C   0  0  0  0  0  0  0  0  0  0  0  0
    1.0670   14.4190   -3.4300 C   0  0  0  0  0  0  0  0  0  0  0  0
    0.8460   13.0930   -4.1700 C   0  0  1  0  0  0  0  0  0  0  0  0
    1.3570   13.2230   -5.6280 C   0  0  0  0  0  0  0  0  0  0  0  0
    0.7410   14.4100   -6.3610 C   0  0  0  0  0  0  0  0  0  0  0  0
    1.0320   15.7160   -5.6260 C   0  0  2  0  0  0  0  0  0  0  0  0
    2.4380   15.9770   -5.6890 O   0  0  0  0  0  0  0  0  0  0  0  0
    0.5690   15.7000   -4.1420 C   0  0  0  0  0  0  0  0  0  0  0  0
   -0.9780   15.7210   -4.0790 C   0  0  0  0  0  0  0  0  0  0  0  0
    1.0480   17.0190   -3.4780 C   0  0  0  0  0  0  0  0  0  0  0  0
    1.3980   11.7920   -3.4420 C   0  0  1  0  0  0  0  0  0  0  0  0
    2.8960   11.5700   -3.8160 C   0  0  0  0  0  0  0  0  0  0  0  0
    0.6160   10.5340   -3.9750 C   0  0  0  0  0  0  0  0  0  0  0  0
   -0.6920   10.1700   -3.2480 C   0  0  0  0  0  0  0  0  0  0  0  0
   -0.4830   10.1310   -1.7310 C   0  0  2  0  0  0  0  0  0  0  0  0
    0.5530    8.9970   -1.4190 C   0  0  0  0  0  0  0  0  0  0  0  0
   -2.5415    6.7780   -2.1205 H   0  0  0  0  0  0  0  0  0  0  0  0
   -3.2039    8.3307   -2.7346 H   0  0  0  0  0  0  0  0  0  0  0  0
   -1.4299    8.0484   -2.7346 H   0  0  0  0  0  0  0  0  0  0  0  0
   -1.5787    7.8337   -0.2067 H   0  0  0  0  0  0  0  0  0  0  0  0
   -3.7036    7.5038    0.5179 H   0  0  0  0  0  0  0  0  0  0  0  0
   -3.6609    9.3305    0.5900 H   0  0  0  0  0  0  0  0  0  0  0  0
   -5.5489    9.2630   -0.5911 H   0  0  0  0  0  0  0  0  0  0  0  0
   -4.4769    8.8293   -1.9874 H   0  0  0  0  0  0  0  0  0  0  0  0
   -5.0975    6.8546   -0.1803 H   0  0  0  0  0  0  0  0  0  0  0  0
   -8.0617    8.8048   -1.4084 H   0  0  0  0  0  0  0  0  0  0  0  0
   -7.0171    8.8483   -2.8691 H   0  0  0  0  0  0  0  0  0  0  0  0
   -8.5205    7.8652   -2.8691 H   0  0  0  0  0  0  0  0  0  0  0  0
   -7.7700    5.7251   -0.3012 H   0  0  0  0  0  0  0  0  0  0  0  0
   -8.7185    5.9156   -1.8148 H   0  0  0  0  0  0  0  0  0  0  0  0
   -7.2151    4.9326   -1.8148 H   0  0  0  0  0  0  0  0  0  0  0  0
   -2.6128   10.3837   -1.3137 H   0  0  0  0  0  0  0  0  0  0  0  0
   -2.1412   11.0169    0.9693 H   0  0  0  0  0  0  0  0  0  0  0  0
   -1.0701    9.6212    1.2167 H   0  0  0  0  0  0  0  0  0  0  0  0
   -0.2165   12.3174    0.8027 H   0  0  0  0  0  0  0  0  0  0  0  0
    0.8411   10.9153    0.6664 H   0  0  0  0  0  0  0  0  0  0  0  0
   -1.4775   13.0827   -0.5704 H   0  0  0  0  0  0  0  0  0  0  0  0
   -0.6333   13.4952   -2.1014 H   0  0  0  0  0  0  0  0  0  0  0  0
   -1.9443   12.2672   -2.1014 H   0  0  0  0  0  0  0  0  0  0  0  0
    1.9834   11.1203   -1.4600 H   0  0  0  0  0  0  0  0  0  0  0  0
    1.6093   13.4147   -0.3511 H   0  0  0  0  0  0  0  0  0  0  0  0
    3.0429   13.1173   -1.4677 H   0  0  0  0  0  0  0  0  0  0  0  0
    1.8051   15.4257   -1.7505 H   0  0  0  0  0  0  0  0  0  0  0  0
   -0.2405   12.9215   -4.1697 H   0  0  0  0  0  0  0  0  0  0  0  0
    2.4496   13.3492   -5.6086 H   0  0  0  0  0  0  0  0  0  0  0  0
    1.0639   12.3098   -6.1667 H   0  0  0  0  0  0  0  0  0  0  0  0
    1.1637   14.4657   -7.3750 H   0  0  0  0  0  0  0  0  0  0  0  0
   -0.3488   14.2677   -6.4059 H   0  0  0  0  0  0  0  0  0  0  0  0
    0.4578   16.5106   -6.1249 H   0  0  0  0  0  0  0  0  0  0  0  0
    2.5660   16.9320   -5.5630 H   0  0  0  0  0  0  0  0  0  0  0  0
   -1.3021   15.7254   -3.0278 H   0  0  0  0  0  0  0  0  0  0  0  0
   -1.3532   16.6243   -4.5822 H   0  0  0  0  0  0  0  0  0  0  0  0
   -1.3776   14.8282   -4.5822 H   0  0  0  0  0  0  0  0  0  0  0  0
    1.0097   16.9136   -2.3837 H   0  0  0  0  0  0  0  0  0  0  0  0
    2.0810   17.2324   -3.7899 H   0  0  0  0  0  0  0  0  0  0  0  0
    0.3926   17.8456   -3.7899 H   0  0  0  0  0  0  0  0  0  0  0  0
    3.4941   11.4814   -2.8971 H   0  0  0  0  0  0  0  0  0  0  0  0
    2.9935   10.6476   -4.4073 H   0  0  0  0  0  0  0  0  0  0  0  0
    3.2568   12.4245   -4.4073 H   0  0  0  0  0  0  0  0  0  0  0  0
    0.3695   10.7182   -5.0311 H   0  0  0  0  0  0  0  0  0  0  0  0
    1.2890    9.6816   -3.8006 H   0  0  0  0  0  0  0  0  0  0  0  0
   -1.4579   10.9227   -3.4866 H   0  0  0  0  0  0  0  0  0  0  0  0
   -1.0144    9.1733   -3.5836 H   0  0  0  0  0  0  0  0  0  0  0  0
    0.6561    8.8841   -0.3297 H   0  0  0  0  0  0  0  0  0  0  0  0
    0.2019    8.0497   -1.8542 H   0  0  0  0  0  0  0  0  0  0  0  0
    1.5281    9.2613   -1.8542 H   0  0  0  0  0  0  0  0  0  0  0  0
  1  2  1  0
  2  3  1  0
  3  4  1  0
  4  5  1  0
  5  6  1  0
  6  7  1  0
  7  8  1  0
  7  9  1  0
  2 10  1  0
 10 11  1  0
 11 12  1  0
 12 13  1  0
 13 14  1  1
 13 15  1  0
 15 16  1  0
 16 17  1  0
 17 18  2  0
 18 19  1  0
 19 20  1  0
 20 21  1  0
 21 22  1  0
 22 23  1  0
 22 24  1  0
 24 25  1  0
 24 26  1  0
 19 27  1  0
 27 28  1  1
 27 29  1  0
 29 30  1  0
 30 31  1  0
 31 32  1  6
  7  5  1  0
 31 10  1  0
 31 13  1  0
 27 15  1  0
 24 18  1  0
  1 33  1  0
  1 34  1  0
  1 35  1  0
  2 36  1  1
  3 37  1  0
  3 38  1  0
  4 39  1  0
  4 40  1  0
  5 41  1  1
  8 42  1  0
  8 43  1  0
  8 44  1  0
  9 45  1  0
  9 46  1  0
  9 47  1  0
 10 48  1  6
 11 49  1  0
 11 50  1  0
 12 51  1  0
 12 52  1  0
 14 53  1  0
 14 54  1  0
 14 55  1  0
 15 56  1  1
 16 57  1  0
 16 58  1  0
 17 59  1  0
 19 60  1  6
 20 61  1  0
 20 62  1  0
 21 63  1  0
 21 64  1  0
 22 65  1  6
 23 66  1  0
 25 67  1  0
 25 68  1  0
 25 69  1  0
 26 70  1  0
 26 71  1  0
 26 72  1  0
 28 73  1  0
 28 74  1  0
 28 75  1  0
 29 76  1  0
 29 77  1  0
 30 78  1  0
 30 79  1  0
 32 80  1  0
 32 81  1  0
 32 82  1  0
M  END
>  <meeko>  (14) 
{"is_sidechain": [false], "intermolecular_energy": 2.731, "internal_energy": -0.839}

$$$$
EPH_relaxed_0001_pdb2pqr_Repair_410_r2_0001_out
     RDKit          3D

 82 86  0  0  0  0  0  0  0  0999 V2000
    1.4260    8.8870    0.0970 C   0  0  0  0  0  0  0  0  0  0  0  0
    2.8510    9.4460    0.1390 C   0  0  2  0  0  0  0  0  0  0  0  0
    3.3280    9.7160    1.5800 C   0  0  0  0  0  0  0  0  0  0  0  0
    2.1990    9.7040    2.6140 C   0  0  0  0  0  0  0  0  0  0  0  0
    1.4710   11.0130    2.6550 C   0  0  2  0  0  0  0  0  0  0  0  0
    2.3050   12.1550    2.8950 O   0  0  0  0  0  0  0  0  0  0  0  0
    1.3330   11.8550    3.9100 C   0  0  0  0  0  0  0  0  0  0  0  0
    1.9280   11.4180    5.2120 C   0  0  0  0  0  0  0  0  0  0  0  0
    0.2150   12.8480    3.9860 C   0  0  0  0  0  0  0  0  0  0  0  0
    2.9310   10.7260   -0.6850 C   0  0  1  0  0  0  0  0  0  0  0  0
    3.4180   10.4740   -2.1360 C   0  0  0  0  0  0  0  0  0  0  0  0
    2.6670   11.4830   -3.0420 C   0  0  0  0  0  0  0  0  0  0  0  0
    2.0310   12.4930   -2.0580 C   0  0  1  0  0  0  0  0  0  0  0  0
    3.1840   13.4820   -1.6970 C   0  0  0  0  0  0  0  0  0  0  0  0
    0.7610   13.2490   -2.5670 C   0  0  2  0  0  0  0  0  0  0  0  0
    0.9850   14.1470   -3.7960 C   0  0  0  0  0  0  0  0  0  0  0  0
    1.3600   15.5600   -3.4940 C   0  0  0  0  0  0  0  0  0  0  0  0
    1.2350   16.1630   -2.2970 C   0  0  0  0  0  0  0  0  0  0  0  0
    0.5780   15.4390   -1.1150 C   0  0  1  0  0  0  0  0  0  0  0  0
   -0.4390   16.3870   -0.4270 C   0  0  0  0  0  0  0  0  0  0  0  0
    0.1840   17.7190   -0.0220 C   0  0  0  0  0  0  0  0  0  0  0  0
    0.7750   18.4360   -1.2330 C   0  0  2  0  0  0  0  0  0  0  0  0
   -0.2910   18.8170   -2.1080 O   0  0  0  0  0  0  0  0  0  0  0  0
    1.8070   17.5730   -2.0120 C   0  0  0  0  0  0  0  0  0  0  0  0
    3.0950   17.4140   -1.1670 C   0  0  0  0  0  0  0  0  0  0  0  0
    2.2190   18.3580   -3.2870 C   0  0  0  0  0  0  0  0  0  0  0  0
   -0.0390   14.0090   -1.4340 C   0  0  1  0  0  0  0  0  0  0  0  0
   -1.5030   14.1650   -1.9490 C   0  0  0  0  0  0  0  0  0  0  0  0
   -0.1240   13.1770   -0.1000 C   0  0  0  0  0  0  0  0  0  0  0  0
    1.1210   12.3570    0.2880 C   0  0  0  0  0  0  0  0  0  0  0  0
    1.6160   11.5190   -0.8950 C   0  0  2  0  0  0  0  0  0  0  0  0
    0.4860   10.5000   -1.2660 C   0  0  0  0  0  0  0  0  0  0  0  0
    1.0583    8.7428    1.1236 H   0  0  0  0  0  0  0  0  0  0  0  0
    0.7700    9.5945   -0.4314 H   0  0  0  0  0  0  0  0  0  0  0  0
    1.4260    7.9222   -0.4314 H   0  0  0  0  0  0  0  0  0  0  0  0
    3.5178    8.6841   -0.2910 H   0  0  0  0  0  0  0  0  0  0  0  0
    4.0590    8.9413    1.8548 H   0  0  0  0  0  0  0  0  0  0  0  0
    3.7633   10.7262    1.5908 H   0  0  0  0  0  0  0  0  0  0  0  0
    1.4861    8.9076    2.3541 H   0  0  0  0  0  0  0  0  0  0  0  0
    2.6433    9.5276    3.6047 H   0  0  0  0  0  0  0  0  0  0  0  0
    0.7327   10.6520    1.9238 H   0  0  0  0  0  0  0  0  0  0  0  0
    1.3466   11.8450    6.0425 H   0  0  0  0  0  0  0  0  0  0  0  0
    1.9057   10.3200    5.2752 H   0  0  0  0  0  0  0  0  0  0  0  0
    2.9690   11.7678    5.2752 H   0  0  0  0  0  0  0  0  0  0  0  0
   -0.0194   13.0562    5.0404 H   0  0  0  0  0  0  0  0  0  0  0  0
    0.5180   13.7802    3.4867 H   0  0  0  0  0  0  0  0  0  0  0  0
   -0.6749   12.4371    3.4867 H   0  0  0  0  0  0  0  0  0  0  0  0
    3.6247   11.3056   -0.0582 H   0  0  0  0  0  0  0  0  0  0  0  0
    4.5035   10.6382   -2.2050 H   0  0  0  0  0  0  0  0  0  0  0  0
    3.2153    9.4383   -2.4461 H   0  0  0  0  0  0  0  0  0  0  0  0
    3.3675   11.9911   -3.7212 H   0  0  0  0  0  0  0  0  0  0  0  0
    1.9165   10.9927   -3.6795 H   0  0  0  0  0  0  0  0  0  0  0  0
    3.2728   13.5581   -0.6032 H   0  0  0  0  0  0  0  0  0  0  0  0
    4.1305   13.1106   -2.1167 H   0  0  0  0  0  0  0  0  0  0  0  0
    2.9610   14.4740   -2.1167 H   0  0  0  0  0  0  0  0  0  0  0  0
    0.1192   12.4250   -2.9121 H   0  0  0  0  0  0  0  0  0  0  0  0
    1.7908   13.7030   -4.3989 H   0  0  0  0  0  0  0  0  0  0  0  0
    0.0182   14.1940   -4.3185 H   0  0  0  0  0  0  0  0  0  0  0  0
    1.7732   16.1588   -4.3190 H   0  0  0  0  0  0  0  0  0  0  0  0
    1.3924   15.1960   -0.4166 H   0  0  0  0  0  0  0  0  0  0  0  0
   -1.2665   16.5825   -1.1248 H   0  0  0  0  0  0  0  0  0  0  0  0
   -0.7907   15.8907    0.4895 H   0  0  0  0  0  0  0  0  0  0  0  0
   -0.5904   18.3557    0.4307 H   0  0  0  0  0  0  0  0  0  0  0  0
    0.9916   17.5239    0.6989 H   0  0  0  0  0  0  0  0  0  0  0  0
    1.3191   19.3172   -0.8621 H   0  0  0  0  0  0  0  0  0  0  0  0
   -1.0820   18.9650   -1.5620 H   0  0  0  0  0  0  0  0  0  0  0  0
    2.8383   17.4457   -0.0978 H   0  0  0  0  0  0  0  0  0  0  0  0
    3.5707   16.4503   -1.4015 H   0  0  0  0  0  0  0  0  0  0  0  0
    3.7908   18.2331   -1.4015 H   0  0  0  0  0  0  0  0  0  0  0  0
    2.7120   19.2973   -2.9960 H   0  0  0  0  0  0  0  0  0  0  0  0
    2.9137   17.7490   -3.8841 H   0  0  0  0  0  0  0  0  0  0  0  0
    1.3232   18.5838   -3.8841 H   0  0  0  0  0  0  0  0  0  0  0  0
   -2.1876   14.2380   -1.0911 H   0  0  0  0  0  0  0  0  0  0  0  0
   -1.5817   15.0766   -2.5595 H   0  0  0  0  0  0  0  0  0  0  0  0
   -1.7721   13.2904   -2.5595 H   0  0  0  0  0  0  0  0  0  0  0  0
   -0.3267   13.8821    0.7196 H   0  0  0  0  0  0  0  0  0  0  0  0
   -0.9154   12.4332   -0.2747 H   0  0  0  0  0  0  0  0  0  0  0  0
    1.9207   13.0438    0.6021 H   0  0  0  0  0  0  0  0  0  0  0  0
    0.8516   11.6781    1.1105 H   0  0  0  0  0  0  0  0  0  0  0  0
    0.0390   10.0969   -0.3453 H   0  0  0  0  0  0  0  0  0  0  0  0
   -0.2888   11.0107   -1.8566 H   0  0  0  0  0  0  0  0  0  0  0  0
    0.9141    9.6767   -1.8566 H   0  0  0  0  0  0  0  0  0  0  0  0
  1  2  1  0
  2  3  1  0
  3  4  1  0
  4  5  1  0
  5  6  1  0
  6  7  1  0
  7  8  1  0
  7  9  1  0
  2 10  1  0
 10 11  1  0
 11 12  1  0
 12 13  1  0
 13 14  1  1
 13 15  1  0
 15 16  1  0
 16 17  1  0
 17 18  2  0
 18 19  1  0
 19 20  1  0
 20 21  1  0
 21 22  1  0
 22 23  1  0
 22 24  1  0
 24 25  1  0
 24 26  1  0
 19 27  1  0
 27 28  1  6
 27 29  1  0
 29 30  1  0
 30 31  1  0
 31 32  1  6
  7  5  1  0
 31 10  1  0
 31 13  1  0
 27 15  1  0
 24 18  1  0
  1 33  1  0
  1 34  1  0
  1 35  1  0
  2 36  1  6
  3 37  1  0
  3 38  1  0
  4 39  1  0
  4 40  1  0
  5 41  1  6
  8 42  1  0
  8 43  1  0
  8 44  1  0
  9 45  1  0
  9 46  1  0
  9 47  1  0
 10 48  1  1
 11 49  1  0
 11 50  1  0
 12 51  1  0
 12 52  1  0
 14 53  1  0
 14 54  1  0
 14 55  1  0
 15 56  1  6
 16 57  1  0
 16 58  1  0
 17 59  1  0
 19 60  1  1
 20 61  1  0
 20 62  1  0
 21 63  1  0
 21 64  1  0
 22 65  1  1
 23 66  1  0
 25 67  1  0
 25 68  1  0
 25 69  1  0
 26 70  1  0
 26 71  1  0
 26 72  1  0
 28 73  1  0
 28 74  1  0
 28 75  1  0
 29 76  1  0
 29 77  1  0
 30 78  1  0
 30 79  1  0
 32 80  1  0
 32 81  1  0
 32 82  1  0
M  END
>  <meeko>  (15) 
{"is_sidechain": [false], "intermolecular_energy": 2.731, "internal_energy": -0.839}

$$$$
EPH_relaxed_0001_pdb2pqr_Repair_410_r2_0001_out
     RDKit          3D

 82 86  0  0  0  0  0  0  0  0999 V2000
    3.7230    9.6230    1.2800 C   0  0  0  0  0  0  0  0  0  0  0  0
    2.3640    9.9490    0.6550 C   0  0  2  0  0  0  0  0  0  0  0  0
    1.7680    8.7440   -0.1010 C   0  0  0  0  0  0  0  0  0  0  0  0
    0.2640    8.5620    0.1180 C   0  0  0  0  0  0  0  0  0  0  0  0
   -0.4430    8.2070   -1.1550 C   0  0  2  0  0  0  0  0  0  0  0  0
   -0.8000    9.3280   -1.9740 O   0  0  0  0  0  0  0  0  0  0  0  0
   -1.8910    8.5640   -1.4360 C   0  0  0  0  0  0  0  0  0  0  0  0
   -2.7190    9.3080   -0.4350 C   0  0  0  0  0  0  0  0  0  0  0  0
   -2.6370    7.7710   -2.4630 C   0  0  0  0  0  0  0  0  0  0  0  0
    2.4980   11.1400   -0.2870 C   0  0  1  0  0  0  0  0  0  0  0  0
    2.5020   10.7230   -1.7820 C   0  0  0  0  0  0  0  0  0  0  0  0
    1.7750   11.8480   -2.5620 C   0  0  0  0  0  0  0  0  0  0  0  0
    1.6730   13.0180   -1.5560 C   0  0  1  0  0  0  0  0  0  0  0  0
    3.0690   13.7130   -1.6050 C   0  0  0  0  0  0  0  0  0  0  0  0
    0.5120   14.0370   -1.7970 C   0  0  2  0  0  0  0  0  0  0  0  0
    0.5850   14.8070   -3.1270 C   0  0  0  0  0  0  0  0  0  0  0  0
    1.3320   16.0990   -3.0750 C   0  0  0  0  0  0  0  0  0  0  0  0
    1.6750   16.7600   -1.9540 C   0  0  0  0  0  0  0  0  0  0  0  0
    1.2220   16.2600   -0.5760 C   0  0  1  0  0  0  0  0  0  0  0  0
    0.6680   17.4510    0.2500 C   0  0  0  0  0  0  0  0  0  0  0  0
    1.6570   18.6080    0.3450 C   0  0  0  0  0  0  0  0  0  0  0  0
    2.0380   19.1150   -1.0440 C   0  0  2  0  0  0  0  0  0  0  0  0
    0.8860   19.7080   -1.6510 O   0  0  0  0  0  0  0  0  0  0  0  0
    2.6010   18.0010   -1.9700 C   0  0  0  0  0  0  0  0  0  0  0  0
    4.0020   17.5680   -1.4710 C   0  0  0  0  0  0  0  0  0  0  0  0
    2.8130   18.6130   -3.3810 C   0  0  0  0  0  0  0  0  0  0  0  0
    0.2410   15.0100   -0.5790 C   0  0  1  0  0  0  0  0  0  0  0  0
   -1.2360   15.4940   -0.7150 C   0  0  0  0  0  0  0  0  0  0  0  0
    0.3410   14.2740    0.8090 C   0  0  0  0  0  0  0  0  0  0  0  0
    1.4300   13.1940    0.9460 C   0  0  0  0  0  0  0  0  0  0  0  0
    1.3850   12.2180   -0.2330 C   0  0  2  0  0  0  0  0  0  0  0  0
   -0.0000   11.4870   -0.1970 C   0  0  0  0  0  0  0  0  0  0  0  0
    3.6368    9.6437    2.3764 H   0  0  0  0  0  0  0  0  0  0  0  0
    4.0448    8.6222    0.9563 H   0  0  0  0  0  0  0  0  0  0  0  0
    4.4638   10.3689    0.9563 H   0  0  0  0  0  0  0  0  0  0  0  0
    1.6740   10.1984    1.4746 H   0  0  0  0  0  0  0  0  0  0  0  0
    1.9475    8.8859   -1.1769 H   0  0  0  0  0  0  0  0  0  0  0  0
    2.2611    7.8426    0.2918 H   0  0  0  0  0  0  0  0  0  0  0  0
    0.1053    7.7567    0.8503 H   0  0  0  0  0  0  0  0  0  0  0  0
   -0.1468    9.5145    0.4840 H   0  0  0  0  0  0  0  0  0  0  0  0
    0.1101    7.2587   -1.2252 H   0  0  0  0  0  0  0  0  0  0  0  0
   -2.4060    9.0267    0.5813 H   0  0  0  0  0  0  0  0  0  0  0  0
   -2.5794   10.3900   -0.5754 H   0  0  0  0  0  0  0  0  0  0  0  0
   -3.7800    9.0539   -0.5754 H   0  0  0  0  0  0  0  0  0  0  0  0
   -3.3074    7.0584   -1.9602 H   0  0  0  0  0  0  0  0  0  0  0  0
   -3.2301    8.4513   -3.0918 H   0  0  0  0  0  0  0  0  0  0  0  0
   -1.9218    7.2205   -3.0918 H   0  0  0  0  0  0  0  0  0  0  0  0
    3.4467   11.5589    0.0797 H   0  0  0  0  0  0  0  0  0  0  0  0
    3.5357   10.6186   -2.1434 H   0  0  0  0  0  0  0  0  0  0  0  0
    1.9984    9.7553   -1.9235 H   0  0  0  0  0  0  0  0  0  0  0  0
    2.3573   12.1460   -3.4463 H   0  0  0  0  0  0  0  0  0  0  0  0
    0.7893   11.5290   -2.9318 H   0  0  0  0  0  0  0  0  0  0  0  0
    3.4262   13.8908   -0.5799 H   0  0  0  0  0  0  0  0  0  0  0  0
    3.7828   13.0651   -2.1348 H   0  0  0  0  0  0  0  0  0  0  0  0
    2.9822   14.6731   -2.1348 H   0  0  0  0  0  0  0  0  0  0  0  0
   -0.3657   13.3793   -1.8813 H   0  0  0  0  0  0  0  0  0  0  0  0
    1.0765   14.1596   -3.8682 H   0  0  0  0  0  0  0  0  0  0  0  0
   -0.4522   15.0650   -3.3870 H   0  0  0  0  0  0  0  0  0  0  0  0
    1.6270   16.5487   -4.0346 H   0  0  0  0  0  0  0  0  0  0  0  0
    2.1210   15.8539   -0.0893 H   0  0  0  0  0  0  0  0  0  0  0  0
   -0.2536   17.8135   -0.2287 H   0  0  0  0  0  0  0  0  0  0  0  0
    0.4788   17.0892    1.2714 H   0  0  0  0  0  0  0  0  0  0  0  0
    1.1970   19.4291    0.9144 H   0  0  0  0  0  0  0  0  0  0  0  0
    2.5666   18.2520    0.8508 H   0  0  0  0  0  0  0  0  0  0  0  0
    2.8435   19.8530   -0.9156 H   0  0  0  0  0  0  0  0  0  0  0  0
    0.5940   20.4370   -1.0770 H   0  0  0  0  0  0  0  0  0  0  0  0
    4.0144   17.5642   -0.3711 H   0  0  0  0  0  0  0  0  0  0  0  0
    4.2280   16.5581   -1.8438 H   0  0  0  0  0  0  0  0  0  0  0  0
    4.7585   18.2743   -1.8438 H   0  0  0  0  0  0  0  0  0  0  0  0
    3.1716   19.6482   -3.2816 H   0  0  0  0  0  0  0  0  0  0  0  0
    3.5575   18.0182   -3.9306 H   0  0  0  0  0  0  0  0  0  0  0  0
    1.8601   18.6062   -3.9306 H   0  0  0  0  0  0  0  0  0  0  0  0
   -1.6690   15.6359    0.2862 H   0  0  0  0  0  0  0  0  0  0  0  0
   -1.2605   16.4472   -1.2635 H   0  0  0  0  0  0  0  0  0  0  0  0
   -1.8198   14.7402   -1.2635 H   0  0  0  0  0  0  0  0  0  0  0  0
    0.5313   15.0377    1.5775 H   0  0  0  0  0  0  0  0  0  0  0  0
   -0.6124   13.7365    0.9188 H   0  0  0  0  0  0  0  0  0  0  0  0
    2.4167   13.6794    0.9739 H   0  0  0  0  0  0  0  0  0  0  0  0
    1.2514   12.6314    1.8742 H   0  0  0  0  0  0  0  0  0  0  0  0
   -0.3031   11.3270    0.8482 H   0  0  0  0  0  0  0  0  0  0  0  0
   -0.7540   12.1046   -0.7070 H   0  0  0  0  0  0  0  0  0  0  0  0
    0.0845   10.5160   -0.7070 H   0  0  0  0  0  0  0  0  0  0  0  0
  1  2  1  0
  2  3  1  0
  3  4  1  0
  4  5  1  0
  5  6  1  0
  6  7  1  0
  7  8  1  0
  7  9  1  0
  2 10  1  0
 10 11  1  0
 11 12  1  0
 12 13  1  0
 13 14  1  1
 13 15  1  0
 15 16  1  0
 16 17  1  0
 17 18  2  0
 18 19  1  0
 19 20  1  0
 20 21  1  0
 21 22  1  0
 22 23  1  0
 22 24  1  0
 24 25  1  0
 24 26  1  0
 19 27  1  0
 27 28  1  6
 27 29  1  0
 29 30  1  0
 30 31  1  0
 31 32  1  6
  7  5  1  0
 31 10  1  0
 31 13  1  0
 27 15  1  0
 24 18  1  0
  1 33  1  0
  1 34  1  0
  1 35  1  0
  2 36  1  1
  3 37  1  0
  3 38  1  0
  4 39  1  0
  4 40  1  0
  5 41  1  6
  8 42  1  0
  8 43  1  0
  8 44  1  0
  9 45  1  0
  9 46  1  0
  9 47  1  0
 10 48  1  1
 11 49  1  0
 11 50  1  0
 12 51  1  0
 12 52  1  0
 14 53  1  0
 14 54  1  0
 14 55  1  0
 15 56  1  6
 16 57  1  0
 16 58  1  0
 17 59  1  0
 19 60  1  1
 20 61  1  0
 20 62  1  0
 21 63  1  0
 21 64  1  0
 22 65  1  1
 23 66  1  0
 25 67  1  0
 25 68  1  0
 25 69  1  0
 26 70  1  0
 26 71  1  0
 26 72  1  0
 28 73  1  0
 28 74  1  0
 28 75  1  0
 29 76  1  0
 29 77  1  0
 30 78  1  0
 30 79  1  0
 32 80  1  0
 32 81  1  0
 32 82  1  0
M  END
>  <meeko>  (16) 
{"is_sidechain": [false], "intermolecular_energy": 2.731, "internal_energy": -0.839}

$$$$
EPH_relaxed_0001_pdb2pqr_Repair_410_r2_0001_out
     RDKit          3D

 82 86  0  0  0  0  0  0  0  0999 V2000
    2.2860   18.1060   -2.6630 C   0  0  0  0  0  0  0  0  0  0  0  0
    1.0060   17.7020   -1.9260 C   0  0  2  0  0  0  0  0  0  0  0  0
    1.1830   17.7350   -0.3950 C   0  0  0  0  0  0  0  0  0  0  0  0
    0.8530   19.0910    0.2340 C   0  0  0  0  0  0  0  0  0  0  0  0
   -0.5910   19.1850    0.6230 C   0  0  2  0  0  0  0  0  0  0  0  0
   -1.4580   18.2750   -0.0670 O   0  0  0  0  0  0  0  0  0  0  0  0
   -1.6800   19.6730   -0.3140 C   0  0  0  0  0  0  0  0  0  0  0  0
   -1.3710   20.1000   -1.7140 C   0  0  0  0  0  0  0  0  0  0  0  0
   -2.9530   20.1950    0.2780 C   0  0  0  0  0  0  0  0  0  0  0  0
    0.5670   16.3120   -2.3700 C   0  0  1  0  0  0  0  0  0  0  0  0
    0.6390   16.1260   -3.9090 C   0  0  0  0  0  0  0  0  0  0  0  0
    1.0530   14.6540   -4.1640 C   0  0  0  0  0  0  0  0  0  0  0  0
    0.8830   13.9590   -2.7920 C   0  0  1  0  0  0  0  0  0  0  0  0
   -0.6420   13.6430   -2.6880 C   0  0  0  0  0  0  0  0  0  0  0  0
    1.7540   12.6820   -2.5520 C   0  0  2  0  0  0  0  0  0  0  0  0
    1.4700   11.5090   -3.5070 C   0  0  0  0  0  0  0  0  0  0  0  0
    0.4300   10.5450   -3.0400 C   0  0  0  0  0  0  0  0  0  0  0  0
   -0.0450   10.4540   -1.7840 C   0  0  0  0  0  0  0  0  0  0  0  0
    0.5410   11.3130   -0.6560 C   0  0  1  0  0  0  0  0  0  0  0  0
    0.8010   10.4250    0.5890 C   0  0  0  0  0  0  0  0  0  0  0  0
   -0.4400    9.6540    1.0280 C   0  0  0  0  0  0  0  0  0  0  0  0
   -0.9590    8.7680   -0.1020 C   0  0  2  0  0  0  0  0  0  0  0  0
    0.0010    7.7390   -0.3580 O   0  0  0  0  0  0  0  0  0  0  0  0
   -1.2470    9.5520   -1.4130 C   0  0  0  0  0  0  0  0  0  0  0  0
   -2.4900   10.4550   -1.2170 C   0  0  0  0  0  0  0  0  0  0  0  0
   -1.6280    8.5220   -2.5110 C   0  0  0  0  0  0  0  0  0  0  0  0
    1.7990   12.2030   -1.0450 C   0  0  1  0  0  0  0  0  0  0  0  0
    3.1090   11.3730   -0.8810 C   0  0  0  0  0  0  0  0  0  0  0  0
    1.9080   13.4070   -0.0370 C   0  0  0  0  0  0  0  0  0  0  0  0
    1.1190   14.6830   -0.3910 C   0  0  0  0  0  0  0  0  0  0  0  0
    1.3820   15.1050   -1.8390 C   0  0  2  0  0  0  0  0  0  0  0  0
    2.9040   15.4500   -1.9690 C   0  0  0  0  0  0  0  0  0  0  0  0
    3.0685   18.3530   -1.9304 H   0  0  0  0  0  0  0  0  0  0  0  0
    2.6248   17.2711   -3.2940 H   0  0  0  0  0  0  0  0  0  0  0  0
    2.0842   18.9841   -3.2940 H   0  0  0  0  0  0  0  0  0  0  0  0
    0.2293   18.4368   -2.1844 H   0  0  0  0  0  0  0  0  0  0  0  0
    0.5205   16.9766    0.0475 H   0  0  0  0  0  0  0  0  0  0  0  0
    2.2452   17.5358   -0.1900 H   0  0  0  0  0  0  0  0  0  0  0  0
    1.4737   19.2280    1.1318 H   0  0  0  0  0  0  0  0  0  0  0  0
    1.0590   19.8737   -0.5109 H   0  0  0  0  0  0  0  0  0  0  0  0
   -0.3197   19.4692    1.6504 H   0  0  0  0  0  0  0  0  0  0  0  0
   -0.7263   20.9910   -1.6917 H   0  0  0  0  0  0  0  0  0  0  0  0
   -0.8522   19.2850   -2.2399 H   0  0  0  0  0  0  0  0  0  0  0  0
   -2.3074   20.3381   -2.2399 H   0  0  0  0  0  0  0  0  0  0  0  0
   -2.8854   20.1673    1.3756 H   0  0  0  0  0  0  0  0  0  0  0  0
   -3.1135   21.2315   -0.0534 H   0  0  0  0  0  0  0  0  0  0  0  0
   -3.7950   19.5695   -0.0534 H   0  0  0  0  0  0  0  0  0  0  0  0
   -0.4485   16.2958   -1.9476 H   0  0  0  0  0  0  0  0  0  0  0  0
   -0.3436   16.3266   -4.3610 H   0  0  0  0  0  0  0  0  0  0  0  0
    1.3629   16.8226   -4.3571 H   0  0  0  0  0  0  0  0  0  0  0  0
    0.3988   14.1913   -4.9177 H   0  0  0  0  0  0  0  0  0  0  0  0
    2.0794   14.5697   -4.5506 H   0  0  0  0  0  0  0  0  0  0  0  0
   -0.9326   13.5828   -1.6288 H   0  0  0  0  0  0  0  0  0  0  0  0
   -1.2163   14.4412   -3.1810 H   0  0  0  0  0  0  0  0  0  0  0  0
   -0.8518   12.6823   -3.1810 H   0  0  0  0  0  0  0  0  0  0  0  0
    2.7647   13.0345   -2.8053 H   0  0  0  0  0  0  0  0  0  0  0  0
    1.1391   11.9265   -4.4694 H   0  0  0  0  0  0  0  0  0  0  0  0
    2.4072   10.9371   -3.5744 H   0  0  0  0  0  0  0  0  0  0  0  0
    0.0168    9.8500   -3.7859 H   0  0  0  0  0  0  0  0  0  0  0  0
   -0.2221   12.0698   -0.4215 H   0  0  0  0  0  0  0  0  0  0  0  0
    1.5967    9.7046    0.3482 H   0  0  0  0  0  0  0  0  0  0  0  0
    1.0919   11.0883    1.4169 H   0  0  0  0  0  0  0  0  0  0  0  0
   -0.1850    9.0231    1.8922 H   0  0  0  0  0  0  0  0  0  0  0  0
   -1.2251   10.3758    1.2976 H   0  0  0  0  0  0  0  0  0  0  0  0
   -1.9192    8.3433    0.2262 H   0  0  0  0  0  0  0  0  0  0  0  0
    0.1310    7.6900   -1.3200 H   0  0  0  0  0  0  0  0  0  0  0  0
   -2.6781   10.5916   -0.1418 H   0  0  0  0  0  0  0  0  0  0  0  0
   -2.3095   11.4340   -1.6850 H   0  0  0  0  0  0  0  0  0  0  0  0
   -3.3652    9.9807   -1.6850 H   0  0  0  0  0  0  0  0  0  0  0  0
   -1.9723    7.5911   -2.0368 H   0  0  0  0  0  0  0  0  0  0  0  0
   -2.4331    8.9343   -3.1370 H   0  0  0  0  0  0  0  0  0  0  0  0
   -0.7484    8.3111   -3.1370 H   0  0  0  0  0  0  0  0  0  0  0  0
    3.3249   11.2362    0.1889 H   0  0  0  0  0  0  0  0  0  0  0  0
    2.9824   10.3900   -1.3581 H   0  0  0  0  0  0  0  0  0  0  0  0
    3.9438   11.9073   -1.3581 H   0  0  0  0  0  0  0  0  0  0  0  0
    1.5500   13.0551    0.9418 H   0  0  0  0  0  0  0  0  0  0  0  0
    2.9661   13.7070   -0.0600 H   0  0  0  0  0  0  0  0  0  0  0  0
    0.0440   14.4888   -0.2622 H   0  0  0  0  0  0  0  0  0  0  0  0
    1.4460   15.4943    0.2760 H   0  0  0  0  0  0  0  0  0  0  0  0
    3.3443   15.5498   -0.9659 H   0  0  0  0  0  0  0  0  0  0  0  0
    3.4169   14.6453   -2.5162 H   0  0  0  0  0  0  0  0  0  0  0  0
    3.0198   16.3972   -2.5162 H   0  0  0  0  0  0  0  0  0  0  0  0
  1  2  1  0
  2  3  1  0
  3  4  1  0
  4  5  1  0
  5  6  1  0
  6  7  1  0
  7  8  1  0
  7  9  1  0
  2 10  1  0
 10 11  1  0
 11 12  1  0
 12 13  1  0
 13 14  1  1
 13 15  1  0
 15 16  1  0
 16 17  1  0
 17 18  2  0
 18 19  1  0
 19 20  1  0
 20 21  1  0
 21 22  1  0
 22 23  1  0
 22 24  1  0
 24 25  1  0
 24 26  1  0
 19 27  1  0
 27 28  1  6
 27 29  1  0
 29 30  1  0
 30 31  1  0
 31 32  1  1
  7  5  1  0
 31 10  1  0
 31 13  1  0
 27 15  1  0
 24 18  1  0
  1 33  1  0
  1 34  1  0
  1 35  1  0
  2 36  1  1
  3 37  1  0
  3 38  1  0
  4 39  1  0
  4 40  1  0
  5 41  1  1
  8 42  1  0
  8 43  1  0
  8 44  1  0
  9 45  1  0
  9 46  1  0
  9 47  1  0
 10 48  1  1
 11 49  1  0
 11 50  1  0
 12 51  1  0
 12 52  1  0
 14 53  1  0
 14 54  1  0
 14 55  1  0
 15 56  1  6
 16 57  1  0
 16 58  1  0
 17 59  1  0
 19 60  1  1
 20 61  1  0
 20 62  1  0
 21 63  1  0
 21 64  1  0
 22 65  1  1
 23 66  1  0
 25 67  1  0
 25 68  1  0
 25 69  1  0
 26 70  1  0
 26 71  1  0
 26 72  1  0
 28 73  1  0
 28 74  1  0
 28 75  1  0
 29 76  1  0
 29 77  1  0
 30 78  1  0
 30 79  1  0
 32 80  1  0
 32 81  1  0
 32 82  1  0
M  END
>  <meeko>  (17) 
{"is_sidechain": [false], "intermolecular_energy": 2.731, "internal_energy": -0.839}

$$$$
