EPH_relaxed_0001_pdb2pqr_Repair_303_r2_0001_out
     RDKit          3D

 82 86  0  0  0  0  0  0  0  0999 V2000
   -5.1090    8.5640    0.0070 C   0  0  0  0  0  0  0  0  0  0  0  0
   -5.2490    7.6770   -1.2340 C   0  0  2  0  0  0  0  0  0  0  0  0
   -4.1860    8.0030   -2.3020 C   0  0  0  0  0  0  0  0  0  0  0  0
   -2.7550    7.6830   -1.8640 C   0  0  0  0  0  0  0  0  0  0  0  0
   -2.2320    8.7000   -0.8940 C   0  0  2  0  0  0  0  0  0  0  0  0
   -2.2860   10.0540   -1.3590 O   0  0  0  0  0  0  0  0  0  0  0  0
   -0.9750    9.5140   -1.1320 C   0  0  0  0  0  0  0  0  0  0  0  0
   -0.1610    9.3480   -2.3770 C   0  0  0  0  0  0  0  0  0  0  0  0
   -0.2740   10.1100    0.0490 C   0  0  0  0  0  0  0  0  0  0  0  0
   -6.6460    7.8280   -1.8250 C   0  0  1  0  0  0  0  0  0  0  0  0
   -6.7860    7.1390   -3.2090 C   0  0  0  0  0  0  0  0  0  0  0  0
   -8.2300    6.5800   -3.2860 C   0  0  0  0  0  0  0  0  0  0  0  0
   -8.9690    7.2450   -2.1010 C   0  0  1  0  0  0  0  0  0  0  0  0
   -9.3580    8.6660   -2.6160 C   0  0  0  0  0  0  0  0  0  0  0  0
  -10.2100    6.4750   -1.5410 C   0  0  2  0  0  0  0  0  0  0  0  0
  -11.3680    6.2920   -2.5370 C   0  0  0  0  0  0  0  0  0  0  0  0
  -12.3920    7.3780   -2.5310 C   0  0  0  0  0  0  0  0  0  0  0  0
  -12.5390    8.3090   -1.5690 C   0  0  0  0  0  0  0  0  0  0  0  0
  -11.6850    8.2680   -0.2960 C   0  0  1  0  0  0  0  0  0  0  0  0
  -12.5930    8.4780    0.9440 C   0  0  0  0  0  0  0  0  0  0  0  0
  -13.4320    9.7490    0.8450 C   0  0  0  0  0  0  0  0  0  0  0  0
  -14.3110    9.7260   -0.4030 C   0  0  2  0  0  0  0  0  0  0  0  0
  -15.2870    8.6900   -0.2610 O   0  0  0  0  0  0  0  0  0  0  0  0
  -13.5060    9.5100   -1.7150 C   0  0  0  0  0  0  0  0  0  0  0  0
  -12.6680   10.7740   -2.0260 C   0  0  0  0  0  0  0  0  0  0  0  0
  -14.5220    9.3650   -2.8800 C   0  0  0  0  0  0  0  0  0  0  0  0
  -10.7270    7.0080   -0.1440 C   0  0  1  0  0  0  0  0  0  0  0  0
  -11.5000    5.8300    0.5240 C   0  0  0  0  0  0  0  0  0  0  0  0
   -9.5470    7.3750    0.8310 C   0  0  0  0  0  0  0  0  0  0  0  0
   -8.3000    8.0240    0.2000 C   0  0  0  0  0  0  0  0  0  0  0  0
   -7.8270    7.2290   -1.0210 C   0  0  2  0  0  0  0  0  0  0  0  0
   -7.4080    5.8020   -0.5290 C   0  0  0  0  0  0  0  0  0  0  0  0
   -5.2065    7.9464    0.9120 H   0  0  0  0  0  0  0  0  0  0  0  0
   -4.1228    9.0513    0.0001 H   0  0  0  0  0  0  0  0  0  0  0  0
   -5.8972    9.3313    0.0001 H   0  0  0  0  0  0  0  0  0  0  0  0
   -5.0903    6.6355   -0.9176 H   0  0  0  0  0  0  0  0  0  0  0  0
   -4.4114    7.4182   -3.2060 H   0  0  0  0  0  0  0  0  0  0  0  0
   -4.2323    9.0874   -2.4809 H   0  0  0  0  0  0  0  0  0  0  0  0
   -2.7418    6.6931   -1.3845 H   0  0  0  0  0  0  0  0  0  0  0  0
   -2.1117    7.6972   -2.7562 H   0  0  0  0  0  0  0  0  0  0  0  0
   -2.5667    8.0921   -0.0405 H   0  0  0  0  0  0  0  0  0  0  0  0
    0.8837    9.1350   -2.1064 H   0  0  0  0  0  0  0  0  0  0  0  0
   -0.5637    8.5135   -2.9698 H   0  0  0  0  0  0  0  0  0  0  0  0
   -0.2048   10.2736   -2.9698 H   0  0  0  0  0  0  0  0  0  0  0  0
   -0.7256    9.7260    0.9756 H   0  0  0  0  0  0  0  0  0  0  0  0
    0.7911    9.8367    0.0196 H   0  0  0  0  0  0  0  0  0  0  0  0
   -0.3724   11.2052    0.0196 H   0  0  0  0  0  0  0  0  0  0  0  0
   -6.7215    8.9253   -1.8429 H   0  0  0  0  0  0  0  0  0  0  0  0
   -6.6190    7.8694   -4.0144 H   0  0  0  0  0  0  0  0  0  0  0  0
   -6.0444    6.3352   -3.3270 H   0  0  0  0  0  0  0  0  0  0  0  0
   -8.7021    6.8538   -4.2411 H   0  0  0  0  0  0  0  0  0  0  0  0
   -8.2559    5.4817   -3.2306 H   0  0  0  0  0  0  0  0  0  0  0  0
   -9.5397    9.3299   -1.7580 H   0  0  0  0  0  0  0  0  0  0  0  0
   -8.5379    9.0720   -3.2265 H   0  0  0  0  0  0  0  0  0  0  0  0
  -10.2705    8.5977   -3.2265 H   0  0  0  0  0  0  0  0  0  0  0  0
   -9.8041    5.4675   -1.3673 H   0  0  0  0  0  0  0  0  0  0  0  0
  -10.9401    6.2339   -3.5487 H   0  0  0  0  0  0  0  0  0  0  0  0
  -11.8936    5.3766   -2.2276 H   0  0  0  0  0  0  0  0  0  0  0  0
  -13.0849    7.4216   -3.3842 H   0  0  0  0  0  0  0  0  0  0  0  0
  -10.9716    9.1009   -0.3817 H   0  0  0  0  0  0  0  0  0  0  0  0
  -13.2691    7.6152    1.0364 H   0  0  0  0  0  0  0  0  0  0  0  0
  -11.9401    8.5760    1.8238 H   0  0  0  0  0  0  0  0  0  0  0  0
  -14.0730    9.8276    1.7355 H   0  0  0  0  0  0  0  0  0  0  0  0
  -12.7544   10.6132    0.7816 H   0  0  0  0  0  0  0  0  0  0  0  0
  -14.7896   10.7128   -0.4875 H   0  0  0  0  0  0  0  0  0  0  0  0
  -16.0770    9.0830    0.1470 H   0  0  0  0  0  0  0  0  0  0  0  0
  -12.3544   11.2470   -1.0837 H   0  0  0  0  0  0  0  0  0  0  0  0
  -11.7785   10.4903   -2.6076 H   0  0  0  0  0  0  0  0  0  0  0  0
  -13.2757   11.4828   -2.6076 H   0  0  0  0  0  0  0  0  0  0  0  0
  -15.5323    9.2208   -2.4696 H   0  0  0  0  0  0  0  0  0  0  0  0
  -14.5036   10.2749   -3.4979 H   0  0  0  0  0  0  0  0  0  0  0  0
  -14.2499    8.4966   -3.4979 H   0  0  0  0  0  0  0  0  0  0  0  0
  -11.4380    5.9245    1.6182 H   0  0  0  0  0  0  0  0  0  0  0  0
  -12.5546    5.8600    0.2125 H   0  0  0  0  0  0  0  0  0  0  0  0
  -11.0527    4.8745    0.2125 H   0  0  0  0  0  0  0  0  0  0  0  0
   -9.9418    8.0745    1.5826 H   0  0  0  0  0  0  0  0  0  0  0  0
   -9.1976    6.4132    1.2345 H   0  0  0  0  0  0  0  0  0  0  0  0
   -8.5468    9.0496   -0.1118 H   0  0  0  0  0  0  0  0  0  0  0  0
   -7.4928    8.0327    0.9473 H   0  0  0  0  0  0  0  0  0  0  0  0
   -7.4017    5.7805    0.5708 H   0  0  0  0  0  0  0  0  0  0  0  0
   -8.1258    5.0587   -0.9061 H   0  0  0  0  0  0  0  0  0  0  0  0
   -6.4023    5.5648   -0.9061 H   0  0  0  0  0  0  0  0  0  0  0  0
  1  2  1  0
  2  3  1  0
  3  4  1  0
  4  5  1  0
  5  6  1  0
  6  7  1  0
  7  8  1  0
  7  9  1  0
  2 10  1  0
 10 11  1  0
 11 12  1  0
 12 13  1  0
 13 14  1  6
 13 15  1  0
 15 16  1  0
 16 17  1  0
 17 18  2  0
 18 19  1  0
 19 20  1  0
 20 21  1  0
 21 22  1  0
 22 23  1  0
 22 24  1  0
 24 25  1  0
 24 26  1  0
 19 27  1  0
 27 28  1  1
 27 29  1  0
 29 30  1  0
 30 31  1  0
 31 32  1  1
  7  5  1  0
 31 10  1  0
 31 13  1  0
 27 15  1  0
 24 18  1  0
  1 33  1  0
  1 34  1  0
  1 35  1  0
  2 36  1  1
  3 37  1  0
  3 38  1  0
  4 39  1  0
  4 40  1  0
  5 41  1  1
  8 42  1  0
  8 43  1  0
  8 44  1  0
  9 45  1  0
  9 46  1  0
  9 47  1  0
 10 48  1  6
 11 49  1  0
 11 50  1  0
 12 51  1  0
 12 52  1  0
 14 53  1  0
 14 54  1  0
 14 55  1  0
 15 56  1  1
 16 57  1  0
 16 58  1  0
 17 59  1  0
 19 60  1  6
 20 61  1  0
 20 62  1  0
 21 63  1  0
 21 64  1  0
 22 65  1  6
 23 66  1  0
 25 67  1  0
 25 68  1  0
 25 69  1  0
 26 70  1  0
 26 71  1  0
 26 72  1  0
 28 73  1  0
 28 74  1  0
 28 75  1  0
 29 76  1  0
 29 77  1  0
 30 78  1  0
 30 79  1  0
 32 80  1  0
 32 81  1  0
 32 82  1  0
M  END
>  <meeko>  (1) 
{"is_sidechain": [false], "intermolecular_energy": 2.731, "internal_energy": -0.839}

$$$$
EPH_relaxed_0001_pdb2pqr_Repair_303_r2_0001_out
     RDKit          3D

 82 86  0  0  0  0  0  0  0  0999 V2000
   -4.3250    7.5120   -3.7960 C   0  0  0  0  0  0  0  0  0  0  0  0
   -3.8280    7.2260   -2.3760 C   0  0  2  0  0  0  0  0  0  0  0  0
   -4.9280    6.6080   -1.4900 C   0  0  0  0  0  0  0  0  0  0  0  0
   -6.3090    6.5810   -2.1510 C   0  0  0  0  0  0  0  0  0  0  0  0
   -7.4030    6.4040   -1.1420 C   0  0  2  0  0  0  0  0  0  0  0  0
   -8.5020    5.5980   -1.5860 O   0  0  0  0  0  0  0  0  0  0  0  0
   -8.7980    6.9770   -1.3110 C   0  0  0  0  0  0  0  0  0  0  0  0
   -9.1730    7.7720   -2.5220 C   0  0  0  0  0  0  0  0  0  0  0  0
   -9.6400    7.1810   -0.0900 C   0  0  0  0  0  0  0  0  0  0  0  0
   -3.3070    8.5100   -1.7400 C   0  0  1  0  0  0  0  0  0  0  0  0
   -3.9780    8.8140   -0.3740 C   0  0  0  0  0  0  0  0  0  0  0  0
   -2.8950    9.4730    0.5190 C   0  0  0  0  0  0  0  0  0  0  0  0
   -1.7480    9.8280   -0.4570 C   0  0  1  0  0  0  0  0  0  0  0  0
   -2.1910   11.1660   -1.1260 C   0  0  0  0  0  0  0  0  0  0  0  0
   -0.3200    9.9390    0.1680 C   0  0  2  0  0  0  0  0  0  0  0  0
   -0.1530   11.0480    1.2230 C   0  0  0  0  0  0  0  0  0  0  0  0
    0.2810   12.3730    0.6920 C   0  0  0  0  0  0  0  0  0  0  0  0
    0.8020   12.5940   -0.5300 C   0  0  0  0  0  0  0  0  0  0  0  0
    1.0900   11.4290   -1.4850 C   0  0  1  0  0  0  0  0  0  0  0  0
    2.5050   11.6000   -2.0980 C   0  0  0  0  0  0  0  0  0  0  0  0
    2.6950   12.9600   -2.7620 C   0  0  0  0  0  0  0  0  0  0  0  0
    2.4570   14.0910   -1.7660 C   0  0  2  0  0  0  0  0  0  0  0  0
    3.4870   14.0570   -0.7730 O   0  0  0  0  0  0  0  0  0  0  0  0
    1.0650   14.0190   -1.0770 C   0  0  0  0  0  0  0  0  0  0  0  0
   -0.0430   14.3570   -2.1050 C   0  0  0  0  0  0  0  0  0  0  0  0
    1.0090   15.1320    0.0040 C   0  0  0  0  0  0  0  0  0  0  0  0
    0.8520    9.9730   -0.8950 C   0  0  1  0  0  0  0  0  0  0  0  0
    2.1360    9.4810   -0.1580 C   0  0  0  0  0  0  0  0  0  0  0  0
    0.6100    8.9690   -2.0830 C   0  0  0  0  0  0  0  0  0  0  0  0
   -0.8410    8.8140   -2.5770 C   0  0  0  0  0  0  0  0  0  0  0  0
   -1.7960    8.5740   -1.4040 C   0  0  2  0  0  0  0  0  0  0  0  0
   -1.3900    7.2220   -0.7240 C   0  0  0  0  0  0  0  0  0  0  0  0
   -5.2775    8.0601   -3.7477 H   0  0  0  0  0  0  0  0  0  0  0  0
   -3.5793    8.1191   -4.3302 H   0  0  0  0  0  0  0  0  0  0  0  0
   -4.4752    6.5622   -4.3302 H   0  0  0  0  0  0  0  0  0  0  0  0
   -3.0131    6.4910   -2.4516 H   0  0  0  0  0  0  0  0  0  0  0  0
   -4.6389    5.5747   -1.2477 H   0  0  0  0  0  0  0  0  0  0  0  0
   -5.0128    7.2414   -0.5947 H   0  0  0  0  0  0  0  0  0  0  0  0
   -6.4670    7.5293   -2.6855 H   0  0  0  0  0  0  0  0  0  0  0  0
   -6.3407    5.7277   -2.8445 H   0  0  0  0  0  0  0  0  0  0  0  0
   -6.6801    6.4544   -0.3145 H   0  0  0  0  0  0  0  0  0  0  0  0
   -9.6229    8.7259   -2.2095 H   0  0  0  0  0  0  0  0  0  0  0  0
   -8.2735    7.9704   -3.1233 H   0  0  0  0  0  0  0  0  0  0  0  0
   -9.8982    7.2041   -3.1233 H   0  0  0  0  0  0  0  0  0  0  0  0
   -9.0242    7.0318    0.8092 H   0  0  0  0  0  0  0  0  0  0  0  0
  -10.0457    8.2034   -0.0910 H   0  0  0  0  0  0  0  0  0  0  0  0
  -10.4687    6.4577   -0.0910 H   0  0  0  0  0  0  0  0  0  0  0  0
   -3.5445    9.2240   -2.5424 H   0  0  0  0  0  0  0  0  0  0  0  0
   -4.8249    9.5021   -0.5127 H   0  0  0  0  0  0  0  0  0  0  0  0
   -4.3661    7.8947    0.0889 H   0  0  0  0  0  0  0  0  0  0  0  0
   -3.2887   10.3796    1.0019 H   0  0  0  0  0  0  0  0  0  0  0  0
   -2.5621    8.8088    1.3302 H   0  0  0  0  0  0  0  0  0  0  0  0
   -2.4349   11.9026   -0.3463 H   0  0  0  0  0  0  0  0  0  0  0  0
   -1.3726   11.5517   -1.7517 H   0  0  0  0  0  0  0  0  0  0  0  0
   -3.0779   10.9871   -1.7517 H   0  0  0  0  0  0  0  0  0  0  0  0
   -0.2283    8.9892    0.7152 H   0  0  0  0  0  0  0  0  0  0  0  0
   -1.1204   11.1847    1.7284 H   0  0  0  0  0  0  0  0  0  0  0  0
    0.6510   10.7110    1.8939 H   0  0  0  0  0  0  0  0  0  0  0  0
    0.1656   13.2432    1.3549 H   0  0  0  0  0  0  0  0  0  0  0  0
    0.3298   11.4906   -2.2776 H   0  0  0  0  0  0  0  0  0  0  0  0
    3.2515   11.4912   -1.2974 H   0  0  0  0  0  0  0  0  0  0  0  0
    2.6278   10.8299   -2.8738 H   0  0  0  0  0  0  0  0  0  0  0  0
    3.7222   13.0313   -3.1490 H   0  0  0  0  0  0  0  0  0  0  0  0
    1.9677   13.0552   -3.5817 H   0  0  0  0  0  0  0  0  0  0  0  0
    2.4798   15.0354   -2.3296 H   0  0  0  0  0  0  0  0  0  0  0  0
    4.1040   13.3450   -1.0140 H   0  0  0  0  0  0  0  0  0  0  0  0
   -0.9637   14.6379   -1.5727 H   0  0  0  0  0  0  0  0  0  0  0  0
    0.2860   15.1957   -2.7362 H   0  0  0  0  0  0  0  0  0  0  0  0
   -0.2382   13.4775   -2.7362 H   0  0  0  0  0  0  0  0  0  0  0  0
    1.0321   14.6737    1.0037 H   0  0  0  0  0  0  0  0  0  0  0  0
    1.8746   15.8006   -0.1129 H   0  0  0  0  0  0  0  0  0  0  0  0
    0.0806   15.7103   -0.1129 H   0  0  0  0  0  0  0  0  0  0  0  0
    1.9803    9.5407    0.9293 H   0  0  0  0  0  0  0  0  0  0  0  0
    2.3452    8.4390   -0.4418 H   0  0  0  0  0  0  0  0  0  0  0  0
    2.9879   10.1164   -0.4418 H   0  0  0  0  0  0  0  0  0  0  0  0
    1.2170    9.3091   -2.9350 H   0  0  0  0  0  0  0  0  0  0  0  0
    0.8858    7.9811   -1.6856 H   0  0  0  0  0  0  0  0  0  0  0  0
   -1.1417    9.7314   -3.1041 H   0  0  0  0  0  0  0  0  0  0  0  0
   -0.8910    7.9478   -3.2532 H   0  0  0  0  0  0  0  0  0  0  0  0
   -1.4244    7.3367    0.3695 H   0  0  0  0  0  0  0  0  0  0  0  0
   -2.0905    6.4318   -1.0320 H   0  0  0  0  0  0  0  0  0  0  0  0
   -0.3701    6.9484   -1.0320 H   0  0  0  0  0  0  0  0  0  0  0  0
  1  2  1  0
  2  3  1  0
  3  4  1  0
  4  5  1  0
  5  6  1  0
  6  7  1  0
  7  8  1  0
  7  9  1  0
  2 10  1  0
 10 11  1  0
 11 12  1  0
 12 13  1  0
 13 14  1  6
 13 15  1  0
 15 16  1  0
 16 17  1  0
 17 18  2  0
 18 19  1  0
 19 20  1  0
 20 21  1  0
 21 22  1  0
 22 23  1  0
 22 24  1  0
 24 25  1  0
 24 26  1  0
 19 27  1  0
 27 28  1  1
 27 29  1  0
 29 30  1  0
 30 31  1  0
 31 32  1  1
  7  5  1  0
 31 10  1  0
 31 13  1  0
 27 15  1  0
 24 18  1  0
  1 33  1  0
  1 34  1  0
  1 35  1  0
  2 36  1  6
  3 37  1  0
  3 38  1  0
  4 39  1  0
  4 40  1  0
  5 41  1  1
  8 42  1  0
  8 43  1  0
  8 44  1  0
  9 45  1  0
  9 46  1  0
  9 47  1  0
 10 48  1  6
 11 49  1  0
 11 50  1  0
 12 51  1  0
 12 52  1  0
 14 53  1  0
 14 54  1  0
 14 55  1  0
 15 56  1  1
 16 57  1  0
 16 58  1  0
 17 59  1  0
 19 60  1  6
 20 61  1  0
 20 62  1  0
 21 63  1  0
 21 64  1  0
 22 65  1  6
 23 66  1  0
 25 67  1  0
 25 68  1  0
 25 69  1  0
 26 70  1  0
 26 71  1  0
 26 72  1  0
 28 73  1  0
 28 74  1  0
 28 75  1  0
 29 76  1  0
 29 77  1  0
 30 78  1  0
 30 79  1  0
 32 80  1  0
 32 81  1  0
 32 82  1  0
M  END
>  <meeko>  (2) 
{"is_sidechain": [false], "intermolecular_energy": 2.731, "internal_energy": -0.839}

$$$$
EPH_relaxed_0001_pdb2pqr_Repair_303_r2_0001_out
     RDKit          3D

 82 86  0  0  0  0  0  0  0  0999 V2000
   -4.7930    6.9530   -2.9700 C   0  0  0  0  0  0  0  0  0  0  0  0
   -5.2360    7.5270   -1.6210 C   0  0  2  0  0  0  0  0  0  0  0  0
   -6.7270    7.9190   -1.6180 C   0  0  0  0  0  0  0  0  0  0  0  0
   -7.6740    6.7350   -1.4020 C   0  0  0  0  0  0  0  0  0  0  0  0
   -8.4880    6.8960   -0.1540 C   0  0  2  0  0  0  0  0  0  0  0  0
   -9.5610    5.9560   -0.0130 O   0  0  0  0  0  0  0  0  0  0  0  0
   -9.9410    7.3340   -0.1540 C   0  0  0  0  0  0  0  0  0  0  0  0
  -10.6640    7.6400   -1.4280 C   0  0  0  0  0  0  0  0  0  0  0  0
  -10.5060    7.9340    1.0960 C   0  0  0  0  0  0  0  0  0  0  0  0
   -4.3790    8.7360   -1.2650 C   0  0  1  0  0  0  0  0  0  0  0  0
   -4.8370    9.4270    0.0470 C   0  0  0  0  0  0  0  0  0  0  0  0
   -3.5560    9.9490    0.7480 C   0  0  0  0  0  0  0  0  0  0  0  0
   -2.4510    9.8400   -0.3280 C   0  0  1  0  0  0  0  0  0  0  0  0
   -2.6320   11.1080   -1.2190 C   0  0  0  0  0  0  0  0  0  0  0  0
   -0.9840    9.7090    0.1990 C   0  0  2  0  0  0  0  0  0  0  0  0
   -0.4740   10.9100    1.0150 C   0  0  0  0  0  0  0  0  0  0  0  0
    0.2040   11.9770    0.2220 C   0  0  0  0  0  0  0  0  0  0  0  0
    0.6500   11.8500   -1.0420 C   0  0  0  0  0  0  0  0  0  0  0  0
    0.5760   10.5020   -1.7700 C   0  0  1  0  0  0  0  0  0  0  0  0
    1.9320   10.2160   -2.4680 C   0  0  0  0  0  0  0  0  0  0  0  0
    2.3690   11.3520   -3.3870 C   0  0  0  0  0  0  0  0  0  0  0  0
    2.4870   12.6640   -2.6140 C   0  0  2  0  0  0  0  0  0  0  0  0
    3.5660   12.5530   -1.6810 O   0  0  0  0  0  0  0  0  0  0  0  0
    1.1830   13.0510   -1.8610 C   0  0  0  0  0  0  0  0  0  0  0  0
    0.0950   13.4630   -2.8830 C   0  0  0  0  0  0  0  0  0  0  0  0
    1.4810   14.3150   -1.0100 C   0  0  0  0  0  0  0  0  0  0  0  0
    0.0640    9.2720   -0.9040 C   0  0  1  0  0  0  0  0  0  0  0  0
    1.2610    8.6200   -0.1460 C   0  0  0  0  0  0  0  0  0  0  0  0
   -0.5080    8.1660   -1.8680 C   0  0  0  0  0  0  0  0  0  0  0  0
   -1.9940    8.2840   -2.2560 C   0  0  0  0  0  0  0  0  0  0  0  0
   -2.8700    8.4900   -1.0170 C   0  0  2  0  0  0  0  0  0  0  0  0
   -2.7250    7.2200   -0.1110 C   0  0  0  0  0  0  0  0  0  0  0  0
   -4.1288    6.0924   -2.8020 H   0  0  0  0  0  0  0  0  0  0  0  0
   -5.6770    6.6284   -3.5385 H   0  0  0  0  0  0  0  0  0  0  0  0
   -4.2550    7.7259   -3.5385 H   0  0  0  0  0  0  0  0  0  0  0  0
   -5.1007    6.7392   -0.8653 H   0  0  0  0  0  0  0  0  0  0  0  0
   -6.8928    8.6481   -0.8112 H   0  0  0  0  0  0  0  0  0  0  0  0
   -6.9524    8.3341   -2.6114 H   0  0  0  0  0  0  0  0  0  0  0  0
   -8.3537    6.6605   -2.2637 H   0  0  0  0  0  0  0  0  0  0  0  0
   -7.0659    5.8242   -1.2993 H   0  0  0  0  0  0  0  0  0  0  0  0
   -7.6088    7.2548    0.4012 H   0  0  0  0  0  0  0  0  0  0  0  0
  -11.6542    8.0591   -1.1961 H   0  0  0  0  0  0  0  0  0  0  0  0
  -10.0845    8.3700   -2.0122 H   0  0  0  0  0  0  0  0  0  0  0  0
  -10.7847    6.7158   -2.0122 H   0  0  0  0  0  0  0  0  0  0  0  0
  -10.0508    7.4506    1.9730 H   0  0  0  0  0  0  0  0  0  0  0  0
  -10.2873    9.0118    1.1167 H   0  0  0  0  0  0  0  0  0  0  0  0
  -11.5950    7.7804    1.1167 H   0  0  0  0  0  0  0  0  0  0  0  0
   -4.5171    9.3350   -2.1772 H   0  0  0  0  0  0  0  0  0  0  0  0
   -5.5119   10.2649   -0.1818 H   0  0  0  0  0  0  0  0  0  0  0  0
   -5.3830    8.7245    0.6938 H   0  0  0  0  0  0  0  0  0  0  0  0
   -3.6860   10.9937    1.0668 H   0  0  0  0  0  0  0  0  0  0  0  0
   -3.3134    9.3756    1.6548 H   0  0  0  0  0  0  0  0  0  0  0  0
   -2.7582   11.9923   -0.5770 H   0  0  0  0  0  0  0  0  0  0  0  0
   -1.7436   11.2398   -1.8541 H   0  0  0  0  0  0  0  0  0  0  0  0
   -3.5218   10.9859   -1.8541 H   0  0  0  0  0  0  0  0  0  0  0  0
   -1.0628    8.8755    0.9125 H   0  0  0  0  0  0  0  0  0  0  0  0
   -1.3353   11.3629    1.5279 H   0  0  0  0  0  0  0  0  0  0  0  0
    0.2871   10.5106    1.7015 H   0  0  0  0  0  0  0  0  0  0  0  0
    0.3520   12.9506    0.7121 H   0  0  0  0  0  0  0  0  0  0  0  0
   -0.2179   10.6072   -2.5241 H   0  0  0  0  0  0  0  0  0  0  0  0
    2.7021   10.0711   -1.6960 H   0  0  0  0  0  0  0  0  0  0  0  0
    1.8048    9.3161   -3.0876 H   0  0  0  0  0  0  0  0  0  0  0  0
    3.3464   11.1039   -3.8266 H   0  0  0  0  0  0  0  0  0  0  0  0
    1.6129   11.4760   -4.1763 H   0  0  0  0  0  0  0  0  0  0  0  0
    2.6750   13.4630   -3.3463 H   0  0  0  0  0  0  0  0  0  0  0  0
    3.2250   12.8010   -0.8050 H   0  0  0  0  0  0  0  0  0  0  0  0
   -0.8027   13.8029   -2.3458 H   0  0  0  0  0  0  0  0  0  0  0  0
    0.4755   14.2793   -3.5146 H   0  0  0  0  0  0  0  0  0  0  0  0
   -0.1606   12.5994   -3.5146 H   0  0  0  0  0  0  0  0  0  0  0  0
    1.4209   14.0602    0.0584 H   0  0  0  0  0  0  0  0  0  0  0  0
    2.4908   14.6840   -1.2427 H   0  0  0  0  0  0  0  0  0  0  0  0
    0.7424   15.0962   -1.2427 H   0  0  0  0  0  0  0  0  0  0  0  0
    1.0998    8.7078    0.9386 H   0  0  0  0  0  0  0  0  0  0  0  0
    1.3341    7.5574   -0.4210 H   0  0  0  0  0  0  0  0  0  0  0  0
    2.1933    9.1349   -0.4210 H   0  0  0  0  0  0  0  0  0  0  0  0
    0.0817    8.1961   -2.7961 H   0  0  0  0  0  0  0  0  0  0  0  0
   -0.4317    7.2248   -1.3037 H   0  0  0  0  0  0  0  0  0  0  0  0
   -2.1219    9.1411   -2.9335 H   0  0  0  0  0  0  0  0  0  0  0  0
   -2.3019    7.3516   -2.7518 H   0  0  0  0  0  0  0  0  0  0  0  0
   -2.7591    7.5186    0.9471 H   0  0  0  0  0  0  0  0  0  0  0  0
   -3.5494    6.5230   -0.3220 H   0  0  0  0  0  0  0  0  0  0  0  0
   -1.7647    6.7267   -0.3220 H   0  0  0  0  0  0  0  0  0  0  0  0
  1  2  1  0
  2  3  1  0
  3  4  1  0
  4  5  1  0
  5  6  1  0
  6  7  1  0
  7  8  1  0
  7  9  1  0
  2 10  1  0
 10 11  1  0
 11 12  1  0
 12 13  1  0
 13 14  1  6
 13 15  1  0
 15 16  1  0
 16 17  1  0
 17 18  2  0
 18 19  1  0
 19 20  1  0
 20 21  1  0
 21 22  1  0
 22 23  1  0
 22 24  1  0
 24 25  1  0
 24 26  1  0
 19 27  1  0
 27 28  1  1
 27 29  1  0
 29 30  1  0
 30 31  1  0
 31 32  1  1
  7  5  1  0
 31 10  1  0
 31 13  1  0
 27 15  1  0
 24 18  1  0
  1 33  1  0
  1 34  1  0
  1 35  1  0
  2 36  1  1
  3 37  1  0
  3 38  1  0
  4 39  1  0
  4 40  1  0
  5 41  1  1
  8 42  1  0
  8 43  1  0
  8 44  1  0
  9 45  1  0
  9 46  1  0
  9 47  1  0
 10 48  1  6
 11 49  1  0
 11 50  1  0
 12 51  1  0
 12 52  1  0
 14 53  1  0
 14 54  1  0
 14 55  1  0
 15 56  1  1
 16 57  1  0
 16 58  1  0
 17 59  1  0
 19 60  1  6
 20 61  1  0
 20 62  1  0
 21 63  1  0
 21 64  1  0
 22 65  1  6
 23 66  1  0
 25 67  1  0
 25 68  1  0
 25 69  1  0
 26 70  1  0
 26 71  1  0
 26 72  1  0
 28 73  1  0
 28 74  1  0
 28 75  1  0
 29 76  1  0
 29 77  1  0
 30 78  1  0
 30 79  1  0
 32 80  1  0
 32 81  1  0
 32 82  1  0
M  END
>  <meeko>  (3) 
{"is_sidechain": [false], "intermolecular_energy": 2.731, "internal_energy": -0.839}

$$$$
EPH_relaxed_0001_pdb2pqr_Repair_303_r2_0001_out
     RDKit          3D

 82 86  0  0  0  0  0  0  0  0999 V2000
    2.1800   19.2550   -0.1510 C   0  0  0  0  0  0  0  0  0  0  0  0
    2.5290   18.0330    0.7030 C   0  0  2  0  0  0  0  0  0  0  0  0
    3.9560   17.5180    0.4250 C   0  0  0  0  0  0  0  0  0  0  0  0
    5.0500   18.3400    1.1120 C   0  0  0  0  0  0  0  0  0  0  0  0
    4.5640   18.9530    2.3900 C   0  0  2  0  0  0  0  0  0  0  0  0
    5.3700   20.0320    2.8810 O   0  0  0  0  0  0  0  0  0  0  0  0
    5.3160   18.8560    3.7040 C   0  0  0  0  0  0  0  0  0  0  0  0
    6.6180   18.1250    3.8060 C   0  0  0  0  0  0  0  0  0  0  0  0
    4.5560   19.0470    4.9790 C   0  0  0  0  0  0  0  0  0  0  0  0
    1.5170   16.9200    0.4560 C   0  0  1  0  0  0  0  0  0  0  0  0
    0.1900   17.4440   -0.1560 C   0  0  0  0  0  0  0  0  0  0  0  0
   -0.3210   16.3460   -1.1240 C   0  0  0  0  0  0  0  0  0  0  0  0
    0.5380   15.1030   -0.7920 C   0  0  1  0  0  0  0  0  0  0  0  0
   -0.1320   14.4780    0.4720 C   0  0  0  0  0  0  0  0  0  0  0  0
    0.7040   14.0520   -1.9370 C   0  0  2  0  0  0  0  0  0  0  0  0
   -0.6020   13.3840   -2.4030 C   0  0  0  0  0  0  0  0  0  0  0  0
   -0.9670   12.1270   -1.6840 C   0  0  0  0  0  0  0  0  0  0  0  0
   -0.1420   11.4040   -0.9050 C   0  0  0  0  0  0  0  0  0  0  0  0
    1.3380   11.7810   -0.7620 C   0  0  1  0  0  0  0  0  0  0  0  0
    2.2130   10.5090   -0.9160 C   0  0  0  0  0  0  0  0  0  0  0  0
    1.8000    9.3950    0.0400 C   0  0  0  0  0  0  0  0  0  0  0  0
    0.3390    9.0080   -0.1720 C   0  0  2  0  0  0  0  0  0  0  0  0
    0.2040    8.4080   -1.4640 O   0  0  0  0  0  0  0  0  0  0  0  0
   -0.6380   10.2110   -0.0500 C   0  0  0  0  0  0  0  0  0  0  0  0
   -0.7160   10.6710    1.4270 C   0  0  0  0  0  0  0  0  0  0  0  0
   -2.0590    9.7120   -0.4260 C   0  0  0  0  0  0  0  0  0  0  0  0
    1.8390   12.9810   -1.6750 C   0  0  1  0  0  0  0  0  0  0  0  0
    2.2730   12.4420   -3.0720 C   0  0  0  0  0  0  0  0  0  0  0  0
    3.1240   13.6190   -1.0260 C   0  0  0  0  0  0  0  0  0  0  0  0
    2.8980   14.7350    0.0110 C   0  0  0  0  0  0  0  0  0  0  0  0
    1.9260   15.7910   -0.5240 C   0  0  2  0  0  0  0  0  0  0  0  0
    2.5830   16.4530   -1.7830 C   0  0  0  0  0  0  0  0  0  0  0  0
    1.9376   20.1038    0.5053 H   0  0  0  0  0  0  0  0  0  0  0  0
    3.0395   19.5162   -0.7859 H   0  0  0  0  0  0  0  0  0  0  0  0
    1.3122   19.0229   -0.7859 H   0  0  0  0  0  0  0  0  0  0  0  0
    2.4898   18.3445    1.7573 H   0  0  0  0  0  0  0  0  0  0  0  0
    4.0263   16.4796    0.7809 H   0  0  0  0  0  0  0  0  0  0  0  0
    4.1231   17.6014   -0.6590 H   0  0  0  0  0  0  0  0  0  0  0  0
    5.9033   17.6823    1.3342 H   0  0  0  0  0  0  0  0  0  0  0  0
    5.3449   19.1533    0.4326 H   0  0  0  0  0  0  0  0  0  0  0  0
    3.5186   18.7415    2.1209 H   0  0  0  0  0  0  0  0  0  0  0  0
    6.8753   17.9805    4.8657 H   0  0  0  0  0  0  0  0  0  0  0  0
    6.5281   17.1455    3.3136 H   0  0  0  0  0  0  0  0  0  0  0  0
    7.4075   18.7118    3.3136 H   0  0  0  0  0  0  0  0  0  0  0  0
    5.2267   18.8784    5.8344 H   0  0  0  0  0  0  0  0  0  0  0  0
    4.1603   20.0725    5.0199 H   0  0  0  0  0  0  0  0  0  0  0  0
    3.7224   18.3304    5.0199 H   0  0  0  0  0  0  0  0  0  0  0  0
    1.4309   16.5194    1.4768 H   0  0  0  0  0  0  0  0  0  0  0  0
   -0.5493   17.6221    0.6388 H   0  0  0  0  0  0  0  0  0  0  0  0
    0.3480   18.3950   -0.6858 H   0  0  0  0  0  0  0  0  0  0  0  0
   -1.3871   16.1394   -0.9489 H   0  0  0  0  0  0  0  0  0  0  0  0
   -0.2319   16.6452   -2.1788 H   0  0  0  0  0  0  0  0  0  0  0  0
    0.3246   14.9040    1.3775 H   0  0  0  0  0  0  0  0  0  0  0  0
   -1.2090   14.7016    0.4645 H   0  0  0  0  0  0  0  0  0  0  0  0
    0.0163   13.3881    0.4645 H   0  0  0  0  0  0  0  0  0  0  0  0
    1.0403   14.6731   -2.7803 H   0  0  0  0  0  0  0  0  0  0  0  0
   -1.4210   14.1051   -2.2642 H   0  0  0  0  0  0  0  0  0  0  0  0
   -0.4401   13.0982   -3.4528 H   0  0  0  0  0  0  0  0  0  0  0  0
   -1.9978   11.7612   -1.8012 H   0  0  0  0  0  0  0  0  0  0  0  0
    1.4511   12.1914    0.2523 H   0  0  0  0  0  0  0  0  0  0  0  0
    2.1202   10.1402   -1.9482 H   0  0  0  0  0  0  0  0  0  0  0  0
    3.2501   10.7866   -0.6766 H   0  0  0  0  0  0  0  0  0  0  0  0
    2.4350    8.5145   -0.1374 H   0  0  0  0  0  0  0  0  0  0  0  0
    1.9215    9.7552    1.0722 H   0  0  0  0  0  0  0  0  0  0  0  0
    0.0663    8.3008    0.6252 H   0  0  0  0  0  0  0  0  0  0  0  0
   -0.6170    8.7450   -1.8610 H   0  0  0  0  0  0  0  0  0  0  0  0
   -0.5691    9.8049    2.0890 H   0  0  0  0  0  0  0  0  0  0  0  0
    0.0684   11.4175    1.6204 H   0  0  0  0  0  0  0  0  0  0  0  0
   -1.7026   11.1172    1.6204 H   0  0  0  0  0  0  0  0  0  0  0  0
   -2.6317    9.5109    0.4914 H   0  0  0  0  0  0  0  0  0  0  0  0
   -2.5737   10.4832   -1.0179 H   0  0  0  0  0  0  0  0  0  0  0  0
   -1.9786    8.7883   -1.0179 H   0  0  0  0  0  0  0  0  0  0  0  0
    2.9579   11.5914   -2.9402 H   0  0  0  0  0  0  0  0  0  0  0  0
    1.3841   12.1139   -3.6307 H   0  0  0  0  0  0  0  0  0  0  0  0
    2.7832   13.2404   -3.6307 H   0  0  0  0  0  0  0  0  0  0  0  0
    3.6817   12.8114   -0.5293 H   0  0  0  0  0  0  0  0  0  0  0  0
    3.6561   14.1032   -1.8581 H   0  0  0  0  0  0  0  0  0  0  0  0
    2.4815   14.2945    0.9289 H   0  0  0  0  0  0  0  0  0  0  0  0
    3.8628   15.2201    0.2205 H   0  0  0  0  0  0  0  0  0  0  0  0
    3.3238   17.1994   -1.4603 H   0  0  0  0  0  0  0  0  0  0  0  0
    3.0807   15.6795   -2.3863 H   0  0  0  0  0  0  0  0  0  0  0  0
    1.8058   16.9448   -2.3863 H   0  0  0  0  0  0  0  0  0  0  0  0
  1  2  1  0
  2  3  1  0
  3  4  1  0
  4  5  1  0
  5  6  1  0
  6  7  1  0
  7  8  1  0
  7  9  1  0
  2 10  1  0
 10 11  1  0
 11 12  1  0
 12 13  1  0
 13 14  1  1
 13 15  1  0
 15 16  1  0
 16 17  1  0
 17 18  2  0
 18 19  1  0
 19 20  1  0
 20 21  1  0
 21 22  1  0
 22 23  1  0
 22 24  1  0
 24 25  1  0
 24 26  1  0
 19 27  1  0
 27 28  1  6
 27 29  1  0
 29 30  1  0
 30 31  1  0
 31 32  1  6
  7  5  1  0
 31 10  1  0
 31 13  1  0
 27 15  1  0
 24 18  1  0
  1 33  1  0
  1 34  1  0
  1 35  1  0
  2 36  1  1
  3 37  1  0
  3 38  1  0
  4 39  1  0
  4 40  1  0
  5 41  1  1
  8 42  1  0
  8 43  1  0
  8 44  1  0
  9 45  1  0
  9 46  1  0
  9 47  1  0
 10 48  1  1
 11 49  1  0
 11 50  1  0
 12 51  1  0
 12 52  1  0
 14 53  1  0
 14 54  1  0
 14 55  1  0
 15 56  1  6
 16 57  1  0
 16 58  1  0
 17 59  1  0
 19 60  1  1
 20 61  1  0
 20 62  1  0
 21 63  1  0
 21 64  1  0
 22 65  1  1
 23 66  1  0
 25 67  1  0
 25 68  1  0
 25 69  1  0
 26 70  1  0
 26 71  1  0
 26 72  1  0
 28 73  1  0
 28 74  1  0
 28 75  1  0
 29 76  1  0
 29 77  1  0
 30 78  1  0
 30 79  1  0
 32 80  1  0
 32 81  1  0
 32 82  1  0
M  END
>  <meeko>  (4) 
{"is_sidechain": [false], "intermolecular_energy": 2.731, "internal_energy": -0.839}

$$$$
EPH_relaxed_0001_pdb2pqr_Repair_303_r2_0001_out
     RDKit          3D

 82 86  0  0  0  0  0  0  0  0999 V2000
   -2.5410    7.7940   -0.0460 C   0  0  0  0  0  0  0  0  0  0  0  0
   -3.2210    9.1620   -0.1480 C   0  0  2  0  0  0  0  0  0  0  0  0
   -4.6570    9.0570   -0.6980 C   0  0  0  0  0  0  0  0  0  0  0  0
   -5.2050    7.6270   -0.7200 C   0  0  0  0  0  0  0  0  0  0  0  0
   -6.0700    7.3840   -1.9200 C   0  0  2  0  0  0  0  0  0  0  0  0
   -7.0160    8.4250   -2.1960 O   0  0  0  0  0  0  0  0  0  0  0  0
   -7.5660    7.1470   -1.8370 C   0  0  0  0  0  0  0  0  0  0  0  0
   -8.2840    7.1400   -0.5240 C   0  0  0  0  0  0  0  0  0  0  0  0
   -8.2430    6.4420   -2.9720 C   0  0  0  0  0  0  0  0  0  0  0  0
   -2.3920   10.0890   -1.0300 C   0  0  1  0  0  0  0  0  0  0  0  0
   -2.9540   11.5350   -1.0700 C   0  0  0  0  0  0  0  0  0  0  0  0
   -1.7330   12.4870   -1.1660 C   0  0  0  0  0  0  0  0  0  0  0  0
   -0.5440   11.5610   -1.5110 C   0  0  1  0  0  0  0  0  0  0  0  0
   -0.6470   11.3330   -3.0520 C   0  0  0  0  0  0  0  0  0  0  0  0
    0.8740   12.0740   -1.0980 C   0  0  2  0  0  0  0  0  0  0  0  0
    1.3190   13.3810   -1.7780 C   0  0  0  0  0  0  0  0  0  0  0  0
    2.0630   13.2100   -3.0600 C   0  0  0  0  0  0  0  0  0  0  0  0
    2.6110   12.0620   -3.5010 C   0  0  0  0  0  0  0  0  0  0  0  0
    2.5930   10.7980   -2.6320 C   0  0  1  0  0  0  0  0  0  0  0  0
    4.0010   10.1450   -2.6390 C   0  0  0  0  0  0  0  0  0  0  0  0
    4.5150    9.8770   -4.0500 C   0  0  0  0  0  0  0  0  0  0  0  0
    4.5740   11.1680   -4.8630 C   0  0  2  0  0  0  0  0  0  0  0  0
    5.5720   12.0230   -4.2990 O   0  0  0  0  0  0  0  0  0  0  0  0
    3.2140   11.9180   -4.9200 C   0  0  0  0  0  0  0  0  0  0  0  0
    2.2150   11.1200   -5.7940 C   0  0  0  0  0  0  0  0  0  0  0  0
    3.4440   13.2700   -5.6490 C   0  0  0  0  0  0  0  0  0  0  0  0
    2.0080   10.9720   -1.1650 C   0  0  1  0  0  0  0  0  0  0  0  0
    3.1360   11.4340   -0.1930 C   0  0  0  0  0  0  0  0  0  0  0  0
    1.5140    9.5730   -0.6390 C   0  0  0  0  0  0  0  0  0  0  0  0
    0.0650    9.1740   -0.9790 C   0  0  0  0  0  0  0  0  0  0  0  0
   -0.9090   10.3060   -0.6380 C   0  0  2  0  0  0  0  0  0  0  0  0
   -0.8440   10.5430    0.9100 C   0  0  0  0  0  0  0  0  0  0  0  0
   -2.4089    7.5283    1.0132 H   0  0  0  0  0  0  0  0  0  0  0  0
   -3.1670    7.0357   -0.5390 H   0  0  0  0  0  0  0  0  0  0  0  0
   -1.5585    7.8352   -0.5390 H   0  0  0  0  0  0  0  0  0  0  0  0
   -3.2868    9.5759    0.8690 H   0  0  0  0  0  0  0  0  0  0  0  0
   -5.3162    9.6718   -0.0675 H   0  0  0  0  0  0  0  0  0  0  0  0
   -4.6281    9.4062   -1.7407 H   0  0  0  0  0  0  0  0  0  0  0  0
   -4.3610    6.9219   -0.7401 H   0  0  0  0  0  0  0  0  0  0  0  0
   -5.8189    7.4807    0.1810 H   0  0  0  0  0  0  0  0  0  0  0  0
   -5.2619    6.8307   -2.4209 H   0  0  0  0  0  0  0  0  0  0  0  0
   -7.5500    7.1472    0.2953 H   0  0  0  0  0  0  0  0  0  0  0  0
   -8.9236    8.0320   -0.4511 H   0  0  0  0  0  0  0  0  0  0  0  0
   -8.9061    6.2357   -0.4511 H   0  0  0  0  0  0  0  0  0  0  0  0
   -8.9530    5.7026   -2.5731 H   0  0  0  0  0  0  0  0  0  0  0  0
   -8.7844    7.1749   -3.5882 H   0  0  0  0  0  0  0  0  0  0  0  0
   -7.4888    5.9307   -3.5882 H   0  0  0  0  0  0  0  0  0  0  0  0
   -2.4527    9.5411   -1.9819 H   0  0  0  0  0  0  0  0  0  0  0  0
   -3.6050   11.6643   -1.9472 H   0  0  0  0  0  0  0  0  0  0  0  0
   -3.5536   11.7507   -0.1734 H   0  0  0  0  0  0  0  0  0  0  0  0
   -1.8851   13.2353   -1.9578 H   0  0  0  0  0  0  0  0  0  0  0  0
   -1.5678   13.0494   -0.2352 H   0  0  0  0  0  0  0  0  0  0  0  0
   -1.0926   10.3465   -3.2477 H   0  0  0  0  0  0  0  0  0  0  0  0
   -1.2790   12.1157   -3.4970 H   0  0  0  0  0  0  0  0  0  0  0  0
    0.3580   11.3761   -3.4970 H   0  0  0  0  0  0  0  0  0  0  0  0
    0.7339   12.3227   -0.0357 H   0  0  0  0  0  0  0  0  0  0  0  0
    0.4200   13.9805   -1.9839 H   0  0  0  0  0  0  0  0  0  0  0  0
    2.0197   13.8639   -1.0810 H   0  0  0  0  0  0  0  0  0  0  0  0
    2.1732   14.0981   -3.6997 H   0  0  0  0  0  0  0  0  0  0  0  0
    1.8639   10.1191   -3.0984 H   0  0  0  0  0  0  0  0  0  0  0  0
    4.7049   10.8195   -2.1296 H   0  0  0  0  0  0  0  0  0  0  0  0
    3.9223    9.1767   -2.1230 H   0  0  0  0  0  0  0  0  0  0  0  0
    5.5240    9.4432   -3.9893 H   0  0  0  0  0  0  0  0  0  0  0  0
    3.8260    9.1792   -4.5483 H   0  0  0  0  0  0  0  0  0  0  0  0
    4.8251   10.8948   -5.8985 H   0  0  0  0  0  0  0  0  0  0  0  0
    5.5580   11.8970   -3.3350 H   0  0  0  0  0  0  0  0  0  0  0  0
    1.5212   10.5658   -5.1447 H   0  0  0  0  0  0  0  0  0  0  0  0
    1.6466   11.8155   -6.4290 H   0  0  0  0  0  0  0  0  0  0  0  0
    2.7677   10.4120   -6.4290 H   0  0  0  0  0  0  0  0  0  0  0  0
    3.5799   14.0691   -4.9053 H   0  0  0  0  0  0  0  0  0  0  0  0
    4.3429   13.1986   -6.2790 H   0  0  0  0  0  0  0  0  0  0  0  0
    2.5721   13.4999   -6.2790 H   0  0  0  0  0  0  0  0  0  0  0  0
    2.8029   11.2976    0.8465 H   0  0  0  0  0  0  0  0  0  0  0  0
    4.0409   10.8341   -0.3698 H   0  0  0  0  0  0  0  0  0  0  0  0
    3.3601   12.4963   -0.3698 H   0  0  0  0  0  0  0  0  0  0  0  0
    2.1784    8.8051   -1.0620 H   0  0  0  0  0  0  0  0  0  0  0  0
    1.5403    9.6527    0.4578 H   0  0  0  0  0  0  0  0  0  0  0  0
   -0.0042    8.9512   -2.0540 H   0  0  0  0  0  0  0  0  0  0  0  0
   -0.2040    8.2885   -0.3845 H   0  0  0  0  0  0  0  0  0  0  0  0
   -1.0997    9.6107    1.4347 H   0  0  0  0  0  0  0  0  0  0  0  0
    0.1728   10.8548    1.1908 H   0  0  0  0  0  0  0  0  0  0  0  0
   -1.5595   11.3299    1.1908 H   0  0  0  0  0  0  0  0  0  0  0  0
  1  2  1  0
  2  3  1  0
  3  4  1  0
  4  5  1  0
  5  6  1  0
  6  7  1  0
  7  8  1  0
  7  9  1  0
  2 10  1  0
 10 11  1  0
 11 12  1  0
 12 13  1  0
 13 14  1  6
 13 15  1  0
 15 16  1  0
 16 17  1  0
 17 18  2  0
 18 19  1  0
 19 20  1  0
 20 21  1  0
 21 22  1  0
 22 23  1  0
 22 24  1  0
 24 25  1  0
 24 26  1  0
 19 27  1  0
 27 28  1  1
 27 29  1  0
 29 30  1  0
 30 31  1  0
 31 32  1  1
  7  5  1  0
 31 10  1  0
 31 13  1  0
 27 15  1  0
 24 18  1  0
  1 33  1  0
  1 34  1  0
  1 35  1  0
  2 36  1  1
  3 37  1  0
  3 38  1  0
  4 39  1  0
  4 40  1  0
  5 41  1  6
  8 42  1  0
  8 43  1  0
  8 44  1  0
  9 45  1  0
  9 46  1  0
  9 47  1  0
 10 48  1  6
 11 49  1  0
 11 50  1  0
 12 51  1  0
 12 52  1  0
 14 53  1  0
 14 54  1  0
 14 55  1  0
 15 56  1  1
 16 57  1  0
 16 58  1  0
 17 59  1  0
 19 60  1  6
 20 61  1  0
 20 62  1  0
 21 63  1  0
 21 64  1  0
 22 65  1  6
 23 66  1  0
 25 67  1  0
 25 68  1  0
 25 69  1  0
 26 70  1  0
 26 71  1  0
 26 72  1  0
 28 73  1  0
 28 74  1  0
 28 75  1  0
 29 76  1  0
 29 77  1  0
 30 78  1  0
 30 79  1  0
 32 80  1  0
 32 81  1  0
 32 82  1  0
M  END
>  <meeko>  (5) 
{"is_sidechain": [false], "intermolecular_energy": 2.731, "internal_energy": -0.839}

$$$$
EPH_relaxed_0001_pdb2pqr_Repair_303_r2_0001_out
     RDKit          3D

 82 86  0  0  0  0  0  0  0  0999 V2000
  -14.3800    5.4390    0.4030 C   0  0  0  0  0  0  0  0  0  0  0  0
  -13.8360    6.8630    0.2620 C   0  0  2  0  0  0  0  0  0  0  0  0
  -14.9500    7.8810   -0.0540 C   0  0  0  0  0  0  0  0  0  0  0  0
  -14.5180    9.3400    0.1190 C   0  0  0  0  0  0  0  0  0  0  0  0
  -15.2420   10.2490   -0.8270 C   0  0  2  0  0  0  0  0  0  0  0  0
  -15.0850    9.9190   -2.2130 O   0  0  0  0  0  0  0  0  0  0  0  0
  -14.5380   11.1800   -1.7960 C   0  0  0  0  0  0  0  0  0  0  0  0
  -13.0450   11.2500   -1.8660 C   0  0  0  0  0  0  0  0  0  0  0  0
  -15.2870   12.3650   -2.3210 C   0  0  0  0  0  0  0  0  0  0  0  0
  -12.7670    6.9060   -0.8230 C   0  0  1  0  0  0  0  0  0  0  0  0
  -13.1280    7.8760   -1.9790 C   0  0  0  0  0  0  0  0  0  0  0  0
  -11.7980    8.5060   -2.4670 C   0  0  0  0  0  0  0  0  0  0  0  0
  -10.6950    7.6420   -1.8120 C   0  0  1  0  0  0  0  0  0  0  0  0
  -10.5790    6.3810   -2.7250 C   0  0  0  0  0  0  0  0  0  0  0  0
   -9.3080    8.3330   -1.6040 C   0  0  2  0  0  0  0  0  0  0  0  0
   -8.5990    8.7760   -2.8960 C   0  0  0  0  0  0  0  0  0  0  0  0
   -7.6870    7.7610   -3.5020 C   0  0  0  0  0  0  0  0  0  0  0  0
   -7.2250    6.6570   -2.8860 C   0  0  0  0  0  0  0  0  0  0  0  0
   -7.5410    6.3890   -1.4090 C   0  0  1  0  0  0  0  0  0  0  0  0
   -6.2440    5.9640   -0.6720 C   0  0  0  0  0  0  0  0  0  0  0  0
   -5.5490    4.7840   -1.3430 C   0  0  0  0  0  0  0  0  0  0  0  0
   -5.1990    5.1100   -2.7930 C   0  0  2  0  0  0  0  0  0  0  0  0
   -4.2030    6.1370   -2.8070 O   0  0  0  0  0  0  0  0  0  0  0  0
   -6.4270    5.5600   -3.6330 C   0  0  0  0  0  0  0  0  0  0  0  0
   -7.3660    4.3520   -3.8710 C   0  0  0  0  0  0  0  0  0  0  0  0
   -5.9140    5.9940   -5.0330 C   0  0  0  0  0  0  0  0  0  0  0  0
   -8.3260    7.5420   -0.6480 C   0  0  1  0  0  0  0  0  0  0  0  0
   -7.3180    8.5880   -0.0810 C   0  0  0  0  0  0  0  0  0  0  0  0
   -9.0710    6.9230    0.5940 C   0  0  0  0  0  0  0  0  0  0  0  0
  -10.4850    6.3640    0.3490 C   0  0  0  0  0  0  0  0  0  0  0  0
  -11.3510    7.3760   -0.4090 C   0  0  2  0  0  0  0  0  0  0  0  0
  -11.5040    8.6460    0.4950 C   0  0  0  0  0  0  0  0  0  0  0  0
  -14.4762    5.1872    1.4695 H   0  0  0  0  0  0  0  0  0  0  0  0
  -15.3663    5.3738   -0.0796 H   0  0  0  0  0  0  0  0  0  0  0  0
  -13.6883    4.7328   -0.0796 H   0  0  0  0  0  0  0  0  0  0  0  0
  -13.3948    7.1463    1.2290 H   0  0  0  0  0  0  0  0  0  0  0  0
  -15.2687    7.7345   -1.0966 H   0  0  0  0  0  0  0  0  0  0  0  0
  -15.7640    7.6996    0.6633 H   0  0  0  0  0  0  0  0  0  0  0  0
  -14.7327    9.6553    1.1507 H   0  0  0  0  0  0  0  0  0  0  0  0
  -13.4417    9.4066   -0.0980 H   0  0  0  0  0  0  0  0  0  0  0  0
  -16.0411   10.4177   -0.0902 H   0  0  0  0  0  0  0  0  0  0  0  0
  -12.6307   11.2694   -0.8472 H   0  0  0  0  0  0  0  0  0  0  0  0
  -12.6613   10.3689   -2.4011 H   0  0  0  0  0  0  0  0  0  0  0  0
  -12.7454   12.1632   -2.4011 H   0  0  0  0  0  0  0  0  0  0  0  0
  -15.6648   12.9627   -1.4784 H   0  0  0  0  0  0  0  0  0  0  0  0
  -14.6141   12.9814   -2.9352 H   0  0  0  0  0  0  0  0  0  0  0  0
  -16.1325   12.0217   -2.9352 H   0  0  0  0  0  0  0  0  0  0  0  0
  -12.7437    5.8417   -1.1001 H   0  0  0  0  0  0  0  0  0  0  0  0
  -13.6093    7.3243   -2.7999 H   0  0  0  0  0  0  0  0  0  0  0  0
  -13.8305    8.6511   -1.6390 H   0  0  0  0  0  0  0  0  0  0  0  0
  -11.7264    8.4615   -3.5638 H   0  0  0  0  0  0  0  0  0  0  0  0
  -11.7140    9.5682   -2.1936 H   0  0  0  0  0  0  0  0  0  0  0  0
  -10.4962    5.4809   -2.0982 H   0  0  0  0  0  0  0  0  0  0  0  0
  -11.4739    6.3045   -3.3601 H   0  0  0  0  0  0  0  0  0  0  0  0
   -9.6852    6.4691   -3.3601 H   0  0  0  0  0  0  0  0  0  0  0  0
   -9.5835    9.2608   -1.0813 H   0  0  0  0  0  0  0  0  0  0  0  0
   -9.3708    9.0263   -3.6388 H   0  0  0  0  0  0  0  0  0  0  0  0
   -7.9632    9.6293   -2.6175 H   0  0  0  0  0  0  0  0  0  0  0  0
   -7.3653    7.9298   -4.5403 H   0  0  0  0  0  0  0  0  0  0  0  0
   -8.2654    5.5613   -1.3974 H   0  0  0  0  0  0  0  0  0  0  0  0
   -5.5514    6.8185   -0.6563 H   0  0  0  0  0  0  0  0  0  0  0  0
   -6.5252    5.6514    0.3445 H   0  0  0  0  0  0  0  0  0  0  0  0
   -4.6252    4.5502   -0.7934 H   0  0  0  0  0  0  0  0  0  0  0  0
   -6.2317    3.9216   -1.3318 H   0  0  0  0  0  0  0  0  0  0  0  0
   -4.8231    4.1865   -3.2577 H   0  0  0  0  0  0  0  0  0  0  0  0
   -3.3340    5.7040   -2.8560 H   0  0  0  0  0  0  0  0  0  0  0  0
   -7.6862    3.9401   -2.9026 H   0  0  0  0  0  0  0  0  0  0  0  0
   -8.2486    4.6801   -4.4397 H   0  0  0  0  0  0  0  0  0  0  0  0
   -6.8303    3.5777   -4.4397 H   0  0  0  0  0  0  0  0  0  0  0  0
   -5.0791    6.7003   -4.9148 H   0  0  0  0  0  0  0  0  0  0  0  0
   -5.5697    5.1089   -5.5879 H   0  0  0  0  0  0  0  0  0  0  0  0
   -6.7299    6.4802   -5.5879 H   0  0  0  0  0  0  0  0  0  0  0  0
   -7.3427    8.5624    1.0184 H   0  0  0  0  0  0  0  0  0  0  0  0
   -6.3034    8.3465   -0.4307 H   0  0  0  0  0  0  0  0  0  0  0  0
   -7.5969    9.5929   -0.4307 H   0  0  0  0  0  0  0  0  0  0  0  0
   -8.4501    6.1003    0.9782 H   0  0  0  0  0  0  0  0  0  0  0  0
   -9.2104    7.7612    1.2926 H   0  0  0  0  0  0  0  0  0  0  0  0
  -10.4091    5.4402   -0.2434 H   0  0  0  0  0  0  0  0  0  0  0  0
  -10.9550    6.1596    1.3223 H   0  0  0  0  0  0  0  0  0  0  0  0
  -11.4682    8.3490    1.5536 H   0  0  0  0  0  0  0  0  0  0  0  0
  -10.6839    9.3478    0.2831 H   0  0  0  0  0  0  0  0  0  0  0  0
  -12.4673    9.1330    0.2831 H   0  0  0  0  0  0  0  0  0  0  0  0
  1  2  1  0
  2  3  1  0
  3  4  1  0
  4  5  1  0
  5  6  1  0
  6  7  1  0
  7  8  1  0
  7  9  1  0
  2 10  1  0
 10 11  1  0
 11 12  1  0
 12 13  1  0
 13 14  1  6
 13 15  1  0
 15 16  1  0
 16 17  1  0
 17 18  2  0
 18 19  1  0
 19 20  1  0
 20 21  1  0
 21 22  1  0
 22 23  1  0
 22 24  1  0
 24 25  1  0
 24 26  1  0
 19 27  1  0
 27 28  1  1
 27 29  1  0
 29 30  1  0
 30 31  1  0
 31 32  1  1
  7  5  1  0
 31 10  1  0
 31 13  1  0
 27 15  1  0
 24 18  1  0
  1 33  1  0
  1 34  1  0
  1 35  1  0
  2 36  1  1
  3 37  1  0
  3 38  1  0
  4 39  1  0
  4 40  1  0
  5 41  1  1
  8 42  1  0
  8 43  1  0
  8 44  1  0
  9 45  1  0
  9 46  1  0
  9 47  1  0
 10 48  1  6
 11 49  1  0
 11 50  1  0
 12 51  1  0
 12 52  1  0
 14 53  1  0
 14 54  1  0
 14 55  1  0
 15 56  1  1
 16 57  1  0
 16 58  1  0
 17 59  1  0
 19 60  1  6
 20 61  1  0
 20 62  1  0
 21 63  1  0
 21 64  1  0
 22 65  1  6
 23 66  1  0
 25 67  1  0
 25 68  1  0
 25 69  1  0
 26 70  1  0
 26 71  1  0
 26 72  1  0
 28 73  1  0
 28 74  1  0
 28 75  1  0
 29 76  1  0
 29 77  1  0
 30 78  1  0
 30 79  1  0
 32 80  1  0
 32 81  1  0
 32 82  1  0
M  END
>  <meeko>  (6) 
{"is_sidechain": [false], "intermolecular_energy": 2.731, "internal_energy": -0.839}

$$$$
EPH_relaxed_0001_pdb2pqr_Repair_303_r2_0001_out
     RDKit          3D

 82 86  0  0  0  0  0  0  0  0999 V2000
   -2.1190   14.3400    0.2660 C   0  0  0  0  0  0  0  0  0  0  0  0
   -0.8110   15.0440    0.6390 C   0  0  2  0  0  0  0  0  0  0  0  0
   -0.6560   16.3990   -0.0790 C   0  0  0  0  0  0  0  0  0  0  0  0
    0.7900   16.8980   -0.1470 C   0  0  0  0  0  0  0  0  0  0  0  0
    0.9100   18.3160    0.3240 C   0  0  2  0  0  0  0  0  0  0  0  0
    1.4790   19.2180   -0.6330 O   0  0  0  0  0  0  0  0  0  0  0  0
    2.2390   19.0060    0.5680 C   0  0  0  0  0  0  0  0  0  0  0  0
    3.5390   18.2980    0.3490 C   0  0  0  0  0  0  0  0  0  0  0  0
    2.2710   20.1940    1.4780 C   0  0  0  0  0  0  0  0  0  0  0  0
    0.3750   14.1430    0.3140 C   0  0  1  0  0  0  0  0  0  0  0  0
    0.7300   13.1790    1.4770 C   0  0  0  0  0  0  0  0  0  0  0  0
    1.2160   11.8570    0.8290 C   0  0  0  0  0  0  0  0  0  0  0  0
    1.4410   12.2110   -0.6590 C   0  0  1  0  0  0  0  0  0  0  0  0
    2.8440   12.8950   -0.7010 C   0  0  0  0  0  0  0  0  0  0  0  0
    1.3470   11.0260   -1.6740 C   0  0  2  0  0  0  0  0  0  0  0  0
    2.3950    9.9160   -1.4800 C   0  0  0  0  0  0  0  0  0  0  0  0
    3.6650   10.0990   -2.2430 C   0  0  0  0  0  0  0  0  0  0  0  0
    3.8470   10.9550   -3.2660 C   0  0  0  0  0  0  0  0  0  0  0  0
    2.6800   11.7850   -3.8160 C   0  0  1  0  0  0  0  0  0  0  0  0
    2.6780   11.7120   -5.3650 C   0  0  0  0  0  0  0  0  0  0  0  0
    4.0180   12.1170   -5.9720 C   0  0  0  0  0  0  0  0  0  0  0  0
    5.1440   11.2320   -5.4450 C   0  0  2  0  0  0  0  0  0  0  0  0
    4.9480    9.8990   -5.9270 O   0  0  0  0  0  0  0  0  0  0  0  0
    5.2380   11.2180   -3.8930 C   0  0  0  0  0  0  0  0  0  0  0  0
    5.7470   12.5910   -3.3900 C   0  0  0  0  0  0  0  0  0  0  0  0
    6.3200   10.1800   -3.4900 C   0  0  0  0  0  0  0  0  0  0  0  0
    1.2530   11.4740   -3.1880 C   0  0  1  0  0  0  0  0  0  0  0  0
    0.5760   10.3000   -3.9590 C   0  0  0  0  0  0  0  0  0  0  0  0
    0.3210   12.7290   -3.3840 C   0  0  0  0  0  0  0  0  0  0  0  0
    0.3720   13.8100   -2.2870 C   0  0  0  0  0  0  0  0  0  0  0  0
    0.2300   13.1860   -0.8960 C   0  0  2  0  0  0  0  0  0  0  0  0
   -1.1810   12.5090   -0.8160 C   0  0  0  0  0  0  0  0  0  0  0  0
   -2.6546   14.0517    1.1826 H   0  0  0  0  0  0  0  0  0  0  0  0
   -2.7466   15.0222   -0.3262 H   0  0  0  0  0  0  0  0  0  0  0  0
   -1.8953   13.4404   -0.3262 H   0  0  0  0  0  0  0  0  0  0  0  0
   -0.8397   15.2450    1.7201 H   0  0  0  0  0  0  0  0  0  0  0  0
   -1.0355   16.2932   -1.1060 H   0  0  0  0  0  0  0  0  0  0  0  0
   -1.2241   17.1386    0.5043 H   0  0  0  0  0  0  0  0  0  0  0  0
    1.4186   16.2569    0.4885 H   0  0  0  0  0  0  0  0  0  0  0  0
    1.1181   16.8563   -1.1961 H   0  0  0  0  0  0  0  0  0  0  0  0
    0.0080   18.2114    0.9449 H   0  0  0  0  0  0  0  0  0  0  0  0
    3.9908   18.0519    1.3213 H   0  0  0  0  0  0  0  0  0  0  0  0
    3.3613   17.3721   -0.2176 H   0  0  0  0  0  0  0  0  0  0  0  0
    4.2205   18.9496   -0.2176 H   0  0  0  0  0  0  0  0  0  0  0  0
    2.2619   19.8547    2.5243 H   0  0  0  0  0  0  0  0  0  0  0  0
    3.1851   20.7760    1.2892 H   0  0  0  0  0  0  0  0  0  0  0  0
    1.3895   20.8243    1.2892 H   0  0  0  0  0  0  0  0  0  0  0  0
    1.1348   14.9088    0.0991 H   0  0  0  0  0  0  0  0  0  0  0  0
    1.5279   13.6122    2.0981 H   0  0  0  0  0  0  0  0  0  0  0  0
   -0.1412   13.0043    2.1254 H   0  0  0  0  0  0  0  0  0  0  0  0
    2.1539   11.5187    1.2937 H   0  0  0  0  0  0  0  0  0  0  0  0
    0.4923   11.0387    0.9581 H   0  0  0  0  0  0  0  0  0  0  0  0
    3.1985   13.0678    0.3259 H   0  0  0  0  0  0  0  0  0  0  0  0
    3.5545   12.2422   -1.2292 H   0  0  0  0  0  0  0  0  0  0  0  0
    2.7673   13.8568   -1.2292 H   0  0  0  0  0  0  0  0  0  0  0  0
    0.3791   10.5716   -1.4159 H   0  0  0  0  0  0  0  0  0  0  0  0
    2.6451    9.8677   -0.4099 H   0  0  0  0  0  0  0  0  0  0  0  0
    1.9372    8.9937   -1.8670 H   0  0  0  0  0  0  0  0  0  0  0  0
    4.5252    9.4820   -1.9439 H   0  0  0  0  0  0  0  0  0  0  0  0
    2.8625   12.8202   -3.4919 H   0  0  0  0  0  0  0  0  0  0  0  0
    2.4510   10.6795   -5.6690 H   0  0  0  0  0  0  0  0  0  0  0  0
    1.9186   12.4184   -5.7314 H   0  0  0  0  0  0  0  0  0  0  0  0
    3.9629   12.0165   -7.0660 H   0  0  0  0  0  0  0  0  0  0  0  0
    4.2300   13.1595   -5.6922 H   0  0  0  0  0  0  0  0  0  0  0  0
    6.0919   11.6518   -5.8128 H   0  0  0  0  0  0  0  0  0  0  0  0
    5.5150    9.7820   -6.7080 H   0  0  0  0  0  0  0  0  0  0  0  0
    5.7504   12.6002   -2.2900 H   0  0  0  0  0  0  0  0  0  0  0  0
    6.7682   12.7619   -3.7613 H   0  0  0  0  0  0  0  0  0  0  0  0
    5.0840   13.3863   -3.7613 H   0  0  0  0  0  0  0  0  0  0  0  0
    6.3813   10.1212   -2.3933 H   0  0  0  0  0  0  0  0  0  0  0  0
    6.0509    9.1936   -3.8956 H   0  0  0  0  0  0  0  0  0  0  0  0
    7.2944   10.4898   -3.8956 H   0  0  0  0  0  0  0  0  0  0  0  0
    0.1606    9.5797   -3.2389 H   0  0  0  0  0  0  0  0  0  0  0  0
   -0.2332   10.6947   -4.5910 H   0  0  0  0  0  0  0  0  0  0  0  0
    1.3229    9.7974   -4.5910 H   0  0  0  0  0  0  0  0  0  0  0  0
    0.6009   13.2062   -4.3348 H   0  0  0  0  0  0  0  0  0  0  0  0
   -0.7050   12.3337   -3.3513 H   0  0  0  0  0  0  0  0  0  0  0  0
    1.3345   14.3391   -2.3476 H   0  0  0  0  0  0  0  0  0  0  0  0
   -0.4623   14.5094   -2.4446 H   0  0  0  0  0  0  0  0  0  0  0  0
   -1.4634   12.3735    0.2385 H   0  0  0  0  0  0  0  0  0  0  0  0
   -1.9235   13.1489   -1.3152 H   0  0  0  0  0  0  0  0  0  0  0  0
   -1.1465   11.5294   -1.3152 H   0  0  0  0  0  0  0  0  0  0  0  0
  1  2  1  0
  2  3  1  0
  3  4  1  0
  4  5  1  0
  5  6  1  0
  6  7  1  0
  7  8  1  0
  7  9  1  0
  2 10  1  0
 10 11  1  0
 11 12  1  0
 12 13  1  0
 13 14  1  1
 13 15  1  0
 15 16  1  0
 16 17  1  0
 17 18  2  0
 18 19  1  0
 19 20  1  0
 20 21  1  0
 21 22  1  0
 22 23  1  0
 22 24  1  0
 24 25  1  0
 24 26  1  0
 19 27  1  0
 27 28  1  6
 27 29  1  0
 29 30  1  0
 30 31  1  0
 31 32  1  6
  7  5  1  0
 31 10  1  0
 31 13  1  0
 27 15  1  0
 24 18  1  0
  1 33  1  0
  1 34  1  0
  1 35  1  0
  2 36  1  1
  3 37  1  0
  3 38  1  0
  4 39  1  0
  4 40  1  0
  5 41  1  1
  8 42  1  0
  8 43  1  0
  8 44  1  0
  9 45  1  0
  9 46  1  0
  9 47  1  0
 10 48  1  6
 11 49  1  0
 11 50  1  0
 12 51  1  0
 12 52  1  0
 14 53  1  0
 14 54  1  0
 14 55  1  0
 15 56  1  1
 16 57  1  0
 16 58  1  0
 17 59  1  0
 19 60  1  6
 20 61  1  0
 20 62  1  0
 21 63  1  0
 21 64  1  0
 22 65  1  6
 23 66  1  0
 25 67  1  0
 25 68  1  0
 25 69  1  0
 26 70  1  0
 26 71  1  0
 26 72  1  0
 28 73  1  0
 28 74  1  0
 28 75  1  0
 29 76  1  0
 29 77  1  0
 30 78  1  0
 30 79  1  0
 32 80  1  0
 32 81  1  0
 32 82  1  0
M  END
>  <meeko>  (7) 
{"is_sidechain": [false], "intermolecular_energy": 2.731, "internal_energy": -0.839}

$$$$
EPH_relaxed_0001_pdb2pqr_Repair_303_r2_0001_out
     RDKit          3D

 82 86  0  0  0  0  0  0  0  0999 V2000
   -5.0830    6.8840   -0.0900 C   0  0  0  0  0  0  0  0  0  0  0  0
   -5.0020    7.8360   -1.2860 C   0  0  2  0  0  0  0  0  0  0  0  0
   -4.5210    7.1220   -2.5650 C   0  0  0  0  0  0  0  0  0  0  0  0
   -5.3100    5.8520   -2.8960 C   0  0  0  0  0  0  0  0  0  0  0  0
   -6.6070    6.1670   -3.5760 C   0  0  2  0  0  0  0  0  0  0  0  0
   -7.2570    7.3560   -3.1050 O   0  0  0  0  0  0  0  0  0  0  0  0
   -7.9530    6.1200   -2.8750 C   0  0  0  0  0  0  0  0  0  0  0  0
   -8.0670    5.7450   -1.4310 C   0  0  0  0  0  0  0  0  0  0  0  0
   -9.1870    5.9590   -3.7070 C   0  0  0  0  0  0  0  0  0  0  0  0
   -4.0760    9.0020   -0.9600 C   0  0  1  0  0  0  0  0  0  0  0  0
   -4.3830    9.6410    0.4200 C   0  0  0  0  0  0  0  0  0  0  0  0
   -3.0250   10.0920    1.0160 C   0  0  0  0  0  0  0  0  0  0  0  0
   -2.0320   10.0050   -0.1670 C   0  0  1  0  0  0  0  0  0  0  0  0
   -2.2570   11.3200   -0.9770 C   0  0  0  0  0  0  0  0  0  0  0  0
   -0.5270    9.8080    0.2080 C   0  0  2  0  0  0  0  0  0  0  0  0
    0.0980   10.9530    1.0240 C   0  0  0  0  0  0  0  0  0  0  0  0
    0.7310   12.0380    0.2190 C   0  0  0  0  0  0  0  0  0  0  0  0
    1.0490   11.9600   -1.0870 C   0  0  0  0  0  0  0  0  0  0  0  0
    0.8620   10.6510   -1.8660 C   0  0  1  0  0  0  0  0  0  0  0  0
    2.1340   10.3610   -2.7040 C   0  0  0  0  0  0  0  0  0  0  0  0
    2.5180   11.5290   -3.6080 C   0  0  0  0  0  0  0  0  0  0  0  0
    2.7520   12.7970   -2.7920 C   0  0  2  0  0  0  0  0  0  0  0  0
    3.9120   12.6110   -1.9740 O   0  0  0  0  0  0  0  0  0  0  0  0
    1.5400   13.1840   -1.8990 C   0  0  0  0  0  0  0  0  0  0  0  0
    0.3730   13.6760   -2.7900 C   0  0  0  0  0  0  0  0  0  0  0  0
    1.9590   14.3960   -1.0240 C   0  0  0  0  0  0  0  0  0  0  0  0
    0.3960    9.3960   -1.0100 C   0  0  1  0  0  0  0  0  0  0  0  0
    1.6380    8.6740   -0.4030 C   0  0  0  0  0  0  0  0  0  0  0  0
   -0.3010    8.3540   -1.9630 C   0  0  0  0  0  0  0  0  0  0  0  0
   -1.8130    8.5320   -2.1990 C   0  0  0  0  0  0  0  0  0  0  0  0
   -2.5590    8.7020   -0.8720 C   0  0  2  0  0  0  0  0  0  0  0  0
   -2.3700    7.3860   -0.0440 C   0  0  0  0  0  0  0  0  0  0  0  0
   -5.0337    7.4633    0.8438 H   0  0  0  0  0  0  0  0  0  0  0  0
   -6.0317    6.3284   -0.1272 H   0  0  0  0  0  0  0  0  0  0  0  0
   -4.2418    6.1761   -0.1272 H   0  0  0  0  0  0  0  0  0  0  0  0
   -6.0177    8.2111   -1.4801 H   0  0  0  0  0  0  0  0  0  0  0  0
   -4.6172    7.8204   -3.4094 H   0  0  0  0  0  0  0  0  0  0  0  0
   -3.4791    6.8160   -2.3893 H   0  0  0  0  0  0  0  0  0  0  0  0
   -4.7038    5.2187   -3.5604 H   0  0  0  0  0  0  0  0  0  0  0  0
   -5.5346    5.3323   -1.9529 H   0  0  0  0  0  0  0  0  0  0  0  0
   -6.2489    5.7228   -4.5164 H   0  0  0  0  0  0  0  0  0  0  0  0
   -7.8038    6.6107   -0.8055 H   0  0  0  0  0  0  0  0  0  0  0  0
   -9.0998    5.4355   -1.2130 H   0  0  0  0  0  0  0  0  0  0  0  0
   -7.3812    4.9131   -1.2130 H   0  0  0  0  0  0  0  0  0  0  0  0
  -10.0608    5.8450   -3.0486 H   0  0  0  0  0  0  0  0  0  0  0  0
   -9.3197    6.8474   -4.3419 H   0  0  0  0  0  0  0  0  0  0  0  0
   -9.0873    5.0663   -4.3419 H   0  0  0  0  0  0  0  0  0  0  0  0
   -4.2817    9.6484   -1.8259 H   0  0  0  0  0  0  0  0  0  0  0  0
   -5.0490   10.5077    0.2964 H   0  0  0  0  0  0  0  0  0  0  0  0
   -4.8870    8.9235    1.0842 H   0  0  0  0  0  0  0  0  0  0  0  0
   -3.0898   11.1231    1.3936 H   0  0  0  0  0  0  0  0  0  0  0  0
   -2.7153    9.4684    1.8676 H   0  0  0  0  0  0  0  0  0  0  0  0
   -2.4006   12.1594   -0.2808 H   0  0  0  0  0  0  0  0  0  0  0  0
   -1.3792   11.5151   -1.6105 H   0  0  0  0  0  0  0  0  0  0  0  0
   -3.1498   11.2122   -1.6105 H   0  0  0  0  0  0  0  0  0  0  0  0
   -0.5649    8.9435    0.8871 H   0  0  0  0  0  0  0  0  0  0  0  0
   -0.6947   11.4043    1.6387 H   0  0  0  0  0  0  0  0  0  0  0  0
    0.9084   10.4993    1.6134 H   0  0  0  0  0  0  0  0  0  0  0  0
    0.9571   12.9820    0.7365 H   0  0  0  0  0  0  0  0  0  0  0  0
    0.0041   10.8148   -2.5347 H   0  0  0  0  0  0  0  0  0  0  0  0
    2.9692   10.1566   -2.0180 H   0  0  0  0  0  0  0  0  0  0  0  0
    1.9190    9.4962   -3.3489 H   0  0  0  0  0  0  0  0  0  0  0  0
    3.4402   11.2754   -4.1514 H   0  0  0  0  0  0  0  0  0  0  0  0
    1.6939   11.7126   -4.3130 H   0  0  0  0  0  0  0  0  0  0  0  0
    2.8947   13.6246   -3.5024 H   0  0  0  0  0  0  0  0  0  0  0  0
    4.6370   13.1220   -2.3730 H   0  0  0  0  0  0  0  0  0  0  0  0
   -0.4532   14.0243   -2.1528 H   0  0  0  0  0  0  0  0  0  0  0  0
    0.7205   14.5042   -3.4251 H   0  0  0  0  0  0  0  0  0  0  0  0
    0.0227   12.8490   -3.4251 H   0  0  0  0  0  0  0  0  0  0  0  0
    1.8670   14.1298    0.0393 H   0  0  0  0  0  0  0  0  0  0  0  0
    3.0023   14.6650   -1.2457 H   0  0  0  0  0  0  0  0  0  0  0  0
    1.3046   15.2519   -1.2457 H   0  0  0  0  0  0  0  0  0  0  0  0
    1.5810    8.7071    0.6950 H   0  0  0  0  0  0  0  0  0  0  0  0
    1.6531    7.6263   -0.7379 H   0  0  0  0  0  0  0  0  0  0  0  0
    2.5559    9.1793   -0.7379 H   0  0  0  0  0  0  0  0  0  0  0  0
    0.1978    8.4124   -2.9417 H   0  0  0  0  0  0  0  0  0  0  0  0
   -0.2014    7.3849   -1.4522 H   0  0  0  0  0  0  0  0  0  0  0  0
   -1.9775    9.4242   -2.8211 H   0  0  0  0  0  0  0  0  0  0  0  0
   -2.1971    7.6338   -2.7046 H   0  0  0  0  0  0  0  0  0  0  0  0
   -2.4037    7.6206    1.0302 H   0  0  0  0  0  0  0  0  0  0  0  0
   -3.1758    6.6789   -0.2903 H   0  0  0  0  0  0  0  0  0  0  0  0
   -1.3978    6.9343   -0.2903 H   0  0  0  0  0  0  0  0  0  0  0  0
  1  2  1  0
  2  3  1  0
  3  4  1  0
  4  5  1  0
  5  6  1  0
  6  7  1  0
  7  8  1  0
  7  9  1  0
  2 10  1  0
 10 11  1  0
 11 12  1  0
 12 13  1  0
 13 14  1  6
 13 15  1  0
 15 16  1  0
 16 17  1  0
 17 18  2  0
 18 19  1  0
 19 20  1  0
 20 21  1  0
 21 22  1  0
 22 23  1  0
 22 24  1  0
 24 25  1  0
 24 26  1  0
 19 27  1  0
 27 28  1  1
 27 29  1  0
 29 30  1  0
 30 31  1  0
 31 32  1  1
  7  5  1  0
 31 10  1  0
 31 13  1  0
 27 15  1  0
 24 18  1  0
  1 33  1  0
  1 34  1  0
  1 35  1  0
  2 36  1  6
  3 37  1  0
  3 38  1  0
  4 39  1  0
  4 40  1  0
  5 41  1  6
  8 42  1  0
  8 43  1  0
  8 44  1  0
  9 45  1  0
  9 46  1  0
  9 47  1  0
 10 48  1  6
 11 49  1  0
 11 50  1  0
 12 51  1  0
 12 52  1  0
 14 53  1  0
 14 54  1  0
 14 55  1  0
 15 56  1  1
 16 57  1  0
 16 58  1  0
 17 59  1  0
 19 60  1  6
 20 61  1  0
 20 62  1  0
 21 63  1  0
 21 64  1  0
 22 65  1  6
 23 66  1  0
 25 67  1  0
 25 68  1  0
 25 69  1  0
 26 70  1  0
 26 71  1  0
 26 72  1  0
 28 73  1  0
 28 74  1  0
 28 75  1  0
 29 76  1  0
 29 77  1  0
 30 78  1  0
 30 79  1  0
 32 80  1  0
 32 81  1  0
 32 82  1  0
M  END
>  <meeko>  (8) 
{"is_sidechain": [false], "intermolecular_energy": 2.731, "internal_energy": -0.839}

$$$$
EPH_relaxed_0001_pdb2pqr_Repair_303_r2_0001_out
     RDKit          3D

 82 86  0  0  0  0  0  0  0  0999 V2000
    4.2420   16.4980    1.3570 C   0  0  0  0  0  0  0  0  0  0  0  0
    3.8590   16.0620   -0.0600 C   0  0  2  0  0  0  0  0  0  0  0  0
    3.7430   17.2580   -1.0260 C   0  0  0  0  0  0  0  0  0  0  0  0
    3.3410   18.5660   -0.3390 C   0  0  0  0  0  0  0  0  0  0  0  0
    1.8660   18.8150   -0.4400 C   0  0  2  0  0  0  0  0  0  0  0  0
    1.5030   20.1850   -0.6540 O   0  0  0  0  0  0  0  0  0  0  0  0
    1.0780   19.6040    0.5890 C   0  0  0  0  0  0  0  0  0  0  0  0
    1.7410   20.1940    1.7950 C   0  0  0  0  0  0  0  0  0  0  0  0
   -0.4000   19.3860    0.6790 C   0  0  0  0  0  0  0  0  0  0  0  0
    2.5460   15.2880   -0.0290 C   0  0  1  0  0  0  0  0  0  0  0  0
    1.3040   16.2190   -0.0380 C   0  0  0  0  0  0  0  0  0  0  0  0
    0.2060   15.4920   -0.8560 C   0  0  0  0  0  0  0  0  0  0  0  0
    0.7270   14.0440   -1.0070 C   0  0  1  0  0  0  0  0  0  0  0  0
    0.3630   13.3440    0.3400 C   0  0  0  0  0  0  0  0  0  0  0  0
    0.1910   13.2420   -2.2380 C   0  0  2  0  0  0  0  0  0  0  0  0
   -1.3290   13.0040   -2.2500 C   0  0  0  0  0  0  0  0  0  0  0  0
   -1.7830   11.7460   -1.5870 C   0  0  0  0  0  0  0  0  0  0  0  0
   -0.9940   10.7070   -1.2570 C   0  0  0  0  0  0  0  0  0  0  0  0
    0.4920   10.6940   -1.6400 C   0  0  1  0  0  0  0  0  0  0  0  0
    0.8580    9.3140   -2.2480 C   0  0  0  0  0  0  0  0  0  0  0  0
    0.4810    8.1530   -1.3330 C   0  0  0  0  0  0  0  0  0  0  0  0
   -1.0140    8.1660   -1.0230 C   0  0  2  0  0  0  0  0  0  0  0  0
   -1.7370    7.8930   -2.2270 O   0  0  0  0  0  0  0  0  0  0  0  0
   -1.5010    9.5110   -0.4140 C   0  0  0  0  0  0  0  0  0  0  0  0
   -0.9490    9.6620    1.0250 C   0  0  0  0  0  0  0  0  0  0  0  0
   -3.0470    9.4420   -0.2810 C   0  0  0  0  0  0  0  0  0  0  0  0
    0.9870   11.9070   -2.5380 C   0  0  1  0  0  0  0  0  0  0  0  0
    0.7570   11.5820   -4.0460 C   0  0  0  0  0  0  0  0  0  0  0  0
    2.5410   12.0830   -2.3540 C   0  0  0  0  0  0  0  0  0  0  0  0
    3.0050   12.9840   -1.1930 C   0  0  0  0  0  0  0  0  0  0  0  0
    2.2610   14.3230   -1.2070 C   0  0  2  0  0  0  0  0  0  0  0  0
    2.6260   15.0590   -2.5400 C   0  0  0  0  0  0  0  0  0  0  0  0
    3.7003   15.8814    2.0894 H   0  0  0  0  0  0  0  0  0  0  0  0
    5.3252   16.3702    1.4998 H   0  0  0  0  0  0  0  0  0  0  0  0
    3.9756   17.5557    1.4998 H   0  0  0  0  0  0  0  0  0  0  0  0
    4.6645   15.4133   -0.4346 H   0  0  0  0  0  0  0  0  0  0  0  0
    4.7178   17.4068   -1.5134 H   0  0  0  0  0  0  0  0  0  0  0  0
    2.9474   17.0146   -1.7456 H   0  0  0  0  0  0  0  0  0  0  0  0
    3.6214   18.5115    0.7233 H   0  0  0  0  0  0  0  0  0  0  0  0
    3.8635   19.3925   -0.8428 H   0  0  0  0  0  0  0  0  0  0  0  0
    1.7063   17.8245   -0.8909 H   0  0  0  0  0  0  0  0  0  0  0  0
    1.2794   19.7832    2.7050 H   0  0  0  0  0  0  0  0  0  0  0  0
    2.8124   19.9452    1.7830 H   0  0  0  0  0  0  0  0  0  0  0  0
    1.6183   21.2871    1.7830 H   0  0  0  0  0  0  0  0  0  0  0  0
   -0.7004   19.3417    1.7363 H   0  0  0  0  0  0  0  0  0  0  0  0
   -0.9240   20.2166    0.1834 H   0  0  0  0  0  0  0  0  0  0  0  0
   -0.6619   18.4395    0.1834 H   0  0  0  0  0  0  0  0  0  0  0  0
    2.6910   14.7160    0.8993 H   0  0  0  0  0  0  0  0  0  0  0  0
    0.9557   16.3958    0.9903 H   0  0  0  0  0  0  0  0  0  0  0  0
    1.5458   17.1958   -0.4823 H   0  0  0  0  0  0  0  0  0  0  0  0
   -0.7528   15.5055   -0.3171 H   0  0  0  0  0  0  0  0  0  0  0  0
    0.0226   15.9730   -1.8281 H   0  0  0  0  0  0  0  0  0  0  0  0
    0.6904   13.9735    1.1805 H   0  0  0  0  0  0  0  0  0  0  0  0
   -0.7258   13.1970    0.3943 H   0  0  0  0  0  0  0  0  0  0  0  0
    0.8679   12.3682    0.3943 H   0  0  0  0  0  0  0  0  0  0  0  0
    0.3926   13.9290   -3.0731 H   0  0  0  0  0  0  0  0  0  0  0  0
   -1.8096   13.8506   -1.7378 H   0  0  0  0  0  0  0  0  0  0  0  0
   -1.6138   12.9099   -3.3083 H   0  0  0  0  0  0  0  0  0  0  0  0
   -2.8533   11.6611   -1.3479 H   0  0  0  0  0  0  0  0  0  0  0  0
    1.0486   10.8489   -0.7040 H   0  0  0  0  0  0  0  0  0  0  0  0
    0.3255    9.1972   -3.2034 H   0  0  0  0  0  0  0  0  0  0  0  0
    1.9489    9.2891   -2.3868 H   0  0  0  0  0  0  0  0  0  0  0  0
    0.7375    7.2055   -1.8293 H   0  0  0  0  0  0  0  0  0  0  0  0
    1.0363    8.2553   -0.3890 H   0  0  0  0  0  0  0  0  0  0  0  0
   -1.2006    7.3920   -0.2640 H   0  0  0  0  0  0  0  0  0  0  0  0
   -2.5830    7.4850   -1.9750 H   0  0  0  0  0  0  0  0  0  0  0  0
   -1.7478    9.4435    1.7490 H   0  0  0  0  0  0  0  0  0  0  0  0
   -0.1166    8.9586    1.1741 H   0  0  0  0  0  0  0  0  0  0  0  0
   -0.5905   10.6912    1.1741 H   0  0  0  0  0  0  0  0  0  0  0  0
   -3.3232    9.4297    0.7837 H   0  0  0  0  0  0  0  0  0  0  0  0
   -3.4964   10.3210   -0.7662 H   0  0  0  0  0  0  0  0  0  0  0  0
   -3.4163    8.5265   -0.7662 H   0  0  0  0  0  0  0  0  0  0  0  0
    0.1237   10.6871   -4.1358 H   0  0  0  0  0  0  0  0  0  0  0  0
    0.2594   12.4337   -4.5329 H   0  0  0  0  0  0  0  0  0  0  0  0
    1.7257   11.3960   -4.5329 H   0  0  0  0  0  0  0  0  0  0  0  0
    2.9724   11.0840   -2.1930 H   0  0  0  0  0  0  0  0  0  0  0  0
    2.8836   12.5910   -3.2676 H   0  0  0  0  0  0  0  0  0  0  0  0
    2.8074   12.4725   -0.2394 H   0  0  0  0  0  0  0  0  0  0  0  0
    4.0812   13.1795   -1.3093 H   0  0  0  0  0  0  0  0  0  0  0  0
    3.1037   16.0223   -2.3080 H   0  0  0  0  0  0  0  0  0  0  0  0
    3.3200   14.4368   -3.1242 H   0  0  0  0  0  0  0  0  0  0  0  0
    1.7107   15.2349   -3.1242 H   0  0  0  0  0  0  0  0  0  0  0  0
  1  2  1  0
  2  3  1  0
  3  4  1  0
  4  5  1  0
  5  6  1  0
  6  7  1  0
  7  8  1  0
  7  9  1  0
  2 10  1  0
 10 11  1  0
 11 12  1  0
 12 13  1  0
 13 14  1  1
 13 15  1  0
 15 16  1  0
 16 17  1  0
 17 18  2  0
 18 19  1  0
 19 20  1  0
 20 21  1  0
 21 22  1  0
 22 23  1  0
 22 24  1  0
 24 25  1  0
 24 26  1  0
 19 27  1  0
 27 28  1  6
 27 29  1  0
 29 30  1  0
 30 31  1  0
 31 32  1  6
  7  5  1  0
 31 10  1  0
 31 13  1  0
 27 15  1  0
 24 18  1  0
  1 33  1  0
  1 34  1  0
  1 35  1  0
  2 36  1  6
  3 37  1  0
  3 38  1  0
  4 39  1  0
  4 40  1  0
  5 41  1  6
  8 42  1  0
  8 43  1  0
  8 44  1  0
  9 45  1  0
  9 46  1  0
  9 47  1  0
 10 48  1  1
 11 49  1  0
 11 50  1  0
 12 51  1  0
 12 52  1  0
 14 53  1  0
 14 54  1  0
 14 55  1  0
 15 56  1  6
 16 57  1  0
 16 58  1  0
 17 59  1  0
 19 60  1  1
 20 61  1  0
 20 62  1  0
 21 63  1  0
 21 64  1  0
 22 65  1  1
 23 66  1  0
 25 67  1  0
 25 68  1  0
 25 69  1  0
 26 70  1  0
 26 71  1  0
 26 72  1  0
 28 73  1  0
 28 74  1  0
 28 75  1  0
 29 76  1  0
 29 77  1  0
 30 78  1  0
 30 79  1  0
 32 80  1  0
 32 81  1  0
 32 82  1  0
M  END
>  <meeko>  (9) 
{"is_sidechain": [false], "intermolecular_energy": 2.731, "internal_energy": -0.839}

$$$$
EPH_relaxed_0001_pdb2pqr_Repair_303_r2_0001_out
     RDKit          3D

 82 86  0  0  0  0  0  0  0  0999 V2000
    0.8970   17.8100   -0.3110 C   0  0  0  0  0  0  0  0  0  0  0  0
    2.2190   17.0820   -0.0510 C   0  0  2  0  0  0  0  0  0  0  0  0
    3.4330   17.8820   -0.5640 C   0  0  0  0  0  0  0  0  0  0  0  0
    4.5580   18.0230    0.4660 C   0  0  0  0  0  0  0  0  0  0  0  0
    4.0620   18.6130    1.7510 C   0  0  2  0  0  0  0  0  0  0  0  0
    4.4050   19.9910    1.9490 O   0  0  0  0  0  0  0  0  0  0  0  0
    4.9780   19.0550    2.8770 C   0  0  0  0  0  0  0  0  0  0  0  0
    6.4650   18.9240    2.7700 C   0  0  0  0  0  0  0  0  0  0  0  0
    4.4140   19.1560    4.2600 C   0  0  0  0  0  0  0  0  0  0  0  0
    2.1900   15.7050   -0.7030 C   0  0  1  0  0  0  0  0  0  0  0  0
    3.5560   15.3090   -1.3250 C   0  0  0  0  0  0  0  0  0  0  0  0
    3.7090   13.7790   -1.1320 C   0  0  0  0  0  0  0  0  0  0  0  0
    2.3010   13.2960   -0.7120 C   0  0  1  0  0  0  0  0  0  0  0  0
    1.5030   13.1750   -2.0480 C   0  0  0  0  0  0  0  0  0  0  0  0
    2.2430   11.9710    0.1170 C   0  0  2  0  0  0  0  0  0  0  0  0
    2.7710   10.7230   -0.6110 C   0  0  0  0  0  0  0  0  0  0  0  0
    1.7480    9.9550   -1.3820 C   0  0  0  0  0  0  0  0  0  0  0  0
    0.4140   10.0860   -1.2590 C   0  0  0  0  0  0  0  0  0  0  0  0
   -0.1910   11.0140   -0.1980 C   0  0  1  0  0  0  0  0  0  0  0  0
   -1.3360   10.2760    0.5430 C   0  0  0  0  0  0  0  0  0  0  0  0
   -2.3870    9.7180   -0.4120 C   0  0  0  0  0  0  0  0  0  0  0  0
   -1.7560    8.7550   -1.4140 C   0  0  2  0  0  0  0  0  0  0  0  0
   -1.2930    7.5970   -0.7120 O   0  0  0  0  0  0  0  0  0  0  0  0
   -0.5820    9.3850   -2.2140 C   0  0  0  0  0  0  0  0  0  0  0  0
   -1.1350   10.4430   -3.2020 C   0  0  0  0  0  0  0  0  0  0  0  0
    0.0550    8.2690   -3.0850 C   0  0  0  0  0  0  0  0  0  0  0  0
    0.8430   11.6940    0.7990 C   0  0  1  0  0  0  0  0  0  0  0  0
    1.1160   10.7490    2.0090 C   0  0  0  0  0  0  0  0  0  0  0  0
    0.1980   13.0020    1.3950 C   0  0  0  0  0  0  0  0  0  0  0  0
    0.3920   14.3010    0.5900 C   0  0  0  0  0  0  0  0  0  0  0  0
    1.8620   14.4940    0.2060 C   0  0  2  0  0  0  0  0  0  0  0  0
    2.6870   14.6420    1.5300 C   0  0  0  0  0  0  0  0  0  0  0  0
    0.4262   18.0692    0.6488 H   0  0  0  0  0  0  0  0  0  0  0  0
    1.0908   18.7286   -0.8843 H   0  0  0  0  0  0  0  0  0  0  0  0
    0.2243   17.1551   -0.8843 H   0  0  0  0  0  0  0  0  0  0  0  0
    2.3301   16.9759    1.0382 H   0  0  0  0  0  0  0  0  0  0  0  0
    3.8361   17.3708   -1.4506 H   0  0  0  0  0  0  0  0  0  0  0  0
    3.0760   18.8974   -0.7908 H   0  0  0  0  0  0  0  0  0  0  0  0
    4.9811   17.0284    0.6703 H   0  0  0  0  0  0  0  0  0  0  0  0
    5.3207   18.6980    0.0506 H   0  0  0  0  0  0  0  0  0  0  0  0
    3.1743   17.9637    1.7339 H   0  0  0  0  0  0  0  0  0  0  0  0
    6.9032   18.8854    3.7782 H   0  0  0  0  0  0  0  0  0  0  0  0
    6.7136   18.0005    2.2266 H   0  0  0  0  0  0  0  0  0  0  0  0
    6.8712   19.7898    2.2266 H   0  0  0  0  0  0  0  0  0  0  0  0
    5.2190   19.0118    4.9957 H   0  0  0  0  0  0  0  0  0  0  0  0
    3.9626   20.1493    4.4003 H   0  0  0  0  0  0  0  0  0  0  0  0
    3.6460   18.3811    4.4003 H   0  0  0  0  0  0  0  0  0  0  0  0
    1.3780   15.8622   -1.4282 H   0  0  0  0  0  0  0  0  0  0  0  0
    3.5711   15.5590   -2.3961 H   0  0  0  0  0  0  0  0  0  0  0  0
    4.3818   15.8523   -0.8424 H   0  0  0  0  0  0  0  0  0  0  0  0
    4.0203   13.2983   -2.0712 H   0  0  0  0  0  0  0  0  0  0  0  0
    4.4763   13.5274   -0.3851 H   0  0  0  0  0  0  0  0  0  0  0  0
    0.4379   13.0135   -1.8256 H   0  0  0  0  0  0  0  0  0  0  0  0
    1.6197   14.1011   -2.6300 H   0  0  0  0  0  0  0  0  0  0  0  0
    1.8890   12.3251   -2.6300 H   0  0  0  0  0  0  0  0  0  0  0  0
    2.9589   12.1685    0.9284 H   0  0  0  0  0  0  0  0  0  0  0  0
    3.5548   11.0446   -1.3125 H   0  0  0  0  0  0  0  0  0  0  0  0
    3.1348   10.0434    0.1737 H   0  0  0  0  0  0  0  0  0  0  0  0
    2.1161    9.2197   -2.1126 H   0  0  0  0  0  0  0  0  0  0  0  0
   -0.5967   11.8778   -0.7450 H   0  0  0  0  0  0  0  0  0  0  0  0
   -0.9047    9.4434    1.1181 H   0  0  0  0  0  0  0  0  0  0  0  0
   -1.8342   11.0056    1.1984 H   0  0  0  0  0  0  0  0  0  0  0  0
   -3.1531    9.1829    0.1684 H   0  0  0  0  0  0  0  0  0  0  0  0
   -2.8387   10.5546   -0.9652 H   0  0  0  0  0  0  0  0  0  0  0  0
   -2.5301    8.4907   -2.1494 H   0  0  0  0  0  0  0  0  0  0  0  0
   -1.3250    6.8460   -1.3290 H   0  0  0  0  0  0  0  0  0  0  0  0
   -1.5721   11.2793   -2.6368 H   0  0  0  0  0  0  0  0  0  0  0  0
   -0.3167   10.8164   -3.8353 H   0  0  0  0  0  0  0  0  0  0  0  0
   -1.9087    9.9843   -3.8353 H   0  0  0  0  0  0  0  0  0  0  0  0
    0.4939    7.5000   -2.4323 H   0  0  0  0  0  0  0  0  0  0  0  0
   -0.7188    7.8129   -3.7200 H   0  0  0  0  0  0  0  0  0  0  0  0
    0.8413    8.7033   -3.7200 H   0  0  0  0  0  0  0  0  0  0  0  0
    0.9568   11.2999    2.9477 H   0  0  0  0  0  0  0  0  0  0  0  0
    0.4290    9.8910    1.9664 H   0  0  0  0  0  0  0  0  0  0  0  0
    2.1547   10.3895    1.9664 H   0  0  0  0  0  0  0  0  0  0  0  0
   -0.8839   12.8268    1.4883 H   0  0  0  0  0  0  0  0  0  0  0  0
    0.7212   13.1727    2.3474 H   0  0  0  0  0  0  0  0  0  0  0  0
   -0.2155   14.2509   -0.3257 H   0  0  0  0  0  0  0  0  0  0  0  0
    0.0783   15.1505    1.2144 H   0  0  0  0  0  0  0  0  0  0  0  0
    2.0175   14.5219    2.3945 H   0  0  0  0  0  0  0  0  0  0  0  0
    3.4699   13.8700    1.5624 H   0  0  0  0  0  0  0  0  0  0  0  0
    3.1527   15.6380    1.5624 H   0  0  0  0  0  0  0  0  0  0  0  0
  1  2  1  0
  2  3  1  0
  3  4  1  0
  4  5  1  0
  5  6  1  0
  6  7  1  0
  7  8  1  0
  7  9  1  0
  2 10  1  0
 10 11  1  0
 11 12  1  0
 12 13  1  0
 13 14  1  6
 13 15  1  0
 15 16  1  0
 16 17  1  0
 17 18  2  0
 18 19  1  0
 19 20  1  0
 20 21  1  0
 21 22  1  0
 22 23  1  0
 22 24  1  0
 24 25  1  0
 24 26  1  0
 19 27  1  0
 27 28  1  1
 27 29  1  0
 29 30  1  0
 30 31  1  0
 31 32  1  1
  7  5  1  0
 31 10  1  0
 31 13  1  0
 27 15  1  0
 24 18  1  0
  1 33  1  0
  1 34  1  0
  1 35  1  0
  2 36  1  1
  3 37  1  0
  3 38  1  0
  4 39  1  0
  4 40  1  0
  5 41  1  1
  8 42  1  0
  8 43  1  0
  8 44  1  0
  9 45  1  0
  9 46  1  0
  9 47  1  0
 10 48  1  6
 11 49  1  0
 11 50  1  0
 12 51  1  0
 12 52  1  0
 14 53  1  0
 14 54  1  0
 14 55  1  0
 15 56  1  1
 16 57  1  0
 16 58  1  0
 17 59  1  0
 19 60  1  6
 20 61  1  0
 20 62  1  0
 21 63  1  0
 21 64  1  0
 22 65  1  6
 23 66  1  0
 25 67  1  0
 25 68  1  0
 25 69  1  0
 26 70  1  0
 26 71  1  0
 26 72  1  0
 28 73  1  0
 28 74  1  0
 28 75  1  0
 29 76  1  0
 29 77  1  0
 30 78  1  0
 30 79  1  0
 32 80  1  0
 32 81  1  0
 32 82  1  0
M  END
>  <meeko>  (10) 
{"is_sidechain": [false], "intermolecular_energy": 2.731, "internal_energy": -0.839}

$$$$
EPH_relaxed_0001_pdb2pqr_Repair_303_r2_0001_out
     RDKit          3D

 82 86  0  0  0  0  0  0  0  0999 V2000
   -5.1970    6.2930   -3.7260 C   0  0  0  0  0  0  0  0  0  0  0  0
   -5.9350    7.3080   -2.8500 C   0  0  2  0  0  0  0  0  0  0  0  0
   -5.1990    7.5730   -1.5210 C   0  0  0  0  0  0  0  0  0  0  0  0
   -3.7030    7.8480   -1.6910 C   0  0  0  0  0  0  0  0  0  0  0  0
   -3.1720    8.7220   -0.5950 C   0  0  2  0  0  0  0  0  0  0  0  0
   -3.1740   10.1240   -0.8920 O   0  0  0  0  0  0  0  0  0  0  0  0
   -1.8850    9.5170   -0.7080 C   0  0  0  0  0  0  0  0  0  0  0  0
   -1.0490    9.4760   -1.9490 C   0  0  0  0  0  0  0  0  0  0  0  0
   -1.1930    9.9420    0.5490 C   0  0  0  0  0  0  0  0  0  0  0  0
   -7.3530    6.8210   -2.5720 C   0  0  1  0  0  0  0  0  0  0  0  0
   -7.4770    5.2750   -2.6390 C   0  0  0  0  0  0  0  0  0  0  0  0
   -8.5210    4.8640   -1.5700 C   0  0  0  0  0  0  0  0  0  0  0  0
   -9.2010    6.1900   -1.1580 C   0  0  1  0  0  0  0  0  0  0  0  0
  -10.2620    6.4600   -2.2710 C   0  0  0  0  0  0  0  0  0  0  0  0
   -9.8410    6.2250    0.2680 C   0  0  2  0  0  0  0  0  0  0  0  0
  -10.9930    5.2300    0.4920 C   0  0  0  0  0  0  0  0  0  0  0  0
  -12.3560    5.7500    0.1750 C   0  0  0  0  0  0  0  0  0  0  0  0
  -12.6780    7.0450    0.0020 C   0  0  0  0  0  0  0  0  0  0  0  0
  -11.6380    8.1510    0.2200 C   0  0  1  0  0  0  0  0  0  0  0  0
  -12.2600    9.2860    1.0760 C   0  0  0  0  0  0  0  0  0  0  0  0
  -13.5620    9.8180    0.4850 C   0  0  0  0  0  0  0  0  0  0  0  0
  -14.5910    8.6990    0.3370 C   0  0  2  0  0  0  0  0  0  0  0  0
  -14.9740    8.2500    1.6410 O   0  0  0  0  0  0  0  0  0  0  0  0
  -14.0720    7.4960   -0.4990 C   0  0  0  0  0  0  0  0  0  0  0  0
  -13.9440    7.9120   -1.9850 C   0  0  0  0  0  0  0  0  0  0  0  0
  -15.1520    6.3810   -0.4510 C   0  0  0  0  0  0  0  0  0  0  0  0
  -10.2250    7.6760    0.7710 C   0  0  1  0  0  0  0  0  0  0  0  0
  -10.2550    7.6130    2.3290 C   0  0  0  0  0  0  0  0  0  0  0  0
   -9.1370    8.7480    0.3910 C   0  0  0  0  0  0  0  0  0  0  0  0
   -8.4560    8.5910   -0.9820 C   0  0  0  0  0  0  0  0  0  0  0  0
   -7.9610    7.1560   -1.1870 C   0  0  2  0  0  0  0  0  0  0  0  0
   -6.8770    6.8630   -0.0940 C   0  0  0  0  0  0  0  0  0  0  0  0
   -4.6711    5.5697   -3.0855 H   0  0  0  0  0  0  0  0  0  0  0  0
   -5.9212    5.7617   -4.3611 H   0  0  0  0  0  0  0  0  0  0  0  0
   -4.4683    6.8181   -4.3611 H   0  0  0  0  0  0  0  0  0  0  0  0
   -5.9696    8.2583   -3.4029 H   0  0  0  0  0  0  0  0  0  0  0  0
   -5.6600    8.4466   -1.0368 H   0  0  0  0  0  0  0  0  0  0  0  0
   -5.2914    6.6600   -0.9145 H   0  0  0  0  0  0  0  0  0  0  0  0
   -3.1609    6.8910   -1.6781 H   0  0  0  0  0  0  0  0  0  0  0  0
   -3.5570    8.3708   -2.6477 H   0  0  0  0  0  0  0  0  0  0  0  0
   -3.5448    8.0265    0.1713 H   0  0  0  0  0  0  0  0  0  0  0  0
    0.0146    9.4238   -1.6731 H   0  0  0  0  0  0  0  0  0  0  0  0
   -1.3176    8.5899   -2.5429 H   0  0  0  0  0  0  0  0  0  0  0  0
   -1.2296   10.3841   -2.5429 H   0  0  0  0  0  0  0  0  0  0  0  0
   -1.7657    9.5902    1.4198 H   0  0  0  0  0  0  0  0  0  0  0  0
   -0.1823    9.5087    0.5756 H   0  0  0  0  0  0  0  0  0  0  0  0
   -1.1223   11.0394    0.5756 H   0  0  0  0  0  0  0  0  0  0  0  0
   -7.8932    7.3644   -3.3612 H   0  0  0  0  0  0  0  0  0  0  0  0
   -7.8160    4.9650   -3.6385 H   0  0  0  0  0  0  0  0  0  0  0  0
   -6.5069    4.7922   -2.4500 H   0  0  0  0  0  0  0  0  0  0  0  0
   -9.2572    4.1657   -1.9947 H   0  0  0  0  0  0  0  0  0  0  0  0
   -8.0607    4.3481   -0.7144 H   0  0  0  0  0  0  0  0  0  0  0  0
  -11.2277    6.7057   -1.8051 H   0  0  0  0  0  0  0  0  0  0  0  0
   -9.9314    7.3026   -2.8960 H   0  0  0  0  0  0  0  0  0  0  0  0
  -10.3744    5.5618   -2.8960 H   0  0  0  0  0  0  0  0  0  0  0  0
   -9.0155    5.8739    0.9046 H   0  0  0  0  0  0  0  0  0  0  0  0
  -10.8095    4.3495   -0.1412 H   0  0  0  0  0  0  0  0  0  0  0  0
  -10.9960    5.0056    1.5689 H   0  0  0  0  0  0  0  0  0  0  0  0
  -13.1656    5.0121    0.0743 H   0  0  0  0  0  0  0  0  0  0  0  0
  -11.3868    8.5328   -0.7806 H   0  0  0  0  0  0  0  0  0  0  0  0
  -12.4638    8.8961    2.0842 H   0  0  0  0  0  0  0  0  0  0  0  0
  -11.5405   10.1176    1.1014 H   0  0  0  0  0  0  0  0  0  0  0  0
  -13.9680   10.5950    1.1494 H   0  0  0  0  0  0  0  0  0  0  0  0
  -13.3512   10.2354   -0.5107 H   0  0  0  0  0  0  0  0  0  0  0  0
  -15.4516    9.1120   -0.2096 H   0  0  0  0  0  0  0  0  0  0  0  0
  -14.7630    7.3030    1.6990 H   0  0  0  0  0  0  0  0  0  0  0  0
  -13.6210    8.9618   -2.0454 H   0  0  0  0  0  0  0  0  0  0  0  0
  -13.2016    7.2707   -2.4826 H   0  0  0  0  0  0  0  0  0  0  0  0
  -14.9185    7.7990   -2.4826 H   0  0  0  0  0  0  0  0  0  0  0  0
  -15.3847    6.1408    0.5969 H   0  0  0  0  0  0  0  0  0  0  0  0
  -16.0633    6.7311   -0.9580 H   0  0  0  0  0  0  0  0  0  0  0  0
  -14.7730    5.4814   -0.9580 H   0  0  0  0  0  0  0  0  0  0  0  0
   -9.8166    8.5336    2.7417 H   0  0  0  0  0  0  0  0  0  0  0  0
  -11.2957    7.5166    2.6721 H   0  0  0  0  0  0  0  0  0  0  0  0
   -9.6739    6.7443    2.6721 H   0  0  0  0  0  0  0  0  0  0  0  0
   -9.6216    9.7353    0.4110 H   0  0  0  0  0  0  0  0  0  0  0  0
   -8.3317    8.6143    1.1283 H   0  0  0  0  0  0  0  0  0  0  0  0
   -9.1792    8.8387   -1.7729 H   0  0  0  0  0  0  0  0  0  0  0  0
   -7.5916    9.2699   -1.0247 H   0  0  0  0  0  0  0  0  0  0  0  0
   -7.3217    6.9832    0.9049 H   0  0  0  0  0  0  0  0  0  0  0  0
   -6.5086    5.8330   -0.2098 H   0  0  0  0  0  0  0  0  0  0  0  0
   -6.0398    7.5671   -0.2098 H   0  0  0  0  0  0  0  0  0  0  0  0
  1  2  1  0
  2  3  1  0
  3  4  1  0
  4  5  1  0
  5  6  1  0
  6  7  1  0
  7  8  1  0
  7  9  1  0
  2 10  1  0
 10 11  1  0
 11 12  1  0
 12 13  1  0
 13 14  1  6
 13 15  1  0
 15 16  1  0
 16 17  1  0
 17 18  2  0
 18 19  1  0
 19 20  1  0
 20 21  1  0
 21 22  1  0
 22 23  1  0
 22 24  1  0
 24 25  1  0
 24 26  1  0
 19 27  1  0
 27 28  1  1
 27 29  1  0
 29 30  1  0
 30 31  1  0
 31 32  1  1
  7  5  1  0
 31 10  1  0
 31 13  1  0
 27 15  1  0
 24 18  1  0
  1 33  1  0
  1 34  1  0
  1 35  1  0
  2 36  1  6
  3 37  1  0
  3 38  1  0
  4 39  1  0
  4 40  1  0
  5 41  1  1
  8 42  1  0
  8 43  1  0
  8 44  1  0
  9 45  1  0
  9 46  1  0
  9 47  1  0
 10 48  1  6
 11 49  1  0
 11 50  1  0
 12 51  1  0
 12 52  1  0
 14 53  1  0
 14 54  1  0
 14 55  1  0
 15 56  1  1
 16 57  1  0
 16 58  1  0
 17 59  1  0
 19 60  1  6
 20 61  1  0
 20 62  1  0
 21 63  1  0
 21 64  1  0
 22 65  1  6
 23 66  1  0
 25 67  1  0
 25 68  1  0
 25 69  1  0
 26 70  1  0
 26 71  1  0
 26 72  1  0
 28 73  1  0
 28 74  1  0
 28 75  1  0
 29 76  1  0
 29 77  1  0
 30 78  1  0
 30 79  1  0
 32 80  1  0
 32 81  1  0
 32 82  1  0
M  END
>  <meeko>  (11) 
{"is_sidechain": [false], "intermolecular_energy": 2.731, "internal_energy": -0.839}

$$$$
EPH_relaxed_0001_pdb2pqr_Repair_303_r2_0001_out
     RDKit          3D

 82 86  0  0  0  0  0  0  0  0999 V2000
  -13.9190    9.7080    1.1060 C   0  0  0  0  0  0  0  0  0  0  0  0
  -13.2850    9.2980   -0.2270 C   0  0  2  0  0  0  0  0  0  0  0  0
  -14.2370    8.4380   -1.0820 C   0  0  0  0  0  0  0  0  0  0  0  0
  -15.2570    9.2550   -1.8790 C   0  0  0  0  0  0  0  0  0  0  0  0
  -14.6220    9.9450   -3.0480 C   0  0  2  0  0  0  0  0  0  0  0  0
  -13.4840   10.7530   -2.7210 O   0  0  0  0  0  0  0  0  0  0  0  0
  -14.6300   11.4510   -3.2360 C   0  0  0  0  0  0  0  0  0  0  0  0
  -15.2860   12.3580   -2.2420 C   0  0  0  0  0  0  0  0  0  0  0  0
  -14.4310   12.0020   -4.6130 C   0  0  0  0  0  0  0  0  0  0  0  0
  -11.9860    8.5430    0.0260 C   0  0  1  0  0  0  0  0  0  0  0  0
  -12.1580    7.3800    1.0400 C   0  0  0  0  0  0  0  0  0  0  0  0
  -11.2070    6.2440    0.5840 C   0  0  0  0  0  0  0  0  0  0  0  0
  -10.2860    6.9060   -0.4680 C   0  0  1  0  0  0  0  0  0  0  0  0
   -9.1970    7.6520    0.3650 C   0  0  0  0  0  0  0  0  0  0  0  0
   -9.6460    5.9480   -1.5260 C   0  0  2  0  0  0  0  0  0  0  0  0
   -8.7040    4.8760   -0.9510 C   0  0  0  0  0  0  0  0  0  0  0  0
   -7.2680    5.2740   -0.8570 C   0  0  0  0  0  0  0  0  0  0  0  0
   -6.7060    6.3280   -1.4760 C   0  0  0  0  0  0  0  0  0  0  0  0
   -7.5160    7.1940   -2.4500 C   0  0  1  0  0  0  0  0  0  0  0  0
   -6.6870    7.4390   -3.7370 C   0  0  0  0  0  0  0  0  0  0  0  0
   -5.3090    8.0250   -3.4430 C   0  0  0  0  0  0  0  0  0  0  0  0
   -4.5130    7.1080   -2.5180 C   0  0  2  0  0  0  0  0  0  0  0  0
   -4.2180    5.8940   -3.2160 O   0  0  0  0  0  0  0  0  0  0  0  0
   -5.2530    6.7820   -1.1910 C   0  0  0  0  0  0  0  0  0  0  0  0
   -5.3050    8.0480   -0.3000 C   0  0  0  0  0  0  0  0  0  0  0  0
   -4.4050    5.7390   -0.4150 C   0  0  0  0  0  0  0  0  0  0  0  0
   -8.9920    6.6910   -2.7600 C   0  0  1  0  0  0  0  0  0  0  0  0
   -8.9690    5.6670   -3.9360 C   0  0  0  0  0  0  0  0  0  0  0  0
   -9.8570    7.9120   -3.2520 C   0  0  0  0  0  0  0  0  0  0  0  0
  -10.5600    8.7470   -2.1650 C   0  0  0  0  0  0  0  0  0  0  0  0
  -11.3200    7.8460   -1.1870 C   0  0  2  0  0  0  0  0  0  0  0  0
  -12.4360    7.0990   -1.9930 C   0  0  0  0  0  0  0  0  0  0  0  0
  -13.3130    9.3161    1.9362 H   0  0  0  0  0  0  0  0  0  0  0  0
  -13.9619   10.8053    1.1695 H   0  0  0  0  0  0  0  0  0  0  0  0
  -14.9373    9.2970    1.1695 H   0  0  0  0  0  0  0  0  0  0  0  0
  -13.0755   10.2187   -0.7913 H   0  0  0  0  0  0  0  0  0  0  0  0
  -13.6332    7.8510   -1.7897 H   0  0  0  0  0  0  0  0  0  0  0  0
  -14.8065    7.8026   -0.3878 H   0  0  0  0  0  0  0  0  0  0  0  0
  -16.0442    8.5808   -2.2474 H   0  0  0  0  0  0  0  0  0  0  0  0
  -15.6764   10.0237   -1.2132 H   0  0  0  0  0  0  0  0  0  0  0  0
  -14.8980    9.1164   -3.7168 H   0  0  0  0  0  0  0  0  0  0  0  0
  -15.0431   12.0222   -1.2231 H   0  0  0  0  0  0  0  0  0  0  0  0
  -14.9207   13.3855   -2.3863 H   0  0  0  0  0  0  0  0  0  0  0  0
  -16.3762   12.3328   -2.3863 H   0  0  0  0  0  0  0  0  0  0  0  0
  -14.0581   13.0346   -4.5444 H   0  0  0  0  0  0  0  0  0  0  0  0
  -13.6996   11.3831   -5.1534 H   0  0  0  0  0  0  0  0  0  0  0  0
  -15.3891   11.9933   -5.1534 H   0  0  0  0  0  0  0  0  0  0  0  0
  -11.3557    9.3740    0.3755 H   0  0  0  0  0  0  0  0  0  0  0  0
  -11.8879    7.7167    2.0518 H   0  0  0  0  0  0  0  0  0  0  0  0
  -13.2015    7.0332    1.0696 H   0  0  0  0  0  0  0  0  0  0  0  0
  -10.6183    5.8660    1.4328 H   0  0  0  0  0  0  0  0  0  0  0  0
  -11.7533    5.3806    0.1764 H   0  0  0  0  0  0  0  0  0  0  0  0
   -9.3978    7.5145    1.4377 H   0  0  0  0  0  0  0  0  0  0  0  0
   -8.2053    7.2427    0.1222 H   0  0  0  0  0  0  0  0  0  0  0  0
   -9.2205    8.7246    0.1222 H   0  0  0  0  0  0  0  0  0  0  0  0
  -10.5204    5.4014   -1.9090 H   0  0  0  0  0  0  0  0  0  0  0  0
   -9.0538    4.6233    0.0608 H   0  0  0  0  0  0  0  0  0  0  0  0
   -8.7404    4.0301   -1.6533 H   0  0  0  0  0  0  0  0  0  0  0  0
   -6.6138    4.6524   -0.2280 H   0  0  0  0  0  0  0  0  0  0  0  0
   -7.6934    8.1492   -1.9340 H   0  0  0  0  0  0  0  0  0  0  0  0
   -6.5580    6.4805   -4.2611 H   0  0  0  0  0  0  0  0  0  0  0  0
   -7.2348    8.1671   -4.3533 H   0  0  0  0  0  0  0  0  0  0  0  0
   -4.7603    8.1469   -4.3886 H   0  0  0  0  0  0  0  0  0  0  0  0
   -5.4395    8.9977   -2.9462 H   0  0  0  0  0  0  0  0  0  0  0  0
   -3.5917    7.6403   -2.2389 H   0  0  0  0  0  0  0  0  0  0  0  0
   -3.6760    5.3410   -2.6270 H   0  0  0  0  0  0  0  0  0  0  0  0
   -5.2928    7.7516    0.7593 H   0  0  0  0  0  0  0  0  0  0  0  0
   -4.4322    8.6826   -0.5133 H   0  0  0  0  0  0  0  0  0  0  0  0
   -6.2269    8.6088   -0.5133 H   0  0  0  0  0  0  0  0  0  0  0  0
   -4.5318    5.8949    0.6665 H   0  0  0  0  0  0  0  0  0  0  0  0
   -4.7380    4.7249   -0.6808 H   0  0  0  0  0  0  0  0  0  0  0  0
   -3.3442    5.8580   -0.6808 H   0  0  0  0  0  0  0  0  0  0  0  0
   -8.9460    4.6444   -3.5314 H   0  0  0  0  0  0  0  0  0  0  0  0
   -9.8703    5.7970   -4.5531 H   0  0  0  0  0  0  0  0  0  0  0  0
   -8.0745    5.8373   -4.5531 H   0  0  0  0  0  0  0  0  0  0  0  0
   -9.1927    8.5864   -3.8122 H   0  0  0  0  0  0  0  0  0  0  0  0
  -10.6700    7.4686   -3.8456 H   0  0  0  0  0  0  0  0  0  0  0  0
   -9.8054    9.3241   -1.6104 H   0  0  0  0  0  0  0  0  0  0  0  0
  -11.2797    9.4216   -2.6518 H   0  0  0  0  0  0  0  0  0  0  0  0
  -13.1408    6.6273   -1.2925 H   0  0  0  0  0  0  0  0  0  0  0  0
  -12.9751    7.8189   -2.6263 H   0  0  0  0  0  0  0  0  0  0  0  0
  -11.9759    6.3262   -2.6263 H   0  0  0  0  0  0  0  0  0  0  0  0
  1  2  1  0
  2  3  1  0
  3  4  1  0
  4  5  1  0
  5  6  1  0
  6  7  1  0
  7  8  1  0
  7  9  1  0
  2 10  1  0
 10 11  1  0
 11 12  1  0
 12 13  1  0
 13 14  1  1
 13 15  1  0
 15 16  1  0
 16 17  1  0
 17 18  2  0
 18 19  1  0
 19 20  1  0
 20 21  1  0
 21 22  1  0
 22 23  1  0
 22 24  1  0
 24 25  1  0
 24 26  1  0
 19 27  1  0
 27 28  1  6
 27 29  1  0
 29 30  1  0
 30 31  1  0
 31 32  1  6
  7  5  1  0
 31 10  1  0
 31 13  1  0
 27 15  1  0
 24 18  1  0
  1 33  1  0
  1 34  1  0
  1 35  1  0
  2 36  1  6
  3 37  1  0
  3 38  1  0
  4 39  1  0
  4 40  1  0
  5 41  1  6
  8 42  1  0
  8 43  1  0
  8 44  1  0
  9 45  1  0
  9 46  1  0
  9 47  1  0
 10 48  1  1
 11 49  1  0
 11 50  1  0
 12 51  1  0
 12 52  1  0
 14 53  1  0
 14 54  1  0
 14 55  1  0
 15 56  1  6
 16 57  1  0
 16 58  1  0
 17 59  1  0
 19 60  1  1
 20 61  1  0
 20 62  1  0
 21 63  1  0
 21 64  1  0
 22 65  1  1
 23 66  1  0
 25 67  1  0
 25 68  1  0
 25 69  1  0
 26 70  1  0
 26 71  1  0
 26 72  1  0
 28 73  1  0
 28 74  1  0
 28 75  1  0
 29 76  1  0
 29 77  1  0
 30 78  1  0
 30 79  1  0
 32 80  1  0
 32 81  1  0
 32 82  1  0
M  END
>  <meeko>  (12) 
{"is_sidechain": [false], "intermolecular_energy": 2.731, "internal_energy": -0.839}

$$$$
EPH_relaxed_0001_pdb2pqr_Repair_303_r2_0001_out
     RDKit          3D

 82 86  0  0  0  0  0  0  0  0999 V2000
    3.9010   17.4760    0.0020 C   0  0  0  0  0  0  0  0  0  0  0  0
    2.6440   17.1920   -0.8240 C   0  0  2  0  0  0  0  0  0  0  0  0
    1.3540   17.5580   -0.0630 C   0  0  0  0  0  0  0  0  0  0  0  0
    1.3600   18.9780    0.5110 C   0  0  0  0  0  0  0  0  0  0  0  0
    0.1840   19.7740    0.0340 C   0  0  2  0  0  0  0  0  0  0  0  0
   -0.7150   20.1940    1.0680 O   0  0  0  0  0  0  0  0  0  0  0  0
   -1.2470   19.2750    0.1000 C   0  0  0  0  0  0  0  0  0  0  0  0
   -1.5780   17.9270    0.6590 C   0  0  0  0  0  0  0  0  0  0  0  0
   -2.2610   19.8850   -0.8160 C   0  0  0  0  0  0  0  0  0  0  0  0
    2.6100   15.7230   -1.2290 C   0  0  1  0  0  0  0  0  0  0  0  0
    4.0220   15.1500   -1.5190 C   0  0  0  0  0  0  0  0  0  0  0  0
    4.0120   13.6740   -1.0470 C   0  0  0  0  0  0  0  0  0  0  0  0
    2.5180   13.3490   -0.8120 C   0  0  1  0  0  0  0  0  0  0  0  0
    1.9490   13.0320   -2.2300 C   0  0  0  0  0  0  0  0  0  0  0  0
    2.2120   12.2010    0.2030 C   0  0  2  0  0  0  0  0  0  0  0  0
    2.7480   10.8150   -0.1970 C   0  0  0  0  0  0  0  0  0  0  0  0
    1.8090    9.9760   -0.9990 C   0  0  0  0  0  0  0  0  0  0  0  0
    0.4890   10.1980   -1.1420 C   0  0  0  0  0  0  0  0  0  0  0  0
   -0.2060   11.3330   -0.3790 C   0  0  1  0  0  0  0  0  0  0  0  0
   -1.5170   10.8010    0.2580 C   0  0  0  0  0  0  0  0  0  0  0  0
   -2.4360   10.1370   -0.7630 C   0  0  0  0  0  0  0  0  0  0  0  0
   -1.7280    8.9770   -1.4590 C   0  0  2  0  0  0  0  0  0  0  0  0
   -1.4880    7.9420   -0.5010 O   0  0  0  0  0  0  0  0  0  0  0  0
   -0.3880    9.3900   -2.1300 C   0  0  0  0  0  0  0  0  0  0  0  0
   -0.6760   10.2800   -3.3640 C   0  0  0  0  0  0  0  0  0  0  0  0
    0.2910    8.1030   -2.6710 C   0  0  0  0  0  0  0  0  0  0  0  0
    0.6990   12.1260    0.6600 C   0  0  1  0  0  0  0  0  0  0  0  0
    0.6850   11.4000    2.0400 C   0  0  0  0  0  0  0  0  0  0  0  0
    0.0750   13.5510    0.9010 C   0  0  0  0  0  0  0  0  0  0  0  0
    0.5090   14.6720   -0.0630 C   0  0  0  0  0  0  0  0  0  0  0  0
    2.0330   14.7150   -0.2030 C   0  0  2  0  0  0  0  0  0  0  0  0
    2.6330   15.0550    1.2040 C   0  0  0  0  0  0  0  0  0  0  0  0
    3.6562   17.4207    1.0730 H   0  0  0  0  0  0  0  0  0  0  0  0
    4.6730   16.7296   -0.2367 H   0  0  0  0  0  0  0  0  0  0  0  0
    4.2771   18.4818   -0.2367 H   0  0  0  0  0  0  0  0  0  0  0  0
    2.6882   17.8251   -1.7224 H   0  0  0  0  0  0  0  0  0  0  0  0
    0.5044   17.4670   -0.7557 H   0  0  0  0  0  0  0  0  0  0  0  0
    1.2763   16.8669    0.7893 H   0  0  0  0  0  0  0  0  0  0  0  0
    1.3285   18.9187    1.6089 H   0  0  0  0  0  0  0  0  0  0  0  0
    2.2762   19.4819    0.1693 H   0  0  0  0  0  0  0  0  0  0  0  0
    0.7785   20.2033   -0.7859 H   0  0  0  0  0  0  0  0  0  0  0  0
   -1.5667   17.9729    1.7580 H   0  0  0  0  0  0  0  0  0  0  0  0
   -2.5775   17.6227    0.3150 H   0  0  0  0  0  0  0  0  0  0  0  0
   -0.8331   17.1944    0.3150 H   0  0  0  0  0  0  0  0  0  0  0  0
   -3.0534   20.3617   -0.2203 H   0  0  0  0  0  0  0  0  0  0  0  0
   -1.7745   20.6405   -1.4505 H   0  0  0  0  0  0  0  0  0  0  0  0
   -2.7005   19.1012   -1.4505 H   0  0  0  0  0  0  0  0  0  0  0  0
    1.9477   15.7892   -2.1048 H   0  0  0  0  0  0  0  0  0  0  0  0
    4.2376   15.2016   -2.5964 H   0  0  0  0  0  0  0  0  0  0  0  0
    4.7975   15.7270   -0.9940 H   0  0  0  0  0  0  0  0  0  0  0  0
    4.4354   13.0162   -1.8203 H   0  0  0  0  0  0  0  0  0  0  0  0
    4.6192   13.5214   -0.1425 H   0  0  0  0  0  0  0  0  0  0  0  0
    0.9920   12.4988   -2.1303 H   0  0  0  0  0  0  0  0  0  0  0  0
    1.7898   13.9714   -2.7796 H   0  0  0  0  0  0  0  0  0  0  0  0
    2.6641   12.4022   -2.7796 H   0  0  0  0  0  0  0  0  0  0  0  0
    2.7969   12.5039    1.0840 H   0  0  0  0  0  0  0  0  0  0  0  0
    3.6630   10.9623   -0.7895 H   0  0  0  0  0  0  0  0  0  0  0  0
    2.9157   10.2701    0.7437 H   0  0  0  0  0  0  0  0  0  0  0  0
    2.2316    9.1024   -1.5169 H   0  0  0  0  0  0  0  0  0  0  0  0
   -0.4403   12.1042   -1.1275 H   0  0  0  0  0  0  0  0  0  0  0  0
   -1.2589   10.0635    1.0322 H   0  0  0  0  0  0  0  0  0  0  0  0
   -2.0554   11.6615    0.6820 H   0  0  0  0  0  0  0  0  0  0  0  0
   -3.3307    9.7565   -0.2486 H   0  0  0  0  0  0  0  0  0  0  0  0
   -2.7171   10.8831   -1.5208 H   0  0  0  0  0  0  0  0  0  0  0  0
   -2.3869    8.6255   -2.2666 H   0  0  0  0  0  0  0  0  0  0  0  0
   -0.5910    8.0690   -0.1490 H   0  0  0  0  0  0  0  0  0  0  0  0
   -0.9986   11.2771   -3.0297 H   0  0  0  0  0  0  0  0  0  0  0  0
    0.2375   10.3741   -3.9695 H   0  0  0  0  0  0  0  0  0  0  0  0
   -1.4715    9.8211   -3.9695 H   0  0  0  0  0  0  0  0  0  0  0  0
    0.6200    7.4794   -1.8267 H   0  0  0  0  0  0  0  0  0  0  0  0
   -0.4273    7.5398   -3.2848 H   0  0  0  0  0  0  0  0  0  0  0  0
    1.1614    8.3779   -3.2848 H   0  0  0  0  0  0  0  0  0  0  0  0
    0.6994   12.1469    2.8474 H   0  0  0  0  0  0  0  0  0  0  0  0
   -0.2251   10.7878    2.1230 H   0  0  0  0  0  0  0  0  0  0  0  0
    1.5708   10.7532    2.1230 H   0  0  0  0  0  0  0  0  0  0  0  0
   -1.0180   13.4525    0.8262 H   0  0  0  0  0  0  0  0  0  0  0  0
    0.4434   13.8629    1.8894 H   0  0  0  0  0  0  0  0  0  0  0  0
    0.0619   14.4898   -1.0514 H   0  0  0  0  0  0  0  0  0  0  0  0
    0.1668   15.6355    0.3428 H   0  0  0  0  0  0  0  0  0  0  0  0
    1.9632   14.6754    1.9897 H   0  0  0  0  0  0  0  0  0  0  0  0
    3.6213   14.5827    1.3050 H   0  0  0  0  0  0  0  0  0  0  0  0
    2.7357   16.1455    1.3050 H   0  0  0  0  0  0  0  0  0  0  0  0
  1  2  1  0
  2  3  1  0
  3  4  1  0
  4  5  1  0
  5  6  1  0
  6  7  1  0
  7  8  1  0
  7  9  1  0
  2 10  1  0
 10 11  1  0
 11 12  1  0
 12 13  1  0
 13 14  1  6
 13 15  1  0
 15 16  1  0
 16 17  1  0
 17 18  2  0
 18 19  1  0
 19 20  1  0
 20 21  1  0
 21 22  1  0
 22 23  1  0
 22 24  1  0
 24 25  1  0
 24 26  1  0
 19 27  1  0
 27 28  1  1
 27 29  1  0
 29 30  1  0
 30 31  1  0
 31 32  1  1
  7  5  1  0
 31 10  1  0
 31 13  1  0
 27 15  1  0
 24 18  1  0
  1 33  1  0
  1 34  1  0
  1 35  1  0
  2 36  1  6
  3 37  1  0
  3 38  1  0
  4 39  1  0
  4 40  1  0
  5 41  1  6
  8 42  1  0
  8 43  1  0
  8 44  1  0
  9 45  1  0
  9 46  1  0
  9 47  1  0
 10 48  1  6
 11 49  1  0
 11 50  1  0
 12 51  1  0
 12 52  1  0
 14 53  1  0
 14 54  1  0
 14 55  1  0
 15 56  1  1
 16 57  1  0
 16 58  1  0
 17 59  1  0
 19 60  1  6
 20 61  1  0
 20 62  1  0
 21 63  1  0
 21 64  1  0
 22 65  1  6
 23 66  1  0
 25 67  1  0
 25 68  1  0
 25 69  1  0
 26 70  1  0
 26 71  1  0
 26 72  1  0
 28 73  1  0
 28 74  1  0
 28 75  1  0
 29 76  1  0
 29 77  1  0
 30 78  1  0
 30 79  1  0
 32 80  1  0
 32 81  1  0
 32 82  1  0
M  END
>  <meeko>  (13) 
{"is_sidechain": [false], "intermolecular_energy": 2.731, "internal_energy": -0.839}

$$$$
EPH_relaxed_0001_pdb2pqr_Repair_303_r2_0001_out
     RDKit          3D

 82 86  0  0  0  0  0  0  0  0999 V2000
  -11.5080    9.1770   -2.5150 C   0  0  0  0  0  0  0  0  0  0  0  0
  -10.8190    7.8270   -2.2970 C   0  0  2  0  0  0  0  0  0  0  0  0
  -11.7330    6.8190   -1.5720 C   0  0  0  0  0  0  0  0  0  0  0  0
  -13.2260    7.1250   -1.7210 C   0  0  0  0  0  0  0  0  0  0  0  0
  -13.8640    7.4250   -0.3980 C   0  0  2  0  0  0  0  0  0  0  0  0
  -15.2870    7.2480   -0.3660 O   0  0  0  0  0  0  0  0  0  0  0  0
  -14.8100    8.5900   -0.1720 C   0  0  0  0  0  0  0  0  0  0  0  0
  -15.1700    9.5300   -1.2790 C   0  0  0  0  0  0  0  0  0  0  0  0
  -14.9960    9.0990    1.2240 C   0  0  0  0  0  0  0  0  0  0  0  0
   -9.5300    8.0230   -1.5080 C   0  0  1  0  0  0  0  0  0  0  0  0
   -9.7090    7.7420    0.0080 C   0  0  0  0  0  0  0  0  0  0  0  0
   -8.3840    7.1110    0.5060 C   0  0  0  0  0  0  0  0  0  0  0  0
   -7.3800    7.3520   -0.6460 C   0  0  1  0  0  0  0  0  0  0  0  0
   -6.8970    8.8240   -0.4560 C   0  0  0  0  0  0  0  0  0  0  0  0
   -6.1770    6.3570   -0.7350 C   0  0  2  0  0  0  0  0  0  0  0  0
   -5.2310    6.3670    0.4790 C   0  0  0  0  0  0  0  0  0  0  0  0
   -4.0860    7.3200    0.3860 C   0  0  0  0  0  0  0  0  0  0  0  0
   -3.6620    7.9270   -0.7380 C   0  0  0  0  0  0  0  0  0  0  0  0
   -4.2960    7.5990   -2.0970 C   0  0  1  0  0  0  0  0  0  0  0  0
   -3.1780    7.3780   -3.1490 C   0  0  0  0  0  0  0  0  0  0  0  0
   -2.2060    8.5510   -3.2260 C   0  0  0  0  0  0  0  0  0  0  0  0
   -1.5530    8.8090   -1.8710 C   0  0  2  0  0  0  0  0  0  0  0  0
   -0.7120    7.6980   -1.5450 O   0  0  0  0  0  0  0  0  0  0  0  0
   -2.5820    9.0370   -0.7290 C   0  0  0  0  0  0  0  0  0  0  0  0
   -3.2860   10.4020   -0.9280 C   0  0  0  0  0  0  0  0  0  0  0  0
   -1.7980    9.1440    0.6070 C   0  0  0  0  0  0  0  0  0  0  0  0
   -5.3730    6.4310   -2.0960 C   0  0  1  0  0  0  0  0  0  0  0  0
   -4.6640    5.0530   -2.2700 C   0  0  0  0  0  0  0  0  0  0  0  0
   -6.3200    6.6040   -3.3410 C   0  0  0  0  0  0  0  0  0  0  0  0
   -7.5560    7.5050   -3.1550 C   0  0  0  0  0  0  0  0  0  0  0  0
   -8.3230    7.1270   -1.8840 C   0  0  2  0  0  0  0  0  0  0  0  0
   -8.8400    5.6580   -2.0560 C   0  0  0  0  0  0  0  0  0  0  0  0
  -11.7401    9.6318   -1.5407 H   0  0  0  0  0  0  0  0  0  0  0  0
  -10.8394    9.8428   -3.0805 H   0  0  0  0  0  0  0  0  0  0  0  0
  -12.4394    9.0262   -3.0805 H   0  0  0  0  0  0  0  0  0  0  0  0
  -10.5882    7.4092   -3.2881 H   0  0  0  0  0  0  0  0  0  0  0  0
  -11.5409    5.8173   -1.9838 H   0  0  0  0  0  0  0  0  0  0  0  0
  -11.4967    6.8840   -0.4996 H   0  0  0  0  0  0  0  0  0  0  0  0
  -13.3474    7.9964   -2.3813 H   0  0  0  0  0  0  0  0  0  0  0  0
  -13.7177    6.2376   -2.1460 H   0  0  0  0  0  0  0  0  0  0  0  0
  -12.9649    7.0894    0.1395 H   0  0  0  0  0  0  0  0  0  0  0  0
  -15.5326   10.4769   -0.8526 H   0  0  0  0  0  0  0  0  0  0  0  0
  -14.2823    9.7233   -1.8991 H   0  0  0  0  0  0  0  0  0  0  0  0
  -15.9597    9.0809   -1.8991 H   0  0  0  0  0  0  0  0  0  0  0  0
  -14.7097    8.3156    1.9411 H   0  0  0  0  0  0  0  0  0  0  0  0
  -14.3639    9.9859    1.3782 H   0  0  0  0  0  0  0  0  0  0  0  0
  -16.0510    9.3694    1.3782 H   0  0  0  0  0  0  0  0  0  0  0  0
   -9.3149    9.0711   -1.7633 H   0  0  0  0  0  0  0  0  0  0  0  0
   -9.9072    8.6806    0.5463 H   0  0  0  0  0  0  0  0  0  0  0  0
  -10.5591    7.0672    0.1866 H   0  0  0  0  0  0  0  0  0  0  0  0
   -8.0421    7.6031    1.4284 H   0  0  0  0  0  0  0  0  0  0  0  0
   -8.4948    6.0433    0.7463 H   0  0  0  0  0  0  0  0  0  0  0  0
   -6.8229    9.0498    0.6180 H   0  0  0  0  0  0  0  0  0  0  0  0
   -5.9105    8.9498   -0.9261 H   0  0  0  0  0  0  0  0  0  0  0  0
   -7.6172    9.5098   -0.9261 H   0  0  0  0  0  0  0  0  0  0  0  0
   -6.6786    5.3782   -0.7146 H   0  0  0  0  0  0  0  0  0  0  0  0
   -5.8219    6.6311    1.3684 H   0  0  0  0  0  0  0  0  0  0  0  0
   -4.7875    5.3616    0.5280 H   0  0  0  0  0  0  0  0  0  0  0  0
   -3.5423    7.5455    1.3153 H   0  0  0  0  0  0  0  0  0  0  0  0
   -4.8990    8.4771   -2.3716 H   0  0  0  0  0  0  0  0  0  0  0  0
   -2.6158    6.4714   -2.8807 H   0  0  0  0  0  0  0  0  0  0  0  0
   -3.6604    7.2795   -4.1327 H   0  0  0  0  0  0  0  0  0  0  0  0
   -1.4237    8.3222   -3.9647 H   0  0  0  0  0  0  0  0  0  0  0  0
   -2.7648    9.4507   -3.5231 H   0  0  0  0  0  0  0  0  0  0  0  0
   -0.9692    9.7372   -1.9579 H   0  0  0  0  0  0  0  0  0  0  0  0
   -0.8920    7.4520   -0.6220 H   0  0  0  0  0  0  0  0  0  0  0  0
   -3.5138   10.8436    0.0534 H   0  0  0  0  0  0  0  0  0  0  0  0
   -2.6239   11.0776   -1.4894 H   0  0  0  0  0  0  0  0  0  0  0  0
   -4.2204   10.2543   -1.4894 H   0  0  0  0  0  0  0  0  0  0  0  0
   -2.4970    9.0486    1.4510 H   0  0  0  0  0  0  0  0  0  0  0  0
   -1.0493    8.3397    0.6582 H   0  0  0  0  0  0  0  0  0  0  0  0
   -1.2923   10.1195    0.6582 H   0  0  0  0  0  0  0  0  0  0  0  0
   -4.4444    4.6261   -1.2803 H   0  0  0  0  0  0  0  0  0  0  0  0
   -5.3224    4.3695   -2.8262 H   0  0  0  0  0  0  0  0  0  0  0  0
   -3.7251    5.1913   -2.8262 H   0  0  0  0  0  0  0  0  0  0  0  0
   -5.7195    7.0280   -4.1593 H   0  0  0  0  0  0  0  0  0  0  0  0
   -6.7234    5.5996   -3.5370 H   0  0  0  0  0  0  0  0  0  0  0  0
   -7.2297    8.5528   -3.0803 H   0  0  0  0  0  0  0  0  0  0  0  0
   -8.2220    7.3702   -4.0200 H   0  0  0  0  0  0  0  0  0  0  0  0
   -8.9988    5.2068   -1.0654 H   0  0  0  0  0  0  0  0  0  0  0  0
   -9.7893    5.6661   -2.6117 H   0  0  0  0  0  0  0  0  0  0  0  0
   -8.0949    5.0697   -2.6117 H   0  0  0  0  0  0  0  0  0  0  0  0
  1  2  1  0
  2  3  1  0
  3  4  1  0
  4  5  1  0
  5  6  1  0
  6  7  1  0
  7  8  1  0
  7  9  1  0
  2 10  1  0
 10 11  1  0
 11 12  1  0
 12 13  1  0
 13 14  1  1
 13 15  1  0
 15 16  1  0
 16 17  1  0
 17 18  2  0
 18 19  1  0
 19 20  1  0
 20 21  1  0
 21 22  1  0
 22 23  1  0
 22 24  1  0
 24 25  1  0
 24 26  1  0
 19 27  1  0
 27 28  1  6
 27 29  1  0
 29 30  1  0
 30 31  1  0
 31 32  1  6
  7  5  1  0
 31 10  1  0
 31 13  1  0
 27 15  1  0
 24 18  1  0
  1 33  1  0
  1 34  1  0
  1 35  1  0
  2 36  1  6
  3 37  1  0
  3 38  1  0
  4 39  1  0
  4 40  1  0
  5 41  1  1
  8 42  1  0
  8 43  1  0
  8 44  1  0
  9 45  1  0
  9 46  1  0
  9 47  1  0
 10 48  1  1
 11 49  1  0
 11 50  1  0
 12 51  1  0
 12 52  1  0
 14 53  1  0
 14 54  1  0
 14 55  1  0
 15 56  1  6
 16 57  1  0
 16 58  1  0
 17 59  1  0
 19 60  1  6
 20 61  1  0
 20 62  1  0
 21 63  1  0
 21 64  1  0
 22 65  1  6
 23 66  1  0
 25 67  1  0
 25 68  1  0
 25 69  1  0
 26 70  1  0
 26 71  1  0
 26 72  1  0
 28 73  1  0
 28 74  1  0
 28 75  1  0
 29 76  1  0
 29 77  1  0
 30 78  1  0
 30 79  1  0
 32 80  1  0
 32 81  1  0
 32 82  1  0
M  END
>  <meeko>  (14) 
{"is_sidechain": [false], "intermolecular_energy": 2.731, "internal_energy": -0.839}

$$$$
EPH_relaxed_0001_pdb2pqr_Repair_303_r2_0001_out
     RDKit          3D

 82 86  0  0  0  0  0  0  0  0999 V2000
    0.2890    9.5330   -4.2540 C   0  0  0  0  0  0  0  0  0  0  0  0
    1.1250   10.8130   -4.1730 C   0  0  2  0  0  0  0  0  0  0  0  0
    2.5290   10.5540   -3.5900 C   0  0  0  0  0  0  0  0  0  0  0  0
    3.6610   11.1820   -4.4090 C   0  0  0  0  0  0  0  0  0  0  0  0
    4.9670   11.1340   -3.6760 C   0  0  2  0  0  0  0  0  0  0  0  0
    5.8570   12.2190   -3.9680 O   0  0  0  0  0  0  0  0  0  0  0  0
    6.3030   10.9100   -4.3600 C   0  0  0  0  0  0  0  0  0  0  0  0
    6.3980   10.7180   -5.8410 C   0  0  0  0  0  0  0  0  0  0  0  0
    7.4470   10.3930   -3.5450 C   0  0  0  0  0  0  0  0  0  0  0  0
    0.3970   11.8570   -3.3340 C   0  0  1  0  0  0  0  0  0  0  0  0
   -0.8720   11.2890   -2.6440 C   0  0  0  0  0  0  0  0  0  0  0  0
   -0.9890   11.9980   -1.2700 C   0  0  0  0  0  0  0  0  0  0  0  0
    0.0110   13.1760   -1.3530 C   0  0  1  0  0  0  0  0  0  0  0  0
   -0.7490   14.2920   -2.1360 C   0  0  0  0  0  0  0  0  0  0  0  0
    0.5700   13.7040    0.0080 C   0  0  2  0  0  0  0  0  0  0  0  0
   -0.4840   14.2870    0.9650 C   0  0  0  0  0  0  0  0  0  0  0  0
   -0.7350   15.7520    0.8210 C   0  0  0  0  0  0  0  0  0  0  0  0
    0.0570   16.6200    0.1630 C   0  0  0  0  0  0  0  0  0  0  0  0
    1.3920   16.1660   -0.4420 C   0  0  1  0  0  0  0  0  0  0  0  0
    2.5000   17.1880   -0.0750 C   0  0  0  0  0  0  0  0  0  0  0  0
    2.1340   18.6150   -0.4730 C   0  0  0  0  0  0  0  0  0  0  0  0
    0.8320   19.0500    0.1940 C   0  0  2  0  0  0  0  0  0  0  0  0
    1.0450   19.1400    1.6060 O   0  0  0  0  0  0  0  0  0  0  0  0
   -0.3550   18.0900   -0.0960 C   0  0  0  0  0  0  0  0  0  0  0  0
   -0.7810   18.2220   -1.5790 C   0  0  0  0  0  0  0  0  0  0  0  0
   -1.5700   18.5640    0.7470 C   0  0  0  0  0  0  0  0  0  0  0  0
    1.8180   14.6660   -0.1340 C   0  0  1  0  0  0  0  0  0  0  0  0
    2.5880   14.6000    1.2210 C   0  0  0  0  0  0  0  0  0  0  0  0
    2.8260   14.1800   -1.2420 C   0  0  0  0  0  0  0  0  0  0  0  0
    2.2150   13.5590   -2.5120 C   0  0  0  0  0  0  0  0  0  0  0  0
    1.1760   12.4910   -2.1550 C   0  0  2  0  0  0  0  0  0  0  0  0
    1.9150   11.3430   -1.3860 C   0  0  0  0  0  0  0  0  0  0  0  0
    0.0588    9.1805   -3.2378 H   0  0  0  0  0  0  0  0  0  0  0  0
   -0.6482    9.7405   -4.7912 H   0  0  0  0  0  0  0  0  0  0  0  0
    0.8557    8.7583   -4.7912 H   0  0  0  0  0  0  0  0  0  0  0  0
    1.2576   11.1870   -5.1989 H   0  0  0  0  0  0  0  0  0  0  0  0
    2.5646   10.9699   -2.5723 H   0  0  0  0  0  0  0  0  0  0  0  0
    2.6874    9.4656   -3.6043 H   0  0  0  0  0  0  0  0  0  0  0  0
    3.7633   10.6322   -5.3562 H   0  0  0  0  0  0  0  0  0  0  0  0
    3.4083   12.2370   -4.5913 H   0  0  0  0  0  0  0  0  0  0  0  0
    4.4908   10.6490   -2.8111 H   0  0  0  0  0  0  0  0  0  0  0  0
    6.8765    9.7510   -6.0554 H   0  0  0  0  0  0  0  0  0  0  0  0
    5.3887   10.7326   -6.2781 H   0  0  0  0  0  0  0  0  0  0  0  0
    6.9987   11.5292   -6.2781 H   0  0  0  0  0  0  0  0  0  0  0  0
    7.2126   10.4989   -2.4755 H   0  0  0  0  0  0  0  0  0  0  0  0
    7.6147    9.3316   -3.7803 H   0  0  0  0  0  0  0  0  0  0  0  0
    8.3544   10.9685   -3.7803 H   0  0  0  0  0  0  0  0  0  0  0  0
    0.2046   12.6145   -4.1080 H   0  0  0  0  0  0  0  0  0  0  0  0
   -1.7619   11.4989   -3.2556 H   0  0  0  0  0  0  0  0  0  0  0  0
   -0.8001   10.1983   -2.5209 H   0  0  0  0  0  0  0  0  0  0  0  0
   -2.0125   12.3679   -1.1096 H   0  0  0  0  0  0  0  0  0  0  0  0
   -0.7684   11.3215   -0.4311 H   0  0  0  0  0  0  0  0  0  0  0  0
   -1.2204   14.9842   -1.4228 H   0  0  0  0  0  0  0  0  0  0  0  0
   -0.0388   14.8447   -2.7685 H   0  0  0  0  0  0  0  0  0  0  0  0
   -1.5235   13.8336   -2.7685 H   0  0  0  0  0  0  0  0  0  0  0  0
    0.9305   12.7824    0.4883 H   0  0  0  0  0  0  0  0  0  0  0  0
   -1.4332   13.7604    0.7869 H   0  0  0  0  0  0  0  0  0  0  0  0
   -0.0852   14.1448    1.9802 H   0  0  0  0  0  0  0  0  0  0  0  0
   -1.6432   16.1562    1.2920 H   0  0  0  0  0  0  0  0  0  0  0  0
    1.2438   16.1516   -1.5319 H   0  0  0  0  0  0  0  0  0  0  0  0
    2.6633   17.1559    1.0123 H   0  0  0  0  0  0  0  0  0  0  0  0
    3.4085   16.9092   -0.6289 H   0  0  0  0  0  0  0  0  0  0  0  0
    2.9419   19.2939   -0.1625 H   0  0  0  0  0  0  0  0  0  0  0  0
    1.9990   18.6517   -1.5641 H   0  0  0  0  0  0  0  0  0  0  0  0
    0.5550   20.0271   -0.2285 H   0  0  0  0  0  0  0  0  0  0  0  0
    0.4220   19.7990    1.9560 H   0  0  0  0  0  0  0  0  0  0  0  0
   -1.8305   18.5472   -1.6315 H   0  0  0  0  0  0  0  0  0  0  0  0
   -0.1417   18.9642   -2.0795 H   0  0  0  0  0  0  0  0  0  0  0  0
   -0.6734   17.2484   -2.0795 H   0  0  0  0  0  0  0  0  0  0  0  0
   -1.3324   18.4713    1.8170 H   0  0  0  0  0  0  0  0  0  0  0  0
   -1.7927   19.6150    0.5106 H   0  0  0  0  0  0  0  0  0  0  0  0
   -2.4455   17.9415    0.5106 H   0  0  0  0  0  0  0  0  0  0  0  0
    1.8714   14.6614    2.0533 H   0  0  0  0  0  0  0  0  0  0  0  0
    3.1411   13.6512    1.2826 H   0  0  0  0  0  0  0  0  0  0  0  0
    3.2945   15.4409    1.2826 H   0  0  0  0  0  0  0  0  0  0  0  0
    3.4248   15.0492   -1.5515 H   0  0  0  0  0  0  0  0  0  0  0  0
    3.4007   13.3681   -0.7723 H   0  0  0  0  0  0  0  0  0  0  0  0
    1.7294   14.3505   -3.1018 H   0  0  0  0  0  0  0  0  0  0  0  0
    3.0200   13.0849   -3.0928 H   0  0  0  0  0  0  0  0  0  0  0  0
    1.8124   11.5023   -0.3024 H   0  0  0  0  0  0  0  0  0  0  0  0
    1.4705   10.3742   -1.6579 H   0  0  0  0  0  0  0  0  0  0  0  0
    2.9809   11.3465   -1.6579 H   0  0  0  0  0  0  0  0  0  0  0  0
  1  2  1  0
  2  3  1  0
  3  4  1  0
  4  5  1  0
  5  6  1  0
  6  7  1  0
  7  8  1  0
  7  9  1  0
  2 10  1  0
 10 11  1  0
 11 12  1  0
 12 13  1  0
 13 14  1  6
 13 15  1  0
 15 16  1  0
 16 17  1  0
 17 18  2  0
 18 19  1  0
 19 20  1  0
 20 21  1  0
 21 22  1  0
 22 23  1  0
 22 24  1  0
 24 25  1  0
 24 26  1  0
 19 27  1  0
 27 28  1  1
 27 29  1  0
 29 30  1  0
 30 31  1  0
 31 32  1  1
  7  5  1  0
 31 10  1  0
 31 13  1  0
 27 15  1  0
 24 18  1  0
  1 33  1  0
  1 34  1  0
  1 35  1  0
  2 36  1  6
  3 37  1  0
  3 38  1  0
  4 39  1  0
  4 40  1  0
  5 41  1  1
  8 42  1  0
  8 43  1  0
  8 44  1  0
  9 45  1  0
  9 46  1  0
  9 47  1  0
 10 48  1  6
 11 49  1  0
 11 50  1  0
 12 51  1  0
 12 52  1  0
 14 53  1  0
 14 54  1  0
 14 55  1  0
 15 56  1  1
 16 57  1  0
 16 58  1  0
 17 59  1  0
 19 60  1  6
 20 61  1  0
 20 62  1  0
 21 63  1  0
 21 64  1  0
 22 65  1  6
 23 66  1  0
 25 67  1  0
 25 68  1  0
 25 69  1  0
 26 70  1  0
 26 71  1  0
 26 72  1  0
 28 73  1  0
 28 74  1  0
 28 75  1  0
 29 76  1  0
 29 77  1  0
 30 78  1  0
 30 79  1  0
 32 80  1  0
 32 81  1  0
 32 82  1  0
M  END
>  <meeko>  (15) 
{"is_sidechain": [false], "intermolecular_energy": 2.731, "internal_energy": -0.839}

$$$$
EPH_relaxed_0001_pdb2pqr_Repair_303_r2_0001_out
     RDKit          3D

 82 86  0  0  0  0  0  0  0  0999 V2000
   -5.5490    5.2210   -1.1060 C   0  0  0  0  0  0  0  0  0  0  0  0
   -5.2490    6.6490   -0.6410 C   0  0  2  0  0  0  0  0  0  0  0  0
   -6.3250    7.6490   -1.1080 C   0  0  0  0  0  0  0  0  0  0  0  0
   -7.6910    7.0080   -1.3660 C   0  0  0  0  0  0  0  0  0  0  0  0
   -8.5710    7.0710   -0.1540 C   0  0  2  0  0  0  0  0  0  0  0  0
   -9.5520    6.0290   -0.0710 O   0  0  0  0  0  0  0  0  0  0  0  0
  -10.0590    7.3660   -0.2150 C   0  0  0  0  0  0  0  0  0  0  0  0
  -10.7520    7.6170   -1.5170 C   0  0  0  0  0  0  0  0  0  0  0  0
  -10.7350    7.8890    1.0140 C   0  0  0  0  0  0  0  0  0  0  0  0
   -3.8790    7.0830   -1.1480 C   0  0  1  0  0  0  0  0  0  0  0  0
   -3.6640    6.7500   -2.6490 C   0  0  0  0  0  0  0  0  0  0  0  0
   -2.8030    7.8950   -3.2420 C   0  0  0  0  0  0  0  0  0  0  0  0
   -2.2760    8.6660   -2.0090 C   0  0  1  0  0  0  0  0  0  0  0  0
   -1.0530    7.8350   -1.5090 C   0  0  0  0  0  0  0  0  0  0  0  0
   -1.8990   10.1650   -2.2410 C   0  0  2  0  0  0  0  0  0  0  0  0
   -0.7540   10.4030   -3.2410 C   0  0  0  0  0  0  0  0  0  0  0  0
    0.6140   10.4430   -2.6450 C   0  0  0  0  0  0  0  0  0  0  0  0
    0.8940   10.5790   -1.3350 C   0  0  0  0  0  0  0  0  0  0  0  0
   -0.2250   10.8080   -0.3110 C   0  0  1  0  0  0  0  0  0  0  0  0
    0.1770   11.9610    0.6460 C   0  0  0  0  0  0  0  0  0  0  0  0
    1.5320   11.7280    1.3050 C   0  0  0  0  0  0  0  0  0  0  0  0
    2.6280   11.5630    0.2560 C   0  0  2  0  0  0  0  0  0  0  0  0
    2.8000   12.8060   -0.4320 O   0  0  0  0  0  0  0  0  0  0  0  0
    2.3280   10.4350   -0.7710 C   0  0  0  0  0  0  0  0  0  0  0  0
    2.4410    9.0550   -0.0760 C   0  0  0  0  0  0  0  0  0  0  0  0
    3.4400   10.4680   -1.8540 C   0  0  0  0  0  0  0  0  0  0  0  0
   -1.6860   10.9940   -0.9100 C   0  0  1  0  0  0  0  0  0  0  0  0
   -1.9260   12.4910   -1.2740 C   0  0  0  0  0  0  0  0  0  0  0  0
   -2.7450   10.6300    0.1970 C   0  0  0  0  0  0  0  0  0  0  0  0
   -3.1660    9.1520    0.2970 C   0  0  0  0  0  0  0  0  0  0  0  0
   -3.5410    8.5940   -1.0790 C   0  0  2  0  0  0  0  0  0  0  0  0
   -4.7830    9.3950   -1.5980 C   0  0  0  0  0  0  0  0  0  0  0  0
   -5.6856    4.5709   -0.2292 H   0  0  0  0  0  0  0  0  0  0  0  0
   -6.4674    5.2178   -1.7114 H   0  0  0  0  0  0  0  0  0  0  0  0
   -4.7095    4.8485   -1.7114 H   0  0  0  0  0  0  0  0  0  0  0  0
   -5.2549    6.6477    0.4590 H   0  0  0  0  0  0  0  0  0  0  0  0
   -6.4439    8.4189   -0.3314 H   0  0  0  0  0  0  0  0  0  0  0  0
   -5.9807    8.0676   -2.0652 H   0  0  0  0  0  0  0  0  0  0  0  0
   -8.1842    7.5404   -2.1926 H   0  0  0  0  0  0  0  0  0  0  0  0
   -7.5308    5.9495   -1.6187 H   0  0  0  0  0  0  0  0  0  0  0  0
   -7.7563    7.5055    0.4439 H   0  0  0  0  0  0  0  0  0  0  0  0
  -11.7704    7.9859   -1.3252 H   0  0  0  0  0  0  0  0  0  0  0  0
  -10.1917    8.3693   -2.0915 H   0  0  0  0  0  0  0  0  0  0  0  0
  -10.8034    6.6804   -2.0915 H   0  0  0  0  0  0  0  0  0  0  0  0
  -10.2272    7.4961    1.9071 H   0  0  0  0  0  0  0  0  0  0  0  0
  -10.6877    8.9880    1.0190 H   0  0  0  0  0  0  0  0  0  0  0  0
  -11.7869    7.5672    1.0190 H   0  0  0  0  0  0  0  0  0  0  0  0
   -3.2386    6.5215   -0.4519 H   0  0  0  0  0  0  0  0  0  0  0  0
   -3.1392    5.7888   -2.7524 H   0  0  0  0  0  0  0  0  0  0  0  0
   -4.6255    6.6649   -3.1765 H   0  0  0  0  0  0  0  0  0  0  0  0
   -1.9682    7.4878   -3.8313 H   0  0  0  0  0  0  0  0  0  0  0  0
   -3.3783    8.5399   -3.9225 H   0  0  0  0  0  0  0  0  0  0  0  0
   -1.0405    7.8265   -0.4091 H   0  0  0  0  0  0  0  0  0  0  0  0
   -1.1331    6.8036   -1.8828 H   0  0  0  0  0  0  0  0  0  0  0  0
   -0.1235    8.2893   -1.8828 H   0  0  0  0  0  0  0  0  0  0  0  0
   -2.8040   10.5632   -2.7231 H   0  0  0  0  0  0  0  0  0  0  0  0
   -0.7776    9.5924   -3.9842 H   0  0  0  0  0  0  0  0  0  0  0  0
   -0.9280   11.4001   -3.6717 H   0  0  0  0  0  0  0  0  0  0  0  0
    1.4661   10.3538   -3.3349 H   0  0  0  0  0  0  0  0  0  0  0  0
   -0.3171    9.8686    0.2538 H   0  0  0  0  0  0  0  0  0  0  0  0
    0.2210   12.8976    0.0708 H   0  0  0  0  0  0  0  0  0  0  0  0
   -0.5783   12.0113    1.4441 H   0  0  0  0  0  0  0  0  0  0  0  0
    1.7735   12.5891    1.9455 H   0  0  0  0  0  0  0  0  0  0  0  0
    1.4774   10.8066    1.9033 H   0  0  0  0  0  0  0  0  0  0  0  0
    3.5478   11.2709    0.7839 H   0  0  0  0  0  0  0  0  0  0  0  0
    3.4160   13.3480    0.0900 H   0  0  0  0  0  0  0  0  0  0  0  0
    2.4298    9.1921    1.0154 H   0  0  0  0  0  0  0  0  0  0  0  0
    1.5916    8.4232   -0.3750 H   0  0  0  0  0  0  0  0  0  0  0  0
    3.3819    8.5698   -0.3750 H   0  0  0  0  0  0  0  0  0  0  0  0
    4.4257   10.4973   -1.3666 H   0  0  0  0  0  0  0  0  0  0  0  0
    3.3677    9.5673   -2.4813 H   0  0  0  0  0  0  0  0  0  0  0  0
    3.3144   11.3628   -2.4813 H   0  0  0  0  0  0  0  0  0  0  0  0
   -2.0208   13.0821   -0.3512 H   0  0  0  0  0  0  0  0  0  0  0  0
   -1.0765   12.8657   -1.8638 H   0  0  0  0  0  0  0  0  0  0  0  0
   -2.8501   12.5813   -1.8638 H   0  0  0  0  0  0  0  0  0  0  0  0
   -2.3230   10.9222    1.1699 H   0  0  0  0  0  0  0  0  0  0  0  0
   -3.6589   11.1704   -0.0906 H   0  0  0  0  0  0  0  0  0  0  0  0
   -2.3297    8.5667    0.7068 H   0  0  0  0  0  0  0  0  0  0  0  0
   -4.0446    9.0816    0.9551 H   0  0  0  0  0  0  0  0  0  0  0  0
   -5.3625    9.7687   -0.7410 H   0  0  0  0  0  0  0  0  0  0  0  0
   -4.4426   10.2442   -2.2087 H   0  0  0  0  0  0  0  0  0  0  0  0
   -5.4161    8.7346   -2.2087 H   0  0  0  0  0  0  0  0  0  0  0  0
  1  2  1  0
  2  3  1  0
  3  4  1  0
  4  5  1  0
  5  6  1  0
  6  7  1  0
  7  8  1  0
  7  9  1  0
  2 10  1  0
 10 11  1  0
 11 12  1  0
 12 13  1  0
 13 14  1  1
 13 15  1  0
 15 16  1  0
 16 17  1  0
 17 18  2  0
 18 19  1  0
 19 20  1  0
 20 21  1  0
 21 22  1  0
 22 23  1  0
 22 24  1  0
 24 25  1  0
 24 26  1  0
 19 27  1  0
 27 28  1  6
 27 29  1  0
 29 30  1  0
 30 31  1  0
 31 32  1  6
  7  5  1  0
 31 10  1  0
 31 13  1  0
 27 15  1  0
 24 18  1  0
  1 33  1  0
  1 34  1  0
  1 35  1  0
  2 36  1  1
  3 37  1  0
  3 38  1  0
  4 39  1  0
  4 40  1  0
  5 41  1  1
  8 42  1  0
  8 43  1  0
  8 44  1  0
  9 45  1  0
  9 46  1  0
  9 47  1  0
 10 48  1  1
 11 49  1  0
 11 50  1  0
 12 51  1  0
 12 52  1  0
 14 53  1  0
 14 54  1  0
 14 55  1  0
 15 56  1  6
 16 57  1  0
 16 58  1  0
 17 59  1  0
 19 60  1  1
 20 61  1  0
 20 62  1  0
 21 63  1  0
 21 64  1  0
 22 65  1  1
 23 66  1  0
 25 67  1  0
 25 68  1  0
 25 69  1  0
 26 70  1  0
 26 71  1  0
 26 72  1  0
 28 73  1  0
 28 74  1  0
 28 75  1  0
 29 76  1  0
 29 77  1  0
 30 78  1  0
 30 79  1  0
 32 80  1  0
 32 81  1  0
 32 82  1  0
M  END
>  <meeko>  (16) 
{"is_sidechain": [false], "intermolecular_energy": 2.731, "internal_energy": -0.839}

$$$$
EPH_relaxed_0001_pdb2pqr_Repair_303_r2_0001_out
     RDKit          3D

 82 86  0  0  0  0  0  0  0  0999 V2000
    1.4360   13.0600   -4.6590 C   0  0  0  0  0  0  0  0  0  0  0  0
    1.5820   12.5640   -3.2180 C   0  0  2  0  0  0  0  0  0  0  0  0
    3.0590   12.4090   -2.8040 C   0  0  0  0  0  0  0  0  0  0  0  0
    3.8640   11.4920   -3.7280 C   0  0  0  0  0  0  0  0  0  0  0  0
    5.2840   11.3490   -3.2690 C   0  0  2  0  0  0  0  0  0  0  0  0
    6.1910   12.3140   -3.8180 O   0  0  0  0  0  0  0  0  0  0  0  0
    6.4230   10.9450   -4.1850 C   0  0  0  0  0  0  0  0  0  0  0  0
    6.1930   10.6560   -5.6360 C   0  0  0  0  0  0  0  0  0  0  0  0
    7.6580   10.3590   -3.5760 C   0  0  0  0  0  0  0  0  0  0  0  0
    0.8510   11.2370   -3.0480 C   0  0  1  0  0  0  0  0  0  0  0  0
    1.8190   10.0510   -2.7940 C   0  0  0  0  0  0  0  0  0  0  0  0
    1.0940    9.0830   -1.8230 C   0  0  0  0  0  0  0  0  0  0  0  0
   -0.3740    9.5680   -1.8130 C   0  0  1  0  0  0  0  0  0  0  0  0
   -1.0090    8.9530   -3.0990 C   0  0  0  0  0  0  0  0  0  0  0  0
   -1.2070    9.2210   -0.5360 C   0  0  2  0  0  0  0  0  0  0  0  0
   -1.3980    7.7180   -0.2690 C   0  0  0  0  0  0  0  0  0  0  0  0
   -2.6150    7.1110   -0.8850 C   0  0  0  0  0  0  0  0  0  0  0  0
   -3.6640    7.7930   -1.3810 C   0  0  0  0  0  0  0  0  0  0  0  0
   -3.7380    9.3210   -1.2610 C   0  0  1  0  0  0  0  0  0  0  0  0
   -5.1510    9.7340   -0.7710 C   0  0  0  0  0  0  0  0  0  0  0  0
   -6.2630    9.1640   -1.6460 C   0  0  0  0  0  0  0  0  0  0  0  0
   -6.1920    7.6390   -1.6930 C   0  0  2  0  0  0  0  0  0  0  0  0
   -6.4900    7.1240   -0.3920 O   0  0  0  0  0  0  0  0  0  0  0  0
   -4.8100    7.1050   -2.1630 C   0  0  0  0  0  0  0  0  0  0  0  0
   -4.6200    7.4080   -3.6700 C   0  0  0  0  0  0  0  0  0  0  0  0
   -4.8260    5.5580   -2.0300 C   0  0  0  0  0  0  0  0  0  0  0  0
   -2.5760   10.0070   -0.4210 C   0  0  1  0  0  0  0  0  0  0  0  0
   -2.9530   10.0270    1.0920 C   0  0  0  0  0  0  0  0  0  0  0  0
   -2.4410   11.5120   -0.8650 C   0  0  0  0  0  0  0  0  0  0  0  0
   -1.5100   11.8040   -2.0580 C   0  0  0  0  0  0  0  0  0  0  0  0
   -0.1510   11.1230   -1.8720 C   0  0  2  0  0  0  0  0  0  0  0  0
    0.5220   11.7380   -0.5970 C   0  0  0  0  0  0  0  0  0  0  0  0
    1.1254   14.1152   -4.6539 H   0  0  0  0  0  0  0  0  0  0  0  0
    2.4004   12.9642   -5.1793 H   0  0  0  0  0  0  0  0  0  0  0  0
    0.6773   12.4570   -5.1793 H   0  0  0  0  0  0  0  0  0  0  0  0
    1.1328   13.3225   -2.5601 H   0  0  0  0  0  0  0  0  0  0  0  0
    3.5272   13.4044   -2.8086 H   0  0  0  0  0  0  0  0  0  0  0  0
    3.0663   11.9464   -1.8060 H   0  0  0  0  0  0  0  0  0  0  0  0
    3.3925   10.4983   -3.7428 H   0  0  0  0  0  0  0  0  0  0  0  0
    3.8723   11.9399   -4.7326 H   0  0  0  0  0  0  0  0  0  0  0  0
    4.9538   10.9692   -2.2909 H   0  0  0  0  0  0  0  0  0  0  0  0
    5.5108    9.7988   -5.7355 H   0  0  0  0  0  0  0  0  0  0  0  0
    5.7468   11.5377   -6.1193 H   0  0  0  0  0  0  0  0  0  0  0  0
    7.1524   10.4191   -6.1193 H   0  0  0  0  0  0  0  0  0  0  0  0
    7.5793   10.3963   -2.4795 H   0  0  0  0  0  0  0  0  0  0  0  0
    7.7662    9.3135   -3.9004 H   0  0  0  0  0  0  0  0  0  0  0  0
    8.5363   10.9364   -3.9004 H   0  0  0  0  0  0  0  0  0  0  0  0
    0.3119   11.1985   -4.0061 H   0  0  0  0  0  0  0  0  0  0  0  0
    2.0468    9.5384   -3.7402 H   0  0  0  0  0  0  0  0  0  0  0  0
    2.7699   10.4014   -2.3662 H   0  0  0  0  0  0  0  0  0  0  0  0
    1.1583    8.0471   -2.1874 H   0  0  0  0  0  0  0  0  0  0  0  0
    1.5416    9.0871   -0.8182 H   0  0  0  0  0  0  0  0  0  0  0  0
   -1.7721    8.2139   -2.8137 H   0  0  0  0  0  0  0  0  0  0  0  0
   -1.4761    9.7510   -3.6949 H   0  0  0  0  0  0  0  0  0  0  0  0
   -0.2264    8.4606   -3.6949 H   0  0  0  0  0  0  0  0  0  0  0  0
   -0.5592    9.5879    0.2738 H   0  0  0  0  0  0  0  0  0  0  0  0
   -0.5177    7.1883   -0.6621 H   0  0  0  0  0  0  0  0  0  0  0  0
   -1.5240    7.6156    0.8189 H   0  0  0  0  0  0  0  0  0  0  0  0
   -2.6580    6.0131   -0.9380 H   0  0  0  0  0  0  0  0  0  0  0  0
   -3.5643    9.7148   -2.2733 H   0  0  0  0  0  0  0  0  0  0  0  0
   -5.2887    9.3681    0.2572 H   0  0  0  0  0  0  0  0  0  0  0  0
   -5.2149   10.8310   -0.8221 H   0  0  0  0  0  0  0  0  0  0  0  0
   -7.2368    9.4667   -1.2335 H   0  0  0  0  0  0  0  0  0  0  0  0
   -6.1408    9.5532   -2.6676 H   0  0  0  0  0  0  0  0  0  0  0  0
   -6.9291    7.2963   -2.4341 H   0  0  0  0  0  0  0  0  0  0  0  0
   -5.9910    6.2960   -0.2820 H   0  0  0  0  0  0  0  0  0  0  0  0
   -4.0390    8.3346   -3.7873 H   0  0  0  0  0  0  0  0  0  0  0  0
   -4.0821    6.5751   -4.1465 H   0  0  0  0  0  0  0  0  0  0  0  0
   -5.6040    7.5294   -4.1465 H   0  0  0  0  0  0  0  0  0  0  0  0
   -4.8289    5.2815   -0.9653 H   0  0  0  0  0  0  0  0  0  0  0  0
   -5.7283    5.1576   -2.5152 H   0  0  0  0  0  0  0  0  0  0  0  0
   -3.9321    5.1390   -2.5152 H   0  0  0  0  0  0  0  0  0  0  0  0
   -2.0368    9.9784    1.6988 H   0  0  0  0  0  0  0  0  0  0  0  0
   -3.4965   10.9552    1.3222 H   0  0  0  0  0  0  0  0  0  0  0  0
   -3.5916    9.1615    1.3222 H   0  0  0  0  0  0  0  0  0  0  0  0
   -3.4458   11.8718   -1.1313 H   0  0  0  0  0  0  0  0  0  0  0  0
   -1.9798   12.0245   -0.0079 H   0  0  0  0  0  0  0  0  0  0  0  0
   -1.9777   11.4281   -2.9799 H   0  0  0  0  0  0  0  0  0  0  0  0
   -1.3520   12.8907   -2.1219 H   0  0  0  0  0  0  0  0  0  0  0  0
    0.0567   11.3128    0.3045 H   0  0  0  0  0  0  0  0  0  0  0  0
    1.5967   11.5034   -0.6003 H   0  0  0  0  0  0  0  0  0  0  0  0
    0.3849   12.8294   -0.6003 H   0  0  0  0  0  0  0  0  0  0  0  0
  1  2  1  0
  2  3  1  0
  3  4  1  0
  4  5  1  0
  5  6  1  0
  6  7  1  0
  7  8  1  0
  7  9  1  0
  2 10  1  0
 10 11  1  0
 11 12  1  0
 12 13  1  0
 13 14  1  6
 13 15  1  0
 15 16  1  0
 16 17  1  0
 17 18  2  0
 18 19  1  0
 19 20  1  0
 20 21  1  0
 21 22  1  0
 22 23  1  0
 22 24  1  0
 24 25  1  0
 24 26  1  0
 19 27  1  0
 27 28  1  1
 27 29  1  0
 29 30  1  0
 30 31  1  0
 31 32  1  1
  7  5  1  0
 31 10  1  0
 31 13  1  0
 27 15  1  0
 24 18  1  0
  1 33  1  0
  1 34  1  0
  1 35  1  0
  2 36  1  1
  3 37  1  0
  3 38  1  0
  4 39  1  0
  4 40  1  0
  5 41  1  1
  8 42  1  0
  8 43  1  0
  8 44  1  0
  9 45  1  0
  9 46  1  0
  9 47  1  0
 10 48  1  6
 11 49  1  0
 11 50  1  0
 12 51  1  0
 12 52  1  0
 14 53  1  0
 14 54  1  0
 14 55  1  0
 15 56  1  1
 16 57  1  0
 16 58  1  0
 17 59  1  0
 19 60  1  6
 20 61  1  0
 20 62  1  0
 21 63  1  0
 21 64  1  0
 22 65  1  6
 23 66  1  0
 25 67  1  0
 25 68  1  0
 25 69  1  0
 26 70  1  0
 26 71  1  0
 26 72  1  0
 28 73  1  0
 28 74  1  0
 28 75  1  0
 29 76  1  0
 29 77  1  0
 30 78  1  0
 30 79  1  0
 32 80  1  0
 32 81  1  0
 32 82  1  0
M  END
>  <meeko>  (17) 
{"is_sidechain": [false], "intermolecular_energy": 2.731, "internal_energy": -0.839}

$$$$
EPH_relaxed_0001_pdb2pqr_Repair_303_r2_0001_out
     RDKit          3D

 82 86  0  0  0  0  0  0  0  0999 V2000
   -5.1690    5.8260   -1.7440 C   0  0  0  0  0  0  0  0  0  0  0  0
   -5.4680    7.3270   -1.7880 C   0  0  2  0  0  0  0  0  0  0  0  0
   -5.2390    8.0050   -0.4220 C   0  0  0  0  0  0  0  0  0  0  0  0
   -4.1980    9.1270   -0.4580 C   0  0  0  0  0  0  0  0  0  0  0  0
   -2.8320    8.6050   -0.7880 C   0  0  2  0  0  0  0  0  0  0  0  0
   -1.8200    8.9260    0.1750 O   0  0  0  0  0  0  0  0  0  0  0  0
   -1.6550    9.4990   -1.1320 C   0  0  0  0  0  0  0  0  0  0  0  0
   -1.7910   10.9890   -1.1650 C   0  0  0  0  0  0  0  0  0  0  0  0
   -0.5150    8.9140   -1.9070 C   0  0  0  0  0  0  0  0  0  0  0  0
   -6.9020    7.5580   -2.2500 C   0  0  1  0  0  0  0  0  0  0  0  0
   -7.2140    6.8580   -3.6000 C   0  0  0  0  0  0  0  0  0  0  0  0
   -8.6910    6.3920   -3.5310 C   0  0  0  0  0  0  0  0  0  0  0  0
   -9.2730    7.1210   -2.2970 C   0  0  1  0  0  0  0  0  0  0  0  0
   -9.6180    8.5560   -2.8050 C   0  0  0  0  0  0  0  0  0  0  0  0
  -10.5010    6.4410   -1.6090 C   0  0  2  0  0  0  0  0  0  0  0  0
  -11.7570    6.3170   -2.4890 C   0  0  0  0  0  0  0  0  0  0  0  0
  -12.7060    7.4670   -2.4110 C   0  0  0  0  0  0  0  0  0  0  0  0
  -12.7040    8.4200   -1.4600 C   0  0  0  0  0  0  0  0  0  0  0  0
  -11.7380    8.3430   -0.2700 C   0  0  1  0  0  0  0  0  0  0  0  0
  -12.5110    8.6310    1.0430 C   0  0  0  0  0  0  0  0  0  0  0  0
  -13.2750    9.9510    0.9960 C   0  0  0  0  0  0  0  0  0  0  0  0
  -14.2660    9.9660   -0.1650 C   0  0  2  0  0  0  0  0  0  0  0  0
  -15.2880    8.9960    0.0890 O   0  0  0  0  0  0  0  0  0  0  0  0
  -13.6030    9.6780   -1.5410 C   0  0  0  0  0  0  0  0  0  0  0  0
  -12.7200   10.8810   -1.9550 C   0  0  0  0  0  0  0  0  0  0  0  0
  -14.7310    9.5820   -2.6030 C   0  0  0  0  0  0  0  0  0  0  0  0
  -10.8510    7.0280   -0.1810 C   0  0  1  0  0  0  0  0  0  0  0  0
  -11.6290    5.9120    0.5800 C   0  0  0  0  0  0  0  0  0  0  0  0
   -9.5630    7.3330    0.6720 C   0  0  0  0  0  0  0  0  0  0  0  0
   -8.3430    7.8910   -0.0850 C   0  0  0  0  0  0  0  0  0  0  0  0
   -8.0370    7.0490   -1.3270 C   0  0  2  0  0  0  0  0  0  0  0  0
   -7.6640    5.6050   -0.8470 C   0  0  0  0  0  0  0  0  0  0  0  0
   -5.1032    5.4958   -0.6968 H   0  0  0  0  0  0  0  0  0  0  0  0
   -5.9753    5.2765   -2.2518 H   0  0  0  0  0  0  0  0  0  0  0  0
   -4.2136    5.6274   -2.2518 H   0  0  0  0  0  0  0  0  0  0  0  0
   -4.7686    7.7828   -2.5043 H   0  0  0  0  0  0  0  0  0  0  0  0
   -6.1948    8.4290   -0.0803 H   0  0  0  0  0  0  0  0  0  0  0  0
   -4.8547    7.2321    0.2598 H   0  0  0  0  0  0  0  0  0  0  0  0
   -4.4926    9.8624   -1.2211 H   0  0  0  0  0  0  0  0  0  0  0  0
   -4.1570    9.5891    0.5394 H   0  0  0  0  0  0  0  0  0  0  0  0
   -3.2633    7.7270   -1.2910 H   0  0  0  0  0  0  0  0  0  0  0  0
   -1.8264   11.3768   -0.1362 H   0  0  0  0  0  0  0  0  0  0  0  0
   -0.9289   11.4243   -1.6915 H   0  0  0  0  0  0  0  0  0  0  0  0
   -2.7177   11.2610   -1.6915 H   0  0  0  0  0  0  0  0  0  0  0  0
    0.2417    8.5257   -1.2094 H   0  0  0  0  0  0  0  0  0  0  0  0
   -0.8847    8.0942   -2.5405 H   0  0  0  0  0  0  0  0  0  0  0  0
   -0.0646    9.6924   -2.5405 H   0  0  0  0  0  0  0  0  0  0  0  0
   -6.9104    8.6574   -2.2847 H   0  0  0  0  0  0  0  0  0  0  0  0
   -7.0778    7.5635   -4.4329 H   0  0  0  0  0  0  0  0  0  0  0  0
   -6.5385    6.0064   -3.7688 H   0  0  0  0  0  0  0  0  0  0  0  0
   -9.2324    6.6810   -4.4439 H   0  0  0  0  0  0  0  0  0  0  0  0
   -8.7801    5.2986   -3.4500 H   0  0  0  0  0  0  0  0  0  0  0  0
   -9.7779    9.2213   -1.9437 H   0  0  0  0  0  0  0  0  0  0  0  0
   -8.7863    8.9390   -3.4146 H   0  0  0  0  0  0  0  0  0  0  0  0
  -10.5329    8.5191   -3.4146 H   0  0  0  0  0  0  0  0  0  0  0  0
  -10.1438    5.4124   -1.4529 H   0  0  0  0  0  0  0  0  0  0  0  0
  -11.4308    6.2157   -3.5346 H   0  0  0  0  0  0  0  0  0  0  0  0
  -12.3073    5.4421   -2.1126 H   0  0  0  0  0  0  0  0  0  0  0  0
  -13.4717    7.5420   -3.1972 H   0  0  0  0  0  0  0  0  0  0  0  0
  -10.9842    9.1262   -0.4385 H   0  0  0  0  0  0  0  0  0  0  0  0
  -13.2279    7.8149    1.2161 H   0  0  0  0  0  0  0  0  0  0  0  0
  -11.7731    8.7016    1.8557 H   0  0  0  0  0  0  0  0  0  0  0  0
  -13.8242   10.0830    1.9399 H   0  0  0  0  0  0  0  0  0  0  0  0
  -12.5540   10.7694    0.8531 H   0  0  0  0  0  0  0  0  0  0  0  0
  -14.6868   10.9805   -0.2263 H   0  0  0  0  0  0  0  0  0  0  0  0
  -15.7220    9.2390    0.9240 H   0  0  0  0  0  0  0  0  0  0  0  0
  -12.3469   11.3893   -1.0537 H   0  0  0  0  0  0  0  0  0  0  0  0
  -11.8689   10.5226   -2.5527 H   0  0  0  0  0  0  0  0  0  0  0  0
  -13.3170   11.5855   -2.5527 H   0  0  0  0  0  0  0  0  0  0  0  0
  -15.7044    9.4992   -2.0975 H   0  0  0  0  0  0  0  0  0  0  0  0
  -14.7201   10.4843   -3.2321 H   0  0  0  0  0  0  0  0  0  0  0  0
  -14.5678    8.6945   -3.2321 H   0  0  0  0  0  0  0  0  0  0  0  0
  -11.5225    6.0648    1.6641 H   0  0  0  0  0  0  0  0  0  0  0  0
  -12.6936    5.9555    0.3065 H   0  0  0  0  0  0  0  0  0  0  0  0
  -11.2200    4.9282    0.3065 H   0  0  0  0  0  0  0  0  0  0  0  0
   -9.8406    8.0674    1.4425 H   0  0  0  0  0  0  0  0  0  0  0  0
   -9.2380    6.3566    1.0605 H   0  0  0  0  0  0  0  0  0  0  0  0
   -8.5536    8.9254   -0.3944 H   0  0  0  0  0  0  0  0  0  0  0  0
   -7.4704    7.8595    0.5840 H   0  0  0  0  0  0  0  0  0  0  0  0
   -7.6562    5.5747    0.2526 H   0  0  0  0  0  0  0  0  0  0  0  0
   -8.4066    4.8886   -1.2283 H   0  0  0  0  0  0  0  0  0  0  0  0
   -6.6674    5.3379   -1.2283 H   0  0  0  0  0  0  0  0  0  0  0  0
  1  2  1  0
  2  3  1  0
  3  4  1  0
  4  5  1  0
  5  6  1  0
  6  7  1  0
  7  8  1  0
  7  9  1  0
  2 10  1  0
 10 11  1  0
 11 12  1  0
 12 13  1  0
 13 14  1  6
 13 15  1  0
 15 16  1  0
 16 17  1  0
 17 18  2  0
 18 19  1  0
 19 20  1  0
 20 21  1  0
 21 22  1  0
 22 23  1  0
 22 24  1  0
 24 25  1  0
 24 26  1  0
 19 27  1  0
 27 28  1  1
 27 29  1  0
 29 30  1  0
 30 31  1  0
 31 32  1  1
  7  5  1  0
 31 10  1  0
 31 13  1  0
 27 15  1  0
 24 18  1  0
  1 33  1  0
  1 34  1  0
  1 35  1  0
  2 36  1  6
  3 37  1  0
  3 38  1  0
  4 39  1  0
  4 40  1  0
  5 41  1  6
  8 42  1  0
  8 43  1  0
  8 44  1  0
  9 45  1  0
  9 46  1  0
  9 47  1  0
 10 48  1  6
 11 49  1  0
 11 50  1  0
 12 51  1  0
 12 52  1  0
 14 53  1  0
 14 54  1  0
 14 55  1  0
 15 56  1  1
 16 57  1  0
 16 58  1  0
 17 59  1  0
 19 60  1  6
 20 61  1  0
 20 62  1  0
 21 63  1  0
 21 64  1  0
 22 65  1  6
 23 66  1  0
 25 67  1  0
 25 68  1  0
 25 69  1  0
 26 70  1  0
 26 71  1  0
 26 72  1  0
 28 73  1  0
 28 74  1  0
 28 75  1  0
 29 76  1  0
 29 77  1  0
 30 78  1  0
 30 79  1  0
 32 80  1  0
 32 81  1  0
 32 82  1  0
M  END
>  <meeko>  (18) 
{"is_sidechain": [false], "intermolecular_energy": 2.731, "internal_energy": -0.839}

$$$$
