EPH_relaxed_0001_pdb2pqr_Repair_49_r2_0001_out
     RDKit          3D

 82 86  0  0  0  0  0  0  0  0999 V2000
   -1.7010    8.5790   -1.8530 C   0  0  0  0  0  0  0  0  0  0  0  0
   -2.0920    9.1150   -0.4720 C   0  0  2  0  0  0  0  0  0  0  0  0
   -3.5850    9.4890   -0.3960 C   0  0  0  0  0  0  0  0  0  0  0  0
   -4.5140    8.2840   -0.2190 C   0  0  0  0  0  0  0  0  0  0  0  0
   -5.1910    7.9140   -1.5040 C   0  0  2  0  0  0  0  0  0  0  0  0
   -6.3460    8.7020   -1.8200 O   0  0  0  0  0  0  0  0  0  0  0  0
   -6.5800    7.3060   -1.5720 C   0  0  0  0  0  0  0  0  0  0  0  0
   -7.3740    7.0330   -0.3330 C   0  0  0  0  0  0  0  0  0  0  0  0
   -6.9630    6.5320   -2.7950 C   0  0  0  0  0  0  0  0  0  0  0  0
   -1.2330   10.3240   -0.1220 C   0  0  1  0  0  0  0  0  0  0  0  0
   -0.2040   10.0210    1.0000 C   0  0  0  0  0  0  0  0  0  0  0  0
    1.0670   10.8480    0.6770 C   0  0  0  0  0  0  0  0  0  0  0  0
    0.6170   11.8420   -0.4190 C   0  0  1  0  0  0  0  0  0  0  0  0
   -0.0910   12.9980    0.3550 C   0  0  0  0  0  0  0  0  0  0  0  0
    1.7390   12.3830   -1.3640 C   0  0  2  0  0  0  0  0  0  0  0  0
    2.8410   13.2000   -0.6680 C   0  0  0  0  0  0  0  0  0  0  0  0
    2.5900   14.6700   -0.5880 C   0  0  0  0  0  0  0  0  0  0  0  0
    1.6690   15.3460   -1.2990 C   0  0  0  0  0  0  0  0  0  0  0  0
    0.8260   14.6400   -2.3700 C   0  0  1  0  0  0  0  0  0  0  0  0
    0.8020   15.5010   -3.6600 C   0  0  0  0  0  0  0  0  0  0  0  0
    0.3380   16.9310   -3.4020 C   0  0  0  0  0  0  0  0  0  0  0  0
    1.2360   17.6180   -2.3760 C   0  0  2  0  0  0  0  0  0  0  0  0
    2.5390   17.7860   -2.9430 O   0  0  0  0  0  0  0  0  0  0  0  0
    1.3450   16.8370   -1.0360 C   0  0  0  0  0  0  0  0  0  0  0  0
   -0.0030   16.9150   -0.2770 C   0  0  0  0  0  0  0  0  0  0  0  0
    2.3880   17.5630   -0.1440 C   0  0  0  0  0  0  0  0  0  0  0  0
    1.1980   13.1220   -2.6550 C   0  0  1  0  0  0  0  0  0  0  0  0
    2.3330   13.0440   -3.7210 C   0  0  0  0  0  0  0  0  0  0  0  0
   -0.0500   12.3960   -3.2820 C   0  0  0  0  0  0  0  0  0  0  0  0
   -1.0620   11.7780   -2.2970 C   0  0  0  0  0  0  0  0  0  0  0  0
   -0.3500   10.9200   -1.2470 C   0  0  2  0  0  0  0  0  0  0  0  0
    0.3530    9.7350   -1.9940 C   0  0  0  0  0  0  0  0  0  0  0  0
   -1.0565    7.6955   -1.7344 H   0  0  0  0  0  0  0  0  0  0  0  0
   -2.6085    8.2990   -2.4081 H   0  0  0  0  0  0  0  0  0  0  0  0
   -1.1573    9.3576   -2.4081 H   0  0  0  0  0  0  0  0  0  0  0  0
   -1.9163    8.3107    0.2575 H   0  0  0  0  0  0  0  0  0  0  0  0
   -3.7299   10.1674    0.4577 H   0  0  0  0  0  0  0  0  0  0  0  0
   -3.8477    9.9589   -1.3553 H   0  0  0  0  0  0  0  0  0  0  0  0
   -3.9222    7.4259    0.1323 H   0  0  0  0  0  0  0  0  0  0  0  0
   -5.2899    8.5531    0.5129 H   0  0  0  0  0  0  0  0  0  0  0  0
   -4.2317    7.6147   -1.9515 H   0  0  0  0  0  0  0  0  0  0  0  0
   -6.7566    7.2453    0.5523 H   0  0  0  0  0  0  0  0  0  0  0  0
   -8.2665    7.6759   -0.3204 H   0  0  0  0  0  0  0  0  0  0  0  0
   -7.6824    5.9772   -0.3204 H   0  0  0  0  0  0  0  0  0  0  0  0
   -7.4325    5.5831   -2.4963 H   0  0  0  0  0  0  0  0  0  0  0  0
   -7.6739    7.1204   -3.3936 H   0  0  0  0  0  0  0  0  0  0  0  0
   -6.0640    6.3238   -3.3936 H   0  0  0  0  0  0  0  0  0  0  0  0
   -2.0236   11.0376    0.1533 H   0  0  0  0  0  0  0  0  0  0  0  0
   -0.6111   10.3185    1.9776 H   0  0  0  0  0  0  0  0  0  0  0  0
    0.0254    8.9461    1.0456 H   0  0  0  0  0  0  0  0  0  0  0  0
    1.4172   11.3867    1.5699 H   0  0  0  0  0  0  0  0  0  0  0  0
    1.9043   10.2150    0.3480 H   0  0  0  0  0  0  0  0  0  0  0  0
    0.0113   12.8310    1.4374 H   0  0  0  0  0  0  0  0  0  0  0  0
    0.3743   13.9579    0.0865 H   0  0  0  0  0  0  0  0  0  0  0  0
   -1.1575   13.0197    0.0865 H   0  0  0  0  0  0  0  0  0  0  0  0
    2.2257   11.4579   -1.7063 H   0  0  0  0  0  0  0  0  0  0  0  0
    2.9515   12.8176    0.3575 H   0  0  0  0  0  0  0  0  0  0  0  0
    3.7449   13.0783   -1.2829 H   0  0  0  0  0  0  0  0  0  0  0  0
    3.2106   15.2493    0.1115 H   0  0  0  0  0  0  0  0  0  0  0  0
   -0.1899   14.5613   -1.9555 H   0  0  0  0  0  0  0  0  0  0  0  0
    1.8171   15.5308   -4.0827 H   0  0  0  0  0  0  0  0  0  0  0  0
    0.0863   15.0388   -4.3559 H   0  0  0  0  0  0  0  0  0  0  0  0
    0.3709   17.4961   -4.3452 H   0  0  0  0  0  0  0  0  0  0  0  0
   -0.6884   16.9018   -3.0074 H   0  0  0  0  0  0  0  0  0  0  0  0
    0.7792   18.5894   -2.1358 H   0  0  0  0  0  0  0  0  0  0  0  0
    2.8740   16.9040   -3.1760 H   0  0  0  0  0  0  0  0  0  0  0  0
    0.1852   16.9041    0.8067 H   0  0  0  0  0  0  0  0  0  0  0  0
   -0.5239   17.8448   -0.5494 H   0  0  0  0  0  0  0  0  0  0  0  0
   -0.6276   16.0515   -0.5494 H   0  0  0  0  0  0  0  0  0  0  0  0
    2.1453   17.3941    0.9155 H   0  0  0  0  0  0  0  0  0  0  0  0
    3.3919   17.1675   -0.3578 H   0  0  0  0  0  0  0  0  0  0  0  0
    2.3657   18.6418   -0.3578 H   0  0  0  0  0  0  0  0  0  0  0  0
    3.3074   12.9770   -3.2149 H   0  0  0  0  0  0  0  0  0  0  0  0
    2.1846   12.1539   -4.3501 H   0  0  0  0  0  0  0  0  0  0  0  0
    2.3078   13.9460   -4.3501 H   0  0  0  0  0  0  0  0  0  0  0  0
   -0.5899   13.1323   -3.8955 H   0  0  0  0  0  0  0  0  0  0  0  0
    0.3637   11.5443   -3.8418 H   0  0  0  0  0  0  0  0  0  0  0  0
   -1.6103   12.5858   -1.7902 H   0  0  0  0  0  0  0  0  0  0  0  0
   -1.7556   11.1378   -2.8619 H   0  0  0  0  0  0  0  0  0  0  0  0
    0.7697    9.0327   -1.2570 H   0  0  0  0  0  0  0  0  0  0  0  0
   -0.3811    9.2121   -2.6246 H   0  0  0  0  0  0  0  0  0  0  0  0
    1.1638   10.1286   -2.6246 H   0  0  0  0  0  0  0  0  0  0  0  0
  1  2  1  0
  2  3  1  0
  3  4  1  0
  4  5  1  0
  5  6  1  0
  6  7  1  0
  7  8  1  0
  7  9  1  0
  2 10  1  0
 10 11  1  0
 11 12  1  0
 12 13  1  0
 13 14  1  1
 13 15  1  0
 15 16  1  0
 16 17  1  0
 17 18  2  0
 18 19  1  0
 19 20  1  0
 20 21  1  0
 21 22  1  0
 22 23  1  0
 22 24  1  0
 24 25  1  0
 24 26  1  0
 19 27  1  0
 27 28  1  6
 27 29  1  0
 29 30  1  0
 30 31  1  0
 31 32  1  6
  7  5  1  0
 31 10  1  0
 31 13  1  0
 27 15  1  0
 24 18  1  0
  1 33  1  0
  1 34  1  0
  1 35  1  0
  2 36  1  1
  3 37  1  0
  3 38  1  0
  4 39  1  0
  4 40  1  0
  5 41  1  6
  8 42  1  0
  8 43  1  0
  8 44  1  0
  9 45  1  0
  9 46  1  0
  9 47  1  0
 10 48  1  1
 11 49  1  0
 11 50  1  0
 12 51  1  0
 12 52  1  0
 14 53  1  0
 14 54  1  0
 14 55  1  0
 15 56  1  6
 16 57  1  0
 16 58  1  0
 17 59  1  0
 19 60  1  1
 20 61  1  0
 20 62  1  0
 21 63  1  0
 21 64  1  0
 22 65  1  1
 23 66  1  0
 25 67  1  0
 25 68  1  0
 25 69  1  0
 26 70  1  0
 26 71  1  0
 26 72  1  0
 28 73  1  0
 28 74  1  0
 28 75  1  0
 29 76  1  0
 29 77  1  0
 30 78  1  0
 30 79  1  0
 32 80  1  0
 32 81  1  0
 32 82  1  0
M  END
>  <meeko>  (1) 
{"is_sidechain": [false], "intermolecular_energy": 2.731, "internal_energy": -0.839}

$$$$
EPH_relaxed_0001_pdb2pqr_Repair_49_r2_0001_out
     RDKit          3D

 82 86  0  0  0  0  0  0  0  0999 V2000
    4.3440   17.3410   -0.5900 C   0  0  0  0  0  0  0  0  0  0  0  0
    2.9790   17.9660   -0.2870 C   0  0  2  0  0  0  0  0  0  0  0  0
    2.9880   18.7690    1.0300 C   0  0  0  0  0  0  0  0  0  0  0  0
    4.3160   18.6940    1.7880 C   0  0  0  0  0  0  0  0  0  0  0  0
    4.1990   19.2630    3.1690 C   0  0  2  0  0  0  0  0  0  0  0  0
    5.2300   20.1940    3.5230 O   0  0  0  0  0  0  0  0  0  0  0  0
    5.1920   18.9740    4.2800 C   0  0  0  0  0  0  0  0  0  0  0  0
    6.3740   18.0830    4.0570 C   0  0  0  0  0  0  0  0  0  0  0  0
    4.7520   19.1580    5.6990 C   0  0  0  0  0  0  0  0  0  0  0  0
    1.9110   16.8800   -0.2280 C   0  0  1  0  0  0  0  0  0  0  0  0
    0.4790   17.4380   -0.4430 C   0  0  0  0  0  0  0  0  0  0  0  0
   -0.3120   16.3530   -1.2170 C   0  0  0  0  0  0  0  0  0  0  0  0
    0.5750   15.0880   -1.1310 C   0  0  1  0  0  0  0  0  0  0  0  0
    0.2740   14.4830    0.2760 C   0  0  0  0  0  0  0  0  0  0  0  0
    0.3830   14.0310   -2.2670 C   0  0  2  0  0  0  0  0  0  0  0  0
   -1.0170   13.3970   -2.3390 C   0  0  0  0  0  0  0  0  0  0  0  0
   -1.1950   12.1520   -1.5350 C   0  0  0  0  0  0  0  0  0  0  0  0
   -0.2010   11.4080   -1.0150 C   0  0  0  0  0  0  0  0  0  0  0  0
    1.2680   11.7460   -1.3000 C   0  0  1  0  0  0  0  0  0  0  0  0
    2.0320   10.4520   -1.6850 C   0  0  0  0  0  0  0  0  0  0  0  0
    1.8790    9.3500   -0.6410 C   0  0  0  0  0  0  0  0  0  0  0  0
    0.4080    9.0010   -0.4280 C   0  0  2  0  0  0  0  0  0  0  0  0
   -0.1020    8.4030   -1.6240 O   0  0  0  0  0  0  0  0  0  0  0  0
   -0.4640   10.2290   -0.0450 C   0  0  0  0  0  0  0  0  0  0  0  0
   -0.1090   10.6930    1.3890 C   0  0  0  0  0  0  0  0  0  0  0  0
   -1.9450    9.7670    0.0020 C   0  0  0  0  0  0  0  0  0  0  0  0
    1.5190   12.9320   -2.3280 C   0  0  1  0  0  0  0  0  0  0  0  0
    1.5270   12.3790   -3.7860 C   0  0  0  0  0  0  0  0  0  0  0  0
    2.9510   13.5360   -2.0750 C   0  0  0  0  0  0  0  0  0  0  0  0
    3.0550   14.6600   -1.0260 C   0  0  0  0  0  0  0  0  0  0  0  0
    1.9980   15.7400   -1.2730 C   0  0  2  0  0  0  0  0  0  0  0  0
    2.2880   16.3830   -2.6720 C   0  0  0  0  0  0  0  0  0  0  0  0
    4.8573   17.1060    0.3541 H   0  0  0  0  0  0  0  0  0  0  0  0
    4.2036   16.4175   -1.1708 H   0  0  0  0  0  0  0  0  0  0  0  0
    4.9514   18.0507   -1.1708 H   0  0  0  0  0  0  0  0  0  0  0  0
    2.7488   18.6691   -1.1011 H   0  0  0  0  0  0  0  0  0  0  0  0
    2.7814   19.8236    0.7951 H   0  0  0  0  0  0  0  0  0  0  0  0
    2.2206   18.3258    1.6817 H   0  0  0  0  0  0  0  0  0  0  0  0
    4.6255   17.6410    1.8614 H   0  0  0  0  0  0  0  0  0  0  0  0
    5.0601   19.2862    1.2352 H   0  0  0  0  0  0  0  0  0  0  0  0
    3.1015   19.2031    3.1258 H   0  0  0  0  0  0  0  0  0  0  0  0
    6.7869   17.7718    5.0279 H   0  0  0  0  0  0  0  0  0  0  0  0
    6.0612   17.1940    3.4896 H   0  0  0  0  0  0  0  0  0  0  0  0
    7.1425   18.6285    3.4896 H   0  0  0  0  0  0  0  0  0  0  0  0
    5.5512   18.8238    6.3770 H   0  0  0  0  0  0  0  0  0  0  0  0
    4.5373   20.2213    5.8814 H   0  0  0  0  0  0  0  0  0  0  0  0
    3.8442   18.5641    5.8814 H   0  0  0  0  0  0  0  0  0  0  0  0
    2.1071   16.4828    0.7789 H   0  0  0  0  0  0  0  0  0  0  0  0
    0.0000   17.6362    0.5272 H   0  0  0  0  0  0  0  0  0  0  0  0
    0.5038   18.3841   -1.0036 H   0  0  0  0  0  0  0  0  0  0  0  0
   -1.2897   16.1746   -0.7455 H   0  0  0  0  0  0  0  0  0  0  0  0
   -0.5178   16.6485   -2.2564 H   0  0  0  0  0  0  0  0  0  0  0  0
    0.6197   15.1779    1.0555 H   0  0  0  0  0  0  0  0  0  0  0  0
   -0.8090   14.3224    0.3820 H   0  0  0  0  0  0  0  0  0  0  0  0
    0.7992   13.5223    0.3820 H   0  0  0  0  0  0  0  0  0  0  0  0
    0.4808   14.6420   -3.1764 H   0  0  0  0  0  0  0  0  0  0  0  0
   -1.7453   14.1397   -1.9813 H   0  0  0  0  0  0  0  0  0  0  0  0
   -1.1653   13.1050   -3.3891 H   0  0  0  0  0  0  0  0  0  0  0  0
   -2.2256   11.8139   -1.3520 H   0  0  0  0  0  0  0  0  0  0  0  0
    1.6741   12.1536   -0.3625 H   0  0  0  0  0  0  0  0  0  0  0  0
    1.6416   10.0845   -2.6455 H   0  0  0  0  0  0  0  0  0  0  0  0
    3.1010   10.7026   -1.7519 H   0  0  0  0  0  0  0  0  0  0  0  0
    2.4160    8.4530   -0.9830 H   0  0  0  0  0  0  0  0  0  0  0  0
    2.2965    9.7082    0.3116 H   0  0  0  0  0  0  0  0  0  0  0  0
    0.3545    8.3020    0.4197 H   0  0  0  0  0  0  0  0  0  0  0  0
   -1.0480    8.2270   -1.4850 H   0  0  0  0  0  0  0  0  0  0  0  0
   -0.6085   10.0401    2.1199 H   0  0  0  0  0  0  0  0  0  0  0  0
    0.9802   10.6385    1.5329 H   0  0  0  0  0  0  0  0  0  0  0  0
   -0.4465   11.7300    1.5329 H   0  0  0  0  0  0  0  0  0  0  0  0
   -2.2649    9.6672    1.0497 H   0  0  0  0  0  0  0  0  0  0  0  0
   -2.5773   10.5106   -0.5052 H   0  0  0  0  0  0  0  0  0  0  0  0
   -2.0424    8.7958   -0.5052 H   0  0  0  0  0  0  0  0  0  0  0  0
    1.5429   11.2794   -3.7610 H   0  0  0  0  0  0  0  0  0  0  0  0
    0.6238   12.7208   -4.3127 H   0  0  0  0  0  0  0  0  0  0  0  0
    2.4199   12.7467   -4.3127 H   0  0  0  0  0  0  0  0  0  0  0  0
    3.6059   12.7146   -1.7488 H   0  0  0  0  0  0  0  0  0  0  0  0
    3.2388   14.0039   -3.0280 H   0  0  0  0  0  0  0  0  0  0  0  0
    2.9047   14.2320   -0.0239 H   0  0  0  0  0  0  0  0  0  0  0  0
    4.0511   15.1202   -1.1028 H   0  0  0  0  0  0  0  0  0  0  0  0
    2.7366   17.3776   -2.5325 H   0  0  0  0  0  0  0  0  0  0  0  0
    2.9842   15.7421   -3.2329 H   0  0  0  0  0  0  0  0  0  0  0  0
    1.3468   16.4807   -3.2329 H   0  0  0  0  0  0  0  0  0  0  0  0
  1  2  1  0
  2  3  1  0
  3  4  1  0
  4  5  1  0
  5  6  1  0
  6  7  1  0
  7  8  1  0
  7  9  1  0
  2 10  1  0
 10 11  1  0
 11 12  1  0
 12 13  1  0
 13 14  1  1
 13 15  1  0
 15 16  1  0
 16 17  1  0
 17 18  2  0
 18 19  1  0
 19 20  1  0
 20 21  1  0
 21 22  1  0
 22 23  1  0
 22 24  1  0
 24 25  1  0
 24 26  1  0
 19 27  1  0
 27 28  1  6
 27 29  1  0
 29 30  1  0
 30 31  1  0
 31 32  1  6
  7  5  1  0
 31 10  1  0
 31 13  1  0
 27 15  1  0
 24 18  1  0
  1 33  1  0
  1 34  1  0
  1 35  1  0
  2 36  1  6
  3 37  1  0
  3 38  1  0
  4 39  1  0
  4 40  1  0
  5 41  1  1
  8 42  1  0
  8 43  1  0
  8 44  1  0
  9 45  1  0
  9 46  1  0
  9 47  1  0
 10 48  1  1
 11 49  1  0
 11 50  1  0
 12 51  1  0
 12 52  1  0
 14 53  1  0
 14 54  1  0
 14 55  1  0
 15 56  1  6
 16 57  1  0
 16 58  1  0
 17 59  1  0
 19 60  1  1
 20 61  1  0
 20 62  1  0
 21 63  1  0
 21 64  1  0
 22 65  1  1
 23 66  1  0
 25 67  1  0
 25 68  1  0
 25 69  1  0
 26 70  1  0
 26 71  1  0
 26 72  1  0
 28 73  1  0
 28 74  1  0
 28 75  1  0
 29 76  1  0
 29 77  1  0
 30 78  1  0
 30 79  1  0
 32 80  1  0
 32 81  1  0
 32 82  1  0
M  END
>  <meeko>  (2) 
{"is_sidechain": [false], "intermolecular_energy": 2.731, "internal_energy": -0.839}

$$$$
EPH_relaxed_0001_pdb2pqr_Repair_49_r2_0001_out
     RDKit          3D

 82 86  0  0  0  0  0  0  0  0999 V2000
    0.4040   18.4240   -0.0610 C   0  0  0  0  0  0  0  0  0  0  0  0
    1.4820   17.3550   -0.2580 C   0  0  2  0  0  0  0  0  0  0  0  0
    2.7070   17.8990   -1.0210 C   0  0  0  0  0  0  0  0  0  0  0  0
    3.9400   18.1050   -0.1380 C   0  0  0  0  0  0  0  0  0  0  0  0
    3.5680   18.6020    1.2270 C   0  0  2  0  0  0  0  0  0  0  0  0
    3.8060   20.0000    1.4400 O   0  0  0  0  0  0  0  0  0  0  0  0
    4.5810   19.0950    2.2430 C   0  0  0  0  0  0  0  0  0  0  0  0
    6.0460   19.1140    1.9370 C   0  0  0  0  0  0  0  0  0  0  0  0
    4.2010   19.0960    3.6900 C   0  0  0  0  0  0  0  0  0  0  0  0
    0.8970   16.1580   -0.9980 C   0  0  1  0  0  0  0  0  0  0  0  0
    0.7410   16.4140   -2.5210 C   0  0  0  0  0  0  0  0  0  0  0  0
    1.0200   15.0660   -3.2330 C   0  0  0  0  0  0  0  0  0  0  0  0
    0.9990   14.0140   -2.0990 C   0  0  1  0  0  0  0  0  0  0  0  0
   -0.5140   13.7170   -1.8560 C   0  0  0  0  0  0  0  0  0  0  0  0
    1.8100   12.7030   -2.3570 C   0  0  2  0  0  0  0  0  0  0  0  0
    1.3210   11.8560   -3.5450 C   0  0  0  0  0  0  0  0  0  0  0  0
    0.2970   10.8230   -3.2110 C   0  0  0  0  0  0  0  0  0  0  0  0
   -0.0040   10.3890   -1.9730 C   0  0  0  0  0  0  0  0  0  0  0  0
    0.7880   10.8800   -0.7540 C   0  0  1  0  0  0  0  0  0  0  0  0
    1.1610    9.6700    0.1420 C   0  0  0  0  0  0  0  0  0  0  0  0
   -0.0540    8.8340    0.5330 C   0  0  0  0  0  0  0  0  0  0  0  0
   -0.7810    8.3170   -0.7050 C   0  0  2  0  0  0  0  0  0  0  0  0
    0.0660    7.3810   -1.3790 O   0  0  0  0  0  0  0  0  0  0  0  0
   -1.1980    9.4460   -1.6880 C   0  0  0  0  0  0  0  0  0  0  0  0
   -2.3410   10.2840   -1.0630 C   0  0  0  0  0  0  0  0  0  0  0  0
   -1.7940    8.7790   -2.9570 C   0  0  0  0  0  0  0  0  0  0  0  0
    2.0340   11.8150   -1.0670 C   0  0  1  0  0  0  0  0  0  0  0  0
    3.2980   10.9430   -1.3400 C   0  0  0  0  0  0  0  0  0  0  0  0
    2.3600   12.6810    0.2070 C   0  0  0  0  0  0  0  0  0  0  0  0
    1.6130   14.0220    0.3450 C   0  0  0  0  0  0  0  0  0  0  0  0
    1.6980   14.8320   -0.9530 C   0  0  2  0  0  0  0  0  0  0  0  0
    3.2070   15.1650   -1.2110 C   0  0  0  0  0  0  0  0  0  0  0  0
    0.2406   18.5861    1.0147 H   0  0  0  0  0  0  0  0  0  0  0  0
    0.7308   19.3648   -0.5281 H   0  0  0  0  0  0  0  0  0  0  0  0
   -0.5340   18.0893   -0.5281 H   0  0  0  0  0  0  0  0  0  0  0  0
    1.8261   17.0439    0.7394 H   0  0  0  0  0  0  0  0  0  0  0  0
    2.9653   17.1853   -1.8172 H   0  0  0  0  0  0  0  0  0  0  0  0
    2.4267   18.8862   -1.4171 H   0  0  0  0  0  0  0  0  0  0  0  0
    4.4697   17.1463   -0.0362 H   0  0  0  0  0  0  0  0  0  0  0  0
    4.5810   18.8609   -0.6152 H   0  0  0  0  0  0  0  0  0  0  0  0
    2.7501   17.8698    1.2966 H   0  0  0  0  0  0  0  0  0  0  0  0
    6.6169   19.1214    2.8772 H   0  0  0  0  0  0  0  0  0  0  0  0
    6.3105   18.2192    1.3544 H   0  0  0  0  0  0  0  0  0  0  0  0
    6.2872   20.0153    1.3544 H   0  0  0  0  0  0  0  0  0  0  0  0
    5.1109   19.0936    4.3081 H   0  0  0  0  0  0  0  0  0  0  0  0
    3.6087   19.9957    3.9129 H   0  0  0  0  0  0  0  0  0  0  0  0
    3.6040   18.1994    3.9129 H   0  0  0  0  0  0  0  0  0  0  0  0
   -0.0483   16.0461   -0.4468 H   0  0  0  0  0  0  0  0  0  0  0  0
   -0.2802   16.7561   -2.7448 H   0  0  0  0  0  0  0  0  0  0  0  0
    1.4382   17.1928   -2.8636 H   0  0  0  0  0  0  0  0  0  0  0  0
    0.2388   14.8508   -3.9769 H   0  0  0  0  0  0  0  0  0  0  0  0
    1.9752   15.0723   -3.7785 H   0  0  0  0  0  0  0  0  0  0  0  0
   -0.7110   13.6783   -0.7745 H   0  0  0  0  0  0  0  0  0  0  0  0
   -1.1216   14.5130   -2.3111 H   0  0  0  0  0  0  0  0  0  0  0  0
   -0.7756   12.7504   -2.3111 H   0  0  0  0  0  0  0  0  0  0  0  0
    2.7962   13.0903   -2.6527 H   0  0  0  0  0  0  0  0  0  0  0  0
    0.8865   12.5366   -4.2920 H   0  0  0  0  0  0  0  0  0  0  0  0
    2.2010   11.3062   -3.9101 H   0  0  0  0  0  0  0  0  0  0  0  0
   -0.2598   10.3779   -4.0488 H   0  0  0  0  0  0  0  0  0  0  0  0
    0.1154   11.5568   -0.2066 H   0  0  0  0  0  0  0  0  0  0  0  0
    1.8676    9.0298   -0.4065 H   0  0  0  0  0  0  0  0  0  0  0  0
    1.6060   10.0647    1.0673 H   0  0  0  0  0  0  0  0  0  0  0  0
    0.2778    7.9783    1.1393 H   0  0  0  0  0  0  0  0  0  0  0  0
   -0.7458    9.4672    1.1078 H   0  0  0  0  0  0  0  0  0  0  0  0
   -1.7114    7.8387   -0.3651 H   0  0  0  0  0  0  0  0  0  0  0  0
    0.6740    7.8880   -1.9440 H   0  0  0  0  0  0  0  0  0  0  0  0
   -2.2741   10.2349    0.0339 H   0  0  0  0  0  0  0  0  0  0  0  0
   -2.2493   11.3304   -1.3895 H   0  0  0  0  0  0  0  0  0  0  0  0
   -3.3114    9.8818   -1.3895 H   0  0  0  0  0  0  0  0  0  0  0  0
   -2.4996    7.9894   -2.6592 H   0  0  0  0  0  0  0  0  0  0  0  0
   -2.3221    9.5360   -3.5555 H   0  0  0  0  0  0  0  0  0  0  0  0
   -0.9826    8.3391   -3.5555 H   0  0  0  0  0  0  0  0  0  0  0  0
    3.7446   10.6349   -0.3831 H   0  0  0  0  0  0  0  0  0  0  0  0
    3.0104   10.0503   -1.9147 H   0  0  0  0  0  0  0  0  0  0  0  0
    4.0305   11.5288   -1.9147 H   0  0  0  0  0  0  0  0  0  0  0  0
    2.1204   12.0739    1.0924 H   0  0  0  0  0  0  0  0  0  0  0  0
    3.4215   12.9516    0.1074 H   0  0  0  0  0  0  0  0  0  0  0  0
    0.5562   13.8233    0.5768 H   0  0  0  0  0  0  0  0  0  0  0  0
    2.0812   14.6033    1.1530 H   0  0  0  0  0  0  0  0  0  0  0  0
    3.7269   15.2797   -0.2484 H   0  0  0  0  0  0  0  0  0  0  0  0
    3.6703   14.3475   -1.7828 H   0  0  0  0  0  0  0  0  0  0  0  0
    3.2832   16.1016   -1.7828 H   0  0  0  0  0  0  0  0  0  0  0  0
  1  2  1  0
  2  3  1  0
  3  4  1  0
  4  5  1  0
  5  6  1  0
  6  7  1  0
  7  8  1  0
  7  9  1  0
  2 10  1  0
 10 11  1  0
 11 12  1  0
 12 13  1  0
 13 14  1  1
 13 15  1  0
 15 16  1  0
 16 17  1  0
 17 18  2  0
 18 19  1  0
 19 20  1  0
 20 21  1  0
 21 22  1  0
 22 23  1  0
 22 24  1  0
 24 25  1  0
 24 26  1  0
 19 27  1  0
 27 28  1  6
 27 29  1  0
 29 30  1  0
 30 31  1  0
 31 32  1  6
  7  5  1  0
 31 10  1  0
 31 13  1  0
 27 15  1  0
 24 18  1  0
  1 33  1  0
  1 34  1  0
  1 35  1  0
  2 36  1  1
  3 37  1  0
  3 38  1  0
  4 39  1  0
  4 40  1  0
  5 41  1  1
  8 42  1  0
  8 43  1  0
  8 44  1  0
  9 45  1  0
  9 46  1  0
  9 47  1  0
 10 48  1  1
 11 49  1  0
 11 50  1  0
 12 51  1  0
 12 52  1  0
 14 53  1  0
 14 54  1  0
 14 55  1  0
 15 56  1  6
 16 57  1  0
 16 58  1  0
 17 59  1  0
 19 60  1  1
 20 61  1  0
 20 62  1  0
 21 63  1  0
 21 64  1  0
 22 65  1  1
 23 66  1  0
 25 67  1  0
 25 68  1  0
 25 69  1  0
 26 70  1  0
 26 71  1  0
 26 72  1  0
 28 73  1  0
 28 74  1  0
 28 75  1  0
 29 76  1  0
 29 77  1  0
 30 78  1  0
 30 79  1  0
 32 80  1  0
 32 81  1  0
 32 82  1  0
M  END
>  <meeko>  (3) 
{"is_sidechain": [false], "intermolecular_energy": 2.731, "internal_energy": -0.839}

$$$$
EPH_relaxed_0001_pdb2pqr_Repair_49_r2_0001_out
     RDKit          3D

 82 86  0  0  0  0  0  0  0  0999 V2000
    2.1900   18.0080   -2.5080 C   0  0  0  0  0  0  0  0  0  0  0  0
    0.6710   17.8640   -2.6290 C   0  0  2  0  0  0  0  0  0  0  0  0
   -0.0620   18.3510   -1.3630 C   0  0  0  0  0  0  0  0  0  0  0  0
    0.6230   17.9360   -0.0580 C   0  0  0  0  0  0  0  0  0  0  0  0
    1.1640   19.1200    0.6850 C   0  0  2  0  0  0  0  0  0  0  0  0
    2.0550   19.9480   -0.0740 O   0  0  0  0  0  0  0  0  0  0  0  0
    2.6250   19.2760    1.0610 C   0  0  0  0  0  0  0  0  0  0  0  0
    3.6380   18.2340    0.7050 C   0  0  0  0  0  0  0  0  0  0  0  0
    2.9800   20.1940    2.1890 C   0  0  0  0  0  0  0  0  0  0  0  0
    0.3080   16.4110   -2.9140 C   0  0  1  0  0  0  0  0  0  0  0  0
    0.3810   16.0620   -4.4240 C   0  0  0  0  0  0  0  0  0  0  0  0
    0.8760   14.5960   -4.5220 C   0  0  0  0  0  0  0  0  0  0  0  0
    0.7540   14.0470   -3.0810 C   0  0  1  0  0  0  0  0  0  0  0  0
   -0.7510   13.6610   -2.9250 C   0  0  0  0  0  0  0  0  0  0  0  0
    1.6960   12.8550   -2.7130 C   0  0  2  0  0  0  0  0  0  0  0  0
    1.4730   11.5700   -3.5310 C   0  0  0  0  0  0  0  0  0  0  0  0
    0.4920   10.6070   -2.9500 C   0  0  0  0  0  0  0  0  0  0  0  0
    0.0300   10.6270   -1.6860 C   0  0  0  0  0  0  0  0  0  0  0  0
    0.5730   11.6360   -0.6650 C   0  0  1  0  0  0  0  0  0  0  0  0
    0.8900   10.9060    0.6660 C   0  0  0  0  0  0  0  0  0  0  0  0
   -0.3030   10.1200    1.2010 C   0  0  0  0  0  0  0  0  0  0  0  0
   -0.7780    9.0880    0.1810 C   0  0  2  0  0  0  0  0  0  0  0  0
    0.2370    8.0910    0.0270 O   0  0  0  0  0  0  0  0  0  0  0  0
   -1.1170    9.7060   -1.2040 C   0  0  0  0  0  0  0  0  0  0  0  0
   -2.4080   10.5550   -1.0930 C   0  0  0  0  0  0  0  0  0  0  0  0
   -1.4460    8.5430   -2.1780 C   0  0  0  0  0  0  0  0  0  0  0  0
    1.7770   12.5460   -1.1630 C   0  0  1  0  0  0  0  0  0  0  0  0
    3.1330   11.8130   -0.9250 C   0  0  0  0  0  0  0  0  0  0  0  0
    1.8240   13.8580   -0.2940 C   0  0  0  0  0  0  0  0  0  0  0  0
    0.9630   15.0410   -0.7750 C   0  0  0  0  0  0  0  0  0  0  0  0
    1.1920   15.3170   -2.2650 C   0  0  2  0  0  0  0  0  0  0  0  0
    2.6920   15.7290   -2.4490 C   0  0  0  0  0  0  0  0  0  0  0  0
    2.4723   18.0348   -1.4452 H   0  0  0  0  0  0  0  0  0  0  0  0
    2.6795   17.1522   -2.9959 H   0  0  0  0  0  0  0  0  0  0  0  0
    2.5099   18.9405   -2.9959 H   0  0  0  0  0  0  0  0  0  0  0  0
    0.3442   18.5004   -3.4646 H   0  0  0  0  0  0  0  0  0  0  0  0
   -0.1154   19.4493   -1.3933 H   0  0  0  0  0  0  0  0  0  0  0  0
   -1.0572   17.8825   -1.3671 H   0  0  0  0  0  0  0  0  0  0  0  0
   -0.1088   17.4188    0.5799 H   0  0  0  0  0  0  0  0  0  0  0  0
    1.4652   17.2741   -0.3082 H   0  0  0  0  0  0  0  0  0  0  0  0
    0.2381   19.2029    1.2730 H   0  0  0  0  0  0  0  0  0  0  0  0
    4.0583   17.8017    1.6251 H   0  0  0  0  0  0  0  0  0  0  0  0
    3.1563   17.4410    0.1141 H   0  0  0  0  0  0  0  0  0  0  0  0
    4.4442   18.6932    0.1141 H   0  0  0  0  0  0  0  0  0  0  0  0
    2.7851   19.6900    3.1471 H   0  0  0  0  0  0  0  0  0  0  0  0
    4.0456   20.4593    2.1244 H   0  0  0  0  0  0  0  0  0  0  0  0
    2.3702   21.1072    2.1244 H   0  0  0  0  0  0  0  0  0  0  0  0
   -0.7026   16.3852   -2.4803 H   0  0  0  0  0  0  0  0  0  0  0  0
   -0.6141   16.1571   -4.8831 H   0  0  0  0  0  0  0  0  0  0  0  0
    1.0616   16.7445   -4.9542 H   0  0  0  0  0  0  0  0  0  0  0  0
    0.2444   14.0180   -5.2127 H   0  0  0  0  0  0  0  0  0  0  0  0
    1.9032   14.5271   -4.9096 H   0  0  0  0  0  0  0  0  0  0  0  0
   -1.0040   13.5961   -1.8565 H   0  0  0  0  0  0  0  0  0  0  0  0
   -1.3777   14.4275   -3.4043 H   0  0  0  0  0  0  0  0  0  0  0  0
   -0.9314   12.6875   -3.4043 H   0  0  0  0  0  0  0  0  0  0  0  0
    2.6835   13.2343   -3.0146 H   0  0  0  0  0  0  0  0  0  0  0  0
    1.1137   11.8605   -4.5293 H   0  0  0  0  0  0  0  0  0  0  0  0
    2.4406   11.0470   -3.5461 H   0  0  0  0  0  0  0  0  0  0  0  0
    0.1143    9.8132   -3.6112 H   0  0  0  0  0  0  0  0  0  0  0  0
   -0.2306   12.3701   -0.5060 H   0  0  0  0  0  0  0  0  0  0  0  0
    1.7238   10.2090    0.4959 H   0  0  0  0  0  0  0  0  0  0  0  0
    1.1477   11.6711    1.4131 H   0  0  0  0  0  0  0  0  0  0  0  0
   -0.0078    9.6027    2.1258 H   0  0  0  0  0  0  0  0  0  0  0  0
   -1.1260   10.8224    1.3992 H   0  0  0  0  0  0  0  0  0  0  0  0
   -1.7108    8.6498    0.5656 H   0  0  0  0  0  0  0  0  0  0  0  0
    0.6760    8.2480   -0.8260 H   0  0  0  0  0  0  0  0  0  0  0  0
   -2.6515   10.7151   -0.0323 H   0  0  0  0  0  0  0  0  0  0  0  0
   -2.2511   11.5268   -1.5839 H   0  0  0  0  0  0  0  0  0  0  0  0
   -3.2381   10.0260   -1.5839 H   0  0  0  0  0  0  0  0  0  0  0  0
   -1.7009    7.6421   -1.6006 H   0  0  0  0  0  0  0  0  0  0  0  0
   -2.2994    8.8258   -2.8118 H   0  0  0  0  0  0  0  0  0  0  0  0
   -0.5709    8.3369   -2.8118 H   0  0  0  0  0  0  0  0  0  0  0  0
    3.3126   11.7159    0.1559 H   0  0  0  0  0  0  0  0  0  0  0  0
    3.0943   10.8130   -1.3815 H   0  0  0  0  0  0  0  0  0  0  0  0
    3.9485   12.3931   -1.3815 H   0  0  0  0  0  0  0  0  0  0  0  0
    1.4924   13.5964    0.7217 H   0  0  0  0  0  0  0  0  0  0  0  0
    2.8633   14.2117   -0.3630 H   0  0  0  0  0  0  0  0  0  0  0  0
   -0.0985   14.8029   -0.6123 H   0  0  0  0  0  0  0  0  0  0  0  0
    1.2488   15.9371   -0.2047 H   0  0  0  0  0  0  0  0  0  0  0  0
    3.1606   15.8577   -1.4622 H   0  0  0  0  0  0  0  0  0  0  0  0
    3.2223   14.9432   -3.0070 H   0  0  0  0  0  0  0  0  0  0  0  0
    2.7465   16.6754   -3.0070 H   0  0  0  0  0  0  0  0  0  0  0  0
  1  2  1  0
  2  3  1  0
  3  4  1  0
  4  5  1  0
  5  6  1  0
  6  7  1  0
  7  8  1  0
  7  9  1  0
  2 10  1  0
 10 11  1  0
 11 12  1  0
 12 13  1  0
 13 14  1  1
 13 15  1  0
 15 16  1  0
 16 17  1  0
 17 18  2  0
 18 19  1  0
 19 20  1  0
 20 21  1  0
 21 22  1  0
 22 23  1  0
 22 24  1  0
 24 25  1  0
 24 26  1  0
 19 27  1  0
 27 28  1  6
 27 29  1  0
 29 30  1  0
 30 31  1  0
 31 32  1  1
  7  5  1  0
 31 10  1  0
 31 13  1  0
 27 15  1  0
 24 18  1  0
  1 33  1  0
  1 34  1  0
  1 35  1  0
  2 36  1  6
  3 37  1  0
  3 38  1  0
  4 39  1  0
  4 40  1  0
  5 41  1  1
  8 42  1  0
  8 43  1  0
  8 44  1  0
  9 45  1  0
  9 46  1  0
  9 47  1  0
 10 48  1  1
 11 49  1  0
 11 50  1  0
 12 51  1  0
 12 52  1  0
 14 53  1  0
 14 54  1  0
 14 55  1  0
 15 56  1  6
 16 57  1  0
 16 58  1  0
 17 59  1  0
 19 60  1  1
 20 61  1  0
 20 62  1  0
 21 63  1  0
 21 64  1  0
 22 65  1  1
 23 66  1  0
 25 67  1  0
 25 68  1  0
 25 69  1  0
 26 70  1  0
 26 71  1  0
 26 72  1  0
 28 73  1  0
 28 74  1  0
 28 75  1  0
 29 76  1  0
 29 77  1  0
 30 78  1  0
 30 79  1  0
 32 80  1  0
 32 81  1  0
 32 82  1  0
M  END
>  <meeko>  (4) 
{"is_sidechain": [false], "intermolecular_energy": 2.731, "internal_energy": -0.839}

$$$$
EPH_relaxed_0001_pdb2pqr_Repair_49_r2_0001_out
     RDKit          3D

 82 86  0  0  0  0  0  0  0  0999 V2000
   -3.4020    9.3070    0.5220 C   0  0  0  0  0  0  0  0  0  0  0  0
   -2.5710    9.6700   -0.7120 C   0  0  2  0  0  0  0  0  0  0  0  0
   -1.9010    8.4340   -1.3450 C   0  0  0  0  0  0  0  0  0  0  0  0
   -2.8140    7.6580   -2.2970 C   0  0  0  0  0  0  0  0  0  0  0  0
   -4.2540    7.7630   -1.8930 C   0  0  2  0  0  0  0  0  0  0  0  0
   -4.8010    6.5720   -1.3130 O   0  0  0  0  0  0  0  0  0  0  0  0
   -5.3700    6.9860   -2.5650 C   0  0  0  0  0  0  0  0  0  0  0  0
   -5.0960    6.0480   -3.6990 C   0  0  0  0  0  0  0  0  0  0  0  0
   -6.7710    7.5020   -2.4500 C   0  0  0  0  0  0  0  0  0  0  0  0
   -1.5140   10.7030   -0.3410 C   0  0  1  0  0  0  0  0  0  0  0  0
   -0.4160   10.1270    0.5920 C   0  0  0  0  0  0  0  0  0  0  0  0
    0.9140   10.8210    0.2010 C   0  0  0  0  0  0  0  0  0  0  0  0
    0.4860   12.0000   -0.7040 C   0  0  1  0  0  0  0  0  0  0  0  0
    0.0440   13.1240    0.2850 C   0  0  0  0  0  0  0  0  0  0  0  0
    1.5570   12.5140   -1.7210 C   0  0  2  0  0  0  0  0  0  0  0  0
    2.8370   13.0860   -1.0870 C   0  0  0  0  0  0  0  0  0  0  0  0
    2.8090   14.5520   -0.8050 C   0  0  0  0  0  0  0  0  0  0  0  0
    1.9180   15.4280   -1.3060 C   0  0  0  0  0  0  0  0  0  0  0  0
    0.8650   14.9830   -2.3290 C   0  0  1  0  0  0  0  0  0  0  0  0
    0.8150   16.0020   -3.4970 C   0  0  0  0  0  0  0  0  0  0  0  0
    0.5930   17.4330   -3.0160 C   0  0  0  0  0  0  0  0  0  0  0  0
    1.6910   17.8590   -2.0460 C   0  0  2  0  0  0  0  0  0  0  0  0
    2.9310   17.9330   -2.7570 O   0  0  0  0  0  0  0  0  0  0  0  0
    1.8420   16.9000   -0.8320 C   0  0  0  0  0  0  0  0  0  0  0  0
    0.6160   17.0470    0.1030 C   0  0  0  0  0  0  0  0  0  0  0  0
    3.0740   17.3630   -0.0080 C   0  0  0  0  0  0  0  0  0  0  0  0
    0.9820   13.4800   -2.8340 C   0  0  1  0  0  0  0  0  0  0  0  0
    1.9630   13.4000   -4.0430 C   0  0  0  0  0  0  0  0  0  0  0  0
   -0.4220   13.0080   -3.3700 C   0  0  0  0  0  0  0  0  0  0  0  0
   -1.3900   12.3990   -2.3380 C   0  0  0  0  0  0  0  0  0  0  0  0
   -0.6910   11.3260   -1.4970 C   0  0  2  0  0  0  0  0  0  0  0  0
   -0.2550   10.1710   -2.4620 C   0  0  0  0  0  0  0  0  0  0  0  0
   -2.8351    9.5546    1.4316 H   0  0  0  0  0  0  0  0  0  0  0  0
   -4.3434    9.8759    0.5104 H   0  0  0  0  0  0  0  0  0  0  0  0
   -3.6244    8.2298    0.5104 H   0  0  0  0  0  0  0  0  0  0  0  0
   -3.2572   10.0928   -1.4606 H   0  0  0  0  0  0  0  0  0  0  0  0
   -1.0169    8.7684   -1.9075 H   0  0  0  0  0  0  0  0  0  0  0  0
   -1.6420    7.7522   -0.5215 H   0  0  0  0  0  0  0  0  0  0  0  0
   -2.6981    8.0645   -3.3125 H   0  0  0  0  0  0  0  0  0  0  0  0
   -2.5244    6.5974   -2.2615 H   0  0  0  0  0  0  0  0  0  0  0  0
   -4.1353    8.8315   -1.6603 H   0  0  0  0  0  0  0  0  0  0  0  0
   -4.8086    5.0641   -3.2998 H   0  0  0  0  0  0  0  0  0  0  0  0
   -6.0011    5.9435   -4.3153 H   0  0  0  0  0  0  0  0  0  0  0  0
   -4.2769    6.4471   -4.3153 H   0  0  0  0  0  0  0  0  0  0  0  0
   -7.0393    7.6008   -1.3878 H   0  0  0  0  0  0  0  0  0  0  0  0
   -6.8410    8.4849   -2.9389 H   0  0  0  0  0  0  0  0  0  0  0  0
   -7.4618    6.7993   -2.9389 H   0  0  0  0  0  0  0  0  0  0  0  0
   -2.1580   11.4677    0.1177 H   0  0  0  0  0  0  0  0  0  0  0  0
   -0.6608   10.3422    1.6426 H   0  0  0  0  0  0  0  0  0  0  0  0
   -0.3383    9.0352    0.4826 H   0  0  0  0  0  0  0  0  0  0  0  0
    1.4382   11.1883    1.0956 H   0  0  0  0  0  0  0  0  0  0  0  0
    1.6091   10.1359   -0.3064 H   0  0  0  0  0  0  0  0  0  0  0  0
    0.1806   12.7765    1.3197 H   0  0  0  0  0  0  0  0  0  0  0  0
    0.6558   14.0224    0.1161 H   0  0  0  0  0  0  0  0  0  0  0  0
   -1.0159   13.3651    0.1161 H   0  0  0  0  0  0  0  0  0  0  0  0
    1.8636   11.5879   -2.2293 H   0  0  0  0  0  0  0  0  0  0  0  0
    3.0096   12.5603   -0.1363 H   0  0  0  0  0  0  0  0  0  0  0  0
    3.6371   12.9336   -1.8264 H   0  0  0  0  0  0  0  0  0  0  0  0
    3.5818   14.9499   -0.1308 H   0  0  0  0  0  0  0  0  0  0  0  0
   -0.0968   14.9806   -1.7952 H   0  0  0  0  0  0  0  0  0  0  0  0
    1.7681   15.9579   -4.0445 H   0  0  0  0  0  0  0  0  0  0  0  0
   -0.0346   15.7306   -4.1408 H   0  0  0  0  0  0  0  0  0  0  0  0
    0.5970   18.1091   -3.8837 H   0  0  0  0  0  0  0  0  0  0  0  0
   -0.3743   17.4819   -2.4946 H   0  0  0  0  0  0  0  0  0  0  0  0
    1.4076   18.8403   -1.6375 H   0  0  0  0  0  0  0  0  0  0  0  0
    3.5130   17.2380   -2.4070 H   0  0  0  0  0  0  0  0  0  0  0  0
    0.9474   17.0073    1.1511 H   0  0  0  0  0  0  0  0  0  0  0  0
    0.1219   18.0108   -0.0891 H   0  0  0  0  0  0  0  0  0  0  0  0
   -0.0920   16.2273   -0.0891 H   0  0  0  0  0  0  0  0  0  0  0  0
    2.8498   17.2787    1.0656 H   0  0  0  0  0  0  0  0  0  0  0  0
    3.9385   16.7284   -0.2529 H   0  0  0  0  0  0  0  0  0  0  0  0
    3.3065   18.4099   -0.2529 H   0  0  0  0  0  0  0  0  0  0  0  0
    2.9953   13.3158   -3.6726 H   0  0  0  0  0  0  0  0  0  0  0  0
    1.7199   12.5187   -4.6547 H   0  0  0  0  0  0  0  0  0  0  0  0
    1.8659   14.3090   -4.6547 H   0  0  0  0  0  0  0  0  0  0  0  0
   -0.9186   13.8819   -3.8170 H   0  0  0  0  0  0  0  0  0  0  0  0
   -0.2020   12.1926   -4.0748 H   0  0  0  0  0  0  0  0  0  0  0  0
   -1.7553   13.1957   -1.6734 H   0  0  0  0  0  0  0  0  0  0  0  0
   -2.2281   11.9321   -2.8761 H   0  0  0  0  0  0  0  0  0  0  0  0
    0.0726    9.3032   -1.8707 H   0  0  0  0  0  0  0  0  0  0  0  0
   -1.1060    9.8823   -3.0964 H   0  0  0  0  0  0  0  0  0  0  0  0
    0.5745   10.5167   -3.0964 H   0  0  0  0  0  0  0  0  0  0  0  0
  1  2  1  0
  2  3  1  0
  3  4  1  0
  4  5  1  0
  5  6  1  0
  6  7  1  0
  7  8  1  0
  7  9  1  0
  2 10  1  0
 10 11  1  0
 11 12  1  0
 12 13  1  0
 13 14  1  1
 13 15  1  0
 15 16  1  0
 16 17  1  0
 17 18  2  0
 18 19  1  0
 19 20  1  0
 20 21  1  0
 21 22  1  0
 22 23  1  0
 22 24  1  0
 24 25  1  0
 24 26  1  0
 19 27  1  0
 27 28  1  6
 27 29  1  0
 29 30  1  0
 30 31  1  0
 31 32  1  6
  7  5  1  0
 31 10  1  0
 31 13  1  0
 27 15  1  0
 24 18  1  0
  1 33  1  0
  1 34  1  0
  1 35  1  0
  2 36  1  6
  3 37  1  0
  3 38  1  0
  4 39  1  0
  4 40  1  0
  5 41  1  1
  8 42  1  0
  8 43  1  0
  8 44  1  0
  9 45  1  0
  9 46  1  0
  9 47  1  0
 10 48  1  1
 11 49  1  0
 11 50  1  0
 12 51  1  0
 12 52  1  0
 14 53  1  0
 14 54  1  0
 14 55  1  0
 15 56  1  6
 16 57  1  0
 16 58  1  0
 17 59  1  0
 19 60  1  1
 20 61  1  0
 20 62  1  0
 21 63  1  0
 21 64  1  0
 22 65  1  1
 23 66  1  0
 25 67  1  0
 25 68  1  0
 25 69  1  0
 26 70  1  0
 26 71  1  0
 26 72  1  0
 28 73  1  0
 28 74  1  0
 28 75  1  0
 29 76  1  0
 29 77  1  0
 30 78  1  0
 30 79  1  0
 32 80  1  0
 32 81  1  0
 32 82  1  0
M  END
>  <meeko>  (5) 
{"is_sidechain": [false], "intermolecular_energy": 2.731, "internal_energy": -0.839}

$$$$
EPH_relaxed_0001_pdb2pqr_Repair_49_r2_0001_out
     RDKit          3D

 82 86  0  0  0  0  0  0  0  0999 V2000
    3.7620   17.8970    0.6280 C   0  0  0  0  0  0  0  0  0  0  0  0
    2.8060   18.2210   -0.5240 C   0  0  2  0  0  0  0  0  0  0  0  0
    2.1040   19.5800   -0.3320 C   0  0  0  0  0  0  0  0  0  0  0  0
    1.1270   19.6070    0.8460 C   0  0  0  0  0  0  0  0  0  0  0  0
   -0.2110   20.1480    0.4440 C   0  0  2  0  0  0  0  0  0  0  0  0
   -1.1800   20.1940    1.5000 O   0  0  0  0  0  0  0  0  0  0  0  0
   -1.4760   19.3090    0.4080 C   0  0  0  0  0  0  0  0  0  0  0  0
   -1.4610   17.8590    0.7780 C   0  0  0  0  0  0  0  0  0  0  0  0
   -2.6140   19.7690   -0.4490 C   0  0  0  0  0  0  0  0  0  0  0  0
    1.7680   17.1140   -0.6660 C   0  0  1  0  0  0  0  0  0  0  0  0
    0.5200   17.5640   -1.4710 C   0  0  0  0  0  0  0  0  0  0  0  0
    0.0400   16.3310   -2.2780 C   0  0  0  0  0  0  0  0  0  0  0  0
    0.8110   15.1390   -1.6650 C   0  0  1  0  0  0  0  0  0  0  0  0
    0.0130   14.7640   -0.3770 C   0  0  0  0  0  0  0  0  0  0  0  0
    1.0210   13.8990   -2.5950 C   0  0  2  0  0  0  0  0  0  0  0  0
   -0.2720   13.2010   -3.0520 C   0  0  0  0  0  0  0  0  0  0  0  0
   -0.7510   12.1010   -2.1640 C   0  0  0  0  0  0  0  0  0  0  0  0
   -0.0250   11.4990   -1.2040 C   0  0  0  0  0  0  0  0  0  0  0  0
    1.4540   11.8490   -0.9990 C   0  0  1  0  0  0  0  0  0  0  0  0
    2.2810   10.5440   -0.8570 C   0  0  0  0  0  0  0  0  0  0  0  0
    1.7410    9.6260    0.2360 C   0  0  0  0  0  0  0  0  0  0  0  0
    0.2860    9.2530   -0.0340 C   0  0  2  0  0  0  0  0  0  0  0  0
    0.2290    8.4420   -1.2110 O   0  0  0  0  0  0  0  0  0  0  0  0
   -0.6410   10.4890   -0.2050 C   0  0  0  0  0  0  0  0  0  0  0  0
   -0.8180   11.2000    1.1590 C   0  0  0  0  0  0  0  0  0  0  0  0
   -2.0490    9.9760   -0.6120 C   0  0  0  0  0  0  0  0  0  0  0  0
    2.0820   12.8560   -2.0560 C   0  0  1  0  0  0  0  0  0  0  0  0
    2.6020   12.0690   -3.2970 C   0  0  0  0  0  0  0  0  0  0  0  0
    3.3380   13.5570   -1.4160 C   0  0  0  0  0  0  0  0  0  0  0  0
    3.0800   14.8430   -0.6090 C   0  0  0  0  0  0  0  0  0  0  0  0
    2.2030   15.8200   -1.3990 C   0  0  2  0  0  0  0  0  0  0  0  0
    2.9890   16.2320   -2.6900 C   0  0  0  0  0  0  0  0  0  0  0  0
    3.2521   18.0698    1.5872 H   0  0  0  0  0  0  0  0  0  0  0  0
    4.0719   16.8436    0.5620 H   0  0  0  0  0  0  0  0  0  0  0  0
    4.6485   18.5449    0.5620 H   0  0  0  0  0  0  0  0  0  0  0  0
    3.4069   18.2870   -1.4430 H   0  0  0  0  0  0  0  0  0  0  0  0
    2.8736   20.3475   -0.1626 H   0  0  0  0  0  0  0  0  0  0  0  0
    1.5156   19.7692   -1.2420 H   0  0  0  0  0  0  0  0  0  0  0  0
    0.9979   18.5827    1.2256 H   0  0  0  0  0  0  0  0  0  0  0  0
    1.5440   20.2655    1.6222 H   0  0  0  0  0  0  0  0  0  0  0  0
    0.2544   20.8142   -0.2974 H   0  0  0  0  0  0  0  0  0  0  0  0
   -1.4600   17.7601    1.8735 H   0  0  0  0  0  0  0  0  0  0  0  0
   -2.3541   17.3662    0.3662 H   0  0  0  0  0  0  0  0  0  0  0  0
   -0.5579   17.3848    0.3662 H   0  0  0  0  0  0  0  0  0  0  0  0
   -3.4432   20.1042    0.1914 H   0  0  0  0  0  0  0  0  0  0  0  0
   -2.2809   20.6031   -1.0841 H   0  0  0  0  0  0  0  0  0  0  0  0
   -2.9541   18.9377   -1.0841 H   0  0  0  0  0  0  0  0  0  0  0  0
    1.5817   16.8997    0.3967 H   0  0  0  0  0  0  0  0  0  0  0  0
   -0.2721   17.8998   -0.7855 H   0  0  0  0  0  0  0  0  0  0  0  0
    0.7626   18.4034   -2.1393 H   0  0  0  0  0  0  0  0  0  0  0  0
   -1.0452   16.1911   -2.1645 H   0  0  0  0  0  0  0  0  0  0  0  0
    0.2283   16.4393   -3.3563 H   0  0  0  0  0  0  0  0  0  0  0  0
    0.6001   15.0399    0.5114 H   0  0  0  0  0  0  0  0  0  0  0  0
   -0.9437   15.3068   -0.3674 H   0  0  0  0  0  0  0  0  0  0  0  0
   -0.1797   13.6811   -0.3674 H   0  0  0  0  0  0  0  0  0  0  0  0
    1.4520   14.3526   -3.4997 H   0  0  0  0  0  0  0  0  0  0  0  0
   -1.0657   13.9604   -3.1107 H   0  0  0  0  0  0  0  0  0  0  0  0
   -0.0389   12.7316   -4.0191 H   0  0  0  0  0  0  0  0  0  0  0  0
   -1.7848   11.7530   -2.3063 H   0  0  0  0  0  0  0  0  0  0  0  0
    1.5019   12.4254   -0.0633 H   0  0  0  0  0  0  0  0  0  0  0  0
    2.2558   10.0044   -1.8152 H   0  0  0  0  0  0  0  0  0  0  0  0
    3.3070   10.8270   -0.5791 H   0  0  0  0  0  0  0  0  0  0  0  0
    2.3477    8.7090    0.2680 H   0  0  0  0  0  0  0  0  0  0  0  0
    1.7945   10.1566    1.1981 H   0  0  0  0  0  0  0  0  0  0  0  0
   -0.0827    8.7036    0.8447 H   0  0  0  0  0  0  0  0  0  0  0  0
    0.1470    7.5160   -0.9270 H   0  0  0  0  0  0  0  0  0  0  0  0
   -0.6392   10.4818    1.9728 H   0  0  0  0  0  0  0  0  0  0  0  0
   -0.0987   12.0286    1.2366 H   0  0  0  0  0  0  0  0  0  0  0  0
   -1.8418   11.5947    1.2366 H   0  0  0  0  0  0  0  0  0  0  0  0
   -2.6369    9.7618    0.2927 H   0  0  0  0  0  0  0  0  0  0  0  0
   -2.5612   10.7453   -1.2085 H   0  0  0  0  0  0  0  0  0  0  0  0
   -1.9463    9.0575   -1.2085 H   0  0  0  0  0  0  0  0  0  0  0  0
    3.1795   11.1950   -2.9613 H   0  0  0  0  0  0  0  0  0  0  0  0
    1.7474   11.7332   -3.9027 H   0  0  0  0  0  0  0  0  0  0  0  0
    3.2461   12.7234   -3.9027 H   0  0  0  0  0  0  0  0  0  0  0  0
    3.8164   12.8314   -0.7417 H   0  0  0  0  0  0  0  0  0  0  0  0
    3.9573   13.8720   -2.2688 H   0  0  0  0  0  0  0  0  0  0  0  0
    2.5713   14.5821    0.3308 H   0  0  0  0  0  0  0  0  0  0  0  0
    4.0459   15.3271   -0.4026 H   0  0  0  0  0  0  0  0  0  0  0  0
    3.9299   16.7252   -2.4047 H   0  0  0  0  0  0  0  0  0  0  0  0
    3.2115   15.3346   -3.2859 H   0  0  0  0  0  0  0  0  0  0  0  0
    2.3775   16.9255   -3.2859 H   0  0  0  0  0  0  0  0  0  0  0  0
  1  2  1  0
  2  3  1  0
  3  4  1  0
  4  5  1  0
  5  6  1  0
  6  7  1  0
  7  8  1  0
  7  9  1  0
  2 10  1  0
 10 11  1  0
 11 12  1  0
 12 13  1  0
 13 14  1  1
 13 15  1  0
 15 16  1  0
 16 17  1  0
 17 18  2  0
 18 19  1  0
 19 20  1  0
 20 21  1  0
 21 22  1  0
 22 23  1  0
 22 24  1  0
 24 25  1  0
 24 26  1  0
 19 27  1  0
 27 28  1  6
 27 29  1  0
 29 30  1  0
 30 31  1  0
 31 32  1  6
  7  5  1  0
 31 10  1  0
 31 13  1  0
 27 15  1  0
 24 18  1  0
  1 33  1  0
  1 34  1  0
  1 35  1  0
  2 36  1  6
  3 37  1  0
  3 38  1  0
  4 39  1  0
  4 40  1  0
  5 41  1  6
  8 42  1  0
  8 43  1  0
  8 44  1  0
  9 45  1  0
  9 46  1  0
  9 47  1  0
 10 48  1  1
 11 49  1  0
 11 50  1  0
 12 51  1  0
 12 52  1  0
 14 53  1  0
 14 54  1  0
 14 55  1  0
 15 56  1  6
 16 57  1  0
 16 58  1  0
 17 59  1  0
 19 60  1  1
 20 61  1  0
 20 62  1  0
 21 63  1  0
 21 64  1  0
 22 65  1  1
 23 66  1  0
 25 67  1  0
 25 68  1  0
 25 69  1  0
 26 70  1  0
 26 71  1  0
 26 72  1  0
 28 73  1  0
 28 74  1  0
 28 75  1  0
 29 76  1  0
 29 77  1  0
 30 78  1  0
 30 79  1  0
 32 80  1  0
 32 81  1  0
 32 82  1  0
M  END
>  <meeko>  (6) 
{"is_sidechain": [false], "intermolecular_energy": 2.731, "internal_energy": -0.839}

$$$$
EPH_relaxed_0001_pdb2pqr_Repair_49_r2_0001_out
     RDKit          3D

 82 86  0  0  0  0  0  0  0  0999 V2000
   -5.1180    5.8950   -1.9300 C   0  0  0  0  0  0  0  0  0  0  0  0
   -5.4660    7.3850   -1.8720 C   0  0  2  0  0  0  0  0  0  0  0  0
   -5.2620    7.9750   -0.4620 C   0  0  0  0  0  0  0  0  0  0  0  0
   -4.2190    9.0950   -0.4090 C   0  0  0  0  0  0  0  0  0  0  0  0
   -2.8460    8.5910   -0.7380 C   0  0  2  0  0  0  0  0  0  0  0  0
   -1.8340    8.9460    0.2140 O   0  0  0  0  0  0  0  0  0  0  0  0
   -1.6870    9.4980   -1.1040 C   0  0  0  0  0  0  0  0  0  0  0  0
   -1.8480   10.9850   -1.1620 C   0  0  0  0  0  0  0  0  0  0  0  0
   -0.5420    8.9200   -1.8760 C   0  0  0  0  0  0  0  0  0  0  0  0
   -6.9060    7.6000   -2.3240 C   0  0  1  0  0  0  0  0  0  0  0  0
   -7.2230    6.8900   -3.6660 C   0  0  0  0  0  0  0  0  0  0  0  0
   -8.6950    6.4110   -3.5810 C   0  0  0  0  0  0  0  0  0  0  0  0
   -9.2730    7.1420   -2.3470 C   0  0  1  0  0  0  0  0  0  0  0  0
   -9.6350    8.5710   -2.8610 C   0  0  0  0  0  0  0  0  0  0  0  0
  -10.4890    6.4560   -1.6440 C   0  0  2  0  0  0  0  0  0  0  0  0
  -11.7510    6.3160   -2.5120 C   0  0  0  0  0  0  0  0  0  0  0  0
  -12.7100    7.4580   -2.4330 C   0  0  0  0  0  0  0  0  0  0  0  0
  -12.7080    8.4160   -1.4880 C   0  0  0  0  0  0  0  0  0  0  0  0
  -11.7310    8.3560   -0.3070 C   0  0  1  0  0  0  0  0  0  0  0  0
  -12.4950    8.6450    1.0120 C   0  0  0  0  0  0  0  0  0  0  0  0
  -13.2710    9.9580    0.9630 C   0  0  0  0  0  0  0  0  0  0  0  0
  -14.2730    9.9570   -0.1890 C   0  0  2  0  0  0  0  0  0  0  0  0
  -15.2830    8.9800    0.0800 O   0  0  0  0  0  0  0  0  0  0  0  0
  -13.6190    9.6660   -1.5690 C   0  0  0  0  0  0  0  0  0  0  0  0
  -12.7500   10.8740   -1.9980 C   0  0  0  0  0  0  0  0  0  0  0  0
  -14.7550    9.5530   -2.6210 C   0  0  0  0  0  0  0  0  0  0  0  0
  -10.8320    7.0490   -0.2170 C   0  0  1  0  0  0  0  0  0  0  0  0
  -11.5940    5.9310    0.5580 C   0  0  0  0  0  0  0  0  0  0  0  0
   -9.5400    7.3710    0.6230 C   0  0  0  0  0  0  0  0  0  0  0  0
   -8.3310    7.9350   -0.1480 C   0  0  0  0  0  0  0  0  0  0  0  0
   -8.0290    7.0870   -1.3880 C   0  0  2  0  0  0  0  0  0  0  0  0
   -7.6390    5.6500   -0.9010 C   0  0  0  0  0  0  0  0  0  0  0  0
   -5.0257    5.4999   -0.9075 H   0  0  0  0  0  0  0  0  0  0  0  0
   -5.9137    5.3531   -2.4621 H   0  0  0  0  0  0  0  0  0  0  0  0
   -4.1645    5.7616   -2.4621 H   0  0  0  0  0  0  0  0  0  0  0  0
   -4.7803    7.9118   -2.5519 H   0  0  0  0  0  0  0  0  0  0  0  0
   -6.2235    8.3788   -0.1119 H   0  0  0  0  0  0  0  0  0  0  0  0
   -4.8917    7.1600    0.1773 H   0  0  0  0  0  0  0  0  0  0  0  0
   -4.4958    9.8743   -1.1343 H   0  0  0  0  0  0  0  0  0  0  0  0
   -4.2001    9.4974    0.6146 H   0  0  0  0  0  0  0  0  0  0  0  0
   -3.2650    7.6973   -1.2235 H   0  0  0  0  0  0  0  0  0  0  0  0
   -1.8918   11.3892   -0.1399 H   0  0  0  0  0  0  0  0  0  0  0  0
   -0.9924   11.4260   -1.6944 H   0  0  0  0  0  0  0  0  0  0  0  0
   -2.7782   11.2326   -1.6944 H   0  0  0  0  0  0  0  0  0  0  0  0
    0.2159    8.5374   -1.1765 H   0  0  0  0  0  0  0  0  0  0  0  0
   -0.9050    8.0972   -2.5094 H   0  0  0  0  0  0  0  0  0  0  0  0
   -0.0955    9.7007   -2.5094 H   0  0  0  0  0  0  0  0  0  0  0  0
   -6.9241    8.6991   -2.3658 H   0  0  0  0  0  0  0  0  0  0  0  0
   -7.1007    7.5918   -4.5041 H   0  0  0  0  0  0  0  0  0  0  0  0
   -6.5412    6.0437   -3.8361 H   0  0  0  0  0  0  0  0  0  0  0  0
   -9.2470    6.6893   -4.4909 H   0  0  0  0  0  0  0  0  0  0  0  0
   -8.7731    5.3174   -3.4922 H   0  0  0  0  0  0  0  0  0  0  0  0
   -9.8039    9.2376   -2.0024 H   0  0  0  0  0  0  0  0  0  0  0  0
   -8.8075    8.9617   -3.4714 H   0  0  0  0  0  0  0  0  0  0  0  0
  -10.5487    8.5206   -3.4714 H   0  0  0  0  0  0  0  0  0  0  0  0
  -10.1214    5.4316   -1.4844 H   0  0  0  0  0  0  0  0  0  0  0  0
  -11.4329    6.2113   -3.5598 H   0  0  0  0  0  0  0  0  0  0  0  0
  -12.2903    5.4387   -2.1253 H   0  0  0  0  0  0  0  0  0  0  0  0
  -13.4831    7.5214   -3.2129 H   0  0  0  0  0  0  0  0  0  0  0  0
  -10.9863    9.1451   -0.4879 H   0  0  0  0  0  0  0  0  0  0  0  0
  -13.2030    7.8236    1.1966 H   0  0  0  0  0  0  0  0  0  0  0  0
  -11.7508    8.7268    1.8179 H   0  0  0  0  0  0  0  0  0  0  0  0
  -13.8126   10.0917    1.9111 H   0  0  0  0  0  0  0  0  0  0  0  0
  -12.5583   10.7814    0.8077 H   0  0  0  0  0  0  0  0  0  0  0  0
  -14.7040   10.9670   -0.2527 H   0  0  0  0  0  0  0  0  0  0  0  0
  -15.0030    8.1460   -0.3330 H   0  0  0  0  0  0  0  0  0  0  0  0
  -12.3765   11.3932   -1.1031 H   0  0  0  0  0  0  0  0  0  0  0  0
  -11.8990   10.5189   -2.5978 H   0  0  0  0  0  0  0  0  0  0  0  0
  -13.3572   11.5679   -2.5978 H   0  0  0  0  0  0  0  0  0  0  0  0
  -15.7227    9.4567   -2.1068 H   0  0  0  0  0  0  0  0  0  0  0  0
  -14.7625   10.4548   -3.2508 H   0  0  0  0  0  0  0  0  0  0  0  0
  -14.5847    8.6674   -3.2508 H   0  0  0  0  0  0  0  0  0  0  0  0
  -11.4829    6.0940    1.6402 H   0  0  0  0  0  0  0  0  0  0  0  0
  -12.6605    5.9610    0.2903 H   0  0  0  0  0  0  0  0  0  0  0  0
  -11.1762    4.9493    0.2903 H   0  0  0  0  0  0  0  0  0  0  0  0
   -9.8178    8.1079    1.3910 H   0  0  0  0  0  0  0  0  0  0  0  0
   -9.2030    6.4001    1.0151 H   0  0  0  0  0  0  0  0  0  0  0  0
   -8.5530    8.9656   -0.4619 H   0  0  0  0  0  0  0  0  0  0  0  0
   -7.4523    7.9156    0.5135 H   0  0  0  0  0  0  0  0  0  0  0  0
   -7.6322    5.6248    0.1987 H   0  0  0  0  0  0  0  0  0  0  0  0
   -8.3723    4.9228   -1.2799 H   0  0  0  0  0  0  0  0  0  0  0  0
   -6.6387    5.3933   -1.2799 H   0  0  0  0  0  0  0  0  0  0  0  0
  1  2  1  0
  2  3  1  0
  3  4  1  0
  4  5  1  0
  5  6  1  0
  6  7  1  0
  7  8  1  0
  7  9  1  0
  2 10  1  0
 10 11  1  0
 11 12  1  0
 12 13  1  0
 13 14  1  6
 13 15  1  0
 15 16  1  0
 16 17  1  0
 17 18  2  0
 18 19  1  0
 19 20  1  0
 20 21  1  0
 21 22  1  0
 22 23  1  0
 22 24  1  0
 24 25  1  0
 24 26  1  0
 19 27  1  0
 27 28  1  1
 27 29  1  0
 29 30  1  0
 30 31  1  0
 31 32  1  1
  7  5  1  0
 31 10  1  0
 31 13  1  0
 27 15  1  0
 24 18  1  0
  1 33  1  0
  1 34  1  0
  1 35  1  0
  2 36  1  6
  3 37  1  0
  3 38  1  0
  4 39  1  0
  4 40  1  0
  5 41  1  6
  8 42  1  0
  8 43  1  0
  8 44  1  0
  9 45  1  0
  9 46  1  0
  9 47  1  0
 10 48  1  6
 11 49  1  0
 11 50  1  0
 12 51  1  0
 12 52  1  0
 14 53  1  0
 14 54  1  0
 14 55  1  0
 15 56  1  1
 16 57  1  0
 16 58  1  0
 17 59  1  0
 19 60  1  6
 20 61  1  0
 20 62  1  0
 21 63  1  0
 21 64  1  0
 22 65  1  6
 23 66  1  0
 25 67  1  0
 25 68  1  0
 25 69  1  0
 26 70  1  0
 26 71  1  0
 26 72  1  0
 28 73  1  0
 28 74  1  0
 28 75  1  0
 29 76  1  0
 29 77  1  0
 30 78  1  0
 30 79  1  0
 32 80  1  0
 32 81  1  0
 32 82  1  0
M  END
>  <meeko>  (7) 
{"is_sidechain": [false], "intermolecular_energy": 2.731, "internal_energy": -0.839}

$$$$
EPH_relaxed_0001_pdb2pqr_Repair_49_r2_0001_out
     RDKit          3D

 82 86  0  0  0  0  0  0  0  0999 V2000
    0.4560    8.8050   -2.3650 C   0  0  0  0  0  0  0  0  0  0  0  0
    1.1940    9.9470   -3.0680 C   0  0  2  0  0  0  0  0  0  0  0  0
    2.6950    9.9710   -2.7180 C   0  0  0  0  0  0  0  0  0  0  0  0
    3.5740   10.5750   -3.8180 C   0  0  0  0  0  0  0  0  0  0  0  0
    4.9720   10.8190   -3.3380 C   0  0  2  0  0  0  0  0  0  0  0  0
    5.5660   12.0330   -3.8160 O   0  0  0  0  0  0  0  0  0  0  0  0
    6.1840   10.8110   -4.2510 C   0  0  0  0  0  0  0  0  0  0  0  0
    6.0520   10.5520   -5.7190 C   0  0  0  0  0  0  0  0  0  0  0  0
    7.5330   10.5700   -3.6490 C   0  0  0  0  0  0  0  0  0  0  0  0
    0.5520   11.2810   -2.7050 C   0  0  1  0  0  0  0  0  0  0  0  0
   -0.8270   11.1130   -2.0130 C   0  0  0  0  0  0  0  0  0  0  0  0
   -0.9460   12.2540   -0.9700 C   0  0  0  0  0  0  0  0  0  0  0  0
    0.2040   13.2260   -1.3220 C   0  0  1  0  0  0  0  0  0  0  0  0
   -0.3430   14.0820   -2.5070 C   0  0  0  0  0  0  0  0  0  0  0  0
    0.7300   14.1240   -0.1550 C   0  0  2  0  0  0  0  0  0  0  0  0
   -0.3030   15.1010    0.4330 C   0  0  0  0  0  0  0  0  0  0  0  0
   -0.3460   16.4480   -0.2100 C   0  0  0  0  0  0  0  0  0  0  0  0
    0.5980   16.9560   -1.0240 C   0  0  0  0  0  0  0  0  0  0  0  0
    1.9010   16.1920   -1.2930 C   0  0  1  0  0  0  0  0  0  0  0  0
    3.1060   17.1600   -1.1600 C   0  0  0  0  0  0  0  0  0  0  0  0
    2.9620   18.3970   -2.0420 C   0  0  0  0  0  0  0  0  0  0  0  0
    1.6850   19.1620   -1.7050 C   0  0  2  0  0  0  0  0  0  0  0  0
    1.8060   19.7030   -0.3850 O   0  0  0  0  0  0  0  0  0  0  0  0
    0.4050   18.2850   -1.7950 C   0  0  0  0  0  0  0  0  0  0  0  0
    0.1070   17.9490   -3.2770 C   0  0  0  0  0  0  0  0  0  0  0  0
   -0.7930   19.1370   -1.2940 C   0  0  0  0  0  0  0  0  0  0  0  0
    2.1010   14.8510   -0.4650 C   0  0  1  0  0  0  0  0  0  0  0  0
    2.7570   15.1700    0.9140 C   0  0  0  0  0  0  0  0  0  0  0  0
    3.1120   13.9190   -1.2320 C   0  0  0  0  0  0  0  0  0  0  0  0
    2.5160   12.9680   -2.2880 C   0  0  0  0  0  0  0  0  0  0  0  0
    1.3230   12.1960   -1.7190 C   0  0  2  0  0  0  0  0  0  0  0  0
    1.8460   11.3080   -0.5390 C   0  0  0  0  0  0  0  0  0  0  0  0
    0.5377    8.9315   -1.2754 H   0  0  0  0  0  0  0  0  0  0  0  0
   -0.6044    8.8189   -2.6572 H   0  0  0  0  0  0  0  0  0  0  0  0
    0.9043    7.8439   -2.6572 H   0  0  0  0  0  0  0  0  0  0  0  0
    1.1114    9.7774   -4.1517 H   0  0  0  0  0  0  0  0  0  0  0  0
    2.8285   10.5646   -1.8016 H   0  0  0  0  0  0  0  0  0  0  0  0
    3.0123    8.9255   -2.5906 H   0  0  0  0  0  0  0  0  0  0  0  0
    3.6058    9.8806   -4.6705 H   0  0  0  0  0  0  0  0  0  0  0  0
    3.1389   11.5413   -4.1130 H   0  0  0  0  0  0  0  0  0  0  0  0
    4.7603   10.3057   -2.3884 H   0  0  0  0  0  0  0  0  0  0  0  0
    5.5577    9.5821   -5.8772 H   0  0  0  0  0  0  0  0  0  0  0  0
    5.4504   11.3496   -6.1794 H   0  0  0  0  0  0  0  0  0  0  0  0
    7.0508   10.5339   -6.1794 H   0  0  0  0  0  0  0  0  0  0  0  0
    7.4528   10.5843   -2.5520 H   0  0  0  0  0  0  0  0  0  0  0  0
    7.9108    9.5901   -3.9763 H   0  0  0  0  0  0  0  0  0  0  0  0
    8.2267   11.3584   -3.9763 H   0  0  0  0  0  0  0  0  0  0  0  0
    0.5166   11.7455   -3.7015 H   0  0  0  0  0  0  0  0  0  0  0  0
   -1.6353   11.1922   -2.7549 H   0  0  0  0  0  0  0  0  0  0  0  0
   -0.9098   10.1275   -1.5315 H   0  0  0  0  0  0  0  0  0  0  0  0
   -1.9201   12.7579   -1.0552 H   0  0  0  0  0  0  0  0  0  0  0  0
   -0.8772   11.8833    0.0634 H   0  0  0  0  0  0  0  0  0  0  0  0
   -0.8955   14.9466   -2.1104 H   0  0  0  0  0  0  0  0  0  0  0  0
    0.4973   14.4350   -3.1229 H   0  0  0  0  0  0  0  0  0  0  0  0
   -1.0163   13.4677   -3.1229 H   0  0  0  0  0  0  0  0  0  0  0  0
    0.9301   13.3880    0.6376 H   0  0  0  0  0  0  0  0  0  0  0  0
   -1.2986   14.6443    0.3319 H   0  0  0  0  0  0  0  0  0  0  0  0
   -0.0002   15.2718    1.4766 H   0  0  0  0  0  0  0  0  0  0  0  0
   -1.2230   17.0782   -0.0008 H   0  0  0  0  0  0  0  0  0  0  0  0
    1.8305   15.8246   -2.3274 H   0  0  0  0  0  0  0  0  0  0  0  0
    3.1858   17.4819   -0.1112 H   0  0  0  0  0  0  0  0  0  0  0  0
    4.0066   16.6195   -1.4868 H   0  0  0  0  0  0  0  0  0  0  0  0
    3.8287   19.0554   -1.8828 H   0  0  0  0  0  0  0  0  0  0  0  0
    2.9113   18.0750   -3.0926 H   0  0  0  0  0  0  0  0  0  0  0  0
    1.5716   19.9610   -2.4525 H   0  0  0  0  0  0  0  0  0  0  0  0
    1.2590   19.1590    0.2070 H   0  0  0  0  0  0  0  0  0  0  0  0
   -0.6221   17.1269   -3.3271 H   0  0  0  0  0  0  0  0  0  0  0  0
   -0.3062   18.8367   -3.7783 H   0  0  0  0  0  0  0  0  0  0  0  0
    1.0377   17.6448   -3.7783 H   0  0  0  0  0  0  0  0  0  0  0  0
   -0.8032   19.1443   -0.1941 H   0  0  0  0  0  0  0  0  0  0  0  0
   -0.6916   20.1670   -1.6665 H   0  0  0  0  0  0  0  0  0  0  0  0
   -1.7327   18.7032   -1.6665 H   0  0  0  0  0  0  0  0  0  0  0  0
    2.0868   14.8441    1.7230 H   0  0  0  0  0  0  0  0  0  0  0  0
    3.7162   14.6377    0.9957 H   0  0  0  0  0  0  0  0  0  0  0  0
    2.9306   16.2531    0.9957 H   0  0  0  0  0  0  0  0  0  0  0  0
    3.8411   14.5666   -1.7410 H   0  0  0  0  0  0  0  0  0  0  0  0
    3.5392   13.2613   -0.4607 H   0  0  0  0  0  0  0  0  0  0  0  0
    2.1830   13.5568   -3.1554 H   0  0  0  0  0  0  0  0  0  0  0  0
    3.2904   12.2463   -2.5870 H   0  0  0  0  0  0  0  0  0  0  0  0
    1.5720   11.7732    0.4194 H   0  0  0  0  0  0  0  0  0  0  0  0
    1.3927   10.3078   -0.6039 H   0  0  0  0  0  0  0  0  0  0  0  0
    2.9405   11.2194   -0.6039 H   0  0  0  0  0  0  0  0  0  0  0  0
  1  2  1  0
  2  3  1  0
  3  4  1  0
  4  5  1  0
  5  6  1  0
  6  7  1  0
  7  8  1  0
  7  9  1  0
  2 10  1  0
 10 11  1  0
 11 12  1  0
 12 13  1  0
 13 14  1  6
 13 15  1  0
 15 16  1  0
 16 17  1  0
 17 18  2  0
 18 19  1  0
 19 20  1  0
 20 21  1  0
 21 22  1  0
 22 23  1  0
 22 24  1  0
 24 25  1  0
 24 26  1  0
 19 27  1  0
 27 28  1  1
 27 29  1  0
 29 30  1  0
 30 31  1  0
 31 32  1  1
  7  5  1  0
 31 10  1  0
 31 13  1  0
 27 15  1  0
 24 18  1  0
  1 33  1  0
  1 34  1  0
  1 35  1  0
  2 36  1  6
  3 37  1  0
  3 38  1  0
  4 39  1  0
  4 40  1  0
  5 41  1  1
  8 42  1  0
  8 43  1  0
  8 44  1  0
  9 45  1  0
  9 46  1  0
  9 47  1  0
 10 48  1  6
 11 49  1  0
 11 50  1  0
 12 51  1  0
 12 52  1  0
 14 53  1  0
 14 54  1  0
 14 55  1  0
 15 56  1  1
 16 57  1  0
 16 58  1  0
 17 59  1  0
 19 60  1  6
 20 61  1  0
 20 62  1  0
 21 63  1  0
 21 64  1  0
 22 65  1  6
 23 66  1  0
 25 67  1  0
 25 68  1  0
 25 69  1  0
 26 70  1  0
 26 71  1  0
 26 72  1  0
 28 73  1  0
 28 74  1  0
 28 75  1  0
 29 76  1  0
 29 77  1  0
 30 78  1  0
 30 79  1  0
 32 80  1  0
 32 81  1  0
 32 82  1  0
M  END
>  <meeko>  (8) 
{"is_sidechain": [false], "intermolecular_energy": 2.731, "internal_energy": -0.839}

$$$$
EPH_relaxed_0001_pdb2pqr_Repair_49_r2_0001_out
     RDKit          3D

 82 86  0  0  0  0  0  0  0  0999 V2000
    0.0520   10.4960   -3.8090 C   0  0  0  0  0  0  0  0  0  0  0  0
    1.0270   10.2440   -2.6560 C   0  0  2  0  0  0  0  0  0  0  0  0
    0.6520    8.9900   -1.8410 C   0  0  0  0  0  0  0  0  0  0  0  0
   -0.7810    8.5070   -2.0810 C   0  0  0  0  0  0  0  0  0  0  0  0
   -1.6130    8.6000   -0.8380 C   0  0  2  0  0  0  0  0  0  0  0  0
   -3.0050    8.8580   -1.0670 O   0  0  0  0  0  0  0  0  0  0  0  0
   -2.2770    9.8820   -0.3700 C   0  0  0  0  0  0  0  0  0  0  0  0
   -2.1360   11.1590   -1.1380 C   0  0  0  0  0  0  0  0  0  0  0  0
   -2.6490   10.0090    1.0740 C   0  0  0  0  0  0  0  0  0  0  0  0
    1.0780   11.4630   -1.7420 C   0  0  1  0  0  0  0  0  0  0  0  0
    2.1180   11.3110   -0.6000 C   0  0  0  0  0  0  0  0  0  0  0  0
    2.7140   12.7200   -0.3480 C   0  0  0  0  0  0  0  0  0  0  0  0
    1.7720   13.6840   -1.1080 C   0  0  1  0  0  0  0  0  0  0  0  0
    0.5540   13.8900   -0.1550 C   0  0  0  0  0  0  0  0  0  0  0  0
    2.3930   15.0470   -1.5540 C   0  0  2  0  0  0  0  0  0  0  0  0
    2.8680   15.9550   -0.4060 C   0  0  0  0  0  0  0  0  0  0  0  0
    1.8470   16.9110    0.1150 C   0  0  0  0  0  0  0  0  0  0  0  0
    0.6950   17.2380   -0.5010 C   0  0  0  0  0  0  0  0  0  0  0  0
    0.3690   16.6970   -1.8990 C   0  0  1  0  0  0  0  0  0  0  0  0
   -0.1460   17.8550   -2.7940 C   0  0  0  0  0  0  0  0  0  0  0  0
   -1.3210   18.6010   -2.1680 C   0  0  0  0  0  0  0  0  0  0  0  0
   -0.9400   19.1720   -0.8050 C   0  0  2  0  0  0  0  0  0  0  0  0
    0.0440   20.1940   -0.9930 O   0  0  0  0  0  0  0  0  0  0  0  0
   -0.3970   18.0990    0.1800 C   0  0  0  0  0  0  0  0  0  0  0  0
   -1.5510   17.1640    0.6180 C   0  0  0  0  0  0  0  0  0  0  0  0
    0.0820   18.8290    1.4640 C   0  0  0  0  0  0  0  0  0  0  0  0
    1.5150   15.8480   -2.5990 C   0  0  1  0  0  0  0  0  0  0  0  0
    2.4880   16.7970   -3.3640 C   0  0  0  0  0  0  0  0  0  0  0  0
    0.8690   14.9070   -3.6840 C   0  0  0  0  0  0  0  0  0  0  0  0
    0.3830   13.5260   -3.2040 C   0  0  0  0  0  0  0  0  0  0  0  0
    1.4660   12.8180   -2.3840 C   0  0  2  0  0  0  0  0  0  0  0  0
    2.6970   12.5770   -3.3240 C   0  0  0  0  0  0  0  0  0  0  0  0
   -0.9378   10.7518   -3.4029 H   0  0  0  0  0  0  0  0  0  0  0  0
    0.4213   11.3282   -4.4263 H   0  0  0  0  0  0  0  0  0  0  0  0
   -0.0282    9.5891   -4.4263 H   0  0  0  0  0  0  0  0  0  0  0  0
    2.0197   10.0670   -3.0956 H   0  0  0  0  0  0  0  0  0  0  0  0
    1.3425    8.1786   -2.1144 H   0  0  0  0  0  0  0  0  0  0  0  0
    0.7259    9.2630   -0.7780 H   0  0  0  0  0  0  0  0  0  0  0  0
   -1.2400    9.1280   -2.8644 H   0  0  0  0  0  0  0  0  0  0  0  0
   -0.7401    7.4515   -2.3880 H   0  0  0  0  0  0  0  0  0  0  0  0
   -0.9682    7.8724   -0.3234 H   0  0  0  0  0  0  0  0  0  0  0  0
   -2.0431   12.0007   -0.4360 H   0  0  0  0  0  0  0  0  0  0  0  0
   -1.2379   11.1088   -1.7712 H   0  0  0  0  0  0  0  0  0  0  0  0
   -3.0234   11.3059   -1.7712 H   0  0  0  0  0  0  0  0  0  0  0  0
   -1.7931    9.7168    1.7002 H   0  0  0  0  0  0  0  0  0  0  0  0
   -2.9235   11.0517    1.2916 H   0  0  0  0  0  0  0  0  0  0  0  0
   -3.5038    9.3518    1.2916 H   0  0  0  0  0  0  0  0  0  0  0  0
    0.0287   11.4898   -1.4129 H   0  0  0  0  0  0  0  0  0  0  0  0
    1.6280   10.9383    0.3116 H   0  0  0  0  0  0  0  0  0  0  0  0
    2.9044   10.5926   -0.8747 H   0  0  0  0  0  0  0  0  0  0  0  0
    2.7215   12.9518    0.7273 H   0  0  0  0  0  0  0  0  0  0  0  0
    3.7564   12.7993   -0.6902 H   0  0  0  0  0  0  0  0  0  0  0  0
    0.8924   13.8328    0.8901 H   0  0  0  0  0  0  0  0  0  0  0  0
    0.1052   14.8768   -0.3416 H   0  0  0  0  0  0  0  0  0  0  0  0
   -0.1943   13.1057   -0.3416 H   0  0  0  0  0  0  0  0  0  0  0  0
    3.3053   14.7294   -2.0801 H   0  0  0  0  0  0  0  0  0  0  0  0
    3.1870   15.3111    0.4269 H   0  0  0  0  0  0  0  0  0  0  0  0
    3.6785   16.5719   -0.8214 H   0  0  0  0  0  0  0  0  0  0  0  0
    2.0530   17.3889    1.0841 H   0  0  0  0  0  0  0  0  0  0  0  0
   -0.4267   15.9506   -1.7587 H   0  0  0  0  0  0  0  0  0  0  0  0
    0.6766   18.5667   -2.9576 H   0  0  0  0  0  0  0  0  0  0  0  0
   -0.4956   17.4155   -3.7399 H   0  0  0  0  0  0  0  0  0  0  0  0
   -1.6198   19.4249   -2.8328 H   0  0  0  0  0  0  0  0  0  0  0  0
   -2.1536   17.8949   -2.0328 H   0  0  0  0  0  0  0  0  0  0  0  0
   -1.8552   19.5793   -0.3506 H   0  0  0  0  0  0  0  0  0  0  0  0
    0.4310   20.3940   -0.1240 H   0  0  0  0  0  0  0  0  0  0  0  0
   -1.5963   17.1273    1.7165 H   0  0  0  0  0  0  0  0  0  0  0  0
   -2.5036   17.5481    0.2243 H   0  0  0  0  0  0  0  0  0  0  0  0
   -1.3728   16.1524    0.2243 H   0  0  0  0  0  0  0  0  0  0  0  0
   -0.2754   18.2844    2.3504 H   0  0  0  0  0  0  0  0  0  0  0  0
    1.1813   18.8672    1.4756 H   0  0  0  0  0  0  0  0  0  0  0  0
   -0.3206   19.8526    1.4756 H   0  0  0  0  0  0  0  0  0  0  0  0
    3.0809   17.3753   -2.6401 H   0  0  0  0  0  0  0  0  0  0  0  0
    3.1618   16.1996   -3.9957 H   0  0  0  0  0  0  0  0  0  0  0  0
    1.9076   17.4855   -3.9957 H   0  0  0  0  0  0  0  0  0  0  0  0
    0.0031   15.4352   -4.1098 H   0  0  0  0  0  0  0  0  0  0  0  0
    1.6770   14.6954   -4.3998 H   0  0  0  0  0  0  0  0  0  0  0  0
   -0.5131   13.6570   -2.5796 H   0  0  0  0  0  0  0  0  0  0  0  0
    0.1516   12.9099   -4.0854 H   0  0  0  0  0  0  0  0  0  0  0  0
    3.5953   12.4011   -2.7140 H   0  0  0  0  0  0  0  0  0  0  0  0
    2.5072   11.6990   -3.9588 H   0  0  0  0  0  0  0  0  0  0  0  0
    2.8523   13.4618   -3.9588 H   0  0  0  0  0  0  0  0  0  0  0  0
  1  2  1  0
  2  3  1  0
  3  4  1  0
  4  5  1  0
  5  6  1  0
  6  7  1  0
  7  8  1  0
  7  9  1  0
  2 10  1  0
 10 11  1  0
 11 12  1  0
 12 13  1  0
 13 14  1  1
 13 15  1  0
 15 16  1  0
 16 17  1  0
 17 18  2  0
 18 19  1  0
 19 20  1  0
 20 21  1  0
 21 22  1  0
 22 23  1  0
 22 24  1  0
 24 25  1  0
 24 26  1  0
 19 27  1  0
 27 28  1  6
 27 29  1  0
 29 30  1  0
 30 31  1  0
 31 32  1  6
  7  5  1  0
 31 10  1  0
 31 13  1  0
 27 15  1  0
 24 18  1  0
  1 33  1  0
  1 34  1  0
  1 35  1  0
  2 36  1  6
  3 37  1  0
  3 38  1  0
  4 39  1  0
  4 40  1  0
  5 41  1  1
  8 42  1  0
  8 43  1  0
  8 44  1  0
  9 45  1  0
  9 46  1  0
  9 47  1  0
 10 48  1  1
 11 49  1  0
 11 50  1  0
 12 51  1  0
 12 52  1  0
 14 53  1  0
 14 54  1  0
 14 55  1  0
 15 56  1  6
 16 57  1  0
 16 58  1  0
 17 59  1  0
 19 60  1  1
 20 61  1  0
 20 62  1  0
 21 63  1  0
 21 64  1  0
 22 65  1  1
 23 66  1  0
 25 67  1  0
 25 68  1  0
 25 69  1  0
 26 70  1  0
 26 71  1  0
 26 72  1  0
 28 73  1  0
 28 74  1  0
 28 75  1  0
 29 76  1  0
 29 77  1  0
 30 78  1  0
 30 79  1  0
 32 80  1  0
 32 81  1  0
 32 82  1  0
M  END
>  <meeko>  (9) 
{"is_sidechain": [false], "intermolecular_energy": 2.731, "internal_energy": -0.839}

$$$$
EPH_relaxed_0001_pdb2pqr_Repair_49_r2_0001_out
     RDKit          3D

 82 86  0  0  0  0  0  0  0  0999 V2000
    3.2330   18.3350   -3.7040 C   0  0  0  0  0  0  0  0  0  0  0  0
    2.1000   18.1600   -2.6880 C   0  0  2  0  0  0  0  0  0  0  0  0
    2.0550   19.3120   -1.6640 C   0  0  0  0  0  0  0  0  0  0  0  0
    0.7530   20.1170   -1.7000 C   0  0  0  0  0  0  0  0  0  0  0  0
   -0.3790   19.3690   -1.0630 C   0  0  2  0  0  0  0  0  0  0  0  0
   -1.2980   20.1870   -0.3270 O   0  0  0  0  0  0  0  0  0  0  0  0
   -0.5490   19.2280    0.4380 C   0  0  0  0  0  0  0  0  0  0  0  0
    0.4260   19.8410    1.3940 C   0  0  0  0  0  0  0  0  0  0  0  0
   -1.3760   18.0960    0.9610 C   0  0  0  0  0  0  0  0  0  0  0  0
    2.2510   16.8270   -1.9660 C   0  0  1  0  0  0  0  0  0  0  0  0
    2.5440   16.9970   -0.4510 C   0  0  0  0  0  0  0  0  0  0  0  0
    1.8320   15.8280    0.2760 C   0  0  0  0  0  0  0  0  0  0  0  0
    1.4390   14.8470   -0.8530 C   0  0  1  0  0  0  0  0  0  0  0  0
    2.7390   14.0370   -1.1520 C   0  0  0  0  0  0  0  0  0  0  0  0
    0.2270   13.9050   -0.5600 C   0  0  2  0  0  0  0  0  0  0  0  0
    0.4280   12.9280    0.6120 C   0  0  0  0  0  0  0  0  0  0  0  0
    1.0090   11.6030    0.2450 C   0  0  0  0  0  0  0  0  0  0  0  0
    1.0900   11.1030   -1.0030 C   0  0  0  0  0  0  0  0  0  0  0  0
    0.4790   11.8530   -2.1930 C   0  0  1  0  0  0  0  0  0  0  0  0
   -0.3300   10.8620   -3.0690 C   0  0  0  0  0  0  0  0  0  0  0  0
    0.4960    9.6550   -3.5030 C   0  0  0  0  0  0  0  0  0  0  0  0
    1.0380    8.9020   -2.2900 C   0  0  2  0  0  0  0  0  0  0  0  0
   -0.0600    8.3190   -1.5810 O   0  0  0  0  0  0  0  0  0  0  0  0
    1.8630    9.8020   -1.3290 C   0  0  0  0  0  0  0  0  0  0  0  0
    3.2050   10.1880   -2.0000 C   0  0  0  0  0  0  0  0  0  0  0  0
    2.2310    8.9550   -0.0800 C   0  0  0  0  0  0  0  0  0  0  0  0
   -0.3440   13.1650   -1.8370 C   0  0  1  0  0  0  0  0  0  0  0  0
   -1.8230   12.7940   -1.5130 C   0  0  0  0  0  0  0  0  0  0  0  0
   -0.3890   14.1030   -3.1010 C   0  0  0  0  0  0  0  0  0  0  0  0
    0.7780   15.0950   -3.2720 C   0  0  0  0  0  0  0  0  0  0  0  0
    1.0330   15.8700   -1.9760 C   0  0  2  0  0  0  0  0  0  0  0  0
   -0.2510   16.7120   -1.6620 C   0  0  0  0  0  0  0  0  0  0  0  0
    4.1840   18.4819   -3.1710 H   0  0  0  0  0  0  0  0  0  0  0  0
    3.3014   17.4368   -4.3353 H   0  0  0  0  0  0  0  0  0  0  0  0
    3.0272   19.2120   -4.3353 H   0  0  0  0  0  0  0  0  0  0  0  0
    1.1512   18.1760   -3.2444 H   0  0  0  0  0  0  0  0  0  0  0  0
    2.1722   18.8860   -0.6566 H   0  0  0  0  0  0  0  0  0  0  0  0
    2.8687   20.0050   -1.9238 H   0  0  0  0  0  0  0  0  0  0  0  0
    0.9038   21.0632   -1.1597 H   0  0  0  0  0  0  0  0  0  0  0  0
    0.4928   20.3014   -2.7528 H   0  0  0  0  0  0  0  0  0  0  0  0
   -0.3806   18.6303   -1.8781 H   0  0  0  0  0  0  0  0  0  0  0  0
    0.1041   19.6386    2.4262 H   0  0  0  0  0  0  0  0  0  0  0  0
    1.4233   19.4071    1.2292 H   0  0  0  0  0  0  0  0  0  0  0  0
    0.4672   20.9278    1.2292 H   0  0  0  0  0  0  0  0  0  0  0  0
   -1.3648   18.1113    2.0608 H   0  0  0  0  0  0  0  0  0  0  0  0
   -2.4108   18.2021    0.6033 H   0  0  0  0  0  0  0  0  0  0  0  0
   -0.9604   17.1424    0.6033 H   0  0  0  0  0  0  0  0  0  0  0  0
    3.0748   16.3934   -2.5520 H   0  0  0  0  0  0  0  0  0  0  0  0
    3.6277   16.9533   -0.2675 H   0  0  0  0  0  0  0  0  0  0  0  0
    2.1814   17.9690   -0.0852 H   0  0  0  0  0  0  0  0  0  0  0  0
    2.5128   15.3437    0.9916 H   0  0  0  0  0  0  0  0  0  0  0  0
    0.9608   16.1666    0.8560 H   0  0  0  0  0  0  0  0  0  0  0  0
    3.2131   13.7416   -0.2044 H   0  0  0  0  0  0  0  0  0  0  0  0
    2.4852   13.1369   -1.7312 H   0  0  0  0  0  0  0  0  0  0  0  0
    3.4351   14.6615   -1.7312 H   0  0  0  0  0  0  0  0  0  0  0  0
   -0.5466   14.6138   -0.2296 H   0  0  0  0  0  0  0  0  0  0  0  0
    1.1011   13.4044    1.3400 H   0  0  0  0  0  0  0  0  0  0  0  0
   -0.5760   12.7202    1.0105 H   0  0  0  0  0  0  0  0  0  0  0  0
    1.4044   10.9825    1.0628 H   0  0  0  0  0  0  0  0  0  0  0  0
    1.3270   12.2532   -2.7682 H   0  0  0  0  0  0  0  0  0  0  0  0
   -1.1962   10.5070   -2.4914 H   0  0  0  0  0  0  0  0  0  0  0  0
   -0.6411   11.3976   -3.9780 H   0  0  0  0  0  0  0  0  0  0  0  0
   -0.1385    8.9777   -4.0935 H   0  0  0  0  0  0  0  0  0  0  0  0
    1.3454   10.0084   -4.1060 H   0  0  0  0  0  0  0  0  0  0  0  0
    1.7258    8.1283   -2.6619 H   0  0  0  0  0  0  0  0  0  0  0  0
   -0.8480    8.8570   -1.7650 H   0  0  0  0  0  0  0  0  0  0  0  0
    3.9543   10.4035   -1.2240 H   0  0  0  0  0  0  0  0  0  0  0  0
    3.5550    9.3541   -2.6262 H   0  0  0  0  0  0  0  0  0  0  0  0
    3.0585   11.0804   -2.6262 H   0  0  0  0  0  0  0  0  0  0  0  0
    1.9856    9.5199    0.8314 H   0  0  0  0  0  0  0  0  0  0  0  0
    1.6603    8.0147   -0.0935 H   0  0  0  0  0  0  0  0  0  0  0  0
    3.3078    8.7305   -0.0935 H   0  0  0  0  0  0  0  0  0  0  0  0
   -1.9618   12.7592   -0.4223 H   0  0  0  0  0  0  0  0  0  0  0  0
   -2.4939   13.5517   -1.9440 H   0  0  0  0  0  0  0  0  0  0  0  0
   -2.0569   11.8094   -1.9440 H   0  0  0  0  0  0  0  0  0  0  0  0
   -0.4118   13.4591   -3.9926 H   0  0  0  0  0  0  0  0  0  0  0  0
   -1.2820   14.7302   -2.9624 H   0  0  0  0  0  0  0  0  0  0  0  0
    1.6870   14.5380   -3.5430 H   0  0  0  0  0  0  0  0  0  0  0  0
    0.5156   15.8122   -4.0637 H   0  0  0  0  0  0  0  0  0  0  0  0
   -0.3776   16.7950   -0.5725 H   0  0  0  0  0  0  0  0  0  0  0  0
   -0.1458   17.7170   -2.0966 H   0  0  0  0  0  0  0  0  0  0  0  0
   -1.1308   16.2149   -2.0966 H   0  0  0  0  0  0  0  0  0  0  0  0
  1  2  1  0
  2  3  1  0
  3  4  1  0
  4  5  1  0
  5  6  1  0
  6  7  1  0
  7  8  1  0
  7  9  1  0
  2 10  1  0
 10 11  1  0
 11 12  1  0
 12 13  1  0
 13 14  1  6
 13 15  1  0
 15 16  1  0
 16 17  1  0
 17 18  2  0
 18 19  1  0
 19 20  1  0
 20 21  1  0
 21 22  1  0
 22 23  1  0
 22 24  1  0
 24 25  1  0
 24 26  1  0
 19 27  1  0
 27 28  1  1
 27 29  1  0
 29 30  1  0
 30 31  1  0
 31 32  1  1
  7  5  1  0
 31 10  1  0
 31 13  1  0
 27 15  1  0
 24 18  1  0
  1 33  1  0
  1 34  1  0
  1 35  1  0
  2 36  1  6
  3 37  1  0
  3 38  1  0
  4 39  1  0
  4 40  1  0
  5 41  1  6
  8 42  1  0
  8 43  1  0
  8 44  1  0
  9 45  1  0
  9 46  1  0
  9 47  1  0
 10 48  1  6
 11 49  1  0
 11 50  1  0
 12 51  1  0
 12 52  1  0
 14 53  1  0
 14 54  1  0
 14 55  1  0
 15 56  1  1
 16 57  1  0
 16 58  1  0
 17 59  1  0
 19 60  1  6
 20 61  1  0
 20 62  1  0
 21 63  1  0
 21 64  1  0
 22 65  1  6
 23 66  1  0
 25 67  1  0
 25 68  1  0
 25 69  1  0
 26 70  1  0
 26 71  1  0
 26 72  1  0
 28 73  1  0
 28 74  1  0
 28 75  1  0
 29 76  1  0
 29 77  1  0
 30 78  1  0
 30 79  1  0
 32 80  1  0
 32 81  1  0
 32 82  1  0
M  END
>  <meeko>  (10) 
{"is_sidechain": [false], "intermolecular_energy": 2.731, "internal_energy": -0.839}

$$$$
EPH_relaxed_0001_pdb2pqr_Repair_49_r2_0001_out
     RDKit          3D

 82 86  0  0  0  0  0  0  0  0999 V2000
   -4.0340    7.3660   -3.4960 C   0  0  0  0  0  0  0  0  0  0  0  0
   -3.7220    7.2960   -1.9990 C   0  0  2  0  0  0  0  0  0  0  0  0
   -4.9540    6.8880   -1.1670 C   0  0  0  0  0  0  0  0  0  0  0  0
   -6.0290    6.1580   -1.9770 C   0  0  0  0  0  0  0  0  0  0  0  0
   -7.3190    6.0560   -1.2210 C   0  0  2  0  0  0  0  0  0  0  0  0
   -8.3990    5.4650   -1.9560 O   0  0  0  0  0  0  0  0  0  0  0  0
   -8.5650    6.8420   -1.5830 C   0  0  0  0  0  0  0  0  0  0  0  0
   -8.5810    7.7890   -2.7410 C   0  0  0  0  0  0  0  0  0  0  0  0
   -9.6050    7.0590   -0.5280 C   0  0  0  0  0  0  0  0  0  0  0  0
   -3.1890    8.6400   -1.5160 C   0  0  1  0  0  0  0  0  0  0  0  0
   -3.8310    9.0900   -0.1760 C   0  0  0  0  0  0  0  0  0  0  0  0
   -2.7310    9.8400    0.6170 C   0  0  0  0  0  0  0  0  0  0  0  0
   -1.6050   10.0870   -0.4150 C   0  0  1  0  0  0  0  0  0  0  0  0
   -2.0630   11.3460   -1.2150 C   0  0  0  0  0  0  0  0  0  0  0  0
   -0.1640   10.2630    0.1650 C   0  0  2  0  0  0  0  0  0  0  0  0
    0.0230   11.4780    1.0900 C   0  0  0  0  0  0  0  0  0  0  0  0
    0.4450   12.7390    0.4100 C   0  0  0  0  0  0  0  0  0  0  0  0
    0.9390   12.8270   -0.8380 C   0  0  0  0  0  0  0  0  0  0  0  0
    1.2090   11.5650   -1.6690 C   0  0  1  0  0  0  0  0  0  0  0  0
    2.6110   11.6680   -2.3260 C   0  0  0  0  0  0  0  0  0  0  0  0
    2.7850   12.9480   -3.1360 C   0  0  0  0  0  0  0  0  0  0  0  0
    2.5660   14.1810   -2.2630 C   0  0  2  0  0  0  0  0  0  0  0  0
    3.6170   14.2520   -1.2940 O   0  0  0  0  0  0  0  0  0  0  0  0
    1.1890   14.1840   -1.5410 C   0  0  0  0  0  0  0  0  0  0  0  0
    0.0600   14.4110   -2.5760 C   0  0  0  0  0  0  0  0  0  0  0  0
    1.1540   15.4060   -0.5850 C   0  0  0  0  0  0  0  0  0  0  0  0
    0.9850   10.1810   -0.9210 C   0  0  1  0  0  0  0  0  0  0  0  0
    2.2850    9.7700   -0.1630 C   0  0  0  0  0  0  0  0  0  0  0  0
    0.7200    9.0560   -1.9890 C   0  0  0  0  0  0  0  0  0  0  0  0
   -0.7410    8.8500   -2.4320 C   0  0  0  0  0  0  0  0  0  0  0  0
   -1.6710    8.7380   -1.2210 C   0  0  2  0  0  0  0  0  0  0  0  0
   -1.2490    7.4670   -0.4080 C   0  0  0  0  0  0  0  0  0  0  0  0
   -5.0983    7.6048   -3.6379 H   0  0  0  0  0  0  0  0  0  0  0  0
   -3.4173    8.1481   -3.9629 H   0  0  0  0  0  0  0  0  0  0  0  0
   -3.8105    6.3954   -3.9629 H   0  0  0  0  0  0  0  0  0  0  0  0
   -2.9562    6.5192   -1.8567 H   0  0  0  0  0  0  0  0  0  0  0  0
   -4.6207    6.2249   -0.3551 H   0  0  0  0  0  0  0  0  0  0  0  0
   -5.4095    7.8158   -0.7906 H   0  0  0  0  0  0  0  0  0  0  0  0
   -6.2065    6.7093   -2.9122 H   0  0  0  0  0  0  0  0  0  0  0  0
   -5.6704    5.1386   -2.1824 H   0  0  0  0  0  0  0  0  0  0  0  0
   -6.7793    5.9244   -0.2716 H   0  0  0  0  0  0  0  0  0  0  0  0
   -8.5985    8.8238   -2.3682 H   0  0  0  0  0  0  0  0  0  0  0  0
   -7.6801    7.6350   -3.3531 H   0  0  0  0  0  0  0  0  0  0  0  0
   -9.4762    7.6046   -3.3531 H   0  0  0  0  0  0  0  0  0  0  0  0
   -9.1443    6.9629    0.4663 H   0  0  0  0  0  0  0  0  0  0  0  0
  -10.0339    8.0660   -0.6376 H   0  0  0  0  0  0  0  0  0  0  0  0
  -10.4008    6.3076   -0.6376 H   0  0  0  0  0  0  0  0  0  0  0  0
   -3.4445    9.2637   -2.3853 H   0  0  0  0  0  0  0  0  0  0  0  0
   -4.6818    9.7599   -0.3697 H   0  0  0  0  0  0  0  0  0  0  0  0
   -4.2075    8.2261    0.3914 H   0  0  0  0  0  0  0  0  0  0  0  0
   -3.1158   10.7936    1.0075 H   0  0  0  0  0  0  0  0  0  0  0  0
   -2.3802    9.2665    1.4876 H   0  0  0  0  0  0  0  0  0  0  0  0
   -2.3524   12.1415   -0.5126 H   0  0  0  0  0  0  0  0  0  0  0  0
   -1.2357   11.6991   -1.8482 H   0  0  0  0  0  0  0  0  0  0  0  0
   -2.9238   11.0850   -1.8482 H   0  0  0  0  0  0  0  0  0  0  0  0
   -0.0587    9.3781    0.8099 H   0  0  0  0  0  0  0  0  0  0  0  0
   -0.9341   11.6694    1.5973 H   0  0  0  0  0  0  0  0  0  0  0  0
    0.8409   11.2144    1.7767 H   0  0  0  0  0  0  0  0  0  0  0  0
    0.3432   13.6754    0.9781 H   0  0  0  0  0  0  0  0  0  0  0  0
    0.4327   11.5417   -2.4480 H   0  0  0  0  0  0  0  0  0  0  0  0
    3.3740   11.6456   -1.5340 H   0  0  0  0  0  0  0  0  0  0  0  0
    2.7190   10.8187   -3.0167 H   0  0  0  0  0  0  0  0  0  0  0  0
    3.8038   12.9764   -3.5497 H   0  0  0  0  0  0  0  0  0  0  0  0
    2.0404   12.9547   -3.9456 H   0  0  0  0  0  0  0  0  0  0  0  0
    2.5752   15.0596   -2.9247 H   0  0  0  0  0  0  0  0  0  0  0  0
    4.1210   13.4220   -1.3460 H   0  0  0  0  0  0  0  0  0  0  0  0
   -0.8870   14.6014   -2.0498 H   0  0  0  0  0  0  0  0  0  0  0  0
    0.3095   15.2770   -3.2068 H   0  0  0  0  0  0  0  0  0  0  0  0
   -0.0446   13.5159   -3.2068 H   0  0  0  0  0  0  0  0  0  0  0  0
    1.1640   15.0561    0.4578 H   0  0  0  0  0  0  0  0  0  0  0  0
    2.0344   16.0397   -0.7676 H   0  0  0  0  0  0  0  0  0  0  0  0
    0.2388   15.9883   -0.7676 H   0  0  0  0  0  0  0  0  0  0  0  0
    2.1101    9.8253    0.9216 H   0  0  0  0  0  0  0  0  0  0  0  0
    2.5601    8.7411   -0.4380 H   0  0  0  0  0  0  0  0  0  0  0  0
    3.1016   10.4538   -0.4380 H   0  0  0  0  0  0  0  0  0  0  0  0
    1.3080    9.3027   -2.8853 H   0  0  0  0  0  0  0  0  0  0  0  0
    1.0064    8.1161   -1.4945 H   0  0  0  0  0  0  0  0  0  0  0  0
   -1.0541    9.7058   -3.0481 H   0  0  0  0  0  0  0  0  0  0  0  0
   -0.8037    7.9159   -3.0095 H   0  0  0  0  0  0  0  0  0  0  0  0
   -1.3198    7.6803    0.6688 H   0  0  0  0  0  0  0  0  0  0  0  0
   -1.9178    6.6311   -0.6610 H   0  0  0  0  0  0  0  0  0  0  0  0
   -0.2131    7.1972   -0.6610 H   0  0  0  0  0  0  0  0  0  0  0  0
  1  2  1  0
  2  3  1  0
  3  4  1  0
  4  5  1  0
  5  6  1  0
  6  7  1  0
  7  8  1  0
  7  9  1  0
  2 10  1  0
 10 11  1  0
 11 12  1  0
 12 13  1  0
 13 14  1  6
 13 15  1  0
 15 16  1  0
 16 17  1  0
 17 18  2  0
 18 19  1  0
 19 20  1  0
 20 21  1  0
 21 22  1  0
 22 23  1  0
 22 24  1  0
 24 25  1  0
 24 26  1  0
 19 27  1  0
 27 28  1  1
 27 29  1  0
 29 30  1  0
 30 31  1  0
 31 32  1  1
  7  5  1  0
 31 10  1  0
 31 13  1  0
 27 15  1  0
 24 18  1  0
  1 33  1  0
  1 34  1  0
  1 35  1  0
  2 36  1  6
  3 37  1  0
  3 38  1  0
  4 39  1  0
  4 40  1  0
  5 41  1  1
  8 42  1  0
  8 43  1  0
  8 44  1  0
  9 45  1  0
  9 46  1  0
  9 47  1  0
 10 48  1  6
 11 49  1  0
 11 50  1  0
 12 51  1  0
 12 52  1  0
 14 53  1  0
 14 54  1  0
 14 55  1  0
 15 56  1  1
 16 57  1  0
 16 58  1  0
 17 59  1  0
 19 60  1  6
 20 61  1  0
 20 62  1  0
 21 63  1  0
 21 64  1  0
 22 65  1  6
 23 66  1  0
 25 67  1  0
 25 68  1  0
 25 69  1  0
 26 70  1  0
 26 71  1  0
 26 72  1  0
 28 73  1  0
 28 74  1  0
 28 75  1  0
 29 76  1  0
 29 77  1  0
 30 78  1  0
 30 79  1  0
 32 80  1  0
 32 81  1  0
 32 82  1  0
M  END
>  <meeko>  (11) 
{"is_sidechain": [false], "intermolecular_energy": 2.731, "internal_energy": -0.839}

$$$$
EPH_relaxed_0001_pdb2pqr_Repair_49_r2_0001_out
     RDKit          3D

 82 86  0  0  0  0  0  0  0  0999 V2000
   -0.8730   16.3590   -5.8450 C   0  0  0  0  0  0  0  0  0  0  0  0
    0.2150   15.6590   -6.6630 C   0  0  2  0  0  0  0  0  0  0  0  0
   -0.1880   15.4900   -8.1420 C   0  0  0  0  0  0  0  0  0  0  0  0
    0.4700   16.5070   -9.0790 C   0  0  0  0  0  0  0  0  0  0  0  0
    1.8710   16.1090   -9.4330 C   0  0  2  0  0  0  0  0  0  0  0  0
    2.3600   16.6680  -10.6590 O   0  0  0  0  0  0  0  0  0  0  0  0
    2.2170   15.2380  -10.6270 C   0  0  0  0  0  0  0  0  0  0  0  0
    1.1570   14.7120  -11.5420 C   0  0  0  0  0  0  0  0  0  0  0  0
    3.5210   14.5020  -10.6210 C   0  0  0  0  0  0  0  0  0  0  0  0
    0.5320   14.3000   -6.0510 C   0  0  1  0  0  0  0  0  0  0  0  0
    1.7900   13.6410   -6.6780 C   0  0  0  0  0  0  0  0  0  0  0  0
    2.5010   12.8630   -5.5410 C   0  0  0  0  0  0  0  0  0  0  0  0
    1.4680   12.8230   -4.3900 C   0  0  1  0  0  0  0  0  0  0  0  0
    0.5030   11.6520   -4.7580 C   0  0  0  0  0  0  0  0  0  0  0  0
    2.0470   12.6620   -2.9470 C   0  0  2  0  0  0  0  0  0  0  0  0
    2.8120   11.3510   -2.6930 C   0  0  0  0  0  0  0  0  0  0  0  0
    1.9840   10.2180   -2.1840 C   0  0  0  0  0  0  0  0  0  0  0  0
    0.7440   10.3240   -1.6720 C   0  0  0  0  0  0  0  0  0  0  0  0
    0.0870   11.6960   -1.4740 C   0  0  1  0  0  0  0  0  0  0  0  0
   -0.5500   11.7670   -0.0620 C   0  0  0  0  0  0  0  0  0  0  0  0
   -1.5150   10.6150    0.2030 C   0  0  0  0  0  0  0  0  0  0  0  0
   -0.8120    9.2690    0.0530 C   0  0  2  0  0  0  0  0  0  0  0  0
    0.1590    9.1380    1.0960 O   0  0  0  0  0  0  0  0  0  0  0  0
   -0.1230    9.0870   -1.3280 C   0  0  0  0  0  0  0  0  0  0  0  0
   -1.2000    8.9270   -2.4290 C   0  0  0  0  0  0  0  0  0  0  0  0
    0.6670    7.7510   -1.2960 C   0  0  0  0  0  0  0  0  0  0  0  0
    1.0030   12.9550   -1.7940 C   0  0  1  0  0  0  0  0  0  0  0  0
    1.8330   13.3440   -0.5310 C   0  0  0  0  0  0  0  0  0  0  0  0
    0.0840   14.1910   -2.1190 C   0  0  0  0  0  0  0  0  0  0  0  0
   -0.3570   14.3620   -3.5850 C   0  0  0  0  0  0  0  0  0  0  0  0
    0.8410   14.2580   -4.5340 C   0  0  2  0  0  0  0  0  0  0  0  0
    1.8180   15.4360   -4.2020 C   0  0  0  0  0  0  0  0  0  0  0  0
   -0.6675   16.2268   -4.7725 H   0  0  0  0  0  0  0  0  0  0  0  0
   -0.8807   17.4319   -6.0873 H   0  0  0  0  0  0  0  0  0  0  0  0
   -1.8526   15.9213   -6.0873 H   0  0  0  0  0  0  0  0  0  0  0  0
    1.1108   16.2969   -6.6361 H   0  0  0  0  0  0  0  0  0  0  0  0
    0.1012   14.4799   -8.4676 H   0  0  0  0  0  0  0  0  0  0  0  0
   -1.2740   15.6547   -8.2003 H   0  0  0  0  0  0  0  0  0  0  0  0
   -0.1244   16.5781  -10.0019 H   0  0  0  0  0  0  0  0  0  0  0  0
    0.5095   17.4760   -8.5600 H   0  0  0  0  0  0  0  0  0  0  0  0
    2.1475   16.0472   -8.3701 H   0  0  0  0  0  0  0  0  0  0  0  0
    0.3289   14.3011  -10.9459 H   0  0  0  0  0  0  0  0  0  0  0  0
    0.7821   15.5286  -12.1765 H   0  0  0  0  0  0  0  0  0  0  0  0
    1.5805   13.9195  -12.1765 H   0  0  0  0  0  0  0  0  0  0  0  0
    3.8367   14.3238   -9.5824 H   0  0  0  0  0  0  0  0  0  0  0  0
    3.4007   13.5386  -11.1381 H   0  0  0  0  0  0  0  0  0  0  0  0
    4.2836   15.1029  -11.1381 H   0  0  0  0  0  0  0  0  0  0  0  0
   -0.4152   13.7799   -6.2566 H   0  0  0  0  0  0  0  0  0  0  0  0
    1.4951   12.9510   -7.4823 H   0  0  0  0  0  0  0  0  0  0  0  0
    2.4568   14.3990   -7.1149 H   0  0  0  0  0  0  0  0  0  0  0  0
    2.7570   11.8446   -5.8685 H   0  0  0  0  0  0  0  0  0  0  0  0
    3.4454   13.3385   -5.2375 H   0  0  0  0  0  0  0  0  0  0  0  0
    0.1209   11.1884   -3.8365 H   0  0  0  0  0  0  0  0  0  0  0  0
   -0.3390   12.0425   -5.3484 H   0  0  0  0  0  0  0  0  0  0  0  0
    1.0472   10.9001   -5.3484 H   0  0  0  0  0  0  0  0  0  0  0  0
    2.8021   13.4608   -2.9050 H   0  0  0  0  0  0  0  0  0  0  0  0
    3.2719   11.0366   -3.6415 H   0  0  0  0  0  0  0  0  0  0  0  0
    3.5428   11.5735   -1.9015 H   0  0  0  0  0  0  0  0  0  0  0  0
    2.4247    9.2113   -2.2314 H   0  0  0  0  0  0  0  0  0  0  0  0
   -0.6979   11.7707   -2.2410 H   0  0  0  0  0  0  0  0  0  0  0  0
    0.2529   11.7343    0.6892 H   0  0  0  0  0  0  0  0  0  0  0  0
   -1.1234   12.7037   -0.0010 H   0  0  0  0  0  0  0  0  0  0  0  0
   -1.9087   10.7034    1.2263 H   0  0  0  0  0  0  0  0  0  0  0  0
   -2.3335   10.6671   -0.5300 H   0  0  0  0  0  0  0  0  0  0  0  0
   -1.5810    8.4857    0.1245 H   0  0  0  0  0  0  0  0  0  0  0  0
    0.4370    8.2070    1.1240 H   0  0  0  0  0  0  0  0  0  0  0  0
   -2.1844    8.7808   -1.9605 H   0  0  0  0  0  0  0  0  0  0  0  0
   -1.2223    9.8317   -3.0543 H   0  0  0  0  0  0  0  0  0  0  0  0
   -0.9584    8.0549   -3.0543 H   0  0  0  0  0  0  0  0  0  0  0  0
    0.8427    7.4539   -0.2516 H   0  0  0  0  0  0  0  0  0  0  0  0
    0.0859    6.9691   -1.8069 H   0  0  0  0  0  0  0  0  0  0  0  0
    1.6321    7.8834   -1.8069 H   0  0  0  0  0  0  0  0  0  0  0  0
    1.2680   13.0792    0.3749 H   0  0  0  0  0  0  0  0  0  0  0  0
    2.7892   12.8002   -0.5388 H   0  0  0  0  0  0  0  0  0  0  0  0
    2.0269   14.4268   -0.5388 H   0  0  0  0  0  0  0  0  0  0  0  0
   -0.8251   14.1000   -1.5064 H   0  0  0  0  0  0  0  0  0  0  0  0
    0.7014   15.0745   -1.8992 H   0  0  0  0  0  0  0  0  0  0  0  0
   -1.0841   13.5757   -3.8360 H   0  0  0  0  0  0  0  0  0  0  0  0
   -0.8106   15.3574   -3.7008 H   0  0  0  0  0  0  0  0  0  0  0  0
    1.9064   15.5426   -3.1107 H   0  0  0  0  0  0  0  0  0  0  0  0
    2.8083   15.2231   -4.6310 H   0  0  0  0  0  0  0  0  0  0  0  0
    1.4256   16.3698   -4.6310 H   0  0  0  0  0  0  0  0  0  0  0  0
  1  2  1  0
  2  3  1  0
  3  4  1  0
  4  5  1  0
  5  6  1  0
  6  7  1  0
  7  8  1  0
  7  9  1  0
  2 10  1  0
 10 11  1  0
 11 12  1  0
 12 13  1  0
 13 14  1  6
 13 15  1  0
 15 16  1  0
 16 17  1  0
 17 18  2  0
 18 19  1  0
 19 20  1  0
 20 21  1  0
 21 22  1  0
 22 23  1  0
 22 24  1  0
 24 25  1  0
 24 26  1  0
 19 27  1  0
 27 28  1  1
 27 29  1  0
 29 30  1  0
 30 31  1  0
 31 32  1  1
  7  5  1  0
 31 10  1  0
 31 13  1  0
 27 15  1  0
 24 18  1  0
  1 33  1  0
  1 34  1  0
  1 35  1  0
  2 36  1  6
  3 37  1  0
  3 38  1  0
  4 39  1  0
  4 40  1  0
  5 41  1  1
  8 42  1  0
  8 43  1  0
  8 44  1  0
  9 45  1  0
  9 46  1  0
  9 47  1  0
 10 48  1  1
 11 49  1  0
 11 50  1  0
 12 51  1  0
 12 52  1  0
 14 53  1  0
 14 54  1  0
 14 55  1  0
 15 56  1  6
 16 57  1  0
 16 58  1  0
 17 59  1  0
 19 60  1  6
 20 61  1  0
 20 62  1  0
 21 63  1  0
 21 64  1  0
 22 65  1  1
 23 66  1  0
 25 67  1  0
 25 68  1  0
 25 69  1  0
 26 70  1  0
 26 71  1  0
 26 72  1  0
 28 73  1  0
 28 74  1  0
 28 75  1  0
 29 76  1  0
 29 77  1  0
 30 78  1  0
 30 79  1  0
 32 80  1  0
 32 81  1  0
 32 82  1  0
M  END
>  <meeko>  (12) 
{"is_sidechain": [false], "intermolecular_energy": 2.731, "internal_energy": -0.839}

$$$$
EPH_relaxed_0001_pdb2pqr_Repair_49_r2_0001_out
     RDKit          3D

 82 86  0  0  0  0  0  0  0  0999 V2000
   -2.2540    7.8640   -2.1750 C   0  0  0  0  0  0  0  0  0  0  0  0
   -2.1710    8.4600   -0.7670 C   0  0  2  0  0  0  0  0  0  0  0  0
   -3.5330    8.4350   -0.0450 C   0  0  0  0  0  0  0  0  0  0  0  0
   -4.7340    8.5180   -0.9920 C   0  0  0  0  0  0  0  0  0  0  0  0
   -5.5500    7.2610   -0.9630 C   0  0  2  0  0  0  0  0  0  0  0  0
   -5.6280    6.5690   -2.2160 O   0  0  0  0  0  0  0  0  0  0  0  0
   -6.8630    7.0990   -1.7070 C   0  0  0  0  0  0  0  0  0  0  0  0
   -7.4350    8.2100   -2.5310 C   0  0  0  0  0  0  0  0  0  0  0  0
   -7.8230    6.0500   -1.2420 C   0  0  0  0  0  0  0  0  0  0  0  0
   -1.6460    9.8890   -0.8380 C   0  0  1  0  0  0  0  0  0  0  0  0
   -1.1960   10.4300    0.5460 C   0  0  0  0  0  0  0  0  0  0  0  0
    0.0230   11.3530    0.2910 C   0  0  0  0  0  0  0  0  0  0  0  0
    0.0290   11.5770   -1.2400 C   0  0  1  0  0  0  0  0  0  0  0  0
   -1.0300   12.6970   -1.4860 C   0  0  0  0  0  0  0  0  0  0  0  0
    1.4100   11.9370   -1.8790 C   0  0  2  0  0  0  0  0  0  0  0  0
    2.0300   13.2580   -1.3930 C   0  0  0  0  0  0  0  0  0  0  0  0
    1.6620   14.4660   -2.1890 C   0  0  0  0  0  0  0  0  0  0  0  0
    1.1010   14.4560   -3.4120 C   0  0  0  0  0  0  0  0  0  0  0  0
    0.8700   13.1380   -4.1610 C   0  0  1  0  0  0  0  0  0  0  0  0
    1.3530   13.2840   -5.6280 C   0  0  0  0  0  0  0  0  0  0  0  0
    0.7190   14.4770   -6.3370 C   0  0  0  0  0  0  0  0  0  0  0  0
    1.0200   15.7760   -5.5940 C   0  0  2  0  0  0  0  0  0  0  0  0
    2.4240   16.0410   -5.6810 O   0  0  0  0  0  0  0  0  0  0  0  0
    0.5860   15.7430   -4.1020 C   0  0  0  0  0  0  0  0  0  0  0  0
   -0.9600   15.7590   -4.0090 C   0  0  0  0  0  0  0  0  0  0  0  0
    1.0740   17.0570   -3.4340 C   0  0  0  0  0  0  0  0  0  0  0  0
    1.4400   11.8310   -3.4580 C   0  0  1  0  0  0  0  0  0  0  0  0
    2.9300   11.6170   -3.8620 C   0  0  0  0  0  0  0  0  0  0  0  0
    0.6510   10.5760   -3.9890 C   0  0  0  0  0  0  0  0  0  0  0  0
   -0.6420   10.2000   -3.2400 C   0  0  0  0  0  0  0  0  0  0  0  0
   -0.4040   10.1470   -1.7280 C   0  0  2  0  0  0  0  0  0  0  0  0
    0.6410    9.0130   -1.4480 C   0  0  0  0  0  0  0  0  0  0  0  0
   -2.4054    6.7767   -2.1046 H   0  0  0  0  0  0  0  0  0  0  0  0
   -3.0977    8.3174   -2.7160 H   0  0  0  0  0  0  0  0  0  0  0  0
   -1.3185    8.0697   -2.7160 H   0  0  0  0  0  0  0  0  0  0  0  0
   -1.4766    7.8370   -0.1842 H   0  0  0  0  0  0  0  0  0  0  0  0
   -3.6058    7.4981    0.5267 H   0  0  0  0  0  0  0  0  0  0  0  0
   -3.5708    9.3249    0.6005 H   0  0  0  0  0  0  0  0  0  0  0  0
   -5.3697    9.3629   -0.6885 H   0  0  0  0  0  0  0  0  0  0  0  0
   -4.3552    8.6577   -2.0152 H   0  0  0  0  0  0  0  0  0  0  0  0
   -5.2664    7.0726    0.0830 H   0  0  0  0  0  0  0  0  0  0  0  0
   -7.8365    8.9897   -1.8670 H   0  0  0  0  0  0  0  0  0  0  0  0
   -6.6459    8.6395   -3.1658 H   0  0  0  0  0  0  0  0  0  0  0  0
   -8.2430    7.8172   -3.1658 H   0  0  0  0  0  0  0  0  0  0  0  0
   -7.8407    6.0307   -0.1423 H   0  0  0  0  0  0  0  0  0  0  0  0
   -8.8297    6.2804   -1.6209 H   0  0  0  0  0  0  0  0  0  0  0  0
   -7.5045    5.0677   -1.6209 H   0  0  0  0  0  0  0  0  0  0  0  0
   -2.5274   10.3879   -1.2672 H   0  0  0  0  0  0  0  0  0  0  0  0
   -2.0121   11.0008    1.0131 H   0  0  0  0  0  0  0  0  0  0  0  0
   -0.9320    9.6060    1.2252 H   0  0  0  0  0  0  0  0  0  0  0  0
   -0.0954   12.3086    0.8229 H   0  0  0  0  0  0  0  0  0  0  0  0
    0.9636   10.9113    0.6518 H   0  0  0  0  0  0  0  0  0  0  0  0
   -1.3911   13.0789   -0.5197 H   0  0  0  0  0  0  0  0  0  0  0  0
   -0.5700   13.5178   -2.0559 H   0  0  0  0  0  0  0  0  0  0  0  0
   -1.8752   12.2837   -2.0559 H   0  0  0  0  0  0  0  0  0  0  0  0
    2.0634   11.1411   -1.4922 H   0  0  0  0  0  0  0  0  0  0  0  0
    1.7065   13.4236   -0.3548 H   0  0  0  0  0  0  0  0  0  0  0  0
    3.1184   13.1416   -1.5021 H   0  0  0  0  0  0  0  0  0  0  0  0
    1.8669   15.4479   -1.7374 H   0  0  0  0  0  0  0  0  0  0  0  0
   -0.2160   12.9640   -4.1412 H   0  0  0  0  0  0  0  0  0  0  0  0
    2.4454   13.4134   -5.6283 H   0  0  0  0  0  0  0  0  0  0  0  0
    1.0527   12.3753   -6.1703 H   0  0  0  0  0  0  0  0  0  0  0  0
    1.1220   14.5447   -7.3583 H   0  0  0  0  0  0  0  0  0  0  0  0
   -0.3710   14.3316   -6.3626 H   0  0  0  0  0  0  0  0  0  0  0  0
    0.4341   16.5742   -6.0731 H   0  0  0  0  0  0  0  0  0  0  0  0
    2.8730   15.4590   -5.0450 H   0  0  0  0  0  0  0  0  0  0  0  0
   -1.2637   15.7621   -2.9518 H   0  0  0  0  0  0  0  0  0  0  0  0
   -1.3478   16.6612   -4.5046 H   0  0  0  0  0  0  0  0  0  0  0  0
   -1.3664   14.8650   -4.5046 H   0  0  0  0  0  0  0  0  0  0  0  0
    1.0339   16.9490   -2.3400 H   0  0  0  0  0  0  0  0  0  0  0  0
    2.1089   17.2637   -3.7444 H   0  0  0  0  0  0  0  0  0  0  0  0
    0.4249   17.8891   -3.7444 H   0  0  0  0  0  0  0  0  0  0  0  0
    3.5466   11.5284   -2.9554 H   0  0  0  0  0  0  0  0  0  0  0  0
    3.0198   10.6967   -4.4579 H   0  0  0  0  0  0  0  0  0  0  0  0
    3.2752   12.4748   -4.4579 H   0  0  0  0  0  0  0  0  0  0  0  0
    0.3832   10.7707   -5.0380 H   0  0  0  0  0  0  0  0  0  0  0  0
    1.3298    9.7239   -3.8369 H   0  0  0  0  0  0  0  0  0  0  0  0
   -1.4149   10.9522   -3.4565 H   0  0  0  0  0  0  0  0  0  0  0  0
   -0.9671    9.2053   -3.5790 H   0  0  0  0  0  0  0  0  0  0  0  0
    0.7599    8.8840   -0.3621 H   0  0  0  0  0  0  0  0  0  0  0  0
    0.2878    8.0709   -1.8927 H   0  0  0  0  0  0  0  0  0  0  0  0
    1.6087    9.2882   -1.8927 H   0  0  0  0  0  0  0  0  0  0  0  0
  1  2  1  0
  2  3  1  0
  3  4  1  0
  4  5  1  0
  5  6  1  0
  6  7  1  0
  7  8  1  0
  7  9  1  0
  2 10  1  0
 10 11  1  0
 11 12  1  0
 12 13  1  0
 13 14  1  1
 13 15  1  0
 15 16  1  0
 16 17  1  0
 17 18  2  0
 18 19  1  0
 19 20  1  0
 20 21  1  0
 21 22  1  0
 22 23  1  0
 22 24  1  0
 24 25  1  0
 24 26  1  0
 19 27  1  0
 27 28  1  6
 27 29  1  0
 29 30  1  0
 30 31  1  0
 31 32  1  6
  7  5  1  0
 31 10  1  0
 31 13  1  0
 27 15  1  0
 24 18  1  0
  1 33  1  0
  1 34  1  0
  1 35  1  0
  2 36  1  1
  3 37  1  0
  3 38  1  0
  4 39  1  0
  4 40  1  0
  5 41  1  1
  8 42  1  0
  8 43  1  0
  8 44  1  0
  9 45  1  0
  9 46  1  0
  9 47  1  0
 10 48  1  6
 11 49  1  0
 11 50  1  0
 12 51  1  0
 12 52  1  0
 14 53  1  0
 14 54  1  0
 14 55  1  0
 15 56  1  1
 16 57  1  0
 16 58  1  0
 17 59  1  0
 19 60  1  6
 20 61  1  0
 20 62  1  0
 21 63  1  0
 21 64  1  0
 22 65  1  6
 23 66  1  0
 25 67  1  0
 25 68  1  0
 25 69  1  0
 26 70  1  0
 26 71  1  0
 26 72  1  0
 28 73  1  0
 28 74  1  0
 28 75  1  0
 29 76  1  0
 29 77  1  0
 30 78  1  0
 30 79  1  0
 32 80  1  0
 32 81  1  0
 32 82  1  0
M  END
>  <meeko>  (13) 
{"is_sidechain": [false], "intermolecular_energy": 2.731, "internal_energy": -0.839}

$$$$
EPH_relaxed_0001_pdb2pqr_Repair_49_r2_0001_out
     RDKit          3D

 82 86  0  0  0  0  0  0  0  0999 V2000
   -0.4810    9.3200   -2.1860 C   0  0  0  0  0  0  0  0  0  0  0  0
    0.6370   10.2420   -2.6800 C   0  0  2  0  0  0  0  0  0  0  0  0
    1.9910    9.5110   -2.7800 C   0  0  0  0  0  0  0  0  0  0  0  0
    2.9290   10.0950   -3.8400 C   0  0  0  0  0  0  0  0  0  0  0  0
    4.3500   10.1260   -3.3660 C   0  0  2  0  0  0  0  0  0  0  0  0
    4.8000   11.4060   -2.9030 O   0  0  0  0  0  0  0  0  0  0  0  0
    5.4520   10.8910   -4.0750 C   0  0  0  0  0  0  0  0  0  0  0  0
    5.1800   11.6770   -5.3190 C   0  0  0  0  0  0  0  0  0  0  0  0
    6.8730   10.4800   -3.8420 C   0  0  0  0  0  0  0  0  0  0  0  0
    0.7620   11.4480   -1.7560 C   0  0  1  0  0  0  0  0  0  0  0  0
    1.8480   11.2530   -0.6640 C   0  0  0  0  0  0  0  0  0  0  0  0
    2.4940   12.6420   -0.4230 C   0  0  0  0  0  0  0  0  0  0  0  0
    1.5470   13.6400   -1.1300 C   0  0  1  0  0  0  0  0  0  0  0  0
    0.3790   13.8680   -0.1210 C   0  0  0  0  0  0  0  0  0  0  0  0
    2.1860   14.9910   -1.5890 C   0  0  2  0  0  0  0  0  0  0  0  0
    2.7370   15.8720   -0.4530 C   0  0  0  0  0  0  0  0  0  0  0  0
    1.7670   16.8490    0.1230 C   0  0  0  0  0  0  0  0  0  0  0  0
    0.5990   17.2150   -0.4360 C   0  0  0  0  0  0  0  0  0  0  0  0
    0.1950   16.7010   -1.8240 C   0  0  1  0  0  0  0  0  0  0  0  0
   -0.3270   17.8830   -2.6820 C   0  0  0  0  0  0  0  0  0  0  0  0
   -1.4500   18.6530   -1.9960 C   0  0  0  0  0  0  0  0  0  0  0  0
   -0.9930   19.1980   -0.6450 C   0  0  2  0  0  0  0  0  0  0  0  0
    0.0100   20.1940   -0.8660 O   0  0  0  0  0  0  0  0  0  0  0  0
   -0.4370   18.0980    0.3020 C   0  0  0  0  0  0  0  0  0  0  0  0
   -1.5960   17.1900    0.7820 C   0  0  0  0  0  0  0  0  0  0  0  0
    0.1190   18.7980    1.5710 C   0  0  0  0  0  0  0  0  0  0  0  0
    1.2850   15.8290   -2.5840 C   0  0  1  0  0  0  0  0  0  0  0  0
    2.2490   16.7600   -3.3820 C   0  0  0  0  0  0  0  0  0  0  0  0
    0.5650   14.9200   -3.6490 C   0  0  0  0  0  0  0  0  0  0  0  0
    0.0620   13.5470   -3.1630 C   0  0  0  0  0  0  0  0  0  0  0  0
    1.1600   12.7990   -2.4010 C   0  0  2  0  0  0  0  0  0  0  0  0
    2.3400   12.5360   -3.3970 C   0  0  0  0  0  0  0  0  0  0  0  0
   -0.4906    9.3121   -1.0861 H   0  0  0  0  0  0  0  0  0  0  0  0
   -1.4493    9.6856   -2.5585 H   0  0  0  0  0  0  0  0  0  0  0  0
   -0.3064    8.2998   -2.5585 H   0  0  0  0  0  0  0  0  0  0  0  0
    0.3675   10.5763   -3.6927 H   0  0  0  0  0  0  0  0  0  0  0  0
    2.4914    9.5715   -1.8023 H   0  0  0  0  0  0  0  0  0  0  0  0
    1.7754    8.4742   -3.0777 H   0  0  0  0  0  0  0  0  0  0  0  0
    2.8695    9.4770   -4.7480 H   0  0  0  0  0  0  0  0  0  0  0  0
    2.6134   11.1286   -4.0452 H   0  0  0  0  0  0  0  0  0  0  0  0
    4.2806    9.0850   -3.0176 H   0  0  0  0  0  0  0  0  0  0  0  0
    4.8314   12.6843   -5.0474 H   0  0  0  0  0  0  0  0  0  0  0  0
    6.1031   11.7559   -5.9120 H   0  0  0  0  0  0  0  0  0  0  0  0
    4.4056   11.1685   -5.9120 H   0  0  0  0  0  0  0  0  0  0  0  0
    7.0659   10.4242   -2.7605 H   0  0  0  0  0  0  0  0  0  0  0  0
    7.0489    9.4942   -4.2972 H   0  0  0  0  0  0  0  0  0  0  0  0
    7.5480   11.2197   -4.2972 H   0  0  0  0  0  0  0  0  0  0  0  0
   -0.2702   11.5006   -1.3794 H   0  0  0  0  0  0  0  0  0  0  0  0
    1.3893   10.8822    0.2645 H   0  0  0  0  0  0  0  0  0  0  0  0
    2.6009   10.5170   -0.9825 H   0  0  0  0  0  0  0  0  0  0  0  0
    2.5551   12.8605    0.6534 H   0  0  0  0  0  0  0  0  0  0  0  0
    3.5223   12.6968   -0.8097 H   0  0  0  0  0  0  0  0  0  0  0  0
    0.7628   13.7931    0.9072 H   0  0  0  0  0  0  0  0  0  0  0  0
   -0.0526   14.8673   -0.2794 H   0  0  0  0  0  0  0  0  0  0  0  0
   -0.3967   13.1043   -0.2794 H   0  0  0  0  0  0  0  0  0  0  0  0
    3.0643   14.6544   -2.1593 H   0  0  0  0  0  0  0  0  0  0  0  0
    3.0744   15.2096    0.3578 H   0  0  0  0  0  0  0  0  0  0  0  0
    3.5454   16.4713   -0.8972 H   0  0  0  0  0  0  0  0  0  0  0  0
    2.0293   17.3093    1.0870 H   0  0  0  0  0  0  0  0  0  0  0  0
   -0.6150   15.9758   -1.6565 H   0  0  0  0  0  0  0  0  0  0  0  0
    0.5071   18.5736   -2.8752 H   0  0  0  0  0  0  0  0  0  0  0  0
   -0.7312   17.4646   -3.6156 H   0  0  0  0  0  0  0  0  0  0  0  0
   -1.7552   19.4924   -2.6381 H   0  0  0  0  0  0  0  0  0  0  0  0
   -2.2946   17.9681   -1.8303 H   0  0  0  0  0  0  0  0  0  0  0  0
   -1.8748   19.6259   -0.1456 H   0  0  0  0  0  0  0  0  0  0  0  0
    0.4090   20.4060   -0.0050 H   0  0  0  0  0  0  0  0  0  0  0  0
   -1.6174   17.1733    1.8817 H   0  0  0  0  0  0  0  0  0  0  0  0
   -2.5508   17.5829    0.4026 H   0  0  0  0  0  0  0  0  0  0  0  0
   -1.4431   16.1689    0.4026 H   0  0  0  0  0  0  0  0  0  0  0  0
   -0.2770   18.2994    2.4680 H   0  0  0  0  0  0  0  0  0  0  0  0
    1.2173   18.7367    1.5721 H   0  0  0  0  0  0  0  0  0  0  0  0
   -0.1893   19.8539    1.5721 H   0  0  0  0  0  0  0  0  0  0  0  0
    2.8573   17.3475   -2.6785 H   0  0  0  0  0  0  0  0  0  0  0  0
    2.9087   16.1485   -4.0151 H   0  0  0  0  0  0  0  0  0  0  0  0
    1.6609   17.4406   -4.0151 H   0  0  0  0  0  0  0  0  0  0  0  0
   -0.3038   15.4772   -4.0295 H   0  0  0  0  0  0  0  0  0  0  0  0
    1.3339   14.6949   -4.4028 H   0  0  0  0  0  0  0  0  0  0  0  0
   -0.8011   13.6950   -2.4973 H   0  0  0  0  0  0  0  0  0  0  0  0
   -0.2262   12.9487   -4.0399 H   0  0  0  0  0  0  0  0  0  0  0  0
    3.2599   12.3310   -2.8297 H   0  0  0  0  0  0  0  0  0  0  0  0
    2.0990   11.6695   -4.0304 H   0  0  0  0  0  0  0  0  0  0  0  0
    2.4898   13.4228   -4.0304 H   0  0  0  0  0  0  0  0  0  0  0  0
  1  2  1  0
  2  3  1  0
  3  4  1  0
  4  5  1  0
  5  6  1  0
  6  7  1  0
  7  8  1  0
  7  9  1  0
  2 10  1  0
 10 11  1  0
 11 12  1  0
 12 13  1  0
 13 14  1  1
 13 15  1  0
 15 16  1  0
 16 17  1  0
 17 18  2  0
 18 19  1  0
 19 20  1  0
 20 21  1  0
 21 22  1  0
 22 23  1  0
 22 24  1  0
 24 25  1  0
 24 26  1  0
 19 27  1  0
 27 28  1  6
 27 29  1  0
 29 30  1  0
 30 31  1  0
 31 32  1  6
  7  5  1  0
 31 10  1  0
 31 13  1  0
 27 15  1  0
 24 18  1  0
  1 33  1  0
  1 34  1  0
  1 35  1  0
  2 36  1  6
  3 37  1  0
  3 38  1  0
  4 39  1  0
  4 40  1  0
  5 41  1  1
  8 42  1  0
  8 43  1  0
  8 44  1  0
  9 45  1  0
  9 46  1  0
  9 47  1  0
 10 48  1  1
 11 49  1  0
 11 50  1  0
 12 51  1  0
 12 52  1  0
 14 53  1  0
 14 54  1  0
 14 55  1  0
 15 56  1  6
 16 57  1  0
 16 58  1  0
 17 59  1  0
 19 60  1  1
 20 61  1  0
 20 62  1  0
 21 63  1  0
 21 64  1  0
 22 65  1  1
 23 66  1  0
 25 67  1  0
 25 68  1  0
 25 69  1  0
 26 70  1  0
 26 71  1  0
 26 72  1  0
 28 73  1  0
 28 74  1  0
 28 75  1  0
 29 76  1  0
 29 77  1  0
 30 78  1  0
 30 79  1  0
 32 80  1  0
 32 81  1  0
 32 82  1  0
M  END
>  <meeko>  (14) 
{"is_sidechain": [false], "intermolecular_energy": 2.731, "internal_energy": -0.839}

$$$$
EPH_relaxed_0001_pdb2pqr_Repair_49_r2_0001_out
     RDKit          3D

 82 86  0  0  0  0  0  0  0  0999 V2000
    0.8380   18.9570   -2.5620 C   0  0  0  0  0  0  0  0  0  0  0  0
    0.2500   17.9750   -1.5460 C   0  0  2  0  0  0  0  0  0  0  0  0
    0.6550   18.3230   -0.1000 C   0  0  0  0  0  0  0  0  0  0  0  0
    1.4700   19.6140    0.0170 C   0  0  0  0  0  0  0  0  0  0  0  0
    2.4340   19.5580    1.1640 C   0  0  2  0  0  0  0  0  0  0  0  0
    3.6950   20.1940    0.9170 O   0  0  0  0  0  0  0  0  0  0  0  0
    3.7320   18.7740    1.1280 C   0  0  0  0  0  0  0  0  0  0  0  0
    4.1370   17.9890   -0.0800 C   0  0  0  0  0  0  0  0  0  0  0  0
    4.3620   18.3740    2.4260 C   0  0  0  0  0  0  0  0  0  0  0  0
    0.6880   16.5540   -1.8820 C   0  0  1  0  0  0  0  0  0  0  0  0
    2.1410   16.4900   -2.4240 C   0  0  0  0  0  0  0  0  0  0  0  0
    2.7540   15.1640   -1.9050 C   0  0  0  0  0  0  0  0  0  0  0  0
    1.5460   14.3600   -1.3680 C   0  0  1  0  0  0  0  0  0  0  0  0
    0.9010   13.7130   -2.6340 C   0  0  0  0  0  0  0  0  0  0  0  0
    1.8600   13.2920   -0.2700 C   0  0  2  0  0  0  0  0  0  0  0  0
    2.7900   12.1500   -0.7170 C   0  0  0  0  0  0  0  0  0  0  0  0
    2.1030   10.9540   -1.2870 C   0  0  0  0  0  0  0  0  0  0  0  0
    0.7900   10.6790   -1.1750 C   0  0  0  0  0  0  0  0  0  0  0  0
   -0.1320   11.5690   -0.3320 C   0  0  1  0  0  0  0  0  0  0  0  0
   -1.0280   10.6800    0.5700 C   0  0  0  0  0  0  0  0  0  0  0  0
   -1.7980    9.6290   -0.2250 C   0  0  0  0  0  0  0  0  0  0  0  0
   -0.8440    8.7270   -1.0030 C   0  0  2  0  0  0  0  0  0  0  0  0
   -0.0820    7.9520   -0.0740 O   0  0  0  0  0  0  0  0  0  0  0  0
    0.1160    9.5130   -1.9400 C   0  0  0  0  0  0  0  0  0  0  0  0
   -0.6840   10.1080   -3.1250 C   0  0  0  0  0  0  0  0  0  0  0  0
    1.1170    8.4990   -2.5570 C   0  0  0  0  0  0  0  0  0  0  0  0
    0.5810   12.7360    0.4780 C   0  0  1  0  0  0  0  0  0  0  0  0
    1.0700   12.2030    1.8590 C   0  0  0  0  0  0  0  0  0  0  0  0
   -0.4710   13.8670    0.7840 C   0  0  0  0  0  0  0  0  0  0  0  0
   -0.6490   14.9590   -0.2870 C   0  0  0  0  0  0  0  0  0  0  0  0
    0.7060   15.5230   -0.7260 C   0  0  2  0  0  0  0  0  0  0  0  0
    1.3690   16.2000    0.5210 C   0  0  0  0  0  0  0  0  0  0  0  0
    1.3326   19.7829   -2.0298 H   0  0  0  0  0  0  0  0  0  0  0  0
    1.5726   18.4355   -3.1932 H   0  0  0  0  0  0  0  0  0  0  0  0
    0.0315   19.3583   -3.1932 H   0  0  0  0  0  0  0  0  0  0  0  0
   -0.8456   18.0509   -1.6091 H   0  0  0  0  0  0  0  0  0  0  0  0
   -0.2603   18.4346    0.4998 H   0  0  0  0  0  0  0  0  0  0  0  0
    1.2956   17.5046    0.2603 H   0  0  0  0  0  0  0  0  0  0  0  0
    2.0335   19.7658   -0.9154 H   0  0  0  0  0  0  0  0  0  0  0  0
    0.7723   20.4455    0.1952 H   0  0  0  0  0  0  0  0  0  0  0  0
    1.6084   19.5852    1.8904 H   0  0  0  0  0  0  0  0  0  0  0  0
    4.6201   17.0527    0.2362 H   0  0  0  0  0  0  0  0  0  0  0  0
    3.2461   17.7569   -0.6821 H   0  0  0  0  0  0  0  0  0  0  0  0
    4.8425   18.5804   -0.6821 H   0  0  0  0  0  0  0  0  0  0  0  0
    3.7573   18.7580    3.2608 H   0  0  0  0  0  0  0  0  0  0  0  0
    4.4144   17.2769    2.4854 H   0  0  0  0  0  0  0  0  0  0  0  0
    5.3772   18.7933    2.4854 H   0  0  0  0  0  0  0  0  0  0  0  0
   -0.0917   16.2880   -2.6109 H   0  0  0  0  0  0  0  0  0  0  0  0
    2.1358   16.4999   -3.5239 H   0  0  0  0  0  0  0  0  0  0  0  0
    2.7278   17.3561   -2.0841 H   0  0  0  0  0  0  0  0  0  0  0  0
    3.2506   14.6198   -2.7218 H   0  0  0  0  0  0  0  0  0  0  0  0
    3.5197   15.3321   -1.1334 H   0  0  0  0  0  0  0  0  0  0  0  0
    0.1558   12.9655   -2.3245 H   0  0  0  0  0  0  0  0  0  0  0  0
    0.4103   14.4929   -3.2348 H   0  0  0  0  0  0  0  0  0  0  0  0
    1.6825   13.2247   -3.2348 H   0  0  0  0  0  0  0  0  0  0  0  0
    2.4336   13.8734    0.4669 H   0  0  0  0  0  0  0  0  0  0  0  0
    3.4721   12.5473   -1.4831 H   0  0  0  0  0  0  0  0  0  0  0  0
    3.3027   11.8019    0.1918 H   0  0  0  0  0  0  0  0  0  0  0  0
    2.7218   10.2366   -1.8459 H   0  0  0  0  0  0  0  0  0  0  0  0
   -0.7564   12.1233   -1.0482 H   0  0  0  0  0  0  0  0  0  0  0  0
   -0.3903   10.1684    1.3059 H   0  0  0  0  0  0  0  0  0  0  0  0
   -1.7643   11.3350    1.0587 H   0  0  0  0  0  0  0  0  0  0  0  0
   -2.3892    9.0140    0.4694 H   0  0  0  0  0  0  0  0  0  0  0  0
   -2.4572   10.1428   -0.9401 H   0  0  0  0  0  0  0  0  0  0  0  0
   -1.4552    8.0817   -1.6510 H   0  0  0  0  0  0  0  0  0  0  0  0
    0.8490    8.2180   -0.1620 H   0  0  0  0  0  0  0  0  0  0  0  0
   -1.5102   10.7225   -2.7379 H   0  0  0  0  0  0  0  0  0  0  0  0
   -0.0190   10.7328   -3.7394 H   0  0  0  0  0  0  0  0  0  0  0  0
   -1.0910    9.2914   -3.7394 H   0  0  0  0  0  0  0  0  0  0  0  0
    1.6429    7.9663   -1.7510 H   0  0  0  0  0  0  0  0  0  0  0  0
    0.5695    7.7752   -3.1786 H   0  0  0  0  0  0  0  0  0  0  0  0
    1.8478    9.0372   -3.1786 H   0  0  0  0  0  0  0  0  0  0  0  0
    0.5639   12.7546    2.6650 H   0  0  0  0  0  0  0  0  0  0  0  0
    0.8337   11.1320    1.9432 H   0  0  0  0  0  0  0  0  0  0  0  0
    2.1574   12.3463    1.9432 H   0  0  0  0  0  0  0  0  0  0  0  0
   -1.4475   13.3822    0.9302 H   0  0  0  0  0  0  0  0  0  0  0  0
   -0.0796   14.3922    1.6677 H   0  0  0  0  0  0  0  0  0  0  0  0
   -1.1588   14.5265   -1.1606 H   0  0  0  0  0  0  0  0  0  0  0  0
   -1.2467   15.7767    0.1420 H   0  0  0  0  0  0  0  0  0  0  0  0
    0.9465   15.7685    1.4404 H   0  0  0  0  0  0  0  0  0  0  0  0
    2.4548   16.0251    0.4992 H   0  0  0  0  0  0  0  0  0  0  0  0
    1.1714   17.2819    0.4992 H   0  0  0  0  0  0  0  0  0  0  0  0
  1  2  1  0
  2  3  1  0
  3  4  1  0
  4  5  1  0
  5  6  1  0
  6  7  1  0
  7  8  1  0
  7  9  1  0
  2 10  1  0
 10 11  1  0
 11 12  1  0
 12 13  1  0
 13 14  1  6
 13 15  1  0
 15 16  1  0
 16 17  1  0
 17 18  2  0
 18 19  1  0
 19 20  1  0
 20 21  1  0
 21 22  1  0
 22 23  1  0
 22 24  1  0
 24 25  1  0
 24 26  1  0
 19 27  1  0
 27 28  1  1
 27 29  1  0
 29 30  1  0
 30 31  1  0
 31 32  1  1
  7  5  1  0
 31 10  1  0
 31 13  1  0
 27 15  1  0
 24 18  1  0
  1 33  1  0
  1 34  1  0
  1 35  1  0
  2 36  1  1
  3 37  1  0
  3 38  1  0
  4 39  1  0
  4 40  1  0
  5 41  1  1
  8 42  1  0
  8 43  1  0
  8 44  1  0
  9 45  1  0
  9 46  1  0
  9 47  1  0
 10 48  1  6
 11 49  1  0
 11 50  1  0
 12 51  1  0
 12 52  1  0
 14 53  1  0
 14 54  1  0
 14 55  1  0
 15 56  1  1
 16 57  1  0
 16 58  1  0
 17 59  1  0
 19 60  1  6
 20 61  1  0
 20 62  1  0
 21 63  1  0
 21 64  1  0
 22 65  1  6
 23 66  1  0
 25 67  1  0
 25 68  1  0
 25 69  1  0
 26 70  1  0
 26 71  1  0
 26 72  1  0
 28 73  1  0
 28 74  1  0
 28 75  1  0
 29 76  1  0
 29 77  1  0
 30 78  1  0
 30 79  1  0
 32 80  1  0
 32 81  1  0
 32 82  1  0
M  END
>  <meeko>  (15) 
{"is_sidechain": [false], "intermolecular_energy": 2.731, "internal_energy": -0.839}

$$$$
EPH_relaxed_0001_pdb2pqr_Repair_49_r2_0001_out
     RDKit          3D

 82 86  0  0  0  0  0  0  0  0999 V2000
    2.1190   10.9590   -5.1760 C   0  0  0  0  0  0  0  0  0  0  0  0
    1.4580   10.7990   -3.8040 C   0  0  2  0  0  0  0  0  0  0  0  0
    0.3400    9.7360   -3.8190 C   0  0  0  0  0  0  0  0  0  0  0  0
    0.4230    8.7390   -2.6600 C   0  0  0  0  0  0  0  0  0  0  0  0
   -0.2620    9.2590   -1.4320 C   0  0  2  0  0  0  0  0  0  0  0  0
   -0.6000    8.2550   -0.4660 O   0  0  0  0  0  0  0  0  0  0  0  0
   -1.7040    8.9400   -1.0810 C   0  0  0  0  0  0  0  0  0  0  0  0
   -2.5470    8.0690   -1.9590 C   0  0  0  0  0  0  0  0  0  0  0  0
   -2.4340    9.8600   -0.1530 C   0  0  0  0  0  0  0  0  0  0  0  0
    0.8980   12.1370   -3.3370 C   0  0  1  0  0  0  0  0  0  0  0  0
   -0.6110   12.0620   -2.9800 C   0  0  0  0  0  0  0  0  0  0  0  0
   -0.8370   13.0300   -1.7900 C   0  0  0  0  0  0  0  0  0  0  0  0
    0.4590   13.8700   -1.7190 C   0  0  1  0  0  0  0  0  0  0  0  0
    0.2850   14.9710   -2.8110 C   0  0  0  0  0  0  0  0  0  0  0  0
    0.8050   14.4890   -0.3250 C   0  0  2  0  0  0  0  0  0  0  0  0
   -0.2230   15.5000    0.2130 C   0  0  0  0  0  0  0  0  0  0  0  0
    0.0230   16.9230   -0.1670 C   0  0  0  0  0  0  0  0  0  0  0  0
    1.1730   17.4120   -0.6660 C   0  0  0  0  0  0  0  0  0  0  0  0
    2.4140   16.5200   -0.8040 C   0  0  1  0  0  0  0  0  0  0  0  0
    3.6550   17.2720   -0.2570 C   0  0  0  0  0  0  0  0  0  0  0  0
    3.8440   18.6400   -0.9060 C   0  0  0  0  0  0  0  0  0  0  0  0
    2.6130   19.5170   -0.6970 C   0  0  2  0  0  0  0  0  0  0  0  0
    2.4940   19.8210    0.6960 O   0  0  0  0  0  0  0  0  0  0  0  0
    1.2990   18.8590   -1.2020 C   0  0  0  0  0  0  0  0  0  0  0  0
    1.3050   18.8060   -2.7500 C   0  0  0  0  0  0  0  0  0  0  0  0
    0.1180   19.7850   -0.8040 C   0  0  0  0  0  0  0  0  0  0  0  0
    2.2810   15.0510   -0.2140 C   0  0  1  0  0  0  0  0  0  0  0  0
    2.6430   15.0520    1.3030 C   0  0  0  0  0  0  0  0  0  0  0  0
    3.3320   14.1150   -0.9210 C   0  0  0  0  0  0  0  0  0  0  0  0
    2.8880   13.4380   -2.2320 C   0  0  0  0  0  0  0  0  0  0  0  0
    1.5220   12.7650   -2.0660 C   0  0  2  0  0  0  0  0  0  0  0  0
    1.6720   11.6380   -0.9890 C   0  0  0  0  0  0  0  0  0  0  0  0
    3.1804   11.2159   -5.0439 H   0  0  0  0  0  0  0  0  0  0  0  0
    2.0370   10.0151   -5.7348 H   0  0  0  0  0  0  0  0  0  0  0  0
    1.6144   11.7609   -5.7348 H   0  0  0  0  0  0  0  0  0  0  0  0
    2.2319   10.4551   -3.1020 H   0  0  0  0  0  0  0  0  0  0  0  0
   -0.6302   10.2516   -3.7647 H   0  0  0  0  0  0  0  0  0  0  0  0
    0.4574    9.1592   -4.7482 H   0  0  0  0  0  0  0  0  0  0  0  0
   -0.0572    7.7974   -2.9645 H   0  0  0  0  0  0  0  0  0  0  0  0
    1.4845    8.5799   -2.4195 H   0  0  0  0  0  0  0  0  0  0  0  0
    0.2887   10.2090   -1.4969 H   0  0  0  0  0  0  0  0  0  0  0  0
   -3.1766    7.4185   -1.3342 H   0  0  0  0  0  0  0  0  0  0  0  0
   -3.1873    8.6988   -2.5940 H   0  0  0  0  0  0  0  0  0  0  0  0
   -1.8966    7.4496   -2.5940 H   0  0  0  0  0  0  0  0  0  0  0  0
   -2.2132    9.5817    0.8880 H   0  0  0  0  0  0  0  0  0  0  0  0
   -2.1091   10.8955   -0.3325 H   0  0  0  0  0  0  0  0  0  0  0  0
   -3.5162    9.7789   -0.3325 H   0  0  0  0  0  0  0  0  0  0  0  0
    1.1364   12.7529   -4.2167 H   0  0  0  0  0  0  0  0  0  0  0  0
   -1.2201   12.3722   -3.8418 H   0  0  0  0  0  0  0  0  0  0  0  0
   -0.9040   11.0353   -2.7155 H   0  0  0  0  0  0  0  0  0  0  0  0
   -1.7084   13.6754   -1.9745 H   0  0  0  0  0  0  0  0  0  0  0  0
   -1.0397   12.4955   -0.8502 H   0  0  0  0  0  0  0  0  0  0  0  0
    0.1308   15.9466   -2.3268 H   0  0  0  0  0  0  0  0  0  0  0  0
    1.1879   15.0115   -3.4380 H   0  0  0  0  0  0  0  0  0  0  0  0
   -0.5864   14.7311   -3.4380 H   0  0  0  0  0  0  0  0  0  0  0  0
    0.7441   13.6169    0.3426 H   0  0  0  0  0  0  0  0  0  0  0  0
   -1.2140   15.2128   -0.1684 H   0  0  0  0  0  0  0  0  0  0  0  0
   -0.1444   15.4598    1.3095 H   0  0  0  0  0  0  0  0  0  0  0  0
   -0.8065   17.6318   -0.0271 H   0  0  0  0  0  0  0  0  0  0  0  0
    2.5360   16.3328   -1.8811 H   0  0  0  0  0  0  0  0  0  0  0  0
    3.5338   17.4101    0.8275 H   0  0  0  0  0  0  0  0  0  0  0  0
    4.5425   16.6660   -0.4916 H   0  0  0  0  0  0  0  0  0  0  0  0
    4.7184   19.1338   -0.4570 H   0  0  0  0  0  0  0  0  0  0  0  0
    3.9951   18.4984   -1.9863 H   0  0  0  0  0  0  0  0  0  0  0  0
    2.7549   20.4311   -1.2922 H   0  0  0  0  0  0  0  0  0  0  0  0
    1.6340   19.4840    0.9990 H   0  0  0  0  0  0  0  0  0  0  0  0
    1.4230   17.7636   -3.0807 H   0  0  0  0  0  0  0  0  0  0  0  0
    0.3557   19.2074   -3.1343 H   0  0  0  0  0  0  0  0  0  0  0  0
    2.1406   19.4094   -3.1343 H   0  0  0  0  0  0  0  0  0  0  0  0
    0.0483   19.8396    0.2924 H   0  0  0  0  0  0  0  0  0  0  0  0
    0.2887   20.7925   -1.2112 H   0  0  0  0  0  0  0  0  0  0  0  0
   -0.8197   19.3789   -1.2112 H   0  0  0  0  0  0  0  0  0  0  0  0
    1.7193   15.0494    1.9004 H   0  0  0  0  0  0  0  0  0  0  0  0
    3.2350   14.1555    1.5393 H   0  0  0  0  0  0  0  0  0  0  0  0
    3.2300   15.9518    1.5393 H   0  0  0  0  0  0  0  0  0  0  0  0
    4.2213   14.7225   -1.1448 H   0  0  0  0  0  0  0  0  0  0  0  0
    3.5036   13.2896   -0.2145 H   0  0  0  0  0  0  0  0  0  0  0  0
    2.8209   14.1978   -3.0246 H   0  0  0  0  0  0  0  0  0  0  0  0
    3.6281   12.6688   -2.4978 H   0  0  0  0  0  0  0  0  0  0  0  0
    1.6130   12.0811    0.0161 H   0  0  0  0  0  0  0  0  0  0  0  0
    0.8639   10.9021   -1.1133 H   0  0  0  0  0  0  0  0  0  0  0  0
    2.6445   11.1391   -1.1133 H   0  0  0  0  0  0  0  0  0  0  0  0
  1  2  1  0
  2  3  1  0
  3  4  1  0
  4  5  1  0
  5  6  1  0
  6  7  1  0
  7  8  1  0
  7  9  1  0
  2 10  1  0
 10 11  1  0
 11 12  1  0
 12 13  1  0
 13 14  1  6
 13 15  1  0
 15 16  1  0
 16 17  1  0
 17 18  2  0
 18 19  1  0
 19 20  1  0
 20 21  1  0
 21 22  1  0
 22 23  1  0
 22 24  1  0
 24 25  1  0
 24 26  1  0
 19 27  1  0
 27 28  1  1
 27 29  1  0
 29 30  1  0
 30 31  1  0
 31 32  1  1
  7  5  1  0
 31 10  1  0
 31 13  1  0
 27 15  1  0
 24 18  1  0
  1 33  1  0
  1 34  1  0
  1 35  1  0
  2 36  1  1
  3 37  1  0
  3 38  1  0
  4 39  1  0
  4 40  1  0
  5 41  1  1
  8 42  1  0
  8 43  1  0
  8 44  1  0
  9 45  1  0
  9 46  1  0
  9 47  1  0
 10 48  1  6
 11 49  1  0
 11 50  1  0
 12 51  1  0
 12 52  1  0
 14 53  1  0
 14 54  1  0
 14 55  1  0
 15 56  1  1
 16 57  1  0
 16 58  1  0
 17 59  1  0
 19 60  1  6
 20 61  1  0
 20 62  1  0
 21 63  1  0
 21 64  1  0
 22 65  1  6
 23 66  1  0
 25 67  1  0
 25 68  1  0
 25 69  1  0
 26 70  1  0
 26 71  1  0
 26 72  1  0
 28 73  1  0
 28 74  1  0
 28 75  1  0
 29 76  1  0
 29 77  1  0
 30 78  1  0
 30 79  1  0
 32 80  1  0
 32 81  1  0
 32 82  1  0
M  END
>  <meeko>  (16) 
{"is_sidechain": [false], "intermolecular_energy": 2.731, "internal_energy": -0.839}

$$$$
EPH_relaxed_0001_pdb2pqr_Repair_49_r2_0001_out
     RDKit          3D

 82 86  0  0  0  0  0  0  0  0999 V2000
    3.4120   18.4450   -3.3400 C   0  0  0  0  0  0  0  0  0  0  0  0
    2.3710   18.1670   -2.2510 C   0  0  2  0  0  0  0  0  0  0  0  0
    2.4270   19.2080   -1.1150 C   0  0  0  0  0  0  0  0  0  0  0  0
    2.3540   18.5940    0.2860 C   0  0  0  0  0  0  0  0  0  0  0  0
    2.7320   19.5850    1.3450 C   0  0  2  0  0  0  0  0  0  0  0  0
    4.0170   20.1940    1.1640 O   0  0  0  0  0  0  0  0  0  0  0  0
    3.8660   19.3660    2.3290 C   0  0  0  0  0  0  0  0  0  0  0  0
    4.6930   18.1190    2.3010 C   0  0  0  0  0  0  0  0  0  0  0  0
    3.8550   20.1320    3.6150 C   0  0  0  0  0  0  0  0  0  0  0  0
    2.5730   16.7660   -1.6850 C   0  0  1  0  0  0  0  0  0  0  0  0
    3.2020   16.7810   -0.2660 C   0  0  0  0  0  0  0  0  0  0  0  0
    2.5780   15.5930    0.5110 C   0  0  0  0  0  0  0  0  0  0  0  0
    1.8730   14.7450   -0.5730 C   0  0  1  0  0  0  0  0  0  0  0  0
    3.0090   13.8900   -1.2160 C   0  0  0  0  0  0  0  0  0  0  0  0
    0.6840   13.8520   -0.0860 C   0  0  2  0  0  0  0  0  0  0  0  0
    1.0610   12.7620    0.9320 C   0  0  0  0  0  0  0  0  0  0  0  0
    1.4420   11.4440    0.3440 C   0  0  0  0  0  0  0  0  0  0  0  0
    1.2100   11.0570   -0.9240 C   0  0  0  0  0  0  0  0  0  0  0  0
    0.4130   11.9470   -1.8860 C   0  0  1  0  0  0  0  0  0  0  0  0
   -0.6430   11.0890   -2.6310 C   0  0  0  0  0  0  0  0  0  0  0  0
   -0.0270    9.8800   -3.3290 C   0  0  0  0  0  0  0  0  0  0  0  0
    0.7070    8.9890   -2.3310 C   0  0  2  0  0  0  0  0  0  0  0  0
   -0.2510    8.4100   -1.4390 O   0  0  0  0  0  0  0  0  0  0  0  0
    1.7900    9.7480   -1.5130 C   0  0  0  0  0  0  0  0  0  0  0  0
    2.9770   10.1140   -2.4370 C   0  0  0  0  0  0  0  0  0  0  0  0
    2.3550    8.7700   -0.4470 C   0  0  0  0  0  0  0  0  0  0  0  0
   -0.2080   13.2680   -1.2550 C   0  0  1  0  0  0  0  0  0  0  0  0
   -1.6040   12.9550   -0.6360 C   0  0  0  0  0  0  0  0  0  0  0  0
   -0.4550   14.3180   -2.4020 C   0  0  0  0  0  0  0  0  0  0  0  0
    0.7190   15.2510   -2.7550 C   0  0  0  0  0  0  0  0  0  0  0  0
    1.3110   15.8880   -1.4940 C   0  0  2  0  0  0  0  0  0  0  0  0
    0.1970   16.7720   -0.8360 C   0  0  0  0  0  0  0  0  0  0  0  0
    4.3734   18.7017   -2.8712 H   0  0  0  0  0  0  0  0  0  0  0  0
    3.5368   17.5487   -3.9654 H   0  0  0  0  0  0  0  0  0  0  0  0
    3.0733   19.2842   -3.9654 H   0  0  0  0  0  0  0  0  0  0  0  0
    1.3770   18.2401   -2.7164 H   0  0  0  0  0  0  0  0  0  0  0  0
    3.3712   19.7657   -1.2011 H   0  0  0  0  0  0  0  0  0  0  0  0
    1.5454   19.8559   -1.2286 H   0  0  0  0  0  0  0  0  0  0  0  0
    1.3260   18.2489    0.4711 H   0  0  0  0  0  0  0  0  0  0  0  0
    3.0648   17.7557    0.3309 H   0  0  0  0  0  0  0  0  0  0  0  0
    1.6795   19.8729    1.4844 H   0  0  0  0  0  0  0  0  0  0  0  0
    4.9063   17.7973    3.3310 H   0  0  0  0  0  0  0  0  0  0  0  0
    4.1418   17.3252    1.7757 H   0  0  0  0  0  0  0  0  0  0  0  0
    5.6388   18.3180    1.7757 H   0  0  0  0  0  0  0  0  0  0  0  0
    3.8651   19.4287    4.4608 H   0  0  0  0  0  0  0  0  0  0  0  0
    4.7440   20.7780    3.6646 H   0  0  0  0  0  0  0  0  0  0  0  0
    2.9479   20.7522    3.6646 H   0  0  0  0  0  0  0  0  0  0  0  0
    3.2126   16.3388   -2.4713 H   0  0  0  0  0  0  0  0  0  0  0  0
    4.2930   16.6584   -0.3337 H   0  0  0  0  0  0  0  0  0  0  0  0
    3.0039   17.7351    0.2444 H   0  0  0  0  0  0  0  0  0  0  0  0
    3.3593   15.0060    1.0159 H   0  0  0  0  0  0  0  0  0  0  0  0
    1.8838   15.9268    1.2963 H   0  0  0  0  0  0  0  0  0  0  0  0
    3.6174   13.4321   -0.4221 H   0  0  0  0  0  0  0  0  0  0  0  0
    2.5651   13.1000   -1.8396 H   0  0  0  0  0  0  0  0  0  0  0  0
    3.6453   14.5352   -1.8396 H   0  0  0  0  0  0  0  0  0  0  0  0
    0.0588   14.5705    0.4644 H   0  0  0  0  0  0  0  0  0  0  0  0
    1.9128   13.1293    1.5233 H   0  0  0  0  0  0  0  0  0  0  0  0
    0.1560   12.5781    1.5297 H   0  0  0  0  0  0  0  0  0  0  0  0
    1.9559   10.7285    1.0028 H   0  0  0  0  0  0  0  0  0  0  0  0
    1.1427   12.3473   -2.6052 H   0  0  0  0  0  0  0  0  0  0  0  0
   -1.3870   10.7345   -1.9025 H   0  0  0  0  0  0  0  0  0  0  0  0
   -1.1032   11.7223   -3.4037 H   0  0  0  0  0  0  0  0  0  0  0  0
   -0.8256    9.2977   -3.8119 H   0  0  0  0  0  0  0  0  0  0  0  0
    0.6953   10.2374   -4.0777 H   0  0  0  0  0  0  0  0  0  0  0  0
    1.2342    8.2137   -2.9063 H   0  0  0  0  0  0  0  0  0  0  0  0
   -0.0020    7.4790   -1.3050 H   0  0  0  0  0  0  0  0  0  0  0  0
    3.8496   10.3831   -1.8237 H   0  0  0  0  0  0  0  0  0  0  0  0
    3.2270    9.2512   -3.0719 H   0  0  0  0  0  0  0  0  0  0  0  0
    2.6977   10.9678   -3.0719 H   0  0  0  0  0  0  0  0  0  0  0  0
    2.1323    9.1555    0.5589 H   0  0  0  0  0  0  0  0  0  0  0  0
    1.8887    7.7816   -0.5724 H   0  0  0  0  0  0  0  0  0  0  0  0
    3.4441    8.6802   -0.5724 H   0  0  0  0  0  0  0  0  0  0  0  0
   -1.5305   12.9715    0.4614 H   0  0  0  0  0  0  0  0  0  0  0  0
   -2.3298   13.7127   -0.9663 H   0  0  0  0  0  0  0  0  0  0  0  0
   -1.9368   11.9599   -0.9663 H   0  0  0  0  0  0  0  0  0  0  0  0
   -0.7218   13.7602   -3.3118 H   0  0  0  0  0  0  0  0  0  0  0  0
   -1.2446   14.9814   -2.0194 H   0  0  0  0  0  0  0  0  0  0  0  0
    1.5006   14.6688   -3.2650 H   0  0  0  0  0  0  0  0  0  0  0  0
    0.3460   16.0517   -3.4106 H   0  0  0  0  0  0  0  0  0  0  0  0
    0.2775   16.7081    0.2592 H   0  0  0  0  0  0  0  0  0  0  0  0
    0.3240   17.8178   -1.1526 H   0  0  0  0  0  0  0  0  0  0  0  0
   -0.7925   16.4107   -1.1526 H   0  0  0  0  0  0  0  0  0  0  0  0
  1  2  1  0
  2  3  1  0
  3  4  1  0
  4  5  1  0
  5  6  1  0
  6  7  1  0
  7  8  1  0
  7  9  1  0
  2 10  1  0
 10 11  1  0
 11 12  1  0
 12 13  1  0
 13 14  1  6
 13 15  1  0
 15 16  1  0
 16 17  1  0
 17 18  2  0
 18 19  1  0
 19 20  1  0
 20 21  1  0
 21 22  1  0
 22 23  1  0
 22 24  1  0
 24 25  1  0
 24 26  1  0
 19 27  1  0
 27 28  1  1
 27 29  1  0
 29 30  1  0
 30 31  1  0
 31 32  1  1
  7  5  1  0
 31 10  1  0
 31 13  1  0
 27 15  1  0
 24 18  1  0
  1 33  1  0
  1 34  1  0
  1 35  1  0
  2 36  1  6
  3 37  1  0
  3 38  1  0
  4 39  1  0
  4 40  1  0
  5 41  1  1
  8 42  1  0
  8 43  1  0
  8 44  1  0
  9 45  1  0
  9 46  1  0
  9 47  1  0
 10 48  1  6
 11 49  1  0
 11 50  1  0
 12 51  1  0
 12 52  1  0
 14 53  1  0
 14 54  1  0
 14 55  1  0
 15 56  1  1
 16 57  1  0
 16 58  1  0
 17 59  1  0
 19 60  1  6
 20 61  1  0
 20 62  1  0
 21 63  1  0
 21 64  1  0
 22 65  1  6
 23 66  1  0
 25 67  1  0
 25 68  1  0
 25 69  1  0
 26 70  1  0
 26 71  1  0
 26 72  1  0
 28 73  1  0
 28 74  1  0
 28 75  1  0
 29 76  1  0
 29 77  1  0
 30 78  1  0
 30 79  1  0
 32 80  1  0
 32 81  1  0
 32 82  1  0
M  END
>  <meeko>  (17) 
{"is_sidechain": [false], "intermolecular_energy": 2.731, "internal_energy": -0.839}

$$$$
EPH_relaxed_0001_pdb2pqr_Repair_49_r2_0001_out
     RDKit          3D

 82 86  0  0  0  0  0  0  0  0999 V2000
    0.2970   17.7520   -2.5830 C   0  0  0  0  0  0  0  0  0  0  0  0
   -0.0060   16.8660   -1.3710 C   0  0  2  0  0  0  0  0  0  0  0  0
   -0.0580   17.6740   -0.0600 C   0  0  0  0  0  0  0  0  0  0  0  0
    0.5380   19.0800   -0.1790 C   0  0  0  0  0  0  0  0  0  0  0  0
    1.6680   19.2860    0.7840 C   0  0  2  0  0  0  0  0  0  0  0  0
    2.6810   20.1950    0.3330 O   0  0  0  0  0  0  0  0  0  0  0  0
    3.0900   18.8290    0.5160 C   0  0  0  0  0  0  0  0  0  0  0  0
    3.4580   18.1280   -0.7540 C   0  0  0  0  0  0  0  0  0  0  0  0
    4.0070   18.6270    1.6810 C   0  0  0  0  0  0  0  0  0  0  0  0
    1.0390   15.7620   -1.2620 C   0  0  1  0  0  0  0  0  0  0  0  0
    1.1390   15.1740    0.1710 C   0  0  0  0  0  0  0  0  0  0  0  0
    1.4520   13.6630    0.0140 C   0  0  0  0  0  0  0  0  0  0  0  0
    1.8490   13.5000   -1.4720 C   0  0  1  0  0  0  0  0  0  0  0  0
    3.3430   13.9460   -1.5400 C   0  0  0  0  0  0  0  0  0  0  0  0
    1.6420   12.0790   -2.0890 C   0  0  2  0  0  0  0  0  0  0  0  0
    2.4770   10.9590   -1.4440 C   0  0  0  0  0  0  0  0  0  0  0  0
    3.8160   10.7240   -2.0610 C   0  0  0  0  0  0  0  0  0  0  0  0
    4.2150   11.1850   -3.2610 C   0  0  0  0  0  0  0  0  0  0  0  0
    3.2460   11.9450   -4.1750 C   0  0  1  0  0  0  0  0  0  0  0  0
    3.3540   11.3900   -5.6200 C   0  0  0  0  0  0  0  0  0  0  0  0
    4.7860   11.4050   -6.1470 C   0  0  0  0  0  0  0  0  0  0  0  0
    5.7080   10.5910   -5.2430 C   0  0  2  0  0  0  0  0  0  0  0  0
    5.3350    9.2120   -5.3260 O   0  0  0  0  0  0  0  0  0  0  0  0
    5.6750   11.0520   -3.7590 C   0  0  0  0  0  0  0  0  0  0  0  0
    6.3600   12.4350   -3.6290 C   0  0  0  0  0  0  0  0  0  0  0  0
    6.5380   10.0610   -2.9320 C   0  0  0  0  0  0  0  0  0  0  0  0
    1.7420   12.0370   -3.6680 C   0  0  1  0  0  0  0  0  0  0  0  0
    0.9460   10.7790   -4.1320 C   0  0  0  0  0  0  0  0  0  0  0  0
    1.0470   13.2770   -4.3450 C   0  0  0  0  0  0  0  0  0  0  0  0
    1.1870   14.6310   -3.6230 C   0  0  0  0  0  0  0  0  0  0  0  0
    0.8360   14.5000   -2.1380 C   0  0  2  0  0  0  0  0  0  0  0  0
   -0.6680   14.0740   -2.0380 C   0  0  0  0  0  0  0  0  0  0  0  0
    0.6351   18.7406   -2.2391 H   0  0  0  0  0  0  0  0  0  0  0  0
    1.0866   17.2852   -3.1902 H   0  0  0  0  0  0  0  0  0  0  0  0
   -0.6131   17.8665   -3.1902 H   0  0  0  0  0  0  0  0  0  0  0  0
   -1.0010   16.4228   -1.5244 H   0  0  0  0  0  0  0  0  0  0  0  0
   -1.1096   17.7676    0.2487 H   0  0  0  0  0  0  0  0  0  0  0  0
    0.5492   17.1289    0.6777 H   0  0  0  0  0  0  0  0  0  0  0  0
    0.9120   19.2232   -1.2035 H   0  0  0  0  0  0  0  0  0  0  0  0
   -0.2515   19.8085    0.0576 H   0  0  0  0  0  0  0  0  0  0  0  0
    0.9950   19.1382    1.6415 H   0  0  0  0  0  0  0  0  0  0  0  0
    3.9572   17.1770   -0.5165 H   0  0  0  0  0  0  0  0  0  0  0  0
    2.5484   17.9284   -1.3395 H   0  0  0  0  0  0  0  0  0  0  0  0
    4.1389   18.7633   -1.3395 H   0  0  0  0  0  0  0  0  0  0  0  0
    3.4431   18.7512    2.6173 H   0  0  0  0  0  0  0  0  0  0  0  0
    4.4328   17.6135    1.6411 H   0  0  0  0  0  0  0  0  0  0  0  0
    4.8192   19.3678    1.6411 H   0  0  0  0  0  0  0  0  0  0  0  0
    1.9273   16.3156   -1.6002 H   0  0  0  0  0  0  0  0  0  0  0  0
    1.9455   15.6719    0.7293 H   0  0  0  0  0  0  0  0  0  0  0  0
    0.2024   15.3276    0.7271 H   0  0  0  0  0  0  0  0  0  0  0  0
    2.2822   13.3678    0.6725 H   0  0  0  0  0  0  0  0  0  0  0  0
    0.5967   13.0286    0.2896 H   0  0  0  0  0  0  0  0  0  0  0  0
    3.7373   14.0637   -0.5199 H   0  0  0  0  0  0  0  0  0  0  0  0
    3.9293   13.1837   -2.0740 H   0  0  0  0  0  0  0  0  0  0  0  0
    3.4154   14.9049   -2.0740 H   0  0  0  0  0  0  0  0  0  0  0  0
    0.5960   11.8597   -1.8287 H   0  0  0  0  0  0  0  0  0  0  0  0
    2.6312   11.2168   -0.3858 H   0  0  0  0  0  0  0  0  0  0  0  0
    1.9066   10.0304   -1.5935 H   0  0  0  0  0  0  0  0  0  0  0  0
    4.5370   10.1237   -1.4867 H   0  0  0  0  0  0  0  0  0  0  0  0
    3.5692   12.9962   -4.1534 H   0  0  0  0  0  0  0  0  0  0  0  0
    2.9861   10.3534   -5.6280 H   0  0  0  0  0  0  0  0  0  0  0  0
    2.7512   12.0385   -6.2727 H   0  0  0  0  0  0  0  0  0  0  0  0
    4.8018   10.9742   -7.1590 H   0  0  0  0  0  0  0  0  0  0  0  0
    5.1423   12.4455   -6.1666 H   0  0  0  0  0  0  0  0  0  0  0  0
    6.7378   10.7465   -5.5970 H   0  0  0  0  0  0  0  0  0  0  0  0
    6.0050    8.6960   -4.8470 H   0  0  0  0  0  0  0  0  0  0  0  0
    6.4835   12.6844   -2.5648 H   0  0  0  0  0  0  0  0  0  0  0  0
    7.3463   12.4028   -4.1149 H   0  0  0  0  0  0  0  0  0  0  0  0
    5.7367   13.2001   -4.1149 H   0  0  0  0  0  0  0  0  0  0  0  0
    6.3790   10.2435   -1.8590 H   0  0  0  0  0  0  0  0  0  0  0  0
    6.2459    9.0289   -3.1756 H   0  0  0  0  0  0  0  0  0  0  0  0
    7.6005   10.2085   -3.1756 H   0  0  0  0  0  0  0  0  0  0  0  0
    0.5938   10.2224   -3.2510 H   0  0  0  0  0  0  0  0  0  0  0  0
    0.0824   11.0938   -4.7362 H   0  0  0  0  0  0  0  0  0  0  0  0
    1.6003   10.1333   -4.7362 H   0  0  0  0  0  0  0  0  0  0  0  0
    1.4759   13.3905   -5.3516 H   0  0  0  0  0  0  0  0  0  0  0  0
   -0.0292   13.0501   -4.3258 H   0  0  0  0  0  0  0  0  0  0  0  0
    2.2247   14.9835   -3.7176 H   0  0  0  0  0  0  0  0  0  0  0  0
    0.4927   15.3481   -4.0853 H   0  0  0  0  0  0  0  0  0  0  0  0
   -0.9564   13.9923   -0.9796 H   0  0  0  0  0  0  0  0  0  0  0  0
   -1.2967   14.8294   -2.5321 H   0  0  0  0  0  0  0  0  0  0  0  0
   -0.8072   13.1011   -2.5321 H   0  0  0  0  0  0  0  0  0  0  0  0
  1  2  1  0
  2  3  1  0
  3  4  1  0
  4  5  1  0
  5  6  1  0
  6  7  1  0
  7  8  1  0
  7  9  1  0
  2 10  1  0
 10 11  1  0
 11 12  1  0
 12 13  1  0
 13 14  1  1
 13 15  1  0
 15 16  1  0
 16 17  1  0
 17 18  2  0
 18 19  1  0
 19 20  1  0
 20 21  1  0
 21 22  1  0
 22 23  1  0
 22 24  1  0
 24 25  1  0
 24 26  1  0
 19 27  1  0
 27 28  1  6
 27 29  1  0
 29 30  1  0
 30 31  1  0
 31 32  1  6
  7  5  1  0
 31 10  1  0
 31 13  1  0
 27 15  1  0
 24 18  1  0
  1 33  1  0
  1 34  1  0
  1 35  1  0
  2 36  1  6
  3 37  1  0
  3 38  1  0
  4 39  1  0
  4 40  1  0
  5 41  1  1
  8 42  1  0
  8 43  1  0
  8 44  1  0
  9 45  1  0
  9 46  1  0
  9 47  1  0
 10 48  1  6
 11 49  1  0
 11 50  1  0
 12 51  1  0
 12 52  1  0
 14 53  1  0
 14 54  1  0
 14 55  1  0
 15 56  1  6
 16 57  1  0
 16 58  1  0
 17 59  1  0
 19 60  1  6
 20 61  1  0
 20 62  1  0
 21 63  1  0
 21 64  1  0
 22 65  1  6
 23 66  1  0
 25 67  1  0
 25 68  1  0
 25 69  1  0
 26 70  1  0
 26 71  1  0
 26 72  1  0
 28 73  1  0
 28 74  1  0
 28 75  1  0
 29 76  1  0
 29 77  1  0
 30 78  1  0
 30 79  1  0
 32 80  1  0
 32 81  1  0
 32 82  1  0
M  END
>  <meeko>  (18) 
{"is_sidechain": [false], "intermolecular_energy": 2.731, "internal_energy": -0.839}

$$$$
EPH_relaxed_0001_pdb2pqr_Repair_49_r2_0001_out
     RDKit          3D

 82 86  0  0  0  0  0  0  0  0999 V2000
    2.3840   17.9380   -2.6910 C   0  0  0  0  0  0  0  0  0  0  0  0
    1.0680   17.5820   -1.9930 C   0  0  2  0  0  0  0  0  0  0  0  0
    1.1880   17.6480   -0.4580 C   0  0  0  0  0  0  0  0  0  0  0  0
    0.9000   19.0350    0.1230 C   0  0  0  0  0  0  0  0  0  0  0  0
   -0.5250   19.1640    0.5700 C   0  0  2  0  0  0  0  0  0  0  0  0
   -1.4320   18.2420   -0.0490 O   0  0  0  0  0  0  0  0  0  0  0  0
   -1.6470   19.6340   -0.3370 C   0  0  0  0  0  0  0  0  0  0  0  0
   -1.3930   20.0060   -1.7640 C   0  0  0  0  0  0  0  0  0  0  0  0
   -2.8850   20.1950    0.2890 C   0  0  0  0  0  0  0  0  0  0  0  0
    0.6130   16.1920   -2.4210 C   0  0  1  0  0  0  0  0  0  0  0  0
    0.6920   15.9830   -3.9570 C   0  0  0  0  0  0  0  0  0  0  0  0
    1.0870   14.5010   -4.1870 C   0  0  0  0  0  0  0  0  0  0  0  0
    0.8980   13.8290   -2.8070 C   0  0  1  0  0  0  0  0  0  0  0  0
   -0.6320   13.5370   -2.7100 C   0  0  0  0  0  0  0  0  0  0  0  0
    1.7490   12.5440   -2.5420 C   0  0  2  0  0  0  0  0  0  0  0  0
    1.4550   11.3610   -3.4820 C   0  0  0  0  0  0  0  0  0  0  0  0
    0.3980   10.4190   -3.0100 C   0  0  0  0  0  0  0  0  0  0  0  0
   -0.0870   10.3520   -1.7560 C   0  0  0  0  0  0  0  0  0  0  0  0
    0.5030   11.2190   -0.6360 C   0  0  1  0  0  0  0  0  0  0  0  0
    0.7410   10.3460    0.6240 C   0  0  0  0  0  0  0  0  0  0  0  0
   -0.5140    9.5990    1.0640 C   0  0  0  0  0  0  0  0  0  0  0  0
   -1.0370    8.7040   -0.0560 C   0  0  2  0  0  0  0  0  0  0  0  0
   -0.0900    7.6570   -0.2900 O   0  0  0  0  0  0  0  0  0  0  0  0
   -1.3050    9.4730   -1.3800 C   0  0  0  0  0  0  0  0  0  0  0  0
   -2.5360   10.3960   -1.2060 C   0  0  0  0  0  0  0  0  0  0  0  0
   -1.6930    8.4330   -2.4660 C   0  0  0  0  0  0  0  0  0  0  0  0
    1.7760   12.0850   -1.0280 C   0  0  1  0  0  0  0  0  0  0  0  0
    3.0730   11.2390   -0.8430 C   0  0  0  0  0  0  0  0  0  0  0  0
    1.8950   13.3030   -0.0360 C   0  0  0  0  0  0  0  0  0  0  0  0
    1.1270   14.5840   -0.4140 C   0  0  0  0  0  0  0  0  0  0  0  0
    1.4060   14.9820   -1.8670 C   0  0  2  0  0  0  0  0  0  0  0  0
    2.9340   15.3030   -1.9900 C   0  0  0  0  0  0  0  0  0  0  0  0
    3.1553   18.1466   -1.9350 H   0  0  0  0  0  0  0  0  0  0  0  0
    2.7055   17.0945   -3.3197 H   0  0  0  0  0  0  0  0  0  0  0  0
    2.2364   18.8285   -3.3197 H   0  0  0  0  0  0  0  0  0  0  0  0
    0.3195   18.3285   -2.2971 H   0  0  0  0  0  0  0  0  0  0  0  0
    0.4733   16.9340   -0.0228 H   0  0  0  0  0  0  0  0  0  0  0  0
    2.2308   17.4044   -0.2064 H   0  0  0  0  0  0  0  0  0  0  0  0
    1.5610   19.2043    0.9858 H   0  0  0  0  0  0  0  0  0  0  0  0
    1.0811   19.7811   -0.6648 H   0  0  0  0  0  0  0  0  0  0  0  0
   -0.2064   19.4811    1.5739 H   0  0  0  0  0  0  0  0  0  0  0  0
   -0.7731   20.9139   -1.8015 H   0  0  0  0  0  0  0  0  0  0  0  0
   -0.8679   19.1823   -2.2698 H   0  0  0  0  0  0  0  0  0  0  0  0
   -2.3513   20.1952   -2.2698 H   0  0  0  0  0  0  0  0  0  0  0  0
   -2.7932   20.1534    1.3844 H   0  0  0  0  0  0  0  0  0  0  0  0
   -3.0152   21.2401   -0.0286 H   0  0  0  0  0  0  0  0  0  0  0  0
   -3.7566   19.6039   -0.0286 H   0  0  0  0  0  0  0  0  0  0  0  0
   -0.4056   16.1963   -2.0058 H   0  0  0  0  0  0  0  0  0  0  0  0
   -0.2848   16.1907   -4.4183 H   0  0  0  0  0  0  0  0  0  0  0  0
    1.4280   16.6630   -4.4109 H   0  0  0  0  0  0  0  0  0  0  0  0
    0.4315   14.0364   -4.9383 H   0  0  0  0  0  0  0  0  0  0  0  0
    2.1148   14.3967   -4.5648 H   0  0  0  0  0  0  0  0  0  0  0  0
   -0.9281   13.4805   -1.6521 H   0  0  0  0  0  0  0  0  0  0  0  0
   -1.1915   14.3446   -3.2048 H   0  0  0  0  0  0  0  0  0  0  0  0
   -0.8548   12.5801   -3.2048 H   0  0  0  0  0  0  0  0  0  0  0  0
    2.7662   12.8796   -2.7924 H   0  0  0  0  0  0  0  0  0  0  0  0
    1.1376   11.7691   -4.4529 H   0  0  0  0  0  0  0  0  0  0  0  0
    2.3843   10.7747   -3.5330 H   0  0  0  0  0  0  0  0  0  0  0  0
   -0.0202    9.7202   -3.7495 H   0  0  0  0  0  0  0  0  0  0  0  0
   -0.2511   11.9898   -0.4185 H   0  0  0  0  0  0  0  0  0  0  0  0
    1.5284    9.6112    0.4002 H   0  0  0  0  0  0  0  0  0  0  0  0
    1.0348   11.0172    1.4445 H   0  0  0  0  0  0  0  0  0  0  0  0
   -0.2746    8.9774    1.9394 H   0  0  0  0  0  0  0  0  0  0  0  0
   -1.2908   10.3359    1.3162 H   0  0  0  0  0  0  0  0  0  0  0  0
   -2.0052    8.2973    0.2714 H   0  0  0  0  0  0  0  0  0  0  0  0
   -0.3790    7.1700   -1.0810 H   0  0  0  0  0  0  0  0  0  0  0  0
   -2.7343   10.5447   -0.1343 H   0  0  0  0  0  0  0  0  0  0  0  0
   -2.3353   11.3681   -1.6801 H   0  0  0  0  0  0  0  0  0  0  0  0
   -3.4129    9.9309   -1.6801 H   0  0  0  0  0  0  0  0  0  0  0  0
   -2.0381    7.5079   -1.9811 H   0  0  0  0  0  0  0  0  0  0  0  0
   -2.4993    8.8411   -3.0931 H   0  0  0  0  0  0  0  0  0  0  0  0
   -0.8164    8.2133   -3.0931 H   0  0  0  0  0  0  0  0  0  0  0  0
    3.2749   11.1073    0.2303 H   0  0  0  0  0  0  0  0  0  0  0  0
    2.9388   10.2542   -1.3144 H   0  0  0  0  0  0  0  0  0  0  0  0
    3.9201   11.7587   -1.3144 H   0  0  0  0  0  0  0  0  0  0  0  0
    1.5252   12.9705    0.9452 H   0  0  0  0  0  0  0  0  0  0  0  0
    2.9573   13.5877   -0.0557 H   0  0  0  0  0  0  0  0  0  0  0  0
    0.0485   14.4067   -0.2902 H   0  0  0  0  0  0  0  0  0  0  0  0
    1.4610   15.4001    0.2436 H   0  0  0  0  0  0  0  0  0  0  0  0
    3.3714   15.3949   -0.9849 H   0  0  0  0  0  0  0  0  0  0  0  0
    3.4365   14.4908   -2.5357 H   0  0  0  0  0  0  0  0  0  0  0  0
    3.0672   16.2487   -2.5357 H   0  0  0  0  0  0  0  0  0  0  0  0
  1  2  1  0
  2  3  1  0
  3  4  1  0
  4  5  1  0
  5  6  1  0
  6  7  1  0
  7  8  1  0
  7  9  1  0
  2 10  1  0
 10 11  1  0
 11 12  1  0
 12 13  1  0
 13 14  1  1
 13 15  1  0
 15 16  1  0
 16 17  1  0
 17 18  2  0
 18 19  1  0
 19 20  1  0
 20 21  1  0
 21 22  1  0
 22 23  1  0
 22 24  1  0
 24 25  1  0
 24 26  1  0
 19 27  1  0
 27 28  1  6
 27 29  1  0
 29 30  1  0
 30 31  1  0
 31 32  1  1
  7  5  1  0
 31 10  1  0
 31 13  1  0
 27 15  1  0
 24 18  1  0
  1 33  1  0
  1 34  1  0
  1 35  1  0
  2 36  1  6
  3 37  1  0
  3 38  1  0
  4 39  1  0
  4 40  1  0
  5 41  1  1
  8 42  1  0
  8 43  1  0
  8 44  1  0
  9 45  1  0
  9 46  1  0
  9 47  1  0
 10 48  1  1
 11 49  1  0
 11 50  1  0
 12 51  1  0
 12 52  1  0
 14 53  1  0
 14 54  1  0
 14 55  1  0
 15 56  1  6
 16 57  1  0
 16 58  1  0
 17 59  1  0
 19 60  1  1
 20 61  1  0
 20 62  1  0
 21 63  1  0
 21 64  1  0
 22 65  1  1
 23 66  1  0
 25 67  1  0
 25 68  1  0
 25 69  1  0
 26 70  1  0
 26 71  1  0
 26 72  1  0
 28 73  1  0
 28 74  1  0
 28 75  1  0
 29 76  1  0
 29 77  1  0
 30 78  1  0
 30 79  1  0
 32 80  1  0
 32 81  1  0
 32 82  1  0
M  END
>  <meeko>  (19) 
{"is_sidechain": [false], "intermolecular_energy": 2.731, "internal_energy": -0.839}

$$$$
