EPH_relaxed_0001_pdb2pqr_Repair_277_r2_0001_out
     RDKit          3D

 82 86  0  0  0  0  0  0  0  0999 V2000
   -1.5880    8.5680   -1.8100 C   0  0  0  0  0  0  0  0  0  0  0  0
   -2.0020    9.1480   -0.4540 C   0  0  2  0  0  0  0  0  0  0  0  0
   -3.4920    9.5430   -0.4210 C   0  0  0  0  0  0  0  0  0  0  0  0
   -4.4430    8.3500   -0.2980 C   0  0  0  0  0  0  0  0  0  0  0  0
   -5.0750    8.0060   -1.6130 C   0  0  2  0  0  0  0  0  0  0  0  0
   -6.3400    8.6370   -1.8510 O   0  0  0  0  0  0  0  0  0  0  0  0
   -6.3570    7.2040   -1.7400 C   0  0  0  0  0  0  0  0  0  0  0  0
   -7.0820    6.6950   -0.5340 C   0  0  0  0  0  0  0  0  0  0  0  0
   -6.6360    6.5030   -3.0330 C   0  0  0  0  0  0  0  0  0  0  0  0
   -1.1350   10.3560   -0.1190 C   0  0  1  0  0  0  0  0  0  0  0  0
   -0.0650   10.0430    0.9610 C   0  0  0  0  0  0  0  0  0  0  0  0
    1.1910   10.8780    0.6030 C   0  0  0  0  0  0  0  0  0  0  0  0
    0.6980   11.8840   -0.4630 C   0  0  1  0  0  0  0  0  0  0  0  0
    0.0150   13.0280    0.3500 C   0  0  0  0  0  0  0  0  0  0  0  0
    1.7840   12.4410   -1.4420 C   0  0  2  0  0  0  0  0  0  0  0  0
    2.9070   13.2540   -0.7750 C   0  0  0  0  0  0  0  0  0  0  0  0
    2.6550   14.7210   -0.6680 C   0  0  0  0  0  0  0  0  0  0  0  0
    1.7070   15.4030   -1.3370 C   0  0  0  0  0  0  0  0  0  0  0  0
    0.8290   14.7080   -2.3850 C   0  0  1  0  0  0  0  0  0  0  0  0
    0.7550   15.5840   -3.6630 C   0  0  0  0  0  0  0  0  0  0  0  0
    0.2970   17.0090   -3.3700 C   0  0  0  0  0  0  0  0  0  0  0  0
    1.2280   17.6870   -2.3680 C   0  0  2  0  0  0  0  0  0  0  0  0
    2.5090   17.8660   -2.9790 O   0  0  0  0  0  0  0  0  0  0  0  0
    1.3880   16.8900   -1.0430 C   0  0  0  0  0  0  0  0  0  0  0  0
    0.0680   16.9530   -0.2360 C   0  0  0  0  0  0  0  0  0  0  0  0
    2.4600   17.6080   -0.1800 C   0  0  0  0  0  0  0  0  0  0  0  0
    1.1950   13.1940   -2.7030 C   0  0  1  0  0  0  0  0  0  0  0  0
    2.2910   13.1330   -3.8100 C   0  0  0  0  0  0  0  0  0  0  0  0
   -0.0730   12.4710   -3.2930 C   0  0  0  0  0  0  0  0  0  0  0  0
   -1.0460   11.8380   -2.2810 C   0  0  0  0  0  0  0  0  0  0  0  0
   -0.2950   10.9690   -1.2680 C   0  0  2  0  0  0  0  0  0  0  0  0
    0.3850    9.7970   -2.0540 C   0  0  0  0  0  0  0  0  0  0  0  0
   -0.9555    7.6820   -1.6521 H   0  0  0  0  0  0  0  0  0  0  0  0
   -2.4866    8.2810   -2.3758 H   0  0  0  0  0  0  0  0  0  0  0  0
   -1.0246    9.3246   -2.3758 H   0  0  0  0  0  0  0  0  0  0  0  0
   -1.8527    8.3622    0.3012 H   0  0  0  0  0  0  0  0  0  0  0  0
   -3.6559   10.2078    0.4399 H   0  0  0  0  0  0  0  0  0  0  0  0
   -3.7153   10.0342   -1.3796 H   0  0  0  0  0  0  0  0  0  0  0  0
   -3.8771    7.4790    0.0641 H   0  0  0  0  0  0  0  0  0  0  0  0
   -5.2433    8.6211    0.4063 H   0  0  0  0  0  0  0  0  0  0  0  0
   -4.0882    7.8993   -2.0873 H   0  0  0  0  0  0  0  0  0  0  0  0
   -6.5756    7.0506    0.3755 H   0  0  0  0  0  0  0  0  0  0  0  0
   -8.1178    7.0652   -0.5455 H   0  0  0  0  0  0  0  0  0  0  0  0
   -7.0856    5.5951   -0.5455 H   0  0  0  0  0  0  0  0  0  0  0  0
   -7.0356    5.4991   -2.8270 H   0  0  0  0  0  0  0  0  0  0  0  0
   -7.3732    7.0796   -3.6110 H   0  0  0  0  0  0  0  0  0  0  0  0
   -5.7042    6.4153   -3.6110 H   0  0  0  0  0  0  0  0  0  0  0  0
   -1.9174   11.0629    0.1944 H   0  0  0  0  0  0  0  0  0  0  0  0
   -0.4374   10.3270    1.9563 H   0  0  0  0  0  0  0  0  0  0  0  0
    0.1692    8.9685    0.9846 H   0  0  0  0  0  0  0  0  0  0  0  0
    1.5718   11.4065    1.4894 H   0  0  0  0  0  0  0  0  0  0  0  0
    2.0179   10.2523    0.2360 H   0  0  0  0  0  0  0  0  0  0  0  0
    0.1315   12.8329    1.4263 H   0  0  0  0  0  0  0  0  0  0  0  0
    0.4873   13.9891    0.0983 H   0  0  0  0  0  0  0  0  0  0  0  0
   -1.0551   13.0683    0.0983 H   0  0  0  0  0  0  0  0  0  0  0  0
    2.2608   11.5221   -1.8139 H   0  0  0  0  0  0  0  0  0  0  0  0
    3.0546   12.8595    0.2412 H   0  0  0  0  0  0  0  0  0  0  0  0
    3.7889   13.1433   -1.4231 H   0  0  0  0  0  0  0  0  0  0  0  0
    3.2988   15.2936    0.0158 H   0  0  0  0  0  0  0  0  0  0  0  0
   -0.1706   14.6212   -1.9341 H   0  0  0  0  0  0  0  0  0  0  0  0
    1.7537   15.6221   -4.1226 H   0  0  0  0  0  0  0  0  0  0  0  0
    0.0157   15.1279   -4.3379 H   0  0  0  0  0  0  0  0  0  0  0  0
    0.2947   17.5860   -4.3065 H   0  0  0  0  0  0  0  0  0  0  0  0
   -0.7143   16.9707   -2.9389 H   0  0  0  0  0  0  0  0  0  0  0  0
    0.7765   18.6534   -2.0994 H   0  0  0  0  0  0  0  0  0  0  0  0
    3.1550   18.0190   -2.2690 H   0  0  0  0  0  0  0  0  0  0  0  0
    0.2953   16.9421    0.8402 H   0  0  0  0  0  0  0  0  0  0  0  0
   -0.4717   17.8779   -0.4875 H   0  0  0  0  0  0  0  0  0  0  0  0
   -0.5573   16.0837   -0.4875 H   0  0  0  0  0  0  0  0  0  0  0  0
    2.2342   17.4567    0.8859 H   0  0  0  0  0  0  0  0  0  0  0  0
    3.4526   17.1918   -0.4072 H   0  0  0  0  0  0  0  0  0  0  0  0
    2.4529   18.6843   -0.4072 H   0  0  0  0  0  0  0  0  0  0  0  0
    3.2841   13.0777   -3.3401 H   0  0  0  0  0  0  0  0  0  0  0  0
    2.1312   12.2424   -4.4355 H   0  0  0  0  0  0  0  0  0  0  0  0
    2.2310   14.0359   -4.4355 H   0  0  0  0  0  0  0  0  0  0  0  0
   -0.6370   13.2128   -3.8775 H   0  0  0  0  0  0  0  0  0  0  0  0
    0.3230   11.6274   -3.8774 H   0  0  0  0  0  0  0  0  0  0  0  0
   -1.5778   12.6377   -1.7447 H   0  0  0  0  0  0  0  0  0  0  0  0
   -1.7574   11.2025   -2.8289 H   0  0  0  0  0  0  0  0  0  0  0  0
    0.8053    9.0726   -1.3409 H   0  0  0  0  0  0  0  0  0  0  0  0
   -0.3633    9.2970   -2.6865 H   0  0  0  0  0  0  0  0  0  0  0  0
    1.1904   10.1985   -2.6865 H   0  0  0  0  0  0  0  0  0  0  0  0
  1  2  1  0
  2  3  1  0
  3  4  1  0
  4  5  1  0
  5  6  1  0
  6  7  1  0
  7  8  1  0
  7  9  1  0
  2 10  1  0
 10 11  1  0
 11 12  1  0
 12 13  1  0
 13 14  1  1
 13 15  1  0
 15 16  1  0
 16 17  1  0
 17 18  2  0
 18 19  1  0
 19 20  1  0
 20 21  1  0
 21 22  1  0
 22 23  1  0
 22 24  1  0
 24 25  1  0
 24 26  1  0
 19 27  1  0
 27 28  1  6
 27 29  1  0
 29 30  1  0
 30 31  1  0
 31 32  1  6
  7  5  1  0
 31 10  1  0
 31 13  1  0
 27 15  1  0
 24 18  1  0
  1 33  1  0
  1 34  1  0
  1 35  1  0
  2 36  1  1
  3 37  1  0
  3 38  1  0
  4 39  1  0
  4 40  1  0
  5 41  1  6
  8 42  1  0
  8 43  1  0
  8 44  1  0
  9 45  1  0
  9 46  1  0
  9 47  1  0
 10 48  1  1
 11 49  1  0
 11 50  1  0
 12 51  1  0
 12 52  1  0
 14 53  1  0
 14 54  1  0
 14 55  1  0
 15 56  1  6
 16 57  1  0
 16 58  1  0
 17 59  1  0
 19 60  1  1
 20 61  1  0
 20 62  1  0
 21 63  1  0
 21 64  1  0
 22 65  1  1
 23 66  1  0
 25 67  1  0
 25 68  1  0
 25 69  1  0
 26 70  1  0
 26 71  1  0
 26 72  1  0
 28 73  1  0
 28 74  1  0
 28 75  1  0
 29 76  1  0
 29 77  1  0
 30 78  1  0
 30 79  1  0
 32 80  1  0
 32 81  1  0
 32 82  1  0
M  END
>  <meeko>  (1) 
{"is_sidechain": [false], "intermolecular_energy": 2.731, "internal_energy": -0.839}

$$$$
EPH_relaxed_0001_pdb2pqr_Repair_277_r2_0001_out
     RDKit          3D

 82 86  0  0  0  0  0  0  0  0999 V2000
    4.1990   17.5880   -0.6050 C   0  0  0  0  0  0  0  0  0  0  0  0
    2.8370   18.1530   -0.1940 C   0  0  2  0  0  0  0  0  0  0  0  0
    2.8850   18.8380    1.1870 C   0  0  0  0  0  0  0  0  0  0  0  0
    4.2450   18.7270    1.8820 C   0  0  0  0  0  0  0  0  0  0  0  0
    4.1920   19.2410    3.2890 C   0  0  2  0  0  0  0  0  0  0  0  0
    5.2130   20.1920    3.6180 O   0  0  0  0  0  0  0  0  0  0  0  0
    5.2570   18.9440    4.3280 C   0  0  0  0  0  0  0  0  0  0  0  0
    6.4500   18.1010    4.0050 C   0  0  0  0  0  0  0  0  0  0  0  0
    4.8960   19.0620    5.7760 C   0  0  0  0  0  0  0  0  0  0  0  0
    1.7940   17.0420   -0.1870 C   0  0  1  0  0  0  0  0  0  0  0  0
    0.3650   17.5620   -0.4960 C   0  0  0  0  0  0  0  0  0  0  0  0
   -0.3510   16.4490   -1.3040 C   0  0  0  0  0  0  0  0  0  0  0  0
    0.5590   15.2080   -1.1490 C   0  0  1  0  0  0  0  0  0  0  0  0
    0.1870   14.6090    0.2440 C   0  0  0  0  0  0  0  0  0  0  0  0
    0.4620   14.1350   -2.2820 C   0  0  2  0  0  0  0  0  0  0  0  0
   -0.9150   13.4650   -2.4320 C   0  0  0  0  0  0  0  0  0  0  0  0
   -1.1120   12.2240   -1.6260 C   0  0  0  0  0  0  0  0  0  0  0  0
   -0.1340   11.5110   -1.0380 C   0  0  0  0  0  0  0  0  0  0  0  0
    1.3410   11.8820   -1.2370 C   0  0  1  0  0  0  0  0  0  0  0  0
    2.1590   10.6040   -1.5590 C   0  0  0  0  0  0  0  0  0  0  0  0
    1.9690    9.5090   -0.5130 C   0  0  0  0  0  0  0  0  0  0  0  0
    0.4960    9.1260   -0.3860 C   0  0  2  0  0  0  0  0  0  0  0  0
    0.0750    8.5030   -1.6040 O   0  0  0  0  0  0  0  0  0  0  0  0
   -0.4270   10.3360   -0.0720 C   0  0  0  0  0  0  0  0  0  0  0  0
   -0.1720   10.8230    1.3770 C   0  0  0  0  0  0  0  0  0  0  0  0
   -1.8970    9.8380   -0.1100 C   0  0  0  0  0  0  0  0  0  0  0  0
    1.6270   13.0630   -2.2610 C   0  0  1  0  0  0  0  0  0  0  0  0
    1.7360   12.4960   -3.7100 C   0  0  0  0  0  0  0  0  0  0  0  0
    3.0250   13.7060   -1.9290 C   0  0  0  0  0  0  0  0  0  0  0  0
    3.0380   14.8420   -0.8890 C   0  0  0  0  0  0  0  0  0  0  0  0
    1.9720   15.8930   -1.2120 C   0  0  2  0  0  0  0  0  0  0  0  0
    2.3320   16.5290   -2.5980 C   0  0  0  0  0  0  0  0  0  0  0  0
    4.7824   17.3460    0.2956 H   0  0  0  0  0  0  0  0  0  0  0  0
    4.0525   16.6764   -1.2030 H   0  0  0  0  0  0  0  0  0  0  0  0
    4.7408   18.3356   -1.2030 H   0  0  0  0  0  0  0  0  0  0  0  0
    2.5601   18.9188   -0.9335 H   0  0  0  0  0  0  0  0  0  0  0  0
    2.6488   19.9041    1.0543 H   0  0  0  0  0  0  0  0  0  0  0  0
    2.1538   18.3227    1.8271 H   0  0  0  0  0  0  0  0  0  0  0  0
    4.5512   17.6706    1.8997 H   0  0  0  0  0  0  0  0  0  0  0  0
    4.9678   19.3375    1.3208 H   0  0  0  0  0  0  0  0  0  0  0  0
    3.0962   19.1467    3.3074 H   0  0  0  0  0  0  0  0  0  0  0  0
    6.9252   17.7652    4.9385 H   0  0  0  0  0  0  0  0  0  0  0  0
    6.1327   17.2255    3.4195 H   0  0  0  0  0  0  0  0  0  0  0  0
    7.1693   18.6925    3.4195 H   0  0  0  0  0  0  0  0  0  0  0  0
    5.7611   18.7792    6.3938 H   0  0  0  0  0  0  0  0  0  0  0  0
    4.6099   20.1004    5.9991 H   0  0  0  0  0  0  0  0  0  0  0  0
    4.0518   18.3930    5.9991 H   0  0  0  0  0  0  0  0  0  0  0  0
    1.9377   16.6606    0.8347 H   0  0  0  0  0  0  0  0  0  0  0  0
   -0.1773   17.7587    0.4406 H   0  0  0  0  0  0  0  0  0  0  0  0
    0.4014   18.5023   -1.0656 H   0  0  0  0  0  0  0  0  0  0  0  0
   -1.3511   16.2513   -0.8908 H   0  0  0  0  0  0  0  0  0  0  0  0
   -0.4999   16.7283   -2.3575 H   0  0  0  0  0  0  0  0  0  0  0  0
    0.5878   15.2544    1.0395 H   0  0  0  0  0  0  0  0  0  0  0  0
   -0.9074   14.5491    0.3370 H   0  0  0  0  0  0  0  0  0  0  0  0
    0.6185   13.6015    0.3370 H   0  0  0  0  0  0  0  0  0  0  0  0
    0.5997   14.7396   -3.1905 H   0  0  0  0  0  0  0  0  0  0  0  0
   -1.6819   14.1928   -2.1283 H   0  0  0  0  0  0  0  0  0  0  0  0
   -0.9909   13.1585   -3.4857 H   0  0  0  0  0  0  0  0  0  0  0  0
   -2.1433   11.8620   -1.5024 H   0  0  0  0  0  0  0  0  0  0  0  0
    1.6776   12.3090   -0.2808 H   0  0  0  0  0  0  0  0  0  0  0  0
    1.8378   10.2168   -2.5372 H   0  0  0  0  0  0  0  0  0  0  0  0
    3.2236   10.8810   -1.5631 H   0  0  0  0  0  0  0  0  0  0  0  0
    2.5473    8.6220   -0.8111 H   0  0  0  0  0  0  0  0  0  0  0  0
    2.3188    9.8871    0.4590 H   0  0  0  0  0  0  0  0  0  0  0  0
    0.4072    8.4350    0.4652 H   0  0  0  0  0  0  0  0  0  0  0  0
   -0.7620    8.9180   -1.8720 H   0  0  0  0  0  0  0  0  0  0  0  0
   -0.5615   10.0792    2.0877 H   0  0  0  0  0  0  0  0  0  0  0  0
    0.9089   10.9511    1.5359 H   0  0  0  0  0  0  0  0  0  0  0  0
   -0.6824   11.7844    1.5359 H   0  0  0  0  0  0  0  0  0  0  0  0
   -2.2682    9.7122    0.9178 H   0  0  0  0  0  0  0  0  0  0  0  0
   -2.5203   10.5751   -0.6374 H   0  0  0  0  0  0  0  0  0  0  0  0
   -1.9440    8.8738   -0.6374 H   0  0  0  0  0  0  0  0  0  0  0  0
    1.9435   11.4166   -3.6667 H   0  0  0  0  0  0  0  0  0  0  0  0
    0.7887   12.6662   -4.2426 H   0  0  0  0  0  0  0  0  0  0  0  0
    2.5527   13.0053   -4.2426 H   0  0  0  0  0  0  0  0  0  0  0  0
    3.6792   12.9048   -1.5547 H   0  0  0  0  0  0  0  0  0  0  0  0
    3.3576   14.1721   -2.8682 H   0  0  0  0  0  0  0  0  0  0  0  0
    2.8375   14.4204    0.1070 H   0  0  0  0  0  0  0  0  0  0  0  0
    4.0256   15.3260   -0.9105 H   0  0  0  0  0  0  0  0  0  0  0  0
    2.8681   17.4762   -2.4386 H   0  0  0  0  0  0  0  0  0  0  0  0
    2.9719   15.8362   -3.1642 H   0  0  0  0  0  0  0  0  0  0  0  0
    1.4087   16.7211   -3.1642 H   0  0  0  0  0  0  0  0  0  0  0  0
  1  2  1  0
  2  3  1  0
  3  4  1  0
  4  5  1  0
  5  6  1  0
  6  7  1  0
  7  8  1  0
  7  9  1  0
  2 10  1  0
 10 11  1  0
 11 12  1  0
 12 13  1  0
 13 14  1  1
 13 15  1  0
 15 16  1  0
 16 17  1  0
 17 18  2  0
 18 19  1  0
 19 20  1  0
 20 21  1  0
 21 22  1  0
 22 23  1  0
 22 24  1  0
 24 25  1  0
 24 26  1  0
 19 27  1  0
 27 28  1  6
 27 29  1  0
 29 30  1  0
 30 31  1  0
 31 32  1  6
  7  5  1  0
 31 10  1  0
 31 13  1  0
 27 15  1  0
 24 18  1  0
  1 33  1  0
  1 34  1  0
  1 35  1  0
  2 36  1  6
  3 37  1  0
  3 38  1  0
  4 39  1  0
  4 40  1  0
  5 41  1  1
  8 42  1  0
  8 43  1  0
  8 44  1  0
  9 45  1  0
  9 46  1  0
  9 47  1  0
 10 48  1  1
 11 49  1  0
 11 50  1  0
 12 51  1  0
 12 52  1  0
 14 53  1  0
 14 54  1  0
 14 55  1  0
 15 56  1  6
 16 57  1  0
 16 58  1  0
 17 59  1  0
 19 60  1  1
 20 61  1  0
 20 62  1  0
 21 63  1  0
 21 64  1  0
 22 65  1  1
 23 66  1  0
 25 67  1  0
 25 68  1  0
 25 69  1  0
 26 70  1  0
 26 71  1  0
 26 72  1  0
 28 73  1  0
 28 74  1  0
 28 75  1  0
 29 76  1  0
 29 77  1  0
 30 78  1  0
 30 79  1  0
 32 80  1  0
 32 81  1  0
 32 82  1  0
M  END
>  <meeko>  (2) 
{"is_sidechain": [false], "intermolecular_energy": 2.731, "internal_energy": -0.839}

$$$$
EPH_relaxed_0001_pdb2pqr_Repair_277_r2_0001_out
     RDKit          3D

 82 86  0  0  0  0  0  0  0  0999 V2000
    0.5080   18.5010   -0.0090 C   0  0  0  0  0  0  0  0  0  0  0  0
    1.5650   17.4080   -0.1930 C   0  0  2  0  0  0  0  0  0  0  0  0
    2.8130   17.9270   -0.9350 C   0  0  0  0  0  0  0  0  0  0  0  0
    4.0370   18.1010   -0.0320 C   0  0  0  0  0  0  0  0  0  0  0  0
    3.6540   18.5770    1.3370 C   0  0  2  0  0  0  0  0  0  0  0  0
    3.8540   19.9790    1.5610 O   0  0  0  0  0  0  0  0  0  0  0  0
    4.6540   19.0880    2.3560 C   0  0  0  0  0  0  0  0  0  0  0  0
    6.1180   19.1490    2.0500 C   0  0  0  0  0  0  0  0  0  0  0  0
    4.2750   19.0670    3.8040 C   0  0  0  0  0  0  0  0  0  0  0  0
    0.9650   16.2270   -0.9460 C   0  0  1  0  0  0  0  0  0  0  0  0
    0.7730   16.5180   -2.4590 C   0  0  0  0  0  0  0  0  0  0  0  0
    1.0380   15.1860   -3.2080 C   0  0  0  0  0  0  0  0  0  0  0  0
    1.0450   14.1090   -2.0980 C   0  0  1  0  0  0  0  0  0  0  0  0
   -0.4610   13.8030   -1.8260 C   0  0  0  0  0  0  0  0  0  0  0  0
    1.8530   12.8060   -2.4040 C   0  0  2  0  0  0  0  0  0  0  0  0
    1.3380   11.9850   -3.5990 C   0  0  0  0  0  0  0  0  0  0  0  0
    0.3230   10.9420   -3.2650 C   0  0  0  0  0  0  0  0  0  0  0  0
    0.0530   10.4800   -2.0300 C   0  0  0  0  0  0  0  0  0  0  0  0
    0.8720   10.9450   -0.8190 C   0  0  1  0  0  0  0  0  0  0  0  0
    1.2690    9.7150    0.0400 C   0  0  0  0  0  0  0  0  0  0  0  0
    0.0650    8.8680    0.4400 C   0  0  0  0  0  0  0  0  0  0  0  0
   -0.6900    8.3770   -0.7920 C   0  0  2  0  0  0  0  0  0  0  0  0
    0.1420    7.4590   -1.5070 O   0  0  0  0  0  0  0  0  0  0  0  0
   -1.1330    9.5270   -1.7390 C   0  0  0  0  0  0  0  0  0  0  0  0
   -2.2620   10.3480   -1.0680 C   0  0  0  0  0  0  0  0  0  0  0  0
   -1.7560    8.8880   -3.0080 C   0  0  0  0  0  0  0  0  0  0  0  0
    2.1090   11.8900   -1.1400 C   0  0  1  0  0  0  0  0  0  0  0  0
    3.3680   11.0270   -1.4630 C   0  0  0  0  0  0  0  0  0  0  0  0
    2.4630   12.7280    0.1450 C   0  0  0  0  0  0  0  0  0  0  0  0
    1.7170   14.0630    0.3300 C   0  0  0  0  0  0  0  0  0  0  0  0
    1.7690   14.9030   -0.9500 C   0  0  2  0  0  0  0  0  0  0  0  0
    3.2710   15.2450   -1.2360 C   0  0  0  0  0  0  0  0  0  0  0  0
    0.3416   18.6731    1.0646 H   0  0  0  0  0  0  0  0  0  0  0  0
    0.8573   19.4318   -0.4797 H   0  0  0  0  0  0  0  0  0  0  0  0
   -0.4340   18.1831   -0.4797 H   0  0  0  0  0  0  0  0  0  0  0  0
    1.8864   17.0858    0.8084 H   0  0  0  0  0  0  0  0  0  0  0  0
    3.0671   17.2109   -1.7304 H   0  0  0  0  0  0  0  0  0  0  0  0
    2.5613   18.9219   -1.3311 H   0  0  0  0  0  0  0  0  0  0  0  0
    4.5534   17.1340    0.0585 H   0  0  0  0  0  0  0  0  0  0  0  0
    4.6932   18.8578   -0.4866 H   0  0  0  0  0  0  0  0  0  0  0  0
    2.8562   17.8224    1.4013 H   0  0  0  0  0  0  0  0  0  0  0  0
    6.6884   19.1728    2.9902 H   0  0  0  0  0  0  0  0  0  0  0  0
    6.4081   18.2622    1.4674 H   0  0  0  0  0  0  0  0  0  0  0  0
    6.3333   20.0569    1.4674 H   0  0  0  0  0  0  0  0  0  0  0  0
    5.1838   19.1174    4.4217 H   0  0  0  0  0  0  0  0  0  0  0  0
    3.6316   19.9309    4.0272 H   0  0  0  0  0  0  0  0  0  0  0  0
    3.7310   18.1373    4.0272 H   0  0  0  0  0  0  0  0  0  0  0  0
    0.0330   16.0997   -0.3757 H   0  0  0  0  0  0  0  0  0  0  0  0
   -0.2537   16.8628   -2.6511 H   0  0  0  0  0  0  0  0  0  0  0  0
    1.4603   17.3063   -2.7999 H   0  0  0  0  0  0  0  0  0  0  0  0
    0.2402   14.9858   -3.9383 H   0  0  0  0  0  0  0  0  0  0  0  0
    1.9803   15.2067   -3.7752 H   0  0  0  0  0  0  0  0  0  0  0  0
   -0.6377   13.7671   -0.7409 H   0  0  0  0  0  0  0  0  0  0  0  0
   -1.0822   14.5933   -2.2727 H   0  0  0  0  0  0  0  0  0  0  0  0
   -0.7246   12.8330   -2.2727 H   0  0  0  0  0  0  0  0  0  0  0  0
    2.8314   13.2021   -2.7134 H   0  0  0  0  0  0  0  0  0  0  0  0
    0.8854   12.6814   -4.3202 H   0  0  0  0  0  0  0  0  0  0  0  0
    2.2102   11.4452   -3.9964 H   0  0  0  0  0  0  0  0  0  0  0  0
   -0.2530   10.5149   -4.0992 H   0  0  0  0  0  0  0  0  0  0  0  0
    0.2110   11.6071   -0.2405 H   0  0  0  0  0  0  0  0  0  0  0  0
    1.9634    9.0892   -0.5398 H   0  0  0  0  0  0  0  0  0  0  0  0
    1.7358   10.0890    0.9632 H   0  0  0  0  0  0  0  0  0  0  0  0
    0.4122    7.9997    1.0192 H   0  0  0  0  0  0  0  0  0  0  0  0
   -0.6143    9.4869    1.0445 H   0  0  0  0  0  0  0  0  0  0  0  0
   -1.6108    7.8884   -0.4407 H   0  0  0  0  0  0  0  0  0  0  0  0
   -0.0710    6.5630   -1.1940 H   0  0  0  0  0  0  0  0  0  0  0  0
   -2.1659   10.2781    0.0256 H   0  0  0  0  0  0  0  0  0  0  0  0
   -2.1827   11.4009   -1.3765 H   0  0  0  0  0  0  0  0  0  0  0  0
   -3.2392    9.9481   -1.3765 H   0  0  0  0  0  0  0  0  0  0  0  0
   -2.4954    8.1296   -2.7113 H   0  0  0  0  0  0  0  0  0  0  0  0
   -2.2502    9.6677   -3.6062 H   0  0  0  0  0  0  0  0  0  0  0  0
   -0.9641    8.4137   -3.6062 H   0  0  0  0  0  0  0  0  0  0  0  0
    3.8410   10.7028   -0.5243 H   0  0  0  0  0  0  0  0  0  0  0  0
    3.0675   10.1441   -2.0462 H   0  0  0  0  0  0  0  0  0  0  0  0
    4.0831   11.6257   -2.0462 H   0  0  0  0  0  0  0  0  0  0  0  0
    2.2453   12.1007    1.0220 H   0  0  0  0  0  0  0  0  0  0  0  0
    3.5214   13.0033    0.0269 H   0  0  0  0  0  0  0  0  0  0  0  0
    0.6664   13.8561    0.5820 H   0  0  0  0  0  0  0  0  0  0  0  0
    2.2036   14.6271    1.1393 H   0  0  0  0  0  0  0  0  0  0  0  0
    3.8071   15.3671   -0.2833 H   0  0  0  0  0  0  0  0  0  0  0  0
    3.7296   14.4283   -1.8128 H   0  0  0  0  0  0  0  0  0  0  0  0
    3.3308   16.1798   -1.8128 H   0  0  0  0  0  0  0  0  0  0  0  0
  1  2  1  0
  2  3  1  0
  3  4  1  0
  4  5  1  0
  5  6  1  0
  6  7  1  0
  7  8  1  0
  7  9  1  0
  2 10  1  0
 10 11  1  0
 11 12  1  0
 12 13  1  0
 13 14  1  1
 13 15  1  0
 15 16  1  0
 16 17  1  0
 17 18  2  0
 18 19  1  0
 19 20  1  0
 20 21  1  0
 21 22  1  0
 22 23  1  0
 22 24  1  0
 24 25  1  0
 24 26  1  0
 19 27  1  0
 27 28  1  6
 27 29  1  0
 29 30  1  0
 30 31  1  0
 31 32  1  6
  7  5  1  0
 31 10  1  0
 31 13  1  0
 27 15  1  0
 24 18  1  0
  1 33  1  0
  1 34  1  0
  1 35  1  0
  2 36  1  1
  3 37  1  0
  3 38  1  0
  4 39  1  0
  4 40  1  0
  5 41  1  1
  8 42  1  0
  8 43  1  0
  8 44  1  0
  9 45  1  0
  9 46  1  0
  9 47  1  0
 10 48  1  1
 11 49  1  0
 11 50  1  0
 12 51  1  0
 12 52  1  0
 14 53  1  0
 14 54  1  0
 14 55  1  0
 15 56  1  6
 16 57  1  0
 16 58  1  0
 17 59  1  0
 19 60  1  1
 20 61  1  0
 20 62  1  0
 21 63  1  0
 21 64  1  0
 22 65  1  1
 23 66  1  0
 25 67  1  0
 25 68  1  0
 25 69  1  0
 26 70  1  0
 26 71  1  0
 26 72  1  0
 28 73  1  0
 28 74  1  0
 28 75  1  0
 29 76  1  0
 29 77  1  0
 30 78  1  0
 30 79  1  0
 32 80  1  0
 32 81  1  0
 32 82  1  0
M  END
>  <meeko>  (3) 
{"is_sidechain": [false], "intermolecular_energy": 2.731, "internal_energy": -0.839}

$$$$
EPH_relaxed_0001_pdb2pqr_Repair_277_r2_0001_out
     RDKit          3D

 82 86  0  0  0  0  0  0  0  0999 V2000
    2.3970   18.0800   -2.6330 C   0  0  0  0  0  0  0  0  0  0  0  0
    1.0980   17.6900   -1.9220 C   0  0  2  0  0  0  0  0  0  0  0  0
    1.2380   17.7370   -0.3880 C   0  0  0  0  0  0  0  0  0  0  0  0
    0.8730   19.0930    0.2230 C   0  0  0  0  0  0  0  0  0  0  0  0
   -0.5850   19.1760    0.5570 C   0  0  2  0  0  0  0  0  0  0  0  0
   -1.4230   18.2850   -0.1920 O   0  0  0  0  0  0  0  0  0  0  0  0
   -1.6370   19.6890   -0.4090 C   0  0  0  0  0  0  0  0  0  0  0  0
   -1.2730   20.1540   -1.7840 C   0  0  0  0  0  0  0  0  0  0  0  0
   -2.9320   20.1940    0.1450 C   0  0  0  0  0  0  0  0  0  0  0  0
    0.6610   16.2980   -2.3630 C   0  0  1  0  0  0  0  0  0  0  0  0
    0.7750   16.0940   -3.8980 C   0  0  0  0  0  0  0  0  0  0  0  0
    1.1860   14.6160   -4.1230 C   0  0  0  0  0  0  0  0  0  0  0  0
    0.9720   13.9380   -2.7500 C   0  0  1  0  0  0  0  0  0  0  0  0
   -0.5580   13.6350   -2.6860 C   0  0  0  0  0  0  0  0  0  0  0  0
    1.8260   12.6590   -2.4710 C   0  0  2  0  0  0  0  0  0  0  0  0
    1.5610   11.4770   -3.4200 C   0  0  0  0  0  0  0  0  0  0  0  0
    0.5010   10.5250   -2.9730 C   0  0  0  0  0  0  0  0  0  0  0  0
   -0.0090   10.4520   -1.7290 C   0  0  0  0  0  0  0  0  0  0  0  0
    0.5510   11.3190   -0.5950 C   0  0  1  0  0  0  0  0  0  0  0  0
    0.7690   10.4440    0.6670 C   0  0  0  0  0  0  0  0  0  0  0  0
   -0.4900    9.6870    1.0790 C   0  0  0  0  0  0  0  0  0  0  0  0
   -0.9830    8.7910   -0.0550 C   0  0  2  0  0  0  0  0  0  0  0  0
   -0.0230    7.7520   -0.2720 O   0  0  0  0  0  0  0  0  0  0  0  0
   -1.2280    9.5620   -1.3820 C   0  0  0  0  0  0  0  0  0  0  0  0
   -2.4700   10.4760   -1.2310 C   0  0  0  0  0  0  0  0  0  0  0  0
   -1.5850    8.5230   -2.4790 C   0  0  0  0  0  0  0  0  0  0  0  0
    1.8260   12.1960   -0.9580 C   0  0  1  0  0  0  0  0  0  0  0  0
    3.1240   11.3590   -0.7470 C   0  0  0  0  0  0  0  0  0  0  0  0
    1.9150   13.4110    0.0400 C   0  0  0  0  0  0  0  0  0  0  0  0
    1.1460   14.6880   -0.3510 C   0  0  0  0  0  0  0  0  0  0  0  0
    1.4520   15.0920   -1.7960 C   0  0  2  0  0  0  0  0  0  0  0  0
    2.9800   15.4250   -1.8860 C   0  0  0  0  0  0  0  0  0  0  0  0
    3.1692   18.3118   -1.8847 H   0  0  0  0  0  0  0  0  0  0  0  0
    2.7357   17.2439   -3.2625 H   0  0  0  0  0  0  0  0  0  0  0  0
    2.2192   18.9644   -3.2625 H   0  0  0  0  0  0  0  0  0  0  0  0
    0.3324   18.4271   -2.2057 H   0  0  0  0  0  0  0  0  0  0  0  0
    0.5764   16.9720    0.0445 H   0  0  0  0  0  0  0  0  0  0  0  0
    2.2979   17.5554   -0.1566 H   0  0  0  0  0  0  0  0  0  0  0  0
    1.4583   19.2386    1.1429 H   0  0  0  0  0  0  0  0  0  0  0  0
    1.1003   19.8747   -0.5168 H   0  0  0  0  0  0  0  0  0  0  0  0
   -0.3550   19.4320    1.6018 H   0  0  0  0  0  0  0  0  0  0  0  0
   -0.5964   21.0183   -1.7116 H   0  0  0  0  0  0  0  0  0  0  0  0
   -0.7703   19.3391   -2.3255 H   0  0  0  0  0  0  0  0  0  0  0  0
   -2.1847   20.4464   -2.3255 H   0  0  0  0  0  0  0  0  0  0  0  0
   -2.8916   20.1782    1.2441 H   0  0  0  0  0  0  0  0  0  0  0  0
   -3.1019   21.2243   -0.2009 H   0  0  0  0  0  0  0  0  0  0  0  0
   -3.7545   19.5507   -0.2009 H   0  0  0  0  0  0  0  0  0  0  0  0
   -0.3662   16.2937   -1.9696 H   0  0  0  0  0  0  0  0  0  0  0  0
   -0.1930   16.2956   -4.3799 H   0  0  0  0  0  0  0  0  0  0  0  0
    1.5154   16.7808   -4.3340 H   0  0  0  0  0  0  0  0  0  0  0  0
    0.5508   14.1488   -4.8900 H   0  0  0  0  0  0  0  0  0  0  0  0
    2.2228   14.5209   -4.4780 H   0  0  0  0  0  0  0  0  0  0  0  0
   -0.8757   13.5721   -1.6347 H   0  0  0  0  0  0  0  0  0  0  0  0
   -1.1127   14.4407   -3.1891 H   0  0  0  0  0  0  0  0  0  0  0  0
   -0.7638   12.6787   -3.1891 H   0  0  0  0  0  0  0  0  0  0  0  0
    2.8455   13.0030   -2.6995 H   0  0  0  0  0  0  0  0  0  0  0  0
    1.2610   11.8856   -4.3962 H   0  0  0  0  0  0  0  0  0  0  0  0
    2.4957   10.8979   -3.4530 H   0  0  0  0  0  0  0  0  0  0  0  0
    0.1036    9.8249   -3.7226 H   0  0  0  0  0  0  0  0  0  0  0  0
   -0.2131   12.0835   -0.3909 H   0  0  0  0  0  0  0  0  0  0  0  0
    1.5659    9.7152    0.4574 H   0  0  0  0  0  0  0  0  0  0  0  0
    1.0412   11.1147    1.4953 H   0  0  0  0  0  0  0  0  0  0  0  0
   -0.2647    9.0647    1.9576 H   0  0  0  0  0  0  0  0  0  0  0  0
   -1.2771   10.4176    1.3171 H   0  0  0  0  0  0  0  0  0  0  0  0
   -1.9549    8.3761    0.2506 H   0  0  0  0  0  0  0  0  0  0  0  0
   -0.1140    7.1120    0.4540 H   0  0  0  0  0  0  0  0  0  0  0  0
   -2.6825   10.6324   -0.1631 H   0  0  0  0  0  0  0  0  0  0  0  0
   -2.2723   11.4456   -1.7113 H   0  0  0  0  0  0  0  0  0  0  0  0
   -3.3370    9.9989   -1.7113 H   0  0  0  0  0  0  0  0  0  0  0  0
   -1.9074    7.5846   -2.0042 H   0  0  0  0  0  0  0  0  0  0  0  0
   -2.3997    8.9160   -3.1050 H   0  0  0  0  0  0  0  0  0  0  0  0
   -0.7008    8.3323   -3.1050 H   0  0  0  0  0  0  0  0  0  0  0  0
    3.3113   11.2382    0.3302 H   0  0  0  0  0  0  0  0  0  0  0  0
    3.0016   10.3693   -1.2111 H   0  0  0  0  0  0  0  0  0  0  0  0
    3.9750   11.8789   -1.2111 H   0  0  0  0  0  0  0  0  0  0  0  0
    1.5264   13.0727    1.0119 H   0  0  0  0  0  0  0  0  0  0  0  0
    2.9755   13.7032    0.0446 H   0  0  0  0  0  0  0  0  0  0  0  0
    0.0664   14.5029   -0.2502 H   0  0  0  0  0  0  0  0  0  0  0  0
    1.4608   15.5046    0.3154 H   0  0  0  0  0  0  0  0  0  0  0  0
    3.3959   15.5156   -0.8717 H   0  0  0  0  0  0  0  0  0  0  0  0
    3.4998   14.6191   -2.4248 H   0  0  0  0  0  0  0  0  0  0  0  0
    3.1173   16.3742   -2.4248 H   0  0  0  0  0  0  0  0  0  0  0  0
  1  2  1  0
  2  3  1  0
  3  4  1  0
  4  5  1  0
  5  6  1  0
  6  7  1  0
  7  8  1  0
  7  9  1  0
  2 10  1  0
 10 11  1  0
 11 12  1  0
 12 13  1  0
 13 14  1  1
 13 15  1  0
 15 16  1  0
 16 17  1  0
 17 18  2  0
 18 19  1  0
 19 20  1  0
 20 21  1  0
 21 22  1  0
 22 23  1  0
 22 24  1  0
 24 25  1  0
 24 26  1  0
 19 27  1  0
 27 28  1  6
 27 29  1  0
 29 30  1  0
 30 31  1  0
 31 32  1  1
  7  5  1  0
 31 10  1  0
 31 13  1  0
 27 15  1  0
 24 18  1  0
  1 33  1  0
  1 34  1  0
  1 35  1  0
  2 36  1  6
  3 37  1  0
  3 38  1  0
  4 39  1  0
  4 40  1  0
  5 41  1  1
  8 42  1  0
  8 43  1  0
  8 44  1  0
  9 45  1  0
  9 46  1  0
  9 47  1  0
 10 48  1  1
 11 49  1  0
 11 50  1  0
 12 51  1  0
 12 52  1  0
 14 53  1  0
 14 54  1  0
 14 55  1  0
 15 56  1  6
 16 57  1  0
 16 58  1  0
 17 59  1  0
 19 60  1  1
 20 61  1  0
 20 62  1  0
 21 63  1  0
 21 64  1  0
 22 65  1  1
 23 66  1  0
 25 67  1  0
 25 68  1  0
 25 69  1  0
 26 70  1  0
 26 71  1  0
 26 72  1  0
 28 73  1  0
 28 74  1  0
 28 75  1  0
 29 76  1  0
 29 77  1  0
 30 78  1  0
 30 79  1  0
 32 80  1  0
 32 81  1  0
 32 82  1  0
M  END
>  <meeko>  (4) 
{"is_sidechain": [false], "intermolecular_energy": 2.731, "internal_energy": -0.839}

$$$$
EPH_relaxed_0001_pdb2pqr_Repair_277_r2_0001_out
     RDKit          3D

 82 86  0  0  0  0  0  0  0  0999 V2000
   -3.4480    9.3190    0.4120 C   0  0  0  0  0  0  0  0  0  0  0  0
   -2.5800    9.6590   -0.8030 C   0  0  2  0  0  0  0  0  0  0  0  0
   -1.9080    8.4090   -1.4050 C   0  0  0  0  0  0  0  0  0  0  0  0
   -2.8310    7.5900   -2.3120 C   0  0  0  0  0  0  0  0  0  0  0  0
   -4.2560    7.6500   -1.8510 C   0  0  2  0  0  0  0  0  0  0  0  0
   -4.7880    6.4020   -1.3860 O   0  0  0  0  0  0  0  0  0  0  0  0
   -5.3960    6.9500   -2.5660 C   0  0  0  0  0  0  0  0  0  0  0  0
   -5.1620    6.1410   -3.8030 C   0  0  0  0  0  0  0  0  0  0  0  0
   -6.7910    7.4490   -2.3490 C   0  0  0  0  0  0  0  0  0  0  0  0
   -1.5210   10.6840   -0.4150 C   0  0  1  0  0  0  0  0  0  0  0  0
   -0.4240   10.0900    0.5080 C   0  0  0  0  0  0  0  0  0  0  0  0
    0.9070   10.7880    0.1280 C   0  0  0  0  0  0  0  0  0  0  0  0
    0.4820   11.9830   -0.7560 C   0  0  1  0  0  0  0  0  0  0  0  0
    0.0430   13.0910    0.2510 C   0  0  0  0  0  0  0  0  0  0  0  0
    1.5540   12.5120   -1.7650 C   0  0  2  0  0  0  0  0  0  0  0  0
    2.8350   13.0700   -1.1220 C   0  0  0  0  0  0  0  0  0  0  0  0
    2.8110   14.5310   -0.8160 C   0  0  0  0  0  0  0  0  0  0  0  0
    1.9210   15.4170   -1.3020 C   0  0  0  0  0  0  0  0  0  0  0  0
    0.8680   14.9910   -2.3320 C   0  0  1  0  0  0  0  0  0  0  0  0
    0.8200   16.0300   -3.4830 C   0  0  0  0  0  0  0  0  0  0  0  0
    0.6000   17.4530   -2.9790 C   0  0  0  0  0  0  0  0  0  0  0  0
    1.7000   17.8600   -2.0020 C   0  0  2  0  0  0  0  0  0  0  0  0
    2.9390   17.9440   -2.7110 O   0  0  0  0  0  0  0  0  0  0  0  0
    1.8480   16.8820   -0.8030 C   0  0  0  0  0  0  0  0  0  0  0  0
    0.6230   17.0160    0.1340 C   0  0  0  0  0  0  0  0  0  0  0  0
    3.0810   17.3280    0.0280 C   0  0  0  0  0  0  0  0  0  0  0  0
    0.9810   13.4970   -2.8620 C   0  0  1  0  0  0  0  0  0  0  0  0
    1.9620   13.4350   -4.0720 C   0  0  0  0  0  0  0  0  0  0  0  0
   -0.4230   13.0360   -3.4050 C   0  0  0  0  0  0  0  0  0  0  0  0
   -1.3930   12.4120   -2.3840 C   0  0  0  0  0  0  0  0  0  0  0  0
   -0.6970   11.3240   -1.5610 C   0  0  2  0  0  0  0  0  0  0  0  0
   -0.2630   10.1850   -2.5450 C   0  0  0  0  0  0  0  0  0  0  0  0
   -2.8897    9.5377    1.3342 H   0  0  0  0  0  0  0  0  0  0  0  0
   -4.3665    9.9238    0.3873 H   0  0  0  0  0  0  0  0  0  0  0  0
   -3.7113    8.2513    0.3873 H   0  0  0  0  0  0  0  0  0  0  0  0
   -3.2413   10.0815   -1.5739 H   0  0  0  0  0  0  0  0  0  0  0  0
   -1.0385    8.7328   -1.9959 H   0  0  0  0  0  0  0  0  0  0  0  0
   -1.6254    7.7594   -0.5635 H   0  0  0  0  0  0  0  0  0  0  0  0
   -2.7703    7.9883   -3.3356 H   0  0  0  0  0  0  0  0  0  0  0  0
   -2.5031    6.5406   -2.2776 H   0  0  0  0  0  0  0  0  0  0  0  0
   -4.1261    8.6868   -1.5073 H   0  0  0  0  0  0  0  0  0  0  0  0
   -4.8665    5.1193   -3.5224 H   0  0  0  0  0  0  0  0  0  0  0  0
   -6.0865    6.1050   -4.3979 H   0  0  0  0  0  0  0  0  0  0  0  0
   -4.3610    6.6041   -4.3979 H   0  0  0  0  0  0  0  0  0  0  0  0
   -6.9911    7.5206   -1.2697 H   0  0  0  0  0  0  0  0  0  0  0  0
   -6.9009    8.4422   -2.8089 H   0  0  0  0  0  0  0  0  0  0  0  0
   -7.5059    6.7508   -2.8089 H   0  0  0  0  0  0  0  0  0  0  0  0
   -2.1631   11.4426    0.0565 H   0  0  0  0  0  0  0  0  0  0  0  0
   -0.6680   10.2880    1.5622 H   0  0  0  0  0  0  0  0  0  0  0  0
   -0.3486    9.0000    0.3806 H   0  0  0  0  0  0  0  0  0  0  0  0
    1.4325   11.1386    1.0285 H   0  0  0  0  0  0  0  0  0  0  0  0
    1.6000   10.1101   -0.3919 H   0  0  0  0  0  0  0  0  0  0  0  0
    0.1864   12.7291    1.2798 H   0  0  0  0  0  0  0  0  0  0  0  0
    0.6516   13.9934    0.0916 H   0  0  0  0  0  0  0  0  0  0  0  0
   -1.0184   13.3317    0.0916 H   0  0  0  0  0  0  0  0  0  0  0  0
    1.8585   11.5940   -2.2890 H   0  0  0  0  0  0  0  0  0  0  0  0
    3.0062   12.5283   -0.1801 H   0  0  0  0  0  0  0  0  0  0  0  0
    3.6346   12.9277   -1.8639 H   0  0  0  0  0  0  0  0  0  0  0  0
    3.5855   14.9161   -0.1364 H   0  0  0  0  0  0  0  0  0  0  0  0
   -0.0936   14.9811   -1.7979 H   0  0  0  0  0  0  0  0  0  0  0  0
    1.7733   15.9935   -4.0307 H   0  0  0  0  0  0  0  0  0  0  0  0
   -0.0301   15.7706   -4.1312 H   0  0  0  0  0  0  0  0  0  0  0  0
    0.6051   18.1434   -3.8354 H   0  0  0  0  0  0  0  0  0  0  0  0
   -0.3675   17.4959   -2.4573 H   0  0  0  0  0  0  0  0  0  0  0  0
    1.4192   18.8351   -1.5774 H   0  0  0  0  0  0  0  0  0  0  0  0
    2.9830   18.8230   -3.1240 H   0  0  0  0  0  0  0  0  0  0  0  0
    0.9569   16.9795    1.1815 H   0  0  0  0  0  0  0  0  0  0  0  0
    0.1185   17.9747   -0.0568 H   0  0  0  0  0  0  0  0  0  0  0  0
   -0.0768   16.1890   -0.0568 H   0  0  0  0  0  0  0  0  0  0  0  0
    2.8502   17.2445    1.1003 H   0  0  0  0  0  0  0  0  0  0  0  0
    3.9388   16.6832   -0.2137 H   0  0  0  0  0  0  0  0  0  0  0  0
    3.3278   18.3724   -0.2137 H   0  0  0  0  0  0  0  0  0  0  0  0
    2.9961   13.3696   -3.7027 H   0  0  0  0  0  0  0  0  0  0  0  0
    1.7344   12.5494   -4.6836 H   0  0  0  0  0  0  0  0  0  0  0  0
    1.8477   14.3422   -4.6836 H   0  0  0  0  0  0  0  0  0  0  0  0
   -0.9179   13.9178   -3.8381 H   0  0  0  0  0  0  0  0  0  0  0  0
   -0.2036   12.2311   -4.1220 H   0  0  0  0  0  0  0  0  0  0  0  0
   -1.7570   13.1983   -1.7063 H   0  0  0  0  0  0  0  0  0  0  0  0
   -2.2318   11.9560   -2.9303 H   0  0  0  0  0  0  0  0  0  0  0  0
    0.0705    9.3096   -1.9684 H   0  0  0  0  0  0  0  0  0  0  0  0
   -1.1167    9.9030   -3.1788 H   0  0  0  0  0  0  0  0  0  0  0  0
    0.5619   10.5426   -3.1788 H   0  0  0  0  0  0  0  0  0  0  0  0
  1  2  1  0
  2  3  1  0
  3  4  1  0
  4  5  1  0
  5  6  1  0
  6  7  1  0
  7  8  1  0
  7  9  1  0
  2 10  1  0
 10 11  1  0
 11 12  1  0
 12 13  1  0
 13 14  1  1
 13 15  1  0
 15 16  1  0
 16 17  1  0
 17 18  2  0
 18 19  1  0
 19 20  1  0
 20 21  1  0
 21 22  1  0
 22 23  1  0
 22 24  1  0
 24 25  1  0
 24 26  1  0
 19 27  1  0
 27 28  1  6
 27 29  1  0
 29 30  1  0
 30 31  1  0
 31 32  1  6
  7  5  1  0
 31 10  1  0
 31 13  1  0
 27 15  1  0
 24 18  1  0
  1 33  1  0
  1 34  1  0
  1 35  1  0
  2 36  1  6
  3 37  1  0
  3 38  1  0
  4 39  1  0
  4 40  1  0
  5 41  1  1
  8 42  1  0
  8 43  1  0
  8 44  1  0
  9 45  1  0
  9 46  1  0
  9 47  1  0
 10 48  1  1
 11 49  1  0
 11 50  1  0
 12 51  1  0
 12 52  1  0
 14 53  1  0
 14 54  1  0
 14 55  1  0
 15 56  1  6
 16 57  1  0
 16 58  1  0
 17 59  1  0
 19 60  1  1
 20 61  1  0
 20 62  1  0
 21 63  1  0
 21 64  1  0
 22 65  1  1
 23 66  1  0
 25 67  1  0
 25 68  1  0
 25 69  1  0
 26 70  1  0
 26 71  1  0
 26 72  1  0
 28 73  1  0
 28 74  1  0
 28 75  1  0
 29 76  1  0
 29 77  1  0
 30 78  1  0
 30 79  1  0
 32 80  1  0
 32 81  1  0
 32 82  1  0
M  END
>  <meeko>  (5) 
{"is_sidechain": [false], "intermolecular_energy": 2.731, "internal_energy": -0.839}

$$$$
EPH_relaxed_0001_pdb2pqr_Repair_277_r2_0001_out
     RDKit          3D

 82 86  0  0  0  0  0  0  0  0999 V2000
    3.6860   17.7010    0.5820 C   0  0  0  0  0  0  0  0  0  0  0  0
    2.7480   17.9610   -0.6000 C   0  0  2  0  0  0  0  0  0  0  0  0
    2.0710   19.3430   -0.5120 C   0  0  0  0  0  0  0  0  0  0  0  0
    1.2390   19.5410    0.7580 C   0  0  0  0  0  0  0  0  0  0  0  0
   -0.0840   20.1800    0.4600 C   0  0  2  0  0  0  0  0  0  0  0  0
   -1.0040   20.1930    1.5600 O   0  0  0  0  0  0  0  0  0  0  0  0
   -1.3930   19.4140    0.4170 C   0  0  0  0  0  0  0  0  0  0  0  0
   -1.4430   17.9400    0.6740 C   0  0  0  0  0  0  0  0  0  0  0  0
   -2.5390   19.9970   -0.3490 C   0  0  0  0  0  0  0  0  0  0  0  0
    1.6890   16.8660   -0.6740 C   0  0  1  0  0  0  0  0  0  0  0  0
    0.3750   17.3510   -1.3420 C   0  0  0  0  0  0  0  0  0  0  0  0
   -0.1940   16.1470   -2.1360 C   0  0  0  0  0  0  0  0  0  0  0  0
    0.6210   14.9310   -1.6360 C   0  0  1  0  0  0  0  0  0  0  0  0
   -0.0540   14.5220   -0.2890 C   0  0  0  0  0  0  0  0  0  0  0  0
    0.7270   13.7190   -2.6190 C   0  0  2  0  0  0  0  0  0  0  0  0
   -0.6100   13.0450   -2.9710 C   0  0  0  0  0  0  0  0  0  0  0  0
   -1.0130   11.9210   -2.0750 C   0  0  0  0  0  0  0  0  0  0  0  0
   -0.2050   11.2840   -1.2070 C   0  0  0  0  0  0  0  0  0  0  0  0
    1.2910   11.6170   -1.1350 C   0  0  1  0  0  0  0  0  0  0  0  0
    2.1130   10.3020   -1.1120 C   0  0  0  0  0  0  0  0  0  0  0  0
    1.6720    9.3550   -0.0010 C   0  0  0  0  0  0  0  0  0  0  0  0
    0.1940    9.0010   -0.1410 C   0  0  2  0  0  0  0  0  0  0  0  0
    0.0150    8.2270   -1.3310 O   0  0  0  0  0  0  0  0  0  0  0  0
   -0.7330   10.2480   -0.1850 C   0  0  0  0  0  0  0  0  0  0  0  0
   -0.7700   10.9180    1.2110 C   0  0  0  0  0  0  0  0  0  0  0  0
   -2.1790    9.7590   -0.4700 C   0  0  0  0  0  0  0  0  0  0  0  0
    1.8240   12.6520   -2.2170 C   0  0  1  0  0  0  0  0  0  0  0  0
    2.2150   11.9000   -3.5250 C   0  0  0  0  0  0  0  0  0  0  0  0
    3.1430   13.3230   -1.6790 C   0  0  0  0  0  0  0  0  0  0  0  0
    2.9770   14.5860   -0.8130 C   0  0  0  0  0  0  0  0  0  0  0  0
    2.0380   15.5930   -1.4850 C   0  0  2  0  0  0  0  0  0  0  0  0
    2.7010   16.0390   -2.8320 C   0  0  0  0  0  0  0  0  0  0  0  0
    3.1391   17.8526    1.5243 H   0  0  0  0  0  0  0  0  0  0  0  0
    4.0565   16.6663    0.5354 H   0  0  0  0  0  0  0  0  0  0  0  0
    4.5363   18.3973    0.5354 H   0  0  0  0  0  0  0  0  0  0  0  0
    3.3587   17.9507   -1.5149 H   0  0  0  0  0  0  0  0  0  0  0  0
    2.8537   20.1154   -0.5384 H   0  0  0  0  0  0  0  0  0  0  0  0
    1.3794   19.4170   -1.3642 H   0  0  0  0  0  0  0  0  0  0  0  0
    1.0642   18.5610    1.2261 H   0  0  0  0  0  0  0  0  0  0  0  0
    1.7969   20.2064    1.4332 H   0  0  0  0  0  0  0  0  0  0  0  0
    0.3862   20.8773   -0.2490 H   0  0  0  0  0  0  0  0  0  0  0  0
   -1.4492   17.7569    1.7586 H   0  0  0  0  0  0  0  0  0  0  0  0
   -2.3559   17.5205    0.2261 H   0  0  0  0  0  0  0  0  0  0  0  0
   -0.5606   17.4596    0.2261 H   0  0  0  0  0  0  0  0  0  0  0  0
   -3.2929   20.3805    0.3543 H   0  0  0  0  0  0  0  0  0  0  0  0
   -2.1760   20.8200   -0.9821 H   0  0  0  0  0  0  0  0  0  0  0  0
   -2.9905   19.2190   -0.9821 H   0  0  0  0  0  0  0  0  0  0  0  0
    1.6030   16.6196    0.3946 H   0  0  0  0  0  0  0  0  0  0  0  0
   -0.3441   17.6723   -0.5741 H   0  0  0  0  0  0  0  0  0  0  0  0
    0.5622   18.2085   -2.0051 H   0  0  0  0  0  0  0  0  0  0  0  0
   -1.2645   16.0116   -1.9222 H   0  0  0  0  0  0  0  0  0  0  0  0
   -0.1102   16.2871   -3.2238 H   0  0  0  0  0  0  0  0  0  0  0  0
    0.5528   14.8896    0.5516 H   0  0  0  0  0  0  0  0  0  0  0  0
   -1.0606   14.9622   -0.2348 H   0  0  0  0  0  0  0  0  0  0  0  0
   -0.1297   13.4260   -0.2348 H   0  0  0  0  0  0  0  0  0  0  0  0
    1.0729   14.1983   -3.5467 H   0  0  0  0  0  0  0  0  0  0  0  0
   -1.3980   13.8114   -2.9303 H   0  0  0  0  0  0  0  0  0  0  0  0
   -0.4749   12.6044   -3.9698 H   0  0  0  0  0  0  0  0  0  0  0  0
   -2.0590   11.5848   -2.1286 H   0  0  0  0  0  0  0  0  0  0  0  0
    1.4361   12.1643   -0.1919 H   0  0  0  0  0  0  0  0  0  0  0  0
    1.9898    9.7924   -2.0790 H   0  0  0  0  0  0  0  0  0  0  0  0
    3.1637   10.5687   -0.9253 H   0  0  0  0  0  0  0  0  0  0  0  0
    2.2697    8.4332   -0.0553 H   0  0  0  0  0  0  0  0  0  0  0  0
    1.8232    9.8548    0.9671 H   0  0  0  0  0  0  0  0  0  0  0  0
   -0.0932    8.4274    0.7526 H   0  0  0  0  0  0  0  0  0  0  0  0
   -0.9380    8.0750   -1.4430 H   0  0  0  0  0  0  0  0  0  0  0  0
   -0.7272   10.1433    1.9908 H   0  0  0  0  0  0  0  0  0  0  0  0
    0.0922   11.5928    1.3168 H   0  0  0  0  0  0  0  0  0  0  0  0
   -1.7013   11.4937    1.3168 H   0  0  0  0  0  0  0  0  0  0  0  0
   -2.7008    9.5826    0.4822 H   0  0  0  0  0  0  0  0  0  0  0  0
   -2.7180   10.5248   -1.0470 H   0  0  0  0  0  0  0  0  0  0  0  0
   -2.1426    8.8232   -1.0470 H   0  0  0  0  0  0  0  0  0  0  0  0
    2.7085   10.9509   -3.2687 H   0  0  0  0  0  0  0  0  0  0  0  0
    1.3094   11.6949   -4.1147 H   0  0  0  0  0  0  0  0  0  0  0  0
    2.9031   12.5235   -4.1147 H   0  0  0  0  0  0  0  0  0  0  0  0
    3.6753   12.5732   -1.0752 H   0  0  0  0  0  0  0  0  0  0  0  0
    3.6818   13.6590   -2.5772 H   0  0  0  0  0  0  0  0  0  0  0  0
    2.5587   14.3002    0.1634 H   0  0  0  0  0  0  0  0  0  0  0  0
    3.9632   15.0566   -0.6869 H   0  0  0  0  0  0  0  0  0  0  0  0
    3.5963   16.6413   -2.6182 H   0  0  0  0  0  0  0  0  0  0  0  0
    2.9875   15.1493   -3.4119 H   0  0  0  0  0  0  0  0  0  0  0  0
    1.9849   16.6397   -3.4119 H   0  0  0  0  0  0  0  0  0  0  0  0
  1  2  1  0
  2  3  1  0
  3  4  1  0
  4  5  1  0
  5  6  1  0
  6  7  1  0
  7  8  1  0
  7  9  1  0
  2 10  1  0
 10 11  1  0
 11 12  1  0
 12 13  1  0
 13 14  1  1
 13 15  1  0
 15 16  1  0
 16 17  1  0
 17 18  2  0
 18 19  1  0
 19 20  1  0
 20 21  1  0
 21 22  1  0
 22 23  1  0
 22 24  1  0
 24 25  1  0
 24 26  1  0
 19 27  1  0
 27 28  1  6
 27 29  1  0
 29 30  1  0
 30 31  1  0
 31 32  1  6
  7  5  1  0
 31 10  1  0
 31 13  1  0
 27 15  1  0
 24 18  1  0
  1 33  1  0
  1 34  1  0
  1 35  1  0
  2 36  1  6
  3 37  1  0
  3 38  1  0
  4 39  1  0
  4 40  1  0
  5 41  1  6
  8 42  1  0
  8 43  1  0
  8 44  1  0
  9 45  1  0
  9 46  1  0
  9 47  1  0
 10 48  1  1
 11 49  1  0
 11 50  1  0
 12 51  1  0
 12 52  1  0
 14 53  1  0
 14 54  1  0
 14 55  1  0
 15 56  1  6
 16 57  1  0
 16 58  1  0
 17 59  1  0
 19 60  1  1
 20 61  1  0
 20 62  1  0
 21 63  1  0
 21 64  1  0
 22 65  1  1
 23 66  1  0
 25 67  1  0
 25 68  1  0
 25 69  1  0
 26 70  1  0
 26 71  1  0
 26 72  1  0
 28 73  1  0
 28 74  1  0
 28 75  1  0
 29 76  1  0
 29 77  1  0
 30 78  1  0
 30 79  1  0
 32 80  1  0
 32 81  1  0
 32 82  1  0
M  END
>  <meeko>  (6) 
{"is_sidechain": [false], "intermolecular_energy": 2.731, "internal_energy": -0.839}

$$$$
EPH_relaxed_0001_pdb2pqr_Repair_277_r2_0001_out
     RDKit          3D

 82 86  0  0  0  0  0  0  0  0999 V2000
   -5.1750    5.8130   -1.7930 C   0  0  0  0  0  0  0  0  0  0  0  0
   -5.4700    7.3150   -1.8510 C   0  0  2  0  0  0  0  0  0  0  0  0
   -5.2340    8.0060   -0.4930 C   0  0  0  0  0  0  0  0  0  0  0  0
   -4.2110    9.1430   -0.5510 C   0  0  0  0  0  0  0  0  0  0  0  0
   -2.8260    8.6310   -0.8070 C   0  0  2  0  0  0  0  0  0  0  0  0
   -1.8640    8.9790    0.1980 O   0  0  0  0  0  0  0  0  0  0  0  0
   -1.6440    9.5320   -1.1100 C   0  0  0  0  0  0  0  0  0  0  0  0
   -1.7930   11.0200   -1.1740 C   0  0  0  0  0  0  0  0  0  0  0  0
   -0.4630    8.9480   -1.8200 C   0  0  0  0  0  0  0  0  0  0  0  0
   -6.9060    7.5450   -2.3100 C   0  0  1  0  0  0  0  0  0  0  0  0
   -7.2200    6.8470   -3.6600 C   0  0  0  0  0  0  0  0  0  0  0  0
   -8.6970    6.3790   -3.5880 C   0  0  0  0  0  0  0  0  0  0  0  0
   -9.2760    7.1050   -2.3520 C   0  0  1  0  0  0  0  0  0  0  0  0
   -9.6240    8.5410   -2.8560 C   0  0  0  0  0  0  0  0  0  0  0  0
  -10.5020    6.4230   -1.6610 C   0  0  2  0  0  0  0  0  0  0  0  0
  -11.7600    6.3000   -2.5390 C   0  0  0  0  0  0  0  0  0  0  0  0
  -12.7100    7.4490   -2.4570 C   0  0  0  0  0  0  0  0  0  0  0  0
  -12.7070    8.4000   -1.5050 C   0  0  0  0  0  0  0  0  0  0  0  0
  -11.7380    8.3230   -0.3180 C   0  0  1  0  0  0  0  0  0  0  0  0
  -12.5080    8.6080    0.9990 C   0  0  0  0  0  0  0  0  0  0  0  0
  -13.2730    9.9270    0.9550 C   0  0  0  0  0  0  0  0  0  0  0  0
  -14.2670    9.9430   -0.2040 C   0  0  2  0  0  0  0  0  0  0  0  0
  -15.2870    8.9720    0.0510 O   0  0  0  0  0  0  0  0  0  0  0  0
  -13.6070    9.6570   -1.5820 C   0  0  0  0  0  0  0  0  0  0  0  0
  -12.7260   10.8620   -1.9960 C   0  0  0  0  0  0  0  0  0  0  0  0
  -14.7380    9.5610   -2.6420 C   0  0  0  0  0  0  0  0  0  0  0  0
  -10.8490    7.0080   -0.2320 C   0  0  1  0  0  0  0  0  0  0  0  0
  -11.6250    5.8900    0.5300 C   0  0  0  0  0  0  0  0  0  0  0  0
   -9.5600    7.3130    0.6190 C   0  0  0  0  0  0  0  0  0  0  0  0
   -8.3430    7.8730   -0.1410 C   0  0  0  0  0  0  0  0  0  0  0  0
   -8.0390    7.0330   -1.3850 C   0  0  2  0  0  0  0  0  0  0  0  0
   -7.6630    5.5890   -0.9070 C   0  0  0  0  0  0  0  0  0  0  0  0
   -5.1120    5.4920   -0.7428 H   0  0  0  0  0  0  0  0  0  0  0  0
   -5.9819    5.2611   -2.2973 H   0  0  0  0  0  0  0  0  0  0  0  0
   -4.2193    5.6073   -2.2973 H   0  0  0  0  0  0  0  0  0  0  0  0
   -4.7720    7.7619   -2.5743 H   0  0  0  0  0  0  0  0  0  0  0  0
   -6.1916    8.4180   -0.1419 H   0  0  0  0  0  0  0  0  0  0  0  0
   -4.8295    7.2440    0.1895 H   0  0  0  0  0  0  0  0  0  0  0  0
   -4.4910    9.8333   -1.3604 H   0  0  0  0  0  0  0  0  0  0  0  0
   -4.2124    9.6551    0.4225 H   0  0  0  0  0  0  0  0  0  0  0  0
   -3.2236    7.7400   -1.3150 H   0  0  0  0  0  0  0  0  0  0  0  0
   -1.8339   11.4286   -0.1535 H   0  0  0  0  0  0  0  0  0  0  0  0
   -0.9336   11.4519   -1.7077 H   0  0  0  0  0  0  0  0  0  0  0  0
   -2.7210   11.2730   -1.7077 H   0  0  0  0  0  0  0  0  0  0  0  0
    0.2674    8.5868   -1.0810 H   0  0  0  0  0  0  0  0  0  0  0  0
   -0.7923    8.1089   -2.4504 H   0  0  0  0  0  0  0  0  0  0  0  0
    0.0039    9.7191   -2.4504 H   0  0  0  0  0  0  0  0  0  0  0  0
   -6.9156    8.6445   -2.3430 H   0  0  0  0  0  0  0  0  0  0  0  0
   -7.0866    7.5540   -4.4921 H   0  0  0  0  0  0  0  0  0  0  0  0
   -6.5438    5.9966   -3.8319 H   0  0  0  0  0  0  0  0  0  0  0  0
   -9.2411    6.6689   -4.4990 H   0  0  0  0  0  0  0  0  0  0  0  0
   -8.7848    5.2854   -3.5087 H   0  0  0  0  0  0  0  0  0  0  0  0
   -9.7846    9.2037   -1.9928 H   0  0  0  0  0  0  0  0  0  0  0  0
   -8.7934    8.9271   -3.4652 H   0  0  0  0  0  0  0  0  0  0  0  0
  -10.5392    8.5040   -3.4652 H   0  0  0  0  0  0  0  0  0  0  0  0
  -10.1439    5.3945   -1.5060 H   0  0  0  0  0  0  0  0  0  0  0  0
  -11.4358    6.2011   -3.5855 H   0  0  0  0  0  0  0  0  0  0  0  0
  -12.3089    5.4240   -2.1631 H   0  0  0  0  0  0  0  0  0  0  0  0
  -13.4775    7.5245   -3.2414 H   0  0  0  0  0  0  0  0  0  0  0  0
  -10.9863    9.1077   -0.4886 H   0  0  0  0  0  0  0  0  0  0  0  0
  -13.2236    7.7909    1.1731 H   0  0  0  0  0  0  0  0  0  0  0  0
  -11.7683    8.6777    1.8101 H   0  0  0  0  0  0  0  0  0  0  0  0
  -13.8201   10.0575    1.9003 H   0  0  0  0  0  0  0  0  0  0  0  0
  -12.5528   10.7459    0.8112 H   0  0  0  0  0  0  0  0  0  0  0  0
  -14.6886   10.9573   -0.2629 H   0  0  0  0  0  0  0  0  0  0  0  0
  -16.1310    9.3430   -0.2580 H   0  0  0  0  0  0  0  0  0  0  0  0
  -12.3539   11.3710   -1.0946 H   0  0  0  0  0  0  0  0  0  0  0  0
  -11.8742   10.5053   -2.5937 H   0  0  0  0  0  0  0  0  0  0  0  0
  -13.3243   11.5654   -2.5937 H   0  0  0  0  0  0  0  0  0  0  0  0
  -15.7103    9.4785   -2.1343 H   0  0  0  0  0  0  0  0  0  0  0  0
  -14.7283   10.4632   -3.2712 H   0  0  0  0  0  0  0  0  0  0  0  0
  -14.5764    8.6733   -3.2712 H   0  0  0  0  0  0  0  0  0  0  0  0
  -11.5185    6.0434    1.6140 H   0  0  0  0  0  0  0  0  0  0  0  0
  -12.6897    5.9312    0.2567 H   0  0  0  0  0  0  0  0  0  0  0  0
  -11.2140    4.9069    0.2567 H   0  0  0  0  0  0  0  0  0  0  0  0
   -9.8366    8.0462    1.3909 H   0  0  0  0  0  0  0  0  0  0  0  0
   -9.2332    6.3368    1.0067 H   0  0  0  0  0  0  0  0  0  0  0  0
   -8.5558    8.9075   -0.4486 H   0  0  0  0  0  0  0  0  0  0  0  0
   -7.4685    7.8414    0.5256 H   0  0  0  0  0  0  0  0  0  0  0  0
   -7.6547    5.5573    0.1925 H   0  0  0  0  0  0  0  0  0  0  0  0
   -8.4043    4.8717   -1.2890 H   0  0  0  0  0  0  0  0  0  0  0  0
   -6.6660    5.3243   -1.2890 H   0  0  0  0  0  0  0  0  0  0  0  0
  1  2  1  0
  2  3  1  0
  3  4  1  0
  4  5  1  0
  5  6  1  0
  6  7  1  0
  7  8  1  0
  7  9  1  0
  2 10  1  0
 10 11  1  0
 11 12  1  0
 12 13  1  0
 13 14  1  6
 13 15  1  0
 15 16  1  0
 16 17  1  0
 17 18  2  0
 18 19  1  0
 19 20  1  0
 20 21  1  0
 21 22  1  0
 22 23  1  0
 22 24  1  0
 24 25  1  0
 24 26  1  0
 19 27  1  0
 27 28  1  1
 27 29  1  0
 29 30  1  0
 30 31  1  0
 31 32  1  1
  7  5  1  0
 31 10  1  0
 31 13  1  0
 27 15  1  0
 24 18  1  0
  1 33  1  0
  1 34  1  0
  1 35  1  0
  2 36  1  6
  3 37  1  0
  3 38  1  0
  4 39  1  0
  4 40  1  0
  5 41  1  6
  8 42  1  0
  8 43  1  0
  8 44  1  0
  9 45  1  0
  9 46  1  0
  9 47  1  0
 10 48  1  6
 11 49  1  0
 11 50  1  0
 12 51  1  0
 12 52  1  0
 14 53  1  0
 14 54  1  0
 14 55  1  0
 15 56  1  1
 16 57  1  0
 16 58  1  0
 17 59  1  0
 19 60  1  6
 20 61  1  0
 20 62  1  0
 21 63  1  0
 21 64  1  0
 22 65  1  6
 23 66  1  0
 25 67  1  0
 25 68  1  0
 25 69  1  0
 26 70  1  0
 26 71  1  0
 26 72  1  0
 28 73  1  0
 28 74  1  0
 28 75  1  0
 29 76  1  0
 29 77  1  0
 30 78  1  0
 30 79  1  0
 32 80  1  0
 32 81  1  0
 32 82  1  0
M  END
>  <meeko>  (7) 
{"is_sidechain": [false], "intermolecular_energy": 2.731, "internal_energy": -0.839}

$$$$
EPH_relaxed_0001_pdb2pqr_Repair_277_r2_0001_out
     RDKit          3D

 82 86  0  0  0  0  0  0  0  0999 V2000
    0.4050    8.8690   -2.5130 C   0  0  0  0  0  0  0  0  0  0  0  0
    1.1650   10.0260   -3.1670 C   0  0  2  0  0  0  0  0  0  0  0  0
    2.6600   10.0270   -2.7860 C   0  0  0  0  0  0  0  0  0  0  0  0
    3.5680   10.6300   -3.8620 C   0  0  0  0  0  0  0  0  0  0  0  0
    4.9580   10.8580   -3.3490 C   0  0  2  0  0  0  0  0  0  0  0  0
    5.5730   12.0690   -3.8080 O   0  0  0  0  0  0  0  0  0  0  0  0
    6.1890   10.8430   -4.2350 C   0  0  0  0  0  0  0  0  0  0  0  0
    6.0880   10.5920   -5.7070 C   0  0  0  0  0  0  0  0  0  0  0  0
    7.5220   10.5860   -3.6040 C   0  0  0  0  0  0  0  0  0  0  0  0
    0.5280   11.3540   -2.7750 C   0  0  1  0  0  0  0  0  0  0  0  0
   -0.8480   11.1740   -2.0800 C   0  0  0  0  0  0  0  0  0  0  0  0
   -0.9620   12.2950   -1.0150 C   0  0  0  0  0  0  0  0  0  0  0  0
    0.1880   13.2730   -1.3540 C   0  0  1  0  0  0  0  0  0  0  0  0
   -0.3630   14.1510   -2.5200 C   0  0  0  0  0  0  0  0  0  0  0  0
    0.7200   14.1490   -0.1730 C   0  0  2  0  0  0  0  0  0  0  0  0
   -0.3090   15.1150    0.4380 C   0  0  0  0  0  0  0  0  0  0  0  0
   -0.3530   16.4740   -0.1800 C   0  0  0  0  0  0  0  0  0  0  0  0
    0.5880   16.9960   -0.9880 C   0  0  0  0  0  0  0  0  0  0  0  0
    1.8880   16.2360   -1.2780 C   0  0  1  0  0  0  0  0  0  0  0  0
    3.0950   17.2000   -1.1330 C   0  0  0  0  0  0  0  0  0  0  0  0
    2.9490   18.4530   -1.9900 C   0  0  0  0  0  0  0  0  0  0  0  0
    1.6740   19.2130   -1.6320 C   0  0  2  0  0  0  0  0  0  0  0  0
    1.8020   19.7290   -0.3040 O   0  0  0  0  0  0  0  0  0  0  0  0
    0.3920   18.3400   -1.7330 C   0  0  0  0  0  0  0  0  0  0  0  0
    0.0870   18.0320   -3.2190 C   0  0  0  0  0  0  0  0  0  0  0  0
   -0.8020   19.1840   -1.2110 C   0  0  0  0  0  0  0  0  0  0  0  0
    2.0910   14.8790   -0.4750 C   0  0  1  0  0  0  0  0  0  0  0  0
    2.7540   15.1710    0.9060 C   0  0  0  0  0  0  0  0  0  0  0  0
    3.0970   13.9610   -1.2650 C   0  0  0  0  0  0  0  0  0  0  0  0
    2.4950   13.0310   -2.3360 C   0  0  0  0  0  0  0  0  0  0  0  0
    1.3040   12.2490   -1.7760 C   0  0  2  0  0  0  0  0  0  0  0  0
    1.8310   11.3390   -0.6150 C   0  0  0  0  0  0  0  0  0  0  0  0
    0.4662    8.9622   -1.4187 H   0  0  0  0  0  0  0  0  0  0  0  0
   -0.6493    8.8999   -2.8252 H   0  0  0  0  0  0  0  0  0  0  0  0
    0.8520    7.9137   -2.8252 H   0  0  0  0  0  0  0  0  0  0  0  0
    1.1010    9.8900   -4.2567 H   0  0  0  0  0  0  0  0  0  0  0  0
    2.7825   10.6100   -1.8613 H   0  0  0  0  0  0  0  0  0  0  0  0
    2.9614    8.9764   -2.6621 H   0  0  0  0  0  0  0  0  0  0  0  0
    3.6124    9.9410   -4.7184 H   0  0  0  0  0  0  0  0  0  0  0  0
    3.1483   11.6021   -4.1602 H   0  0  0  0  0  0  0  0  0  0  0  0
    4.7212   10.3420   -2.4068 H   0  0  0  0  0  0  0  0  0  0  0  0
    5.6825    9.5842   -5.8801 H   0  0  0  0  0  0  0  0  0  0  0  0
    5.4204   11.3389   -6.1614 H   0  0  0  0  0  0  0  0  0  0  0  0
    7.0869   10.6684   -6.1614 H   0  0  0  0  0  0  0  0  0  0  0  0
    7.4193   10.6058   -2.5090 H   0  0  0  0  0  0  0  0  0  0  0  0
    7.8931    9.5998   -3.9197 H   0  0  0  0  0  0  0  0  0  0  0  0
    8.2331   11.3636   -3.9197 H   0  0  0  0  0  0  0  0  0  0  0  0
    0.4900   11.8381   -3.7620 H   0  0  0  0  0  0  0  0  0  0  0  0
   -1.6595   11.2676   -2.8167 H   0  0  0  0  0  0  0  0  0  0  0  0
   -0.9291   10.1797   -1.6166 H   0  0  0  0  0  0  0  0  0  0  0  0
   -1.9361   12.8011   -1.0865 H   0  0  0  0  0  0  0  0  0  0  0  0
   -0.8894   11.9050    0.0110 H   0  0  0  0  0  0  0  0  0  0  0  0
   -0.9045   15.0139   -2.1050 H   0  0  0  0  0  0  0  0  0  0  0  0
    0.4743   14.5065   -3.1386 H   0  0  0  0  0  0  0  0  0  0  0  0
   -1.0472   13.5517   -3.1386 H   0  0  0  0  0  0  0  0  0  0  0  0
    0.9226   13.3985    0.6053 H   0  0  0  0  0  0  0  0  0  0  0  0
   -1.3055   14.6613    0.3328 H   0  0  0  0  0  0  0  0  0  0  0  0
   -0.0019   15.2657    1.4835 H   0  0  0  0  0  0  0  0  0  0  0  0
   -1.2285   17.1011    0.0443 H   0  0  0  0  0  0  0  0  0  0  0  0
    1.8115   15.8880   -2.3187 H   0  0  0  0  0  0  0  0  0  0  0  0
    3.1805   17.5019   -0.0787 H   0  0  0  0  0  0  0  0  0  0  0  0
    3.9930   16.6645   -1.4749 H   0  0  0  0  0  0  0  0  0  0  0  0
    3.8173   19.1072   -1.8222 H   0  0  0  0  0  0  0  0  0  0  0  0
    2.8933   18.1515   -3.0464 H   0  0  0  0  0  0  0  0  0  0  0  0
    1.5580   20.0260   -2.3638 H   0  0  0  0  0  0  0  0  0  0  0  0
    0.9120   19.9640    0.0080 H   0  0  0  0  0  0  0  0  0  0  0  0
   -0.6858   17.2516   -3.2806 H   0  0  0  0  0  0  0  0  0  0  0  0
   -0.2732   18.9447   -3.7162 H   0  0  0  0  0  0  0  0  0  0  0  0
    1.0032   17.6808   -3.7162 H   0  0  0  0  0  0  0  0  0  0  0  0
   -0.7992   19.1821   -0.1110 H   0  0  0  0  0  0  0  0  0  0  0  0
   -0.7079   20.2174   -1.5761 H   0  0  0  0  0  0  0  0  0  0  0  0
   -1.7448   18.7505   -1.5761 H   0  0  0  0  0  0  0  0  0  0  0  0
    2.0694   14.8695    1.7125 H   0  0  0  0  0  0  0  0  0  0  0  0
    3.6921   14.6028    0.9898 H   0  0  0  0  0  0  0  0  0  0  0  0
    2.9681   16.2467    0.9898 H   0  0  0  0  0  0  0  0  0  0  0  0
    3.8241   14.6176   -1.7652 H   0  0  0  0  0  0  0  0  0  0  0  0
    3.5273   13.2881   -0.5086 H   0  0  0  0  0  0  0  0  0  0  0  0
    2.1582   13.6366   -3.1903 H   0  0  0  0  0  0  0  0  0  0  0  0
    3.2673   12.3146   -2.6526 H   0  0  0  0  0  0  0  0  0  0  0  0
    1.5691   11.7912    0.3530 H   0  0  0  0  0  0  0  0  0  0  0  0
    1.3697   10.3433   -0.6913 H   0  0  0  0  0  0  0  0  0  0  0  0
    2.9242   11.2435   -0.6913 H   0  0  0  0  0  0  0  0  0  0  0  0
  1  2  1  0
  2  3  1  0
  3  4  1  0
  4  5  1  0
  5  6  1  0
  6  7  1  0
  7  8  1  0
  7  9  1  0
  2 10  1  0
 10 11  1  0
 11 12  1  0
 12 13  1  0
 13 14  1  6
 13 15  1  0
 15 16  1  0
 16 17  1  0
 17 18  2  0
 18 19  1  0
 19 20  1  0
 20 21  1  0
 21 22  1  0
 22 23  1  0
 22 24  1  0
 24 25  1  0
 24 26  1  0
 19 27  1  0
 27 28  1  1
 27 29  1  0
 29 30  1  0
 30 31  1  0
 31 32  1  1
  7  5  1  0
 31 10  1  0
 31 13  1  0
 27 15  1  0
 24 18  1  0
  1 33  1  0
  1 34  1  0
  1 35  1  0
  2 36  1  6
  3 37  1  0
  3 38  1  0
  4 39  1  0
  4 40  1  0
  5 41  1  1
  8 42  1  0
  8 43  1  0
  8 44  1  0
  9 45  1  0
  9 46  1  0
  9 47  1  0
 10 48  1  6
 11 49  1  0
 11 50  1  0
 12 51  1  0
 12 52  1  0
 14 53  1  0
 14 54  1  0
 14 55  1  0
 15 56  1  1
 16 57  1  0
 16 58  1  0
 17 59  1  0
 19 60  1  6
 20 61  1  0
 20 62  1  0
 21 63  1  0
 21 64  1  0
 22 65  1  6
 23 66  1  0
 25 67  1  0
 25 68  1  0
 25 69  1  0
 26 70  1  0
 26 71  1  0
 26 72  1  0
 28 73  1  0
 28 74  1  0
 28 75  1  0
 29 76  1  0
 29 77  1  0
 30 78  1  0
 30 79  1  0
 32 80  1  0
 32 81  1  0
 32 82  1  0
M  END
>  <meeko>  (8) 
{"is_sidechain": [false], "intermolecular_energy": 2.731, "internal_energy": -0.839}

$$$$
EPH_relaxed_0001_pdb2pqr_Repair_277_r2_0001_out
     RDKit          3D

 82 86  0  0  0  0  0  0  0  0999 V2000
    3.1130   18.3160   -3.4930 C   0  0  0  0  0  0  0  0  0  0  0  0
    2.1420   18.0440   -2.3400 C   0  0  2  0  0  0  0  0  0  0  0  0
    2.2410   19.1120   -1.2330 C   0  0  0  0  0  0  0  0  0  0  0  0
    1.1600   20.1930   -1.3230 C   0  0  0  0  0  0  0  0  0  0  0  0
    0.0320   19.9300   -0.3730 C   0  0  2  0  0  0  0  0  0  0  0  0
   -0.6830   18.7110   -0.6140 O   0  0  0  0  0  0  0  0  0  0  0  0
   -1.4280   19.9280   -0.7870 C   0  0  0  0  0  0  0  0  0  0  0  0
   -1.8380   20.1940   -2.2010 C   0  0  0  0  0  0  0  0  0  0  0  0
   -2.4700   20.1500    0.2640 C   0  0  0  0  0  0  0  0  0  0  0  0
    2.4060   16.6610   -1.7550 C   0  0  1  0  0  0  0  0  0  0  0  0
    3.0800   16.7220   -0.3580 C   0  0  0  0  0  0  0  0  0  0  0  0
    2.5190   15.5320    0.4620 C   0  0  0  0  0  0  0  0  0  0  0  0
    1.8050   14.6410   -0.5820 C   0  0  1  0  0  0  0  0  0  0  0  0
    2.9460   13.8090   -1.2470 C   0  0  0  0  0  0  0  0  0  0  0  0
    0.6620   13.7230   -0.0410 C   0  0  2  0  0  0  0  0  0  0  0  0
    1.1050   12.6650    0.9850 C   0  0  0  0  0  0  0  0  0  0  0  0
    1.5080   11.3480    0.4090 C   0  0  0  0  0  0  0  0  0  0  0  0
    1.2470   10.9290   -0.8430 C   0  0  0  0  0  0  0  0  0  0  0  0
    0.3920   11.7760   -1.7940 C   0  0  1  0  0  0  0  0  0  0  0  0
   -0.6610   10.8720   -2.4880 C   0  0  0  0  0  0  0  0  0  0  0  0
   -0.0310    9.6690   -3.1840 C   0  0  0  0  0  0  0  0  0  0  0  0
    0.7620    8.8200   -2.1940 C   0  0  2  0  0  0  0  0  0  0  0  0
   -0.1480    8.2290   -1.2600 O   0  0  0  0  0  0  0  0  0  0  0  0
    1.8470    9.6270   -1.4270 C   0  0  0  0  0  0  0  0  0  0  0  0
    2.9920   10.0110   -2.3960 C   0  0  0  0  0  0  0  0  0  0  0  0
    2.4760    8.6880   -0.3620 C   0  0  0  0  0  0  0  0  0  0  0  0
   -0.2490   13.0890   -1.1680 C   0  0  1  0  0  0  0  0  0  0  0  0
   -1.6150   12.7460   -0.4970 C   0  0  0  0  0  0  0  0  0  0  0  0
   -0.5660   14.1080   -2.3250 C   0  0  0  0  0  0  0  0  0  0  0  0
    0.5660   15.0690   -2.7340 C   0  0  0  0  0  0  0  0  0  0  0  0
    1.1790   15.7490   -1.5060 C   0  0  2  0  0  0  0  0  0  0  0  0
    0.0590   16.6110   -0.8280 C   0  0  0  0  0  0  0  0  0  0  0  0
    4.0972   18.5917   -3.0863 H   0  0  0  0  0  0  0  0  0  0  0  0
    3.2118   17.4110   -4.1104 H   0  0  0  0  0  0  0  0  0  0  0  0
    2.7273   19.1407   -4.1104 H   0  0  0  0  0  0  0  0  0  0  0  0
    1.1217   18.0869   -2.7488 H   0  0  0  0  0  0  0  0  0  0  0  0
    2.1510   18.6110   -0.2579 H   0  0  0  0  0  0  0  0  0  0  0  0
    3.2109   19.6157   -1.3577 H   0  0  0  0  0  0  0  0  0  0  0  0
    1.6095   21.1675   -1.0814 H   0  0  0  0  0  0  0  0  0  0  0  0
    0.7548   20.1880   -2.3457 H   0  0  0  0  0  0  0  0  0  0  0  0
    0.5675   20.4415    0.4404 H   0  0  0  0  0  0  0  0  0  0  0  0
   -2.7608   20.7927   -2.2088 H   0  0  0  0  0  0  0  0  0  0  0  0
   -1.0385   20.7459   -2.7169 H   0  0  0  0  0  0  0  0  0  0  0  0
   -2.0162   19.2390   -2.7169 H   0  0  0  0  0  0  0  0  0  0  0  0
   -2.0130   20.0526    1.2598 H   0  0  0  0  0  0  0  0  0  0  0  0
   -2.8943   21.1587    0.1524 H   0  0  0  0  0  0  0  0  0  0  0  0
   -3.2686   19.4018    0.1524 H   0  0  0  0  0  0  0  0  0  0  0  0
    3.0330   16.2389   -2.5542 H   0  0  0  0  0  0  0  0  0  0  0  0
    4.1715   16.6307   -0.4598 H   0  0  0  0  0  0  0  0  0  0  0  0
    2.8689   17.6795    0.1407 H   0  0  0  0  0  0  0  0  0  0  0  0
    3.3342   14.9792    0.9517 H   0  0  0  0  0  0  0  0  0  0  0  0
    1.8411   15.8604    1.2636 H   0  0  0  0  0  0  0  0  0  0  0  0
    3.5710   13.3532   -0.4650 H   0  0  0  0  0  0  0  0  0  0  0  0
    2.5064   13.0180   -1.8723 H   0  0  0  0  0  0  0  0  0  0  0  0
    3.5647   14.4694   -1.8723 H   0  0  0  0  0  0  0  0  0  0  0  0
    0.0329   14.4336    0.5152 H   0  0  0  0  0  0  0  0  0  0  0  0
    1.9633   13.0696    1.5415 H   0  0  0  0  0  0  0  0  0  0  0  0
    0.2259   12.4654    1.6153 H   0  0  0  0  0  0  0  0  0  0  0  0
    2.0656   10.6618    1.0634 H   0  0  0  0  0  0  0  0  0  0  0  0
    1.0858   12.1845   -2.5435 H   0  0  0  0  0  0  0  0  0  0  0  0
   -1.3695   10.5091   -1.7289 H   0  0  0  0  0  0  0  0  0  0  0  0
   -1.1656   11.4761   -3.2564 H   0  0  0  0  0  0  0  0  0  0  0  0
   -0.8264    9.0536   -3.6297 H   0  0  0  0  0  0  0  0  0  0  0  0
    0.6552   10.0334   -3.9627 H   0  0  0  0  0  0  0  0  0  0  0  0
    1.2936    8.0497   -2.7720 H   0  0  0  0  0  0  0  0  0  0  0  0
   -1.0080    8.1390   -1.7040 H   0  0  0  0  0  0  0  0  0  0  0  0
    3.8785   10.3083   -1.8166 H   0  0  0  0  0  0  0  0  0  0  0  0
    3.2411    9.1472   -3.0299 H   0  0  0  0  0  0  0  0  0  0  0  0
    2.6699   10.8503   -3.0299 H   0  0  0  0  0  0  0  0  0  0  0  0
    2.2287    9.0572    0.6442 H   0  0  0  0  0  0  0  0  0  0  0  0
    2.0762    7.6710   -0.4879 H   0  0  0  0  0  0  0  0  0  0  0  0
    3.5686    8.6707   -0.4879 H   0  0  0  0  0  0  0  0  0  0  0  0
   -1.5034   12.7740    0.5970 H   0  0  0  0  0  0  0  0  0  0  0  0
   -2.3711   13.4822   -0.8074 H   0  0  0  0  0  0  0  0  0  0  0  0
   -1.9336   11.7400   -0.8074 H   0  0  0  0  0  0  0  0  0  0  0  0
   -0.8450   13.5247   -3.2149 H   0  0  0  0  0  0  0  0  0  0  0  0
   -1.3630   14.7544   -1.9287 H   0  0  0  0  0  0  0  0  0  0  0  0
    1.3483   14.5008   -3.2586 H   0  0  0  0  0  0  0  0  0  0  0  0
    0.1468   15.8448   -3.3915 H   0  0  0  0  0  0  0  0  0  0  0  0
    0.1525   16.5390    0.2657 H   0  0  0  0  0  0  0  0  0  0  0  0
    0.1671   17.6612   -1.1369 H   0  0  0  0  0  0  0  0  0  0  0  0
   -0.9285   16.2377   -1.1369 H   0  0  0  0  0  0  0  0  0  0  0  0
  1  2  1  0
  2  3  1  0
  3  4  1  0
  4  5  1  0
  5  6  1  0
  6  7  1  0
  7  8  1  0
  7  9  1  0
  2 10  1  0
 10 11  1  0
 11 12  1  0
 12 13  1  0
 13 14  1  6
 13 15  1  0
 15 16  1  0
 16 17  1  0
 17 18  2  0
 18 19  1  0
 19 20  1  0
 20 21  1  0
 21 22  1  0
 22 23  1  0
 22 24  1  0
 24 25  1  0
 24 26  1  0
 19 27  1  0
 27 28  1  1
 27 29  1  0
 29 30  1  0
 30 31  1  0
 31 32  1  1
  7  5  1  0
 31 10  1  0
 31 13  1  0
 27 15  1  0
 24 18  1  0
  1 33  1  0
  1 34  1  0
  1 35  1  0
  2 36  1  6
  3 37  1  0
  3 38  1  0
  4 39  1  0
  4 40  1  0
  5 41  1  1
  8 42  1  0
  8 43  1  0
  8 44  1  0
  9 45  1  0
  9 46  1  0
  9 47  1  0
 10 48  1  6
 11 49  1  0
 11 50  1  0
 12 51  1  0
 12 52  1  0
 14 53  1  0
 14 54  1  0
 14 55  1  0
 15 56  1  1
 16 57  1  0
 16 58  1  0
 17 59  1  0
 19 60  1  6
 20 61  1  0
 20 62  1  0
 21 63  1  0
 21 64  1  0
 22 65  1  6
 23 66  1  0
 25 67  1  0
 25 68  1  0
 25 69  1  0
 26 70  1  0
 26 71  1  0
 26 72  1  0
 28 73  1  0
 28 74  1  0
 28 75  1  0
 29 76  1  0
 29 77  1  0
 30 78  1  0
 30 79  1  0
 32 80  1  0
 32 81  1  0
 32 82  1  0
M  END
>  <meeko>  (9) 
{"is_sidechain": [false], "intermolecular_energy": 2.731, "internal_energy": -0.839}

$$$$
EPH_relaxed_0001_pdb2pqr_Repair_277_r2_0001_out
     RDKit          3D

 82 86  0  0  0  0  0  0  0  0999 V2000
   -0.9480   16.3780   -5.8810 C   0  0  0  0  0  0  0  0  0  0  0  0
    0.1610   15.6890   -6.6810 C   0  0  2  0  0  0  0  0  0  0  0  0
   -0.2280   15.4900   -8.1600 C   0  0  0  0  0  0  0  0  0  0  0  0
    0.4290   16.4960   -9.1100 C   0  0  0  0  0  0  0  0  0  0  0  0
    1.8360   16.1050   -9.4440 C   0  0  2  0  0  0  0  0  0  0  0  0
    2.3420   16.6720  -10.6600 O   0  0  0  0  0  0  0  0  0  0  0  0
    2.2040   15.2420  -10.6370 C   0  0  0  0  0  0  0  0  0  0  0  0
    1.1590   14.7160  -11.5710 C   0  0  0  0  0  0  0  0  0  0  0  0
    3.5100   14.5110  -10.6150 C   0  0  0  0  0  0  0  0  0  0  0  0
    0.5010   14.3450   -6.0470 C   0  0  1  0  0  0  0  0  0  0  0  0
    1.7360   13.6710   -6.7020 C   0  0  0  0  0  0  0  0  0  0  0  0
    2.4890   12.9230   -5.5720 C   0  0  0  0  0  0  0  0  0  0  0  0
    1.4980   12.9110   -4.3840 C   0  0  1  0  0  0  0  0  0  0  0  0
    0.5220   11.7310   -4.6870 C   0  0  0  0  0  0  0  0  0  0  0  0
    2.1290   12.7870   -2.9590 C   0  0  2  0  0  0  0  0  0  0  0  0
    2.9050   11.4830   -2.7000 C   0  0  0  0  0  0  0  0  0  0  0  0
    2.0970   10.3630   -2.1330 C   0  0  0  0  0  0  0  0  0  0  0  0
    0.8760   10.4820   -1.5790 C   0  0  0  0  0  0  0  0  0  0  0  0
    0.2260   11.8590   -1.3920 C   0  0  1  0  0  0  0  0  0  0  0  0
   -0.3600   11.9650    0.0400 C   0  0  0  0  0  0  0  0  0  0  0  0
   -1.3140   10.8200    0.3680 C   0  0  0  0  0  0  0  0  0  0  0  0
   -0.6140    9.4700    0.2280 C   0  0  2  0  0  0  0  0  0  0  0  0
    0.3940    9.3660    1.2370 O   0  0  0  0  0  0  0  0  0  0  0  0
    0.0240    9.2540   -1.1730 C   0  0  0  0  0  0  0  0  0  0  0  0
   -1.0920    9.0660   -2.2300 C   0  0  0  0  0  0  0  0  0  0  0  0
    0.8160    7.9190   -1.1350 C   0  0  0  0  0  0  0  0  0  0  0  0
    1.1280   13.1090   -1.7770 C   0  0  1  0  0  0  0  0  0  0  0  0
    2.0020   13.5300   -0.5560 C   0  0  0  0  0  0  0  0  0  0  0  0
    0.1960   14.3360   -2.0990 C   0  0  0  0  0  0  0  0  0  0  0  0
   -0.2980   14.4700   -3.5520 C   0  0  0  0  0  0  0  0  0  0  0  0
    0.8650   14.3420   -4.5410 C   0  0  2  0  0  0  0  0  0  0  0  0
    1.8520   15.5290   -4.2750 C   0  0  0  0  0  0  0  0  0  0  0  0
   -0.7533   16.2570   -4.8051 H   0  0  0  0  0  0  0  0  0  0  0  0
   -0.9697   17.4489   -6.1316 H   0  0  0  0  0  0  0  0  0  0  0  0
   -1.9177   15.9231   -6.1316 H   0  0  0  0  0  0  0  0  0  0  0  0
    1.0433   16.3455   -6.6568 H   0  0  0  0  0  0  0  0  0  0  0  0
    0.0728   14.4768   -8.4649 H   0  0  0  0  0  0  0  0  0  0  0  0
   -1.3149   15.6440   -8.2301 H   0  0  0  0  0  0  0  0  0  0  0  0
   -0.1577   16.5445  -10.0392 H   0  0  0  0  0  0  0  0  0  0  0  0
    0.4548   17.4748   -8.6087 H   0  0  0  0  0  0  0  0  0  0  0  0
    2.0960   16.0386   -8.3772 H   0  0  0  0  0  0  0  0  0  0  0  0
    0.3251   14.2963  -10.9893 H   0  0  0  0  0  0  0  0  0  0  0  0
    0.7882   15.5349  -12.2050 H   0  0  0  0  0  0  0  0  0  0  0  0
    1.5958   13.9304  -12.2050 H   0  0  0  0  0  0  0  0  0  0  0  0
    3.8166   14.3394   -9.5726 H   0  0  0  0  0  0  0  0  0  0  0  0
    3.3979   13.5445  -11.1281 H   0  0  0  0  0  0  0  0  0  0  0  0
    4.2752   15.1119  -11.1281 H   0  0  0  0  0  0  0  0  0  0  0  0
   -0.4522   13.8193   -6.2052 H   0  0  0  0  0  0  0  0  0  0  0  0
    1.4131   12.9603   -7.4770 H   0  0  0  0  0  0  0  0  0  0  0  0
    2.3853   14.4179   -7.1822 H   0  0  0  0  0  0  0  0  0  0  0  0
    2.7353   11.8969   -5.8826 H   0  0  0  0  0  0  0  0  0  0  0  0
    3.4427   13.4071   -5.3148 H   0  0  0  0  0  0  0  0  0  0  0  0
    0.1644   11.2987   -3.7408 H   0  0  0  0  0  0  0  0  0  0  0  0
   -0.3352   12.1038   -5.2669 H   0  0  0  0  0  0  0  0  0  0  0  0
    1.0490   10.9590   -5.2669 H   0  0  0  0  0  0  0  0  0  0  0  0
    2.8838   13.5872   -2.9645 H   0  0  0  0  0  0  0  0  0  0  0  0
    3.3308   11.1450   -3.6563 H   0  0  0  0  0  0  0  0  0  0  0  0
    3.6639   11.7256   -1.9416 H   0  0  0  0  0  0  0  0  0  0  0  0
    2.5366    9.3554   -2.1712 H   0  0  0  0  0  0  0  0  0  0  0  0
   -0.5860   11.9152   -2.1319 H   0  0  0  0  0  0  0  0  0  0  0  0
    0.4694   11.9508    0.7624 H   0  0  0  0  0  0  0  0  0  0  0  0
   -0.9316   12.9030    0.0983 H   0  0  0  0  0  0  0  0  0  0  0  0
   -1.6720   10.9345    1.4018 H   0  0  0  0  0  0  0  0  0  0  0  0
   -2.1579   10.8530   -0.3368 H   0  0  0  0  0  0  0  0  0  0  0  0
   -1.3781    8.6880    0.3490 H   0  0  0  0  0  0  0  0  0  0  0  0
    0.0410    9.7690    2.0490 H   0  0  0  0  0  0  0  0  0  0  0  0
   -2.0543    8.9039   -1.7223 H   0  0  0  0  0  0  0  0  0  0  0  0
   -1.1564    9.9659   -2.8592 H   0  0  0  0  0  0  0  0  0  0  0  0
   -0.8580    8.1946   -2.8592 H   0  0  0  0  0  0  0  0  0  0  0  0
    0.9901    7.6256   -0.0892 H   0  0  0  0  0  0  0  0  0  0  0  0
    0.2371    7.1346   -1.6444 H   0  0  0  0  0  0  0  0  0  0  0  0
    1.7819    8.0511   -1.6444 H   0  0  0  0  0  0  0  0  0  0  0  0
    1.4759   13.2766    0.3762 H   0  0  0  0  0  0  0  0  0  0  0  0
    2.9630   12.9960   -0.5915 H   0  0  0  0  0  0  0  0  0  0  0  0
    2.1835   14.6143   -0.5915 H   0  0  0  0  0  0  0  0  0  0  0  0
   -0.6902   14.2597   -1.4518 H   0  0  0  0  0  0  0  0  0  0  0  0
    0.8195   15.2251   -1.9236 H   0  0  0  0  0  0  0  0  0  0  0  0
   -1.0331   13.6777   -3.7566 H   0  0  0  0  0  0  0  0  0  0  0  0
   -0.7564   15.4622   -3.6764 H   0  0  0  0  0  0  0  0  0  0  0  0
    1.9704   15.6714   -3.1907 H   0  0  0  0  0  0  0  0  0  0  0  0
    2.8299   15.3003   -4.7238 H   0  0  0  0  0  0  0  0  0  0  0  0
    1.4487   16.4488   -4.7238 H   0  0  0  0  0  0  0  0  0  0  0  0
  1  2  1  0
  2  3  1  0
  3  4  1  0
  4  5  1  0
  5  6  1  0
  6  7  1  0
  7  8  1  0
  7  9  1  0
  2 10  1  0
 10 11  1  0
 11 12  1  0
 12 13  1  0
 13 14  1  6
 13 15  1  0
 15 16  1  0
 16 17  1  0
 17 18  2  0
 18 19  1  0
 19 20  1  0
 20 21  1  0
 21 22  1  0
 22 23  1  0
 22 24  1  0
 24 25  1  0
 24 26  1  0
 19 27  1  0
 27 28  1  1
 27 29  1  0
 29 30  1  0
 30 31  1  0
 31 32  1  6
  7  5  1  0
 31 10  1  0
 31 13  1  0
 27 15  1  0
 24 18  1  0
  1 33  1  0
  1 34  1  0
  1 35  1  0
  2 36  1  6
  3 37  1  0
  3 38  1  0
  4 39  1  0
  4 40  1  0
  5 41  1  1
  8 42  1  0
  8 43  1  0
  8 44  1  0
  9 45  1  0
  9 46  1  0
  9 47  1  0
 10 48  1  1
 11 49  1  0
 11 50  1  0
 12 51  1  0
 12 52  1  0
 14 53  1  0
 14 54  1  0
 14 55  1  0
 15 56  1  6
 16 57  1  0
 16 58  1  0
 17 59  1  0
 19 60  1  6
 20 61  1  0
 20 62  1  0
 21 63  1  0
 21 64  1  0
 22 65  1  1
 23 66  1  0
 25 67  1  0
 25 68  1  0
 25 69  1  0
 26 70  1  0
 26 71  1  0
 26 72  1  0
 28 73  1  0
 28 74  1  0
 28 75  1  0
 29 76  1  0
 29 77  1  0
 30 78  1  0
 30 79  1  0
 32 80  1  0
 32 81  1  0
 32 82  1  0
M  END
>  <meeko>  (10) 
{"is_sidechain": [false], "intermolecular_energy": 2.731, "internal_energy": -0.839}

$$$$
EPH_relaxed_0001_pdb2pqr_Repair_277_r2_0001_out
     RDKit          3D

 82 86  0  0  0  0  0  0  0  0999 V2000
    0.0550    9.3030   -2.2960 C   0  0  0  0  0  0  0  0  0  0  0  0
    1.1040   10.3130   -2.7700 C   0  0  2  0  0  0  0  0  0  0  0  0
    2.5110    9.6890   -2.8610 C   0  0  0  0  0  0  0  0  0  0  0  0
    3.4530   10.4310   -3.8130 C   0  0  0  0  0  0  0  0  0  0  0  0
    4.8490   10.4990   -3.2710 C   0  0  2  0  0  0  0  0  0  0  0  0
    5.4320   11.8080   -3.2790 O   0  0  0  0  0  0  0  0  0  0  0  0
    6.0610   10.8290   -4.1210 C   0  0  0  0  0  0  0  0  0  0  0  0
    5.9340   11.1130   -5.5840 C   0  0  0  0  0  0  0  0  0  0  0  0
    7.4120   10.3990   -3.6390 C   0  0  0  0  0  0  0  0  0  0  0  0
    1.1280   11.5160   -1.8340 C   0  0  1  0  0  0  0  0  0  0  0  0
    2.1880   11.3770   -0.7090 C   0  0  0  0  0  0  0  0  0  0  0  0
    2.7410   12.8000   -0.4380 C   0  0  0  0  0  0  0  0  0  0  0  0
    1.7590   13.7460   -1.1680 C   0  0  1  0  0  0  0  0  0  0  0  0
    0.5480   13.8950   -0.1960 C   0  0  0  0  0  0  0  0  0  0  0  0
    2.3300   15.1370   -1.5970 C   0  0  2  0  0  0  0  0  0  0  0  0
    2.7910   16.0380   -0.4380 C   0  0  0  0  0  0  0  0  0  0  0  0
    1.7460   16.9510    0.1130 C   0  0  0  0  0  0  0  0  0  0  0  0
    0.5770   17.2520   -0.4810 C   0  0  0  0  0  0  0  0  0  0  0  0
    0.2490   16.7270   -1.8850 C   0  0  1  0  0  0  0  0  0  0  0  0
   -0.3150   17.8830   -2.7520 C   0  0  0  0  0  0  0  0  0  0  0  0
   -1.5040   18.5790   -2.0970 C   0  0  0  0  0  0  0  0  0  0  0  0
   -1.1230   19.1380   -0.7280 C   0  0  2  0  0  0  0  0  0  0  0  0
   -0.1750   20.1940   -0.9100 O   0  0  0  0  0  0  0  0  0  0  0  0
   -0.5330   18.0650    0.2290 C   0  0  0  0  0  0  0  0  0  0  0  0
   -1.6510   17.0850    0.6650 C   0  0  0  0  0  0  0  0  0  0  0  0
   -0.0600   18.7860    1.5200 C   0  0  0  0  0  0  0  0  0  0  0  0
    1.4130   15.9280   -2.6150 C   0  0  1  0  0  0  0  0  0  0  0  0
    2.3450   16.9210   -3.3750 C   0  0  0  0  0  0  0  0  0  0  0  0
    0.7830   14.9870   -3.7090 C   0  0  0  0  0  0  0  0  0  0  0  0
    0.3480   13.5820   -3.2490 C   0  0  0  0  0  0  0  0  0  0  0  0
    1.4640   12.8940   -2.4560 C   0  0  2  0  0  0  0  0  0  0  0  0
    2.6890   12.7110   -3.4160 C   0  0  0  0  0  0  0  0  0  0  0  0
    0.0351    9.2838   -1.1963 H   0  0  0  0  0  0  0  0  0  0  0  0
   -0.9347    9.5968   -2.6756 H   0  0  0  0  0  0  0  0  0  0  0  0
    0.3112    8.3029   -2.6756 H   0  0  0  0  0  0  0  0  0  0  0  0
    0.8191   10.6352   -3.7824 H   0  0  0  0  0  0  0  0  0  0  0  0
    2.9585    9.6935   -1.8562 H   0  0  0  0  0  0  0  0  0  0  0  0
    2.3862    8.6717   -3.2604 H   0  0  0  0  0  0  0  0  0  0  0  0
    3.4709    9.9047   -4.7787 H   0  0  0  0  0  0  0  0  0  0  0  0
    3.0807   11.4593   -3.9311 H   0  0  0  0  0  0  0  0  0  0  0  0
    4.6412    9.6777   -2.5693 H   0  0  0  0  0  0  0  0  0  0  0  0
    5.4888   12.1087   -5.7269 H   0  0  0  0  0  0  0  0  0  0  0  0
    6.9298   11.0862   -6.0505 H   0  0  0  0  0  0  0  0  0  0  0  0
    5.2900   10.3530   -6.0505 H   0  0  0  0  0  0  0  0  0  0  0  0
    7.4247   10.3950   -2.5391 H   0  0  0  0  0  0  0  0  0  0  0  0
    7.6294    9.3872   -4.0119 H   0  0  0  0  0  0  0  0  0  0  0  0
    8.1742   11.0989   -4.0119 H   0  0  0  0  0  0  0  0  0  0  0  0
    0.0831   11.5030   -1.4905 H   0  0  0  0  0  0  0  0  0  0  0  0
    1.7231   10.9714    0.2017 H   0  0  0  0  0  0  0  0  0  0  0  0
    2.9936   10.6902   -1.0077 H   0  0  0  0  0  0  0  0  0  0  0  0
    2.7547   13.0122    0.6412 H   0  0  0  0  0  0  0  0  0  0  0  0
    3.7758   12.9196   -0.7914 H   0  0  0  0  0  0  0  0  0  0  0  0
    0.9047   13.8511    0.8436 H   0  0  0  0  0  0  0  0  0  0  0  0
    0.0524   14.8609   -0.3731 H   0  0  0  0  0  0  0  0  0  0  0  0
   -0.1670   13.0781   -0.3731 H   0  0  0  0  0  0  0  0  0  0  0  0
    3.2445   14.8592   -2.1415 H   0  0  0  0  0  0  0  0  0  0  0  0
    3.1409   15.3894    0.3786 H   0  0  0  0  0  0  0  0  0  0  0  0
    3.5766   16.6879   -0.8509 H   0  0  0  0  0  0  0  0  0  0  0  0
    1.9493   17.4175    1.0882 H   0  0  0  0  0  0  0  0  0  0  0  0
   -0.5214   15.9538   -1.7485 H   0  0  0  0  0  0  0  0  0  0  0  0
    0.4820   18.6237   -2.9137 H   0  0  0  0  0  0  0  0  0  0  0  0
   -0.6632   17.4494   -3.7011 H   0  0  0  0  0  0  0  0  0  0  0  0
   -1.8382   19.4045   -2.7426 H   0  0  0  0  0  0  0  0  0  0  0  0
   -2.3113   17.8438   -1.9637 H   0  0  0  0  0  0  0  0  0  0  0  0
   -2.0441   19.5080   -0.2540 H   0  0  0  0  0  0  0  0  0  0  0  0
   -0.0840   20.3470   -1.8650 H   0  0  0  0  0  0  0  0  0  0  0  0
   -1.6961   17.0455    1.7634 H   0  0  0  0  0  0  0  0  0  0  0  0
   -2.6174   17.4323    0.2706 H   0  0  0  0  0  0  0  0  0  0  0  0
   -1.4333   16.0815    0.2706 H   0  0  0  0  0  0  0  0  0  0  0  0
   -0.4213   18.2352    2.4009 H   0  0  0  0  0  0  0  0  0  0  0  0
    1.0392   18.8242    1.5369 H   0  0  0  0  0  0  0  0  0  0  0  0
   -0.4627   19.8095    1.5369 H   0  0  0  0  0  0  0  0  0  0  0  0
    2.9100   17.5230   -2.6481 H   0  0  0  0  0  0  0  0  0  0  0  0
    3.0461   16.3556   -4.0065 H   0  0  0  0  0  0  0  0  0  0  0  0
    1.7363   17.5849   -4.0065 H   0  0  0  0  0  0  0  0  0  0  0  0
   -0.1051   15.4947   -4.1134 H   0  0  0  0  0  0  0  0  0  0  0  0
    1.5876   14.8149   -4.4391 H   0  0  0  0  0  0  0  0  0  0  0  0
   -0.5435   13.6723   -2.6110 H   0  0  0  0  0  0  0  0  0  0  0  0
    0.1251   12.9752   -4.1390 H   0  0  0  0  0  0  0  0  0  0  0  0
    3.6040   12.5743   -2.8209 H   0  0  0  0  0  0  0  0  0  0  0  0
    2.5288   11.8268   -4.0505 H   0  0  0  0  0  0  0  0  0  0  0  0
    2.7941   13.6034   -4.0505 H   0  0  0  0  0  0  0  0  0  0  0  0
  1  2  1  0
  2  3  1  0
  3  4  1  0
  4  5  1  0
  5  6  1  0
  6  7  1  0
  7  8  1  0
  7  9  1  0
  2 10  1  0
 10 11  1  0
 11 12  1  0
 12 13  1  0
 13 14  1  1
 13 15  1  0
 15 16  1  0
 16 17  1  0
 17 18  2  0
 18 19  1  0
 19 20  1  0
 20 21  1  0
 21 22  1  0
 22 23  1  0
 22 24  1  0
 24 25  1  0
 24 26  1  0
 19 27  1  0
 27 28  1  6
 27 29  1  0
 29 30  1  0
 30 31  1  0
 31 32  1  6
  7  5  1  0
 31 10  1  0
 31 13  1  0
 27 15  1  0
 24 18  1  0
  1 33  1  0
  1 34  1  0
  1 35  1  0
  2 36  1  6
  3 37  1  0
  3 38  1  0
  4 39  1  0
  4 40  1  0
  5 41  1  1
  8 42  1  0
  8 43  1  0
  8 44  1  0
  9 45  1  0
  9 46  1  0
  9 47  1  0
 10 48  1  1
 11 49  1  0
 11 50  1  0
 12 51  1  0
 12 52  1  0
 14 53  1  0
 14 54  1  0
 14 55  1  0
 15 56  1  6
 16 57  1  0
 16 58  1  0
 17 59  1  0
 19 60  1  1
 20 61  1  0
 20 62  1  0
 21 63  1  0
 21 64  1  0
 22 65  1  1
 23 66  1  0
 25 67  1  0
 25 68  1  0
 25 69  1  0
 26 70  1  0
 26 71  1  0
 26 72  1  0
 28 73  1  0
 28 74  1  0
 28 75  1  0
 29 76  1  0
 29 77  1  0
 30 78  1  0
 30 79  1  0
 32 80  1  0
 32 81  1  0
 32 82  1  0
M  END
>  <meeko>  (11) 
{"is_sidechain": [false], "intermolecular_energy": 2.731, "internal_energy": -0.839}

$$$$
EPH_relaxed_0001_pdb2pqr_Repair_277_r2_0001_out
     RDKit          3D

 82 86  0  0  0  0  0  0  0  0999 V2000
    3.2870   17.9130   -2.3300 C   0  0  0  0  0  0  0  0  0  0  0  0
    2.4470   18.1410   -1.0700 C   0  0  2  0  0  0  0  0  0  0  0  0
    3.3160   18.5210    0.1460 C   0  0  0  0  0  0  0  0  0  0  0  0
    2.5140   19.0800    1.3240 C   0  0  0  0  0  0  0  0  0  0  0  0
    3.3630   19.9320    2.2180 C   0  0  2  0  0  0  0  0  0  0  0  0
    4.7070   20.1260    1.7600 O   0  0  0  0  0  0  0  0  0  0  0  0
    4.5560   19.4030    2.9920 C   0  0  0  0  0  0  0  0  0  0  0  0
    4.9650   17.9660    2.9090 C   0  0  0  0  0  0  0  0  0  0  0  0
    5.0200   20.1610    4.1970 C   0  0  0  0  0  0  0  0  0  0  0  0
    1.6300   16.8930   -0.7570 C   0  0  1  0  0  0  0  0  0  0  0  0
    0.1830   17.2250   -0.3040 C   0  0  0  0  0  0  0  0  0  0  0  0
   -0.7280   16.0980   -0.8560 C   0  0  0  0  0  0  0  0  0  0  0  0
    0.2530   14.9940   -1.3150 C   0  0  1  0  0  0  0  0  0  0  0  0
    0.6300   14.2240   -0.0110 C   0  0  0  0  0  0  0  0  0  0  0  0
   -0.2680   14.0260   -2.4270 C   0  0  2  0  0  0  0  0  0  0  0  0
   -1.4910   13.1790   -2.0340 C   0  0  0  0  0  0  0  0  0  0  0  0
   -1.1790   11.8550   -1.4210 C   0  0  0  0  0  0  0  0  0  0  0  0
    0.0180   11.2410   -1.4520 C   0  0  0  0  0  0  0  0  0  0  0  0
    1.1900   11.8400   -2.2390 C   0  0  1  0  0  0  0  0  0  0  0  0
    1.8700   10.7290   -3.0820 C   0  0  0  0  0  0  0  0  0  0  0  0
    2.2870    9.5280   -2.2390 C   0  0  0  0  0  0  0  0  0  0  0  0
    1.0850    8.9240   -1.5180 C   0  0  2  0  0  0  0  0  0  0  0  0
    0.2000    8.3600   -2.4900 O   0  0  0  0  0  0  0  0  0  0  0  0
    0.3150    9.9530   -0.6440 C   0  0  0  0  0  0  0  0  0  0  0  0
    1.1740   10.3380    0.5860 C   0  0  0  0  0  0  0  0  0  0  0  0
   -0.9530    9.2520   -0.0860 C   0  0  0  0  0  0  0  0  0  0  0  0
    0.8590   13.1380   -3.0940 C   0  0  1  0  0  0  0  0  0  0  0  0
    0.3280   12.7280   -4.5020 C   0  0  0  0  0  0  0  0  0  0  0  0
    2.1890   13.9450   -3.3400 C   0  0  0  0  0  0  0  0  0  0  0  0
    2.5880   14.9720   -2.2630 C   0  0  0  0  0  0  0  0  0  0  0  0
    1.4070   15.8820   -1.9090 C   0  0  2  0  0  0  0  0  0  0  0  0
    1.0200   16.6860   -3.1960 C   0  0  0  0  0  0  0  0  0  0  0  0
    4.3116   17.6349   -2.0422 H   0  0  0  0  0  0  0  0  0  0  0  0
    2.8411   17.1034   -2.9264 H   0  0  0  0  0  0  0  0  0  0  0  0
    3.3116   18.8370   -2.9264 H   0  0  0  0  0  0  0  0  0  0  0  0
    1.7721   18.9862   -1.2705 H   0  0  0  0  0  0  0  0  0  0  0  0
    3.8508   17.6217    0.4854 H   0  0  0  0  0  0  0  0  0  0  0  0
    4.0004   19.3165   -0.1837 H   0  0  0  0  0  0  0  0  0  0  0  0
    1.6848   19.6885    0.9340 H   0  0  0  0  0  0  0  0  0  0  0  0
    2.1369   18.2324    1.9151 H   0  0  0  0  0  0  0  0  0  0  0  0
    2.4876   20.5232    2.5250 H   0  0  0  0  0  0  0  0  0  0  0  0
    5.0810   17.5586    3.9242 H   0  0  0  0  0  0  0  0  0  0  0  0
    4.1935   17.3957    2.3709 H   0  0  0  0  0  0  0  0  0  0  0  0
    5.9212   17.8874    2.3709 H   0  0  0  0  0  0  0  0  0  0  0  0
    4.6979   19.6348    5.1077 H   0  0  0  0  0  0  0  0  0  0  0  0
    6.1175   20.2336    4.1843 H   0  0  0  0  0  0  0  0  0  0  0  0
    4.5855   21.1715    4.1843 H   0  0  0  0  0  0  0  0  0  0  0  0
    2.2677   16.4444    0.0190 H   0  0  0  0  0  0  0  0  0  0  0  0
    0.1270   17.2537    0.7942 H   0  0  0  0  0  0  0  0  0  0  0  0
   -0.1331   18.2088   -0.6811 H   0  0  0  0  0  0  0  0  0  0  0  0
   -1.3980   15.7199   -0.0697 H   0  0  0  0  0  0  0  0  0  0  0  0
   -1.3754   16.4475   -1.6738 H   0  0  0  0  0  0  0  0  0  0  0  0
    0.3375   14.8214    0.8651 H   0  0  0  0  0  0  0  0  0  0  0  0
    0.1025   13.2590    0.0105 H   0  0  0  0  0  0  0  0  0  0  0  0
    1.7158   14.0489    0.0105 H   0  0  0  0  0  0  0  0  0  0  0  0
   -0.6232   14.7241   -3.1993 H   0  0  0  0  0  0  0  0  0  0  0  0
   -2.0862   13.7564   -1.3113 H   0  0  0  0  0  0  0  0  0  0  0  0
   -2.0248   12.9622   -2.9711 H   0  0  0  0  0  0  0  0  0  0  0  0
   -1.9971   11.3367   -0.8993 H   0  0  0  0  0  0  0  0  0  0  0  0
    1.8963   12.2232   -1.4879 H   0  0  0  0  0  0  0  0  0  0  0  0
    1.1635   10.3898   -3.8539 H   0  0  0  0  0  0  0  0  0  0  0  0
    2.7804   11.1572   -3.5267 H   0  0  0  0  0  0  0  0  0  0  0  0
    2.7340    8.7659   -2.8944 H   0  0  0  0  0  0  0  0  0  0  0  0
    3.0158    9.8633   -1.4864 H   0  0  0  0  0  0  0  0  0  0  0  0
    1.4648    8.1523   -0.8323 H   0  0  0  0  0  0  0  0  0  0  0  0
    0.3040    7.3940   -2.4580 H   0  0  0  0  0  0  0  0  0  0  0  0
    0.6258   10.0923    1.5075 H   0  0  0  0  0  0  0  0  0  0  0  0
    2.1205    9.7780    0.5620 H   0  0  0  0  0  0  0  0  0  0  0  0
    1.3858   11.4172    0.5620 H   0  0  0  0  0  0  0  0  0  0  0  0
   -0.9263    9.2668    1.0136 H   0  0  0  0  0  0  0  0  0  0  0  0
   -1.8501    9.7823   -0.4381 H   0  0  0  0  0  0  0  0  0  0  0  0
   -0.9810    8.2103   -0.4381 H   0  0  0  0  0  0  0  0  0  0  0  0
   -0.5379   12.0594   -4.3869 H   0  0  0  0  0  0  0  0  0  0  0  0
    0.0248   13.6286   -5.0561 H   0  0  0  0  0  0  0  0  0  0  0  0
    1.1226   12.2068   -5.0561 H   0  0  0  0  0  0  0  0  0  0  0  0
    3.0090   13.2168   -3.4254 H   0  0  0  0  0  0  0  0  0  0  0  0
    2.0022   14.5377   -4.2476 H   0  0  0  0  0  0  0  0  0  0  0  0
    2.9138   14.4371   -1.3587 H   0  0  0  0  0  0  0  0  0  0  0  0
    3.4047   15.5945   -2.6572 H   0  0  0  0  0  0  0  0  0  0  0  0
    0.5597   17.6422   -2.9064 H   0  0  0  0  0  0  0  0  0  0  0  0
    1.9235   16.8798   -3.7928 H   0  0  0  0  0  0  0  0  0  0  0  0
    0.3049   16.1007   -3.7928 H   0  0  0  0  0  0  0  0  0  0  0  0
  1  2  1  0
  2  3  1  0
  3  4  1  0
  4  5  1  0
  5  6  1  0
  6  7  1  0
  7  8  1  0
  7  9  1  0
  2 10  1  0
 10 11  1  0
 11 12  1  0
 12 13  1  0
 13 14  1  1
 13 15  1  0
 15 16  1  0
 16 17  1  0
 17 18  2  0
 18 19  1  0
 19 20  1  0
 20 21  1  0
 21 22  1  0
 22 23  1  0
 22 24  1  0
 24 25  1  0
 24 26  1  0
 19 27  1  0
 27 28  1  6
 27 29  1  0
 29 30  1  0
 30 31  1  0
 31 32  1  6
  7  5  1  0
 31 10  1  0
 31 13  1  0
 27 15  1  0
 24 18  1  0
  1 33  1  0
  1 34  1  0
  1 35  1  0
  2 36  1  6
  3 37  1  0
  3 38  1  0
  4 39  1  0
  4 40  1  0
  5 41  1  1
  8 42  1  0
  8 43  1  0
  8 44  1  0
  9 45  1  0
  9 46  1  0
  9 47  1  0
 10 48  1  1
 11 49  1  0
 11 50  1  0
 12 51  1  0
 12 52  1  0
 14 53  1  0
 14 54  1  0
 14 55  1  0
 15 56  1  6
 16 57  1  0
 16 58  1  0
 17 59  1  0
 19 60  1  1
 20 61  1  0
 20 62  1  0
 21 63  1  0
 21 64  1  0
 22 65  1  1
 23 66  1  0
 25 67  1  0
 25 68  1  0
 25 69  1  0
 26 70  1  0
 26 71  1  0
 26 72  1  0
 28 73  1  0
 28 74  1  0
 28 75  1  0
 29 76  1  0
 29 77  1  0
 30 78  1  0
 30 79  1  0
 32 80  1  0
 32 81  1  0
 32 82  1  0
M  END
>  <meeko>  (12) 
{"is_sidechain": [false], "intermolecular_energy": 2.731, "internal_energy": -0.839}

$$$$
EPH_relaxed_0001_pdb2pqr_Repair_277_r2_0001_out
     RDKit          3D

 82 86  0  0  0  0  0  0  0  0999 V2000
    2.7080   18.2980   -3.4790 C   0  0  0  0  0  0  0  0  0  0  0  0
    2.3310   18.1860   -1.9990 C   0  0  2  0  0  0  0  0  0  0  0  0
    3.1110   19.1870   -1.1240 C   0  0  0  0  0  0  0  0  0  0  0  0
    2.7960   19.0750    0.3700 C   0  0  0  0  0  0  0  0  0  0  0  0
    4.0370   19.1560    1.2060 C   0  0  2  0  0  0  0  0  0  0  0  0
    4.0510   18.2820    2.3430 O   0  0  0  0  0  0  0  0  0  0  0  0
    4.0560   19.6910    2.6260 C   0  0  0  0  0  0  0  0  0  0  0  0
    2.8090   20.1820    3.2910 C   0  0  0  0  0  0  0  0  0  0  0  0
    5.3520   20.1890    3.1850 C   0  0  0  0  0  0  0  0  0  0  0  0
    2.5750   16.7640   -1.5070 C   0  0  1  0  0  0  0  0  0  0  0  0
    3.2870   16.7230   -0.1290 C   0  0  0  0  0  0  0  0  0  0  0  0
    2.7190   15.4970    0.6320 C   0  0  0  0  0  0  0  0  0  0  0  0
    1.9560   14.6900   -0.4450 C   0  0  1  0  0  0  0  0  0  0  0  0
    3.0580   13.8740   -1.1910 C   0  0  0  0  0  0  0  0  0  0  0  0
    0.8040   13.7660    0.0710 C   0  0  2  0  0  0  0  0  0  0  0  0
    1.2480   12.6370    1.0180 C   0  0  0  0  0  0  0  0  0  0  0  0
    1.6030   11.3490    0.3510 C   0  0  0  0  0  0  0  0  0  0  0  0
    1.2980   11.0150   -0.9170 C   0  0  0  0  0  0  0  0  0  0  0  0
    0.4400   11.9380   -1.7910 C   0  0  1  0  0  0  0  0  0  0  0  0
   -0.6520   11.1030   -2.5090 C   0  0  0  0  0  0  0  0  0  0  0  0
   -0.0710    9.9310   -3.2940 C   0  0  0  0  0  0  0  0  0  0  0  0
    0.7270    9.0050   -2.3800 C   0  0  2  0  0  0  0  0  0  0  0  0
   -0.1730    8.3790   -1.4600 O   0  0  0  0  0  0  0  0  0  0  0  0
    1.8510    9.7370   -1.5960 C   0  0  0  0  0  0  0  0  0  0  0  0
    2.9790   10.1540   -2.5710 C   0  0  0  0  0  0  0  0  0  0  0  0
    2.4840    8.7200   -0.6080 C   0  0  0  0  0  0  0  0  0  0  0  0
   -0.1510   13.2240   -1.0680 C   0  0  1  0  0  0  0  0  0  0  0  0
   -1.5070   12.8730   -0.3810 C   0  0  0  0  0  0  0  0  0  0  0  0
   -0.4730   14.3210   -2.1510 C   0  0  0  0  0  0  0  0  0  0  0  0
    0.6720   15.2790   -2.5310 C   0  0  0  0  0  0  0  0  0  0  0  0
    1.3330   15.8670   -1.2810 C   0  0  2  0  0  0  0  0  0  0  0  0
    0.2540   16.7110   -0.5210 C   0  0  0  0  0  0  0  0  0  0  0  0
    3.7591   18.6103   -3.5670 H   0  0  0  0  0  0  0  0  0  0  0  0
    2.5736   17.3211   -3.9665 H   0  0  0  0  0  0  0  0  0  0  0  0
    2.0621   19.0431   -3.9665 H   0  0  0  0  0  0  0  0  0  0  0  0
    1.2626   18.4323   -1.9099 H   0  0  0  0  0  0  0  0  0  0  0  0
    4.1869   19.0077   -1.2664 H   0  0  0  0  0  0  0  0  0  0  0  0
    2.8077   20.1956   -1.4415 H   0  0  0  0  0  0  0  0  0  0  0  0
    2.1205   19.8953    0.6543 H   0  0  0  0  0  0  0  0  0  0  0  0
    2.3256   18.0969    0.5487 H   0  0  0  0  0  0  0  0  0  0  0  0
    4.6463   19.3911    0.3209 H   0  0  0  0  0  0  0  0  0  0  0  0
    2.9323   20.1334    4.3830 H   0  0  0  0  0  0  0  0  0  0  0  0
    2.6180   21.2225    2.9895 H   0  0  0  0  0  0  0  0  0  0  0  0
    1.9599   19.5511    2.9895 H   0  0  0  0  0  0  0  0  0  0  0  0
    5.3079   20.1721    4.2840 H   0  0  0  0  0  0  0  0  0  0  0  0
    6.1724   19.5421    2.8409 H   0  0  0  0  0  0  0  0  0  0  0  0
    5.5281   21.2188    2.8409 H   0  0  0  0  0  0  0  0  0  0  0  0
    3.1697   16.3773   -2.3477 H   0  0  0  0  0  0  0  0  0  0  0  0
    4.3728   16.6135   -0.2668 H   0  0  0  0  0  0  0  0  0  0  0  0
    3.1128   17.6522    0.4333 H   0  0  0  0  0  0  0  0  0  0  0  0
    3.5331   14.8962    1.0635 H   0  0  0  0  0  0  0  0  0  0  0  0
    2.0712   15.7899    1.4714 H   0  0  0  0  0  0  0  0  0  0  0  0
    3.7152   13.3874   -0.4552 H   0  0  0  0  0  0  0  0  0  0  0  0
    2.5832   13.1080   -1.8217 H   0  0  0  0  0  0  0  0  0  0  0  0
    3.6522   14.5516   -1.8217 H   0  0  0  0  0  0  0  0  0  0  0  0
    0.2067   14.4543    0.6870 H   0  0  0  0  0  0  0  0  0  0  0  0
    2.1305   12.9867    1.5738 H   0  0  0  0  0  0  0  0  0  0  0  0
    0.3816   12.4192    1.6598 H   0  0  0  0  0  0  0  0  0  0  0  0
    2.1608   10.6108    0.9459 H   0  0  0  0  0  0  0  0  0  0  0  0
    1.1230   12.3758   -2.5339 H   0  0  0  0  0  0  0  0  0  0  0  0
   -1.3491   10.7106   -1.7540 H   0  0  0  0  0  0  0  0  0  0  0  0
   -1.1611   11.7647   -3.2252 H   0  0  0  0  0  0  0  0  0  0  0  0
   -0.8930    9.3626   -3.7535 H   0  0  0  0  0  0  0  0  0  0  0  0
    0.6028   10.3264   -4.0684 H   0  0  0  0  0  0  0  0  0  0  0  0
    1.2250    8.2601   -3.0181 H   0  0  0  0  0  0  0  0  0  0  0  0
    0.2990    7.6360   -1.0470 H   0  0  0  0  0  0  0  0  0  0  0  0
    3.8588   10.4792   -1.9963 H   0  0  0  0  0  0  0  0  0  0  0  0
    3.2513    9.2971   -3.2047 H   0  0  0  0  0  0  0  0  0  0  0  0
    2.6284   10.9820   -3.2047 H   0  0  0  0  0  0  0  0  0  0  0  0
    2.2848    9.0401    0.4254 H   0  0  0  0  0  0  0  0  0  0  0  0
    2.0453    7.7251   -0.7747 H   0  0  0  0  0  0  0  0  0  0  0  0
    3.5703    8.6743   -0.7747 H   0  0  0  0  0  0  0  0  0  0  0  0
   -1.3836   12.9049    0.7116 H   0  0  0  0  0  0  0  0  0  0  0  0
   -2.2718   13.6028   -0.6851 H   0  0  0  0  0  0  0  0  0  0  0  0
   -1.8217   11.8638   -0.6851 H   0  0  0  0  0  0  0  0  0  0  0  0
   -0.7899   13.8012   -3.0672 H   0  0  0  0  0  0  0  0  0  0  0  0
   -1.2429   14.9598   -1.6936 H   0  0  0  0  0  0  0  0  0  0  0  0
    1.4261   14.7263   -3.1105 H   0  0  0  0  0  0  0  0  0  0  0  0
    0.2555   16.1036   -3.1281 H   0  0  0  0  0  0  0  0  0  0  0  0
    0.3977   16.5986    0.5638 H   0  0  0  0  0  0  0  0  0  0  0  0
    0.3567   17.7710   -0.7966 H   0  0  0  0  0  0  0  0  0  0  0  0
   -0.7501   16.3561   -0.7966 H   0  0  0  0  0  0  0  0  0  0  0  0
  1  2  1  0
  2  3  1  0
  3  4  1  0
  4  5  1  0
  5  6  1  0
  6  7  1  0
  7  8  1  0
  7  9  1  0
  2 10  1  0
 10 11  1  0
 11 12  1  0
 12 13  1  0
 13 14  1  6
 13 15  1  0
 15 16  1  0
 16 17  1  0
 17 18  2  0
 18 19  1  0
 19 20  1  0
 20 21  1  0
 21 22  1  0
 22 23  1  0
 22 24  1  0
 24 25  1  0
 24 26  1  0
 19 27  1  0
 27 28  1  1
 27 29  1  0
 29 30  1  0
 30 31  1  0
 31 32  1  1
  7  5  1  0
 31 10  1  0
 31 13  1  0
 27 15  1  0
 24 18  1  0
  1 33  1  0
  1 34  1  0
  1 35  1  0
  2 36  1  6
  3 37  1  0
  3 38  1  0
  4 39  1  0
  4 40  1  0
  5 41  1  6
  8 42  1  0
  8 43  1  0
  8 44  1  0
  9 45  1  0
  9 46  1  0
  9 47  1  0
 10 48  1  6
 11 49  1  0
 11 50  1  0
 12 51  1  0
 12 52  1  0
 14 53  1  0
 14 54  1  0
 14 55  1  0
 15 56  1  1
 16 57  1  0
 16 58  1  0
 17 59  1  0
 19 60  1  6
 20 61  1  0
 20 62  1  0
 21 63  1  0
 21 64  1  0
 22 65  1  6
 23 66  1  0
 25 67  1  0
 25 68  1  0
 25 69  1  0
 26 70  1  0
 26 71  1  0
 26 72  1  0
 28 73  1  0
 28 74  1  0
 28 75  1  0
 29 76  1  0
 29 77  1  0
 30 78  1  0
 30 79  1  0
 32 80  1  0
 32 81  1  0
 32 82  1  0
M  END
>  <meeko>  (13) 
{"is_sidechain": [false], "intermolecular_energy": 2.731, "internal_energy": -0.839}

$$$$
EPH_relaxed_0001_pdb2pqr_Repair_277_r2_0001_out
     RDKit          3D

 82 86  0  0  0  0  0  0  0  0999 V2000
   -0.2810   15.1220   -7.6970 C   0  0  0  0  0  0  0  0  0  0  0  0
    1.0850   15.1080   -7.0050 C   0  0  2  0  0  0  0  0  0  0  0  0
    2.2470   15.2060   -8.0130 C   0  0  0  0  0  0  0  0  0  0  0  0
    2.2640   16.5140   -8.8090 C   0  0  0  0  0  0  0  0  0  0  0  0
    1.8630   16.2990  -10.2370 C   0  0  2  0  0  0  0  0  0  0  0  0
    1.2000   15.0540  -10.4910 O   0  0  0  0  0  0  0  0  0  0  0  0
    2.4770   15.2340  -11.1260 C   0  0  0  0  0  0  0  0  0  0  0  0
    3.5430   14.3140  -10.6210 C   0  0  0  0  0  0  0  0  0  0  0  0
    2.3920   15.4060  -12.6110 C   0  0  0  0  0  0  0  0  0  0  0  0
    1.2290   13.8450   -6.1650 C   0  0  1  0  0  0  0  0  0  0  0  0
    2.6590   13.2450   -6.2280 C   0  0  0  0  0  0  0  0  0  0  0  0
    2.9530   12.6430   -4.8300 C   0  0  0  0  0  0  0  0  0  0  0  0
    1.5800   12.6180   -4.1190 C   0  0  1  0  0  0  0  0  0  0  0  0
    0.8720   11.3370   -4.6600 C   0  0  0  0  0  0  0  0  0  0  0  0
    1.6110   12.6430   -2.5560 C   0  0  2  0  0  0  0  0  0  0  0  0
    2.2990   11.4350   -1.8970 C   0  0  0  0  0  0  0  0  0  0  0  0
    1.4020   10.2850   -1.5810 C   0  0  0  0  0  0  0  0  0  0  0  0
    0.0570   10.3270   -1.5520 C   0  0  0  0  0  0  0  0  0  0  0  0
   -0.6950   11.6480   -1.7600 C   0  0  1  0  0  0  0  0  0  0  0  0
   -1.7980   11.7920   -0.6800 C   0  0  0  0  0  0  0  0  0  0  0  0
   -2.7350   10.5890   -0.6360 C   0  0  0  0  0  0  0  0  0  0  0  0
   -1.9580    9.3020   -0.3690 C   0  0  2  0  0  0  0  0  0  0  0  0
   -1.4200    9.3550    0.9550 O   0  0  0  0  0  0  0  0  0  0  0  0
   -0.8120    9.0550   -1.3900 C   0  0  0  0  0  0  0  0  0  0  0  0
   -1.4140    8.6990   -2.7720 C   0  0  0  0  0  0  0  0  0  0  0  0
   -0.0210    7.8030   -0.9250 C   0  0  0  0  0  0  0  0  0  0  0  0
    0.2110   12.9480   -1.8850 C   0  0  1  0  0  0  0  0  0  0  0  0
    0.5120   13.5240   -0.4680 C   0  0  0  0  0  0  0  0  0  0  0  0
   -0.5920   14.0620   -2.6550 C   0  0  0  0  0  0  0  0  0  0  0  0
   -0.4870   14.0570   -4.1920 C   0  0  0  0  0  0  0  0  0  0  0  0
    0.9750   13.9710   -4.6410 C   0  0  2  0  0  0  0  0  0  0  0  0
    1.7090   15.2580   -4.1300 C   0  0  0  0  0  0  0  0  0  0  0  0
   -1.0767   15.1302   -6.9375 H   0  0  0  0  0  0  0  0  0  0  0  0
   -0.3646   16.0210   -8.3253 H   0  0  0  0  0  0  0  0  0  0  0  0
   -0.3830   14.2249   -8.3253 H   0  0  0  0  0  0  0  0  0  0  0  0
    1.1362   15.9941   -6.3552 H   0  0  0  0  0  0  0  0  0  0  0  0
    3.1942   15.1240   -7.4598 H   0  0  0  0  0  0  0  0  0  0  0  0
    2.1122   14.3903   -8.7386 H   0  0  0  0  0  0  0  0  0  0  0  0
    1.5628   17.2230   -8.3447 H   0  0  0  0  0  0  0  0  0  0  0  0
    3.2903   16.9096   -8.7968 H   0  0  0  0  0  0  0  0  0  0  0  0
    1.7045   17.3780  -10.3803 H   0  0  0  0  0  0  0  0  0  0  0  0
    3.5392   14.3172   -9.5210 H   0  0  0  0  0  0  0  0  0  0  0  0
    3.3500   13.2942  -10.9853 H   0  0  0  0  0  0  0  0  0  0  0  0
    4.5236   14.6541  -10.9853 H   0  0  0  0  0  0  0  0  0  0  0  0
    1.9155   16.3702  -12.8418 H   0  0  0  0  0  0  0  0  0  0  0  0
    3.4042   15.3850  -13.0411 H   0  0  0  0  0  0  0  0  0  0  0  0
    1.7938   14.5892  -13.0411 H   0  0  0  0  0  0  0  0  0  0  0  0
    0.4457   13.2263   -6.6272 H   0  0  0  0  0  0  0  0  0  0  0  0
    2.7067   12.4594   -6.9965 H   0  0  0  0  0  0  0  0  0  0  0  0
    3.3994   14.0151   -6.4902 H   0  0  0  0  0  0  0  0  0  0  0  0
    3.3605   11.6255   -4.9233 H   0  0  0  0  0  0  0  0  0  0  0  0
    3.7004   13.2273   -4.2732 H   0  0  0  0  0  0  0  0  0  0  0  0
    0.5317   10.7213   -3.8144 H   0  0  0  0  0  0  0  0  0  0  0  0
    0.0065   11.6278   -5.2735 H   0  0  0  0  0  0  0  0  0  0  0  0
    1.5787   10.7589   -5.2735 H   0  0  0  0  0  0  0  0  0  0  0  0
    2.2601   13.5062   -2.3471 H   0  0  0  0  0  0  0  0  0  0  0  0
    3.0836   11.0766   -2.5796 H   0  0  0  0  0  0  0  0  0  0  0  0
    2.6853   11.7940   -0.9316 H   0  0  0  0  0  0  0  0  0  0  0  0
    1.8806    9.3213   -1.3524 H   0  0  0  0  0  0  0  0  0  0  0  0
   -1.1562   11.5822   -2.7565 H   0  0  0  0  0  0  0  0  0  0  0  0
   -1.3167   11.9001    0.3032 H   0  0  0  0  0  0  0  0  0  0  0  0
   -2.4013   12.6757   -0.9351 H   0  0  0  0  0  0  0  0  0  0  0  0
   -3.4733   10.7368    0.1659 H   0  0  0  0  0  0  0  0  0  0  0  0
   -3.2381   10.4999   -1.6101 H   0  0  0  0  0  0  0  0  0  0  0  0
   -2.6612    8.4632   -0.4785 H   0  0  0  0  0  0  0  0  0  0  0  0
   -1.3040   10.2920    1.1890 H   0  0  0  0  0  0  0  0  0  0  0  0
   -2.3530    8.1437   -2.6309 H   0  0  0  0  0  0  0  0  0  0  0  0
   -1.6154    9.6233   -3.3333 H   0  0  0  0  0  0  0  0  0  0  0  0
   -0.7011    8.0772   -3.3333 H   0  0  0  0  0  0  0  0  0  0  0  0
   -0.0001    7.7699    0.1743 H   0  0  0  0  0  0  0  0  0  0  0  0
   -0.5105    6.8962   -1.3099 H   0  0  0  0  0  0  0  0  0  0  0  0
    1.0081    7.8556   -1.3099 H   0  0  0  0  0  0  0  0  0  0  0  0
    0.1462   12.8240    0.2976 H   0  0  0  0  0  0  0  0  0  0  0  0
    1.5971   13.6612   -0.3509 H   0  0  0  0  0  0  0  0  0  0  0  0
    0.0051   14.4932   -0.3509 H   0  0  0  0  0  0  0  0  0  0  0  0
   -1.6543   13.9472   -2.3936 H   0  0  0  0  0  0  0  0  0  0  0  0
   -0.1396   15.0135   -2.3387 H   0  0  0  0  0  0  0  0  0  0  0  0
   -1.0366   13.1901   -4.5875 H   0  0  0  0  0  0  0  0  0  0  0  0
   -0.9176   14.9935   -4.5762 H   0  0  0  0  0  0  0  0  0  0  0  0
    1.7132   15.2654   -3.0300 H   0  0  0  0  0  0  0  0  0  0  0  0
    2.7447   15.2610   -4.5007 H   0  0  0  0  0  0  0  0  0  0  0  0
    1.1843   16.1509   -4.5007 H   0  0  0  0  0  0  0  0  0  0  0  0
  1  2  1  0
  2  3  1  0
  3  4  1  0
  4  5  1  0
  5  6  1  0
  6  7  1  0
  7  8  1  0
  7  9  1  0
  2 10  1  0
 10 11  1  0
 11 12  1  0
 12 13  1  0
 13 14  1  1
 13 15  1  0
 15 16  1  0
 16 17  1  0
 17 18  2  0
 18 19  1  0
 19 20  1  0
 20 21  1  0
 21 22  1  0
 22 23  1  0
 22 24  1  0
 24 25  1  0
 24 26  1  0
 19 27  1  0
 27 28  1  1
 27 29  1  0
 29 30  1  0
 30 31  1  0
 31 32  1  1
  7  5  1  0
 31 10  1  0
 31 13  1  0
 27 15  1  0
 24 18  1  0
  1 33  1  0
  1 34  1  0
  1 35  1  0
  2 36  1  1
  3 37  1  0
  3 38  1  0
  4 39  1  0
  4 40  1  0
  5 41  1  6
  8 42  1  0
  8 43  1  0
  8 44  1  0
  9 45  1  0
  9 46  1  0
  9 47  1  0
 10 48  1  6
 11 49  1  0
 11 50  1  0
 12 51  1  0
 12 52  1  0
 14 53  1  0
 14 54  1  0
 14 55  1  0
 15 56  1  6
 16 57  1  0
 16 58  1  0
 17 59  1  0
 19 60  1  6
 20 61  1  0
 20 62  1  0
 21 63  1  0
 21 64  1  0
 22 65  1  1
 23 66  1  0
 25 67  1  0
 25 68  1  0
 25 69  1  0
 26 70  1  0
 26 71  1  0
 26 72  1  0
 28 73  1  0
 28 74  1  0
 28 75  1  0
 29 76  1  0
 29 77  1  0
 30 78  1  0
 30 79  1  0
 32 80  1  0
 32 81  1  0
 32 82  1  0
M  END
>  <meeko>  (14) 
{"is_sidechain": [false], "intermolecular_energy": 2.731, "internal_energy": -0.839}

$$$$
EPH_relaxed_0001_pdb2pqr_Repair_277_r2_0001_out
     RDKit          3D

 82 86  0  0  0  0  0  0  0  0999 V2000
   -3.7110    7.1880   -3.4310 C   0  0  0  0  0  0  0  0  0  0  0  0
   -3.6990    7.2480   -1.9010 C   0  0  2  0  0  0  0  0  0  0  0  0
   -5.0970    6.9980   -1.3000 C   0  0  0  0  0  0  0  0  0  0  0  0
   -6.2270    7.0400   -2.3320 C   0  0  0  0  0  0  0  0  0  0  0  0
   -7.5570    7.2910   -1.6870 C   0  0  2  0  0  0  0  0  0  0  0  0
   -8.1890    6.1240   -1.1460 O   0  0  0  0  0  0  0  0  0  0  0  0
   -8.8680    6.7630   -2.2400 C   0  0  0  0  0  0  0  0  0  0  0  0
   -8.9130    5.9420   -3.4900 C   0  0  0  0  0  0  0  0  0  0  0  0
  -10.1390    7.4470   -1.8430 C   0  0  0  0  0  0  0  0  0  0  0  0
   -3.1670    8.5990   -1.4390 C   0  0  1  0  0  0  0  0  0  0  0  0
   -3.8140    9.0730   -0.1100 C   0  0  0  0  0  0  0  0  0  0  0  0
   -2.7160    9.8350    0.6760 C   0  0  0  0  0  0  0  0  0  0  0  0
   -1.5860   10.0630   -0.3560 C   0  0  1  0  0  0  0  0  0  0  0  0
   -2.0400   11.3100   -1.1790 C   0  0  0  0  0  0  0  0  0  0  0  0
   -0.1470   10.2490    0.2260 C   0  0  2  0  0  0  0  0  0  0  0  0
    0.0370   11.4790    1.1320 C   0  0  0  0  0  0  0  0  0  0  0  0
    0.4620   12.7280    0.4320 C   0  0  0  0  0  0  0  0  0  0  0  0
    0.9620   12.7940   -0.8160 C   0  0  0  0  0  0  0  0  0  0  0  0
    1.2340   11.5190   -1.6240 C   0  0  1  0  0  0  0  0  0  0  0  0
    2.6380   11.6090   -2.2770 C   0  0  0  0  0  0  0  0  0  0  0  0
    2.8160   12.8760   -3.1080 C   0  0  0  0  0  0  0  0  0  0  0  0
    2.5950   14.1230   -2.2560 C   0  0  2  0  0  0  0  0  0  0  0  0
    3.6420   14.2090   -1.2850 O   0  0  0  0  0  0  0  0  0  0  0  0
    1.2160   14.1390   -1.5400 C   0  0  0  0  0  0  0  0  0  0  0  0
    0.0900   14.3490   -2.5830 C   0  0  0  0  0  0  0  0  0  0  0  0
    1.1770   15.3780   -0.6050 C   0  0  0  0  0  0  0  0  0  0  0  0
    1.0060   10.1480   -0.8530 C   0  0  1  0  0  0  0  0  0  0  0  0
    2.3020    9.7490   -0.0830 C   0  0  0  0  0  0  0  0  0  0  0  0
    0.7440    9.0050   -1.9040 C   0  0  0  0  0  0  0  0  0  0  0  0
   -0.7160    8.7920   -2.3490 C   0  0  0  0  0  0  0  0  0  0  0  0
   -1.6510    8.7020   -1.1390 C   0  0  2  0  0  0  0  0  0  0  0  0
   -1.2320    7.4440   -0.3040 C   0  0  0  0  0  0  0  0  0  0  0  0
   -3.9171    6.1575   -3.7559 H   0  0  0  0  0  0  0  0  0  0  0  0
   -4.4930    7.8578   -3.8181 H   0  0  0  0  0  0  0  0  0  0  0  0
   -2.7316    7.5056   -3.8181 H   0  0  0  0  0  0  0  0  0  0  0  0
   -3.0373    6.4457   -1.5425 H   0  0  0  0  0  0  0  0  0  0  0  0
   -5.0981    6.0063   -0.8240 H   0  0  0  0  0  0  0  0  0  0  0  0
   -5.2876    7.8087   -0.5814 H   0  0  0  0  0  0  0  0  0  0  0  0
   -6.0223    7.8457   -3.0524 H   0  0  0  0  0  0  0  0  0  0  0  0
   -6.2686    6.0628   -2.8354 H   0  0  0  0  0  0  0  0  0  0  0  0
   -7.2411    8.2964   -1.3716 H   0  0  0  0  0  0  0  0  0  0  0  0
   -8.9714    4.8757   -3.2264 H   0  0  0  0  0  0  0  0  0  0  0  0
   -9.7971    6.2225   -4.0813 H   0  0  0  0  0  0  0  0  0  0  0  0
   -8.0035    6.1242   -4.0813 H   0  0  0  0  0  0  0  0  0  0  0  0
  -10.2081    7.4842   -0.7458 H   0  0  0  0  0  0  0  0  0  0  0  0
  -10.1458    8.4706   -2.2457 H   0  0  0  0  0  0  0  0  0  0  0  0
  -10.9970    6.8888   -2.2457 H   0  0  0  0  0  0  0  0  0  0  0  0
   -3.4183    9.2069   -2.3207 H   0  0  0  0  0  0  0  0  0  0  0  0
   -4.6626    9.7409   -0.3191 H   0  0  0  0  0  0  0  0  0  0  0  0
   -4.1944    8.2194    0.4703 H   0  0  0  0  0  0  0  0  0  0  0  0
   -3.1010   10.7955    1.0491 H   0  0  0  0  0  0  0  0  0  0  0  0
   -2.3697    9.2761    1.5578 H   0  0  0  0  0  0  0  0  0  0  0  0
   -2.3336   12.1164   -0.4909 H   0  0  0  0  0  0  0  0  0  0  0  0
   -1.2092   11.6533   -1.8129 H   0  0  0  0  0  0  0  0  0  0  0  0
   -2.8971   11.0387   -1.8129 H   0  0  0  0  0  0  0  0  0  0  0  0
   -0.0446    9.3748    0.8858 H   0  0  0  0  0  0  0  0  0  0  0  0
   -0.9218   11.6792    1.6325 H   0  0  0  0  0  0  0  0  0  0  0  0
    0.8518   11.2267    1.8266 H   0  0  0  0  0  0  0  0  0  0  0  0
    0.3576   13.6743    0.9831 H   0  0  0  0  0  0  0  0  0  0  0  0
    0.4609   11.4837   -2.4057 H   0  0  0  0  0  0  0  0  0  0  0  0
    3.3981   11.5990   -1.4819 H   0  0  0  0  0  0  0  0  0  0  0  0
    2.7480   10.7480   -2.9527 H   0  0  0  0  0  0  0  0  0  0  0  0
    3.8363   12.8968   -3.5186 H   0  0  0  0  0  0  0  0  0  0  0  0
    2.0744   12.8700   -3.9204 H   0  0  0  0  0  0  0  0  0  0  0  0
    2.6075   14.9908   -2.9318 H   0  0  0  0  0  0  0  0  0  0  0  0
    3.4590   13.5500   -0.5950 H   0  0  0  0  0  0  0  0  0  0  0  0
   -0.8629   14.5267   -2.0631 H   0  0  0  0  0  0  0  0  0  0  0  0
    0.3314   15.2176   -3.2133 H   0  0  0  0  0  0  0  0  0  0  0  0
    0.0020   13.4518   -3.2133 H   0  0  0  0  0  0  0  0  0  0  0  0
    1.1874   15.0464    0.4438 H   0  0  0  0  0  0  0  0  0  0  0  0
    2.0557   16.0109   -0.7982 H   0  0  0  0  0  0  0  0  0  0  0  0
    0.2603   15.9544   -0.7982 H   0  0  0  0  0  0  0  0  0  0  0  0
    2.1173    9.8059    0.9999 H   0  0  0  0  0  0  0  0  0  0  0  0
    2.5872    8.7215   -0.3529 H   0  0  0  0  0  0  0  0  0  0  0  0
    3.1157   10.4382   -0.3529 H   0  0  0  0  0  0  0  0  0  0  0  0
    1.3353    9.2368   -2.8022 H   0  0  0  0  0  0  0  0  0  0  0  0
    1.0282    8.0733   -1.3930 H   0  0  0  0  0  0  0  0  0  0  0  0
   -1.0263    9.6369   -2.9813 H   0  0  0  0  0  0  0  0  0  0  0  0
   -0.7772    7.8479   -2.9102 H   0  0  0  0  0  0  0  0  0  0  0  0
   -1.3086    7.6740    0.7690 H   0  0  0  0  0  0  0  0  0  0  0  0
   -1.8988    6.6036   -0.5474 H   0  0  0  0  0  0  0  0  0  0  0  0
   -0.1945    7.1713   -0.5474 H   0  0  0  0  0  0  0  0  0  0  0  0
  1  2  1  0
  2  3  1  0
  3  4  1  0
  4  5  1  0
  5  6  1  0
  6  7  1  0
  7  8  1  0
  7  9  1  0
  2 10  1  0
 10 11  1  0
 11 12  1  0
 12 13  1  0
 13 14  1  6
 13 15  1  0
 15 16  1  0
 16 17  1  0
 17 18  2  0
 18 19  1  0
 19 20  1  0
 20 21  1  0
 21 22  1  0
 22 23  1  0
 22 24  1  0
 24 25  1  0
 24 26  1  0
 19 27  1  0
 27 28  1  1
 27 29  1  0
 29 30  1  0
 30 31  1  0
 31 32  1  1
  7  5  1  0
 31 10  1  0
 31 13  1  0
 27 15  1  0
 24 18  1  0
  1 33  1  0
  1 34  1  0
  1 35  1  0
  2 36  1  1
  3 37  1  0
  3 38  1  0
  4 39  1  0
  4 40  1  0
  5 41  1  1
  8 42  1  0
  8 43  1  0
  8 44  1  0
  9 45  1  0
  9 46  1  0
  9 47  1  0
 10 48  1  6
 11 49  1  0
 11 50  1  0
 12 51  1  0
 12 52  1  0
 14 53  1  0
 14 54  1  0
 14 55  1  0
 15 56  1  1
 16 57  1  0
 16 58  1  0
 17 59  1  0
 19 60  1  6
 20 61  1  0
 20 62  1  0
 21 63  1  0
 21 64  1  0
 22 65  1  6
 23 66  1  0
 25 67  1  0
 25 68  1  0
 25 69  1  0
 26 70  1  0
 26 71  1  0
 26 72  1  0
 28 73  1  0
 28 74  1  0
 28 75  1  0
 29 76  1  0
 29 77  1  0
 30 78  1  0
 30 79  1  0
 32 80  1  0
 32 81  1  0
 32 82  1  0
M  END
>  <meeko>  (15) 
{"is_sidechain": [false], "intermolecular_energy": 2.731, "internal_energy": -0.839}

$$$$
EPH_relaxed_0001_pdb2pqr_Repair_277_r2_0001_out
     RDKit          3D

 82 86  0  0  0  0  0  0  0  0999 V2000
   -2.4380    7.8530   -2.2560 C   0  0  0  0  0  0  0  0  0  0  0  0
   -2.2990    8.4070   -0.8360 C   0  0  2  0  0  0  0  0  0  0  0  0
   -3.6340    8.3710   -0.0650 C   0  0  0  0  0  0  0  0  0  0  0  0
   -4.8670    8.4880   -0.9640 C   0  0  0  0  0  0  0  0  0  0  0  0
   -5.7010    7.2430   -0.9270 C   0  0  2  0  0  0  0  0  0  0  0  0
   -5.7060    6.4880   -2.1460 O   0  0  0  0  0  0  0  0  0  0  0  0
   -6.9640    7.0560   -1.7470 C   0  0  0  0  0  0  0  0  0  0  0  0
   -7.4650    8.1290   -2.6630 C   0  0  0  0  0  0  0  0  0  0  0  0
   -7.9670    6.0420   -1.2950 C   0  0  0  0  0  0  0  0  0  0  0  0
   -1.7640    9.8330   -0.8840 C   0  0  1  0  0  0  0  0  0  0  0  0
   -1.3370   10.3590    0.5120 C   0  0  0  0  0  0  0  0  0  0  0  0
   -0.1080   11.2770    0.2870 C   0  0  0  0  0  0  0  0  0  0  0  0
   -0.0730   11.5140   -1.2410 C   0  0  1  0  0  0  0  0  0  0  0  0
   -1.1200   12.6430   -1.4960 C   0  0  0  0  0  0  0  0  0  0  0  0
    1.3210   11.8720   -1.8520 C   0  0  2  0  0  0  0  0  0  0  0  0
    1.9400   13.1850   -1.3420 C   0  0  0  0  0  0  0  0  0  0  0  0
    1.5940   14.4030   -2.1340 C   0  0  0  0  0  0  0  0  0  0  0  0
    1.0550   14.4070   -3.3670 C   0  0  0  0  0  0  0  0  0  0  0  0
    0.8300   13.0960   -4.1320 C   0  0  1  0  0  0  0  0  0  0  0  0
    1.3400   13.2520   -5.5890 C   0  0  0  0  0  0  0  0  0  0  0  0
    0.7260   14.4550   -6.2980 C   0  0  0  0  0  0  0  0  0  0  0  0
    1.0220   15.7460   -5.5390 C   0  0  2  0  0  0  0  0  0  0  0  0
    2.4280   16.0040   -5.5980 O   0  0  0  0  0  0  0  0  0  0  0  0
    0.5600   15.7030   -4.0550 C   0  0  0  0  0  0  0  0  0  0  0  0
   -0.9870   15.7260   -3.9910 C   0  0  0  0  0  0  0  0  0  0  0  0
    1.0430   17.0080   -3.3670 C   0  0  0  0  0  0  0  0  0  0  0  0
    1.3790   11.7800   -3.4310 C   0  0  1  0  0  0  0  0  0  0  0  0
    2.8760   11.5610   -3.8090 C   0  0  0  0  0  0  0  0  0  0  0  0
    0.5940   10.5340   -3.9870 C   0  0  0  0  0  0  0  0  0  0  0  0
   -0.7150   10.1600   -3.2650 C   0  0  0  0  0  0  0  0  0  0  0  0
   -0.5050   10.0910   -1.7500 C   0  0  2  0  0  0  0  0  0  0  0  0
    0.5280    8.9490   -1.4610 C   0  0  0  0  0  0  0  0  0  0  0  0
   -2.7055    6.7870   -2.2092 H   0  0  0  0  0  0  0  0  0  0  0  0
   -3.2254    8.4055   -2.7897 H   0  0  0  0  0  0  0  0  0  0  0  0
   -1.4831    7.9683   -2.7897 H   0  0  0  0  0  0  0  0  0  0  0  0
   -1.5893    7.7617   -0.2976 H   0  0  0  0  0  0  0  0  0  0  0  0
   -3.6929    7.4191    0.4831 H   0  0  0  0  0  0  0  0  0  0  0  0
   -3.6414    9.2427    0.6058 H   0  0  0  0  0  0  0  0  0  0  0  0
   -5.4780    9.3365   -0.6223 H   0  0  0  0  0  0  0  0  0  0  0  0
   -4.5239    8.6400   -1.9980 H   0  0  0  0  0  0  0  0  0  0  0  0
   -5.4896    7.1062    0.1438 H   0  0  0  0  0  0  0  0  0  0  0  0
   -7.8562    8.9667   -2.0670 H   0  0  0  0  0  0  0  0  0  0  0  0
   -6.6397    8.4843   -3.2975 H   0  0  0  0  0  0  0  0  0  0  0  0
   -8.2673    7.7243   -3.2975 H   0  0  0  0  0  0  0  0  0  0  0  0
   -7.9925    6.0162   -0.1956 H   0  0  0  0  0  0  0  0  0  0  0  0
   -8.9615    6.3137   -1.6785 H   0  0  0  0  0  0  0  0  0  0  0  0
   -7.6844    5.0505   -1.6785 H   0  0  0  0  0  0  0  0  0  0  0  0
   -2.6344   10.3416   -1.3241 H   0  0  0  0  0  0  0  0  0  0  0  0
   -2.1583   10.9306    0.9689 H   0  0  0  0  0  0  0  0  0  0  0  0
   -1.0906    9.5278    1.1890 H   0  0  0  0  0  0  0  0  0  0  0  0
   -0.2304   12.2287    0.8249 H   0  0  0  0  0  0  0  0  0  0  0  0
    0.8233   10.8266    0.6608 H   0  0  0  0  0  0  0  0  0  0  0  0
   -1.4812   13.0325   -0.5328 H   0  0  0  0  0  0  0  0  0  0  0  0
   -0.6498   13.4568   -2.0675 H   0  0  0  0  0  0  0  0  0  0  0  0
   -1.9669   12.2354   -2.0675 H   0  0  0  0  0  0  0  0  0  0  0  0
    1.9630   11.0687   -1.4614 H   0  0  0  0  0  0  0  0  0  0  0  0
    1.5981   13.3431   -0.3085 H   0  0  0  0  0  0  0  0  0  0  0  0
    3.0295   13.0629   -1.4317 H   0  0  0  0  0  0  0  0  0  0  0  0
    1.7970   15.3795   -1.6701 H   0  0  0  0  0  0  0  0  0  0  0  0
   -0.2571   12.9282   -4.1329 H   0  0  0  0  0  0  0  0  0  0  0  0
    2.4330   13.3746   -5.5688 H   0  0  0  0  0  0  0  0  0  0  0  0
    1.0440   12.3500   -6.1447 H   0  0  0  0  0  0  0  0  0  0  0  0
    1.1470   14.5288   -7.3116 H   0  0  0  0  0  0  0  0  0  0  0  0
   -0.3643   14.3167   -6.3432 H   0  0  0  0  0  0  0  0  0  0  0  0
    0.4503   16.5518   -6.0227 H   0  0  0  0  0  0  0  0  0  0  0  0
    2.8310   15.6220   -4.8000 H   0  0  0  0  0  0  0  0  0  0  0  0
   -1.3105   15.7308   -2.9396 H   0  0  0  0  0  0  0  0  0  0  0  0
   -1.3614   16.6298   -4.4939 H   0  0  0  0  0  0  0  0  0  0  0  0
   -1.3881   14.8337   -4.4939 H   0  0  0  0  0  0  0  0  0  0  0  0
    0.9975   16.8852   -2.2748 H   0  0  0  0  0  0  0  0  0  0  0  0
    2.0792   17.2200   -3.6693 H   0  0  0  0  0  0  0  0  0  0  0  0
    0.3946   17.8435   -3.6693 H   0  0  0  0  0  0  0  0  0  0  0  0
    3.4767   11.4731   -2.8917 H   0  0  0  0  0  0  0  0  0  0  0  0
    2.9736   10.6390   -4.4010 H   0  0  0  0  0  0  0  0  0  0  0  0
    3.2336   12.4164   -4.4010 H   0  0  0  0  0  0  0  0  0  0  0  0
    0.3472   10.7384   -5.0393 H   0  0  0  0  0  0  0  0  0  0  0  0
    1.2651    9.6768   -3.8296 H   0  0  0  0  0  0  0  0  0  0  0  0
   -1.4787   10.9196   -3.4882 H   0  0  0  0  0  0  0  0  0  0  0  0
   -1.0406    9.1708   -3.6193 H   0  0  0  0  0  0  0  0  0  0  0  0
    0.6414    8.8236   -0.3741 H   0  0  0  0  0  0  0  0  0  0  0  0
    0.1678    8.0083   -1.9030 H   0  0  0  0  0  0  0  0  0  0  0  0
    1.5000    9.2133   -1.9030 H   0  0  0  0  0  0  0  0  0  0  0  0
  1  2  1  0
  2  3  1  0
  3  4  1  0
  4  5  1  0
  5  6  1  0
  6  7  1  0
  7  8  1  0
  7  9  1  0
  2 10  1  0
 10 11  1  0
 11 12  1  0
 12 13  1  0
 13 14  1  1
 13 15  1  0
 15 16  1  0
 16 17  1  0
 17 18  2  0
 18 19  1  0
 19 20  1  0
 20 21  1  0
 21 22  1  0
 22 23  1  0
 22 24  1  0
 24 25  1  0
 24 26  1  0
 19 27  1  0
 27 28  1  1
 27 29  1  0
 29 30  1  0
 30 31  1  0
 31 32  1  6
  7  5  1  0
 31 10  1  0
 31 13  1  0
 27 15  1  0
 24 18  1  0
  1 33  1  0
  1 34  1  0
  1 35  1  0
  2 36  1  1
  3 37  1  0
  3 38  1  0
  4 39  1  0
  4 40  1  0
  5 41  1  1
  8 42  1  0
  8 43  1  0
  8 44  1  0
  9 45  1  0
  9 46  1  0
  9 47  1  0
 10 48  1  6
 11 49  1  0
 11 50  1  0
 12 51  1  0
 12 52  1  0
 14 53  1  0
 14 54  1  0
 14 55  1  0
 15 56  1  1
 16 57  1  0
 16 58  1  0
 17 59  1  0
 19 60  1  6
 20 61  1  0
 20 62  1  0
 21 63  1  0
 21 64  1  0
 22 65  1  6
 23 66  1  0
 25 67  1  0
 25 68  1  0
 25 69  1  0
 26 70  1  0
 26 71  1  0
 26 72  1  0
 28 73  1  0
 28 74  1  0
 28 75  1  0
 29 76  1  0
 29 77  1  0
 30 78  1  0
 30 79  1  0
 32 80  1  0
 32 81  1  0
 32 82  1  0
M  END
>  <meeko>  (16) 
{"is_sidechain": [false], "intermolecular_energy": 2.731, "internal_energy": -0.839}

$$$$
EPH_relaxed_0001_pdb2pqr_Repair_277_r2_0001_out
     RDKit          3D

 82 86  0  0  0  0  0  0  0  0999 V2000
   -0.0230   17.4440   -2.3160 C   0  0  0  0  0  0  0  0  0  0  0  0
   -0.2080   16.5890   -1.0600 C   0  0  2  0  0  0  0  0  0  0  0  0
   -0.1510   17.4320    0.2300 C   0  0  0  0  0  0  0  0  0  0  0  0
   -0.5310   18.9000    0.0230 C   0  0  0  0  0  0  0  0  0  0  0  0
    0.5870   19.8220    0.4060 C   0  0  2  0  0  0  0  0  0  0  0  0
    1.5280   20.0900   -0.6420 O   0  0  0  0  0  0  0  0  0  0  0  0
    2.0360   19.3840    0.5020 C   0  0  0  0  0  0  0  0  0  0  0  0
    2.4460   17.9740    0.2150 C   0  0  0  0  0  0  0  0  0  0  0  0
    2.9740   20.1940    1.3420 C   0  0  0  0  0  0  0  0  0  0  0  0
    0.8530   15.4950   -1.0150 C   0  0  1  0  0  0  0  0  0  0  0  0
    0.9290   14.7930    0.3670 C   0  0  0  0  0  0  0  0  0  0  0  0
    1.2720   13.3050    0.0950 C   0  0  0  0  0  0  0  0  0  0  0  0
    1.7060   13.2710   -1.3890 C   0  0  1  0  0  0  0  0  0  0  0  0
    3.1940   13.7440   -1.3830 C   0  0  0  0  0  0  0  0  0  0  0  0
    1.5390   11.9030   -2.1270 C   0  0  2  0  0  0  0  0  0  0  0  0
    2.3770   10.7460   -1.5540 C   0  0  0  0  0  0  0  0  0  0  0  0
    3.7340   10.5840   -2.1550 C   0  0  0  0  0  0  0  0  0  0  0  0
    4.1540   11.1480   -3.3020 C   0  0  0  0  0  0  0  0  0  0  0  0
    3.1940   11.9660   -4.1750 C   0  0  1  0  0  0  0  0  0  0  0  0
    3.3460   11.5340   -5.6580 C   0  0  0  0  0  0  0  0  0  0  0  0
    4.7900   11.6140   -6.1450 C   0  0  0  0  0  0  0  0  0  0  0  0
    5.7040   10.7420   -5.2880 C   0  0  2  0  0  0  0  0  0  0  0  0
    5.3570    9.3690   -5.4940 O   0  0  0  0  0  0  0  0  0  0  0  0
    5.6280   11.0790   -3.7730 C   0  0  0  0  0  0  0  0  0  0  0  0
    6.2860   12.4570   -3.5120 C   0  0  0  0  0  0  0  0  0  0  0  0
    6.4880   10.0370   -3.0080 C   0  0  0  0  0  0  0  0  0  0  0  0
    1.6780   11.9930   -3.7000 C   0  0  1  0  0  0  0  0  0  0  0  0
    0.9150   10.7660   -4.2860 C   0  0  0  0  0  0  0  0  0  0  0  0
    0.9770   13.2740   -4.2900 C   0  0  0  0  0  0  0  0  0  0  0  0
    1.0760   14.5660   -3.4570 C   0  0  0  0  0  0  0  0  0  0  0  0
    0.6920   14.3070   -1.9970 C   0  0  2  0  0  0  0  0  0  0  0  0
   -0.8060   13.8520   -1.9690 C   0  0  0  0  0  0  0  0  0  0  0  0
    0.2013   18.4806   -2.0242 H   0  0  0  0  0  0  0  0  0  0  0  0
    0.8092   17.0430   -2.9132 H   0  0  0  0  0  0  0  0  0  0  0  0
   -0.9465   17.4229   -2.9132 H   0  0  0  0  0  0  0  0  0  0  0  0
   -1.2084   16.1347   -1.1133 H   0  0  0  0  0  0  0  0  0  0  0  0
   -0.8450   16.9936    0.9623 H   0  0  0  0  0  0  0  0  0  0  0  0
    0.8922   17.4161    0.5785 H   0  0  0  0  0  0  0  0  0  0  0  0
   -0.7762   19.0585   -1.0375 H   0  0  0  0  0  0  0  0  0  0  0  0
   -1.3953   19.1241    0.6655 H   0  0  0  0  0  0  0  0  0  0  0  0
   -0.0677   20.3642    1.1041 H   0  0  0  0  0  0  0  0  0  0  0  0
    2.6020   17.4374    1.1625 H   0  0  0  0  0  0  0  0  0  0  0  0
    1.6563   17.4732   -0.3643 H   0  0  0  0  0  0  0  0  0  0  0  0
    3.3811   17.9747   -0.3643 H   0  0  0  0  0  0  0  0  0  0  0  0
    2.7633   20.0121    2.4062 H   0  0  0  0  0  0  0  0  0  0  0  0
    4.0109   19.9028    1.1185 H   0  0  0  0  0  0  0  0  0  0  0  0
    2.8369   21.2623    1.1185 H   0  0  0  0  0  0  0  0  0  0  0  0
    1.7401   16.0874   -1.2836 H   0  0  0  0  0  0  0  0  0  0  0  0
    1.7131   15.2557    0.9843 H   0  0  0  0  0  0  0  0  0  0  0  0
   -0.0231   14.8859    0.9100 H   0  0  0  0  0  0  0  0  0  0  0  0
    2.0918   12.9697    0.7473 H   0  0  0  0  0  0  0  0  0  0  0  0
    0.4219   12.6368    0.2969 H   0  0  0  0  0  0  0  0  0  0  0  0
    3.5396   13.8539   -0.3445 H   0  0  0  0  0  0  0  0  0  0  0  0
    3.8174   12.9997   -1.9001 H   0  0  0  0  0  0  0  0  0  0  0  0
    3.2733   14.7116   -1.9001 H   0  0  0  0  0  0  0  0  0  0  0  0
    0.4906   11.6473   -1.9140 H   0  0  0  0  0  0  0  0  0  0  0  0
    2.5014   10.9182   -0.4747 H   0  0  0  0  0  0  0  0  0  0  0  0
    1.8263    9.8240   -1.7919 H   0  0  0  0  0  0  0  0  0  0  0  0
    4.4515    9.9495   -1.6140 H   0  0  0  0  0  0  0  0  0  0  0  0
    3.4985   13.0167   -4.0594 H   0  0  0  0  0  0  0  0  0  0  0  0
    2.9961   10.4962   -5.7607 H   0  0  0  0  0  0  0  0  0  0  0  0
    2.7480   12.2250   -6.2703 H   0  0  0  0  0  0  0  0  0  0  0  0
    4.8377   11.2687   -7.1883 H   0  0  0  0  0  0  0  0  0  0  0  0
    5.1287   12.6578   -6.0694 H   0  0  0  0  0  0  0  0  0  0  0  0
    6.7394   10.9413   -5.6016 H   0  0  0  0  0  0  0  0  0  0  0  0
    6.1780    8.8820   -5.6740 H   0  0  0  0  0  0  0  0  0  0  0  0
    6.3664   12.6255   -2.4280 H   0  0  0  0  0  0  0  0  0  0  0  0
    7.2899   12.4750   -3.9614 H   0  0  0  0  0  0  0  0  0  0  0  0
    5.6689   13.2490   -3.9614 H   0  0  0  0  0  0  0  0  0  0  0  0
    6.3658   10.1850   -1.9249 H   0  0  0  0  0  0  0  0  0  0  0  0
    6.1610    9.0222   -3.2786 H   0  0  0  0  0  0  0  0  0  0  0  0
    7.5464   10.1656   -3.2786 H   0  0  0  0  0  0  0  0  0  0  0  0
    0.5297   10.1465   -3.4627 H   0  0  0  0  0  0  0  0  0  0  0  0
    0.0758   11.1172   -4.9043 H   0  0  0  0  0  0  0  0  0  0  0  0
    1.6012   10.1687   -4.9043 H   0  0  0  0  0  0  0  0  0  0  0  0
    1.4271   13.4766   -5.2731 H   0  0  0  0  0  0  0  0  0  0  0  0
   -0.0952   13.0294   -4.3153 H   0  0  0  0  0  0  0  0  0  0  0  0
    2.1092   14.9413   -3.4963 H   0  0  0  0  0  0  0  0  0  0  0  0
    0.3809   15.3082   -3.8764 H   0  0  0  0  0  0  0  0  0  0  0  0
   -1.1390   13.7508   -0.9255 H   0  0  0  0  0  0  0  0  0  0  0  0
   -1.4267   14.6021   -2.4809 H   0  0  0  0  0  0  0  0  0  0  0  0
   -0.9046   12.8834   -2.4809 H   0  0  0  0  0  0  0  0  0  0  0  0
  1  2  1  0
  2  3  1  0
  3  4  1  0
  4  5  1  0
  5  6  1  0
  6  7  1  0
  7  8  1  0
  7  9  1  0
  2 10  1  0
 10 11  1  0
 11 12  1  0
 12 13  1  0
 13 14  1  1
 13 15  1  0
 15 16  1  0
 16 17  1  0
 17 18  2  0
 18 19  1  0
 19 20  1  0
 20 21  1  0
 21 22  1  0
 22 23  1  0
 22 24  1  0
 24 25  1  0
 24 26  1  0
 19 27  1  0
 27 28  1  6
 27 29  1  0
 29 30  1  0
 30 31  1  0
 31 32  1  6
  7  5  1  0
 31 10  1  0
 31 13  1  0
 27 15  1  0
 24 18  1  0
  1 33  1  0
  1 34  1  0
  1 35  1  0
  2 36  1  6
  3 37  1  0
  3 38  1  0
  4 39  1  0
  4 40  1  0
  5 41  1  1
  8 42  1  0
  8 43  1  0
  8 44  1  0
  9 45  1  0
  9 46  1  0
  9 47  1  0
 10 48  1  6
 11 49  1  0
 11 50  1  0
 12 51  1  0
 12 52  1  0
 14 53  1  0
 14 54  1  0
 14 55  1  0
 15 56  1  6
 16 57  1  0
 16 58  1  0
 17 59  1  0
 19 60  1  6
 20 61  1  0
 20 62  1  0
 21 63  1  0
 21 64  1  0
 22 65  1  6
 23 66  1  0
 25 67  1  0
 25 68  1  0
 25 69  1  0
 26 70  1  0
 26 71  1  0
 26 72  1  0
 28 73  1  0
 28 74  1  0
 28 75  1  0
 29 76  1  0
 29 77  1  0
 30 78  1  0
 30 79  1  0
 32 80  1  0
 32 81  1  0
 32 82  1  0
M  END
>  <meeko>  (17) 
{"is_sidechain": [false], "intermolecular_energy": 2.731, "internal_energy": -0.839}

$$$$
EPH_relaxed_0001_pdb2pqr_Repair_277_r2_0001_out
     RDKit          3D

 82 86  0  0  0  0  0  0  0  0999 V2000
    0.2060    9.8540   -4.6060 C   0  0  0  0  0  0  0  0  0  0  0  0
    1.2930   10.5830   -3.8100 C   0  0  2  0  0  0  0  0  0  0  0  0
    1.7580    9.7710   -2.5840 C   0  0  0  0  0  0  0  0  0  0  0  0
    0.7630    8.6940   -2.1450 C   0  0  0  0  0  0  0  0  0  0  0  0
   -0.1310    9.1810   -1.0450 C   0  0  2  0  0  0  0  0  0  0  0  0
   -0.7060    8.1450   -0.2380 O   0  0  0  0  0  0  0  0  0  0  0  0
   -1.6270    8.9320   -1.0100 C   0  0  0  0  0  0  0  0  0  0  0  0
   -2.3170    8.1690   -2.0970 C   0  0  0  0  0  0  0  0  0  0  0  0
   -2.4850    9.8390   -0.1840 C   0  0  0  0  0  0  0  0  0  0  0  0
    0.7850   11.9500   -3.3670 C   0  0  1  0  0  0  0  0  0  0  0  0
   -0.7320   11.9450   -3.0390 C   0  0  0  0  0  0  0  0  0  0  0  0
   -0.9390   12.9350   -1.8640 C   0  0  0  0  0  0  0  0  0  0  0  0
    0.3930   13.7170   -1.7740 C   0  0  1  0  0  0  0  0  0  0  0  0
    0.2890   14.8130   -2.8810 C   0  0  0  0  0  0  0  0  0  0  0  0
    0.7390   14.3350   -0.3800 C   0  0  2  0  0  0  0  0  0  0  0  0
   -0.2530   15.3960    0.1280 C   0  0  0  0  0  0  0  0  0  0  0  0
    0.0630   16.8020   -0.2600 C   0  0  0  0  0  0  0  0  0  0  0  0
    1.2430   17.2340   -0.7410 C   0  0  0  0  0  0  0  0  0  0  0  0
    2.4460   16.2870   -0.8460 C   0  0  1  0  0  0  0  0  0  0  0  0
    3.7080   16.9880   -0.2810 C   0  0  0  0  0  0  0  0  0  0  0  0
    3.9710   18.3390   -0.9390 C   0  0  0  0  0  0  0  0  0  0  0  0
    2.7770   19.2730   -0.7630 C   0  0  2  0  0  0  0  0  0  0  0  0
    2.6450   19.5960    0.6250 O   0  0  0  0  0  0  0  0  0  0  0  0
    1.4440   18.6690   -1.2880 C   0  0  0  0  0  0  0  0  0  0  0  0
    1.4780   18.5990   -2.8350 C   0  0  0  0  0  0  0  0  0  0  0  0
    0.2980   19.6510   -0.9230 C   0  0  0  0  0  0  0  0  0  0  0  0
    2.2350   14.8310   -0.2440 C   0  0  1  0  0  0  0  0  0  0  0  0
    2.5680   14.8310    1.2790 C   0  0  0  0  0  0  0  0  0  0  0  0
    3.2570   13.8420   -0.9210 C   0  0  0  0  0  0  0  0  0  0  0  0
    2.8090   13.1720   -2.2340 C   0  0  0  0  0  0  0  0  0  0  0  0
    1.4120   12.5620   -2.0900 C   0  0  2  0  0  0  0  0  0  0  0  0
    1.4900   11.4400   -0.9990 C   0  0  0  0  0  0  0  0  0  0  0  0
   -0.5017    9.3793   -3.9104 H   0  0  0  0  0  0  0  0  0  0  0  0
   -0.3307   10.5755   -5.2396 H   0  0  0  0  0  0  0  0  0  0  0  0
    0.6699    9.0837   -5.2396 H   0  0  0  0  0  0  0  0  0  0  0  0
    2.1618   10.7066   -4.4732 H   0  0  0  0  0  0  0  0  0  0  0  0
    2.7115    9.2821   -2.8328 H   0  0  0  0  0  0  0  0  0  0  0  0
    1.8546   10.4790   -1.7477 H   0  0  0  0  0  0  0  0  0  0  0  0
    0.1434    8.4080   -3.0078 H   0  0  0  0  0  0  0  0  0  0  0  0
    1.3339    7.8330   -1.7672 H   0  0  0  0  0  0  0  0  0  0  0  0
    0.4671   10.0974   -0.9331 H   0  0  0  0  0  0  0  0  0  0  0  0
   -2.9913    7.4234   -1.6504 H   0  0  0  0  0  0  0  0  0  0  0  0
   -2.8996    8.8638   -2.7197 H   0  0  0  0  0  0  0  0  0  0  0  0
   -1.5673    7.6590   -2.7197 H   0  0  0  0  0  0  0  0  0  0  0  0
   -2.3019    9.6455    0.8832 H   0  0  0  0  0  0  0  0  0  0  0  0
   -2.2393   10.8862   -0.4142 H   0  0  0  0  0  0  0  0  0  0  0  0
   -3.5442    9.6518   -0.4142 H   0  0  0  0  0  0  0  0  0  0  0  0
    1.0675   12.5463   -4.2471 H   0  0  0  0  0  0  0  0  0  0  0  0
   -1.3102   12.2717   -3.9159 H   0  0  0  0  0  0  0  0  0  0  0  0
   -1.0744   10.9350   -2.7694 H   0  0  0  0  0  0  0  0  0  0  0  0
   -1.7763   13.6169   -2.0735 H   0  0  0  0  0  0  0  0  0  0  0  0
   -1.1854   12.4207   -0.9234 H   0  0  0  0  0  0  0  0  0  0  0  0
    0.1951   15.8025   -2.4097 H   0  0  0  0  0  0  0  0  0  0  0  0
    1.1934   14.7892   -3.5066 H   0  0  0  0  0  0  0  0  0  0  0  0
   -0.5948   14.6195   -3.5066 H   0  0  0  0  0  0  0  0  0  0  0  0
    0.6260   13.4732    0.2941 H   0  0  0  0  0  0  0  0  0  0  0  0
   -1.2482   15.1491   -0.2702 H   0  0  0  0  0  0  0  0  0  0  0  0
   -0.1972   15.3636    1.2261 H   0  0  0  0  0  0  0  0  0  0  0  0
   -0.7365   17.5484   -0.1428 H   0  0  0  0  0  0  0  0  0  0  0  0
    2.5816   16.0844   -1.9186 H   0  0  0  0  0  0  0  0  0  0  0  0
    3.5715   17.1427    0.7995 H   0  0  0  0  0  0  0  0  0  0  0  0
    4.5719   16.3404   -0.4914 H   0  0  0  0  0  0  0  0  0  0  0  0
    4.8579   18.7976   -0.4775 H   0  0  0  0  0  0  0  0  0  0  0  0
    4.1363   18.1794   -2.0147 H   0  0  0  0  0  0  0  0  0  0  0  0
    2.9714   20.1737   -1.3638 H   0  0  0  0  0  0  0  0  0  0  0  0
    1.9620   20.2840    0.7030 H   0  0  0  0  0  0  0  0  0  0  0  0
    1.9386   17.6507   -3.1491 H   0  0  0  0  0  0  0  0  0  0  0  0
    0.4519   18.6559   -3.2273 H   0  0  0  0  0  0  0  0  0  0  0  0
    2.0677   19.4407   -3.2273 H   0  0  0  0  0  0  0  0  0  0  0  0
    0.2125   19.7243    0.1712 H   0  0  0  0  0  0  0  0  0  0  0  0
    0.5192   20.6442   -1.3408 H   0  0  0  0  0  0  0  0  0  0  0  0
   -0.6496   19.2802   -1.3408 H   0  0  0  0  0  0  0  0  0  0  0  0
    2.6463   13.7939    1.6372 H   0  0  0  0  0  0  0  0  0  0  0  0
    3.5237   15.3495    1.4454 H   0  0  0  0  0  0  0  0  0  0  0  0
    1.7689   15.3495    1.8291 H   0  0  0  0  0  0  0  0  0  0  0  0
    4.1767   14.4072   -1.1326 H   0  0  0  0  0  0  0  0  0  0  0  0
    3.3779   13.0171   -0.2034 H   0  0  0  0  0  0  0  0  0  0  0  0
    2.7915   13.9259   -3.0348 H   0  0  0  0  0  0  0  0  0  0  0  0
    3.5191   12.3679   -2.4771 H   0  0  0  0  0  0  0  0  0  0  0  0
    1.4582   11.8978    0.0007 H   0  0  0  0  0  0  0  0  0  0  0  0
    0.6373   10.7550   -1.1159 H   0  0  0  0  0  0  0  0  0  0  0  0
    2.4293   10.8796   -1.1159 H   0  0  0  0  0  0  0  0  0  0  0  0
  1  2  1  0
  2  3  1  0
  3  4  1  0
  4  5  1  0
  5  6  1  0
  6  7  1  0
  7  8  1  0
  7  9  1  0
  2 10  1  0
 10 11  1  0
 11 12  1  0
 12 13  1  0
 13 14  1  6
 13 15  1  0
 15 16  1  0
 16 17  1  0
 17 18  2  0
 18 19  1  0
 19 20  1  0
 20 21  1  0
 21 22  1  0
 22 23  1  0
 22 24  1  0
 24 25  1  0
 24 26  1  0
 19 27  1  0
 27 28  1  1
 27 29  1  0
 29 30  1  0
 30 31  1  0
 31 32  1  1
  7  5  1  0
 31 10  1  0
 31 13  1  0
 27 15  1  0
 24 18  1  0
  1 33  1  0
  1 34  1  0
  1 35  1  0
  2 36  1  6
  3 37  1  0
  3 38  1  0
  4 39  1  0
  4 40  1  0
  5 41  1  1
  8 42  1  0
  8 43  1  0
  8 44  1  0
  9 45  1  0
  9 46  1  0
  9 47  1  0
 10 48  1  6
 11 49  1  0
 11 50  1  0
 12 51  1  0
 12 52  1  0
 14 53  1  0
 14 54  1  0
 14 55  1  0
 15 56  1  1
 16 57  1  0
 16 58  1  0
 17 59  1  0
 19 60  1  6
 20 61  1  0
 20 62  1  0
 21 63  1  0
 21 64  1  0
 22 65  1  6
 23 66  1  0
 25 67  1  0
 25 68  1  0
 25 69  1  0
 26 70  1  0
 26 71  1  0
 26 72  1  0
 28 73  1  0
 28 74  1  0
 28 75  1  0
 29 76  1  0
 29 77  1  0
 30 78  1  0
 30 79  1  0
 32 80  1  0
 32 81  1  0
 32 82  1  0
M  END
>  <meeko>  (18) 
{"is_sidechain": [false], "intermolecular_energy": 2.731, "internal_energy": -0.839}

$$$$
EPH_relaxed_0001_pdb2pqr_Repair_277_r2_0001_out
     RDKit          3D

 82 86  0  0  0  0  0  0  0  0999 V2000
   -0.0750    9.3140   -4.1850 C   0  0  0  0  0  0  0  0  0  0  0  0
    0.0910    9.5310   -2.6790 C   0  0  2  0  0  0  0  0  0  0  0  0
   -0.7030    8.5000   -1.8520 C   0  0  0  0  0  0  0  0  0  0  0  0
   -2.2180    8.5770   -2.0630 C   0  0  0  0  0  0  0  0  0  0  0  0
   -2.7580    7.3170   -2.6680 C   0  0  2  0  0  0  0  0  0  0  0  0
   -3.7960    7.5150   -3.6370 O   0  0  0  0  0  0  0  0  0  0  0  0
   -4.1720    6.8180   -2.4380 C   0  0  0  0  0  0  0  0  0  0  0  0
   -5.1340    7.5710   -1.5730 C   0  0  0  0  0  0  0  0  0  0  0  0
   -4.4620    5.3650   -2.6510 C   0  0  0  0  0  0  0  0  0  0  0  0
   -0.3440   10.9440   -2.3070 C   0  0  1  0  0  0  0  0  0  0  0  0
   -1.5680   10.9600   -1.3520 C   0  0  0  0  0  0  0  0  0  0  0  0
   -1.3760   12.1680   -0.4000 C   0  0  0  0  0  0  0  0  0  0  0  0
   -0.2380   12.9950   -1.0420 C   0  0  1  0  0  0  0  0  0  0  0  0
   -0.9320   13.8280   -2.1650 C   0  0  0  0  0  0  0  0  0  0  0  0
    0.5870   13.9040   -0.0740 C   0  0  2  0  0  0  0  0  0  0  0  0
   -0.2180   15.0160    0.6210 C   0  0  0  0  0  0  0  0  0  0  0  0
   -0.2690   16.3180   -0.1070 C   0  0  0  0  0  0  0  0  0  0  0  0
    0.5360   16.6760   -1.1250 C   0  0  0  0  0  0  0  0  0  0  0  0
    1.6860   15.7680   -1.5770 C   0  0  1  0  0  0  0  0  0  0  0  0
    2.9740   16.6140   -1.7570 C   0  0  0  0  0  0  0  0  0  0  0  0
    2.7680   17.8030   -2.6900 C   0  0  0  0  0  0  0  0  0  0  0  0
    1.6560   18.7130   -2.1760 C   0  0  2  0  0  0  0  0  0  0  0  0
    2.0840   19.3180   -0.9520 O   0  0  0  0  0  0  0  0  0  0  0  0
    0.3110   17.9690   -1.9480 C   0  0  0  0  0  0  0  0  0  0  0  0
   -0.3040   17.5750   -3.3140 C   0  0  0  0  0  0  0  0  0  0  0  0
   -0.6840   18.9680   -1.2960 C   0  0  0  0  0  0  0  0  0  0  0  0
    1.9280   14.4660   -0.6980 C   0  0  1  0  0  0  0  0  0  0  0  0
    2.8710   14.8000    0.4980 C   0  0  0  0  0  0  0  0  0  0  0  0
    2.6800   13.3910   -1.5690 C   0  0  0  0  0  0  0  0  0  0  0  0
    1.8040   12.4430   -2.4110 C   0  0  0  0  0  0  0  0  0  0  0  0
    0.6840   11.8330   -1.5640 C   0  0  2  0  0  0  0  0  0  0  0  0
    1.3520   10.9700   -0.4390 C   0  0  0  0  0  0  0  0  0  0  0  0
   -0.7348    8.4515   -4.3607 H   0  0  0  0  0  0  0  0  0  0  0  0
   -0.5181   10.2130   -4.6383 H   0  0  0  0  0  0  0  0  0  0  0  0
    0.9086    9.1216   -4.6383 H   0  0  0  0  0  0  0  0  0  0  0  0
    1.1561    9.3946   -2.4404 H   0  0  0  0  0  0  0  0  0  0  0  0
   -0.3637    7.4925   -2.1347 H   0  0  0  0  0  0  0  0  0  0  0  0
   -0.5142    8.7242   -0.7918 H   0  0  0  0  0  0  0  0  0  0  0  0
   -2.7053    8.7430   -1.0909 H   0  0  0  0  0  0  0  0  0  0  0  0
   -2.4261    9.4063   -2.7551 H   0  0  0  0  0  0  0  0  0  0  0  0
   -1.7782    6.8254   -2.5769 H   0  0  0  0  0  0  0  0  0  0  0  0
   -4.8977    7.3861   -0.5147 H   0  0  0  0  0  0  0  0  0  0  0  0
   -5.0520    8.6474   -1.7843 H   0  0  0  0  0  0  0  0  0  0  0  0
   -6.1592    7.2329   -1.7843 H   0  0  0  0  0  0  0  0  0  0  0  0
   -4.5619    4.8644   -1.6766 H   0  0  0  0  0  0  0  0  0  0  0  0
   -5.3994    5.2572   -3.2164 H   0  0  0  0  0  0  0  0  0  0  0  0
   -3.6378    4.9057   -3.2164 H   0  0  0  0  0  0  0  0  0  0  0  0
   -0.5338   11.3487   -3.3121 H   0  0  0  0  0  0  0  0  0  0  0  0
   -2.4973   11.0763   -1.9290 H   0  0  0  0  0  0  0  0  0  0  0  0
   -1.6406   10.0191   -0.7868 H   0  0  0  0  0  0  0  0  0  0  0  0
   -2.2993   12.7624   -0.3361 H   0  0  0  0  0  0  0  0  0  0  0  0
   -1.1357   11.8552    0.6268 H   0  0  0  0  0  0  0  0  0  0  0  0
   -1.5726   14.5969   -1.7084 H   0  0  0  0  0  0  0  0  0  0  0  0
   -0.1662   14.3120   -2.7890 H   0  0  0  0  0  0  0  0  0  0  0  0
   -1.5463   13.1622   -2.7890 H   0  0  0  0  0  0  0  0  0  0  0  0
    0.8750   13.2011    0.7216 H   0  0  0  0  0  0  0  0  0  0  0  0
   -1.2502   14.6582    0.7498 H   0  0  0  0  0  0  0  0  0  0  0  0
    0.3004   15.2186    1.5698 H   0  0  0  0  0  0  0  0  0  0  0  0
   -1.0280   17.0461    0.2153 H   0  0  0  0  0  0  0  0  0  0  0  0
    1.3784   15.3467   -2.5455 H   0  0  0  0  0  0  0  0  0  0  0  0
    3.2898   16.9892   -0.7723 H   0  0  0  0  0  0  0  0  0  0  0  0
    3.7392   15.9649   -2.2077 H   0  0  0  0  0  0  0  0  0  0  0  0
    3.7037   18.3779   -2.7525 H   0  0  0  0  0  0  0  0  0  0  0  0
    2.4819   17.4251   -3.6826 H   0  0  0  0  0  0  0  0  0  0  0  0
    1.4673   19.4717   -2.9498 H   0  0  0  0  0  0  0  0  0  0  0  0
    2.3700   18.6060   -0.3560 H   0  0  0  0  0  0  0  0  0  0  0  0
   -1.2197   16.9884   -3.1483 H   0  0  0  0  0  0  0  0  0  0  0  0
   -0.5490   18.4847   -3.8819 H   0  0  0  0  0  0  0  0  0  0  0  0
    0.4200   16.9722   -3.8819 H   0  0  0  0  0  0  0  0  0  0  0  0
   -0.6117   18.8954   -0.2008 H   0  0  0  0  0  0  0  0  0  0  0  0
   -0.4361   19.9918   -1.6128 H   0  0  0  0  0  0  0  0  0  0  0  0
   -1.7088   18.7242   -1.6128 H   0  0  0  0  0  0  0  0  0  0  0  0
    2.3429   14.6130    1.4446 H   0  0  0  0  0  0  0  0  0  0  0  0
    3.7675   14.1647    0.4466 H   0  0  0  0  0  0  0  0  0  0  0  0
    3.1678   15.8579    0.4466 H   0  0  0  0  0  0  0  0  0  0  0  0
    3.3467   13.9289   -2.2591 H   0  0  0  0  0  0  0  0  0  0  0  0
    3.1934   12.7415   -0.8447 H   0  0  0  0  0  0  0  0  0  0  0  0
    1.3586   13.0086   -3.2427 H   0  0  0  0  0  0  0  0  0  0  0  0
    2.4368   11.6287   -2.7937 H   0  0  0  0  0  0  0  0  0  0  0  0
    1.0526   11.3568    0.5463 H   0  0  0  0  0  0  0  0  0  0  0  0
    1.0259    9.9240   -0.5369 H   0  0  0  0  0  0  0  0  0  0  0  0
    2.4463   11.0235   -0.5369 H   0  0  0  0  0  0  0  0  0  0  0  0
  1  2  1  0
  2  3  1  0
  3  4  1  0
  4  5  1  0
  5  6  1  0
  6  7  1  0
  7  8  1  0
  7  9  1  0
  2 10  1  0
 10 11  1  0
 11 12  1  0
 12 13  1  0
 13 14  1  6
 13 15  1  0
 15 16  1  0
 16 17  1  0
 17 18  2  0
 18 19  1  0
 19 20  1  0
 20 21  1  0
 21 22  1  0
 22 23  1  0
 22 24  1  0
 24 25  1  0
 24 26  1  0
 19 27  1  0
 27 28  1  1
 27 29  1  0
 29 30  1  0
 30 31  1  0
 31 32  1  1
  7  5  1  0
 31 10  1  0
 31 13  1  0
 27 15  1  0
 24 18  1  0
  1 33  1  0
  1 34  1  0
  1 35  1  0
  2 36  1  1
  3 37  1  0
  3 38  1  0
  4 39  1  0
  4 40  1  0
  5 41  1  6
  8 42  1  0
  8 43  1  0
  8 44  1  0
  9 45  1  0
  9 46  1  0
  9 47  1  0
 10 48  1  6
 11 49  1  0
 11 50  1  0
 12 51  1  0
 12 52  1  0
 14 53  1  0
 14 54  1  0
 14 55  1  0
 15 56  1  1
 16 57  1  0
 16 58  1  0
 17 59  1  0
 19 60  1  6
 20 61  1  0
 20 62  1  0
 21 63  1  0
 21 64  1  0
 22 65  1  6
 23 66  1  0
 25 67  1  0
 25 68  1  0
 25 69  1  0
 26 70  1  0
 26 71  1  0
 26 72  1  0
 28 73  1  0
 28 74  1  0
 28 75  1  0
 29 76  1  0
 29 77  1  0
 30 78  1  0
 30 79  1  0
 32 80  1  0
 32 81  1  0
 32 82  1  0
M  END
>  <meeko>  (19) 
{"is_sidechain": [false], "intermolecular_energy": 2.731, "internal_energy": -0.839}

$$$$
