EPH_relaxed_0001_pdb2pqr_Repair_60_r2_0001_out
     RDKit          3D

 82 86  0  0  0  0  0  0  0  0999 V2000
   -1.7110    8.5890   -1.8740 C   0  0  0  0  0  0  0  0  0  0  0  0
   -2.0910    9.1110   -0.4860 C   0  0  2  0  0  0  0  0  0  0  0  0
   -3.5860    9.4800   -0.3940 C   0  0  0  0  0  0  0  0  0  0  0  0
   -4.5090    8.2690   -0.2330 C   0  0  0  0  0  0  0  0  0  0  0  0
   -5.2080    7.9300   -1.5150 C   0  0  2  0  0  0  0  0  0  0  0  0
   -6.3540    8.7410   -1.8050 O   0  0  0  0  0  0  0  0  0  0  0  0
   -6.6060    7.3450   -1.5760 C   0  0  0  0  0  0  0  0  0  0  0  0
   -7.3890    7.0630   -0.3330 C   0  0  0  0  0  0  0  0  0  0  0  0
   -7.0150    6.5970   -2.8070 C   0  0  0  0  0  0  0  0  0  0  0  0
   -1.2340   10.3210   -0.1330 C   0  0  1  0  0  0  0  0  0  0  0  0
   -0.2070   10.0180    0.9910 C   0  0  0  0  0  0  0  0  0  0  0  0
    1.0640   10.8450    0.6700 C   0  0  0  0  0  0  0  0  0  0  0  0
    0.6160   11.8400   -0.4250 C   0  0  1  0  0  0  0  0  0  0  0  0
   -0.0950   12.9950    0.3480 C   0  0  0  0  0  0  0  0  0  0  0  0
    1.7390   12.3820   -1.3680 C   0  0  2  0  0  0  0  0  0  0  0  0
    2.8390   13.2000   -0.6700 C   0  0  0  0  0  0  0  0  0  0  0  0
    2.5870   14.6690   -0.5890 C   0  0  0  0  0  0  0  0  0  0  0  0
    1.6670   15.3460   -1.3020 C   0  0  0  0  0  0  0  0  0  0  0  0
    0.8270   14.6400   -2.3740 C   0  0  1  0  0  0  0  0  0  0  0  0
    0.8050   15.5010   -3.6640 C   0  0  0  0  0  0  0  0  0  0  0  0
    0.3390   16.9310   -3.4050 C   0  0  0  0  0  0  0  0  0  0  0  0
    1.2350   17.6180   -2.3770 C   0  0  2  0  0  0  0  0  0  0  0  0
    2.5390   17.7870   -2.9410 O   0  0  0  0  0  0  0  0  0  0  0  0
    1.3420   16.8360   -1.0380 C   0  0  0  0  0  0  0  0  0  0  0  0
   -0.0080   16.9130   -0.2820 C   0  0  0  0  0  0  0  0  0  0  0  0
    2.3820   17.5620   -0.1440 C   0  0  0  0  0  0  0  0  0  0  0  0
    1.2000   13.1220   -2.6600 C   0  0  1  0  0  0  0  0  0  0  0  0
    2.3380   13.0450   -3.7240 C   0  0  0  0  0  0  0  0  0  0  0  0
   -0.0470   12.3950   -3.2890 C   0  0  0  0  0  0  0  0  0  0  0  0
   -1.0590   11.7770   -2.3070 C   0  0  0  0  0  0  0  0  0  0  0  0
   -0.3490   10.9180   -1.2560 C   0  0  2  0  0  0  0  0  0  0  0  0
    0.3560    9.7350   -2.0020 C   0  0  0  0  0  0  0  0  0  0  0  0
   -1.0666    7.7037   -1.7690 H   0  0  0  0  0  0  0  0  0  0  0  0
   -2.6228    8.3155   -2.4252 H   0  0  0  0  0  0  0  0  0  0  0  0
   -1.1706    9.3727   -2.4252 H   0  0  0  0  0  0  0  0  0  0  0  0
   -1.9053    8.3008    0.2345 H   0  0  0  0  0  0  0  0  0  0  0  0
   -3.7277   10.1425    0.4726 H   0  0  0  0  0  0  0  0  0  0  0  0
   -3.8564    9.9670   -1.3426 H   0  0  0  0  0  0  0  0  0  0  0  0
   -3.9093    7.4036    0.0856 H   0  0  0  0  0  0  0  0  0  0  0  0
   -5.2728    8.5177    0.5185 H   0  0  0  0  0  0  0  0  0  0  0  0
   -4.2589    7.6228   -1.9784 H   0  0  0  0  0  0  0  0  0  0  0  0
   -6.7701    7.2859    0.5487 H   0  0  0  0  0  0  0  0  0  0  0  0
   -8.2907    7.6929   -0.3168 H   0  0  0  0  0  0  0  0  0  0  0  0
   -7.6820    6.0029   -0.3168 H   0  0  0  0  0  0  0  0  0  0  0  0
   -7.5242    5.6658   -2.5180 H   0  0  0  0  0  0  0  0  0  0  0  0
   -7.6987    7.2188   -3.4037 H   0  0  0  0  0  0  0  0  0  0  0  0
   -6.1226    6.3570   -3.4037 H   0  0  0  0  0  0  0  0  0  0  0  0
   -2.0256   11.0338    0.1413 H   0  0  0  0  0  0  0  0  0  0  0  0
   -0.6158   10.3155    1.9679 H   0  0  0  0  0  0  0  0  0  0  0  0
    0.0223    8.9432    1.0373 H   0  0  0  0  0  0  0  0  0  0  0  0
    1.4134   11.3827    1.5638 H   0  0  0  0  0  0  0  0  0  0  0  0
    1.9013   10.2120    0.3410 H   0  0  0  0  0  0  0  0  0  0  0  0
    0.0072   12.8290    1.4306 H   0  0  0  0  0  0  0  0  0  0  0  0
    0.3682   13.9558    0.0790 H   0  0  0  0  0  0  0  0  0  0  0  0
   -1.1614   13.0141    0.0790 H   0  0  0  0  0  0  0  0  0  0  0  0
    2.2263   11.4569   -1.7097 H   0  0  0  0  0  0  0  0  0  0  0  0
    2.9486   12.8169    0.3553 H   0  0  0  0  0  0  0  0  0  0  0  0
    3.7436   13.0799   -1.2843 H   0  0  0  0  0  0  0  0  0  0  0  0
    3.2055   15.2477    0.1128 H   0  0  0  0  0  0  0  0  0  0  0  0
   -0.1891   14.5605   -1.9602 H   0  0  0  0  0  0  0  0  0  0  0  0
    1.8209   15.5319   -4.0847 H   0  0  0  0  0  0  0  0  0  0  0  0
    0.0917   15.0385   -4.3621 H   0  0  0  0  0  0  0  0  0  0  0  0
    0.3726   17.4971   -4.3476 H   0  0  0  0  0  0  0  0  0  0  0  0
   -0.6878   16.9004   -3.0117 H   0  0  0  0  0  0  0  0  0  0  0  0
    0.7773   18.5892   -2.1374 H   0  0  0  0  0  0  0  0  0  0  0  0
    2.9850   18.4930   -2.4440 H   0  0  0  0  0  0  0  0  0  0  0  0
    0.1778   16.9024    0.8022 H   0  0  0  0  0  0  0  0  0  0  0  0
   -0.5290   17.8423   -0.5557 H   0  0  0  0  0  0  0  0  0  0  0  0
   -0.6313   16.0489   -0.5557 H   0  0  0  0  0  0  0  0  0  0  0  0
    2.1378   17.3915    0.9149 H   0  0  0  0  0  0  0  0  0  0  0  0
    3.3868   17.1681   -0.3566 H   0  0  0  0  0  0  0  0  0  0  0  0
    2.3586   18.6410   -0.3566 H   0  0  0  0  0  0  0  0  0  0  0  0
    3.3113   12.9791   -3.2158 H   0  0  0  0  0  0  0  0  0  0  0  0
    2.1920   12.1547   -4.3533 H   0  0  0  0  0  0  0  0  0  0  0  0
    2.3132   13.9469   -4.3533 H   0  0  0  0  0  0  0  0  0  0  0  0
   -0.5864   13.1310   -3.9033 H   0  0  0  0  0  0  0  0  0  0  0  0
    0.3682   11.5435   -3.8480 H   0  0  0  0  0  0  0  0  0  0  0  0
   -1.6081   12.5845   -1.8005 H   0  0  0  0  0  0  0  0  0  0  0  0
   -1.7513   11.1369   -2.8735 H   0  0  0  0  0  0  0  0  0  0  0  0
    0.7739    9.0337   -1.2648 H   0  0  0  0  0  0  0  0  0  0  0  0
   -0.3769    9.2104   -2.6326 H   0  0  0  0  0  0  0  0  0  0  0  0
    1.1661   10.1300   -2.6326 H   0  0  0  0  0  0  0  0  0  0  0  0
  1  2  1  0
  2  3  1  0
  3  4  1  0
  4  5  1  0
  5  6  1  0
  6  7  1  0
  7  8  1  0
  7  9  1  0
  2 10  1  0
 10 11  1  0
 11 12  1  0
 12 13  1  0
 13 14  1  1
 13 15  1  0
 15 16  1  0
 16 17  1  0
 17 18  2  0
 18 19  1  0
 19 20  1  0
 20 21  1  0
 21 22  1  0
 22 23  1  0
 22 24  1  0
 24 25  1  0
 24 26  1  0
 19 27  1  0
 27 28  1  6
 27 29  1  0
 29 30  1  0
 30 31  1  0
 31 32  1  6
  7  5  1  0
 31 10  1  0
 31 13  1  0
 27 15  1  0
 24 18  1  0
  1 33  1  0
  1 34  1  0
  1 35  1  0
  2 36  1  1
  3 37  1  0
  3 38  1  0
  4 39  1  0
  4 40  1  0
  5 41  1  6
  8 42  1  0
  8 43  1  0
  8 44  1  0
  9 45  1  0
  9 46  1  0
  9 47  1  0
 10 48  1  1
 11 49  1  0
 11 50  1  0
 12 51  1  0
 12 52  1  0
 14 53  1  0
 14 54  1  0
 14 55  1  0
 15 56  1  6
 16 57  1  0
 16 58  1  0
 17 59  1  0
 19 60  1  1
 20 61  1  0
 20 62  1  0
 21 63  1  0
 21 64  1  0
 22 65  1  1
 23 66  1  0
 25 67  1  0
 25 68  1  0
 25 69  1  0
 26 70  1  0
 26 71  1  0
 26 72  1  0
 28 73  1  0
 28 74  1  0
 28 75  1  0
 29 76  1  0
 29 77  1  0
 30 78  1  0
 30 79  1  0
 32 80  1  0
 32 81  1  0
 32 82  1  0
M  END
>  <meeko>  (1) 
{"is_sidechain": [false], "intermolecular_energy": 2.731, "internal_energy": -0.839}

$$$$
EPH_relaxed_0001_pdb2pqr_Repair_60_r2_0001_out
     RDKit          3D

 82 86  0  0  0  0  0  0  0  0999 V2000
    4.2110   17.5550   -0.6580 C   0  0  0  0  0  0  0  0  0  0  0  0
    2.8520   18.1260   -0.2460 C   0  0  2  0  0  0  0  0  0  0  0  0
    2.9080   18.8240    1.1280 C   0  0  0  0  0  0  0  0  0  0  0  0
    4.2640   18.6980    1.8270 C   0  0  0  0  0  0  0  0  0  0  0  0
    4.2240   19.2540    3.2190 C   0  0  2  0  0  0  0  0  0  0  0  0
    5.2640   20.1940    3.5180 O   0  0  0  0  0  0  0  0  0  0  0  0
    5.2850   18.9670    4.2650 C   0  0  0  0  0  0  0  0  0  0  0  0
    6.4610   18.0920    3.9640 C   0  0  0  0  0  0  0  0  0  0  0  0
    4.9290   19.1350    5.7090 C   0  0  0  0  0  0  0  0  0  0  0  0
    1.8070   17.0170   -0.2240 C   0  0  1  0  0  0  0  0  0  0  0  0
    0.3780   17.5360   -0.5360 C   0  0  0  0  0  0  0  0  0  0  0  0
   -0.3410   16.4150   -1.3300 C   0  0  0  0  0  0  0  0  0  0  0  0
    0.5660   15.1740   -1.1620 C   0  0  1  0  0  0  0  0  0  0  0  0
    0.1960   14.5930    0.2390 C   0  0  0  0  0  0  0  0  0  0  0  0
    0.4660   14.0870   -2.2820 C   0  0  2  0  0  0  0  0  0  0  0  0
   -0.9130   13.4190   -2.4210 C   0  0  0  0  0  0  0  0  0  0  0  0
   -1.1100   12.1880   -1.5990 C   0  0  0  0  0  0  0  0  0  0  0  0
   -0.1330   11.4790   -1.0040 C   0  0  0  0  0  0  0  0  0  0  0  0
    1.3430   11.8460   -1.2100 C   0  0  1  0  0  0  0  0  0  0  0  0
    2.1570   10.5620   -1.5180 C   0  0  0  0  0  0  0  0  0  0  0  0
    1.9670    9.4800   -0.4590 C   0  0  0  0  0  0  0  0  0  0  0  0
    0.4940    9.1020   -0.3250 C   0  0  2  0  0  0  0  0  0  0  0  0
    0.0690    8.4650   -1.5340 O   0  0  0  0  0  0  0  0  0  0  0  0
   -0.4260   10.3170   -0.0230 C   0  0  0  0  0  0  0  0  0  0  0  0
   -0.1680   10.8210    1.4180 C   0  0  0  0  0  0  0  0  0  0  0  0
   -1.8970    9.8220   -0.0530 C   0  0  0  0  0  0  0  0  0  0  0  0
    1.6280   13.0140   -2.2490 C   0  0  1  0  0  0  0  0  0  0  0  0
    1.7340   12.4290   -3.6910 C   0  0  0  0  0  0  0  0  0  0  0  0
    3.0280   13.6580   -1.9270 C   0  0  0  0  0  0  0  0  0  0  0  0
    3.0450   14.8070   -0.9010 C   0  0  0  0  0  0  0  0  0  0  0  0
    1.9810   15.8560   -1.2350 C   0  0  2  0  0  0  0  0  0  0  0  0
    2.3390   16.4740   -2.6300 C   0  0  0  0  0  0  0  0  0  0  0  0
    4.7939   17.3101    0.2421 H   0  0  0  0  0  0  0  0  0  0  0  0
    4.0600   16.6443   -1.2561 H   0  0  0  0  0  0  0  0  0  0  0  0
    4.7558   18.3003   -1.2561 H   0  0  0  0  0  0  0  0  0  0  0  0
    2.5726   18.8853   -0.9913 H   0  0  0  0  0  0  0  0  0  0  0  0
    2.6894   19.8924    0.9840 H   0  0  0  0  0  0  0  0  0  0  0  0
    2.1670   18.3272    1.7715 H   0  0  0  0  0  0  0  0  0  0  0  0
    4.5426   17.6350    1.8756 H   0  0  0  0  0  0  0  0  0  0  0  0
    5.0025   19.2730    1.2491 H   0  0  0  0  0  0  0  0  0  0  0  0
    3.1266   19.1815    3.2419 H   0  0  0  0  0  0  0  0  0  0  0  0
    6.9165   17.7531    4.9061 H   0  0  0  0  0  0  0  0  0  0  0  0
    6.1293   17.2193    3.3823 H   0  0  0  0  0  0  0  0  0  0  0  0
    7.2016   18.6604    3.3823 H   0  0  0  0  0  0  0  0  0  0  0  0
    5.7467   18.7491    6.3355 H   0  0  0  0  0  0  0  0  0  0  0  0
    4.7727   20.2019    5.9264 H   0  0  0  0  0  0  0  0  0  0  0  0
    4.0060   18.5774    5.9264 H   0  0  0  0  0  0  0  0  0  0  0  0
    1.9520   16.6474    0.8018 H   0  0  0  0  0  0  0  0  0  0  0  0
   -0.1622   17.7440    0.3994 H   0  0  0  0  0  0  0  0  0  0  0  0
    0.4146   18.4699   -1.1160 H   0  0  0  0  0  0  0  0  0  0  0  0
   -1.3410   16.2243   -0.9133 H   0  0  0  0  0  0  0  0  0  0  0  0
   -0.4903   16.6824   -2.3865 H   0  0  0  0  0  0  0  0  0  0  0  0
    0.6090   15.2416    1.0256 H   0  0  0  0  0  0  0  0  0  0  0  0
   -0.8984   14.5465    0.3393 H   0  0  0  0  0  0  0  0  0  0  0  0
    0.6167   13.5816    0.3393 H   0  0  0  0  0  0  0  0  0  0  0  0
    0.6047   14.6788   -3.1988 H   0  0  0  0  0  0  0  0  0  0  0  0
   -1.6775   14.1521   -2.1242 H   0  0  0  0  0  0  0  0  0  0  0  0
   -0.9930   13.1005   -3.4708 H   0  0  0  0  0  0  0  0  0  0  0  0
   -2.1419   11.8301   -1.4687 H   0  0  0  0  0  0  0  0  0  0  0  0
    1.6835   12.2847   -0.2605 H   0  0  0  0  0  0  0  0  0  0  0  0
    1.8327   10.1639   -2.4908 H   0  0  0  0  0  0  0  0  0  0  0  0
    3.2222   10.8364   -1.5273 H   0  0  0  0  0  0  0  0  0  0  0  0
    2.5429    8.5884   -0.7477 H   0  0  0  0  0  0  0  0  0  0  0  0
    2.3196    9.8685    0.5078 H   0  0  0  0  0  0  0  0  0  0  0  0
    0.4058    8.4213    0.5346 H   0  0  0  0  0  0  0  0  0  0  0  0
   -0.3070    9.1510   -2.1110 H   0  0  0  0  0  0  0  0  0  0  0  0
   -0.5467   10.0811    2.1385 H   0  0  0  0  0  0  0  0  0  0  0  0
    0.9125   10.9607    1.5696 H   0  0  0  0  0  0  0  0  0  0  0  0
   -0.6865   11.7792    1.5696 H   0  0  0  0  0  0  0  0  0  0  0  0
   -2.2634    9.6987    0.9768 H   0  0  0  0  0  0  0  0  0  0  0  0
   -2.5214   10.5595   -0.5785 H   0  0  0  0  0  0  0  0  0  0  0  0
   -1.9485    8.8570   -0.5785 H   0  0  0  0  0  0  0  0  0  0  0  0
    1.9299   11.3480   -3.6347 H   0  0  0  0  0  0  0  0  0  0  0  0
    0.7897   12.6031   -4.2276 H   0  0  0  0  0  0  0  0  0  0  0  0
    2.5572   12.9233   -4.2276 H   0  0  0  0  0  0  0  0  0  0  0  0
    3.6810   12.8601   -1.5438 H   0  0  0  0  0  0  0  0  0  0  0  0
    3.3602   14.1116   -2.8724 H   0  0  0  0  0  0  0  0  0  0  0  0
    2.8452   14.3981    0.1005 H   0  0  0  0  0  0  0  0  0  0  0  0
    4.0335   15.2886   -0.9302 H   0  0  0  0  0  0  0  0  0  0  0  0
    2.8855   17.4174   -2.4838 H   0  0  0  0  0  0  0  0  0  0  0  0
    2.9686   15.7690   -3.1927 H   0  0  0  0  0  0  0  0  0  0  0  0
    1.4142   16.6694   -3.1927 H   0  0  0  0  0  0  0  0  0  0  0  0
  1  2  1  0
  2  3  1  0
  3  4  1  0
  4  5  1  0
  5  6  1  0
  6  7  1  0
  7  8  1  0
  7  9  1  0
  2 10  1  0
 10 11  1  0
 11 12  1  0
 12 13  1  0
 13 14  1  1
 13 15  1  0
 15 16  1  0
 16 17  1  0
 17 18  2  0
 18 19  1  0
 19 20  1  0
 20 21  1  0
 21 22  1  0
 22 23  1  0
 22 24  1  0
 24 25  1  0
 24 26  1  0
 19 27  1  0
 27 28  1  6
 27 29  1  0
 29 30  1  0
 30 31  1  0
 31 32  1  6
  7  5  1  0
 31 10  1  0
 31 13  1  0
 27 15  1  0
 24 18  1  0
  1 33  1  0
  1 34  1  0
  1 35  1  0
  2 36  1  6
  3 37  1  0
  3 38  1  0
  4 39  1  0
  4 40  1  0
  5 41  1  1
  8 42  1  0
  8 43  1  0
  8 44  1  0
  9 45  1  0
  9 46  1  0
  9 47  1  0
 10 48  1  1
 11 49  1  0
 11 50  1  0
 12 51  1  0
 12 52  1  0
 14 53  1  0
 14 54  1  0
 14 55  1  0
 15 56  1  6
 16 57  1  0
 16 58  1  0
 17 59  1  0
 19 60  1  1
 20 61  1  0
 20 62  1  0
 21 63  1  0
 21 64  1  0
 22 65  1  1
 23 66  1  0
 25 67  1  0
 25 68  1  0
 25 69  1  0
 26 70  1  0
 26 71  1  0
 26 72  1  0
 28 73  1  0
 28 74  1  0
 28 75  1  0
 29 76  1  0
 29 77  1  0
 30 78  1  0
 30 79  1  0
 32 80  1  0
 32 81  1  0
 32 82  1  0
M  END
>  <meeko>  (2) 
{"is_sidechain": [false], "intermolecular_energy": 2.731, "internal_energy": -0.839}

$$$$
EPH_relaxed_0001_pdb2pqr_Repair_60_r2_0001_out
     RDKit          3D

 82 86  0  0  0  0  0  0  0  0999 V2000
    0.3870   18.4040   -0.0040 C   0  0  0  0  0  0  0  0  0  0  0  0
    1.4840   17.3640   -0.2490 C   0  0  2  0  0  0  0  0  0  0  0  0
    2.6770   17.9520   -1.0290 C   0  0  0  0  0  0  0  0  0  0  0  0
    3.9120   18.2110   -0.1620 C   0  0  0  0  0  0  0  0  0  0  0  0
    3.5360   18.6650    1.2160 C   0  0  2  0  0  0  0  0  0  0  0  0
    3.8030   20.0480    1.4840 O   0  0  0  0  0  0  0  0  0  0  0  0
    4.5490   19.0960    2.2600 C   0  0  0  0  0  0  0  0  0  0  0  0
    6.0170   19.0920    1.9710 C   0  0  0  0  0  0  0  0  0  0  0  0
    4.1520   19.0510    3.7030 C   0  0  0  0  0  0  0  0  0  0  0  0
    0.9090   16.1690   -1.0000 C   0  0  1  0  0  0  0  0  0  0  0  0
    0.7600   16.4340   -2.5220 C   0  0  0  0  0  0  0  0  0  0  0  0
    1.0500   15.0910   -3.2400 C   0  0  0  0  0  0  0  0  0  0  0  0
    1.0270   14.0330   -2.1130 C   0  0  1  0  0  0  0  0  0  0  0  0
   -0.4860   13.7270   -1.8800 C   0  0  0  0  0  0  0  0  0  0  0  0
    1.8460   12.7270   -2.3740 C   0  0  2  0  0  0  0  0  0  0  0  0
    1.3680   11.8840   -3.5690 C   0  0  0  0  0  0  0  0  0  0  0  0
    0.3460   10.8440   -3.2480 C   0  0  0  0  0  0  0  0  0  0  0  0
    0.0410   10.4020   -2.0140 C   0  0  0  0  0  0  0  0  0  0  0  0
    0.8230   10.8890   -0.7870 C   0  0  1  0  0  0  0  0  0  0  0  0
    1.1970    9.6760    0.1040 C   0  0  0  0  0  0  0  0  0  0  0  0
   -0.0170    8.8320    0.4830 C   0  0  0  0  0  0  0  0  0  0  0  0
   -0.7340    8.3190   -0.7630 C   0  0  2  0  0  0  0  0  0  0  0  0
    0.1210    7.3910   -1.4380 O   0  0  0  0  0  0  0  0  0  0  0  0
   -1.1510    9.4520   -1.7410 C   0  0  0  0  0  0  0  0  0  0  0  0
   -2.3010   10.2810   -1.1180 C   0  0  0  0  0  0  0  0  0  0  0  0
   -1.7360    8.7900   -3.0180 C   0  0  0  0  0  0  0  0  0  0  0  0
    2.0670   11.8320   -1.0870 C   0  0  1  0  0  0  0  0  0  0  0  0
    3.3360   10.9680   -1.3590 C   0  0  0  0  0  0  0  0  0  0  0  0
    2.3810   12.6920    0.1930 C   0  0  0  0  0  0  0  0  0  0  0  0
    1.6270   14.0290    0.3340 C   0  0  0  0  0  0  0  0  0  0  0  0
    1.7160   14.8470   -0.9570 C   0  0  2  0  0  0  0  0  0  0  0  0
    3.2240   15.1880   -1.2050 C   0  0  0  0  0  0  0  0  0  0  0  0
    0.2447   18.5389    1.0784 H   0  0  0  0  0  0  0  0  0  0  0  0
    0.6821   19.3619   -0.4572 H   0  0  0  0  0  0  0  0  0  0  0  0
   -0.5538   18.0583   -0.4572 H   0  0  0  0  0  0  0  0  0  0  0  0
    1.8587   17.0403    0.7333 H   0  0  0  0  0  0  0  0  0  0  0  0
    2.9537   17.2451   -1.8251 H   0  0  0  0  0  0  0  0  0  0  0  0
    2.3531   18.9255   -1.4258 H   0  0  0  0  0  0  0  0  0  0  0  0
    4.4946   17.2812   -0.0845 H   0  0  0  0  0  0  0  0  0  0  0  0
    4.5033   19.0080   -0.6365 H   0  0  0  0  0  0  0  0  0  0  0  0
    2.7008   17.9500    1.2496 H   0  0  0  0  0  0  0  0  0  0  0  0
    6.5771   19.0905    2.9177 H   0  0  0  0  0  0  0  0  0  0  0  0
    6.2742   18.1931    1.3914 H   0  0  0  0  0  0  0  0  0  0  0  0
    6.2790   19.9894    1.3914 H   0  0  0  0  0  0  0  0  0  0  0  0
    5.0479   19.1526    4.3331 H   0  0  0  0  0  0  0  0  0  0  0  0
    3.4571   19.8761    3.9180 H   0  0  0  0  0  0  0  0  0  0  0  0
    3.6594   18.0913    3.9180 H   0  0  0  0  0  0  0  0  0  0  0  0
   -0.0395   16.0488   -0.4560 H   0  0  0  0  0  0  0  0  0  0  0  0
   -0.2617   16.7723   -2.7494 H   0  0  0  0  0  0  0  0  0  0  0  0
    1.4546   17.2187   -2.8562 H   0  0  0  0  0  0  0  0  0  0  0  0
    0.2745   14.8763   -3.9900 H   0  0  0  0  0  0  0  0  0  0  0  0
    2.0086   15.1050   -3.7794 H   0  0  0  0  0  0  0  0  0  0  0  0
   -0.6896   13.6858   -0.7998 H   0  0  0  0  0  0  0  0  0  0  0  0
   -1.0953   14.5201   -2.3380 H   0  0  0  0  0  0  0  0  0  0  0  0
   -0.7392   12.7595   -2.3380 H   0  0  0  0  0  0  0  0  0  0  0  0
    2.8317   13.1212   -2.6622 H   0  0  0  0  0  0  0  0  0  0  0  0
    0.9353   12.5667   -4.3151 H   0  0  0  0  0  0  0  0  0  0  0  0
    2.2528   11.3396   -3.9305 H   0  0  0  0  0  0  0  0  0  0  0  0
   -0.2042   10.4016   -4.0915 H   0  0  0  0  0  0  0  0  0  0  0  0
    0.1432   11.5585   -0.2397 H   0  0  0  0  0  0  0  0  0  0  0  0
    1.9098    9.0423   -0.4441 H   0  0  0  0  0  0  0  0  0  0  0  0
    1.6352   10.0672    1.0340 H   0  0  0  0  0  0  0  0  0  0  0  0
    0.3149    7.9742    1.0864 H   0  0  0  0  0  0  0  0  0  0  0  0
   -0.7152    9.4585    1.0574 H   0  0  0  0  0  0  0  0  0  0  0  0
   -1.6639    7.8338   -0.4315 H   0  0  0  0  0  0  0  0  0  0  0  0
    0.2540    6.6300   -0.8470 H   0  0  0  0  0  0  0  0  0  0  0  0
   -2.2348   10.2333   -0.0210 H   0  0  0  0  0  0  0  0  0  0  0  0
   -2.2173   11.3279   -1.4452 H   0  0  0  0  0  0  0  0  0  0  0  0
   -3.2677    9.8707   -1.4452 H   0  0  0  0  0  0  0  0  0  0  0  0
   -2.4389    7.9946   -2.7295 H   0  0  0  0  0  0  0  0  0  0  0  0
   -2.2648    9.5480   -3.6146 H   0  0  0  0  0  0  0  0  0  0  0  0
   -0.9187    8.3585   -3.6146 H   0  0  0  0  0  0  0  0  0  0  0  0
    3.7840   10.6630   -0.4018 H   0  0  0  0  0  0  0  0  0  0  0  0
    3.0542   10.0733   -1.9336 H   0  0  0  0  0  0  0  0  0  0  0  0
    4.0651   11.5581   -1.9336 H   0  0  0  0  0  0  0  0  0  0  0  0
    2.1388   12.0788    1.0736 H   0  0  0  0  0  0  0  0  0  0  0  0
    3.4418   12.9680    0.1012 H   0  0  0  0  0  0  0  0  0  0  0  0
    0.5697   13.8240    0.5580 H   0  0  0  0  0  0  0  0  0  0  0  0
    2.0879   14.6074    1.1482 H   0  0  0  0  0  0  0  0  0  0  0  0
    3.7373   15.3041   -0.2391 H   0  0  0  0  0  0  0  0  0  0  0  0
    3.6951   14.3737   -1.7751 H   0  0  0  0  0  0  0  0  0  0  0  0
    3.2989   16.1258   -1.7751 H   0  0  0  0  0  0  0  0  0  0  0  0
  1  2  1  0
  2  3  1  0
  3  4  1  0
  4  5  1  0
  5  6  1  0
  6  7  1  0
  7  8  1  0
  7  9  1  0
  2 10  1  0
 10 11  1  0
 11 12  1  0
 12 13  1  0
 13 14  1  1
 13 15  1  0
 15 16  1  0
 16 17  1  0
 17 18  2  0
 18 19  1  0
 19 20  1  0
 20 21  1  0
 21 22  1  0
 22 23  1  0
 22 24  1  0
 24 25  1  0
 24 26  1  0
 19 27  1  0
 27 28  1  6
 27 29  1  0
 29 30  1  0
 30 31  1  0
 31 32  1  6
  7  5  1  0
 31 10  1  0
 31 13  1  0
 27 15  1  0
 24 18  1  0
  1 33  1  0
  1 34  1  0
  1 35  1  0
  2 36  1  1
  3 37  1  0
  3 38  1  0
  4 39  1  0
  4 40  1  0
  5 41  1  1
  8 42  1  0
  8 43  1  0
  8 44  1  0
  9 45  1  0
  9 46  1  0
  9 47  1  0
 10 48  1  1
 11 49  1  0
 11 50  1  0
 12 51  1  0
 12 52  1  0
 14 53  1  0
 14 54  1  0
 14 55  1  0
 15 56  1  6
 16 57  1  0
 16 58  1  0
 17 59  1  0
 19 60  1  1
 20 61  1  0
 20 62  1  0
 21 63  1  0
 21 64  1  0
 22 65  1  1
 23 66  1  0
 25 67  1  0
 25 68  1  0
 25 69  1  0
 26 70  1  0
 26 71  1  0
 26 72  1  0
 28 73  1  0
 28 74  1  0
 28 75  1  0
 29 76  1  0
 29 77  1  0
 30 78  1  0
 30 79  1  0
 32 80  1  0
 32 81  1  0
 32 82  1  0
M  END
>  <meeko>  (3) 
{"is_sidechain": [false], "intermolecular_energy": 2.731, "internal_energy": -0.839}

$$$$
EPH_relaxed_0001_pdb2pqr_Repair_60_r2_0001_out
     RDKit          3D

 82 86  0  0  0  0  0  0  0  0999 V2000
    2.3360   17.9860   -2.7420 C   0  0  0  0  0  0  0  0  0  0  0  0
    1.0220   17.6100   -2.0520 C   0  0  2  0  0  0  0  0  0  0  0  0
    1.1270   17.6960   -0.5160 C   0  0  0  0  0  0  0  0  0  0  0  0
    0.8010   19.0820    0.0470 C   0  0  0  0  0  0  0  0  0  0  0  0
   -0.6300   19.1810    0.4810 C   0  0  2  0  0  0  0  0  0  0  0  0
   -1.5170   18.2560   -0.1630 O   0  0  0  0  0  0  0  0  0  0  0  0
   -1.7500   19.6490   -0.4300 C   0  0  0  0  0  0  0  0  0  0  0  0
   -1.4870   20.0490   -1.8480 C   0  0  0  0  0  0  0  0  0  0  0  0
   -3.0040   20.1800    0.1920 C   0  0  0  0  0  0  0  0  0  0  0  0
    0.6000   16.2060   -2.4680 C   0  0  1  0  0  0  0  0  0  0  0  0
    0.7390   15.9680   -3.9950 C   0  0  0  0  0  0  0  0  0  0  0  0
    1.1600   14.4880   -4.1810 C   0  0  0  0  0  0  0  0  0  0  0  0
    0.9280   13.8400   -2.7960 C   0  0  1  0  0  0  0  0  0  0  0  0
   -0.6010   13.5300   -2.7490 C   0  0  0  0  0  0  0  0  0  0  0  0
    1.7840   12.5720   -2.4740 C   0  0  2  0  0  0  0  0  0  0  0  0
    1.5400   11.3670   -3.4000 C   0  0  0  0  0  0  0  0  0  0  0  0
    0.4780   10.4200   -2.9480 C   0  0  0  0  0  0  0  0  0  0  0  0
   -0.0520   10.3720   -1.7120 C   0  0  0  0  0  0  0  0  0  0  0  0
    0.4850   11.2680   -0.5890 C   0  0  1  0  0  0  0  0  0  0  0  0
    0.6880   10.4230    0.6960 C   0  0  0  0  0  0  0  0  0  0  0  0
   -0.5740    9.6690    1.1050 C   0  0  0  0  0  0  0  0  0  0  0  0
   -1.0440    8.7450   -0.0160 C   0  0  2  0  0  0  0  0  0  0  0  0
   -0.0760    7.7070   -0.1940 O   0  0  0  0  0  0  0  0  0  0  0  0
   -1.2720    9.4840   -1.3640 C   0  0  0  0  0  0  0  0  0  0  0  0
   -2.5200   10.3950   -1.2540 C   0  0  0  0  0  0  0  0  0  0  0  0
   -1.6060    8.4180   -2.4420 C   0  0  0  0  0  0  0  0  0  0  0  0
    1.7620   12.1430   -0.9510 C   0  0  1  0  0  0  0  0  0  0  0  0
    3.0610   11.3180   -0.7010 C   0  0  0  0  0  0  0  0  0  0  0  0
    1.8280   13.3810    0.0200 C   0  0  0  0  0  0  0  0  0  0  0  0
    1.0590   14.6450   -0.4120 C   0  0  0  0  0  0  0  0  0  0  0  0
    1.3870   15.0180   -1.8610 C   0  0  2  0  0  0  0  0  0  0  0  0
    2.9150   15.3560   -1.9340 C   0  0  0  0  0  0  0  0  0  0  0  0
    3.1000   18.2046   -1.9814 H   0  0  0  0  0  0  0  0  0  0  0  0
    2.6731   17.1483   -3.3701 H   0  0  0  0  0  0  0  0  0  0  0  0
    2.1789   18.8752   -3.3701 H   0  0  0  0  0  0  0  0  0  0  0  0
    0.2606   18.3368   -2.3714 H   0  0  0  0  0  0  0  0  0  0  0  0
    0.4257   16.9700   -0.0789 H   0  0  0  0  0  0  0  0  0  0  0  0
    2.1731   17.4803   -0.2529 H   0  0  0  0  0  0  0  0  0  0  0  0
    1.4506   19.2769    0.9131 H   0  0  0  0  0  0  0  0  0  0  0  0
    0.9706   19.8236   -0.7475 H   0  0  0  0  0  0  0  0  0  0  0  0
   -0.3264   19.4855    1.4935 H   0  0  0  0  0  0  0  0  0  0  0  0
   -0.8827   20.9680   -1.8637 H   0  0  0  0  0  0  0  0  0  0  0  0
   -0.9420   19.2431   -2.3613 H   0  0  0  0  0  0  0  0  0  0  0  0
   -2.4429   20.2299   -2.3613 H   0  0  0  0  0  0  0  0  0  0  0  0
   -2.9144   20.1420    1.2877 H   0  0  0  0  0  0  0  0  0  0  0  0
   -3.1593   21.2211   -0.1273 H   0  0  0  0  0  0  0  0  0  0  0  0
   -3.8597   19.5670   -0.1273 H   0  0  0  0  0  0  0  0  0  0  0  0
   -0.4333   16.2049   -2.0908 H   0  0  0  0  0  0  0  0  0  0  0  0
   -0.2223   16.1541   -4.4963 H   0  0  0  0  0  0  0  0  0  0  0  0
    1.4834   16.6483   -4.4344 H   0  0  0  0  0  0  0  0  0  0  0  0
    0.5386   14.0007   -4.9468 H   0  0  0  0  0  0  0  0  0  0  0  0
    2.2024   14.3898   -4.5184 H   0  0  0  0  0  0  0  0  0  0  0  0
   -0.9296   13.4634   -1.7013 H   0  0  0  0  0  0  0  0  0  0  0  0
   -1.1540   14.3343   -3.2563 H   0  0  0  0  0  0  0  0  0  0  0  0
   -0.7970   12.5738   -3.2563 H   0  0  0  0  0  0  0  0  0  0  0  0
    2.8053   12.9166   -2.6937 H   0  0  0  0  0  0  0  0  0  0  0  0
    1.2535   11.7516   -4.3899 H   0  0  0  0  0  0  0  0  0  0  0  0
    2.4780   10.7924   -3.4051 H   0  0  0  0  0  0  0  0  0  0  0  0
    0.0966    9.7008   -3.6878 H   0  0  0  0  0  0  0  0  0  0  0  0
   -0.2866   12.0324   -0.4152 H   0  0  0  0  0  0  0  0  0  0  0  0
    1.4916    9.6939    0.5155 H   0  0  0  0  0  0  0  0  0  0  0  0
    0.9444   11.1135    1.5130 H   0  0  0  0  0  0  0  0  0  0  0  0
   -0.3600    9.0681    2.0011 H   0  0  0  0  0  0  0  0  0  0  0  0
   -1.3684   10.4006    1.3137 H   0  0  0  0  0  0  0  0  0  0  0  0
   -2.0185    8.3321    0.2837 H   0  0  0  0  0  0  0  0  0  0  0  0
   -0.3830    7.1400   -0.9220 H   0  0  0  0  0  0  0  0  0  0  0  0
   -2.7559   10.5672   -0.1935 H   0  0  0  0  0  0  0  0  0  0  0  0
   -2.3156   11.3578   -1.7452 H   0  0  0  0  0  0  0  0  0  0  0  0
   -3.3747    9.9069   -1.7452 H   0  0  0  0  0  0  0  0  0  0  0  0
   -1.9002    7.4790   -1.9503 H   0  0  0  0  0  0  0  0  0  0  0  0
   -2.4343    8.7784   -3.0698 H   0  0  0  0  0  0  0  0  0  0  0  0
   -0.7202    8.2413   -3.0698 H   0  0  0  0  0  0  0  0  0  0  0  0
    3.2261   11.2131    0.3815 H   0  0  0  0  0  0  0  0  0  0  0  0
    2.9552   10.3212   -1.1540 H   0  0  0  0  0  0  0  0  0  0  0  0
    3.9182   11.8375   -1.1540 H   0  0  0  0  0  0  0  0  0  0  0  0
    1.4252   13.0627    0.9929 H   0  0  0  0  0  0  0  0  0  0  0  0
    2.8867   13.6792    0.0346 H   0  0  0  0  0  0  0  0  0  0  0  0
   -0.0212   14.4564   -0.3247 H   0  0  0  0  0  0  0  0  0  0  0  0
    1.3585   15.4780    0.2410 H   0  0  0  0  0  0  0  0  0  0  0  0
    3.3198   15.4455   -0.9151 H   0  0  0  0  0  0  0  0  0  0  0  0
    3.4430   14.5529   -2.4691 H   0  0  0  0  0  0  0  0  0  0  0  0
    3.0550   16.3068   -2.4691 H   0  0  0  0  0  0  0  0  0  0  0  0
  1  2  1  0
  2  3  1  0
  3  4  1  0
  4  5  1  0
  5  6  1  0
  6  7  1  0
  7  8  1  0
  7  9  1  0
  2 10  1  0
 10 11  1  0
 11 12  1  0
 12 13  1  0
 13 14  1  1
 13 15  1  0
 15 16  1  0
 16 17  1  0
 17 18  2  0
 18 19  1  0
 19 20  1  0
 20 21  1  0
 21 22  1  0
 22 23  1  0
 22 24  1  0
 24 25  1  0
 24 26  1  0
 19 27  1  0
 27 28  1  6
 27 29  1  0
 29 30  1  0
 30 31  1  0
 31 32  1  1
  7  5  1  0
 31 10  1  0
 31 13  1  0
 27 15  1  0
 24 18  1  0
  1 33  1  0
  1 34  1  0
  1 35  1  0
  2 36  1  6
  3 37  1  0
  3 38  1  0
  4 39  1  0
  4 40  1  0
  5 41  1  1
  8 42  1  0
  8 43  1  0
  8 44  1  0
  9 45  1  0
  9 46  1  0
  9 47  1  0
 10 48  1  1
 11 49  1  0
 11 50  1  0
 12 51  1  0
 12 52  1  0
 14 53  1  0
 14 54  1  0
 14 55  1  0
 15 56  1  6
 16 57  1  0
 16 58  1  0
 17 59  1  0
 19 60  1  1
 20 61  1  0
 20 62  1  0
 21 63  1  0
 21 64  1  0
 22 65  1  1
 23 66  1  0
 25 67  1  0
 25 68  1  0
 25 69  1  0
 26 70  1  0
 26 71  1  0
 26 72  1  0
 28 73  1  0
 28 74  1  0
 28 75  1  0
 29 76  1  0
 29 77  1  0
 30 78  1  0
 30 79  1  0
 32 80  1  0
 32 81  1  0
 32 82  1  0
M  END
>  <meeko>  (4) 
{"is_sidechain": [false], "intermolecular_energy": 2.731, "internal_energy": -0.839}

$$$$
EPH_relaxed_0001_pdb2pqr_Repair_60_r2_0001_out
     RDKit          3D

 82 86  0  0  0  0  0  0  0  0999 V2000
    3.7290   17.7620    0.5860 C   0  0  0  0  0  0  0  0  0  0  0  0
    2.7750   18.0750   -0.5700 C   0  0  2  0  0  0  0  0  0  0  0  0
    2.0890   19.4450   -0.4030 C   0  0  0  0  0  0  0  0  0  0  0  0
    1.1720   19.5290    0.8200 C   0  0  0  0  0  0  0  0  0  0  0  0
   -0.1580   20.1280    0.4760 C   0  0  2  0  0  0  0  0  0  0  0  0
   -1.0860   20.1920    1.5670 O   0  0  0  0  0  0  0  0  0  0  0  0
   -1.4540   19.3400    0.4710 C   0  0  0  0  0  0  0  0  0  0  0  0
   -1.4830   17.8840    0.8150 C   0  0  0  0  0  0  0  0  0  0  0  0
   -2.6030   19.8580   -0.3370 C   0  0  0  0  0  0  0  0  0  0  0  0
    1.7250   16.9770   -0.6880 C   0  0  1  0  0  0  0  0  0  0  0  0
    0.4510   17.4480   -1.4390 C   0  0  0  0  0  0  0  0  0  0  0  0
   -0.0690   16.2300   -2.2460 C   0  0  0  0  0  0  0  0  0  0  0  0
    0.7170   15.0240   -1.6800 C   0  0  1  0  0  0  0  0  0  0  0  0
   -0.0350   14.6350   -0.3680 C   0  0  0  0  0  0  0  0  0  0  0  0
    0.8820   13.7970   -2.6350 C   0  0  2  0  0  0  0  0  0  0  0  0
   -0.4320   13.1140   -3.0540 C   0  0  0  0  0  0  0  0  0  0  0  0
   -0.8850   12.0040   -2.1650 C   0  0  0  0  0  0  0  0  0  0  0  0
   -0.1280   11.3830   -1.2410 C   0  0  0  0  0  0  0  0  0  0  0  0
    1.3600   11.7200   -1.0870 C   0  0  1  0  0  0  0  0  0  0  0  0
    2.1820   10.4070   -0.9950 C   0  0  0  0  0  0  0  0  0  0  0  0
    1.6770    9.4770    0.1030 C   0  0  0  0  0  0  0  0  0  0  0  0
    0.2100    9.1180   -0.1170 C   0  0  2  0  0  0  0  0  0  0  0  0
    0.1030    8.3250   -1.3030 O   0  0  0  0  0  0  0  0  0  0  0  0
   -0.7140   10.3620   -0.2350 C   0  0  0  0  0  0  0  0  0  0  0  0
   -0.8330   11.0540    1.1460 C   0  0  0  0  0  0  0  0  0  0  0  0
   -2.1400    9.8650   -0.5960 C   0  0  0  0  0  0  0  0  0  0  0  0
    1.9550   12.7390   -2.1520 C   0  0  1  0  0  0  0  0  0  0  0  0
    2.4220   11.9670   -3.4240 C   0  0  0  0  0  0  0  0  0  0  0  0
    3.2390   13.4210   -1.5500 C   0  0  0  0  0  0  0  0  0  0  0  0
    3.0210   14.6970   -0.7150 C   0  0  0  0  0  0  0  0  0  0  0  0
    2.1220   15.6910   -1.4560 C   0  0  2  0  0  0  0  0  0  0  0  0
    2.8620   16.1170   -2.7700 C   0  0  0  0  0  0  0  0  0  0  0  0
    3.2135   17.9311    1.5429 H   0  0  0  0  0  0  0  0  0  0  0  0
    4.0495   16.7116    0.5228 H   0  0  0  0  0  0  0  0  0  0  0  0
    4.6094   18.4184    0.5228 H   0  0  0  0  0  0  0  0  0  0  0  0
    3.3743   18.1173   -1.4915 H   0  0  0  0  0  0  0  0  0  0  0  0
    2.8691   20.2144   -0.3057 H   0  0  0  0  0  0  0  0  0  0  0  0
    1.4567   19.5982   -1.2900 H   0  0  0  0  0  0  0  0  0  0  0  0
    1.0143   18.5155    1.2175 H   0  0  0  0  0  0  0  0  0  0  0  0
    1.6558   20.1750    1.5674 H   0  0  0  0  0  0  0  0  0  0  0  0
    0.3064   20.7892   -0.2704 H   0  0  0  0  0  0  0  0  0  0  0  0
   -1.4854   17.7656    1.9086 H   0  0  0  0  0  0  0  0  0  0  0  0
   -2.3904   17.4259    0.3946 H   0  0  0  0  0  0  0  0  0  0  0  0
   -0.5945   17.3902    0.3946 H   0  0  0  0  0  0  0  0  0  0  0  0
   -3.3947   20.2149    0.3382 H   0  0  0  0  0  0  0  0  0  0  0  0
   -2.2601   20.6886   -0.9714 H   0  0  0  0  0  0  0  0  0  0  0  0
   -2.9984   19.0511   -0.9714 H   0  0  0  0  0  0  0  0  0  0  0  0
    1.5780   16.7476    0.3777 H   0  0  0  0  0  0  0  0  0  0  0  0
   -0.3122   17.7793   -0.7194 H   0  0  0  0  0  0  0  0  0  0  0  0
    0.6750   18.2954   -2.1036 H   0  0  0  0  0  0  0  0  0  0  0  0
   -1.1500   16.0955   -2.0931 H   0  0  0  0  0  0  0  0  0  0  0  0
    0.0781   16.3531   -3.3291 H   0  0  0  0  0  0  0  0  0  0  0  0
    0.5624   14.9440    0.5024 H   0  0  0  0  0  0  0  0  0  0  0  0
   -1.0112   15.1412   -0.3411 H   0  0  0  0  0  0  0  0  0  0  0  0
   -0.1859   13.5457   -0.3411 H   0  0  0  0  0  0  0  0  0  0  0  0
    1.2811   14.2620   -3.5485 H   0  0  0  0  0  0  0  0  0  0  0  0
   -1.2221   13.8791   -3.0720 H   0  0  0  0  0  0  0  0  0  0  0  0
   -0.2382   12.6578   -4.0360 H   0  0  0  0  0  0  0  0  0  0  0  0
   -1.9256   11.6645   -2.2740 H   0  0  0  0  0  0  0  0  0  0  0  0
    1.4478   12.2823   -0.1457 H   0  0  0  0  0  0  0  0  0  0  0  0
    2.1170    9.8819   -1.9594 H   0  0  0  0  0  0  0  0  0  0  0  0
    3.2196   10.6789   -0.7514 H   0  0  0  0  0  0  0  0  0  0  0  0
    2.2776    8.5554    0.0984 H   0  0  0  0  0  0  0  0  0  0  0  0
    1.7706    9.9928    1.0700 H   0  0  0  0  0  0  0  0  0  0  0  0
   -0.1292    8.5585    0.7672 H   0  0  0  0  0  0  0  0  0  0  0  0
    0.2910    7.4030   -1.0590 H   0  0  0  0  0  0  0  0  0  0  0  0
   -0.7045   10.3067    1.9429 H   0  0  0  0  0  0  0  0  0  0  0  0
   -0.0543   11.8255    1.2378 H   0  0  0  0  0  0  0  0  0  0  0  0
   -1.8247   11.5211    1.2378 H   0  0  0  0  0  0  0  0  0  0  0  0
   -2.7044    9.6683    0.3274 H   0  0  0  0  0  0  0  0  0  0  0  0
   -2.6585   10.6354   -1.1856 H   0  0  0  0  0  0  0  0  0  0  0  0
   -2.0673    8.9392   -1.1856 H   0  0  0  0  0  0  0  0  0  0  0  0
    2.9696   11.0617   -3.1231 H   0  0  0  0  0  0  0  0  0  0  0  0
    1.5444   11.6825   -4.0231 H   0  0  0  0  0  0  0  0  0  0  0  0
    3.0814   12.6122   -4.0231 H   0  0  0  0  0  0  0  0  0  0  0  0
    3.7368   12.6821   -0.9048 H   0  0  0  0  0  0  0  0  0  0  0  0
    3.8284   13.7441   -2.4208 H   0  0  0  0  0  0  0  0  0  0  0  0
    2.5467   14.4255    0.2396 H   0  0  0  0  0  0  0  0  0  0  0  0
    3.9976   15.1716   -0.5389 H   0  0  0  0  0  0  0  0  0  0  0  0
    3.7888   16.6505   -2.5124 H   0  0  0  0  0  0  0  0  0  0  0  0
    3.1064   15.2214   -3.3600 H   0  0  0  0  0  0  0  0  0  0  0  0
    2.2102   16.7781   -3.3600 H   0  0  0  0  0  0  0  0  0  0  0  0
  1  2  1  0
  2  3  1  0
  3  4  1  0
  4  5  1  0
  5  6  1  0
  6  7  1  0
  7  8  1  0
  7  9  1  0
  2 10  1  0
 10 11  1  0
 11 12  1  0
 12 13  1  0
 13 14  1  1
 13 15  1  0
 15 16  1  0
 16 17  1  0
 17 18  2  0
 18 19  1  0
 19 20  1  0
 20 21  1  0
 21 22  1  0
 22 23  1  0
 22 24  1  0
 24 25  1  0
 24 26  1  0
 19 27  1  0
 27 28  1  6
 27 29  1  0
 29 30  1  0
 30 31  1  0
 31 32  1  6
  7  5  1  0
 31 10  1  0
 31 13  1  0
 27 15  1  0
 24 18  1  0
  1 33  1  0
  1 34  1  0
  1 35  1  0
  2 36  1  6
  3 37  1  0
  3 38  1  0
  4 39  1  0
  4 40  1  0
  5 41  1  6
  8 42  1  0
  8 43  1  0
  8 44  1  0
  9 45  1  0
  9 46  1  0
  9 47  1  0
 10 48  1  1
 11 49  1  0
 11 50  1  0
 12 51  1  0
 12 52  1  0
 14 53  1  0
 14 54  1  0
 14 55  1  0
 15 56  1  6
 16 57  1  0
 16 58  1  0
 17 59  1  0
 19 60  1  1
 20 61  1  0
 20 62  1  0
 21 63  1  0
 21 64  1  0
 22 65  1  1
 23 66  1  0
 25 67  1  0
 25 68  1  0
 25 69  1  0
 26 70  1  0
 26 71  1  0
 26 72  1  0
 28 73  1  0
 28 74  1  0
 28 75  1  0
 29 76  1  0
 29 77  1  0
 30 78  1  0
 30 79  1  0
 32 80  1  0
 32 81  1  0
 32 82  1  0
M  END
>  <meeko>  (5) 
{"is_sidechain": [false], "intermolecular_energy": 2.731, "internal_energy": -0.839}

$$$$
EPH_relaxed_0001_pdb2pqr_Repair_60_r2_0001_out
     RDKit          3D

 82 86  0  0  0  0  0  0  0  0999 V2000
   -5.1040    5.9450   -1.8050 C   0  0  0  0  0  0  0  0  0  0  0  0
   -5.4380    7.4390   -1.8170 C   0  0  2  0  0  0  0  0  0  0  0  0
   -5.2290    8.0930   -0.4360 C   0  0  0  0  0  0  0  0  0  0  0  0
   -4.1130    9.1400   -0.4140 C   0  0  0  0  0  0  0  0  0  0  0  0
   -2.8170    8.5810   -0.9180 C   0  0  2  0  0  0  0  0  0  0  0  0
   -1.7070    8.7440   -0.0260 O   0  0  0  0  0  0  0  0  0  0  0  0
   -1.6190    9.4390   -1.2810 C   0  0  0  0  0  0  0  0  0  0  0  0
   -1.6610   10.9300   -1.1550 C   0  0  0  0  0  0  0  0  0  0  0  0
   -0.5910    8.8760   -2.2120 C   0  0  0  0  0  0  0  0  0  0  0  0
   -6.8760    7.6460   -2.2780 C   0  0  1  0  0  0  0  0  0  0  0  0
   -7.1760    6.9490   -3.6320 C   0  0  0  0  0  0  0  0  0  0  0  0
   -8.6440    6.4550   -3.5660 C   0  0  0  0  0  0  0  0  0  0  0  0
   -9.2390    7.1660   -2.3280 C   0  0  1  0  0  0  0  0  0  0  0  0
   -9.6110    8.5970   -2.8280 C   0  0  0  0  0  0  0  0  0  0  0  0
  -10.4540    6.4600   -1.6440 C   0  0  2  0  0  0  0  0  0  0  0  0
  -11.7080    6.3180   -2.5250 C   0  0  0  0  0  0  0  0  0  0  0  0
  -12.6780    7.4500   -2.4400 C   0  0  0  0  0  0  0  0  0  0  0  0
  -12.6930    8.3970   -1.4840 C   0  0  0  0  0  0  0  0  0  0  0  0
  -11.7260    8.3310   -0.2950 C   0  0  1  0  0  0  0  0  0  0  0  0
  -12.5040    8.5970    1.0210 C   0  0  0  0  0  0  0  0  0  0  0  0
  -13.2920    9.9030    0.9810 C   0  0  0  0  0  0  0  0  0  0  0  0
  -14.2840    9.9060   -0.1800 C   0  0  2  0  0  0  0  0  0  0  0  0
  -15.2870    8.9170    0.0680 O   0  0  0  0  0  0  0  0  0  0  0  0
  -13.6160    9.6390   -1.5580 C   0  0  0  0  0  0  0  0  0  0  0  0
  -12.7550   10.8600   -1.9640 C   0  0  0  0  0  0  0  0  0  0  0  0
  -14.7420    9.5280   -2.6210 C   0  0  0  0  0  0  0  0  0  0  0  0
  -10.8150    7.0320   -0.2130 C   0  0  1  0  0  0  0  0  0  0  0  0
  -11.5730    5.8970    0.5420 C   0  0  0  0  0  0  0  0  0  0  0  0
   -9.5340    7.3550    0.6420 C   0  0  0  0  0  0  0  0  0  0  0  0
   -8.3240    7.9400   -0.1120 C   0  0  0  0  0  0  0  0  0  0  0  0
   -8.0020    7.1110   -1.3590 C   0  0  2  0  0  0  0  0  0  0  0  0
   -7.6030    5.6720   -0.8860 C   0  0  0  0  0  0  0  0  0  0  0  0
   -5.0258    5.5951   -0.7651 H   0  0  0  0  0  0  0  0  0  0  0  0
   -5.8996    5.3873   -2.3207 H   0  0  0  0  0  0  0  0  0  0  0  0
   -4.1466    5.7792   -2.3207 H   0  0  0  0  0  0  0  0  0  0  0  0
   -4.7472    7.9263   -2.5208 H   0  0  0  0  0  0  0  0  0  0  0  0
   -6.1686    8.5805   -0.1368 H   0  0  0  0  0  0  0  0  0  0  0  0
   -4.9324    7.2923    0.2575 H   0  0  0  0  0  0  0  0  0  0  0  0
   -4.4070    9.9875   -1.0506 H   0  0  0  0  0  0  0  0  0  0  0  0
   -3.9653    9.4613    0.6276 H   0  0  0  0  0  0  0  0  0  0  0  0
   -3.3460    7.7849   -1.4624 H   0  0  0  0  0  0  0  0  0  0  0  0
   -1.6688   11.2080   -0.0907 H   0  0  0  0  0  0  0  0  0  0  0  0
   -0.7747   11.3641   -1.6408 H   0  0  0  0  0  0  0  0  0  0  0  0
   -2.5703   11.3136   -1.6408 H   0  0  0  0  0  0  0  0  0  0  0  0
    0.2266    8.4282   -1.6280 H   0  0  0  0  0  0  0  0  0  0  0  0
   -1.0535    8.1053   -2.8461 H   0  0  0  0  0  0  0  0  0  0  0  0
   -0.1906    9.6808   -2.8461 H   0  0  0  0  0  0  0  0  0  0  0  0
   -6.9033    8.7453   -2.3057 H   0  0  0  0  0  0  0  0  0  0  0  0
   -7.0534    7.6622   -4.4604 H   0  0  0  0  0  0  0  0  0  0  0  0
   -6.4850    6.1110   -3.8061 H   0  0  0  0  0  0  0  0  0  0  0  0
   -9.1908    6.7391   -4.4772 H   0  0  0  0  0  0  0  0  0  0  0  0
   -8.7128    5.3597   -3.4915 H   0  0  0  0  0  0  0  0  0  0  0  0
   -9.7820    9.2547   -1.9630 H   0  0  0  0  0  0  0  0  0  0  0  0
   -8.7873    8.9984   -3.4367 H   0  0  0  0  0  0  0  0  0  0  0  0
  -10.5259    8.5464   -3.4367 H   0  0  0  0  0  0  0  0  0  0  0  0
  -10.0775    5.4374   -1.4937 H   0  0  0  0  0  0  0  0  0  0  0  0
  -11.3802    6.2290   -3.5712 H   0  0  0  0  0  0  0  0  0  0  0  0
  -12.2420    5.4308   -2.1540 H   0  0  0  0  0  0  0  0  0  0  0  0
  -13.4454    7.5154   -3.2254 H   0  0  0  0  0  0  0  0  0  0  0  0
  -10.9872    9.1291   -0.4599 H   0  0  0  0  0  0  0  0  0  0  0  0
  -13.2057    7.7668    1.1898 H   0  0  0  0  0  0  0  0  0  0  0  0
  -11.7675    8.6762    1.8342 H   0  0  0  0  0  0  0  0  0  0  0  0
  -13.8431   10.0201    1.9258 H   0  0  0  0  0  0  0  0  0  0  0  0
  -12.5861   10.7351    0.8420 H   0  0  0  0  0  0  0  0  0  0  0  0
  -14.7239   10.9127   -0.2349 H   0  0  0  0  0  0  0  0  0  0  0  0
  -15.6690    8.6630   -0.7890 H   0  0  0  0  0  0  0  0  0  0  0  0
  -12.3944   11.3714   -1.0594 H   0  0  0  0  0  0  0  0  0  0  0  0
  -11.8954   10.5204   -2.5606 H   0  0  0  0  0  0  0  0  0  0  0  0
  -13.3635   11.5556   -2.5606 H   0  0  0  0  0  0  0  0  0  0  0  0
  -15.7146    9.4321   -2.1162 H   0  0  0  0  0  0  0  0  0  0  0  0
  -14.7427   10.4304   -3.2500 H   0  0  0  0  0  0  0  0  0  0  0  0
  -14.5665    8.6428   -3.2500 H   0  0  0  0  0  0  0  0  0  0  0  0
  -11.4724    6.0477    1.6270 H   0  0  0  0  0  0  0  0  0  0  0  0
  -12.6375    5.9203    0.2657 H   0  0  0  0  0  0  0  0  0  0  0  0
  -11.1437    4.9226    0.2657 H   0  0  0  0  0  0  0  0  0  0  0  0
   -9.8252    8.0795    1.4168 H   0  0  0  0  0  0  0  0  0  0  0  0
   -9.1913    6.3825    1.0252 H   0  0  0  0  0  0  0  0  0  0  0  0
   -8.5538    8.9720   -0.4155 H   0  0  0  0  0  0  0  0  0  0  0  0
   -7.4511    7.9207    0.5570 H   0  0  0  0  0  0  0  0  0  0  0  0
   -7.5933    5.6369    0.2134 H   0  0  0  0  0  0  0  0  0  0  0  0
   -8.3333    4.9443   -1.2696 H   0  0  0  0  0  0  0  0  0  0  0  0
   -6.6023    5.4242   -1.2696 H   0  0  0  0  0  0  0  0  0  0  0  0
  1  2  1  0
  2  3  1  0
  3  4  1  0
  4  5  1  0
  5  6  1  0
  6  7  1  0
  7  8  1  0
  7  9  1  0
  2 10  1  0
 10 11  1  0
 11 12  1  0
 12 13  1  0
 13 14  1  6
 13 15  1  0
 15 16  1  0
 16 17  1  0
 17 18  2  0
 18 19  1  0
 19 20  1  0
 20 21  1  0
 21 22  1  0
 22 23  1  0
 22 24  1  0
 24 25  1  0
 24 26  1  0
 19 27  1  0
 27 28  1  1
 27 29  1  0
 29 30  1  0
 30 31  1  0
 31 32  1  1
  7  5  1  0
 31 10  1  0
 31 13  1  0
 27 15  1  0
 24 18  1  0
  1 33  1  0
  1 34  1  0
  1 35  1  0
  2 36  1  6
  3 37  1  0
  3 38  1  0
  4 39  1  0
  4 40  1  0
  5 41  1  6
  8 42  1  0
  8 43  1  0
  8 44  1  0
  9 45  1  0
  9 46  1  0
  9 47  1  0
 10 48  1  6
 11 49  1  0
 11 50  1  0
 12 51  1  0
 12 52  1  0
 14 53  1  0
 14 54  1  0
 14 55  1  0
 15 56  1  1
 16 57  1  0
 16 58  1  0
 17 59  1  0
 19 60  1  6
 20 61  1  0
 20 62  1  0
 21 63  1  0
 21 64  1  0
 22 65  1  6
 23 66  1  0
 25 67  1  0
 25 68  1  0
 25 69  1  0
 26 70  1  0
 26 71  1  0
 26 72  1  0
 28 73  1  0
 28 74  1  0
 28 75  1  0
 29 76  1  0
 29 77  1  0
 30 78  1  0
 30 79  1  0
 32 80  1  0
 32 81  1  0
 32 82  1  0
M  END
>  <meeko>  (6) 
{"is_sidechain": [false], "intermolecular_energy": 2.731, "internal_energy": -0.839}

$$$$
EPH_relaxed_0001_pdb2pqr_Repair_60_r2_0001_out
     RDKit          3D

 82 86  0  0  0  0  0  0  0  0999 V2000
    0.4090    8.8780   -2.5400 C   0  0  0  0  0  0  0  0  0  0  0  0
    1.1740   10.0380   -3.1840 C   0  0  2  0  0  0  0  0  0  0  0  0
    2.6660   10.0350   -2.7960 C   0  0  0  0  0  0  0  0  0  0  0  0
    3.5830   10.6180   -3.8750 C   0  0  0  0  0  0  0  0  0  0  0  0
    4.9710   10.8470   -3.3580 C   0  0  2  0  0  0  0  0  0  0  0  0
    5.5910   12.0540   -3.8210 O   0  0  0  0  0  0  0  0  0  0  0  0
    6.2070   10.8250   -4.2380 C   0  0  0  0  0  0  0  0  0  0  0  0
    6.1120   10.5660   -5.7090 C   0  0  0  0  0  0  0  0  0  0  0  0
    7.5360   10.5700   -3.6000 C   0  0  0  0  0  0  0  0  0  0  0  0
    0.5360   11.3640   -2.7890 C   0  0  1  0  0  0  0  0  0  0  0  0
   -0.8400   11.1820   -2.0940 C   0  0  0  0  0  0  0  0  0  0  0  0
   -0.9550   12.3010   -1.0270 C   0  0  0  0  0  0  0  0  0  0  0  0
    0.1950   13.2800   -1.3640 C   0  0  1  0  0  0  0  0  0  0  0  0
   -0.3570   14.1610   -2.5280 C   0  0  0  0  0  0  0  0  0  0  0  0
    0.7270   14.1530   -0.1810 C   0  0  2  0  0  0  0  0  0  0  0  0
   -0.3030   15.1180    0.4320 C   0  0  0  0  0  0  0  0  0  0  0  0
   -0.3480   16.4780   -0.1830 C   0  0  0  0  0  0  0  0  0  0  0  0
    0.5930   17.0030   -0.9900 C   0  0  0  0  0  0  0  0  0  0  0  0
    1.8940   16.2440   -1.2810 C   0  0  1  0  0  0  0  0  0  0  0  0
    3.1000   17.2080   -1.1340 C   0  0  0  0  0  0  0  0  0  0  0  0
    2.9530   18.4630   -1.9880 C   0  0  0  0  0  0  0  0  0  0  0  0
    1.6780   19.2210   -1.6290 C   0  0  2  0  0  0  0  0  0  0  0  0
    1.8060   19.7340   -0.2990 O   0  0  0  0  0  0  0  0  0  0  0  0
    0.3970   18.3480   -1.7310 C   0  0  0  0  0  0  0  0  0  0  0  0
    0.0920   18.0430   -3.2190 C   0  0  0  0  0  0  0  0  0  0  0  0
   -0.7980   19.1900   -1.2080 C   0  0  0  0  0  0  0  0  0  0  0  0
    2.0970   14.8850   -0.4820 C   0  0  1  0  0  0  0  0  0  0  0  0
    2.7600   15.1740    0.9000 C   0  0  0  0  0  0  0  0  0  0  0  0
    3.1040   13.9690   -1.2730 C   0  0  0  0  0  0  0  0  0  0  0  0
    2.5030   13.0410   -2.3460 C   0  0  0  0  0  0  0  0  0  0  0  0
    1.3110   12.2570   -1.7880 C   0  0  2  0  0  0  0  0  0  0  0  0
    1.8390   11.3450   -0.6290 C   0  0  0  0  0  0  0  0  0  0  0  0
    0.4659    8.9643   -1.4449 H   0  0  0  0  0  0  0  0  0  0  0  0
   -0.6440    8.9127   -2.8563 H   0  0  0  0  0  0  0  0  0  0  0  0
    0.8556    7.9238   -2.8563 H   0  0  0  0  0  0  0  0  0  0  0  0
    1.1160    9.9081   -4.2748 H   0  0  0  0  0  0  0  0  0  0  0  0
    2.7876   10.6294   -1.8784 H   0  0  0  0  0  0  0  0  0  0  0  0
    2.9602    8.9842   -2.6569 H   0  0  0  0  0  0  0  0  0  0  0  0
    3.6289    9.9165   -4.7210 H   0  0  0  0  0  0  0  0  0  0  0  0
    3.1696   11.5878   -4.1892 H   0  0  0  0  0  0  0  0  0  0  0  0
    4.7283   10.3368   -2.4142 H   0  0  0  0  0  0  0  0  0  0  0  0
    5.7377    9.5456   -5.8782 H   0  0  0  0  0  0  0  0  0  0  0  0
    5.4210   11.2903   -6.1650 H   0  0  0  0  0  0  0  0  0  0  0  0
    7.1074   10.6717   -6.1650 H   0  0  0  0  0  0  0  0  0  0  0  0
    7.4274   10.5908   -2.5056 H   0  0  0  0  0  0  0  0  0  0  0  0
    7.9096    9.5838   -3.9127 H   0  0  0  0  0  0  0  0  0  0  0  0
    8.2481   11.3479   -3.9127 H   0  0  0  0  0  0  0  0  0  0  0  0
    0.4975   11.8498   -3.7752 H   0  0  0  0  0  0  0  0  0  0  0  0
   -1.6516   11.2763   -2.8305 H   0  0  0  0  0  0  0  0  0  0  0  0
   -0.9202   10.1868   -1.6322 H   0  0  0  0  0  0  0  0  0  0  0  0
   -1.9292   12.8069   -1.0980 H   0  0  0  0  0  0  0  0  0  0  0  0
   -0.8829   11.9092   -0.0017 H   0  0  0  0  0  0  0  0  0  0  0  0
   -0.8974   15.0234   -2.1106 H   0  0  0  0  0  0  0  0  0  0  0  0
    0.4797   14.5171   -3.1469 H   0  0  0  0  0  0  0  0  0  0  0  0
   -1.0424   13.5634   -3.1469 H   0  0  0  0  0  0  0  0  0  0  0  0
    0.9304   13.4008    0.5954 H   0  0  0  0  0  0  0  0  0  0  0  0
   -1.2993   14.6639    0.3260 H   0  0  0  0  0  0  0  0  0  0  0  0
    0.0044   15.2670    1.4776 H   0  0  0  0  0  0  0  0  0  0  0  0
   -1.2241   17.1038    0.0424 H   0  0  0  0  0  0  0  0  0  0  0  0
    1.8183   15.8982   -2.3225 H   0  0  0  0  0  0  0  0  0  0  0  0
    3.1855   17.5074   -0.0790 H   0  0  0  0  0  0  0  0  0  0  0  0
    3.9982   16.6738   -1.4773 H   0  0  0  0  0  0  0  0  0  0  0  0
    3.8207   19.1175   -1.8184 H   0  0  0  0  0  0  0  0  0  0  0  0
    2.8976   18.1638   -3.0451 H   0  0  0  0  0  0  0  0  0  0  0  0
    1.5614   20.0351   -2.3596 H   0  0  0  0  0  0  0  0  0  0  0  0
    1.2750   19.1690    0.2870 H   0  0  0  0  0  0  0  0  0  0  0  0
   -0.6845   17.2665   -3.2824 H   0  0  0  0  0  0  0  0  0  0  0  0
   -0.2631   18.9581   -3.7155 H   0  0  0  0  0  0  0  0  0  0  0  0
    1.0071   17.6879   -3.7155 H   0  0  0  0  0  0  0  0  0  0  0  0
   -0.7946   19.1876   -0.1080 H   0  0  0  0  0  0  0  0  0  0  0  0
   -0.7057   20.2237   -1.5727 H   0  0  0  0  0  0  0  0  0  0  0  0
   -1.7403   18.7553   -1.5727 H   0  0  0  0  0  0  0  0  0  0  0  0
    2.0735   14.8748    1.7057 H   0  0  0  0  0  0  0  0  0  0  0  0
    3.6959   14.6022    0.9844 H   0  0  0  0  0  0  0  0  0  0  0  0
    2.9781   16.2488    0.9844 H   0  0  0  0  0  0  0  0  0  0  0  0
    3.8312   14.6268   -1.7714 H   0  0  0  0  0  0  0  0  0  0  0  0
    3.5342   13.2949   -0.5177 H   0  0  0  0  0  0  0  0  0  0  0  0
    2.1666   13.6482   -3.1993 H   0  0  0  0  0  0  0  0  0  0  0  0
    3.2758   12.3254   -2.6633 H   0  0  0  0  0  0  0  0  0  0  0  0
    1.5781   11.7956    0.3400 H   0  0  0  0  0  0  0  0  0  0  0  0
    1.3775   10.3495   -0.7066 H   0  0  0  0  0  0  0  0  0  0  0  0
    2.9321   11.2495   -0.7066 H   0  0  0  0  0  0  0  0  0  0  0  0
  1  2  1  0
  2  3  1  0
  3  4  1  0
  4  5  1  0
  5  6  1  0
  6  7  1  0
  7  8  1  0
  7  9  1  0
  2 10  1  0
 10 11  1  0
 11 12  1  0
 12 13  1  0
 13 14  1  6
 13 15  1  0
 15 16  1  0
 16 17  1  0
 17 18  2  0
 18 19  1  0
 19 20  1  0
 20 21  1  0
 21 22  1  0
 22 23  1  0
 22 24  1  0
 24 25  1  0
 24 26  1  0
 19 27  1  0
 27 28  1  1
 27 29  1  0
 29 30  1  0
 30 31  1  0
 31 32  1  1
  7  5  1  0
 31 10  1  0
 31 13  1  0
 27 15  1  0
 24 18  1  0
  1 33  1  0
  1 34  1  0
  1 35  1  0
  2 36  1  6
  3 37  1  0
  3 38  1  0
  4 39  1  0
  4 40  1  0
  5 41  1  1
  8 42  1  0
  8 43  1  0
  8 44  1  0
  9 45  1  0
  9 46  1  0
  9 47  1  0
 10 48  1  6
 11 49  1  0
 11 50  1  0
 12 51  1  0
 12 52  1  0
 14 53  1  0
 14 54  1  0
 14 55  1  0
 15 56  1  1
 16 57  1  0
 16 58  1  0
 17 59  1  0
 19 60  1  6
 20 61  1  0
 20 62  1  0
 21 63  1  0
 21 64  1  0
 22 65  1  6
 23 66  1  0
 25 67  1  0
 25 68  1  0
 25 69  1  0
 26 70  1  0
 26 71  1  0
 26 72  1  0
 28 73  1  0
 28 74  1  0
 28 75  1  0
 29 76  1  0
 29 77  1  0
 30 78  1  0
 30 79  1  0
 32 80  1  0
 32 81  1  0
 32 82  1  0
M  END
>  <meeko>  (7) 
{"is_sidechain": [false], "intermolecular_energy": 2.731, "internal_energy": -0.839}

$$$$
EPH_relaxed_0001_pdb2pqr_Repair_60_r2_0001_out
     RDKit          3D

 82 86  0  0  0  0  0  0  0  0999 V2000
    1.2450   19.6480   -1.9740 C   0  0  0  0  0  0  0  0  0  0  0  0
    1.4080   19.3420   -0.4820 C   0  0  2  0  0  0  0  0  0  0  0  0
    2.8410   19.6210    0.0150 C   0  0  0  0  0  0  0  0  0  0  0  0
    2.9550   19.7210    1.5390 C   0  0  0  0  0  0  0  0  0  0  0  0
    4.3650   19.5140    2.0040 C   0  0  2  0  0  0  0  0  0  0  0  0
    4.5460   18.4020    2.8890 O   0  0  0  0  0  0  0  0  0  0  0  0
    4.8070   19.7010    3.4430 C   0  0  0  0  0  0  0  0  0  0  0  0
    3.8400   20.1140    4.5090 C   0  0  0  0  0  0  0  0  0  0  0  0
    6.2550   19.9600    3.7190 C   0  0  0  0  0  0  0  0  0  0  0  0
    1.0350   17.8900   -0.2060 C   0  0  1  0  0  0  0  0  0  0  0  0
   -0.3350   17.7520    0.5100 C   0  0  0  0  0  0  0  0  0  0  0  0
   -0.9930   16.4560   -0.0290 C   0  0  0  0  0  0  0  0  0  0  0  0
    0.1450   15.7230   -0.7770 C   0  0  1  0  0  0  0  0  0  0  0  0
    0.9570   14.9960    0.3400 C   0  0  0  0  0  0  0  0  0  0  0  0
   -0.2940   14.7350   -1.9070 C   0  0  2  0  0  0  0  0  0  0  0  0
   -1.1440   13.5420   -1.4360 C   0  0  0  0  0  0  0  0  0  0  0  0
   -0.3740   12.3210   -1.0550 C   0  0  0  0  0  0  0  0  0  0  0  0
    0.9160   12.0860   -1.3560 C   0  0  0  0  0  0  0  0  0  0  0  0
    1.7110   13.0590   -2.2360 C   0  0  1  0  0  0  0  0  0  0  0  0
    2.4940   12.2620   -3.3120 C   0  0  0  0  0  0  0  0  0  0  0  0
    3.3730   11.1710   -2.7080 C   0  0  0  0  0  0  0  0  0  0  0  0
    2.5390   10.1900   -1.8870 C   0  0  2  0  0  0  0  0  0  0  0  0
    1.6730    9.4710   -2.7700 O   0  0  0  0  0  0  0  0  0  0  0  0
    1.6980   10.8800   -0.7770 C   0  0  0  0  0  0  0  0  0  0  0  0
    2.6370   11.4010    0.3390 C   0  0  0  0  0  0  0  0  0  0  0  0
    0.7980    9.8000   -0.1190 C   0  0  0  0  0  0  0  0  0  0  0  0
    0.8840   14.2680   -2.8540 C   0  0  1  0  0  0  0  0  0  0  0  0
    0.2280   13.8310   -4.1990 C   0  0  0  0  0  0  0  0  0  0  0  0
    1.8740   15.4420   -3.2020 C   0  0  0  0  0  0  0  0  0  0  0  0
    2.1750   16.4530   -2.0790 C   0  0  0  0  0  0  0  0  0  0  0  0
    0.8810   16.9500   -1.4280 C   0  0  2  0  0  0  0  0  0  0  0  0
    0.0540   17.7060   -2.5230 C   0  0  0  0  0  0  0  0  0  0  0  0
    0.7311   20.6128   -2.0964 H   0  0  0  0  0  0  0  0  0  0  0  0
    2.2361   19.6977   -2.4485 H   0  0  0  0  0  0  0  0  0  0  0  0
    0.6507   18.8532   -2.4485 H   0  0  0  0  0  0  0  0  0  0  0  0
    0.7312   20.0115    0.0691 H   0  0  0  0  0  0  0  0  0  0  0  0
    3.4932   18.8048   -0.3293 H   0  0  0  0  0  0  0  0  0  0  0  0
    3.1392   20.5974   -0.3946 H   0  0  0  0  0  0  0  0  0  0  0  0
    2.6175   20.7184    1.8571 H   0  0  0  0  0  0  0  0  0  0  0  0
    2.3284   18.9330    1.9823 H   0  0  0  0  0  0  0  0  0  0  0  0
    4.7604   19.9033    1.0542 H   0  0  0  0  0  0  0  0  0  0  0  0
    4.2822   19.9251    5.4983 H   0  0  0  0  0  0  0  0  0  0  0  0
    3.6165   21.1861    4.4059 H   0  0  0  0  0  0  0  0  0  0  0  0
    2.9109   19.5342    4.4059 H   0  0  0  0  0  0  0  0  0  0  0  0
    6.4215   19.9898    4.8059 H   0  0  0  0  0  0  0  0  0  0  0  0
    6.8620   19.1562    3.2770 H   0  0  0  0  0  0  0  0  0  0  0  0
    6.5457   20.9244    3.2770 H   0  0  0  0  0  0  0  0  0  0  0  0
    1.9055   17.5867    0.3942 H   0  0  0  0  0  0  0  0  0  0  0  0
   -0.1882   17.6782    1.5977 H   0  0  0  0  0  0  0  0  0  0  0  0
   -0.9716   18.6280    0.3166 H   0  0  0  0  0  0  0  0  0  0  0  0
   -1.3732   15.8400    0.7993 H   0  0  0  0  0  0  0  0  0  0  0  0
   -1.8539   16.6652   -0.6810 H   0  0  0  0  0  0  0  0  0  0  0  0
    0.5948   15.3203    1.3267 H   0  0  0  0  0  0  0  0  0  0  0  0
    0.8252   13.9085    0.2403 H   0  0  0  0  0  0  0  0  0  0  0  0
    2.0234   15.2468    0.2403 H   0  0  0  0  0  0  0  0  0  0  0  0
   -0.9650   15.3575   -2.5171 H   0  0  0  0  0  0  0  0  0  0  0  0
   -1.7257   13.8641   -0.5597 H   0  0  0  0  0  0  0  0  0  0  0  0
   -1.7660   13.2533   -2.2961 H   0  0  0  0  0  0  0  0  0  0  0  0
   -0.9060   11.5488   -0.4800 H   0  0  0  0  0  0  0  0  0  0  0  0
    2.4157   13.5709   -1.5642 H   0  0  0  0  0  0  0  0  0  0  0  0
    1.7729   11.7941   -3.9984 H   0  0  0  0  0  0  0  0  0  0  0  0
    3.1530   12.9690   -3.8372 H   0  0  0  0  0  0  0  0  0  0  0  0
    3.8766   10.6245   -3.5190 H   0  0  0  0  0  0  0  0  0  0  0  0
    4.1128   11.6433   -2.0450 H   0  0  0  0  0  0  0  0  0  0  0  0
    3.2369    9.5114   -1.3747 H   0  0  0  0  0  0  0  0  0  0  0  0
    1.6530    8.5460   -2.4740 H   0  0  0  0  0  0  0  0  0  0  0  0
    2.2058   11.1618    1.3223 H   0  0  0  0  0  0  0  0  0  0  0  0
    3.6218   10.9203    0.2437 H   0  0  0  0  0  0  0  0  0  0  0  0
    2.7503   12.4910    0.2437 H   0  0  0  0  0  0  0  0  0  0  0  0
    0.8668    9.8826    0.9757 H   0  0  0  0  0  0  0  0  0  0  0  0
   -0.2453    9.9510   -0.4332 H   0  0  0  0  0  0  0  0  0  0  0  0
    1.1346    8.8010   -0.4332 H   0  0  0  0  0  0  0  0  0  0  0  0
   -0.6710   13.2322   -3.9910 H   0  0  0  0  0  0  0  0  0  0  0  0
   -0.0519   14.7237   -4.7775 H   0  0  0  0  0  0  0  0  0  0  0  0
    0.9440   13.2288   -4.7775 H   0  0  0  0  0  0  0  0  0  0  0  0
    2.8294   14.9916   -3.5091 H   0  0  0  0  0  0  0  0  0  0  0  0
    1.3660   16.0243   -3.9849 H   0  0  0  0  0  0  0  0  0  0  0  0
    2.7987   15.9666   -1.3145 H   0  0  0  0  0  0  0  0  0  0  0  0
    2.7021   17.3147   -2.5146 H   0  0  0  0  0  0  0  0  0  0  0  0
   -0.6745   18.3720   -2.0376 H   0  0  0  0  0  0  0  0  0  0  0  0
    0.7339   18.3013   -3.1501 H   0  0  0  0  0  0  0  0  0  0  0  0
   -0.4780   16.9755   -3.1501 H   0  0  0  0  0  0  0  0  0  0  0  0
  1  2  1  0
  2  3  1  0
  3  4  1  0
  4  5  1  0
  5  6  1  0
  6  7  1  0
  7  8  1  0
  7  9  1  0
  2 10  1  0
 10 11  1  0
 11 12  1  0
 12 13  1  0
 13 14  1  1
 13 15  1  0
 15 16  1  0
 16 17  1  0
 17 18  2  0
 18 19  1  0
 19 20  1  0
 20 21  1  0
 21 22  1  0
 22 23  1  0
 22 24  1  0
 24 25  1  0
 24 26  1  0
 19 27  1  0
 27 28  1  6
 27 29  1  0
 29 30  1  0
 30 31  1  0
 31 32  1  6
  7  5  1  0
 31 10  1  0
 31 13  1  0
 27 15  1  0
 24 18  1  0
  1 33  1  0
  1 34  1  0
  1 35  1  0
  2 36  1  1
  3 37  1  0
  3 38  1  0
  4 39  1  0
  4 40  1  0
  5 41  1  6
  8 42  1  0
  8 43  1  0
  8 44  1  0
  9 45  1  0
  9 46  1  0
  9 47  1  0
 10 48  1  1
 11 49  1  0
 11 50  1  0
 12 51  1  0
 12 52  1  0
 14 53  1  0
 14 54  1  0
 14 55  1  0
 15 56  1  6
 16 57  1  0
 16 58  1  0
 17 59  1  0
 19 60  1  1
 20 61  1  0
 20 62  1  0
 21 63  1  0
 21 64  1  0
 22 65  1  1
 23 66  1  0
 25 67  1  0
 25 68  1  0
 25 69  1  0
 26 70  1  0
 26 71  1  0
 26 72  1  0
 28 73  1  0
 28 74  1  0
 28 75  1  0
 29 76  1  0
 29 77  1  0
 30 78  1  0
 30 79  1  0
 32 80  1  0
 32 81  1  0
 32 82  1  0
M  END
>  <meeko>  (8) 
{"is_sidechain": [false], "intermolecular_energy": 2.731, "internal_energy": -0.839}

$$$$
EPH_relaxed_0001_pdb2pqr_Repair_60_r2_0001_out
     RDKit          3D

 82 86  0  0  0  0  0  0  0  0999 V2000
    2.8440   19.1350   -1.1290 C   0  0  0  0  0  0  0  0  0  0  0  0
    2.5590   18.0920   -2.2130 C   0  0  2  0  0  0  0  0  0  0  0  0
    1.1470   18.2480   -2.8120 C   0  0  0  0  0  0  0  0  0  0  0  0
    0.3880   19.4710   -2.2900 C   0  0  0  0  0  0  0  0  0  0  0  0
   -0.9300   19.0890   -1.6880 C   0  0  2  0  0  0  0  0  0  0  0  0
   -1.7930   20.1930   -1.3870 O   0  0  0  0  0  0  0  0  0  0  0  0
   -1.3290   19.4270   -0.2640 C   0  0  0  0  0  0  0  0  0  0  0  0
   -0.4090   20.1780    0.6470 C   0  0  0  0  0  0  0  0  0  0  0  0
   -2.3990   18.6110    0.3930 C   0  0  0  0  0  0  0  0  0  0  0  0
    2.7310   16.6890   -1.6430 C   0  0  1  0  0  0  0  0  0  0  0  0
    3.3850   16.6920   -0.2360 C   0  0  0  0  0  0  0  0  0  0  0  0
    2.7420   15.5270    0.5590 C   0  0  0  0  0  0  0  0  0  0  0  0
    1.9940   14.6940   -0.5080 C   0  0  1  0  0  0  0  0  0  0  0  0
    3.0940   13.8040   -1.1660 C   0  0  0  0  0  0  0  0  0  0  0  0
    0.7900   13.8380    0.0040 C   0  0  2  0  0  0  0  0  0  0  0  0
    1.1530   12.7430    1.0220 C   0  0  0  0  0  0  0  0  0  0  0  0
    1.4870   11.4110    0.4340 C   0  0  0  0  0  0  0  0  0  0  0  0
    1.2220   11.0250   -0.8270 C   0  0  0  0  0  0  0  0  0  0  0  0
    0.4330   11.9320   -1.7800 C   0  0  1  0  0  0  0  0  0  0  0  0
   -0.6590   11.1010   -2.5020 C   0  0  0  0  0  0  0  0  0  0  0  0
   -0.0900    9.8720   -3.2040 C   0  0  0  0  0  0  0  0  0  0  0  0
    0.6360    8.9650   -2.2140 C   0  0  2  0  0  0  0  0  0  0  0  0
   -0.3220    8.4170   -1.3030 O   0  0  0  0  0  0  0  0  0  0  0  0
    1.7540    9.6960   -1.4200 C   0  0  0  0  0  0  0  0  0  0  0  0
    2.9350   10.0250   -2.3660 C   0  0  0  0  0  0  0  0  0  0  0  0
    2.3090    8.7090   -0.3580 C   0  0  0  0  0  0  0  0  0  0  0  0
   -0.1390   13.2730   -1.1460 C   0  0  1  0  0  0  0  0  0  0  0  0
   -1.5330   13.0030   -0.5010 C   0  0  0  0  0  0  0  0  0  0  0  0
   -0.3770   14.3240   -2.2940 C   0  0  0  0  0  0  0  0  0  0  0  0
    0.8170   15.2220   -2.6720 C   0  0  0  0  0  0  0  0  0  0  0  0
    1.4490   15.8480   -1.4250 C   0  0  2  0  0  0  0  0  0  0  0  0
    0.3710   16.7660   -0.7530 C   0  0  0  0  0  0  0  0  0  0  0  0
    2.7187   18.6765   -0.1370 H   0  0  0  0  0  0  0  0  0  0  0  0
    3.8754   19.5022   -1.2356 H   0  0  0  0  0  0  0  0  0  0  0  0
    2.1426   19.9757   -1.2356 H   0  0  0  0  0  0  0  0  0  0  0  0
    3.2821   18.2539   -3.0259 H   0  0  0  0  0  0  0  0  0  0  0  0
    1.2412   18.3381   -3.9042 H   0  0  0  0  0  0  0  0  0  0  0  0
    0.5709   17.3603   -2.5119 H   0  0  0  0  0  0  0  0  0  0  0  0
    0.9992   19.9695   -1.5232 H   0  0  0  0  0  0  0  0  0  0  0  0
    0.1956   20.1436   -3.1389 H   0  0  0  0  0  0  0  0  0  0  0  0
   -0.9409   18.1452   -2.2529 H   0  0  0  0  0  0  0  0  0  0  0  0
   -0.6726   19.9628    1.6930 H   0  0  0  0  0  0  0  0  0  0  0  0
    0.6288   19.8658    0.4587 H   0  0  0  0  0  0  0  0  0  0  0  0
   -0.5071   21.2573    0.4587 H   0  0  0  0  0  0  0  0  0  0  0  0
   -2.2992   18.6871    1.4858 H   0  0  0  0  0  0  0  0  0  0  0  0
   -3.3865   18.9874    0.0879 H   0  0  0  0  0  0  0  0  0  0  0  0
   -2.2973   17.5591    0.0879 H   0  0  0  0  0  0  0  0  0  0  0  0
    3.3442   16.2408   -2.4387 H   0  0  0  0  0  0  0  0  0  0  0  0
    4.4706   16.5375   -0.3227 H   0  0  0  0  0  0  0  0  0  0  0  0
    3.2229   17.6538    0.2726 H   0  0  0  0  0  0  0  0  0  0  0  0
    3.5153   14.9207    1.0534 H   0  0  0  0  0  0  0  0  0  0  0  0
    2.0720   15.8843    1.3549 H   0  0  0  0  0  0  0  0  0  0  0  0
    3.6924   13.3198   -0.3802 H   0  0  0  0  0  0  0  0  0  0  0  0
    2.6176   13.0342   -1.7908 H   0  0  0  0  0  0  0  0  0  0  0  0
    3.7474   14.4306   -1.7908 H   0  0  0  0  0  0  0  0  0  0  0  0
    0.1956   14.5774    0.5607 H   0  0  0  0  0  0  0  0  0  0  0  0
    2.0245   13.0889    1.5971 H   0  0  0  0  0  0  0  0  0  0  0  0
    0.2536   12.5879    1.6360 H   0  0  0  0  0  0  0  0  0  0  0  0
    1.9923   10.6845    1.0874 H   0  0  0  0  0  0  0  0  0  0  0  0
    1.1610   12.3076   -2.5141 H   0  0  0  0  0  0  0  0  0  0  0  0
   -1.4000   10.7712   -1.7590 H   0  0  0  0  0  0  0  0  0  0  0  0
   -1.1143   11.7435   -3.2701 H   0  0  0  0  0  0  0  0  0  0  0  0
   -0.9131    9.3103   -3.6699 H   0  0  0  0  0  0  0  0  0  0  0  0
    0.6289   10.2051   -3.9670 H   0  0  0  0  0  0  0  0  0  0  0  0
    1.1309    8.1723   -2.7942 H   0  0  0  0  0  0  0  0  0  0  0  0
   -0.5400    9.1080   -0.6540 H   0  0  0  0  0  0  0  0  0  0  0  0
    3.8250   10.2729   -1.7689 H   0  0  0  0  0  0  0  0  0  0  0  0
    3.1505    9.1527   -3.0005 H   0  0  0  0  0  0  0  0  0  0  0  0
    2.6685   10.8831   -3.0005 H   0  0  0  0  0  0  0  0  0  0  0  0
    2.0924    9.0943    0.6493 H   0  0  0  0  0  0  0  0  0  0  0  0
    1.8311    7.7265   -0.4854 H   0  0  0  0  0  0  0  0  0  0  0  0
    3.3968    8.6069   -0.4854 H   0  0  0  0  0  0  0  0  0  0  0  0
   -1.4396   13.0211    0.5949 H   0  0  0  0  0  0  0  0  0  0  0  0
   -2.2421   13.7805   -0.8215 H   0  0  0  0  0  0  0  0  0  0  0  0
   -1.9005   12.0170   -0.8215 H   0  0  0  0  0  0  0  0  0  0  0  0
   -0.6753   13.7697   -3.1961 H   0  0  0  0  0  0  0  0  0  0  0  0
   -1.1412   15.0111   -1.9015 H   0  0  0  0  0  0  0  0  0  0  0  0
    1.5728   14.6155   -3.1925 H   0  0  0  0  0  0  0  0  0  0  0  0
    0.4552   16.0300   -3.3249 H   0  0  0  0  0  0  0  0  0  0  0  0
    0.4574   16.6925    0.3411 H   0  0  0  0  0  0  0  0  0  0  0  0
    0.5318   17.8087   -1.0642 H   0  0  0  0  0  0  0  0  0  0  0  0
   -0.6328   16.4411   -1.0642 H   0  0  0  0  0  0  0  0  0  0  0  0
  1  2  1  0
  2  3  1  0
  3  4  1  0
  4  5  1  0
  5  6  1  0
  6  7  1  0
  7  8  1  0
  7  9  1  0
  2 10  1  0
 10 11  1  0
 11 12  1  0
 12 13  1  0
 13 14  1  6
 13 15  1  0
 15 16  1  0
 16 17  1  0
 17 18  2  0
 18 19  1  0
 19 20  1  0
 20 21  1  0
 21 22  1  0
 22 23  1  0
 22 24  1  0
 24 25  1  0
 24 26  1  0
 19 27  1  0
 27 28  1  1
 27 29  1  0
 29 30  1  0
 30 31  1  0
 31 32  1  1
  7  5  1  0
 31 10  1  0
 31 13  1  0
 27 15  1  0
 24 18  1  0
  1 33  1  0
  1 34  1  0
  1 35  1  0
  2 36  1  6
  3 37  1  0
  3 38  1  0
  4 39  1  0
  4 40  1  0
  5 41  1  6
  8 42  1  0
  8 43  1  0
  8 44  1  0
  9 45  1  0
  9 46  1  0
  9 47  1  0
 10 48  1  6
 11 49  1  0
 11 50  1  0
 12 51  1  0
 12 52  1  0
 14 53  1  0
 14 54  1  0
 14 55  1  0
 15 56  1  1
 16 57  1  0
 16 58  1  0
 17 59  1  0
 19 60  1  6
 20 61  1  0
 20 62  1  0
 21 63  1  0
 21 64  1  0
 22 65  1  6
 23 66  1  0
 25 67  1  0
 25 68  1  0
 25 69  1  0
 26 70  1  0
 26 71  1  0
 26 72  1  0
 28 73  1  0
 28 74  1  0
 28 75  1  0
 29 76  1  0
 29 77  1  0
 30 78  1  0
 30 79  1  0
 32 80  1  0
 32 81  1  0
 32 82  1  0
M  END
>  <meeko>  (9) 
{"is_sidechain": [false], "intermolecular_energy": 2.731, "internal_energy": -0.839}

$$$$
EPH_relaxed_0001_pdb2pqr_Repair_60_r2_0001_out
     RDKit          3D

 82 86  0  0  0  0  0  0  0  0999 V2000
   -3.7200    7.2200   -3.4570 C   0  0  0  0  0  0  0  0  0  0  0  0
   -3.7440    7.2860   -1.9270 C   0  0  2  0  0  0  0  0  0  0  0  0
   -5.1580    7.0580   -1.3580 C   0  0  0  0  0  0  0  0  0  0  0  0
   -6.2760    7.2800   -2.3800 C   0  0  0  0  0  0  0  0  0  0  0  0
   -7.6030    7.4900   -1.7150 C   0  0  2  0  0  0  0  0  0  0  0  0
   -8.1760    6.3090   -1.1380 O   0  0  0  0  0  0  0  0  0  0  0  0
   -8.9010    6.8970   -2.2310 C   0  0  0  0  0  0  0  0  0  0  0  0
   -8.9350    6.0490   -3.4640 C   0  0  0  0  0  0  0  0  0  0  0  0
  -10.1910    7.5360   -1.8230 C   0  0  0  0  0  0  0  0  0  0  0  0
   -3.2040    8.6320   -1.4570 C   0  0  1  0  0  0  0  0  0  0  0  0
   -3.8330    9.0920   -0.1150 C   0  0  0  0  0  0  0  0  0  0  0  0
   -2.7240    9.8460    0.6640 C   0  0  0  0  0  0  0  0  0  0  0  0
   -1.6070   10.0830   -0.3800 C   0  0  1  0  0  0  0  0  0  0  0  0
   -2.0710   11.3380   -1.1840 C   0  0  0  0  0  0  0  0  0  0  0  0
   -0.1600   10.2610    0.1850 C   0  0  2  0  0  0  0  0  0  0  0  0
    0.0370   11.4810    1.1010 C   0  0  0  0  0  0  0  0  0  0  0  0
    0.4550   12.7370    0.4090 C   0  0  0  0  0  0  0  0  0  0  0  0
    0.9380   12.8160   -0.8450 C   0  0  0  0  0  0  0  0  0  0  0  0
    1.1980   11.5490   -1.6700 C   0  0  1  0  0  0  0  0  0  0  0  0
    2.5930   11.6440   -2.3400 C   0  0  0  0  0  0  0  0  0  0  0  0
    2.7620   12.9200   -3.1600 C   0  0  0  0  0  0  0  0  0  0  0  0
    2.5540   14.1580   -2.2920 C   0  0  2  0  0  0  0  0  0  0  0  0
    3.6140   14.2330   -1.3340 O   0  0  0  0  0  0  0  0  0  0  0  0
    1.1840   14.1680   -1.5580 C   0  0  0  0  0  0  0  0  0  0  0  0
    0.0450   14.3900   -2.5840 C   0  0  0  0  0  0  0  0  0  0  0  0
    1.1590   15.3970   -0.6100 C   0  0  0  0  0  0  0  0  0  0  0  0
    0.9780   10.1700   -0.9100 C   0  0  1  0  0  0  0  0  0  0  0  0
    2.2840    9.7610   -0.1620 C   0  0  0  0  0  0  0  0  0  0  0  0
    0.7010    9.0380   -1.9690 C   0  0  0  0  0  0  0  0  0  0  0  0
   -0.7640    8.8320   -2.3980 C   0  0  0  0  0  0  0  0  0  0  0  0
   -1.6840    8.7300   -1.1770 C   0  0  2  0  0  0  0  0  0  0  0  0
   -1.2560    7.4630   -0.3600 C   0  0  0  0  0  0  0  0  0  0  0  0
   -3.3602    6.2306   -3.7757 H   0  0  0  0  0  0  0  0  0  0  0  0
   -4.7353    7.3841   -3.8471 H   0  0  0  0  0  0  0  0  0  0  0  0
   -3.0472    7.9979   -3.8471 H   0  0  0  0  0  0  0  0  0  0  0  0
   -3.1025    6.4756   -1.5505 H   0  0  0  0  0  0  0  0  0  0  0  0
   -5.2224    6.0225   -0.9924 H   0  0  0  0  0  0  0  0  0  0  0  0
   -5.3046    7.7963   -0.5559 H   0  0  0  0  0  0  0  0  0  0  0  0
   -6.0357    8.1675   -2.9838 H   0  0  0  0  0  0  0  0  0  0  0  0
   -6.3472    6.3812   -3.0102 H   0  0  0  0  0  0  0  0  0  0  0  0
   -7.3234    8.5141   -1.4268 H   0  0  0  0  0  0  0  0  0  0  0  0
   -8.9776    4.9877   -3.1780 H   0  0  0  0  0  0  0  0  0  0  0  0
   -9.8236    6.3041   -4.0600 H   0  0  0  0  0  0  0  0  0  0  0  0
   -8.0288    6.2321   -4.0600 H   0  0  0  0  0  0  0  0  0  0  0  0
  -10.2537    7.5671   -0.7252 H   0  0  0  0  0  0  0  0  0  0  0  0
  -10.2352    8.5602   -2.2219 H   0  0  0  0  0  0  0  0  0  0  0  0
  -11.0325    6.9505   -2.2219 H   0  0  0  0  0  0  0  0  0  0  0  0
   -3.4663    9.2502   -2.3282 H   0  0  0  0  0  0  0  0  0  0  0  0
   -4.6843    9.7620   -0.3057 H   0  0  0  0  0  0  0  0  0  0  0  0
   -4.2058    8.2325    0.4615 H   0  0  0  0  0  0  0  0  0  0  0  0
   -3.1034   10.8032    1.0510 H   0  0  0  0  0  0  0  0  0  0  0  0
   -2.3668    9.2784    1.5359 H   0  0  0  0  0  0  0  0  0  0  0  0
   -2.3652   12.1338   -0.4839 H   0  0  0  0  0  0  0  0  0  0  0  0
   -1.2450   11.6937   -1.8173 H   0  0  0  0  0  0  0  0  0  0  0  0
   -2.9298   11.0708   -1.8173 H   0  0  0  0  0  0  0  0  0  0  0  0
   -0.0495    9.3799    0.8342 H   0  0  0  0  0  0  0  0  0  0  0  0
   -0.9152   11.6771    1.6156 H   0  0  0  0  0  0  0  0  0  0  0  0
    0.8602   11.2204    1.7825 H   0  0  0  0  0  0  0  0  0  0  0  0
    0.3601   13.6773    0.9719 H   0  0  0  0  0  0  0  0  0  0  0  0
    0.4150   11.5228   -2.4422 H   0  0  0  0  0  0  0  0  0  0  0  0
    3.3634   11.6245   -1.5550 H   0  0  0  0  0  0  0  0  0  0  0  0
    2.6930   10.7901   -3.0262 H   0  0  0  0  0  0  0  0  0  0  0  0
    3.7768   12.9438   -3.5837 H   0  0  0  0  0  0  0  0  0  0  0  0
    2.0098   12.9236   -3.9626 H   0  0  0  0  0  0  0  0  0  0  0  0
    2.5590   15.0330   -2.9586 H   0  0  0  0  0  0  0  0  0  0  0  0
    4.4540   14.1920   -1.8210 H   0  0  0  0  0  0  0  0  0  0  0  0
   -0.8989   14.5740   -2.0499 H   0  0  0  0  0  0  0  0  0  0  0  0
    0.2843   15.2584   -3.2154 H   0  0  0  0  0  0  0  0  0  0  0  0
   -0.0593   13.4953   -3.2154 H   0  0  0  0  0  0  0  0  0  0  0  0
    1.1660   15.0541    0.4352 H   0  0  0  0  0  0  0  0  0  0  0  0
    2.0446   16.0222   -0.7967 H   0  0  0  0  0  0  0  0  0  0  0  0
    0.2487   15.9856   -0.7967 H   0  0  0  0  0  0  0  0  0  0  0  0
    2.1164    9.8135    0.9239 H   0  0  0  0  0  0  0  0  0  0  0  0
    2.5600    8.7334   -0.4412 H   0  0  0  0  0  0  0  0  0  0  0  0
    3.0968   10.4476   -0.4412 H   0  0  0  0  0  0  0  0  0  0  0  0
    1.2817    9.2777   -2.8720 H   0  0  0  0  0  0  0  0  0  0  0  0
    0.9896    8.1007   -1.4708 H   0  0  0  0  0  0  0  0  0  0  0  0
   -1.0809    9.6843   -3.0171 H   0  0  0  0  0  0  0  0  0  0  0  0
   -0.8337    7.8943   -2.9689 H   0  0  0  0  0  0  0  0  0  0  0  0
   -1.3289    7.6788    0.7162 H   0  0  0  0  0  0  0  0  0  0  0  0
   -1.9202    6.6230   -0.6113 H   0  0  0  0  0  0  0  0  0  0  0  0
   -0.2184    7.1979   -0.6113 H   0  0  0  0  0  0  0  0  0  0  0  0
  1  2  1  0
  2  3  1  0
  3  4  1  0
  4  5  1  0
  5  6  1  0
  6  7  1  0
  7  8  1  0
  7  9  1  0
  2 10  1  0
 10 11  1  0
 11 12  1  0
 12 13  1  0
 13 14  1  6
 13 15  1  0
 15 16  1  0
 16 17  1  0
 17 18  2  0
 18 19  1  0
 19 20  1  0
 20 21  1  0
 21 22  1  0
 22 23  1  0
 22 24  1  0
 24 25  1  0
 24 26  1  0
 19 27  1  0
 27 28  1  1
 27 29  1  0
 29 30  1  0
 30 31  1  0
 31 32  1  1
  7  5  1  0
 31 10  1  0
 31 13  1  0
 27 15  1  0
 24 18  1  0
  1 33  1  0
  1 34  1  0
  1 35  1  0
  2 36  1  1
  3 37  1  0
  3 38  1  0
  4 39  1  0
  4 40  1  0
  5 41  1  1
  8 42  1  0
  8 43  1  0
  8 44  1  0
  9 45  1  0
  9 46  1  0
  9 47  1  0
 10 48  1  6
 11 49  1  0
 11 50  1  0
 12 51  1  0
 12 52  1  0
 14 53  1  0
 14 54  1  0
 14 55  1  0
 15 56  1  1
 16 57  1  0
 16 58  1  0
 17 59  1  0
 19 60  1  6
 20 61  1  0
 20 62  1  0
 21 63  1  0
 21 64  1  0
 22 65  1  6
 23 66  1  0
 25 67  1  0
 25 68  1  0
 25 69  1  0
 26 70  1  0
 26 71  1  0
 26 72  1  0
 28 73  1  0
 28 74  1  0
 28 75  1  0
 29 76  1  0
 29 77  1  0
 30 78  1  0
 30 79  1  0
 32 80  1  0
 32 81  1  0
 32 82  1  0
M  END
>  <meeko>  (10) 
{"is_sidechain": [false], "intermolecular_energy": 2.731, "internal_energy": -0.839}

$$$$
EPH_relaxed_0001_pdb2pqr_Repair_60_r2_0001_out
     RDKit          3D

 82 86  0  0  0  0  0  0  0  0999 V2000
   -0.9020   16.3740   -5.8580 C   0  0  0  0  0  0  0  0  0  0  0  0
    0.1930   15.6770   -6.6690 C   0  0  2  0  0  0  0  0  0  0  0  0
   -0.2070   15.4930   -8.1470 C   0  0  0  0  0  0  0  0  0  0  0  0
    0.4450   16.5060   -9.0920 C   0  0  0  0  0  0  0  0  0  0  0  0
    1.8490   16.1160   -9.4410 C   0  0  2  0  0  0  0  0  0  0  0  0
    2.3400   16.6780  -10.6650 O   0  0  0  0  0  0  0  0  0  0  0  0
    2.2040   15.2480  -10.6340 C   0  0  0  0  0  0  0  0  0  0  0  0
    1.1500   14.7170  -11.5540 C   0  0  0  0  0  0  0  0  0  0  0  0
    3.5110   14.5180  -10.6240 C   0  0  0  0  0  0  0  0  0  0  0  0
    0.5210   14.3260   -6.0460 C   0  0  1  0  0  0  0  0  0  0  0  0
    1.7600   13.6530   -6.6960 C   0  0  0  0  0  0  0  0  0  0  0  0
    2.4980   12.8890   -5.5660 C   0  0  0  0  0  0  0  0  0  0  0  0
    1.4950   12.8690   -4.3890 C   0  0  1  0  0  0  0  0  0  0  0  0
    0.5170   11.6970   -4.7150 C   0  0  0  0  0  0  0  0  0  0  0  0
    2.1110   12.7270   -2.9590 C   0  0  2  0  0  0  0  0  0  0  0  0
    2.8780   11.4170   -2.7060 C   0  0  0  0  0  0  0  0  0  0  0  0
    2.0590   10.2940   -2.1600 C   0  0  0  0  0  0  0  0  0  0  0  0
    0.8330   10.4120   -1.6170 C   0  0  0  0  0  0  0  0  0  0  0  0
    0.1870   11.7890   -1.4220 C   0  0  1  0  0  0  0  0  0  0  0  0
   -0.4130   11.8820    0.0050 C   0  0  0  0  0  0  0  0  0  0  0  0
   -1.3750   10.7380    0.3110 C   0  0  0  0  0  0  0  0  0  0  0  0
   -0.6800    9.3870    0.1630 C   0  0  2  0  0  0  0  0  0  0  0  0
    0.3180    9.2680    1.1820 O   0  0  0  0  0  0  0  0  0  0  0  0
   -0.0280    9.1830   -1.2330 C   0  0  0  0  0  0  0  0  0  0  0  0
   -1.1340    9.0110   -2.3040 C   0  0  0  0  0  0  0  0  0  0  0  0
    0.7580    7.8450   -1.2020 C   0  0  0  0  0  0  0  0  0  0  0  0
    1.0990   13.0400   -1.7830 C   0  0  1  0  0  0  0  0  0  0  0  0
    1.9620   13.4440   -0.5490 C   0  0  0  0  0  0  0  0  0  0  0  0
    0.1750   14.2750   -2.1020 C   0  0  0  0  0  0  0  0  0  0  0  0
   -0.3030   14.4260   -3.5590 C   0  0  0  0  0  0  0  0  0  0  0  0
    0.8690   14.3040   -4.5370 C   0  0  2  0  0  0  0  0  0  0  0  0
    1.8590   15.4840   -4.2480 C   0  0  0  0  0  0  0  0  0  0  0  0
   -0.7007   16.2459   -4.7842 H   0  0  0  0  0  0  0  0  0  0  0  0
   -0.9138   17.4462   -6.1035 H   0  0  0  0  0  0  0  0  0  0  0  0
   -1.8784   15.9308   -6.1035 H   0  0  0  0  0  0  0  0  0  0  0  0
    1.0833   16.3226   -6.6461 H   0  0  0  0  0  0  0  0  0  0  0  0
    0.0893   14.4821   -8.4636 H   0  0  0  0  0  0  0  0  0  0  0  0
   -1.2940   15.6503   -8.2077 H   0  0  0  0  0  0  0  0  0  0  0  0
   -0.1487   16.5645  -10.0162 H   0  0  0  0  0  0  0  0  0  0  0  0
    0.4770   17.4796   -8.5811 H   0  0  0  0  0  0  0  0  0  0  0  0
    2.1216   16.0553   -8.3771 H   0  0  0  0  0  0  0  0  0  0  0  0
    0.3223   14.3000  -10.9615 H   0  0  0  0  0  0  0  0  0  0  0  0
    0.7724   15.5324  -12.1884 H   0  0  0  0  0  0  0  0  0  0  0  0
    1.5805   13.9282  -12.1884 H   0  0  0  0  0  0  0  0  0  0  0  0
    3.8251   14.3426   -9.5845 H   0  0  0  0  0  0  0  0  0  0  0  0
    3.3962   13.5534  -11.1401 H   0  0  0  0  0  0  0  0  0  0  0  0
    4.2721   15.1216  -11.1401 H   0  0  0  0  0  0  0  0  0  0  0  0
   -0.4332   13.8070   -6.2194 H   0  0  0  0  0  0  0  0  0  0  0  0
    1.4418   12.9523   -7.4819 H   0  0  0  0  0  0  0  0  0  0  0  0
    2.4177   14.4018   -7.1615 H   0  0  0  0  0  0  0  0  0  0  0  0
    2.7427   11.8651   -5.8851 H   0  0  0  0  0  0  0  0  0  0  0  0
    3.4512   13.3657   -5.2937 H   0  0  0  0  0  0  0  0  0  0  0  0
    0.1485   11.2554   -3.7774 H   0  0  0  0  0  0  0  0  0  0  0  0
   -0.3329   12.0803   -5.2987 H   0  0  0  0  0  0  0  0  0  0  0  0
    1.0462   10.9294   -5.2987 H   0  0  0  0  0  0  0  0  0  0  0  0
    2.8690   13.5241   -2.9488 H   0  0  0  0  0  0  0  0  0  0  0  0
    3.3127   11.0876   -3.6613 H   0  0  0  0  0  0  0  0  0  0  0  0
    3.6295   11.6479   -1.9366 H   0  0  0  0  0  0  0  0  0  0  0  0
    2.4945    9.2849   -2.2054 H   0  0  0  0  0  0  0  0  0  0  0  0
   -0.6167   11.8565   -2.1700 H   0  0  0  0  0  0  0  0  0  0  0  0
    0.4090   11.8564    0.7355 H   0  0  0  0  0  0  0  0  0  0  0  0
   -0.9812   12.8218    0.0676 H   0  0  0  0  0  0  0  0  0  0  0  0
   -1.7426   10.8428    1.3425 H   0  0  0  0  0  0  0  0  0  0  0  0
   -2.2118   10.7825   -0.4016 H   0  0  0  0  0  0  0  0  0  0  0  0
   -1.4490    8.6074    0.2668 H   0  0  0  0  0  0  0  0  0  0  0  0
    0.0070    9.7650    1.9570 H   0  0  0  0  0  0  0  0  0  0  0  0
   -2.1042    8.8601   -1.8082 H   0  0  0  0  0  0  0  0  0  0  0  0
   -1.1796    9.9129   -2.9322 H   0  0  0  0  0  0  0  0  0  0  0  0
   -0.9035    8.1379   -2.9322 H   0  0  0  0  0  0  0  0  0  0  0  0
    0.9332    7.5468   -0.1578 H   0  0  0  0  0  0  0  0  0  0  0  0
    0.1745    7.0651   -1.7131 H   0  0  0  0  0  0  0  0  0  0  0  0
    1.7233    7.9749   -1.7131 H   0  0  0  0  0  0  0  0  0  0  0  0
    1.4215   13.1910    0.3751 H   0  0  0  0  0  0  0  0  0  0  0  0
    2.9175   12.8996   -0.5757 H   0  0  0  0  0  0  0  0  0  0  0  0
    2.1559   14.5264   -0.5757 H   0  0  0  0  0  0  0  0  0  0  0  0
   -0.7183   14.1958   -1.4650 H   0  0  0  0  0  0  0  0  0  0  0  0
    0.8001   15.1597   -1.9106 H   0  0  0  0  0  0  0  0  0  0  0  0
   -1.0389   13.6387   -3.7795 H   0  0  0  0  0  0  0  0  0  0  0  0
   -0.7560   15.4213   -3.6776 H   0  0  0  0  0  0  0  0  0  0  0  0
    1.9677   15.6136   -3.1611 H   0  0  0  0  0  0  0  0  0  0  0  0
    2.8401   15.2561   -4.6900 H   0  0  0  0  0  0  0  0  0  0  0  0
    1.4640   16.4106   -4.6900 H   0  0  0  0  0  0  0  0  0  0  0  0
  1  2  1  0
  2  3  1  0
  3  4  1  0
  4  5  1  0
  5  6  1  0
  6  7  1  0
  7  8  1  0
  7  9  1  0
  2 10  1  0
 10 11  1  0
 11 12  1  0
 12 13  1  0
 13 14  1  6
 13 15  1  0
 15 16  1  0
 16 17  1  0
 17 18  2  0
 18 19  1  0
 19 20  1  0
 20 21  1  0
 21 22  1  0
 22 23  1  0
 22 24  1  0
 24 25  1  0
 24 26  1  0
 19 27  1  0
 27 28  1  1
 27 29  1  0
 29 30  1  0
 30 31  1  0
 31 32  1  6
  7  5  1  0
 31 10  1  0
 31 13  1  0
 27 15  1  0
 24 18  1  0
  1 33  1  0
  1 34  1  0
  1 35  1  0
  2 36  1  6
  3 37  1  0
  3 38  1  0
  4 39  1  0
  4 40  1  0
  5 41  1  1
  8 42  1  0
  8 43  1  0
  8 44  1  0
  9 45  1  0
  9 46  1  0
  9 47  1  0
 10 48  1  1
 11 49  1  0
 11 50  1  0
 12 51  1  0
 12 52  1  0
 14 53  1  0
 14 54  1  0
 14 55  1  0
 15 56  1  6
 16 57  1  0
 16 58  1  0
 17 59  1  0
 19 60  1  6
 20 61  1  0
 20 62  1  0
 21 63  1  0
 21 64  1  0
 22 65  1  1
 23 66  1  0
 25 67  1  0
 25 68  1  0
 25 69  1  0
 26 70  1  0
 26 71  1  0
 26 72  1  0
 28 73  1  0
 28 74  1  0
 28 75  1  0
 29 76  1  0
 29 77  1  0
 30 78  1  0
 30 79  1  0
 32 80  1  0
 32 81  1  0
 32 82  1  0
M  END
>  <meeko>  (11) 
{"is_sidechain": [false], "intermolecular_energy": 2.731, "internal_energy": -0.839}

$$$$
EPH_relaxed_0001_pdb2pqr_Repair_60_r2_0001_out
     RDKit          3D

 82 86  0  0  0  0  0  0  0  0999 V2000
    0.1800    9.3040   -2.2280 C   0  0  0  0  0  0  0  0  0  0  0  0
    1.1970   10.3360   -2.7240 C   0  0  2  0  0  0  0  0  0  0  0  0
    2.6140    9.7430   -2.8460 C   0  0  0  0  0  0  0  0  0  0  0  0
    3.5080   10.4850   -3.8430 C   0  0  0  0  0  0  0  0  0  0  0  0
    4.9020   10.6550   -3.3180 C   0  0  2  0  0  0  0  0  0  0  0  0
    5.5260   11.8980   -3.6680 O   0  0  0  0  0  0  0  0  0  0  0  0
    6.1300   10.7110   -4.2070 C   0  0  0  0  0  0  0  0  0  0  0  0
    6.0210   10.5960   -5.6960 C   0  0  0  0  0  0  0  0  0  0  0  0
    7.4630   10.3870   -3.6080 C   0  0  0  0  0  0  0  0  0  0  0  0
    1.2140   11.5390   -1.7880 C   0  0  1  0  0  0  0  0  0  0  0  0
    2.2940   11.4180   -0.6800 C   0  0  0  0  0  0  0  0  0  0  0  0
    2.8270   12.8500   -0.4170 C   0  0  0  0  0  0  0  0  0  0  0  0
    1.8180   13.7800   -1.1320 C   0  0  1  0  0  0  0  0  0  0  0  0
    0.6200   13.9080   -0.1400 C   0  0  0  0  0  0  0  0  0  0  0  0
    2.3590   15.1800   -1.5690 C   0  0  2  0  0  0  0  0  0  0  0  0
    2.8220   16.0890   -0.4170 C   0  0  0  0  0  0  0  0  0  0  0  0
    1.7710   16.9840    0.1510 C   0  0  0  0  0  0  0  0  0  0  0  0
    0.5880   17.2650   -0.4250 C   0  0  0  0  0  0  0  0  0  0  0  0
    0.2470   16.7340   -1.8240 C   0  0  1  0  0  0  0  0  0  0  0  0
   -0.3500   17.8810   -2.6820 C   0  0  0  0  0  0  0  0  0  0  0  0
   -1.5400   18.5570   -2.0080 C   0  0  0  0  0  0  0  0  0  0  0  0
   -1.1470   19.1220   -0.6460 C   0  0  2  0  0  0  0  0  0  0  0  0
   -0.2200   20.1940   -0.8410 O   0  0  0  0  0  0  0  0  0  0  0  0
   -0.5250   18.0590    0.3020 C   0  0  0  0  0  0  0  0  0  0  0  0
   -1.6190   17.0610    0.7550 C   0  0  0  0  0  0  0  0  0  0  0  0
   -0.0440   18.7880    1.5860 C   0  0  0  0  0  0  0  0  0  0  0  0
    1.4130   15.9550   -2.5730 C   0  0  1  0  0  0  0  0  0  0  0  0
    2.3160   16.9640   -3.3460 C   0  0  0  0  0  0  0  0  0  0  0  0
    0.7820   15.0030   -3.6560 C   0  0  0  0  0  0  0  0  0  0  0  0
    0.3780   13.5920   -3.1900 C   0  0  0  0  0  0  0  0  0  0  0  0
    1.5170   12.9230   -2.4150 C   0  0  2  0  0  0  0  0  0  0  0  0
    2.7300   12.7600   -3.3940 C   0  0  0  0  0  0  0  0  0  0  0  0
    0.1723    9.2962   -1.1281 H   0  0  0  0  0  0  0  0  0  0  0  0
   -0.8211    9.5677   -2.5998 H   0  0  0  0  0  0  0  0  0  0  0  0
    0.4583    8.3069   -2.5998 H   0  0  0  0  0  0  0  0  0  0  0  0
    0.8845   10.6518   -3.7303 H   0  0  0  0  0  0  0  0  0  0  0  0
    3.0924    9.7801   -1.8562 H   0  0  0  0  0  0  0  0  0  0  0  0
    2.5010    8.7145   -3.2193 H   0  0  0  0  0  0  0  0  0  0  0  0
    3.5478    9.9120   -4.7811 H   0  0  0  0  0  0  0  0  0  0  0  0
    3.0800   11.4846   -4.0094 H   0  0  0  0  0  0  0  0  0  0  0  0
    4.6640   10.0575   -2.4256 H   0  0  0  0  0  0  0  0  0  0  0  0
    5.2849    9.8194   -5.9509 H   0  0  0  0  0  0  0  0  0  0  0  0
    5.6972   11.5599   -6.1155 H   0  0  0  0  0  0  0  0  0  0  0  0
    7.0009   10.3242   -6.1155 H   0  0  0  0  0  0  0  0  0  0  0  0
    7.3863   10.4057   -2.5108 H   0  0  0  0  0  0  0  0  0  0  0  0
    7.7790    9.3859   -3.9365 H   0  0  0  0  0  0  0  0  0  0  0  0
    8.2033   11.1314   -3.9365 H   0  0  0  0  0  0  0  0  0  0  0  0
    0.1750   11.5082   -1.4282 H   0  0  0  0  0  0  0  0  0  0  0  0
    1.8505   11.0043    0.2377 H   0  0  0  0  0  0  0  0  0  0  0  0
    3.1064   10.7452   -0.9920 H   0  0  0  0  0  0  0  0  0  0  0  0
    2.8535   13.0623    0.6620 H   0  0  0  0  0  0  0  0  0  0  0  0
    3.8541   12.9869   -0.7861 H   0  0  0  0  0  0  0  0  0  0  0  0
    0.9940   13.8680    0.8937 H   0  0  0  0  0  0  0  0  0  0  0  0
    0.1062   14.8662   -0.3072 H   0  0  0  0  0  0  0  0  0  0  0  0
   -0.0846   13.0800   -0.3072 H   0  0  0  0  0  0  0  0  0  0  0  0
    3.2701   14.9179   -2.1268 H   0  0  0  0  0  0  0  0  0  0  0  0
    3.1957   15.4464    0.3938 H   0  0  0  0  0  0  0  0  0  0  0  0
    3.5892   16.7525   -0.8425 H   0  0  0  0  0  0  0  0  0  0  0  0
    1.9816   17.4537    1.1231 H   0  0  0  0  0  0  0  0  0  0  0  0
   -0.5075   15.9475   -1.6753 H   0  0  0  0  0  0  0  0  0  0  0  0
    0.4319   18.6349   -2.8559 H   0  0  0  0  0  0  0  0  0  0  0  0
   -0.7058   17.4418   -3.6256 H   0  0  0  0  0  0  0  0  0  0  0  0
   -1.8983   19.3768   -2.6480 H   0  0  0  0  0  0  0  0  0  0  0  0
   -2.3326   17.8084   -1.8620 H   0  0  0  0  0  0  0  0  0  0  0  0
   -2.0671   19.4767   -0.1586 H   0  0  0  0  0  0  0  0  0  0  0  0
    0.1270   20.1210   -1.7460 H   0  0  0  0  0  0  0  0  0  0  0  0
   -1.6539   17.0292    1.8540 H   0  0  0  0  0  0  0  0  0  0  0  0
   -2.5954   17.3860    0.3664 H   0  0  0  0  0  0  0  0  0  0  0  0
   -1.3848   16.0589    0.3664 H   0  0  0  0  0  0  0  0  0  0  0  0
   -0.4027   18.2444    2.4725 H   0  0  0  0  0  0  0  0  0  0  0  0
    1.0554   18.8234    1.5975 H   0  0  0  0  0  0  0  0  0  0  0  0
   -0.4440   19.8126    1.5975 H   0  0  0  0  0  0  0  0  0  0  0  0
    2.8712   17.5844   -2.6271 H   0  0  0  0  0  0  0  0  0  0  0  0
    3.0262   16.4108   -3.9781 H   0  0  0  0  0  0  0  0  0  0  0  0
    1.6876   17.6087   -3.9781 H   0  0  0  0  0  0  0  0  0  0  0  0
   -0.1207   15.4956   -4.0465 H   0  0  0  0  0  0  0  0  0  0  0  0
    1.5783   14.8438   -4.3981 H   0  0  0  0  0  0  0  0  0  0  0  0
   -0.5049   13.6674   -2.5382 H   0  0  0  0  0  0  0  0  0  0  0  0
    0.1514   12.9816   -4.0766 H   0  0  0  0  0  0  0  0  0  0  0  0
    3.6558   12.6356   -2.8132 H   0  0  0  0  0  0  0  0  0  0  0  0
    2.5731   11.8749   -4.0280 H   0  0  0  0  0  0  0  0  0  0  0  0
    2.8124   13.6551   -4.0280 H   0  0  0  0  0  0  0  0  0  0  0  0
  1  2  1  0
  2  3  1  0
  3  4  1  0
  4  5  1  0
  5  6  1  0
  6  7  1  0
  7  8  1  0
  7  9  1  0
  2 10  1  0
 10 11  1  0
 11 12  1  0
 12 13  1  0
 13 14  1  1
 13 15  1  0
 15 16  1  0
 16 17  1  0
 17 18  2  0
 18 19  1  0
 19 20  1  0
 20 21  1  0
 21 22  1  0
 22 23  1  0
 22 24  1  0
 24 25  1  0
 24 26  1  0
 19 27  1  0
 27 28  1  6
 27 29  1  0
 29 30  1  0
 30 31  1  0
 31 32  1  6
  7  5  1  0
 31 10  1  0
 31 13  1  0
 27 15  1  0
 24 18  1  0
  1 33  1  0
  1 34  1  0
  1 35  1  0
  2 36  1  6
  3 37  1  0
  3 38  1  0
  4 39  1  0
  4 40  1  0
  5 41  1  1
  8 42  1  0
  8 43  1  0
  8 44  1  0
  9 45  1  0
  9 46  1  0
  9 47  1  0
 10 48  1  1
 11 49  1  0
 11 50  1  0
 12 51  1  0
 12 52  1  0
 14 53  1  0
 14 54  1  0
 14 55  1  0
 15 56  1  6
 16 57  1  0
 16 58  1  0
 17 59  1  0
 19 60  1  1
 20 61  1  0
 20 62  1  0
 21 63  1  0
 21 64  1  0
 22 65  1  1
 23 66  1  0
 25 67  1  0
 25 68  1  0
 25 69  1  0
 26 70  1  0
 26 71  1  0
 26 72  1  0
 28 73  1  0
 28 74  1  0
 28 75  1  0
 29 76  1  0
 29 77  1  0
 30 78  1  0
 30 79  1  0
 32 80  1  0
 32 81  1  0
 32 82  1  0
M  END
>  <meeko>  (12) 
{"is_sidechain": [false], "intermolecular_energy": 2.731, "internal_energy": -0.839}

$$$$
EPH_relaxed_0001_pdb2pqr_Repair_60_r2_0001_out
     RDKit          3D

 82 86  0  0  0  0  0  0  0  0999 V2000
   -2.2390    7.7990   -2.2360 C   0  0  0  0  0  0  0  0  0  0  0  0
   -2.2130    8.4030   -0.8290 C   0  0  2  0  0  0  0  0  0  0  0  0
   -3.6010    8.3730   -0.1580 C   0  0  0  0  0  0  0  0  0  0  0  0
   -4.7520    8.7090   -1.1100 C   0  0  0  0  0  0  0  0  0  0  0  0
   -5.9070    7.7690   -0.9370 C   0  0  2  0  0  0  0  0  0  0  0  0
   -5.5430    6.3870   -0.8290 O   0  0  0  0  0  0  0  0  0  0  0  0
   -6.3200    6.7500   -1.9820 C   0  0  0  0  0  0  0  0  0  0  0  0
   -5.5840    6.6190   -3.2780 C   0  0  0  0  0  0  0  0  0  0  0  0
   -7.7220    6.2250   -1.9540 C   0  0  0  0  0  0  0  0  0  0  0  0
   -1.6940    9.8350   -0.8870 C   0  0  1  0  0  0  0  0  0  0  0  0
   -1.2690   10.3740    0.5050 C   0  0  0  0  0  0  0  0  0  0  0  0
   -0.0510   11.3040    0.2720 C   0  0  0  0  0  0  0  0  0  0  0  0
   -0.0220   11.5320   -1.2580 C   0  0  1  0  0  0  0  0  0  0  0  0
   -1.0820   12.6470   -1.5170 C   0  0  0  0  0  0  0  0  0  0  0  0
    1.3670   11.9010   -1.8740 C   0  0  2  0  0  0  0  0  0  0  0  0
    1.9720   13.2240   -1.3740 C   0  0  0  0  0  0  0  0  0  0  0  0
    1.6110   14.4330   -2.1720 C   0  0  0  0  0  0  0  0  0  0  0  0
    1.0700   14.4230   -3.4050 C   0  0  0  0  0  0  0  0  0  0  0  0
    0.8570   13.1060   -4.1610 C   0  0  1  0  0  0  0  0  0  0  0  0
    1.3630   13.2590   -5.6200 C   0  0  0  0  0  0  0  0  0  0  0  0
    0.7340   14.4500   -6.3350 C   0  0  0  0  0  0  0  0  0  0  0  0
    1.0170   15.7490   -5.5840 C   0  0  2  0  0  0  0  0  0  0  0  0
    2.4200   16.0220   -5.6480 O   0  0  0  0  0  0  0  0  0  0  0  0
    0.5590   15.7100   -4.0990 C   0  0  0  0  0  0  0  0  0  0  0  0
   -0.9880   15.7170   -4.0310 C   0  0  0  0  0  0  0  0  0  0  0  0
    1.0290   17.0240   -3.4200 C   0  0  0  0  0  0  0  0  0  0  0  0
    1.4220   11.8000   -3.4530 C   0  0  1  0  0  0  0  0  0  0  0  0
    2.9210   11.5950   -3.8330 C   0  0  0  0  0  0  0  0  0  0  0  0
    0.6490   10.5430   -4.0000 C   0  0  0  0  0  0  0  0  0  0  0  0
   -0.6540   10.1580   -3.2730 C   0  0  0  0  0  0  0  0  0  0  0  0
   -0.4400   10.1010   -1.7570 C   0  0  2  0  0  0  0  0  0  0  0  0
    0.6060    8.9730   -1.4640 C   0  0  0  0  0  0  0  0  0  0  0  0
   -2.2862    6.7024   -2.1635 H   0  0  0  0  0  0  0  0  0  0  0  0
   -3.1220    8.1690   -2.7776 H   0  0  0  0  0  0  0  0  0  0  0  0
   -1.3274    8.0917   -2.7776 H   0  0  0  0  0  0  0  0  0  0  0  0
   -1.5372    7.7870   -0.2176 H   0  0  0  0  0  0  0  0  0  0  0  0
   -3.7689    7.3644    0.2476 H   0  0  0  0  0  0  0  0  0  0  0  0
   -3.5961    9.1450    0.6256 H   0  0  0  0  0  0  0  0  0  0  0  0
   -5.0939    9.7348   -0.9079 H   0  0  0  0  0  0  0  0  0  0  0  0
   -4.3829    8.6126   -2.1417 H   0  0  0  0  0  0  0  0  0  0  0  0
   -6.4759    8.5322   -0.3857 H   0  0  0  0  0  0  0  0  0  0  0  0
   -4.5192    6.4295   -3.0774 H   0  0  0  0  0  0  0  0  0  0  0  0
   -6.0032    5.7814   -3.8547 H   0  0  0  0  0  0  0  0  0  0  0  0
   -5.6885    7.5499   -3.8547 H   0  0  0  0  0  0  0  0  0  0  0  0
   -8.0472    6.1032   -0.9102 H   0  0  0  0  0  0  0  0  0  0  0  0
   -8.3894    6.9341   -2.4656 H   0  0  0  0  0  0  0  0  0  0  0  0
   -7.7594    5.2519   -2.4656 H   0  0  0  0  0  0  0  0  0  0  0  0
   -2.5710   10.3315   -1.3279 H   0  0  0  0  0  0  0  0  0  0  0  0
   -2.0954   10.9392    0.9607 H   0  0  0  0  0  0  0  0  0  0  0  0
   -1.0115    9.5493    1.1859 H   0  0  0  0  0  0  0  0  0  0  0  0
   -0.1829   12.2575    0.8044 H   0  0  0  0  0  0  0  0  0  0  0  0
    0.8861   10.8664    0.6467 H   0  0  0  0  0  0  0  0  0  0  0  0
   -1.4498   13.0338   -0.5552 H   0  0  0  0  0  0  0  0  0  0  0  0
   -0.6209   13.4655   -2.0892 H   0  0  0  0  0  0  0  0  0  0  0  0
   -1.9228   12.2278   -2.0892 H   0  0  0  0  0  0  0  0  0  0  0  0
    2.0189   11.1075   -1.4798 H   0  0  0  0  0  0  0  0  0  0  0  0
    1.6307   13.3846   -0.3407 H   0  0  0  0  0  0  0  0  0  0  0  0
    3.0626   13.1135   -1.4661 H   0  0  0  0  0  0  0  0  0  0  0  0
    1.8031   15.4146   -1.7142 H   0  0  0  0  0  0  0  0  0  0  0  0
   -0.2282   12.9264   -4.1587 H   0  0  0  0  0  0  0  0  0  0  0  0
    2.4545   13.3945   -5.6023 H   0  0  0  0  0  0  0  0  0  0  0  0
    1.0768   12.3502   -6.1698 H   0  0  0  0  0  0  0  0  0  0  0  0
    1.1521   14.5225   -7.3499 H   0  0  0  0  0  0  0  0  0  0  0  0
   -0.3548   14.2990   -6.3774 H   0  0  0  0  0  0  0  0  0  0  0  0
    0.4350   16.5454   -6.0708 H   0  0  0  0  0  0  0  0  0  0  0  0
    2.8670   15.4050   -5.0440 H   0  0  0  0  0  0  0  0  0  0  0  0
   -1.3088   15.7185   -2.9788 H   0  0  0  0  0  0  0  0  0  0  0  0
   -1.3730   16.6169   -4.5329 H   0  0  0  0  0  0  0  0  0  0  0  0
   -1.3811   14.8206   -4.5329 H   0  0  0  0  0  0  0  0  0  0  0  0
    0.9872   16.9072   -2.3270 H   0  0  0  0  0  0  0  0  0  0  0  0
    2.0621   17.2456   -3.7259 H   0  0  0  0  0  0  0  0  0  0  0  0
    0.3708   17.8506   -3.7259 H   0  0  0  0  0  0  0  0  0  0  0  0
    3.5236   11.5126   -2.9165 H   0  0  0  0  0  0  0  0  0  0  0  0
    3.0265   10.6741   -4.4252 H   0  0  0  0  0  0  0  0  0  0  0  0
    3.2699   12.4538   -4.4252 H   0  0  0  0  0  0  0  0  0  0  0  0
    0.3972   10.7393   -5.0527 H   0  0  0  0  0  0  0  0  0  0  0  0
    1.3298    9.6941   -3.8394 H   0  0  0  0  0  0  0  0  0  0  0  0
   -1.4271   10.9070   -3.4993 H   0  0  0  0  0  0  0  0  0  0  0  0
   -0.9685    9.1628   -3.6204 H   0  0  0  0  0  0  0  0  0  0  0  0
    0.7190    8.8512   -0.3766 H   0  0  0  0  0  0  0  0  0  0  0  0
    0.2583    8.0270   -1.9048 H   0  0  0  0  0  0  0  0  0  0  0  0
    1.5755    9.2484   -1.9048 H   0  0  0  0  0  0  0  0  0  0  0  0
  1  2  1  0
  2  3  1  0
  3  4  1  0
  4  5  1  0
  5  6  1  0
  6  7  1  0
  7  8  1  0
  7  9  1  0
  2 10  1  0
 10 11  1  0
 11 12  1  0
 12 13  1  0
 13 14  1  1
 13 15  1  0
 15 16  1  0
 16 17  1  0
 17 18  2  0
 18 19  1  0
 19 20  1  0
 20 21  1  0
 21 22  1  0
 22 23  1  0
 22 24  1  0
 24 25  1  0
 24 26  1  0
 19 27  1  0
 27 28  1  1
 27 29  1  0
 29 30  1  0
 30 31  1  0
 31 32  1  6
  7  5  1  0
 31 10  1  0
 31 13  1  0
 27 15  1  0
 24 18  1  0
  1 33  1  0
  1 34  1  0
  1 35  1  0
  2 36  1  1
  3 37  1  0
  3 38  1  0
  4 39  1  0
  4 40  1  0
  5 41  1  1
  8 42  1  0
  8 43  1  0
  8 44  1  0
  9 45  1  0
  9 46  1  0
  9 47  1  0
 10 48  1  6
 11 49  1  0
 11 50  1  0
 12 51  1  0
 12 52  1  0
 14 53  1  0
 14 54  1  0
 14 55  1  0
 15 56  1  1
 16 57  1  0
 16 58  1  0
 17 59  1  0
 19 60  1  6
 20 61  1  0
 20 62  1  0
 21 63  1  0
 21 64  1  0
 22 65  1  6
 23 66  1  0
 25 67  1  0
 25 68  1  0
 25 69  1  0
 26 70  1  0
 26 71  1  0
 26 72  1  0
 28 73  1  0
 28 74  1  0
 28 75  1  0
 29 76  1  0
 29 77  1  0
 30 78  1  0
 30 79  1  0
 32 80  1  0
 32 81  1  0
 32 82  1  0
M  END
>  <meeko>  (13) 
{"is_sidechain": [false], "intermolecular_energy": 2.731, "internal_energy": -0.839}

$$$$
EPH_relaxed_0001_pdb2pqr_Repair_60_r2_0001_out
     RDKit          3D

 82 86  0  0  0  0  0  0  0  0999 V2000
    1.8020   18.5380   -2.5840 C   0  0  0  0  0  0  0  0  0  0  0  0
    0.9850   17.6380   -1.6530 C   0  0  2  0  0  0  0  0  0  0  0  0
    1.2580   17.9410   -0.1660 C   0  0  0  0  0  0  0  0  0  0  0  0
    0.7860   19.3280    0.2770 C   0  0  0  0  0  0  0  0  0  0  0  0
   -0.6700   19.3320    0.6300 C   0  0  2  0  0  0  0  0  0  0  0  0
   -1.4610   18.3690   -0.0790 O   0  0  0  0  0  0  0  0  0  0  0  0
   -1.7640   19.7490   -0.3360 C   0  0  0  0  0  0  0  0  0  0  0  0
   -1.4470   20.1930   -1.7300 C   0  0  0  0  0  0  0  0  0  0  0  0
   -3.0810   20.1910    0.2220 C   0  0  0  0  0  0  0  0  0  0  0  0
    1.2850   16.1730   -1.9500 C   0  0  1  0  0  0  0  0  0  0  0  0
    2.7590   15.9400   -2.3750 C   0  0  0  0  0  0  0  0  0  0  0  0
    3.1750   14.5590   -1.8060 C   0  0  0  0  0  0  0  0  0  0  0  0
    1.8460   13.9020   -1.3640 C   0  0  1  0  0  0  0  0  0  0  0  0
    1.2330   13.3180   -2.6760 C   0  0  0  0  0  0  0  0  0  0  0  0
    1.9500   12.8180   -0.2430 C   0  0  2  0  0  0  0  0  0  0  0  0
    2.7770   11.5740   -0.6120 C   0  0  0  0  0  0  0  0  0  0  0  0
    2.0050   10.4560   -1.2310 C   0  0  0  0  0  0  0  0  0  0  0  0
    0.6650   10.3320   -1.2230 C   0  0  0  0  0  0  0  0  0  0  0  0
   -0.2140   11.3300   -0.4580 C   0  0  1  0  0  0  0  0  0  0  0  0
   -1.2730   10.5580    0.3720 C   0  0  0  0  0  0  0  0  0  0  0  0
   -2.0920    9.5920   -0.4790 C   0  0  0  0  0  0  0  0  0  0  0  0
   -1.1880    8.5790   -1.1770 C   0  0  2  0  0  0  0  0  0  0  0  0
   -0.5940    7.7330   -0.1880 O   0  0  0  0  0  0  0  0  0  0  0  0
   -0.0750    9.2410   -2.0360 C   0  0  0  0  0  0  0  0  0  0  0  0
   -0.7070    9.9090   -3.2830 C   0  0  0  0  0  0  0  0  0  0  0  0
    0.8500    8.1150   -2.5700 C   0  0  0  0  0  0  0  0  0  0  0  0
    0.5610   12.4180    0.4030 C   0  0  1  0  0  0  0  0  0  0  0  0
    0.8760   11.8500    1.8200 C   0  0  0  0  0  0  0  0  0  0  0  0
   -0.3770   13.6640    0.6230 C   0  0  0  0  0  0  0  0  0  0  0  0
   -0.3460   14.7570   -0.4620 C   0  0  0  0  0  0  0  0  0  0  0  0
    1.0950   15.1600   -0.7940 C   0  0  2  0  0  0  0  0  0  0  0  0
    1.7300   15.7720    0.5010 C   0  0  0  0  0  0  0  0  0  0  0  0
    2.4215   19.2205   -1.9836 H   0  0  0  0  0  0  0  0  0  0  0  0
    2.4507   17.9164   -3.2186 H   0  0  0  0  0  0  0  0  0  0  0  0
    1.1207   19.1238   -3.2186 H   0  0  0  0  0  0  0  0  0  0  0  0
   -0.0786   17.8450   -1.8423 H   0  0  0  0  0  0  0  0  0  0  0  0
    0.7384   17.1866    0.4430 H   0  0  0  0  0  0  0  0  0  0  0  0
    2.3490   17.9138   -0.0278 H   0  0  0  0  0  0  0  0  0  0  0  0
    1.3672   19.6376    1.1581 H   0  0  0  0  0  0  0  0  0  0  0  0
    0.9374   20.0251   -0.5604 H   0  0  0  0  0  0  0  0  0  0  0  0
   -0.4428   19.6341    1.6630 H   0  0  0  0  0  0  0  0  0  0  0  0
   -0.8082   21.0878   -1.6935 H   0  0  0  0  0  0  0  0  0  0  0  0
   -0.9190   19.3869   -2.2604 H   0  0  0  0  0  0  0  0  0  0  0  0
   -2.3809   20.4306   -2.2604 H   0  0  0  0  0  0  0  0  0  0  0  0
   -3.0371   20.1763    1.3210 H   0  0  0  0  0  0  0  0  0  0  0  0
   -3.3010   21.2122   -0.1225 H   0  0  0  0  0  0  0  0  0  0  0  0
   -3.8726   19.5093   -0.1225 H   0  0  0  0  0  0  0  0  0  0  0  0
    0.5403   15.9880   -2.7382 H   0  0  0  0  0  0  0  0  0  0  0  0
    2.8413   15.9382   -3.4719 H   0  0  0  0  0  0  0  0  0  0  0  0
    3.4117   16.7382   -1.9918 H   0  0  0  0  0  0  0  0  0  0  0  0
    3.6691   13.9531   -2.5798 H   0  0  0  0  0  0  0  0  0  0  0  0
    3.8919   14.6486   -0.9765 H   0  0  0  0  0  0  0  0  0  0  0  0
    0.4581   12.5798   -2.4218 H   0  0  0  0  0  0  0  0  0  0  0  0
    0.7850   14.1317   -3.2653 H   0  0  0  0  0  0  0  0  0  0  0  0
    2.0240   12.8311   -3.2653 H   0  0  0  0  0  0  0  0  0  0  0  0
    2.5263   13.3392    0.5356 H   0  0  0  0  0  0  0  0  0  0  0  0
    3.5571   11.8831   -1.3232 H   0  0  0  0  0  0  0  0  0  0  0  0
    3.1752   11.1812    0.3352 H   0  0  0  0  0  0  0  0  0  0  0  0
    2.5804    9.6665   -1.7366 H   0  0  0  0  0  0  0  0  0  0  0  0
   -0.7137   11.9430   -1.2226 H   0  0  0  0  0  0  0  0  0  0  0  0
   -0.7572    9.9860    1.1573 H   0  0  0  0  0  0  0  0  0  0  0  0
   -1.9665   11.2973    0.7993 H   0  0  0  0  0  0  0  0  0  0  0  0
   -2.8019    9.0555    0.1677 H   0  0  0  0  0  0  0  0  0  0  0  0
   -2.6303   10.1689   -1.2454 H   0  0  0  0  0  0  0  0  0  0  0  0
   -1.8154    7.9994   -1.8701 H   0  0  0  0  0  0  0  0  0  0  0  0
   -0.9780    6.8460   -0.2900 H   0  0  0  0  0  0  0  0  0  0  0  0
   -1.4302   10.6734   -2.9626 H   0  0  0  0  0  0  0  0  0  0  0  0
    0.0827   10.3812   -3.8859 H   0  0  0  0  0  0  0  0  0  0  0  0
   -1.2222    9.1467   -3.8859 H   0  0  0  0  0  0  0  0  0  0  0  0
    1.2950    7.5732   -1.7224 H   0  0  0  0  0  0  0  0  0  0  0  0
    0.2613    7.4167   -3.1830 H   0  0  0  0  0  0  0  0  0  0  0  0
    1.6493    8.5570   -3.1830 H   0  0  0  0  0  0  0  0  0  0  0  0
    0.4929   12.5409    2.5854 H   0  0  0  0  0  0  0  0  0  0  0  0
    0.3933   10.8686    1.9373 H   0  0  0  0  0  0  0  0  0  0  0  0
    1.9642   11.7397    1.9373 H   0  0  0  0  0  0  0  0  0  0  0  0
   -1.4106   13.2941    0.6933 H   0  0  0  0  0  0  0  0  0  0  0  0
    0.0011   14.1516    1.5336 H   0  0  0  0  0  0  0  0  0  0  0  0
   -0.8314   14.3745   -1.3720 H   0  0  0  0  0  0  0  0  0  0  0  0
   -0.8793   15.6417   -0.0839 H   0  0  0  0  0  0  0  0  0  0  0  0
    1.2614   15.3204    1.3878 H   0  0  0  0  0  0  0  0  0  0  0  0
    2.8105   15.5660    0.5122 H   0  0  0  0  0  0  0  0  0  0  0  0
    1.5639   16.8593    0.5122 H   0  0  0  0  0  0  0  0  0  0  0  0
  1  2  1  0
  2  3  1  0
  3  4  1  0
  4  5  1  0
  5  6  1  0
  6  7  1  0
  7  8  1  0
  7  9  1  0
  2 10  1  0
 10 11  1  0
 11 12  1  0
 12 13  1  0
 13 14  1  6
 13 15  1  0
 15 16  1  0
 16 17  1  0
 17 18  2  0
 18 19  1  0
 19 20  1  0
 20 21  1  0
 21 22  1  0
 22 23  1  0
 22 24  1  0
 24 25  1  0
 24 26  1  0
 19 27  1  0
 27 28  1  1
 27 29  1  0
 29 30  1  0
 30 31  1  0
 31 32  1  1
  7  5  1  0
 31 10  1  0
 31 13  1  0
 27 15  1  0
 24 18  1  0
  1 33  1  0
  1 34  1  0
  1 35  1  0
  2 36  1  6
  3 37  1  0
  3 38  1  0
  4 39  1  0
  4 40  1  0
  5 41  1  1
  8 42  1  0
  8 43  1  0
  8 44  1  0
  9 45  1  0
  9 46  1  0
  9 47  1  0
 10 48  1  6
 11 49  1  0
 11 50  1  0
 12 51  1  0
 12 52  1  0
 14 53  1  0
 14 54  1  0
 14 55  1  0
 15 56  1  1
 16 57  1  0
 16 58  1  0
 17 59  1  0
 19 60  1  6
 20 61  1  0
 20 62  1  0
 21 63  1  0
 21 64  1  0
 22 65  1  6
 23 66  1  0
 25 67  1  0
 25 68  1  0
 25 69  1  0
 26 70  1  0
 26 71  1  0
 26 72  1  0
 28 73  1  0
 28 74  1  0
 28 75  1  0
 29 76  1  0
 29 77  1  0
 30 78  1  0
 30 79  1  0
 32 80  1  0
 32 81  1  0
 32 82  1  0
M  END
>  <meeko>  (14) 
{"is_sidechain": [false], "intermolecular_energy": 2.731, "internal_energy": -0.839}

$$$$
EPH_relaxed_0001_pdb2pqr_Repair_60_r2_0001_out
     RDKit          3D

 82 86  0  0  0  0  0  0  0  0999 V2000
    1.9620   10.9130   -5.2040 C   0  0  0  0  0  0  0  0  0  0  0  0
    1.3530   10.7660   -3.8070 C   0  0  2  0  0  0  0  0  0  0  0  0
    0.2370    9.7020   -3.7690 C   0  0  0  0  0  0  0  0  0  0  0  0
    0.3730    8.7090   -2.6120 C   0  0  0  0  0  0  0  0  0  0  0  0
   -0.3120    9.2030   -1.3740 C   0  0  2  0  0  0  0  0  0  0  0  0
   -0.6750    8.1770   -0.4400 O   0  0  0  0  0  0  0  0  0  0  0  0
   -1.7610    8.9000   -1.0420 C   0  0  0  0  0  0  0  0  0  0  0  0
   -2.6130    8.0710   -1.9520 C   0  0  0  0  0  0  0  0  0  0  0  0
   -2.4820    9.8050   -0.0920 C   0  0  0  0  0  0  0  0  0  0  0  0
    0.8090   12.1080   -3.3320 C   0  0  1  0  0  0  0  0  0  0  0  0
   -0.6940   12.0440   -2.9530 C   0  0  0  0  0  0  0  0  0  0  0  0
   -0.8970   13.0130   -1.7600 C   0  0  0  0  0  0  0  0  0  0  0  0
    0.4070   13.8440   -1.7080 C   0  0  1  0  0  0  0  0  0  0  0  0
    0.2250   14.9460   -2.7980 C   0  0  0  0  0  0  0  0  0  0  0  0
    0.7770   14.4610   -0.3200 C   0  0  2  0  0  0  0  0  0  0  0  0
   -0.2350   15.4790    0.2330 C   0  0  0  0  0  0  0  0  0  0  0  0
    0.0150   16.9000   -0.1500 C   0  0  0  0  0  0  0  0  0  0  0  0
    1.1610   17.3810   -0.6660 C   0  0  0  0  0  0  0  0  0  0  0  0
    2.3930   16.4800   -0.8220 C   0  0  1  0  0  0  0  0  0  0  0  0
    3.6480   17.2230   -0.2920 C   0  0  0  0  0  0  0  0  0  0  0  0
    3.8370   18.5890   -0.9440 C   0  0  0  0  0  0  0  0  0  0  0  0
    2.6160   19.4760   -0.7180 C   0  0  2  0  0  0  0  0  0  0  0  0
    2.5190   19.7810    0.6770 O   0  0  0  0  0  0  0  0  0  0  0  0
    1.2890   18.8270   -1.2040 C   0  0  0  0  0  0  0  0  0  0  0  0
    1.2730   18.7740   -2.7510 C   0  0  0  0  0  0  0  0  0  0  0  0
    0.1210   19.7620   -0.7890 C   0  0  0  0  0  0  0  0  0  0  0  0
    2.2580   15.0120   -0.2290 C   0  0  1  0  0  0  0  0  0  0  0  0
    2.6430   15.0100    1.2820 C   0  0  0  0  0  0  0  0  0  0  0  0
    3.2920   14.0690   -0.9520 C   0  0  0  0  0  0  0  0  0  0  0  0
    2.8250   13.3950   -2.2560 C   0  0  0  0  0  0  0  0  0  0  0  0
    1.4570   12.7310   -2.0700 C   0  0  2  0  0  0  0  0  0  0  0  0
    1.6140   11.6030   -0.9950 C   0  0  0  0  0  0  0  0  0  0  0  0
    3.0277   11.1702   -5.1142 H   0  0  0  0  0  0  0  0  0  0  0  0
    1.8587    9.9641   -5.7508 H   0  0  0  0  0  0  0  0  0  0  0  0
    1.4372   11.7103   -5.7508 H   0  0  0  0  0  0  0  0  0  0  0  0
    2.1535   10.4298   -3.1315 H   0  0  0  0  0  0  0  0  0  0  0  0
   -0.7304   10.2167   -3.6731 H   0  0  0  0  0  0  0  0  0  0  0  0
    0.3134    9.1225   -4.7008 H   0  0  0  0  0  0  0  0  0  0  0  0
   -0.0771    7.7506   -2.9101 H   0  0  0  0  0  0  0  0  0  0  0  0
    1.4431    8.5891   -2.3871 H   0  0  0  0  0  0  0  0  0  0  0  0
    0.2561   10.1444   -1.4073 H   0  0  0  0  0  0  0  0  0  0  0  0
   -3.2735    7.4283   -1.3514 H   0  0  0  0  0  0  0  0  0  0  0  0
   -3.2221    8.7315   -2.5866 H   0  0  0  0  0  0  0  0  0  0  0  0
   -1.9694    7.4441   -2.5866 H   0  0  0  0  0  0  0  0  0  0  0  0
   -2.2485    9.5119    0.9422 H   0  0  0  0  0  0  0  0  0  0  0  0
   -2.1611   10.8437   -0.2601 H   0  0  0  0  0  0  0  0  0  0  0  0
   -3.5661    9.7244   -0.2601 H   0  0  0  0  0  0  0  0  0  0  0  0
    1.0379   12.7224   -4.2152 H   0  0  0  0  0  0  0  0  0  0  0  0
   -1.3133   12.3586   -3.8059 H   0  0  0  0  0  0  0  0  0  0  0  0
   -0.9898   11.0193   -2.6838 H   0  0  0  0  0  0  0  0  0  0  0  0
   -1.7664   13.6645   -1.9322 H   0  0  0  0  0  0  0  0  0  0  0  0
   -1.0907   12.4802   -0.8173 H   0  0  0  0  0  0  0  0  0  0  0  0
    0.0642   15.9196   -2.3119 H   0  0  0  0  0  0  0  0  0  0  0  0
    1.1274   14.9939   -3.4252 H   0  0  0  0  0  0  0  0  0  0  0  0
   -0.6449   14.7012   -3.4252 H   0  0  0  0  0  0  0  0  0  0  0  0
    0.7187   13.5887    0.3476 H   0  0  0  0  0  0  0  0  0  0  0  0
   -1.2336   15.1989   -0.1336 H   0  0  0  0  0  0  0  0  0  0  0  0
   -0.1399   15.4380    1.3281 H   0  0  0  0  0  0  0  0  0  0  0  0
   -0.8073   17.6145    0.0025 H   0  0  0  0  0  0  0  0  0  0  0  0
    2.4976   16.2921   -1.9008 H   0  0  0  0  0  0  0  0  0  0  0  0
    3.5432   17.3620    0.7941 H   0  0  0  0  0  0  0  0  0  0  0  0
    4.5279   16.6105   -0.5383 H   0  0  0  0  0  0  0  0  0  0  0  0
    4.7215   19.0765   -0.5081 H   0  0  0  0  0  0  0  0  0  0  0  0
    3.9706   18.4454   -2.0264 H   0  0  0  0  0  0  0  0  0  0  0  0
    2.7566   20.3889   -1.3154 H   0  0  0  0  0  0  0  0  0  0  0  0
    2.7560   20.7170    0.7900 H   0  0  0  0  0  0  0  0  0  0  0  0
    0.9697   17.7692   -3.0803 H   0  0  0  0  0  0  0  0  0  0  0  0
    0.5592   19.5171   -3.1360 H   0  0  0  0  0  0  0  0  0  0  0  0
    2.2788   18.9980   -3.1360 H   0  0  0  0  0  0  0  0  0  0  0  0
    0.0616   19.8096    0.3084 H   0  0  0  0  0  0  0  0  0  0  0  0
    0.2983   20.7706   -1.1907 H   0  0  0  0  0  0  0  0  0  0  0  0
   -0.8243   19.3683   -1.1907 H   0  0  0  0  0  0  0  0  0  0  0  0
    1.7286   15.0148    1.8934 H   0  0  0  0  0  0  0  0  0  0  0  0
    3.2314   14.1088    1.5093 H   0  0  0  0  0  0  0  0  0  0  0  0
    3.2407   15.9051    1.5093 H   0  0  0  0  0  0  0  0  0  0  0  0
    4.1818   14.6707   -1.1888 H   0  0  0  0  0  0  0  0  0  0  0  0
    3.4679   13.2422   -0.2481 H   0  0  0  0  0  0  0  0  0  0  0  0
    2.7515   14.1551   -3.0477 H   0  0  0  0  0  0  0  0  0  0  0  0
    3.5561   12.6210   -2.5324 H   0  0  0  0  0  0  0  0  0  0  0  0
    1.5526   12.0440    0.0109 H   0  0  0  0  0  0  0  0  0  0  0  0
    0.8103   10.8625   -1.1204 H   0  0  0  0  0  0  0  0  0  0  0  0
    2.5894   11.1102   -1.1204 H   0  0  0  0  0  0  0  0  0  0  0  0
  1  2  1  0
  2  3  1  0
  3  4  1  0
  4  5  1  0
  5  6  1  0
  6  7  1  0
  7  8  1  0
  7  9  1  0
  2 10  1  0
 10 11  1  0
 11 12  1  0
 12 13  1  0
 13 14  1  6
 13 15  1  0
 15 16  1  0
 16 17  1  0
 17 18  2  0
 18 19  1  0
 19 20  1  0
 20 21  1  0
 21 22  1  0
 22 23  1  0
 22 24  1  0
 24 25  1  0
 24 26  1  0
 19 27  1  0
 27 28  1  1
 27 29  1  0
 29 30  1  0
 30 31  1  0
 31 32  1  1
  7  5  1  0
 31 10  1  0
 31 13  1  0
 27 15  1  0
 24 18  1  0
  1 33  1  0
  1 34  1  0
  1 35  1  0
  2 36  1  1
  3 37  1  0
  3 38  1  0
  4 39  1  0
  4 40  1  0
  5 41  1  1
  8 42  1  0
  8 43  1  0
  8 44  1  0
  9 45  1  0
  9 46  1  0
  9 47  1  0
 10 48  1  6
 11 49  1  0
 11 50  1  0
 12 51  1  0
 12 52  1  0
 14 53  1  0
 14 54  1  0
 14 55  1  0
 15 56  1  1
 16 57  1  0
 16 58  1  0
 17 59  1  0
 19 60  1  6
 20 61  1  0
 20 62  1  0
 21 63  1  0
 21 64  1  0
 22 65  1  6
 23 66  1  0
 25 67  1  0
 25 68  1  0
 25 69  1  0
 26 70  1  0
 26 71  1  0
 26 72  1  0
 28 73  1  0
 28 74  1  0
 28 75  1  0
 29 76  1  0
 29 77  1  0
 30 78  1  0
 30 79  1  0
 32 80  1  0
 32 81  1  0
 32 82  1  0
M  END
>  <meeko>  (15) 
{"is_sidechain": [false], "intermolecular_energy": 2.731, "internal_energy": -0.839}

$$$$
EPH_relaxed_0001_pdb2pqr_Repair_60_r2_0001_out
     RDKit          3D

 82 86  0  0  0  0  0  0  0  0999 V2000
    0.9520   14.8320   -2.6320 C   0  0  0  0  0  0  0  0  0  0  0  0
    1.2100   14.1480   -3.9770 C   0  0  2  0  0  0  0  0  0  0  0  0
    0.5110   14.8770   -5.1430 C   0  0  0  0  0  0  0  0  0  0  0  0
    1.1400   14.5960   -6.5100 C   0  0  0  0  0  0  0  0  0  0  0  0
    0.8820   15.7110   -7.4780 C   0  0  2  0  0  0  0  0  0  0  0  0
    0.3870   15.2910   -8.7560 O   0  0  0  0  0  0  0  0  0  0  0  0
    1.6820   15.9150   -8.7520 C   0  0  0  0  0  0  0  0  0  0  0  0
    2.8020   14.9950   -9.1250 C   0  0  0  0  0  0  0  0  0  0  0  0
    1.6980   17.2750   -9.3760 C   0  0  0  0  0  0  0  0  0  0  0  0
    0.7480   12.6970   -3.9190 C   0  0  1  0  0  0  0  0  0  0  0  0
    1.8790   11.6950   -4.2770 C   0  0  0  0  0  0  0  0  0  0  0  0
    1.6580   10.4380   -3.3970 C   0  0  0  0  0  0  0  0  0  0  0  0
    0.2370   10.6160   -2.8120 C   0  0  1  0  0  0  0  0  0  0  0  0
   -0.7260   10.1450   -3.9470 C   0  0  0  0  0  0  0  0  0  0  0  0
   -0.0530    9.8770   -1.4660 C   0  0  2  0  0  0  0  0  0  0  0  0
    0.0420    8.3420   -1.5300 C   0  0  0  0  0  0  0  0  0  0  0  0
   -1.2310    7.6380   -1.8660 C   0  0  0  0  0  0  0  0  0  0  0  0
   -2.4600    8.1840   -1.8280 C   0  0  0  0  0  0  0  0  0  0  0  0
   -2.6710    9.6170   -1.3210 C   0  0  1  0  0  0  0  0  0  0  0  0
   -3.8650    9.6450   -0.3310 C   0  0  0  0  0  0  0  0  0  0  0  0
   -5.1340    9.0450   -0.9280 C   0  0  0  0  0  0  0  0  0  0  0  0
   -4.9010    7.6020   -1.3670 C   0  0  2  0  0  0  0  0  0  0  0  0
   -4.6650    6.8000   -0.2060 O   0  0  0  0  0  0  0  0  0  0  0  0
   -3.7150    7.4470   -2.3590 C   0  0  0  0  0  0  0  0  0  0  0  0
   -4.0970    8.0630   -3.7280 C   0  0  0  0  0  0  0  0  0  0  0  0
   -3.4980    5.9310   -2.6110 C   0  0  0  0  0  0  0  0  0  0  0  0
   -1.3810   10.3440   -0.7430 C   0  0  1  0  0  0  0  0  0  0  0  0
   -1.2100   10.0010    0.7690 C   0  0  0  0  0  0  0  0  0  0  0  0
   -1.5900   11.9020   -0.8240 C   0  0  0  0  0  0  0  0  0  0  0  0
   -1.1730   12.5920   -2.1370 C   0  0  0  0  0  0  0  0  0  0  0  0
    0.2380   12.1670   -2.5550 C   0  0  2  0  0  0  0  0  0  0  0  0
    1.2310   12.6470   -1.4430 C   0  0  0  0  0  0  0  0  0  0  0  0
    1.2118   14.1433   -1.8146 H   0  0  0  0  0  0  0  0  0  0  0  0
    1.5698   15.7391   -2.5575 H   0  0  0  0  0  0  0  0  0  0  0  0
   -0.1109   15.1051   -2.5575 H   0  0  0  0  0  0  0  0  0  0  0  0
    2.2931   14.1864   -4.1653 H   0  0  0  0  0  0  0  0  0  0  0  0
   -0.5409   14.5565   -5.1722 H   0  0  0  0  0  0  0  0  0  0  0  0
    0.6160   15.9560   -4.9566 H   0  0  0  0  0  0  0  0  0  0  0  0
    2.2263   14.4765   -6.3849 H   0  0  0  0  0  0  0  0  0  0  0  0
    0.6869   13.6788   -6.9143 H   0  0  0  0  0  0  0  0  0  0  0  0
    0.6145   16.3933   -6.6577 H   0  0  0  0  0  0  0  0  0  0  0  0
    3.2761   14.6055   -8.2120 H   0  0  0  0  0  0  0  0  0  0  0  0
    2.4064   14.1576   -9.7186 H   0  0  0  0  0  0  0  0  0  0  0  0
    3.5466   15.5457   -9.7186 H   0  0  0  0  0  0  0  0  0  0  0  0
    1.7070   18.0407   -8.5863 H   0  0  0  0  0  0  0  0  0  0  0  0
    2.5975   17.3815  -10.0002 H   0  0  0  0  0  0  0  0  0  0  0  0
    0.8013   17.4026  -10.0002 H   0  0  0  0  0  0  0  0  0  0  0  0
   -0.0810   12.7384   -4.6408 H   0  0  0  0  0  0  0  0  0  0  0  0
    1.8237   11.4262   -5.3422 H   0  0  0  0  0  0  0  0  0  0  0  0
    2.8699   12.1360   -4.0939 H   0  0  0  0  0  0  0  0  0  0  0  0
    1.7158    9.5232   -4.0051 H   0  0  0  0  0  0  0  0  0  0  0  0
    2.4226   10.3384   -2.6125 H   0  0  0  0  0  0  0  0  0  0  0  0
   -1.6295    9.7031   -3.5014 H   0  0  0  0  0  0  0  0  0  0  0  0
   -1.0081   11.0068   -4.5696 H   0  0  0  0  0  0  0  0  0  0  0  0
   -0.2189    9.3932   -4.5696 H   0  0  0  0  0  0  0  0  0  0  0  0
    0.7862   10.2020   -0.8335 H   0  0  0  0  0  0  0  0  0  0  0  0
    0.7879    8.0791   -2.2946 H   0  0  0  0  0  0  0  0  0  0  0  0
    0.3145    8.0113   -0.5169 H   0  0  0  0  0  0  0  0  0  0  0  0
   -1.1579    6.5835   -2.1704 H   0  0  0  0  0  0  0  0  0  0  0  0
   -2.9080   10.2226   -2.2081 H   0  0  0  0  0  0  0  0  0  0  0  0
   -3.5922    9.0710    0.5668 H   0  0  0  0  0  0  0  0  0  0  0  0
   -4.0746   10.6977   -0.0903 H   0  0  0  0  0  0  0  0  0  0  0  0
   -5.9327    9.0667   -0.1719 H   0  0  0  0  0  0  0  0  0  0  0  0
   -5.4218    9.6378   -1.8088 H   0  0  0  0  0  0  0  0  0  0  0  0
   -5.8027    7.2704   -1.9027 H   0  0  0  0  0  0  0  0  0  0  0  0
   -4.2580    5.9680   -0.5010 H   0  0  0  0  0  0  0  0  0  0  0  0
   -4.6705    8.9877   -3.5668 H   0  0  0  0  0  0  0  0  0  0  0  0
   -3.1826    8.2927   -4.2947 H   0  0  0  0  0  0  0  0  0  0  0  0
   -4.7092    7.3460   -4.2947 H   0  0  0  0  0  0  0  0  0  0  0  0
   -3.4229    5.4062   -1.6472 H   0  0  0  0  0  0  0  0  0  0  0  0
   -4.3477    5.5289   -3.1822 H   0  0  0  0  0  0  0  0  0  0  0  0
   -2.5696    5.7835   -3.1822 H   0  0  0  0  0  0  0  0  0  0  0  0
   -1.6183   10.8201    1.3792 H   0  0  0  0  0  0  0  0  0  0  0  0
   -1.7493    9.0698    0.9970 H   0  0  0  0  0  0  0  0  0  0  0  0
   -0.1417    9.8713    0.9970 H   0  0  0  0  0  0  0  0  0  0  0  0
   -2.6602   12.1026   -0.6681 H   0  0  0  0  0  0  0  0  0  0  0  0
   -0.9251   12.3218   -0.0547 H   0  0  0  0  0  0  0  0  0  0  0  0
   -1.8824   12.3144   -2.9305 H   0  0  0  0  0  0  0  0  0  0  0  0
   -1.1792   13.6805   -1.9788 H   0  0  0  0  0  0  0  0  0  0  0  0
    0.8005   12.4389   -0.4523 H   0  0  0  0  0  0  0  0  0  0  0  0
    2.1858   12.1110   -1.5478 H   0  0  0  0  0  0  0  0  0  0  0  0
    1.4041   13.7282   -1.5478 H   0  0  0  0  0  0  0  0  0  0  0  0
  1  2  1  0
  2  3  1  0
  3  4  1  0
  4  5  1  0
  5  6  1  0
  6  7  1  0
  7  8  1  0
  7  9  1  0
  2 10  1  0
 10 11  1  0
 11 12  1  0
 12 13  1  0
 13 14  1  6
 13 15  1  0
 15 16  1  0
 16 17  1  0
 17 18  2  0
 18 19  1  0
 19 20  1  0
 20 21  1  0
 21 22  1  0
 22 23  1  0
 22 24  1  0
 24 25  1  0
 24 26  1  0
 19 27  1  0
 27 28  1  1
 27 29  1  0
 29 30  1  0
 30 31  1  0
 31 32  1  1
  7  5  1  0
 31 10  1  0
 31 13  1  0
 27 15  1  0
 24 18  1  0
  1 33  1  0
  1 34  1  0
  1 35  1  0
  2 36  1  6
  3 37  1  0
  3 38  1  0
  4 39  1  0
  4 40  1  0
  5 41  1  1
  8 42  1  0
  8 43  1  0
  8 44  1  0
  9 45  1  0
  9 46  1  0
  9 47  1  0
 10 48  1  6
 11 49  1  0
 11 50  1  0
 12 51  1  0
 12 52  1  0
 14 53  1  0
 14 54  1  0
 14 55  1  0
 15 56  1  1
 16 57  1  0
 16 58  1  0
 17 59  1  0
 19 60  1  6
 20 61  1  0
 20 62  1  0
 21 63  1  0
 21 64  1  0
 22 65  1  6
 23 66  1  0
 25 67  1  0
 25 68  1  0
 25 69  1  0
 26 70  1  0
 26 71  1  0
 26 72  1  0
 28 73  1  0
 28 74  1  0
 28 75  1  0
 29 76  1  0
 29 77  1  0
 30 78  1  0
 30 79  1  0
 32 80  1  0
 32 81  1  0
 32 82  1  0
M  END
>  <meeko>  (16) 
{"is_sidechain": [false], "intermolecular_energy": 2.731, "internal_energy": -0.839}

$$$$
EPH_relaxed_0001_pdb2pqr_Repair_60_r2_0001_out
     RDKit          3D

 82 86  0  0  0  0  0  0  0  0999 V2000
  -14.6590    5.5220    0.3700 C   0  0  0  0  0  0  0  0  0  0  0  0
  -14.0430    6.9210    0.2780 C   0  0  2  0  0  0  0  0  0  0  0  0
  -15.1030    8.0040   -0.0070 C   0  0  0  0  0  0  0  0  0  0  0  0
  -14.5710    9.4340    0.1180 C   0  0  0  0  0  0  0  0  0  0  0  0
  -15.2860   10.3750   -0.8030 C   0  0  2  0  0  0  0  0  0  0  0  0
  -15.2000   10.0320   -2.1930 O   0  0  0  0  0  0  0  0  0  0  0  0
  -14.5760   11.2670   -1.8040 C   0  0  0  0  0  0  0  0  0  0  0  0
  -13.0850   11.2620   -1.9330 C   0  0  0  0  0  0  0  0  0  0  0  0
  -15.2860   12.4850   -2.3060 C   0  0  0  0  0  0  0  0  0  0  0  0
  -12.9690    6.9460   -0.8020 C   0  0  1  0  0  0  0  0  0  0  0  0
  -13.3210    7.9000   -1.9740 C   0  0  0  0  0  0  0  0  0  0  0  0
  -11.9870    8.5200   -2.4630 C   0  0  0  0  0  0  0  0  0  0  0  0
  -10.8890    7.6630   -1.7910 C   0  0  1  0  0  0  0  0  0  0  0  0
  -10.7710    6.3890   -2.6840 C   0  0  0  0  0  0  0  0  0  0  0  0
   -9.5020    8.3550   -1.5850 C   0  0  2  0  0  0  0  0  0  0  0  0
   -8.7860    8.7770   -2.8790 C   0  0  0  0  0  0  0  0  0  0  0  0
   -7.8720    7.7520   -3.4660 C   0  0  0  0  0  0  0  0  0  0  0  0
   -7.4160    6.6570   -2.8310 C   0  0  0  0  0  0  0  0  0  0  0  0
   -7.7400    6.4110   -1.3520 C   0  0  1  0  0  0  0  0  0  0  0  0
   -6.4480    5.9940   -0.6010 C   0  0  0  0  0  0  0  0  0  0  0  0
   -5.7510    4.8030   -1.2510 C   0  0  0  0  0  0  0  0  0  0  0  0
   -5.3930    5.1070   -2.7040 C   0  0  2  0  0  0  0  0  0  0  0  0
   -4.3950    6.1330   -2.7280 O   0  0  0  0  0  0  0  0  0  0  0  0
   -6.6150    5.5470   -3.5570 C   0  0  0  0  0  0  0  0  0  0  0  0
   -7.5560    4.3380   -3.7830 C   0  0  0  0  0  0  0  0  0  0  0  0
   -6.0940    5.9590   -4.9600 C   0  0  0  0  0  0  0  0  0  0  0  0
   -8.5270    7.5760   -0.6120 C   0  0  1  0  0  0  0  0  0  0  0  0
   -7.5200    8.6280   -0.0550 C   0  0  0  0  0  0  0  0  0  0  0  0
   -9.2790    6.9770    0.6350 C   0  0  0  0  0  0  0  0  0  0  0  0
  -10.6940    6.4170    0.3910 C   0  0  0  0  0  0  0  0  0  0  0  0
  -11.5530    7.4190   -0.3870 C   0  0  2  0  0  0  0  0  0  0  0  0
  -11.7080    8.7030    0.4970 C   0  0  0  0  0  0  0  0  0  0  0  0
  -14.7814    5.2441    1.4272 H   0  0  0  0  0  0  0  0  0  0  0  0
  -15.6410    5.5205   -0.1256 H   0  0  0  0  0  0  0  0  0  0  0  0
  -13.9971    4.7966   -0.1256 H   0  0  0  0  0  0  0  0  0  0  0  0
  -13.5922    7.1493    1.2551 H   0  0  0  0  0  0  0  0  0  0  0  0
  -15.4784    7.8615   -1.0311 H   0  0  0  0  0  0  0  0  0  0  0  0
  -15.8929    7.8876    0.7497 H   0  0  0  0  0  0  0  0  0  0  0  0
  -14.7090    9.7761    1.1543 H   0  0  0  0  0  0  0  0  0  0  0  0
  -13.5061    9.4284   -0.1574 H   0  0  0  0  0  0  0  0  0  0  0  0
  -16.0459   10.5861   -0.0362 H   0  0  0  0  0  0  0  0  0  0  0  0
  -12.6303   11.2605   -0.9314 H   0  0  0  0  0  0  0  0  0  0  0  0
  -12.7674   10.3628   -2.4812 H   0  0  0  0  0  0  0  0  0  0  0  0
  -12.7614   12.1591   -2.4812 H   0  0  0  0  0  0  0  0  0  0  0  0
  -15.6352   13.0840   -1.4520 H   0  0  0  0  0  0  0  0  0  0  0  0
  -14.5964   13.0855   -2.9175 H   0  0  0  0  0  0  0  0  0  0  0  0
  -16.1483   12.1808   -2.9175 H   0  0  0  0  0  0  0  0  0  0  0  0
  -12.9476    5.8778   -1.0638 H   0  0  0  0  0  0  0  0  0  0  0  0
  -13.7986    7.3375   -2.7898 H   0  0  0  0  0  0  0  0  0  0  0  0
  -14.0238    8.6814   -1.6494 H   0  0  0  0  0  0  0  0  0  0  0  0
  -11.9098    8.4606   -3.5587 H   0  0  0  0  0  0  0  0  0  0  0  0
  -11.9021    9.5854   -2.2029 H   0  0  0  0  0  0  0  0  0  0  0  0
  -10.6885    5.4986   -2.0434 H   0  0  0  0  0  0  0  0  0  0  0  0
  -11.6650    6.3023   -3.3191 H   0  0  0  0  0  0  0  0  0  0  0  0
   -9.8763    6.4680   -3.3191 H   0  0  0  0  0  0  0  0  0  0  0  0
   -9.7779    9.2910   -1.0772 H   0  0  0  0  0  0  0  0  0  0  0  0
   -9.5537    9.0173   -3.6293 H   0  0  0  0  0  0  0  0  0  0  0  0
   -8.1500    9.6330   -2.6094 H   0  0  0  0  0  0  0  0  0  0  0  0
   -7.5441    7.9052   -4.5048 H   0  0  0  0  0  0  0  0  0  0  0  0
   -8.4656    5.5845   -1.3330 H   0  0  0  0  0  0  0  0  0  0  0  0
   -5.7539    6.8473   -0.5932 H   0  0  0  0  0  0  0  0  0  0  0  0
   -6.7360    5.6964    0.4181 H   0  0  0  0  0  0  0  0  0  0  0  0
   -4.8304    4.5762   -0.6932 H   0  0  0  0  0  0  0  0  0  0  0  0
   -6.4350    3.9417   -1.2306 H   0  0  0  0  0  0  0  0  0  0  0  0
   -5.0166    4.1758   -3.1526 H   0  0  0  0  0  0  0  0  0  0  0  0
   -3.5630    5.7270   -3.0240 H   0  0  0  0  0  0  0  0  0  0  0  0
   -7.8718    3.9323   -2.8105 H   0  0  0  0  0  0  0  0  0  0  0  0
   -8.4411    4.6631   -4.3495 H   0  0  0  0  0  0  0  0  0  0  0  0
   -7.0236    3.5598   -4.3495 H   0  0  0  0  0  0  0  0  0  0  0  0
   -5.2357    6.6377   -4.8476 H   0  0  0  0  0  0  0  0  0  0  0  0
   -5.7815    5.0611   -5.5133 H   0  0  0  0  0  0  0  0  0  0  0  0
   -6.8957    6.4701   -5.5133 H   0  0  0  0  0  0  0  0  0  0  0  0
   -7.5394    8.6078    1.0446 H   0  0  0  0  0  0  0  0  0  0  0  0
   -6.5063    8.3882   -0.4083 H   0  0  0  0  0  0  0  0  0  0  0  0
   -7.8039    9.6303   -0.4083 H   0  0  0  0  0  0  0  0  0  0  0  0
   -8.6617    6.1587    1.0342 H   0  0  0  0  0  0  0  0  0  0  0  0
   -9.4199    7.8255    1.3207 H   0  0  0  0  0  0  0  0  0  0  0  0
  -10.6172    5.4840   -0.1866 H   0  0  0  0  0  0  0  0  0  0  0  0
  -11.1697    6.2286    1.3648 H   0  0  0  0  0  0  0  0  0  0  0  0
  -11.6741    8.4225    1.5601 H   0  0  0  0  0  0  0  0  0  0  0  0
  -10.8877    9.4017    0.2758 H   0  0  0  0  0  0  0  0  0  0  0  0
  -12.6710    9.1864    0.2758 H   0  0  0  0  0  0  0  0  0  0  0  0
  1  2  1  0
  2  3  1  0
  3  4  1  0
  4  5  1  0
  5  6  1  0
  6  7  1  0
  7  8  1  0
  7  9  1  0
  2 10  1  0
 10 11  1  0
 11 12  1  0
 12 13  1  0
 13 14  1  6
 13 15  1  0
 15 16  1  0
 16 17  1  0
 17 18  2  0
 18 19  1  0
 19 20  1  0
 20 21  1  0
 21 22  1  0
 22 23  1  0
 22 24  1  0
 24 25  1  0
 24 26  1  0
 19 27  1  0
 27 28  1  1
 27 29  1  0
 29 30  1  0
 30 31  1  0
 31 32  1  1
  7  5  1  0
 31 10  1  0
 31 13  1  0
 27 15  1  0
 24 18  1  0
  1 33  1  0
  1 34  1  0
  1 35  1  0
  2 36  1  1
  3 37  1  0
  3 38  1  0
  4 39  1  0
  4 40  1  0
  5 41  1  1
  8 42  1  0
  8 43  1  0
  8 44  1  0
  9 45  1  0
  9 46  1  0
  9 47  1  0
 10 48  1  6
 11 49  1  0
 11 50  1  0
 12 51  1  0
 12 52  1  0
 14 53  1  0
 14 54  1  0
 14 55  1  0
 15 56  1  1
 16 57  1  0
 16 58  1  0
 17 59  1  0
 19 60  1  6
 20 61  1  0
 20 62  1  0
 21 63  1  0
 21 64  1  0
 22 65  1  6
 23 66  1  0
 25 67  1  0
 25 68  1  0
 25 69  1  0
 26 70  1  0
 26 71  1  0
 26 72  1  0
 28 73  1  0
 28 74  1  0
 28 75  1  0
 29 76  1  0
 29 77  1  0
 30 78  1  0
 30 79  1  0
 32 80  1  0
 32 81  1  0
 32 82  1  0
M  END
>  <meeko>  (17) 
{"is_sidechain": [false], "intermolecular_energy": 2.731, "internal_energy": -0.839}

$$$$
EPH_relaxed_0001_pdb2pqr_Repair_60_r2_0001_out
     RDKit          3D

 82 86  0  0  0  0  0  0  0  0999 V2000
    1.6720   18.7670   -2.4000 C   0  0  0  0  0  0  0  0  0  0  0  0
    1.0670   17.8590   -1.3270 C   0  0  2  0  0  0  0  0  0  0  0  0
    1.5520   18.2300    0.0890 C   0  0  0  0  0  0  0  0  0  0  0  0
    2.9570   18.8370    0.1190 C   0  0  0  0  0  0  0  0  0  0  0  0
    3.2060   19.5990    1.3850 C   0  0  2  0  0  0  0  0  0  0  0  0
    4.5070   20.1930    1.4810 O   0  0  0  0  0  0  0  0  0  0  0  0
    4.2070   19.1660    2.4400 C   0  0  0  0  0  0  0  0  0  0  0  0
    5.0240   17.9230    2.2760 C   0  0  0  0  0  0  0  0  0  0  0  0
    4.0390   19.6760    3.8380 C   0  0  0  0  0  0  0  0  0  0  0  0
    1.4040   16.4030   -1.6270 C   0  0  1  0  0  0  0  0  0  0  0  0
    2.9180   16.1830   -1.8920 C   0  0  0  0  0  0  0  0  0  0  0  0
    3.2740   14.7880   -1.3170 C   0  0  0  0  0  0  0  0  0  0  0  0
    1.9070   14.1180   -1.0430 C   0  0  1  0  0  0  0  0  0  0  0  0
    1.4450   13.5680   -2.4290 C   0  0  0  0  0  0  0  0  0  0  0  0
    1.8910   13.0040    0.0540 C   0  0  2  0  0  0  0  0  0  0  0  0
    2.7590   11.7720   -0.2540 C   0  0  0  0  0  0  0  0  0  0  0  0
    2.0660   10.6700   -0.9840 C   0  0  0  0  0  0  0  0  0  0  0  0
    0.7340   10.5440   -1.1270 C   0  0  0  0  0  0  0  0  0  0  0  0
   -0.2290   11.5200   -0.4380 C   0  0  1  0  0  0  0  0  0  0  0  0
   -1.3690   10.7240    0.2490 C   0  0  0  0  0  0  0  0  0  0  0  0
   -2.0850    9.7800   -0.7120 C   0  0  0  0  0  0  0  0  0  0  0  0
   -1.1050    8.7870   -1.3330 C   0  0  2  0  0  0  0  0  0  0  0  0
   -0.6200    7.9160   -0.3070 O   0  0  0  0  0  0  0  0  0  0  0  0
    0.0930    9.4740   -2.0460 C   0  0  0  0  0  0  0  0  0  0  0  0
   -0.4000   10.1740   -3.3360 C   0  0  0  0  0  0  0  0  0  0  0  0
    1.0760    8.3630   -2.5030 C   0  0  0  0  0  0  0  0  0  0  0  0
    0.4420   12.5860    0.5310 C   0  0  1  0  0  0  0  0  0  0  0  0
    0.6010   11.9800    1.9600 C   0  0  0  0  0  0  0  0  0  0  0  0
   -0.5200   13.8230    0.6790 C   0  0  0  0  0  0  0  0  0  0  0  0
   -0.3740   14.9450   -0.3670 C   0  0  0  0  0  0  0  0  0  0  0  0
    1.0920   15.3590   -0.5260 C   0  0  2  0  0  0  0  0  0  0  0  0
    1.5780   15.9370    0.8460 C   0  0  0  0  0  0  0  0  0  0  0  0
    2.2202   19.5897   -1.9177 H   0  0  0  0  0  0  0  0  0  0  0  0
    2.3628   18.1840   -3.0268 H   0  0  0  0  0  0  0  0  0  0  0  0
    0.8679   19.1800   -3.0268 H   0  0  0  0  0  0  0  0  0  0  0  0
   -0.0235   18.0010   -1.3508 H   0  0  0  0  0  0  0  0  0  0  0  0
    0.8491   18.9601    0.5166 H   0  0  0  0  0  0  0  0  0  0  0  0
    1.5927   17.2966    0.6696 H   0  0  0  0  0  0  0  0  0  0  0  0
    3.6968   18.0269    0.0394 H   0  0  0  0  0  0  0  0  0  0  0  0
    3.0456   19.5369   -0.7249 H   0  0  0  0  0  0  0  0  0  0  0  0
    2.1460   19.8861    1.4475 H   0  0  0  0  0  0  0  0  0  0  0  0
    5.2866   17.5235    3.2667 H   0  0  0  0  0  0  0  0  0  0  0  0
    4.4424   17.1726    1.7204 H   0  0  0  0  0  0  0  0  0  0  0  0
    5.9435   18.1592    1.7204 H   0  0  0  0  0  0  0  0  0  0  0  0
    4.3008   18.8813    4.5521 H   0  0  0  0  0  0  0  0  0  0  0  0
    4.6995   20.5416    3.9944 H   0  0  0  0  0  0  0  0  0  0  0  0
    2.9934   19.9796    3.9944 H   0  0  0  0  0  0  0  0  0  0  0  0
    0.7515   16.2382   -2.4971 H   0  0  0  0  0  0  0  0  0  0  0  0
    3.1214   16.2106   -2.9727 H   0  0  0  0  0  0  0  0  0  0  0  0
    3.5209   16.9715   -1.4178 H   0  0  0  0  0  0  0  0  0  0  0  0
    3.8535   14.2036   -2.0468 H   0  0  0  0  0  0  0  0  0  0  0  0
    3.8940   14.8563   -0.4109 H   0  0  0  0  0  0  0  0  0  0  0  0
    0.7442   12.7338   -2.2773 H   0  0  0  0  0  0  0  0  0  0  0  0
    0.9449   14.3690   -2.9931 H   0  0  0  0  0  0  0  0  0  0  0  0
    2.3203   13.2137   -2.9931 H   0  0  0  0  0  0  0  0  0  0  0  0
    2.3755   13.5043    0.9055 H   0  0  0  0  0  0  0  0  0  0  0  0
    3.6117   12.1014   -0.8659 H   0  0  0  0  0  0  0  0  0  0  0  0
    3.0513   11.3544    0.7208 H   0  0  0  0  0  0  0  0  0  0  0  0
    2.6974    9.8955   -1.4439 H   0  0  0  0  0  0  0  0  0  0  0  0
   -0.6450   12.1525   -1.2360 H   0  0  0  0  0  0  0  0  0  0  0  0
   -0.9400   10.1318    1.0708 H   0  0  0  0  0  0  0  0  0  0  0  0
   -2.1088   11.4504    0.6166 H   0  0  0  0  0  0  0  0  0  0  0  0
   -2.8593    9.2253   -0.1617 H   0  0  0  0  0  0  0  0  0  0  0  0
   -2.5383   10.3764   -1.5175 H   0  0  0  0  0  0  0  0  0  0  0  0
   -1.6492    8.2250   -2.1062 H   0  0  0  0  0  0  0  0  0  0  0  0
   -1.0600    8.1660    0.5240 H   0  0  0  0  0  0  0  0  0  0  0  0
   -1.0143   11.0462   -3.0680 H   0  0  0  0  0  0  0  0  0  0  0  0
    0.4663   10.5037   -3.9283 H   0  0  0  0  0  0  0  0  0  0  0  0
   -1.0023    9.4694   -3.9283 H   0  0  0  0  0  0  0  0  0  0  0  0
    1.5105    7.8719   -1.6198 H   0  0  0  0  0  0  0  0  0  0  0  0
    0.5344    7.6197   -3.1065 H   0  0  0  0  0  0  0  0  0  0  0  0
    1.8797    8.8101   -3.1065 H   0  0  0  0  0  0  0  0  0  0  0  0
    0.3973   12.7563    2.7122 H   0  0  0  0  0  0  0  0  0  0  0  0
   -0.1099   11.1503    2.0876 H   0  0  0  0  0  0  0  0  0  0  0  0
    1.6276   11.6062    2.0876 H   0  0  0  0  0  0  0  0  0  0  0  0
   -1.5532   13.4496    0.6246 H   0  0  0  0  0  0  0  0  0  0  0  0
   -0.2476   14.2866    1.6387 H   0  0  0  0  0  0  0  0  0  0  0  0
   -0.7536   14.5861   -1.3350 H   0  0  0  0  0  0  0  0  0  0  0  0
   -0.9502   15.8183   -0.0273 H   0  0  0  0  0  0  0  0  0  0  0  0
    1.1071   15.3769    1.6673 H   0  0  0  0  0  0  0  0  0  0  0  0
    2.6716   15.8420    0.9172 H   0  0  0  0  0  0  0  0  0  0  0  0
    1.2967   16.9980    0.9172 H   0  0  0  0  0  0  0  0  0  0  0  0
  1  2  1  0
  2  3  1  0
  3  4  1  0
  4  5  1  0
  5  6  1  0
  6  7  1  0
  7  8  1  0
  7  9  1  0
  2 10  1  0
 10 11  1  0
 11 12  1  0
 12 13  1  0
 13 14  1  6
 13 15  1  0
 15 16  1  0
 16 17  1  0
 17 18  2  0
 18 19  1  0
 19 20  1  0
 20 21  1  0
 21 22  1  0
 22 23  1  0
 22 24  1  0
 24 25  1  0
 24 26  1  0
 19 27  1  0
 27 28  1  1
 27 29  1  0
 29 30  1  0
 30 31  1  0
 31 32  1  1
  7  5  1  0
 31 10  1  0
 31 13  1  0
 27 15  1  0
 24 18  1  0
  1 33  1  0
  1 34  1  0
  1 35  1  0
  2 36  1  1
  3 37  1  0
  3 38  1  0
  4 39  1  0
  4 40  1  0
  5 41  1  1
  8 42  1  0
  8 43  1  0
  8 44  1  0
  9 45  1  0
  9 46  1  0
  9 47  1  0
 10 48  1  6
 11 49  1  0
 11 50  1  0
 12 51  1  0
 12 52  1  0
 14 53  1  0
 14 54  1  0
 14 55  1  0
 15 56  1  1
 16 57  1  0
 16 58  1  0
 17 59  1  0
 19 60  1  6
 20 61  1  0
 20 62  1  0
 21 63  1  0
 21 64  1  0
 22 65  1  6
 23 66  1  0
 25 67  1  0
 25 68  1  0
 25 69  1  0
 26 70  1  0
 26 71  1  0
 26 72  1  0
 28 73  1  0
 28 74  1  0
 28 75  1  0
 29 76  1  0
 29 77  1  0
 30 78  1  0
 30 79  1  0
 32 80  1  0
 32 81  1  0
 32 82  1  0
M  END
>  <meeko>  (18) 
{"is_sidechain": [false], "intermolecular_energy": 2.731, "internal_energy": -0.839}

$$$$
EPH_relaxed_0001_pdb2pqr_Repair_60_r2_0001_out
     RDKit          3D

 82 86  0  0  0  0  0  0  0  0999 V2000
   -1.9030   14.4850    0.1530 C   0  0  0  0  0  0  0  0  0  0  0  0
   -0.5570   15.1780    0.3800 C   0  0  2  0  0  0  0  0  0  0  0  0
   -0.4040   16.4460   -0.4830 C   0  0  0  0  0  0  0  0  0  0  0  0
    1.0510   16.8760   -0.6930 C   0  0  0  0  0  0  0  0  0  0  0  0
    1.2960   18.2660   -0.1910 C   0  0  2  0  0  0  0  0  0  0  0  0
    2.1090   19.0780   -1.0480 O   0  0  0  0  0  0  0  0  0  0  0  0
    2.6590   18.7710    0.2440 C   0  0  0  0  0  0  0  0  0  0  0  0
    3.8680   17.8900    0.1960 C   0  0  0  0  0  0  0  0  0  0  0  0
    2.7260   19.9480    1.1660 C   0  0  0  0  0  0  0  0  0  0  0  0
    0.5820   14.2080    0.0880 C   0  0  1  0  0  0  0  0  0  0  0  0
    0.7800   13.1610    1.2170 C   0  0  0  0  0  0  0  0  0  0  0  0
    1.2170   11.8410    0.5310 C   0  0  0  0  0  0  0  0  0  0  0  0
    1.5760   12.2540   -0.9150 C   0  0  1  0  0  0  0  0  0  0  0  0
    3.0240   12.8310   -0.8200 C   0  0  0  0  0  0  0  0  0  0  0  0
    1.4720   11.1320   -2.0000 C   0  0  2  0  0  0  0  0  0  0  0  0
    2.4210    9.9380   -1.7960 C   0  0  0  0  0  0  0  0  0  0  0  0
    3.7540   10.0630   -2.4570 C   0  0  0  0  0  0  0  0  0  0  0  0
    4.0720   10.9550   -3.4140 C   0  0  0  0  0  0  0  0  0  0  0  0
    3.0110   11.8970   -3.9960 C   0  0  1  0  0  0  0  0  0  0  0  0
    3.1190   11.9050   -5.5440 C   0  0  0  0  0  0  0  0  0  0  0  0
    4.5260   12.2380   -6.0310 C   0  0  0  0  0  0  0  0  0  0  0  0
    5.5440   11.2440   -5.4770 C   0  0  2  0  0  0  0  0  0  0  0  0
    5.2890    9.9570   -6.0470 O   0  0  0  0  0  0  0  0  0  0  0  0
    5.5210   11.1430   -3.9270 C   0  0  0  0  0  0  0  0  0  0  0  0
    6.0890   12.4470   -3.3120 C   0  0  0  0  0  0  0  0  0  0  0  0
    6.4930   10.0070   -3.5080 C   0  0  0  0  0  0  0  0  0  0  0  0
    1.5230   11.6640   -3.4890 C   0  0  1  0  0  0  0  0  0  0  0  0
    0.8240   10.5850   -4.3710 C   0  0  0  0  0  0  0  0  0  0  0  0
    0.7010   12.9940   -3.6780 C   0  0  0  0  0  0  0  0  0  0  0  0
    0.7480   14.0100   -2.5210 C   0  0  0  0  0  0  0  0  0  0  0  0
    0.4590   13.3280   -1.1810 C   0  0  2  0  0  0  0  0  0  0  0  0
   -0.9990   12.7570   -1.2390 C   0  0  0  0  0  0  0  0  0  0  0  0
   -2.3621   14.2486    1.1243 H   0  0  0  0  0  0  0  0  0  0  0  0
   -2.5682   15.1527   -0.4142 H   0  0  0  0  0  0  0  0  0  0  0  0
   -1.7459   13.5557   -0.4142 H   0  0  0  0  0  0  0  0  0  0  0  0
   -0.5186   15.4901    1.4341 H   0  0  0  0  0  0  0  0  0  0  0  0
   -0.8545   16.2523   -1.4677 H   0  0  0  0  0  0  0  0  0  0  0  0
   -0.9064   17.2635    0.0549 H   0  0  0  0  0  0  0  0  0  0  0  0
    1.7098   16.1805   -0.1524 H   0  0  0  0  0  0  0  0  0  0  0  0
    1.2610   16.8594   -1.7726 H   0  0  0  0  0  0  0  0  0  0  0  0
    0.3109   18.2876    0.2980 H   0  0  0  0  0  0  0  0  0  0  0  0
    4.1911   17.6546    1.2208 H   0  0  0  0  0  0  0  0  0  0  0  0
    3.6218   16.9581   -0.3340 H   0  0  0  0  0  0  0  0  0  0  0  0
    4.6797   18.4098   -0.3340 H   0  0  0  0  0  0  0  0  0  0  0  0
    2.7061   19.5985    2.2088 H   0  0  0  0  0  0  0  0  0  0  0  0
    3.6573   20.5043    0.9834 H   0  0  0  0  0  0  0  0  0  0  0  0
    1.8639   20.6063    0.9834 H   0  0  0  0  0  0  0  0  0  0  0  0
    1.4083   14.9244   -0.0298 H   0  0  0  0  0  0  0  0  0  0  0  0
    1.5585   13.5004    1.9161 H   0  0  0  0  0  0  0  0  0  0  0  0
   -0.1473   13.0194    1.7916 H   0  0  0  0  0  0  0  0  0  0  0  0
    2.0914   11.4096    1.0402 H   0  0  0  0  0  0  0  0  0  0  0  0
    0.4295   11.0736    0.5626 H   0  0  0  0  0  0  0  0  0  0  0  0
    3.3054   12.9431    0.2375 H   0  0  0  0  0  0  0  0  0  0  0  0
    3.7258   12.1438   -1.3153 H   0  0  0  0  0  0  0  0  0  0  0  0
    3.0608   13.8125   -1.3153 H   0  0  0  0  0  0  0  0  0  0  0  0
    0.4578   10.7385   -1.8370 H   0  0  0  0  0  0  0  0  0  0  0  0
    2.5874    9.8168   -0.7154 H   0  0  0  0  0  0  0  0  0  0  0  0
    1.9282    9.0738   -2.2654 H   0  0  0  0  0  0  0  0  0  0  0  0
    4.5429    9.3675   -2.1348 H   0  0  0  0  0  0  0  0  0  0  0  0
    3.2424   12.8970   -3.6003 H   0  0  0  0  0  0  0  0  0  0  0  0
    2.8414   10.9099   -5.9219 H   0  0  0  0  0  0  0  0  0  0  0  0
    2.4418   12.6852   -5.9217 H   0  0  0  0  0  0  0  0  0  0  0  0
    4.5454   12.1985   -7.1301 H   0  0  0  0  0  0  0  0  0  0  0  0
    4.7907   13.2456   -5.6780 H   0  0  0  0  0  0  0  0  0  0  0  0
    6.5445   11.6090   -5.7522 H   0  0  0  0  0  0  0  0  0  0  0  0
    6.1160    9.6440   -6.4490 H   0  0  0  0  0  0  0  0  0  0  0  0
    6.0590   12.3782   -2.2146 H   0  0  0  0  0  0  0  0  0  0  0  0
    7.1290   12.5856   -3.6424 H   0  0  0  0  0  0  0  0  0  0  0  0
    5.4822   13.3029   -3.6424 H   0  0  0  0  0  0  0  0  0  0  0  0
    6.5406    9.9514   -2.4104 H   0  0  0  0  0  0  0  0  0  0  0  0
    6.1311    9.0485   -3.9084 H   0  0  0  0  0  0  0  0  0  0  0  0
    7.4959   10.2163   -3.9084 H   0  0  0  0  0  0  0  0  0  0  0  0
    0.3406    9.8388   -3.7232 H   0  0  0  0  0  0  0  0  0  0  0  0
    0.0653   11.0658   -5.0060 H   0  0  0  0  0  0  0  0  0  0  0  0
    1.5729   10.0891   -5.0060 H   0  0  0  0  0  0  0  0  0  0  0  0
    1.0841   13.4969   -4.5782 H   0  0  0  0  0  0  0  0  0  0  0  0
   -0.3503   12.6763   -3.7395 H   0  0  0  0  0  0  0  0  0  0  0  0
    1.7478   14.4672   -2.4839 H   0  0  0  0  0  0  0  0  0  0  0  0
   -0.0200   14.7777   -2.6968 H   0  0  0  0  0  0  0  0  0  0  0  0
   -1.3759   12.6094   -0.2162 H   0  0  0  0  0  0  0  0  0  0  0  0
   -1.6498   13.4667   -1.7708 H   0  0  0  0  0  0  0  0  0  0  0  0
   -0.9948   11.7941   -1.7708 H   0  0  0  0  0  0  0  0  0  0  0  0
  1  2  1  0
  2  3  1  0
  3  4  1  0
  4  5  1  0
  5  6  1  0
  6  7  1  0
  7  8  1  0
  7  9  1  0
  2 10  1  0
 10 11  1  0
 11 12  1  0
 12 13  1  0
 13 14  1  1
 13 15  1  0
 15 16  1  0
 16 17  1  0
 17 18  2  0
 18 19  1  0
 19 20  1  0
 20 21  1  0
 21 22  1  0
 22 23  1  0
 22 24  1  0
 24 25  1  0
 24 26  1  0
 19 27  1  0
 27 28  1  6
 27 29  1  0
 29 30  1  0
 30 31  1  0
 31 32  1  6
  7  5  1  0
 31 10  1  0
 31 13  1  0
 27 15  1  0
 24 18  1  0
  1 33  1  0
  1 34  1  0
  1 35  1  0
  2 36  1  1
  3 37  1  0
  3 38  1  0
  4 39  1  0
  4 40  1  0
  5 41  1  1
  8 42  1  0
  8 43  1  0
  8 44  1  0
  9 45  1  0
  9 46  1  0
  9 47  1  0
 10 48  1  6
 11 49  1  0
 11 50  1  0
 12 51  1  0
 12 52  1  0
 14 53  1  0
 14 54  1  0
 14 55  1  0
 15 56  1  6
 16 57  1  0
 16 58  1  0
 17 59  1  0
 19 60  1  1
 20 61  1  0
 20 62  1  0
 21 63  1  0
 21 64  1  0
 22 65  1  1
 23 66  1  0
 25 67  1  0
 25 68  1  0
 25 69  1  0
 26 70  1  0
 26 71  1  0
 26 72  1  0
 28 73  1  0
 28 74  1  0
 28 75  1  0
 29 76  1  0
 29 77  1  0
 30 78  1  0
 30 79  1  0
 32 80  1  0
 32 81  1  0
 32 82  1  0
M  END
>  <meeko>  (19) 
{"is_sidechain": [false], "intermolecular_energy": 2.731, "internal_energy": -0.839}

$$$$
