EPH_relaxed_0001_pdb2pqr_Repair_182_r2_0001_out
     RDKit          3D

 82 86  0  0  0  0  0  0  0  0999 V2000
   -1.6970    8.6110   -1.8970 C   0  0  0  0  0  0  0  0  0  0  0  0
   -2.0840    9.1300   -0.5100 C   0  0  2  0  0  0  0  0  0  0  0  0
   -3.5800    9.4940   -0.4220 C   0  0  0  0  0  0  0  0  0  0  0  0
   -4.5010    8.2800   -0.2730 C   0  0  0  0  0  0  0  0  0  0  0  0
   -5.1900    7.9460   -1.5610 C   0  0  2  0  0  0  0  0  0  0  0  0
   -6.3470    8.7440   -1.8450 O   0  0  0  0  0  0  0  0  0  0  0  0
   -6.5800    7.3420   -1.6340 C   0  0  0  0  0  0  0  0  0  0  0  0
   -7.3630    7.0350   -0.3960 C   0  0  0  0  0  0  0  0  0  0  0  0
   -6.9750    6.6020   -2.8740 C   0  0  0  0  0  0  0  0  0  0  0  0
   -1.2310   10.3410   -0.1520 C   0  0  1  0  0  0  0  0  0  0  0  0
   -0.1980   10.0360    0.9660 C   0  0  0  0  0  0  0  0  0  0  0  0
    1.0670   10.8720    0.6460 C   0  0  0  0  0  0  0  0  0  0  0  0
    0.6100   11.8720   -0.4410 C   0  0  1  0  0  0  0  0  0  0  0  0
   -0.1030   13.0180    0.3430 C   0  0  0  0  0  0  0  0  0  0  0  0
    1.7260   12.4260   -1.3850 C   0  0  2  0  0  0  0  0  0  0  0  0
    2.8250   13.2440   -0.6850 C   0  0  0  0  0  0  0  0  0  0  0  0
    2.5670   14.7120   -0.5940 C   0  0  0  0  0  0  0  0  0  0  0  0
    1.6400   15.3880   -1.2980 C   0  0  0  0  0  0  0  0  0  0  0  0
    0.7990   14.6860   -2.3710 C   0  0  1  0  0  0  0  0  0  0  0  0
    0.7670   15.5560   -3.6560 C   0  0  0  0  0  0  0  0  0  0  0  0
    0.2960   16.9810   -3.3850 C   0  0  0  0  0  0  0  0  0  0  0  0
    1.1920   17.6660   -2.3560 C   0  0  2  0  0  0  0  0  0  0  0  0
    2.4930   17.8450   -2.9240 O   0  0  0  0  0  0  0  0  0  0  0  0
    1.3080   16.8760   -1.0230 C   0  0  0  0  0  0  0  0  0  0  0  0
   -0.0380   16.9400   -0.2600 C   0  0  0  0  0  0  0  0  0  0  0  0
    2.3490   17.6010   -0.1280 C   0  0  0  0  0  0  0  0  0  0  0  0
    1.1790   13.1720   -2.6690 C   0  0  1  0  0  0  0  0  0  0  0  0
    2.3120   13.1080   -3.7380 C   0  0  0  0  0  0  0  0  0  0  0  0
   -0.0670   12.4430   -3.2980 C   0  0  0  0  0  0  0  0  0  0  0  0
   -1.0730   11.8130   -2.3160 C   0  0  0  0  0  0  0  0  0  0  0  0
   -0.3540   10.9500   -1.2740 C   0  0  2  0  0  0  0  0  0  0  0  0
    0.3540    9.7760   -2.0310 C   0  0  0  0  0  0  0  0  0  0  0  0
   -1.0425    7.7333   -1.7906 H   0  0  0  0  0  0  0  0  0  0  0  0
   -2.6052    8.3265   -2.4486 H   0  0  0  0  0  0  0  0  0  0  0  0
   -1.1652    9.4002   -2.4486 H   0  0  0  0  0  0  0  0  0  0  0  0
   -1.8994    8.3192    0.2100 H   0  0  0  0  0  0  0  0  0  0  0  0
   -3.7271   10.1504    0.4483 H   0  0  0  0  0  0  0  0  0  0  0  0
   -3.8474    9.9861   -1.3688 H   0  0  0  0  0  0  0  0  0  0  0  0
   -3.9014    7.4145    0.0454 H   0  0  0  0  0  0  0  0  0  0  0  0
   -5.2704    8.5229    0.4747 H   0  0  0  0  0  0  0  0  0  0  0  0
   -4.2351    7.6577   -2.0247 H   0  0  0  0  0  0  0  0  0  0  0  0
   -6.7562    7.2729    0.4901 H   0  0  0  0  0  0  0  0  0  0  0  0
   -8.2820    7.6394   -0.3841 H   0  0  0  0  0  0  0  0  0  0  0  0
   -7.6263    5.9670   -0.3841 H   0  0  0  0  0  0  0  0  0  0  0  0
   -7.4762    5.6630   -2.5966 H   0  0  0  0  0  0  0  0  0  0  0  0
   -7.6618    7.2226   -3.4683 H   0  0  0  0  0  0  0  0  0  0  0  0
   -6.0772    6.3767   -3.4683 H   0  0  0  0  0  0  0  0  0  0  0  0
   -2.0251   11.0477    0.1307 H   0  0  0  0  0  0  0  0  0  0  0  0
   -0.6047   10.3245    1.9465 H   0  0  0  0  0  0  0  0  0  0  0  0
    0.0374    8.9622    1.0040 H   0  0  0  0  0  0  0  0  0  0  0  0
    1.4165   11.4057    1.5421 H   0  0  0  0  0  0  0  0  0  0  0  0
    1.9065   10.2457    0.3098 H   0  0  0  0  0  0  0  0  0  0  0  0
    0.0047   12.8449    1.4239 H   0  0  0  0  0  0  0  0  0  0  0  0
    0.3545   13.9828    0.0788 H   0  0  0  0  0  0  0  0  0  0  0  0
   -1.1707   13.0339    0.0788 H   0  0  0  0  0  0  0  0  0  0  0  0
    2.2158   11.5058   -1.7362 H   0  0  0  0  0  0  0  0  0  0  0  0
    2.9392   12.8549    0.3375 H   0  0  0  0  0  0  0  0  0  0  0  0
    3.7283   13.1314   -1.3026 H   0  0  0  0  0  0  0  0  0  0  0  0
    3.1868   15.2897    0.1075 H   0  0  0  0  0  0  0  0  0  0  0  0
   -0.2150   14.5993   -1.9536 H   0  0  0  0  0  0  0  0  0  0  0  0
    1.7807   15.5944   -4.0813 H   0  0  0  0  0  0  0  0  0  0  0  0
    0.0527   15.0950   -4.3540 H   0  0  0  0  0  0  0  0  0  0  0  0
    0.3231   17.5537   -4.3238 H   0  0  0  0  0  0  0  0  0  0  0  0
   -0.7289   16.9421   -2.9873 H   0  0  0  0  0  0  0  0  0  0  0  0
    0.7304   18.6332   -2.1083 H   0  0  0  0  0  0  0  0  0  0  0  0
    2.5970   18.7900   -3.1280 H   0  0  0  0  0  0  0  0  0  0  0  0
    0.1537   16.9309    0.8231 H   0  0  0  0  0  0  0  0  0  0  0  0
   -0.5693   17.8644   -0.5306 H   0  0  0  0  0  0  0  0  0  0  0  0
   -0.6546   16.0702   -0.5306 H   0  0  0  0  0  0  0  0  0  0  0  0
    2.1042   17.4305    0.9308 H   0  0  0  0  0  0  0  0  0  0  0  0
    3.3535   17.2061   -0.3403 H   0  0  0  0  0  0  0  0  0  0  0  0
    2.3269   18.6801   -0.3403 H   0  0  0  0  0  0  0  0  0  0  0  0
    3.2885   13.0528   -3.2345 H   0  0  0  0  0  0  0  0  0  0  0  0
    2.1728   12.2163   -4.3669 H   0  0  0  0  0  0  0  0  0  0  0  0
    2.2741   14.0097   -4.3669 H   0  0  0  0  0  0  0  0  0  0  0  0
   -0.6123   13.1805   -3.9053 H   0  0  0  0  0  0  0  0  0  0  0  0
    0.3503   11.5972   -3.8641 H   0  0  0  0  0  0  0  0  0  0  0  0
   -1.6239   12.6142   -1.8016 H   0  0  0  0  0  0  0  0  0  0  0  0
   -1.7649   11.1739   -2.8841 H   0  0  0  0  0  0  0  0  0  0  0  0
    0.7786    9.0719   -1.3004 H   0  0  0  0  0  0  0  0  0  0  0  0
   -0.3788    9.2519   -2.6622 H   0  0  0  0  0  0  0  0  0  0  0  0
    1.1594   10.1796   -2.6622 H   0  0  0  0  0  0  0  0  0  0  0  0
  1  2  1  0
  2  3  1  0
  3  4  1  0
  4  5  1  0
  5  6  1  0
  6  7  1  0
  7  8  1  0
  7  9  1  0
  2 10  1  0
 10 11  1  0
 11 12  1  0
 12 13  1  0
 13 14  1  1
 13 15  1  0
 15 16  1  0
 16 17  1  0
 17 18  2  0
 18 19  1  0
 19 20  1  0
 20 21  1  0
 21 22  1  0
 22 23  1  0
 22 24  1  0
 24 25  1  0
 24 26  1  0
 19 27  1  0
 27 28  1  6
 27 29  1  0
 29 30  1  0
 30 31  1  0
 31 32  1  6
  7  5  1  0
 31 10  1  0
 31 13  1  0
 27 15  1  0
 24 18  1  0
  1 33  1  0
  1 34  1  0
  1 35  1  0
  2 36  1  1
  3 37  1  0
  3 38  1  0
  4 39  1  0
  4 40  1  0
  5 41  1  6
  8 42  1  0
  8 43  1  0
  8 44  1  0
  9 45  1  0
  9 46  1  0
  9 47  1  0
 10 48  1  1
 11 49  1  0
 11 50  1  0
 12 51  1  0
 12 52  1  0
 14 53  1  0
 14 54  1  0
 14 55  1  0
 15 56  1  6
 16 57  1  0
 16 58  1  0
 17 59  1  0
 19 60  1  1
 20 61  1  0
 20 62  1  0
 21 63  1  0
 21 64  1  0
 22 65  1  1
 23 66  1  0
 25 67  1  0
 25 68  1  0
 25 69  1  0
 26 70  1  0
 26 71  1  0
 26 72  1  0
 28 73  1  0
 28 74  1  0
 28 75  1  0
 29 76  1  0
 29 77  1  0
 30 78  1  0
 30 79  1  0
 32 80  1  0
 32 81  1  0
 32 82  1  0
M  END
>  <meeko>  (1) 
{"is_sidechain": [false], "intermolecular_energy": 2.731, "internal_energy": -0.839}

$$$$
EPH_relaxed_0001_pdb2pqr_Repair_182_r2_0001_out
     RDKit          3D

 82 86  0  0  0  0  0  0  0  0999 V2000
    2.0960   19.4580   -0.7810 C   0  0  0  0  0  0  0  0  0  0  0  0
    2.4320   18.3090    0.1730 C   0  0  2  0  0  0  0  0  0  0  0  0
    3.8750   17.7980   -0.0180 C   0  0  0  0  0  0  0  0  0  0  0  0
    4.8520   18.3030    1.0470 C   0  0  0  0  0  0  0  0  0  0  0  0
    4.1390   18.9770    2.1800 C   0  0  2  0  0  0  0  0  0  0  0  0
    4.7550   20.1870    2.6400 O   0  0  0  0  0  0  0  0  0  0  0  0
    4.7170   19.0990    3.5780 C   0  0  0  0  0  0  0  0  0  0  0  0
    6.0630   18.5410    3.9170 C   0  0  0  0  0  0  0  0  0  0  0  0
    3.7790   19.3230    4.7220 C   0  0  0  0  0  0  0  0  0  0  0  0
    1.4450   17.1650   -0.0220 C   0  0  1  0  0  0  0  0  0  0  0  0
    0.1060   17.6330   -0.6520 C   0  0  0  0  0  0  0  0  0  0  0  0
   -0.3830   16.4830   -1.5700 C   0  0  0  0  0  0  0  0  0  0  0  0
    0.5030   15.2750   -1.1860 C   0  0  1  0  0  0  0  0  0  0  0  0
   -0.1510   14.6910    0.1050 C   0  0  0  0  0  0  0  0  0  0  0  0
    0.6890   14.1780   -2.2850 C   0  0  2  0  0  0  0  0  0  0  0  0
   -0.6020   13.4620   -2.7180 C   0  0  0  0  0  0  0  0  0  0  0  0
   -0.9390   12.2310   -1.9440 C   0  0  0  0  0  0  0  0  0  0  0  0
   -0.0960   11.5600   -1.1360 C   0  0  0  0  0  0  0  0  0  0  0  0
    1.3760   11.9750   -1.0140 C   0  0  1  0  0  0  0  0  0  0  0  0
    2.2780   10.7170   -1.1160 C   0  0  0  0  0  0  0  0  0  0  0  0
    1.8910    9.6370   -0.1100 C   0  0  0  0  0  0  0  0  0  0  0  0
    0.4390    9.2090   -0.3020 C   0  0  2  0  0  0  0  0  0  0  0  0
    0.3140    8.5510   -1.5660 O   0  0  0  0  0  0  0  0  0  0  0  0
   -0.5640   10.3950   -0.2290 C   0  0  0  0  0  0  0  0  0  0  0  0
   -0.6490   10.9170    1.2260 C   0  0  0  0  0  0  0  0  0  0  0  0
   -1.9750    9.8490   -0.5780 C   0  0  0  0  0  0  0  0  0  0  0  0
    1.8490   13.1450   -1.9800 C   0  0  1  0  0  0  0  0  0  0  0  0
    2.2920   12.5550   -3.3540 C   0  0  0  0  0  0  0  0  0  0  0  0
    3.1210   13.8380   -1.3640 C   0  0  0  0  0  0  0  0  0  0  0  0
    2.8720   14.9940   -0.3760 C   0  0  0  0  0  0  0  0  0  0  0  0
    1.8760   16.0040   -0.9530 C   0  0  2  0  0  0  0  0  0  0  0  0
    2.5160   16.6240   -2.2410 C   0  0  0  0  0  0  0  0  0  0  0  0
    1.8341   20.3536   -0.1985 H   0  0  0  0  0  0  0  0  0  0  0  0
    2.9683   19.6751   -1.4150 H   0  0  0  0  0  0  0  0  0  0  0  0
    1.2442   19.1710   -1.4150 H   0  0  0  0  0  0  0  0  0  0  0  0
    2.3522   18.6977    1.1989 H   0  0  0  0  0  0  0  0  0  0  0  0
    3.8616   16.6986    0.0162 H   0  0  0  0  0  0  0  0  0  0  0  0
    4.2272   18.1832   -0.9863 H   0  0  0  0  0  0  0  0  0  0  0  0
    5.4211   17.4486    1.4421 H   0  0  0  0  0  0  0  0  0  0  0  0
    5.5205   19.0392    0.5768 H   0  0  0  0  0  0  0  0  0  0  0  0
    3.1664   18.6180    1.8124 H   0  0  0  0  0  0  0  0  0  0  0  0
    6.1758   18.4942    5.0102 H   0  0  0  0  0  0  0  0  0  0  0  0
    6.1575   17.5296    3.4950 H   0  0  0  0  0  0  0  0  0  0  0  0
    6.8454   19.1889    3.4950 H   0  0  0  0  0  0  0  0  0  0  0  0
    4.3204   19.1937    5.6708 H   0  0  0  0  0  0  0  0  0  0  0  0
    3.3721   20.3436    4.6681 H   0  0  0  0  0  0  0  0  0  0  0  0
    2.9549   18.5964    4.6681 H   0  0  0  0  0  0  0  0  0  0  0  0
    1.3703   16.8072    1.0155 H   0  0  0  0  0  0  0  0  0  0  0  0
   -0.6354   17.8294    0.1366 H   0  0  0  0  0  0  0  0  0  0  0  0
    0.2422   18.5633   -1.2230 H   0  0  0  0  0  0  0  0  0  0  0  0
   -1.4442   16.2614   -1.3833 H   0  0  0  0  0  0  0  0  0  0  0  0
   -0.3023   16.7375   -2.6371 H   0  0  0  0  0  0  0  0  0  0  0  0
    0.3353   15.1252    0.9910 H   0  0  0  0  0  0  0  0  0  0  0  0
   -1.2228   14.9380    0.1170 H   0  0  0  0  0  0  0  0  0  0  0  0
   -0.0264   13.5981    0.1170 H   0  0  0  0  0  0  0  0  0  0  0  0
    1.0086   14.7689   -3.1560 H   0  0  0  0  0  0  0  0  0  0  0  0
   -1.4363   14.1706   -2.6096 H   0  0  0  0  0  0  0  0  0  0  0  0
   -0.4346   13.1334   -3.7543 H   0  0  0  0  0  0  0  0  0  0  0  0
   -1.9621   11.8388   -2.0418 H   0  0  0  0  0  0  0  0  0  0  0  0
    1.4822   12.4312   -0.0187 H   0  0  0  0  0  0  0  0  0  0  0  0
    2.1904   10.3015   -2.1307 H   0  0  0  0  0  0  0  0  0  0  0  0
    3.3097   11.0267   -0.8933 H   0  0  0  0  0  0  0  0  0  0  0  0
    2.5453    8.7638   -0.2495 H   0  0  0  0  0  0  0  0  0  0  0  0
    2.0058   10.0449    0.9051 H   0  0  0  0  0  0  0  0  0  0  0  0
    0.1840    8.5303    0.5252 H   0  0  0  0  0  0  0  0  0  0  0  0
   -0.6320    8.5070   -1.7830 H   0  0  0  0  0  0  0  0  0  0  0  0
   -0.5125   10.0786    1.9249 H   0  0  0  0  0  0  0  0  0  0  0  0
    0.1390   11.6660    1.3935 H   0  0  0  0  0  0  0  0  0  0  0  0
   -1.6339   11.3773    1.3935 H   0  0  0  0  0  0  0  0  0  0  0  0
   -2.5256    9.6359    0.3501 H   0  0  0  0  0  0  0  0  0  0  0  0
   -2.5236   10.5997   -1.1657 H   0  0  0  0  0  0  0  0  0  0  0  0
   -1.8754    8.9245   -1.1657 H   0  0  0  0  0  0  0  0  0  0  0  0
    2.9448   11.6856   -3.1864 H   0  0  0  0  0  0  0  0  0  0  0  0
    1.4036   12.2423   -3.9224 H   0  0  0  0  0  0  0  0  0  0  0  0
    2.8401   13.3209   -3.9224 H   0  0  0  0  0  0  0  0  0  0  0  0
    3.6971   13.0653   -0.8339 H   0  0  0  0  0  0  0  0  0  0  0  0
    3.6414   14.2961   -2.2180 H   0  0  0  0  0  0  0  0  0  0  0  0
    2.4673   14.5851    0.5615 H   0  0  0  0  0  0  0  0  0  0  0  0
    3.8263   15.5091   -0.1915 H   0  0  0  0  0  0  0  0  0  0  0  0
    3.2784   17.3626   -1.9525 H   0  0  0  0  0  0  0  0  0  0  0  0
    2.9845   15.8274   -2.8376 H   0  0  0  0  0  0  0  0  0  0  0  0
    1.7346   17.1175   -2.8376 H   0  0  0  0  0  0  0  0  0  0  0  0
  1  2  1  0
  2  3  1  0
  3  4  1  0
  4  5  1  0
  5  6  1  0
  6  7  1  0
  7  8  1  0
  7  9  1  0
  2 10  1  0
 10 11  1  0
 11 12  1  0
 12 13  1  0
 13 14  1  1
 13 15  1  0
 15 16  1  0
 16 17  1  0
 17 18  2  0
 18 19  1  0
 19 20  1  0
 20 21  1  0
 21 22  1  0
 22 23  1  0
 22 24  1  0
 24 25  1  0
 24 26  1  0
 19 27  1  0
 27 28  1  6
 27 29  1  0
 29 30  1  0
 30 31  1  0
 31 32  1  6
  7  5  1  0
 31 10  1  0
 31 13  1  0
 27 15  1  0
 24 18  1  0
  1 33  1  0
  1 34  1  0
  1 35  1  0
  2 36  1  1
  3 37  1  0
  3 38  1  0
  4 39  1  0
  4 40  1  0
  5 41  1  1
  8 42  1  0
  8 43  1  0
  8 44  1  0
  9 45  1  0
  9 46  1  0
  9 47  1  0
 10 48  1  1
 11 49  1  0
 11 50  1  0
 12 51  1  0
 12 52  1  0
 14 53  1  0
 14 54  1  0
 14 55  1  0
 15 56  1  6
 16 57  1  0
 16 58  1  0
 17 59  1  0
 19 60  1  1
 20 61  1  0
 20 62  1  0
 21 63  1  0
 21 64  1  0
 22 65  1  1
 23 66  1  0
 25 67  1  0
 25 68  1  0
 25 69  1  0
 26 70  1  0
 26 71  1  0
 26 72  1  0
 28 73  1  0
 28 74  1  0
 28 75  1  0
 29 76  1  0
 29 77  1  0
 30 78  1  0
 30 79  1  0
 32 80  1  0
 32 81  1  0
 32 82  1  0
M  END
>  <meeko>  (2) 
{"is_sidechain": [false], "intermolecular_energy": 2.731, "internal_energy": -0.839}

$$$$
EPH_relaxed_0001_pdb2pqr_Repair_182_r2_0001_out
     RDKit          3D

 82 86  0  0  0  0  0  0  0  0999 V2000
    0.3990   18.3580    0.0080 C   0  0  0  0  0  0  0  0  0  0  0  0
    1.4890   17.3110   -0.2370 C   0  0  2  0  0  0  0  0  0  0  0  0
    2.6870   17.8910   -1.0140 C   0  0  0  0  0  0  0  0  0  0  0  0
    3.9210   18.1440   -0.1440 C   0  0  0  0  0  0  0  0  0  0  0  0
    3.5440   18.6240    1.2250 C   0  0  2  0  0  0  0  0  0  0  0  0
    3.8050   20.0130    1.4660 O   0  0  0  0  0  0  0  0  0  0  0  0
    4.5560   19.0810    2.2590 C   0  0  0  0  0  0  0  0  0  0  0  0
    6.0240   19.0790    1.9680 C   0  0  0  0  0  0  0  0  0  0  0  0
    4.1620   19.0630    3.7030 C   0  0  0  0  0  0  0  0  0  0  0  0
    0.9060   16.1210   -0.9890 C   0  0  1  0  0  0  0  0  0  0  0  0
    0.7770   16.3830   -2.5140 C   0  0  0  0  0  0  0  0  0  0  0  0
    1.0570   15.0340   -3.2250 C   0  0  0  0  0  0  0  0  0  0  0  0
    1.0090   13.9790   -2.0940 C   0  0  1  0  0  0  0  0  0  0  0  0
   -0.5100   13.6940   -1.8770 C   0  0  0  0  0  0  0  0  0  0  0  0
    1.8140   12.6620   -2.3420 C   0  0  2  0  0  0  0  0  0  0  0  0
    1.3370   11.8220   -3.5400 C   0  0  0  0  0  0  0  0  0  0  0  0
    0.2990   10.7960   -3.2260 C   0  0  0  0  0  0  0  0  0  0  0  0
   -0.0250   10.3620   -1.9940 C   0  0  0  0  0  0  0  0  0  0  0  0
    0.7510   10.8430   -0.7610 C   0  0  1  0  0  0  0  0  0  0  0  0
    1.1000    9.6280    0.1380 C   0  0  0  0  0  0  0  0  0  0  0  0
   -0.1280    8.8010    0.5070 C   0  0  0  0  0  0  0  0  0  0  0  0
   -0.8390    8.2930   -0.7450 C   0  0  2  0  0  0  0  0  0  0  0  0
    0.0110    7.3520   -1.4070 O   0  0  0  0  0  0  0  0  0  0  0  0
   -1.2310    9.4280   -1.7310 C   0  0  0  0  0  0  0  0  0  0  0  0
   -2.3770   10.2740   -1.1220 C   0  0  0  0  0  0  0  0  0  0  0  0
   -1.8110    8.7690   -3.0120 C   0  0  0  0  0  0  0  0  0  0  0  0
    2.0100   11.7690   -1.0510 C   0  0  1  0  0  0  0  0  0  0  0  0
    3.2710   10.8880   -1.3060 C   0  0  0  0  0  0  0  0  0  0  0  0
    2.3210   12.6300    0.2300 C   0  0  0  0  0  0  0  0  0  0  0  0
    1.5830   13.9760    0.3590 C   0  0  0  0  0  0  0  0  0  0  0  0
    1.6960   14.7890   -0.9340 C   0  0  2  0  0  0  0  0  0  0  0  0
    3.2110   15.1100   -1.1680 C   0  0  0  0  0  0  0  0  0  0  0  0
    0.2577   18.4938    1.0904 H   0  0  0  0  0  0  0  0  0  0  0  0
    0.7003   19.3139   -0.4452 H   0  0  0  0  0  0  0  0  0  0  0  0
   -0.5440   18.0185   -0.4452 H   0  0  0  0  0  0  0  0  0  0  0  0
    1.8609   16.9838    0.7451 H   0  0  0  0  0  0  0  0  0  0  0  0
    2.9618   17.1816   -1.8085 H   0  0  0  0  0  0  0  0  0  0  0  0
    2.3697   18.8658   -1.4128 H   0  0  0  0  0  0  0  0  0  0  0  0
    4.4890   17.2067   -0.0495 H   0  0  0  0  0  0  0  0  0  0  0  0
    4.5272   18.9247   -0.6267 H   0  0  0  0  0  0  0  0  0  0  0  0
    2.7120   17.9060    1.2732 H   0  0  0  0  0  0  0  0  0  0  0  0
    6.5853   19.0782    2.9140 H   0  0  0  0  0  0  0  0  0  0  0  0
    6.2816   18.1805    1.3881 H   0  0  0  0  0  0  0  0  0  0  0  0
    6.2841   19.9768    1.3881 H   0  0  0  0  0  0  0  0  0  0  0  0
    5.0649   19.1042    4.3300 H   0  0  0  0  0  0  0  0  0  0  0  0
    3.5248   19.9330    3.9201 H   0  0  0  0  0  0  0  0  0  0  0  0
    3.6068   18.1386    3.9201 H   0  0  0  0  0  0  0  0  0  0  0  0
   -0.0493   16.0145   -0.4542 H   0  0  0  0  0  0  0  0  0  0  0  0
   -0.2376   16.7340   -2.7535 H   0  0  0  0  0  0  0  0  0  0  0  0
    1.4856   17.1573   -2.8430 H   0  0  0  0  0  0  0  0  0  0  0  0
    0.2864   14.8269   -3.9822 H   0  0  0  0  0  0  0  0  0  0  0  0
    2.0211   15.0340   -3.7547 H   0  0  0  0  0  0  0  0  0  0  0  0
   -0.7251   13.6536   -0.7990 H   0  0  0  0  0  0  0  0  0  0  0  0
   -1.1034   14.4965   -2.3395 H   0  0  0  0  0  0  0  0  0  0  0  0
   -0.7721   12.7310   -2.3395 H   0  0  0  0  0  0  0  0  0  0  0  0
    2.8081   13.0419   -2.6203 H   0  0  0  0  0  0  0  0  0  0  0  0
    0.9202   12.5082   -4.2919 H   0  0  0  0  0  0  0  0  0  0  0  0
    2.2183   11.2657   -3.8920 H   0  0  0  0  0  0  0  0  0  0  0  0
   -0.2476   10.3574   -4.0739 H   0  0  0  0  0  0  0  0  0  0  0  0
    0.0745   11.5234   -0.2230 H   0  0  0  0  0  0  0  0  0  0  0  0
    1.8103    8.9835   -0.4005 H   0  0  0  0  0  0  0  0  0  0  0  0
    1.5333   10.0169    1.0713 H   0  0  0  0  0  0  0  0  0  0  0  0
    0.1868    7.9410    1.1164 H   0  0  0  0  0  0  0  0  0  0  0  0
   -0.8240    9.4382    1.0723 H   0  0  0  0  0  0  0  0  0  0  0  0
   -1.7788    7.8212   -0.4222 H   0  0  0  0  0  0  0  0  0  0  0  0
   -0.4560    6.4990   -1.4320 H   0  0  0  0  0  0  0  0  0  0  0  0
   -2.3202   10.2321   -0.0243 H   0  0  0  0  0  0  0  0  0  0  0  0
   -2.2788   11.3179   -1.4547 H   0  0  0  0  0  0  0  0  0  0  0  0
   -3.3457    9.8727   -1.4547 H   0  0  0  0  0  0  0  0  0  0  0  0
   -2.5131    7.9712   -2.7282 H   0  0  0  0  0  0  0  0  0  0  0  0
   -2.3396    9.5279   -3.6076 H   0  0  0  0  0  0  0  0  0  0  0  0
   -0.9911    8.3411   -3.6076 H   0  0  0  0  0  0  0  0  0  0  0  0
    3.7066   10.5837   -0.3428 H   0  0  0  0  0  0  0  0  0  0  0  0
    2.9836    9.9931   -1.8775 H   0  0  0  0  0  0  0  0  0  0  0  0
    4.0124   11.4657   -1.8775 H   0  0  0  0  0  0  0  0  0  0  0  0
    2.0618   12.0228    1.1099 H   0  0  0  0  0  0  0  0  0  0  0  0
    3.3860   12.8927    0.1482 H   0  0  0  0  0  0  0  0  0  0  0  0
    0.5209   13.7851    0.5724 H   0  0  0  0  0  0  0  0  0  0  0  0
    2.0425   14.5511    1.1763 H   0  0  0  0  0  0  0  0  0  0  0  0
    3.7173   15.2173   -0.1973 H   0  0  0  0  0  0  0  0  0  0  0  0
    3.6761   14.2905   -1.7355 H   0  0  0  0  0  0  0  0  0  0  0  0
    3.3037   16.0477   -1.7355 H   0  0  0  0  0  0  0  0  0  0  0  0
  1  2  1  0
  2  3  1  0
  3  4  1  0
  4  5  1  0
  5  6  1  0
  6  7  1  0
  7  8  1  0
  7  9  1  0
  2 10  1  0
 10 11  1  0
 11 12  1  0
 12 13  1  0
 13 14  1  1
 13 15  1  0
 15 16  1  0
 16 17  1  0
 17 18  2  0
 18 19  1  0
 19 20  1  0
 20 21  1  0
 21 22  1  0
 22 23  1  0
 22 24  1  0
 24 25  1  0
 24 26  1  0
 19 27  1  0
 27 28  1  6
 27 29  1  0
 29 30  1  0
 30 31  1  0
 31 32  1  6
  7  5  1  0
 31 10  1  0
 31 13  1  0
 27 15  1  0
 24 18  1  0
  1 33  1  0
  1 34  1  0
  1 35  1  0
  2 36  1  1
  3 37  1  0
  3 38  1  0
  4 39  1  0
  4 40  1  0
  5 41  1  1
  8 42  1  0
  8 43  1  0
  8 44  1  0
  9 45  1  0
  9 46  1  0
  9 47  1  0
 10 48  1  1
 11 49  1  0
 11 50  1  0
 12 51  1  0
 12 52  1  0
 14 53  1  0
 14 54  1  0
 14 55  1  0
 15 56  1  6
 16 57  1  0
 16 58  1  0
 17 59  1  0
 19 60  1  1
 20 61  1  0
 20 62  1  0
 21 63  1  0
 21 64  1  0
 22 65  1  1
 23 66  1  0
 25 67  1  0
 25 68  1  0
 25 69  1  0
 26 70  1  0
 26 71  1  0
 26 72  1  0
 28 73  1  0
 28 74  1  0
 28 75  1  0
 29 76  1  0
 29 77  1  0
 30 78  1  0
 30 79  1  0
 32 80  1  0
 32 81  1  0
 32 82  1  0
M  END
>  <meeko>  (3) 
{"is_sidechain": [false], "intermolecular_energy": 2.731, "internal_energy": -0.839}

$$$$
EPH_relaxed_0001_pdb2pqr_Repair_182_r2_0001_out
     RDKit          3D

 82 86  0  0  0  0  0  0  0  0999 V2000
    2.3370   17.9750   -2.7060 C   0  0  0  0  0  0  0  0  0  0  0  0
    1.0310   17.6120   -1.9930 C   0  0  2  0  0  0  0  0  0  0  0  0
    1.1700   17.6750   -0.4590 C   0  0  0  0  0  0  0  0  0  0  0  0
    0.8480   19.0500    0.1320 C   0  0  0  0  0  0  0  0  0  0  0  0
   -0.5880   19.1520    0.5510 C   0  0  2  0  0  0  0  0  0  0  0  0
   -1.4770   18.2670   -0.1430 O   0  0  0  0  0  0  0  0  0  0  0  0
   -1.6890   19.6720   -0.3540 C   0  0  0  0  0  0  0  0  0  0  0  0
   -1.4010   20.1270   -1.7510 C   0  0  0  0  0  0  0  0  0  0  0  0
   -2.9430   20.1940    0.2730 C   0  0  0  0  0  0  0  0  0  0  0  0
    0.5770   16.2210   -2.4190 C   0  0  1  0  0  0  0  0  0  0  0  0
    0.6380   16.0170   -3.9560 C   0  0  0  0  0  0  0  0  0  0  0  0
    1.0370   14.5380   -4.1960 C   0  0  0  0  0  0  0  0  0  0  0  0
    0.8690   13.8600   -2.8160 C   0  0  1  0  0  0  0  0  0  0  0  0
   -0.6580   13.5600   -2.6990 C   0  0  0  0  0  0  0  0  0  0  0  0
    1.7300   12.5790   -2.5660 C   0  0  2  0  0  0  0  0  0  0  0  0
    1.4290   11.3980   -3.5050 C   0  0  0  0  0  0  0  0  0  0  0  0
    0.3840   10.4480   -3.0210 C   0  0  0  0  0  0  0  0  0  0  0  0
   -0.0840   10.3760   -1.7610 C   0  0  0  0  0  0  0  0  0  0  0  0
    0.5160   11.2430   -0.6470 C   0  0  1  0  0  0  0  0  0  0  0  0
    0.7760   10.3670    0.6070 C   0  0  0  0  0  0  0  0  0  0  0  0
   -0.4700    9.6130    1.0620 C   0  0  0  0  0  0  0  0  0  0  0  0
   -1.0030    8.7180   -0.0540 C   0  0  2  0  0  0  0  0  0  0  0  0
   -0.0540    7.6770   -0.3040 O   0  0  0  0  0  0  0  0  0  0  0  0
   -1.2930    9.4890   -1.3720 C   0  0  0  0  0  0  0  0  0  0  0  0
   -2.5260   10.4060   -1.1790 C   0  0  0  0  0  0  0  0  0  0  0  0
   -1.6890    8.4500   -2.4560 C   0  0  0  0  0  0  0  0  0  0  0  0
    1.7800   12.1160   -1.0530 C   0  0  1  0  0  0  0  0  0  0  0  0
    3.0830   11.2760   -0.8880 C   0  0  0  0  0  0  0  0  0  0  0  0
    1.9060   13.3320   -0.0600 C   0  0  0  0  0  0  0  0  0  0  0  0
    1.1270   14.6100   -0.4240 C   0  0  0  0  0  0  0  0  0  0  0  0
    1.3840   15.0130   -1.8790 C   0  0  2  0  0  0  0  0  0  0  0  0
    2.9090   15.3430   -2.0220 C   0  0  0  0  0  0  0  0  0  0  0  0
    3.1148   18.1912   -1.9588 H   0  0  0  0  0  0  0  0  0  0  0  0
    2.6576   17.1319   -3.3356 H   0  0  0  0  0  0  0  0  0  0  0  0
    2.1766   18.8626   -3.3356 H   0  0  0  0  0  0  0  0  0  0  0  0
    0.2754   18.3558   -2.2859 H   0  0  0  0  0  0  0  0  0  0  0  0
    0.4833   16.9377   -0.0175 H   0  0  0  0  0  0  0  0  0  0  0  0
    2.2230   17.4620   -0.2226 H   0  0  0  0  0  0  0  0  0  0  0  0
    1.4883   19.2192    1.0103 H   0  0  0  0  0  0  0  0  0  0  0  0
    1.0332   19.8080   -0.6433 H   0  0  0  0  0  0  0  0  0  0  0  0
   -0.2946   19.4110    1.5790 H   0  0  0  0  0  0  0  0  0  0  0  0
   -0.8129   21.0561   -1.7201 H   0  0  0  0  0  0  0  0  0  0  0  0
   -0.8303   19.3492   -2.2796 H   0  0  0  0  0  0  0  0  0  0  0  0
   -2.3481   20.3100   -2.2796 H   0  0  0  0  0  0  0  0  0  0  0  0
   -2.8491   20.1549    1.3683 H   0  0  0  0  0  0  0  0  0  0  0  0
   -3.1058   21.2346   -0.0441 H   0  0  0  0  0  0  0  0  0  0  0  0
   -3.7961   19.5763   -0.0441 H   0  0  0  0  0  0  0  0  0  0  0  0
   -0.4362   16.2188   -1.9908 H   0  0  0  0  0  0  0  0  0  0  0  0
   -0.3454   16.2215   -4.4045 H   0  0  0  0  0  0  0  0  0  0  0  0
    1.3653   16.7018   -4.4165 H   0  0  0  0  0  0  0  0  0  0  0  0
    0.3742   14.0728   -4.9405 H   0  0  0  0  0  0  0  0  0  0  0  0
    2.0604   14.4401   -4.5872 H   0  0  0  0  0  0  0  0  0  0  0  0
   -0.9405   13.5045   -1.6373 H   0  0  0  0  0  0  0  0  0  0  0  0
   -1.2281   14.3633   -3.1886 H   0  0  0  0  0  0  0  0  0  0  0  0
   -0.8818   12.6007   -3.1886 H   0  0  0  0  0  0  0  0  0  0  0  0
    2.7422   12.9201   -2.8288 H   0  0  0  0  0  0  0  0  0  0  0  0
    1.0952   11.8075   -4.4698 H   0  0  0  0  0  0  0  0  0  0  0  0
    2.3608   10.8171   -3.5712 H   0  0  0  0  0  0  0  0  0  0  0  0
   -0.0393    9.7477   -3.7562 H   0  0  0  0  0  0  0  0  0  0  0  0
   -0.2391   12.0093   -0.4178 H   0  0  0  0  0  0  0  0  0  0  0  0
    1.5634    9.6364    0.3698 H   0  0  0  0  0  0  0  0  0  0  0  0
    1.0787   11.0367    1.4254 H   0  0  0  0  0  0  0  0  0  0  0  0
   -0.2164    8.9905    1.9327 H   0  0  0  0  0  0  0  0  0  0  0  0
   -1.2470   10.3454    1.3265 H   0  0  0  0  0  0  0  0  0  0  0  0
   -1.9644    8.3051    0.2856 H   0  0  0  0  0  0  0  0  0  0  0  0
   -0.2070    6.9760    0.3520 H   0  0  0  0  0  0  0  0  0  0  0  0
   -2.7142   10.5460   -0.1043 H   0  0  0  0  0  0  0  0  0  0  0  0
   -2.3338   11.3824   -1.6478 H   0  0  0  0  0  0  0  0  0  0  0  0
   -3.4058    9.9410   -1.6478 H   0  0  0  0  0  0  0  0  0  0  0  0
   -2.0403    7.5282   -1.9694 H   0  0  0  0  0  0  0  0  0  0  0  0
   -2.4928    8.8628   -3.0833 H   0  0  0  0  0  0  0  0  0  0  0  0
   -0.8143    8.2230   -3.0833 H   0  0  0  0  0  0  0  0  0  0  0  0
    3.2972   11.1379    0.1821 H   0  0  0  0  0  0  0  0  0  0  0  0
    2.9489   10.2938   -1.3648 H   0  0  0  0  0  0  0  0  0  0  0  0
    3.9222   11.8036   -1.3648 H   0  0  0  0  0  0  0  0  0  0  0  0
    1.5510   12.9952    0.9252 H   0  0  0  0  0  0  0  0  0  0  0  0
    2.9665   13.6221   -0.0936 H   0  0  0  0  0  0  0  0  0  0  0  0
    0.0511   14.4272   -0.2859 H   0  0  0  0  0  0  0  0  0  0  0  0
    1.4661   15.4260    0.2311 H   0  0  0  0  0  0  0  0  0  0  0  0
    3.3584   15.4402   -1.0227 H   0  0  0  0  0  0  0  0  0  0  0  0
    3.4096   14.5324   -2.5718 H   0  0  0  0  0  0  0  0  0  0  0  0
    3.0297   16.2880   -2.5718 H   0  0  0  0  0  0  0  0  0  0  0  0
  1  2  1  0
  2  3  1  0
  3  4  1  0
  4  5  1  0
  5  6  1  0
  6  7  1  0
  7  8  1  0
  7  9  1  0
  2 10  1  0
 10 11  1  0
 11 12  1  0
 12 13  1  0
 13 14  1  1
 13 15  1  0
 15 16  1  0
 16 17  1  0
 17 18  2  0
 18 19  1  0
 19 20  1  0
 20 21  1  0
 21 22  1  0
 22 23  1  0
 22 24  1  0
 24 25  1  0
 24 26  1  0
 19 27  1  0
 27 28  1  6
 27 29  1  0
 29 30  1  0
 30 31  1  0
 31 32  1  1
  7  5  1  0
 31 10  1  0
 31 13  1  0
 27 15  1  0
 24 18  1  0
  1 33  1  0
  1 34  1  0
  1 35  1  0
  2 36  1  6
  3 37  1  0
  3 38  1  0
  4 39  1  0
  4 40  1  0
  5 41  1  1
  8 42  1  0
  8 43  1  0
  8 44  1  0
  9 45  1  0
  9 46  1  0
  9 47  1  0
 10 48  1  1
 11 49  1  0
 11 50  1  0
 12 51  1  0
 12 52  1  0
 14 53  1  0
 14 54  1  0
 14 55  1  0
 15 56  1  6
 16 57  1  0
 16 58  1  0
 17 59  1  0
 19 60  1  1
 20 61  1  0
 20 62  1  0
 21 63  1  0
 21 64  1  0
 22 65  1  1
 23 66  1  0
 25 67  1  0
 25 68  1  0
 25 69  1  0
 26 70  1  0
 26 71  1  0
 26 72  1  0
 28 73  1  0
 28 74  1  0
 28 75  1  0
 29 76  1  0
 29 77  1  0
 30 78  1  0
 30 79  1  0
 32 80  1  0
 32 81  1  0
 32 82  1  0
M  END
>  <meeko>  (4) 
{"is_sidechain": [false], "intermolecular_energy": 2.731, "internal_energy": -0.839}

$$$$
EPH_relaxed_0001_pdb2pqr_Repair_182_r2_0001_out
     RDKit          3D

 82 86  0  0  0  0  0  0  0  0999 V2000
   -5.1140    5.8780   -1.8240 C   0  0  0  0  0  0  0  0  0  0  0  0
   -5.4430    7.3730   -1.8380 C   0  0  2  0  0  0  0  0  0  0  0  0
   -5.2300    8.0270   -0.4580 C   0  0  0  0  0  0  0  0  0  0  0  0
   -4.1940    9.1540   -0.4640 C   0  0  0  0  0  0  0  0  0  0  0  0
   -2.8260    8.6480   -0.8090 C   0  0  2  0  0  0  0  0  0  0  0  0
   -1.8060    8.9860    0.1400 O   0  0  0  0  0  0  0  0  0  0  0  0
   -1.6660    9.5550   -1.1720 C   0  0  0  0  0  0  0  0  0  0  0  0
   -1.8200   11.0430   -1.2100 C   0  0  0  0  0  0  0  0  0  0  0  0
   -0.5290    8.9820   -1.9590 C   0  0  0  0  0  0  0  0  0  0  0  0
   -6.8800    7.5850   -2.2990 C   0  0  1  0  0  0  0  0  0  0  0  0
   -7.1860    6.8750   -3.6450 C   0  0  0  0  0  0  0  0  0  0  0  0
   -8.6570    6.3920   -3.5710 C   0  0  0  0  0  0  0  0  0  0  0  0
   -9.2460    7.1200   -2.3400 C   0  0  1  0  0  0  0  0  0  0  0  0
   -9.6080    8.5490   -2.8550 C   0  0  0  0  0  0  0  0  0  0  0  0
  -10.4650    6.4300   -1.6460 C   0  0  2  0  0  0  0  0  0  0  0  0
  -11.7210    6.2880   -2.5240 C   0  0  0  0  0  0  0  0  0  0  0  0
  -12.6830    7.4270   -2.4510 C   0  0  0  0  0  0  0  0  0  0  0  0
  -12.6900    8.3840   -1.5040 C   0  0  0  0  0  0  0  0  0  0  0  0
  -11.7220    8.3250   -0.3160 C   0  0  1  0  0  0  0  0  0  0  0  0
  -12.4960    8.6100    0.9980 C   0  0  0  0  0  0  0  0  0  0  0  0
  -13.2750    9.9210    0.9450 C   0  0  0  0  0  0  0  0  0  0  0  0
  -14.2680    9.9190   -0.2150 C   0  0  2  0  0  0  0  0  0  0  0  0
  -15.2780    8.9390    0.0460 O   0  0  0  0  0  0  0  0  0  0  0  0
  -13.6040    9.6310   -1.5900 C   0  0  0  0  0  0  0  0  0  0  0  0
  -12.7360   10.8420   -2.0120 C   0  0  0  0  0  0  0  0  0  0  0  0
  -14.7320    9.5170   -2.6500 C   0  0  0  0  0  0  0  0  0  0  0  0
  -10.8190    7.0200   -0.2220 C   0  0  1  0  0  0  0  0  0  0  0  0
  -11.5840    5.8990    0.5470 C   0  0  0  0  0  0  0  0  0  0  0  0
   -9.5340    7.3440    0.6280 C   0  0  0  0  0  0  0  0  0  0  0  0
   -8.3220    7.9130   -0.1340 C   0  0  0  0  0  0  0  0  0  0  0  0
   -8.0080    7.0680   -1.3720 C   0  0  2  0  0  0  0  0  0  0  0  0
   -7.6180    5.6310   -0.8850 C   0  0  0  0  0  0  0  0  0  0  0  0
   -5.0372    5.5292   -0.7836 H   0  0  0  0  0  0  0  0  0  0  0  0
   -5.9113    5.3223   -2.3392 H   0  0  0  0  0  0  0  0  0  0  0  0
   -4.1570    5.7083   -2.3392 H   0  0  0  0  0  0  0  0  0  0  0  0
   -4.7516    7.8575   -2.5432 H   0  0  0  0  0  0  0  0  0  0  0  0
   -6.1909    8.4405   -0.1177 H   0  0  0  0  0  0  0  0  0  0  0  0
   -4.8486    7.2436    0.2134 H   0  0  0  0  0  0  0  0  0  0  0  0
   -4.4926    9.9087   -1.2065 H   0  0  0  0  0  0  0  0  0  0  0  0
   -4.1542    9.5884    0.5458 H   0  0  0  0  0  0  0  0  0  0  0  0
   -3.2522    7.7622   -1.3026 H   0  0  0  0  0  0  0  0  0  0  0  0
   -1.8604   11.4338   -0.1826 H   0  0  0  0  0  0  0  0  0  0  0  0
   -0.9630   11.4870   -1.7377 H   0  0  0  0  0  0  0  0  0  0  0  0
   -2.7498   11.3020   -1.7377 H   0  0  0  0  0  0  0  0  0  0  0  0
    0.2365    8.5962   -1.2696 H   0  0  0  0  0  0  0  0  0  0  0  0
   -0.8981    8.1623   -2.5929 H   0  0  0  0  0  0  0  0  0  0  0  0
   -0.0897    9.7664   -2.5929 H   0  0  0  0  0  0  0  0  0  0  0  0
   -6.9007    8.6841   -2.3390 H   0  0  0  0  0  0  0  0  0  0  0  0
   -7.0597    7.5781   -4.4815 H   0  0  0  0  0  0  0  0  0  0  0  0
   -6.5008    6.0307   -3.8111 H   0  0  0  0  0  0  0  0  0  0  0  0
   -9.2032    6.6699   -4.4845 H   0  0  0  0  0  0  0  0  0  0  0  0
   -8.7327    5.2981   -3.4840 H   0  0  0  0  0  0  0  0  0  0  0  0
   -9.7770    9.2161   -1.9969 H   0  0  0  0  0  0  0  0  0  0  0  0
   -8.7804    8.9393   -3.4655 H   0  0  0  0  0  0  0  0  0  0  0  0
  -10.5216    8.4982   -3.4655 H   0  0  0  0  0  0  0  0  0  0  0  0
  -10.0963    5.4063   -1.4843 H   0  0  0  0  0  0  0  0  0  0  0  0
  -11.3948    6.1853   -3.5695 H   0  0  0  0  0  0  0  0  0  0  0  0
  -12.2610    5.4091   -2.1421 H   0  0  0  0  0  0  0  0  0  0  0  0
  -13.4504    7.4897   -3.2366 H   0  0  0  0  0  0  0  0  0  0  0  0
  -10.9786    9.1169   -0.4898 H   0  0  0  0  0  0  0  0  0  0  0  0
  -13.2031    7.7865    1.1765 H   0  0  0  0  0  0  0  0  0  0  0  0
  -11.7579    8.6925    1.8094 H   0  0  0  0  0  0  0  0  0  0  0  0
  -13.8244   10.0518    1.8890 H   0  0  0  0  0  0  0  0  0  0  0  0
  -12.5634   10.7466    0.7967 H   0  0  0  0  0  0  0  0  0  0  0  0
  -14.7002   10.9284   -0.2814 H   0  0  0  0  0  0  0  0  0  0  0  0
  -15.4420    8.9320    1.0040 H   0  0  0  0  0  0  0  0  0  0  0  0
  -12.3658   11.3584   -1.1141 H   0  0  0  0  0  0  0  0  0  0  0  0
  -11.8828   10.4907   -2.6108 H   0  0  0  0  0  0  0  0  0  0  0  0
  -13.3428   11.5371   -2.6108 H   0  0  0  0  0  0  0  0  0  0  0  0
  -15.7032    9.4189   -2.1429 H   0  0  0  0  0  0  0  0  0  0  0  0
  -14.7364   10.4193   -3.2792 H   0  0  0  0  0  0  0  0  0  0  0  0
  -14.5558    8.6321   -3.2792 H   0  0  0  0  0  0  0  0  0  0  0  0
  -11.4756    6.0578    1.6301 H   0  0  0  0  0  0  0  0  0  0  0  0
  -12.6498    5.9306    0.2766 H   0  0  0  0  0  0  0  0  0  0  0  0
  -11.1661    4.9181    0.2766 H   0  0  0  0  0  0  0  0  0  0  0  0
   -9.8192    8.0786    1.3955 H   0  0  0  0  0  0  0  0  0  0  0  0
   -9.1969    6.3735    1.0212 H   0  0  0  0  0  0  0  0  0  0  0  0
   -8.5457    8.9431   -0.4485 H   0  0  0  0  0  0  0  0  0  0  0  0
   -7.4480    7.8960    0.5336 H   0  0  0  0  0  0  0  0  0  0  0  0
   -7.6112    5.6058    0.2147 H   0  0  0  0  0  0  0  0  0  0  0  0
   -8.3513    4.9038   -1.2639 H   0  0  0  0  0  0  0  0  0  0  0  0
   -6.6177    5.3743   -1.2639 H   0  0  0  0  0  0  0  0  0  0  0  0
  1  2  1  0
  2  3  1  0
  3  4  1  0
  4  5  1  0
  5  6  1  0
  6  7  1  0
  7  8  1  0
  7  9  1  0
  2 10  1  0
 10 11  1  0
 11 12  1  0
 12 13  1  0
 13 14  1  6
 13 15  1  0
 15 16  1  0
 16 17  1  0
 17 18  2  0
 18 19  1  0
 19 20  1  0
 20 21  1  0
 21 22  1  0
 22 23  1  0
 22 24  1  0
 24 25  1  0
 24 26  1  0
 19 27  1  0
 27 28  1  1
 27 29  1  0
 29 30  1  0
 30 31  1  0
 31 32  1  1
  7  5  1  0
 31 10  1  0
 31 13  1  0
 27 15  1  0
 24 18  1  0
  1 33  1  0
  1 34  1  0
  1 35  1  0
  2 36  1  6
  3 37  1  0
  3 38  1  0
  4 39  1  0
  4 40  1  0
  5 41  1  6
  8 42  1  0
  8 43  1  0
  8 44  1  0
  9 45  1  0
  9 46  1  0
  9 47  1  0
 10 48  1  6
 11 49  1  0
 11 50  1  0
 12 51  1  0
 12 52  1  0
 14 53  1  0
 14 54  1  0
 14 55  1  0
 15 56  1  1
 16 57  1  0
 16 58  1  0
 17 59  1  0
 19 60  1  6
 20 61  1  0
 20 62  1  0
 21 63  1  0
 21 64  1  0
 22 65  1  6
 23 66  1  0
 25 67  1  0
 25 68  1  0
 25 69  1  0
 26 70  1  0
 26 71  1  0
 26 72  1  0
 28 73  1  0
 28 74  1  0
 28 75  1  0
 29 76  1  0
 29 77  1  0
 30 78  1  0
 30 79  1  0
 32 80  1  0
 32 81  1  0
 32 82  1  0
M  END
>  <meeko>  (5) 
{"is_sidechain": [false], "intermolecular_energy": 2.731, "internal_energy": -0.839}

$$$$
EPH_relaxed_0001_pdb2pqr_Repair_182_r2_0001_out
     RDKit          3D

 82 86  0  0  0  0  0  0  0  0999 V2000
    3.0800   18.5390   -1.6710 C   0  0  0  0  0  0  0  0  0  0  0  0
    2.4280   17.4570   -2.5360 C   0  0  2  0  0  0  0  0  0  0  0  0
    0.9610   17.7910   -2.8760 C   0  0  0  0  0  0  0  0  0  0  0  0
    0.4880   19.1320   -2.3090 C   0  0  0  0  0  0  0  0  0  0  0  0
   -0.7880   18.9880   -1.5370 C   0  0  2  0  0  0  0  0  0  0  0  0
   -1.2530   20.1940   -0.9170 O   0  0  0  0  0  0  0  0  0  0  0  0
   -0.8750   19.1300   -0.0290 C   0  0  0  0  0  0  0  0  0  0  0  0
    0.3370   19.4280    0.7980 C   0  0  0  0  0  0  0  0  0  0  0  0
   -2.0310   18.5010    0.6840 C   0  0  0  0  0  0  0  0  0  0  0  0
    2.5040   16.1100   -1.8280 C   0  0  1  0  0  0  0  0  0  0  0  0
    3.0300   16.2280   -0.3730 C   0  0  0  0  0  0  0  0  0  0  0  0
    2.2830   15.1560    0.4620 C   0  0  0  0  0  0  0  0  0  0  0  0
    1.6070   14.2450   -0.5890 C   0  0  1  0  0  0  0  0  0  0  0  0
    2.7330   13.2740   -1.0620 C   0  0  0  0  0  0  0  0  0  0  0  0
    0.3360   13.4680   -0.1150 C   0  0  2  0  0  0  0  0  0  0  0  0
    0.5730   12.4640    1.0270 C   0  0  0  0  0  0  0  0  0  0  0  0
    0.9160   11.0770    0.5950 C   0  0  0  0  0  0  0  0  0  0  0  0
    0.7520   10.5810   -0.6460 C   0  0  0  0  0  0  0  0  0  0  0  0
    0.0810   11.4140   -1.7450 C   0  0  1  0  0  0  0  0  0  0  0  0
   -0.9690   10.5450   -2.4860 C   0  0  0  0  0  0  0  0  0  0  0  0
   -0.3790    9.2430   -3.0190 C   0  0  0  0  0  0  0  0  0  0  0  0
    0.2280    8.4160   -1.8890 C   0  0  2  0  0  0  0  0  0  0  0  0
   -0.8240    7.9770   -1.0230 O   0  0  0  0  0  0  0  0  0  0  0  0
    1.2930    9.1920   -1.0650 C   0  0  0  0  0  0  0  0  0  0  0  0
    2.5630    9.4040   -1.9250 C   0  0  0  0  0  0  0  0  0  0  0  0
    1.7210    8.2940    0.1280 C   0  0  0  0  0  0  0  0  0  0  0  0
   -0.5040   12.8200   -1.2890 C   0  0  1  0  0  0  0  0  0  0  0  0
   -1.9570   12.6440   -0.7530 C   0  0  0  0  0  0  0  0  0  0  0  0
   -0.6050   13.7660   -2.5440 C   0  0  0  0  0  0  0  0  0  0  0  0
    0.6440   14.5970   -2.8910 C   0  0  0  0  0  0  0  0  0  0  0  0
    1.1820   15.3220   -1.6530 C   0  0  2  0  0  0  0  0  0  0  0  0
    0.0780   16.3230   -1.1680 C   0  0  0  0  0  0  0  0  0  0  0  0
    2.9337   18.2963   -0.6081 H   0  0  0  0  0  0  0  0  0  0  0  0
    4.1566   18.5855   -1.8917 H   0  0  0  0  0  0  0  0  0  0  0  0
    2.6181   19.5126   -1.8917 H   0  0  0  0  0  0  0  0  0  0  0  0
    2.9846   17.4111   -3.4837 H   0  0  0  0  0  0  0  0  0  0  0  0
    0.8562   17.8204   -3.9706 H   0  0  0  0  0  0  0  0  0  0  0  0
    0.3384   17.0097   -2.4157 H   0  0  0  0  0  0  0  0  0  0  0  0
    1.2657   19.5309   -1.6411 H   0  0  0  0  0  0  0  0  0  0  0  0
    0.3039   19.8148   -3.1515 H   0  0  0  0  0  0  0  0  0  0  0  0
   -1.1435   18.2080   -2.2264 H   0  0  0  0  0  0  0  0  0  0  0  0
    0.0775   19.3642    1.8651 H   0  0  0  0  0  0  0  0  0  0  0  0
    1.1264   18.6972    0.5683 H   0  0  0  0  0  0  0  0  0  0  0  0
    0.6975   20.4415    0.5683 H   0  0  0  0  0  0  0  0  0  0  0  0
   -1.8802   18.5830    1.7705 H   0  0  0  0  0  0  0  0  0  0  0  0
   -2.9604   19.0178    0.4027 H   0  0  0  0  0  0  0  0  0  0  0  0
   -2.1019   17.4399    0.4027 H   0  0  0  0  0  0  0  0  0  0  0  0
    3.1712   15.5763   -2.5208 H   0  0  0  0  0  0  0  0  0  0  0  0
    4.1138   16.0416   -0.3459 H   0  0  0  0  0  0  0  0  0  0  0  0
    2.8530   17.2361    0.0301 H   0  0  0  0  0  0  0  0  0  0  0  0
    2.9903   14.5806    1.0774 H   0  0  0  0  0  0  0  0  0  0  0  0
    1.5565   15.6007    1.1580 H   0  0  0  0  0  0  0  0  0  0  0  0
    3.2357   12.8405   -0.1849 H   0  0  0  0  0  0  0  0  0  0  0  0
    2.2920   12.4683   -1.6673 H   0  0  0  0  0  0  0  0  0  0  0  0
    3.4651   13.8286   -1.6673 H   0  0  0  0  0  0  0  0  0  0  0  0
   -0.2828   14.2694    0.3150 H   0  0  0  0  0  0  0  0  0  0  0  0
    1.4004   12.8418    1.6456 H   0  0  0  0  0  0  0  0  0  0  0  0
   -0.3817   12.3871    1.5679 H   0  0  0  0  0  0  0  0  0  0  0  0
    1.3385   10.4030    1.3548 H   0  0  0  0  0  0  0  0  0  0  0  0
    0.8834   11.7031   -2.4397 H   0  0  0  0  0  0  0  0  0  0  0  0
   -1.7832   10.3032   -1.7870 H   0  0  0  0  0  0  0  0  0  0  0  0
   -1.3337   11.1238   -3.3474 H   0  0  0  0  0  0  0  0  0  0  0  0
   -1.1749    8.6594   -3.5047 H   0  0  0  0  0  0  0  0  0  0  0  0
    0.4145    9.4868   -3.7408 H   0  0  0  0  0  0  0  0  0  0  0  0
    0.7480    7.5621   -2.3479 H   0  0  0  0  0  0  0  0  0  0  0  0
   -1.5480    7.6490   -1.5830 H   0  0  0  0  0  0  0  0  0  0  0  0
    3.4319    9.5490   -1.2662 H   0  0  0  0  0  0  0  0  0  0  0  0
    2.7275    8.5209   -2.5599 H   0  0  0  0  0  0  0  0  0  0  0  0
    2.4318   10.2927   -2.5599 H   0  0  0  0  0  0  0  0  0  0  0  0
    1.4793    8.8010    1.0738 H   0  0  0  0  0  0  0  0  0  0  0  0
    1.1826    7.3361    0.0775 H   0  0  0  0  0  0  0  0  0  0  0  0
    2.8041    8.1089    0.0775 H   0  0  0  0  0  0  0  0  0  0  0  0
   -1.9448   12.6455    0.3469 H   0  0  0  0  0  0  0  0  0  0  0  0
   -2.5838   13.4728   -1.1138 H   0  0  0  0  0  0  0  0  0  0  0  0
   -2.3678   11.6895   -1.1138 H   0  0  0  0  0  0  0  0  0  0  0  0
   -0.8392   13.1377   -3.4160 H   0  0  0  0  0  0  0  0  0  0  0  0
   -1.3785   14.5042   -2.2857 H   0  0  0  0  0  0  0  0  0  0  0  0
    1.4239   13.9277   -3.2833 H   0  0  0  0  0  0  0  0  0  0  0  0
    0.3667   15.3487   -3.6447 H   0  0  0  0  0  0  0  0  0  0  0  0
    0.0575   16.3416   -0.0683 H   0  0  0  0  0  0  0  0  0  0  0  0
    0.3041   17.3304   -1.5476 H   0  0  0  0  0  0  0  0  0  0  0  0
   -0.9025   15.9996   -1.5476 H   0  0  0  0  0  0  0  0  0  0  0  0
  1  2  1  0
  2  3  1  0
  3  4  1  0
  4  5  1  0
  5  6  1  0
  6  7  1  0
  7  8  1  0
  7  9  1  0
  2 10  1  0
 10 11  1  0
 11 12  1  0
 12 13  1  0
 13 14  1  6
 13 15  1  0
 15 16  1  0
 16 17  1  0
 17 18  2  0
 18 19  1  0
 19 20  1  0
 20 21  1  0
 21 22  1  0
 22 23  1  0
 22 24  1  0
 24 25  1  0
 24 26  1  0
 19 27  1  0
 27 28  1  1
 27 29  1  0
 29 30  1  0
 30 31  1  0
 31 32  1  1
  7  5  1  0
 31 10  1  0
 31 13  1  0
 27 15  1  0
 24 18  1  0
  1 33  1  0
  1 34  1  0
  1 35  1  0
  2 36  1  6
  3 37  1  0
  3 38  1  0
  4 39  1  0
  4 40  1  0
  5 41  1  6
  8 42  1  0
  8 43  1  0
  8 44  1  0
  9 45  1  0
  9 46  1  0
  9 47  1  0
 10 48  1  6
 11 49  1  0
 11 50  1  0
 12 51  1  0
 12 52  1  0
 14 53  1  0
 14 54  1  0
 14 55  1  0
 15 56  1  1
 16 57  1  0
 16 58  1  0
 17 59  1  0
 19 60  1  6
 20 61  1  0
 20 62  1  0
 21 63  1  0
 21 64  1  0
 22 65  1  6
 23 66  1  0
 25 67  1  0
 25 68  1  0
 25 69  1  0
 26 70  1  0
 26 71  1  0
 26 72  1  0
 28 73  1  0
 28 74  1  0
 28 75  1  0
 29 76  1  0
 29 77  1  0
 30 78  1  0
 30 79  1  0
 32 80  1  0
 32 81  1  0
 32 82  1  0
M  END
>  <meeko>  (6) 
{"is_sidechain": [false], "intermolecular_energy": 2.731, "internal_energy": -0.839}

$$$$
EPH_relaxed_0001_pdb2pqr_Repair_182_r2_0001_out
     RDKit          3D

 82 86  0  0  0  0  0  0  0  0999 V2000
   -0.9460   16.3770   -5.8400 C   0  0  0  0  0  0  0  0  0  0  0  0
    0.1510   15.6860   -6.6550 C   0  0  2  0  0  0  0  0  0  0  0  0
   -0.2420   15.5220   -8.1370 C   0  0  0  0  0  0  0  0  0  0  0  0
    0.4250   16.5400   -9.0660 C   0  0  0  0  0  0  0  0  0  0  0  0
    1.8300   16.1440   -9.4050 C   0  0  2  0  0  0  0  0  0  0  0  0
    2.3330   16.7040  -10.6250 O   0  0  0  0  0  0  0  0  0  0  0  0
    2.1910   15.2750  -10.5950 C   0  0  0  0  0  0  0  0  0  0  0  0
    1.1410   14.7480  -11.5230 C   0  0  0  0  0  0  0  0  0  0  0  0
    3.4950   14.5400  -10.5760 C   0  0  0  0  0  0  0  0  0  0  0  0
    0.4710   14.3250   -6.0470 C   0  0  1  0  0  0  0  0  0  0  0  0
    1.6990   13.6480   -6.7100 C   0  0  0  0  0  0  0  0  0  0  0  0
    2.4370   12.8670   -5.5930 C   0  0  0  0  0  0  0  0  0  0  0  0
    1.4410   12.8440   -4.4100 C   0  0  1  0  0  0  0  0  0  0  0  0
    0.4510   11.6830   -4.7420 C   0  0  0  0  0  0  0  0  0  0  0  0
    2.0630   12.6810   -2.9850 C   0  0  2  0  0  0  0  0  0  0  0  0
    2.8200   11.3620   -2.7500 C   0  0  0  0  0  0  0  0  0  0  0  0
    1.9940   10.2410   -2.2110 C   0  0  0  0  0  0  0  0  0  0  0  0
    0.7730   10.3640   -1.6590 C   0  0  0  0  0  0  0  0  0  0  0  0
    0.1400   11.7460   -1.4470 C   0  0  1  0  0  0  0  0  0  0  0  0
   -0.4520   11.8290   -0.0150 C   0  0  0  0  0  0  0  0  0  0  0  0
   -1.4220   10.6910    0.2840 C   0  0  0  0  0  0  0  0  0  0  0  0
   -0.7400    9.3350    0.1190 C   0  0  2  0  0  0  0  0  0  0  0  0
    0.2620    9.1970    1.1310 O   0  0  0  0  0  0  0  0  0  0  0  0
   -0.0980    9.1400   -1.2830 C   0  0  0  0  0  0  0  0  0  0  0  0
   -1.2110    8.9880   -2.3490 C   0  0  0  0  0  0  0  0  0  0  0  0
    0.6770    7.7940   -1.2700 C   0  0  0  0  0  0  0  0  0  0  0  0
    1.0610   12.9920   -1.8010 C   0  0  1  0  0  0  0  0  0  0  0  0
    1.9340   13.3750   -0.5670 C   0  0  0  0  0  0  0  0  0  0  0  0
    0.1460   14.2380   -2.1020 C   0  0  0  0  0  0  0  0  0  0  0  0
   -0.3390   14.4080   -3.5540 C   0  0  0  0  0  0  0  0  0  0  0  0
    0.8270   14.2850   -4.5400 C   0  0  2  0  0  0  0  0  0  0  0  0
    1.8280   15.4530   -4.2450 C   0  0  0  0  0  0  0  0  0  0  0  0
   -0.7416   16.2483   -4.7668 H   0  0  0  0  0  0  0  0  0  0  0  0
   -0.9635   17.4495   -6.0839 H   0  0  0  0  0  0  0  0  0  0  0  0
   -1.9209   15.9296   -6.0839 H   0  0  0  0  0  0  0  0  0  0  0  0
    1.0434   16.3282   -6.6197 H   0  0  0  0  0  0  0  0  0  0  0  0
    0.0471   14.5121   -8.4634 H   0  0  0  0  0  0  0  0  0  0  0  0
   -1.3272   15.6891   -8.2026 H   0  0  0  0  0  0  0  0  0  0  0  0
   -0.1594   16.6110   -9.9952 H   0  0  0  0  0  0  0  0  0  0  0  0
    0.4579   17.5087   -8.5459 H   0  0  0  0  0  0  0  0  0  0  0  0
    2.0938   16.0819   -8.3389 H   0  0  0  0  0  0  0  0  0  0  0  0
    0.3093   14.3306  -10.9364 H   0  0  0  0  0  0  0  0  0  0  0  0
    0.7682   15.5658  -12.1572 H   0  0  0  0  0  0  0  0  0  0  0  0
    1.5740   13.9604  -12.1572 H   0  0  0  0  0  0  0  0  0  0  0  0
    3.8029   14.3664   -9.5343 H   0  0  0  0  0  0  0  0  0  0  0  0
    3.3791   13.5743  -11.0899 H   0  0  0  0  0  0  0  0  0  0  0  0
    4.2611   15.1392  -11.0899 H   0  0  0  0  0  0  0  0  0  0  0  0
   -0.4887   13.8161   -6.2204 H   0  0  0  0  0  0  0  0  0  0  0  0
    1.3699   12.9577   -7.5007 H   0  0  0  0  0  0  0  0  0  0  0  0
    2.3604   14.3957   -7.1719 H   0  0  0  0  0  0  0  0  0  0  0  0
    2.6709   11.8443   -5.9237 H   0  0  0  0  0  0  0  0  0  0  0  0
    3.3960   13.3327   -5.3220 H   0  0  0  0  0  0  0  0  0  0  0  0
    0.0755   11.2426   -3.8066 H   0  0  0  0  0  0  0  0  0  0  0  0
   -0.3934   12.0770   -5.3266 H   0  0  0  0  0  0  0  0  0  0  0  0
    0.9735   10.9115   -5.3266 H   0  0  0  0  0  0  0  0  0  0  0  0
    2.8286   13.4707   -2.9703 H   0  0  0  0  0  0  0  0  0  0  0  0
    3.2464   11.0387   -3.7111 H   0  0  0  0  0  0  0  0  0  0  0  0
    3.5781   11.5782   -1.9828 H   0  0  0  0  0  0  0  0  0  0  0  0
    2.4198    9.2285   -2.2702 H   0  0  0  0  0  0  0  0  0  0  0  0
   -0.6670   11.8293   -2.1899 H   0  0  0  0  0  0  0  0  0  0  0  0
    0.3736   11.7883    0.7107 H   0  0  0  0  0  0  0  0  0  0  0  0
   -1.0116   12.7730    0.0606 H   0  0  0  0  0  0  0  0  0  0  0  0
   -1.7836   10.7886    1.3183 H   0  0  0  0  0  0  0  0  0  0  0  0
   -2.2616   10.7502   -0.4242 H   0  0  0  0  0  0  0  0  0  0  0  0
   -1.5148    8.5607    0.2197 H   0  0  0  0  0  0  0  0  0  0  0  0
    0.2440    8.2750    1.4390 H   0  0  0  0  0  0  0  0  0  0  0  0
   -2.1818    8.8554   -1.8491 H   0  0  0  0  0  0  0  0  0  0  0  0
   -1.2424    9.8902   -2.9775 H   0  0  0  0  0  0  0  0  0  0  0  0
   -0.9993    8.1104   -2.9775 H   0  0  0  0  0  0  0  0  0  0  0  0
    0.8556    7.4838   -0.2299 H   0  0  0  0  0  0  0  0  0  0  0  0
    0.0838    7.0243   -1.7855 H   0  0  0  0  0  0  0  0  0  0  0  0
    1.6405    7.9206   -1.7855 H   0  0  0  0  0  0  0  0  0  0  0  0
    1.3877   13.1353    0.3572 H   0  0  0  0  0  0  0  0  0  0  0  0
    2.8759   12.8074   -0.5939 H   0  0  0  0  0  0  0  0  0  0  0  0
    2.1542   14.4524   -0.5939 H   0  0  0  0  0  0  0  0  0  0  0  0
   -0.7443   14.1600   -1.4606 H   0  0  0  0  0  0  0  0  0  0  0  0
    0.7799   15.1152   -1.9054 H   0  0  0  0  0  0  0  0  0  0  0  0
   -1.0833   13.6297   -3.7781 H   0  0  0  0  0  0  0  0  0  0  0  0
   -0.7838   15.4084   -3.6602 H   0  0  0  0  0  0  0  0  0  0  0  0
    1.9352   15.5781   -3.1574 H   0  0  0  0  0  0  0  0  0  0  0  0
    2.8079   15.2161   -4.6852 H   0  0  0  0  0  0  0  0  0  0  0  0
    1.4439   16.3850   -4.6852 H   0  0  0  0  0  0  0  0  0  0  0  0
  1  2  1  0
  2  3  1  0
  3  4  1  0
  4  5  1  0
  5  6  1  0
  6  7  1  0
  7  8  1  0
  7  9  1  0
  2 10  1  0
 10 11  1  0
 11 12  1  0
 12 13  1  0
 13 14  1  6
 13 15  1  0
 15 16  1  0
 16 17  1  0
 17 18  2  0
 18 19  1  0
 19 20  1  0
 20 21  1  0
 21 22  1  0
 22 23  1  0
 22 24  1  0
 24 25  1  0
 24 26  1  0
 19 27  1  0
 27 28  1  1
 27 29  1  0
 29 30  1  0
 30 31  1  0
 31 32  1  1
  7  5  1  0
 31 10  1  0
 31 13  1  0
 27 15  1  0
 24 18  1  0
  1 33  1  0
  1 34  1  0
  1 35  1  0
  2 36  1  6
  3 37  1  0
  3 38  1  0
  4 39  1  0
  4 40  1  0
  5 41  1  1
  8 42  1  0
  8 43  1  0
  8 44  1  0
  9 45  1  0
  9 46  1  0
  9 47  1  0
 10 48  1  1
 11 49  1  0
 11 50  1  0
 12 51  1  0
 12 52  1  0
 14 53  1  0
 14 54  1  0
 14 55  1  0
 15 56  1  6
 16 57  1  0
 16 58  1  0
 17 59  1  0
 19 60  1  6
 20 61  1  0
 20 62  1  0
 21 63  1  0
 21 64  1  0
 22 65  1  1
 23 66  1  0
 25 67  1  0
 25 68  1  0
 25 69  1  0
 26 70  1  0
 26 71  1  0
 26 72  1  0
 28 73  1  0
 28 74  1  0
 28 75  1  0
 29 76  1  0
 29 77  1  0
 30 78  1  0
 30 79  1  0
 32 80  1  0
 32 81  1  0
 32 82  1  0
M  END
>  <meeko>  (7) 
{"is_sidechain": [false], "intermolecular_energy": 2.731, "internal_energy": -0.839}

$$$$
EPH_relaxed_0001_pdb2pqr_Repair_182_r2_0001_out
     RDKit          3D

 82 86  0  0  0  0  0  0  0  0999 V2000
   -4.1120    7.3540   -3.6570 C   0  0  0  0  0  0  0  0  0  0  0  0
   -3.7090    7.2210   -2.1860 C   0  0  2  0  0  0  0  0  0  0  0  0
   -4.8650    6.6930   -1.3120 C   0  0  0  0  0  0  0  0  0  0  0  0
   -6.1750    6.4970   -2.0790 C   0  0  0  0  0  0  0  0  0  0  0  0
   -7.3420    6.3410   -1.1510 C   0  0  2  0  0  0  0  0  0  0  0  0
   -8.4510    5.6170   -1.7000 O   0  0  0  0  0  0  0  0  0  0  0  0
   -8.6900    6.9980   -1.3830 C   0  0  0  0  0  0  0  0  0  0  0  0
   -8.9410    7.8620   -2.5800 C   0  0  0  0  0  0  0  0  0  0  0  0
   -9.5990    7.1990   -0.2120 C   0  0  0  0  0  0  0  0  0  0  0  0
   -3.2260    8.5660   -1.6550 C   0  0  1  0  0  0  0  0  0  0  0  0
   -3.8880    8.9470   -0.3040 C   0  0  0  0  0  0  0  0  0  0  0  0
   -2.8180    9.7090    0.5190 C   0  0  0  0  0  0  0  0  0  0  0  0
   -1.6990   10.0310   -0.5000 C   0  0  1  0  0  0  0  0  0  0  0  0
   -2.2000   11.2990   -1.2590 C   0  0  0  0  0  0  0  0  0  0  0  0
   -0.2660   10.2400    0.0910 C   0  0  2  0  0  0  0  0  0  0  0  0
   -0.1260   11.4290    1.0580 C   0  0  0  0  0  0  0  0  0  0  0  0
    0.2510   12.7260    0.4230 C   0  0  0  0  0  0  0  0  0  0  0  0
    0.7450   12.8740   -0.8210 C   0  0  0  0  0  0  0  0  0  0  0  0
    1.0630   11.6520   -1.6920 C   0  0  1  0  0  0  0  0  0  0  0  0
    2.4620   11.8270   -2.3400 C   0  0  0  0  0  0  0  0  0  0  0  0
    2.5920   13.1400   -3.1060 C   0  0  0  0  0  0  0  0  0  0  0  0
    2.3260   14.3340   -2.1920 C   0  0  2  0  0  0  0  0  0  0  0  0
    3.3710   14.4100   -1.2170 O   0  0  0  0  0  0  0  0  0  0  0  0
    0.9480   14.2620   -1.4760 C   0  0  0  0  0  0  0  0  0  0  0  0
   -0.1860   14.4830   -2.5070 C   0  0  0  0  0  0  0  0  0  0  0  0
    0.8660   15.4500   -0.4790 C   0  0  0  0  0  0  0  0  0  0  0  0
    0.8880   10.2360   -0.9920 C   0  0  1  0  0  0  0  0  0  0  0  0
    2.1990    9.8470   -0.2430 C   0  0  0  0  0  0  0  0  0  0  0  0
    0.6660    9.1390   -2.0990 C   0  0  0  0  0  0  0  0  0  0  0  0
   -0.7850    8.8950   -2.5550 C   0  0  0  0  0  0  0  0  0  0  0  0
   -1.7140    8.7090   -1.3510 C   0  0  2  0  0  0  0  0  0  0  0  0
   -1.2480    7.4270   -0.5800 C   0  0  0  0  0  0  0  0  0  0  0  0
   -5.1548    7.6981   -3.7218 H   0  0  0  0  0  0  0  0  0  0  0  0
   -3.4539    8.0826   -4.1530 H   0  0  0  0  0  0  0  0  0  0  0  0
   -4.0169    6.3768   -4.1530 H   0  0  0  0  0  0  0  0  0  0  0  0
   -2.8926    6.4857   -2.1322 H   0  0  0  0  0  0  0  0  0  0  0  0
   -4.5639    5.7248   -0.8855 H   0  0  0  0  0  0  0  0  0  0  0  0
   -5.0555    7.4510   -0.5380 H   0  0  0  0  0  0  0  0  0  0  0  0
   -6.3458    7.3725   -2.7227 H   0  0  0  0  0  0  0  0  0  0  0  0
   -6.0878    5.5786   -2.6782 H   0  0  0  0  0  0  0  0  0  0  0  0
   -6.6738    6.3168   -0.2775 H   0  0  0  0  0  0  0  0  0  0  0  0
   -9.2337    8.8697   -2.2500 H   0  0  0  0  0  0  0  0  0  0  0  0
   -8.0243    7.9261   -3.1847 H   0  0  0  0  0  0  0  0  0  0  0  0
   -9.7493    7.4250   -3.1847 H   0  0  0  0  0  0  0  0  0  0  0  0
   -9.0291    7.0730    0.7204 H   0  0  0  0  0  0  0  0  0  0  0  0
  -10.0242    8.2129   -0.2477 H   0  0  0  0  0  0  0  0  0  0  0  0
  -10.4120    6.4589   -0.2477 H   0  0  0  0  0  0  0  0  0  0  0  0
   -3.5011    9.2092   -2.5039 H   0  0  0  0  0  0  0  0  0  0  0  0
   -4.7617    9.5921   -0.4789 H   0  0  0  0  0  0  0  0  0  0  0  0
   -4.2350    8.0515    0.2323 H   0  0  0  0  0  0  0  0  0  0  0  0
   -3.2381   10.6344    0.9399 H   0  0  0  0  0  0  0  0  0  0  0  0
   -2.4493    9.1196    1.3715 H   0  0  0  0  0  0  0  0  0  0  0  0
   -2.5031   12.0661   -0.5312 H   0  0  0  0  0  0  0  0  0  0  0  0
   -1.3897   11.6924   -1.8904 H   0  0  0  0  0  0  0  0  0  0  0  0
   -3.0603   11.0323   -1.8904 H   0  0  0  0  0  0  0  0  0  0  0  0
   -0.1299    9.3381    0.7058 H   0  0  0  0  0  0  0  0  0  0  0  0
   -1.0907   11.5679    1.5679 H   0  0  0  0  0  0  0  0  0  0  0  0
    0.6990   11.1722    1.7387 H   0  0  0  0  0  0  0  0  0  0  0  0
    0.1137   13.6384    1.0219 H   0  0  0  0  0  0  0  0  0  0  0  0
    0.2897   11.6276   -2.4739 H   0  0  0  0  0  0  0  0  0  0  0  0
    3.2234   11.8049   -1.5464 H   0  0  0  0  0  0  0  0  0  0  0  0
    2.6021   11.0060   -3.0586 H   0  0  0  0  0  0  0  0  0  0  0  0
    3.6103   13.2192   -3.5144 H   0  0  0  0  0  0  0  0  0  0  0  0
    1.8501   13.1475   -3.9181 H   0  0  0  0  0  0  0  0  0  0  0  0
    2.3052   15.2346   -2.8232 H   0  0  0  0  0  0  0  0  0  0  0  0
    3.5950   15.3480   -1.0990 H   0  0  0  0  0  0  0  0  0  0  0  0
   -1.1323   14.6674   -1.9773 H   0  0  0  0  0  0  0  0  0  0  0  0
    0.0562   15.3508   -3.1380 H   0  0  0  0  0  0  0  0  0  0  0  0
   -0.2874   13.5877   -3.1380 H   0  0  0  0  0  0  0  0  0  0  0  0
    0.8925   15.0663    0.5516 H   0  0  0  0  0  0  0  0  0  0  0  0
    1.7197   16.1244   -0.6412 H   0  0  0  0  0  0  0  0  0  0  0  0
   -0.0723   16.0007   -0.6412 H   0  0  0  0  0  0  0  0  0  0  0  0
    2.0297    9.8972    0.8427 H   0  0  0  0  0  0  0  0  0  0  0  0
    2.4906    8.8236   -0.5217 H   0  0  0  0  0  0  0  0  0  0  0  0
    3.0016   10.5457   -0.5217 H   0  0  0  0  0  0  0  0  0  0  0  0
    1.2471    9.4372   -2.9841 H   0  0  0  0  0  0  0  0  0  0  0  0
    0.9843    8.1938   -1.6350 H   0  0  0  0  0  0  0  0  0  0  0  0
   -1.1273    9.7589   -3.1436 H   0  0  0  0  0  0  0  0  0  0  0  0
   -0.8121    7.9793   -3.1638 H   0  0  0  0  0  0  0  0  0  0  0  0
   -1.3133    7.6066    0.5033 H   0  0  0  0  0  0  0  0  0  0  0  0
   -1.8959    6.5804   -0.8510 H   0  0  0  0  0  0  0  0  0  0  0  0
   -0.2077    7.1940   -0.8510 H   0  0  0  0  0  0  0  0  0  0  0  0
  1  2  1  0
  2  3  1  0
  3  4  1  0
  4  5  1  0
  5  6  1  0
  6  7  1  0
  7  8  1  0
  7  9  1  0
  2 10  1  0
 10 11  1  0
 11 12  1  0
 12 13  1  0
 13 14  1  6
 13 15  1  0
 15 16  1  0
 16 17  1  0
 17 18  2  0
 18 19  1  0
 19 20  1  0
 20 21  1  0
 21 22  1  0
 22 23  1  0
 22 24  1  0
 24 25  1  0
 24 26  1  0
 19 27  1  0
 27 28  1  1
 27 29  1  0
 29 30  1  0
 30 31  1  0
 31 32  1  1
  7  5  1  0
 31 10  1  0
 31 13  1  0
 27 15  1  0
 24 18  1  0
  1 33  1  0
  1 34  1  0
  1 35  1  0
  2 36  1  6
  3 37  1  0
  3 38  1  0
  4 39  1  0
  4 40  1  0
  5 41  1  1
  8 42  1  0
  8 43  1  0
  8 44  1  0
  9 45  1  0
  9 46  1  0
  9 47  1  0
 10 48  1  6
 11 49  1  0
 11 50  1  0
 12 51  1  0
 12 52  1  0
 14 53  1  0
 14 54  1  0
 14 55  1  0
 15 56  1  1
 16 57  1  0
 16 58  1  0
 17 59  1  0
 19 60  1  6
 20 61  1  0
 20 62  1  0
 21 63  1  0
 21 64  1  0
 22 65  1  6
 23 66  1  0
 25 67  1  0
 25 68  1  0
 25 69  1  0
 26 70  1  0
 26 71  1  0
 26 72  1  0
 28 73  1  0
 28 74  1  0
 28 75  1  0
 29 76  1  0
 29 77  1  0
 30 78  1  0
 30 79  1  0
 32 80  1  0
 32 81  1  0
 32 82  1  0
M  END
>  <meeko>  (8) 
{"is_sidechain": [false], "intermolecular_energy": 2.731, "internal_energy": -0.839}

$$$$
EPH_relaxed_0001_pdb2pqr_Repair_182_r2_0001_out
     RDKit          3D

 82 86  0  0  0  0  0  0  0  0999 V2000
    2.8830   18.4230   -3.5230 C   0  0  0  0  0  0  0  0  0  0  0  0
    2.2300   18.2690   -2.1470 C   0  0  2  0  0  0  0  0  0  0  0  0
    2.7520   19.3090   -1.1360 C   0  0  0  0  0  0  0  0  0  0  0  0
    2.7170   18.8270    0.3170 C   0  0  0  0  0  0  0  0  0  0  0  0
    4.0520   18.9750    0.9820 C   0  0  2  0  0  0  0  0  0  0  0  0
    4.2100   18.2080    2.1830 O   0  0  0  0  0  0  0  0  0  0  0  0
    4.2430   19.6360    2.3350 C   0  0  0  0  0  0  0  0  0  0  0  0
    3.0850   20.1940    3.1020 C   0  0  0  0  0  0  0  0  0  0  0  0
    5.5960   20.1740    2.6830 C   0  0  0  0  0  0  0  0  0  0  0  0
    2.4670   16.8600   -1.6150 C   0  0  1  0  0  0  0  0  0  0  0  0
    3.1040   16.8560   -0.2000 C   0  0  0  0  0  0  0  0  0  0  0  0
    2.5130   15.6370    0.5540 C   0  0  0  0  0  0  0  0  0  0  0  0
    1.8190   14.7980   -0.5460 C   0  0  1  0  0  0  0  0  0  0  0  0
    2.9710   13.9850   -1.2160 C   0  0  0  0  0  0  0  0  0  0  0  0
    0.6550   13.8680   -0.0730 C   0  0  2  0  0  0  0  0  0  0  0  0
    1.0620   12.7640    0.9170 C   0  0  0  0  0  0  0  0  0  0  0  0
    1.4700   11.4680    0.2970 C   0  0  0  0  0  0  0  0  0  0  0  0
    1.2380   11.1050   -0.9790 C   0  0  0  0  0  0  0  0  0  0  0  0
    0.4150   12.0000   -1.9150 C   0  0  1  0  0  0  0  0  0  0  0  0
   -0.6260   11.1350   -2.6740 C   0  0  0  0  0  0  0  0  0  0  0  0
    0.0120    9.9570   -3.4040 C   0  0  0  0  0  0  0  0  0  0  0  0
    0.7730    9.0600   -2.4300 C   0  0  2  0  0  0  0  0  0  0  0  0
   -0.1660    8.4380   -1.5470 O   0  0  0  0  0  0  0  0  0  0  0  0
    1.8430    9.8230   -1.6020 C   0  0  0  0  0  0  0  0  0  0  0  0
    3.0170   10.2380   -2.5240 C   0  0  0  0  0  0  0  0  0  0  0  0
    2.4370    8.8350   -0.5620 C   0  0  0  0  0  0  0  0  0  0  0  0
   -0.2310   13.2900   -1.2500 C   0  0  1  0  0  0  0  0  0  0  0  0
   -1.6170   12.9320   -0.6310 C   0  0  0  0  0  0  0  0  0  0  0  0
   -0.5100   14.3610   -2.3710 C   0  0  0  0  0  0  0  0  0  0  0  0
    0.6410   15.3280   -2.7090 C   0  0  0  0  0  0  0  0  0  0  0  0
    1.2260   15.9490   -1.4370 C   0  0  2  0  0  0  0  0  0  0  0  0
    0.0970   16.7920   -0.7520 C   0  0  0  0  0  0  0  0  0  0  0  0
    3.9467   18.6739   -3.3981 H   0  0  0  0  0  0  0  0  0  0  0  0
    2.7919   17.4787   -4.0798 H   0  0  0  0  0  0  0  0  0  0  0  0
    2.3796   19.2271   -4.0798 H   0  0  0  0  0  0  0  0  0  0  0  0
    1.1510   18.4435   -2.2712 H   0  0  0  0  0  0  0  0  0  0  0  0
    3.7925   19.5538   -1.3956 H   0  0  0  0  0  0  0  0  0  0  0  0
    2.0864   20.1824   -1.2009 H   0  0  0  0  0  0  0  0  0  0  0  0
    1.9747   19.4199    0.8716 H   0  0  0  0  0  0  0  0  0  0  0  0
    2.4495   17.7600    0.3182 H   0  0  0  0  0  0  0  0  0  0  0  0
    4.5466   19.1248    0.0110 H   0  0  0  0  0  0  0  0  0  0  0  0
    3.2801   20.1000    4.1805 H   0  0  0  0  0  0  0  0  0  0  0  0
    2.9519   21.2551    2.8446 H   0  0  0  0  0  0  0  0  0  0  0  0
    2.1721   19.6369    2.8446 H   0  0  0  0  0  0  0  0  0  0  0  0
    5.7034   20.2167    3.7769 H   0  0  0  0  0  0  0  0  0  0  0  0
    6.3713   19.5157    2.2639 H   0  0  0  0  0  0  0  0  0  0  0  0
    5.7075   21.1849    2.2639 H   0  0  0  0  0  0  0  0  0  0  0  0
    3.1111   16.4661   -2.4150 H   0  0  0  0  0  0  0  0  0  0  0  0
    4.1971   16.7600   -0.2771 H   0  0  0  0  0  0  0  0  0  0  0  0
    2.8866   17.7932    0.3333 H   0  0  0  0  0  0  0  0  0  0  0  0
    3.3111   15.0565    1.0399 H   0  0  0  0  0  0  0  0  0  0  0  0
    1.8176   15.9366    1.3519 H   0  0  0  0  0  0  0  0  0  0  0  0
    3.6052   13.5374   -0.4367 H   0  0  0  0  0  0  0  0  0  0  0  0
    2.5419   13.1886   -1.8417 H   0  0  0  0  0  0  0  0  0  0  0  0
    3.5776   14.6562   -1.8417 H   0  0  0  0  0  0  0  0  0  0  0  0
    0.0180   14.5600    0.4975 H   0  0  0  0  0  0  0  0  0  0  0  0
    1.9084   13.1370    1.5125 H   0  0  0  0  0  0  0  0  0  0  0  0
    0.1644   12.5457    1.5142 H   0  0  0  0  0  0  0  0  0  0  0  0
    2.0047   10.7499    0.9360 H   0  0  0  0  0  0  0  0  0  0  0  0
    1.1306   12.4346   -2.6284 H   0  0  0  0  0  0  0  0  0  0  0  0
   -1.3570   10.7467   -1.9495 H   0  0  0  0  0  0  0  0  0  0  0  0
   -1.1050   11.7756   -3.4291 H   0  0  0  0  0  0  0  0  0  0  0  0
   -0.7765    9.3679   -3.8952 H   0  0  0  0  0  0  0  0  0  0  0  0
    0.7206   10.3474   -4.1493 H   0  0  0  0  0  0  0  0  0  0  0  0
    1.3146    8.3108   -3.0260 H   0  0  0  0  0  0  0  0  0  0  0  0
    0.2570    8.3620   -0.6750 H   0  0  0  0  0  0  0  0  0  0  0  0
    3.8767   10.5419   -1.9087 H   0  0  0  0  0  0  0  0  0  0  0  0
    3.3032    9.3866   -3.1589 H   0  0  0  0  0  0  0  0  0  0  0  0
    2.7046   11.0802   -3.1589 H   0  0  0  0  0  0  0  0  0  0  0  0
    2.2193    9.1970    0.4537 H   0  0  0  0  0  0  0  0  0  0  0  0
    1.9865    7.8412   -0.7014 H   0  0  0  0  0  0  0  0  0  0  0  0
    3.5260    8.7668   -0.7014 H   0  0  0  0  0  0  0  0  0  0  0  0
   -1.5443   12.9508    0.4664 H   0  0  0  0  0  0  0  0  0  0  0  0
   -2.3667   13.6660   -0.9614 H   0  0  0  0  0  0  0  0  0  0  0  0
   -1.9175   11.9268   -0.9614 H   0  0  0  0  0  0  0  0  0  0  0  0
   -0.7706   13.8188   -3.2919 H   0  0  0  0  0  0  0  0  0  0  0  0
   -1.3120   14.9972   -1.9684 H   0  0  0  0  0  0  0  0  0  0  0  0
    1.4323   14.7752   -3.2365 H   0  0  0  0  0  0  0  0  0  0  0  0
    0.2464   16.1349   -3.3441 H   0  0  0  0  0  0  0  0  0  0  0  0
    0.1961   16.7180    0.3410 H   0  0  0  0  0  0  0  0  0  0  0  0
    0.1885   17.8446   -1.0580 H   0  0  0  0  0  0  0  0  0  0  0  0
   -0.8863   16.4053   -1.0580 H   0  0  0  0  0  0  0  0  0  0  0  0
  1  2  1  0
  2  3  1  0
  3  4  1  0
  4  5  1  0
  5  6  1  0
  6  7  1  0
  7  8  1  0
  7  9  1  0
  2 10  1  0
 10 11  1  0
 11 12  1  0
 12 13  1  0
 13 14  1  6
 13 15  1  0
 15 16  1  0
 16 17  1  0
 17 18  2  0
 18 19  1  0
 19 20  1  0
 20 21  1  0
 21 22  1  0
 22 23  1  0
 22 24  1  0
 24 25  1  0
 24 26  1  0
 19 27  1  0
 27 28  1  1
 27 29  1  0
 29 30  1  0
 30 31  1  0
 31 32  1  1
  7  5  1  0
 31 10  1  0
 31 13  1  0
 27 15  1  0
 24 18  1  0
  1 33  1  0
  1 34  1  0
  1 35  1  0
  2 36  1  6
  3 37  1  0
  3 38  1  0
  4 39  1  0
  4 40  1  0
  5 41  1  6
  8 42  1  0
  8 43  1  0
  8 44  1  0
  9 45  1  0
  9 46  1  0
  9 47  1  0
 10 48  1  6
 11 49  1  0
 11 50  1  0
 12 51  1  0
 12 52  1  0
 14 53  1  0
 14 54  1  0
 14 55  1  0
 15 56  1  1
 16 57  1  0
 16 58  1  0
 17 59  1  0
 19 60  1  6
 20 61  1  0
 20 62  1  0
 21 63  1  0
 21 64  1  0
 22 65  1  6
 23 66  1  0
 25 67  1  0
 25 68  1  0
 25 69  1  0
 26 70  1  0
 26 71  1  0
 26 72  1  0
 28 73  1  0
 28 74  1  0
 28 75  1  0
 29 76  1  0
 29 77  1  0
 30 78  1  0
 30 79  1  0
 32 80  1  0
 32 81  1  0
 32 82  1  0
M  END
>  <meeko>  (9) 
{"is_sidechain": [false], "intermolecular_energy": 2.731, "internal_energy": -0.839}

$$$$
EPH_relaxed_0001_pdb2pqr_Repair_182_r2_0001_out
     RDKit          3D

 82 86  0  0  0  0  0  0  0  0999 V2000
    0.4340   10.5030   -3.8870 C   0  0  0  0  0  0  0  0  0  0  0  0
    0.3510   10.1270   -2.4050 C   0  0  2  0  0  0  0  0  0  0  0  0
   -0.9700    9.4110   -2.0600 C   0  0  0  0  0  0  0  0  0  0  0  0
   -1.4840    9.7130   -0.6500 C   0  0  0  0  0  0  0  0  0  0  0  0
   -2.4880    8.6960   -0.1960 C   0  0  2  0  0  0  0  0  0  0  0  0
   -3.2520    8.0980   -1.2510 O   0  0  0  0  0  0  0  0  0  0  0  0
   -3.9880    8.8940   -0.3080 C   0  0  0  0  0  0  0  0  0  0  0  0
   -4.5690   10.1440   -0.8900 C   0  0  0  0  0  0  0  0  0  0  0  0
   -4.8830    8.0950    0.5870 C   0  0  0  0  0  0  0  0  0  0  0  0
    0.5070   11.3750   -1.5440 C   0  0  1  0  0  0  0  0  0  0  0  0
    1.5060   11.1720   -0.3730 C   0  0  0  0  0  0  0  0  0  0  0  0
    2.2350   12.5250   -0.1680 C   0  0  0  0  0  0  0  0  0  0  0  0
    1.4100   13.5420   -0.9910 C   0  0  1  0  0  0  0  0  0  0  0  0
    0.2010   13.9110   -0.0750 C   0  0  0  0  0  0  0  0  0  0  0  0
    2.1730   14.8150   -1.4810 C   0  0  2  0  0  0  0  0  0  0  0  0
    2.7160   15.7220   -0.3620 C   0  0  0  0  0  0  0  0  0  0  0  0
    1.7860   16.7980    0.0930 C   0  0  0  0  0  0  0  0  0  0  0  0
    0.6850   17.2090   -0.5620 C   0  0  0  0  0  0  0  0  0  0  0  0
    0.3320   16.6420   -1.9430 C   0  0  1  0  0  0  0  0  0  0  0  0
   -0.0480   17.8030   -2.8980 C   0  0  0  0  0  0  0  0  0  0  0  0
   -1.1520   18.6900   -2.3320 C   0  0  0  0  0  0  0  0  0  0  0  0
   -0.7410   19.2820   -0.9870 C   0  0  2  0  0  0  0  0  0  0  0  0
    0.3440   20.1910   -1.1960 O   0  0  0  0  0  0  0  0  0  0  0  0
   -0.3270   18.2050    0.0560 C   0  0  0  0  0  0  0  0  0  0  0  0
   -1.5770   17.4110    0.5070 C   0  0  0  0  0  0  0  0  0  0  0  0
    0.2000   18.9410    1.3180 C   0  0  0  0  0  0  0  0  0  0  0  0
    1.4000   15.6520   -2.5790 C   0  0  1  0  0  0  0  0  0  0  0  0
    2.4770   16.4630   -3.3620 C   0  0  0  0  0  0  0  0  0  0  0  0
    0.6820   14.7320   -3.6360 C   0  0  0  0  0  0  0  0  0  0  0  0
    0.0510   13.4290   -3.1090 C   0  0  0  0  0  0  0  0  0  0  0  0
    1.0420   12.6540   -2.2350 C   0  0  2  0  0  0  0  0  0  0  0  0
    2.2590   12.2500   -3.1350 C   0  0  0  0  0  0  0  0  0  0  0  0
    0.6702   11.5732   -3.9811 H   0  0  0  0  0  0  0  0  0  0  0  0
    1.2227    9.9094   -4.3723 H   0  0  0  0  0  0  0  0  0  0  0  0
   -0.5313   10.2966   -4.3723 H   0  0  0  0  0  0  0  0  0  0  0  0
    1.1710    9.4245   -2.1952 H   0  0  0  0  0  0  0  0  0  0  0  0
   -1.7356    9.7272   -2.7838 H   0  0  0  0  0  0  0  0  0  0  0  0
   -0.7708    8.3301   -2.1047 H   0  0  0  0  0  0  0  0  0  0  0  0
   -0.6335    9.7104    0.0476 H   0  0  0  0  0  0  0  0  0  0  0  0
   -1.9762   10.6966   -0.6678 H   0  0  0  0  0  0  0  0  0  0  0  0
   -1.8438    8.4000    0.6451 H   0  0  0  0  0  0  0  0  0  0  0  0
   -4.8814   10.8161   -0.0772 H   0  0  0  0  0  0  0  0  0  0  0  0
   -3.8119   10.6460   -1.5103 H   0  0  0  0  0  0  0  0  0  0  0  0
   -5.4408    9.8889   -1.5103 H   0  0  0  0  0  0  0  0  0  0  0  0
   -4.6396    8.3123    1.6375 H   0  0  0  0  0  0  0  0  0  0  0  0
   -5.9317    8.3628    0.3906 H   0  0  0  0  0  0  0  0  0  0  0  0
   -4.7354    7.0228    0.3906 H   0  0  0  0  0  0  0  0  0  0  0  0
   -0.5402   11.5213   -1.2407 H   0  0  0  0  0  0  0  0  0  0  0  0
    0.9647   10.8908    0.5424 H   0  0  0  0  0  0  0  0  0  0  0  0
    2.2217   10.3678   -0.5990 H   0  0  0  0  0  0  0  0  0  0  0  0
    2.2446   12.8035    0.8961 H   0  0  0  0  0  0  0  0  0  0  0  0
    3.2866   12.4847   -0.4883 H   0  0  0  0  0  0  0  0  0  0  0  0
    0.4991   13.8200    0.9799 H   0  0  0  0  0  0  0  0  0  0  0  0
   -0.1118   14.9455   -0.2797 H   0  0  0  0  0  0  0  0  0  0  0  0
   -0.6362   13.2275   -0.2797 H   0  0  0  0  0  0  0  0  0  0  0  0
    3.0579   14.3843   -1.9724 H   0  0  0  0  0  0  0  0  0  0  0  0
    2.9526   15.0878    0.5051 H   0  0  0  0  0  0  0  0  0  0  0  0
    3.5927   16.2352   -0.7840 H   0  0  0  0  0  0  0  0  0  0  0  0
    2.0211   17.2971    1.0447 H   0  0  0  0  0  0  0  0  0  0  0  0
   -0.5378   15.9863   -1.7896 H   0  0  0  0  0  0  0  0  0  0  0  0
    0.8448   18.4209   -3.0743 H   0  0  0  0  0  0  0  0  0  0  0  0
   -0.4236   17.3577   -3.8311 H   0  0  0  0  0  0  0  0  0  0  0  0
   -1.3540   19.5083   -3.0388 H   0  0  0  0  0  0  0  0  0  0  0  0
   -2.0535   18.0772   -2.1848 H   0  0  0  0  0  0  0  0  0  0  0  0
   -1.6187   19.7993   -0.5722 H   0  0  0  0  0  0  0  0  0  0  0  0
    1.1340   19.6640   -1.4040 H   0  0  0  0  0  0  0  0  0  0  0  0
   -1.6180   17.3849    1.6059 H   0  0  0  0  0  0  0  0  0  0  0  0
   -2.4822   17.9001    0.1178 H   0  0  0  0  0  0  0  0  0  0  0  0
   -1.5190   16.3838    0.1178 H   0  0  0  0  0  0  0  0  0  0  0  0
   -0.1662   18.4296    2.2204 H   0  0  0  0  0  0  0  0  0  0  0  0
    1.3000   18.9345    1.3137 H   0  0  0  0  0  0  0  0  0  0  0  0
   -0.1605   19.9802    1.3137 H   0  0  0  0  0  0  0  0  0  0  0  0
    3.1464   16.9670   -2.6493 H   0  0  0  0  0  0  0  0  0  0  0  0
    3.0625   15.7796   -3.9946 H   0  0  0  0  0  0  0  0  0  0  0  0
    1.9820   17.2146   -3.9946 H   0  0  0  0  0  0  0  0  0  0  0  0
   -0.1187   15.3242   -4.1030 H   0  0  0  0  0  0  0  0  0  0  0  0
    1.4776   14.4087   -4.3234 H   0  0  0  0  0  0  0  0  0  0  0  0
   -0.8389   13.6762   -2.5115 H   0  0  0  0  0  0  0  0  0  0  0  0
   -0.2247   12.8003   -3.9685 H   0  0  0  0  0  0  0  0  0  0  0  0
    3.1093   11.9677   -2.4968 H   0  0  0  0  0  0  0  0  0  0  0  0
    1.9781   11.3969   -3.7701 H   0  0  0  0  0  0  0  0  0  0  0  0
    2.5441   13.1017   -3.7701 H   0  0  0  0  0  0  0  0  0  0  0  0
  1  2  1  0
  2  3  1  0
  3  4  1  0
  4  5  1  0
  5  6  1  0
  6  7  1  0
  7  8  1  0
  7  9  1  0
  2 10  1  0
 10 11  1  0
 11 12  1  0
 12 13  1  0
 13 14  1  1
 13 15  1  0
 15 16  1  0
 16 17  1  0
 17 18  2  0
 18 19  1  0
 19 20  1  0
 20 21  1  0
 21 22  1  0
 22 23  1  0
 22 24  1  0
 24 25  1  0
 24 26  1  0
 19 27  1  0
 27 28  1  6
 27 29  1  0
 29 30  1  0
 30 31  1  0
 31 32  1  6
  7  5  1  0
 31 10  1  0
 31 13  1  0
 27 15  1  0
 24 18  1  0
  1 33  1  0
  1 34  1  0
  1 35  1  0
  2 36  1  1
  3 37  1  0
  3 38  1  0
  4 39  1  0
  4 40  1  0
  5 41  1  1
  8 42  1  0
  8 43  1  0
  8 44  1  0
  9 45  1  0
  9 46  1  0
  9 47  1  0
 10 48  1  1
 11 49  1  0
 11 50  1  0
 12 51  1  0
 12 52  1  0
 14 53  1  0
 14 54  1  0
 14 55  1  0
 15 56  1  6
 16 57  1  0
 16 58  1  0
 17 59  1  0
 19 60  1  1
 20 61  1  0
 20 62  1  0
 21 63  1  0
 21 64  1  0
 22 65  1  1
 23 66  1  0
 25 67  1  0
 25 68  1  0
 25 69  1  0
 26 70  1  0
 26 71  1  0
 26 72  1  0
 28 73  1  0
 28 74  1  0
 28 75  1  0
 29 76  1  0
 29 77  1  0
 30 78  1  0
 30 79  1  0
 32 80  1  0
 32 81  1  0
 32 82  1  0
M  END
>  <meeko>  (10) 
{"is_sidechain": [false], "intermolecular_energy": 2.731, "internal_energy": -0.839}

$$$$
EPH_relaxed_0001_pdb2pqr_Repair_182_r2_0001_out
     RDKit          3D

 82 86  0  0  0  0  0  0  0  0999 V2000
   -2.2490    7.7630   -2.0750 C   0  0  0  0  0  0  0  0  0  0  0  0
   -2.5210    8.5020   -0.7610 C   0  0  2  0  0  0  0  0  0  0  0  0
   -4.0260    8.5770   -0.4380 C   0  0  0  0  0  0  0  0  0  0  0  0
   -4.7720    7.2600   -0.6710 C   0  0  0  0  0  0  0  0  0  0  0  0
   -5.6850    7.3430   -1.8570 C   0  0  2  0  0  0  0  0  0  0  0  0
   -6.5390    8.4940   -1.8750 O   0  0  0  0  0  0  0  0  0  0  0  0
   -7.1950    7.2210   -1.7600 C   0  0  0  0  0  0  0  0  0  0  0  0
   -7.8770    7.0040   -0.4470 C   0  0  0  0  0  0  0  0  0  0  0  0
   -7.9600    6.8240   -2.9840 C   0  0  0  0  0  0  0  0  0  0  0  0
   -1.9310    9.9060   -0.8240 C   0  0  1  0  0  0  0  0  0  0  0  0
   -1.4600   10.4190    0.5630 C   0  0  0  0  0  0  0  0  0  0  0  0
   -0.2000   11.2870    0.3160 C   0  0  0  0  0  0  0  0  0  0  0  0
   -0.1810   11.5190   -1.2130 C   0  0  1  0  0  0  0  0  0  0  0  0
   -1.1880   12.6870   -1.4550 C   0  0  0  0  0  0  0  0  0  0  0  0
    1.2160   11.8200   -1.8490 C   0  0  2  0  0  0  0  0  0  0  0  0
    1.8940   13.1090   -1.3540 C   0  0  0  0  0  0  0  0  0  0  0  0
    1.5830   14.3370   -2.1440 C   0  0  0  0  0  0  0  0  0  0  0  0
    1.0240   14.3590   -3.3690 C   0  0  0  0  0  0  0  0  0  0  0  0
    0.7350   13.0560   -4.1250 C   0  0  1  0  0  0  0  0  0  0  0  0
    1.2270   13.1880   -5.5900 C   0  0  0  0  0  0  0  0  0  0  0  0
    0.6490   14.4120   -6.2940 C   0  0  0  0  0  0  0  0  0  0  0  0
    1.0070   15.6920   -5.5430 C   0  0  2  0  0  0  0  0  0  0  0  0
    2.4210   15.8950   -5.6260 O   0  0  0  0  0  0  0  0  0  0  0  0
    0.5690   15.6710   -4.0520 C   0  0  0  0  0  0  0  0  0  0  0  0
   -0.9750   15.7560   -3.9630 C   0  0  0  0  0  0  0  0  0  0  0  0
    1.1140   16.9580   -3.3760 C   0  0  0  0  0  0  0  0  0  0  0  0
    1.2440   11.7210   -3.4280 C   0  0  1  0  0  0  0  0  0  0  0  0
    2.7240   11.4420   -3.8310 C   0  0  0  0  0  0  0  0  0  0  0  0
    0.4010   10.5060   -3.9670 C   0  0  0  0  0  0  0  0  0  0  0  0
   -0.9090   10.1850   -3.2230 C   0  0  0  0  0  0  0  0  0  0  0  0
   -0.6770   10.1120   -1.7110 C   0  0  2  0  0  0  0  0  0  0  0  0
    0.3150    8.9320   -1.4350 C   0  0  0  0  0  0  0  0  0  0  0  0
   -1.8766    6.7513   -1.8564 H   0  0  0  0  0  0  0  0  0  0  0  0
   -3.1804    7.6933   -2.6561 H   0  0  0  0  0  0  0  0  0  0  0  0
   -1.4947    8.3138   -2.6561 H   0  0  0  0  0  0  0  0  0  0  0  0
   -2.0387    7.9314    0.0463 H   0  0  0  0  0  0  0  0  0  0  0  0
   -4.1407    8.8588    0.6191 H   0  0  0  0  0  0  0  0  0  0  0  0
   -4.4646    9.3200   -1.1204 H   0  0  0  0  0  0  0  0  0  0  0  0
   -4.0373    6.4594   -0.8419 H   0  0  0  0  0  0  0  0  0  0  0  0
   -5.3836    7.0499    0.2189 H   0  0  0  0  0  0  0  0  0  0  0  0
   -4.9432    6.8387   -2.4938 H   0  0  0  0  0  0  0  0  0  0  0  0
   -7.1765    7.2269    0.3713 H   0  0  0  0  0  0  0  0  0  0  0  0
   -8.7504    7.6686   -0.3732 H   0  0  0  0  0  0  0  0  0  0  0  0
   -8.2058    5.9569   -0.3732 H   0  0  0  0  0  0  0  0  0  0  0  0
   -8.9000    6.3362   -2.6867 H   0  0  0  0  0  0  0  0  0  0  0  0
   -8.1848    7.7192   -3.5823 H   0  0  0  0  0  0  0  0  0  0  0  0
   -7.3573    6.1249   -3.5823 H   0  0  0  0  0  0  0  0  0  0  0  0
   -2.7879   10.4465   -1.2523 H   0  0  0  0  0  0  0  0  0  0  0  0
   -2.2505   11.0238    1.0313 H   0  0  0  0  0  0  0  0  0  0  0  0
   -1.2349    9.5802    1.2381 H   0  0  0  0  0  0  0  0  0  0  0  0
   -0.2760   12.2439    0.8532 H   0  0  0  0  0  0  0  0  0  0  0  0
    0.7189   10.8012    0.6761 H   0  0  0  0  0  0  0  0  0  0  0  0
   -1.5295   13.0831   -0.4873 H   0  0  0  0  0  0  0  0  0  0  0  0
   -0.6918   13.4869   -2.0241 H   0  0  0  0  0  0  0  0  0  0  0  0
   -2.0523   12.3140   -2.0241 H   0  0  0  0  0  0  0  0  0  0  0  0
    1.8325   10.9931   -1.4667 H   0  0  0  0  0  0  0  0  0  0  0  0
    1.5757   13.2832   -0.3156 H   0  0  0  0  0  0  0  0  0  0  0  0
    2.9763   12.9441   -1.4613 H   0  0  0  0  0  0  0  0  0  0  0  0
    1.8315   15.3061   -1.6867 H   0  0  0  0  0  0  0  0  0  0  0  0
   -0.3577   12.9306   -4.1075 H   0  0  0  0  0  0  0  0  0  0  0  0
    2.3241   13.2681   -5.5875 H   0  0  0  0  0  0  0  0  0  0  0  0
    0.8870   12.2967   -6.1377 H   0  0  0  0  0  0  0  0  0  0  0  0
    1.0569   14.4669   -7.3141 H   0  0  0  0  0  0  0  0  0  0  0  0
   -0.4464   14.3162   -6.3229 H   0  0  0  0  0  0  0  0  0  0  0  0
    0.4582   16.5179   -6.0192 H   0  0  0  0  0  0  0  0  0  0  0  0
    2.8540   15.0710   -5.3430 H   0  0  0  0  0  0  0  0  0  0  0  0
   -1.2810   15.7728   -2.9066 H   0  0  0  0  0  0  0  0  0  0  0  0
   -1.3209   16.6745   -4.4596 H   0  0  0  0  0  0  0  0  0  0  0  0
   -1.4196   14.8810   -4.4596 H   0  0  0  0  0  0  0  0  0  0  0  0
    1.0666   16.8461   -2.2827 H   0  0  0  0  0  0  0  0  0  0  0  0
    2.1578   17.1196   -3.6832 H   0  0  0  0  0  0  0  0  0  0  0  0
    0.5037   17.8201   -3.6832 H   0  0  0  0  0  0  0  0  0  0  0  0
    3.3355   11.3267   -2.9239 H   0  0  0  0  0  0  0  0  0  0  0  0
    2.7740   10.5186   -4.4267 H   0  0  0  0  0  0  0  0  0  0  0  0
    3.1067   12.2838   -4.4267 H   0  0  0  0  0  0  0  0  0  0  0  0
    0.1448   10.7178   -5.0156 H   0  0  0  0  0  0  0  0  0  0  0  0
    1.0404    9.6234   -3.8178 H   0  0  0  0  0  0  0  0  0  0  0  0
   -1.6463   10.9730   -3.4363 H   0  0  0  0  0  0  0  0  0  0  0  0
   -1.2784    9.2082   -3.5687 H   0  0  0  0  0  0  0  0  0  0  0  0
    0.4296    8.7956   -0.3495 H   0  0  0  0  0  0  0  0  0  0  0  0
   -0.0814    8.0078   -1.8808 H   0  0  0  0  0  0  0  0  0  0  0  0
    1.2935    9.1637   -1.8808 H   0  0  0  0  0  0  0  0  0  0  0  0
  1  2  1  0
  2  3  1  0
  3  4  1  0
  4  5  1  0
  5  6  1  0
  6  7  1  0
  7  8  1  0
  7  9  1  0
  2 10  1  0
 10 11  1  0
 11 12  1  0
 12 13  1  0
 13 14  1  1
 13 15  1  0
 15 16  1  0
 16 17  1  0
 17 18  2  0
 18 19  1  0
 19 20  1  0
 20 21  1  0
 21 22  1  0
 22 23  1  0
 22 24  1  0
 24 25  1  0
 24 26  1  0
 19 27  1  0
 27 28  1  6
 27 29  1  0
 29 30  1  0
 30 31  1  0
 31 32  1  6
  7  5  1  0
 31 10  1  0
 31 13  1  0
 27 15  1  0
 24 18  1  0
  1 33  1  0
  1 34  1  0
  1 35  1  0
  2 36  1  1
  3 37  1  0
  3 38  1  0
  4 39  1  0
  4 40  1  0
  5 41  1  6
  8 42  1  0
  8 43  1  0
  8 44  1  0
  9 45  1  0
  9 46  1  0
  9 47  1  0
 10 48  1  6
 11 49  1  0
 11 50  1  0
 12 51  1  0
 12 52  1  0
 14 53  1  0
 14 54  1  0
 14 55  1  0
 15 56  1  1
 16 57  1  0
 16 58  1  0
 17 59  1  0
 19 60  1  6
 20 61  1  0
 20 62  1  0
 21 63  1  0
 21 64  1  0
 22 65  1  6
 23 66  1  0
 25 67  1  0
 25 68  1  0
 25 69  1  0
 26 70  1  0
 26 71  1  0
 26 72  1  0
 28 73  1  0
 28 74  1  0
 28 75  1  0
 29 76  1  0
 29 77  1  0
 30 78  1  0
 30 79  1  0
 32 80  1  0
 32 81  1  0
 32 82  1  0
M  END
>  <meeko>  (11) 
{"is_sidechain": [false], "intermolecular_energy": 2.731, "internal_energy": -0.839}

$$$$
EPH_relaxed_0001_pdb2pqr_Repair_182_r2_0001_out
     RDKit          3D

 82 86  0  0  0  0  0  0  0  0999 V2000
    1.9250   11.0080   -5.2010 C   0  0  0  0  0  0  0  0  0  0  0  0
    1.3300   10.8320   -3.8010 C   0  0  2  0  0  0  0  0  0  0  0  0
    0.2370    9.7440   -3.7670 C   0  0  0  0  0  0  0  0  0  0  0  0
    0.3780    8.7670   -2.5960 C   0  0  0  0  0  0  0  0  0  0  0  0
   -0.3370    9.2610   -1.3740 C   0  0  2  0  0  0  0  0  0  0  0  0
   -0.6850    8.2390   -0.4310 O   0  0  0  0  0  0  0  0  0  0  0  0
   -1.7820    8.9240   -1.0570 C   0  0  0  0  0  0  0  0  0  0  0  0
   -2.6000    8.0610   -1.9660 C   0  0  0  0  0  0  0  0  0  0  0  0
   -2.5390    9.8230   -0.1310 C   0  0  0  0  0  0  0  0  0  0  0  0
    0.7610   12.1570   -3.3080 C   0  0  1  0  0  0  0  0  0  0  0  0
   -0.7270   12.0460   -2.8810 C   0  0  0  0  0  0  0  0  0  0  0  0
   -0.9210   13.0090   -1.6820 C   0  0  0  0  0  0  0  0  0  0  0  0
    0.3570   13.8790   -1.6690 C   0  0  1  0  0  0  0  0  0  0  0  0
    0.1070   14.9750   -2.7520 C   0  0  0  0  0  0  0  0  0  0  0  0
    0.7530   14.5070   -0.2930 C   0  0  2  0  0  0  0  0  0  0  0  0
   -0.2730   15.4930    0.2930 C   0  0  0  0  0  0  0  0  0  0  0  0
   -0.0790   16.9210   -0.0960 C   0  0  0  0  0  0  0  0  0  0  0  0
    1.0360   17.4370   -0.6480 C   0  0  0  0  0  0  0  0  0  0  0  0
    2.2890   16.5750   -0.8440 C   0  0  1  0  0  0  0  0  0  0  0  0
    3.5370   17.3550   -0.3530 C   0  0  0  0  0  0  0  0  0  0  0  0
    3.6640   18.7270   -1.0090 C   0  0  0  0  0  0  0  0  0  0  0  0
    2.4230   19.5760   -0.7430 C   0  0  2  0  0  0  0  0  0  0  0  0
    2.3620   19.8770    0.6540 O   0  0  0  0  0  0  0  0  0  0  0  0
    1.1020   18.8870   -1.1880 C   0  0  0  0  0  0  0  0  0  0  0  0
    1.0380   18.8330   -2.7340 C   0  0  0  0  0  0  0  0  0  0  0  0
   -0.0800   19.7850   -0.7350 C   0  0  0  0  0  0  0  0  0  0  0  0
    2.2180   15.1020   -0.2490 C   0  0  1  0  0  0  0  0  0  0  0  0
    2.6500   15.1120    1.2490 C   0  0  0  0  0  0  0  0  0  0  0  0
    3.2570   14.1920   -1.0050 C   0  0  0  0  0  0  0  0  0  0  0  0
    2.7690   13.5040   -2.2940 C   0  0  0  0  0  0  0  0  0  0  0  0
    1.4280   12.7990   -2.0660 C   0  0  2  0  0  0  0  0  0  0  0  0
    1.6540   11.6760   -0.9980 C   0  0  0  0  0  0  0  0  0  0  0  0
    2.9767   11.3191   -5.1160 H   0  0  0  0  0  0  0  0  0  0  0  0
    1.8676   10.0544   -5.7463 H   0  0  0  0  0  0  0  0  0  0  0  0
    1.3581   11.7769   -5.7463 H   0  0  0  0  0  0  0  0  0  0  0  0
    2.1421   10.5051   -3.1349 H   0  0  0  0  0  0  0  0  0  0  0  0
   -0.7428   10.2381   -3.6911 H   0  0  0  0  0  0  0  0  0  0  0  0
    0.3396    9.1559   -4.6909 H   0  0  0  0  0  0  0  0  0  0  0  0
   -0.0462    7.7953   -2.8891 H   0  0  0  0  0  0  0  0  0  0  0  0
    1.4469    8.6729   -2.3540 H   0  0  0  0  0  0  0  0  0  0  0  0
    0.2060   10.2168   -1.4132 H   0  0  0  0  0  0  0  0  0  0  0  0
   -3.2337    7.3925   -1.3648 H   0  0  0  0  0  0  0  0  0  0  0  0
   -3.2356    8.6960   -2.6006 H   0  0  0  0  0  0  0  0  0  0  0  0
   -1.9319    7.4603   -2.6006 H   0  0  0  0  0  0  0  0  0  0  0  0
   -2.3111    9.5523    0.9105 H   0  0  0  0  0  0  0  0  0  0  0  0
   -2.2442   10.8673   -0.3114 H   0  0  0  0  0  0  0  0  0  0  0  0
   -3.6182    9.7103   -0.3114 H   0  0  0  0  0  0  0  0  0  0  0  0
    0.9437   12.7784   -4.1971 H   0  0  0  0  0  0  0  0  0  0  0  0
   -1.3830   12.3405   -3.7134 H   0  0  0  0  0  0  0  0  0  0  0  0
   -0.9822   11.0127   -2.6031 H   0  0  0  0  0  0  0  0  0  0  0  0
   -1.8146   13.6339   -1.8266 H   0  0  0  0  0  0  0  0  0  0  0  0
   -1.0683   12.4704   -0.7343 H   0  0  0  0  0  0  0  0  0  0  0  0
   -0.1117   15.9340   -2.2595 H   0  0  0  0  0  0  0  0  0  0  0  0
    1.0039   15.0814   -3.3798 H   0  0  0  0  0  0  0  0  0  0  0  0
   -0.7474   14.6820   -3.3798 H   0  0  0  0  0  0  0  0  0  0  0  0
    0.7443   13.6339    0.3761 H   0  0  0  0  0  0  0  0  0  0  0  0
   -1.2733   15.1821   -0.0427 H   0  0  0  0  0  0  0  0  0  0  0  0
   -0.1430   15.4545    1.3846 H   0  0  0  0  0  0  0  0  0  0  0  0
   -0.9174   17.6101    0.0833 H   0  0  0  0  0  0  0  0  0  0  0  0
    2.3648   16.3918   -1.9260 H   0  0  0  0  0  0  0  0  0  0  0  0
    3.4625   17.4902    0.7361 H   0  0  0  0  0  0  0  0  0  0  0  0
    4.4267   16.7694   -0.6279 H   0  0  0  0  0  0  0  0  0  0  0  0
    4.5463   19.2412   -0.6002 H   0  0  0  0  0  0  0  0  0  0  0  0
    3.7684   18.5885   -2.0952 H   0  0  0  0  0  0  0  0  0  0  0  0
    2.5154   20.4931   -1.3433 H   0  0  0  0  0  0  0  0  0  0  0  0
    1.4250   19.8840    0.9130 H   0  0  0  0  0  0  0  0  0  0  0  0
    0.2314   18.1524   -3.0440 H   0  0  0  0  0  0  0  0  0  0  0  0
    0.8394   19.8406   -3.1282 H   0  0  0  0  0  0  0  0  0  0  0  0
    1.9978   18.4677   -3.1282 H   0  0  0  0  0  0  0  0  0  0  0  0
   -0.1182   19.8140    0.3640 H   0  0  0  0  0  0  0  0  0  0  0  0
    0.0636   20.8039   -1.1239 H   0  0  0  0  0  0  0  0  0  0  0  0
   -1.0231   19.3736   -1.1239 H   0  0  0  0  0  0  0  0  0  0  0  0
    1.7554   15.0913    1.8887 H   0  0  0  0  0  0  0  0  0  0  0  0
    3.2705   14.2280    1.4576 H   0  0  0  0  0  0  0  0  0  0  0  0
    3.2289   16.0238    1.4576 H   0  0  0  0  0  0  0  0  0  0  0  0
    4.1197   14.8211   -1.2697 H   0  0  0  0  0  0  0  0  0  0  0  0
    3.4816   13.3712   -0.3079 H   0  0  0  0  0  0  0  0  0  0  0  0
    2.6477   14.2615   -3.0823 H   0  0  0  0  0  0  0  0  0  0  0  0
    3.5139   12.7520   -2.5935 H   0  0  0  0  0  0  0  0  0  0  0  0
    1.5674   12.1064    0.0106 H   0  0  0  0  0  0  0  0  0  0  0  0
    0.8962   10.8892   -1.1272 H   0  0  0  0  0  0  0  0  0  0  0  0
    2.6572   11.2436   -1.1272 H   0  0  0  0  0  0  0  0  0  0  0  0
  1  2  1  0
  2  3  1  0
  3  4  1  0
  4  5  1  0
  5  6  1  0
  6  7  1  0
  7  8  1  0
  7  9  1  0
  2 10  1  0
 10 11  1  0
 11 12  1  0
 12 13  1  0
 13 14  1  6
 13 15  1  0
 15 16  1  0
 16 17  1  0
 17 18  2  0
 18 19  1  0
 19 20  1  0
 20 21  1  0
 21 22  1  0
 22 23  1  0
 22 24  1  0
 24 25  1  0
 24 26  1  0
 19 27  1  0
 27 28  1  1
 27 29  1  0
 29 30  1  0
 30 31  1  0
 31 32  1  1
  7  5  1  0
 31 10  1  0
 31 13  1  0
 27 15  1  0
 24 18  1  0
  1 33  1  0
  1 34  1  0
  1 35  1  0
  2 36  1  1
  3 37  1  0
  3 38  1  0
  4 39  1  0
  4 40  1  0
  5 41  1  1
  8 42  1  0
  8 43  1  0
  8 44  1  0
  9 45  1  0
  9 46  1  0
  9 47  1  0
 10 48  1  6
 11 49  1  0
 11 50  1  0
 12 51  1  0
 12 52  1  0
 14 53  1  0
 14 54  1  0
 14 55  1  0
 15 56  1  1
 16 57  1  0
 16 58  1  0
 17 59  1  0
 19 60  1  6
 20 61  1  0
 20 62  1  0
 21 63  1  0
 21 64  1  0
 22 65  1  6
 23 66  1  0
 25 67  1  0
 25 68  1  0
 25 69  1  0
 26 70  1  0
 26 71  1  0
 26 72  1  0
 28 73  1  0
 28 74  1  0
 28 75  1  0
 29 76  1  0
 29 77  1  0
 30 78  1  0
 30 79  1  0
 32 80  1  0
 32 81  1  0
 32 82  1  0
M  END
>  <meeko>  (12) 
{"is_sidechain": [false], "intermolecular_energy": 2.731, "internal_energy": -0.839}

$$$$
EPH_relaxed_0001_pdb2pqr_Repair_182_r2_0001_out
     RDKit          3D

 82 86  0  0  0  0  0  0  0  0999 V2000
    0.9740   14.9740   -2.6870 C   0  0  0  0  0  0  0  0  0  0  0  0
    1.2050   14.3020   -4.0430 C   0  0  2  0  0  0  0  0  0  0  0  0
    0.4650   15.0280   -5.1850 C   0  0  0  0  0  0  0  0  0  0  0  0
    0.9270   14.6080   -6.5830 C   0  0  0  0  0  0  0  0  0  0  0  0
    0.7640   15.7170   -7.5770 C   0  0  2  0  0  0  0  0  0  0  0  0
    0.4060   15.2900   -8.8980 O   0  0  0  0  0  0  0  0  0  0  0  0
    1.6890   15.9210   -8.7620 C   0  0  0  0  0  0  0  0  0  0  0  0
    2.8470   15.0080   -9.0150 C   0  0  0  0  0  0  0  0  0  0  0  0
    1.7610   17.2800   -9.3880 C   0  0  0  0  0  0  0  0  0  0  0  0
    0.7650   12.8440   -3.9820 C   0  0  1  0  0  0  0  0  0  0  0  0
    1.8980   11.8610   -4.3810 C   0  0  0  0  0  0  0  0  0  0  0  0
    1.7210   10.5950   -3.5040 C   0  0  0  0  0  0  0  0  0  0  0  0
    0.3150   10.7490   -2.8760 C   0  0  1  0  0  0  0  0  0  0  0  0
   -0.6740   10.2730   -3.9850 C   0  0  0  0  0  0  0  0  0  0  0  0
    0.0750    9.9960   -1.5270 C   0  0  2  0  0  0  0  0  0  0  0  0
    0.1890    8.4640   -1.6050 C   0  0  0  0  0  0  0  0  0  0  0  0
   -1.0830    7.7450   -1.9090 C   0  0  0  0  0  0  0  0  0  0  0  0
   -2.3190    8.2730   -1.8300 C   0  0  0  0  0  0  0  0  0  0  0  0
   -2.5330    9.6990   -1.3070 C   0  0  1  0  0  0  0  0  0  0  0  0
   -3.6980    9.7050   -0.2820 C   0  0  0  0  0  0  0  0  0  0  0  0
   -4.9760    9.0920   -0.8460 C   0  0  0  0  0  0  0  0  0  0  0  0
   -4.7370    7.6550   -1.3020 C   0  0  2  0  0  0  0  0  0  0  0  0
   -4.4560    6.8480   -0.1540 O   0  0  0  0  0  0  0  0  0  0  0  0
   -3.5780    7.5230   -2.3300 C   0  0  0  0  0  0  0  0  0  0  0  0
   -4.0090    8.1430   -3.6820 C   0  0  0  0  0  0  0  0  0  0  0  0
   -3.3480    6.0110   -2.5990 C   0  0  0  0  0  0  0  0  0  0  0  0
   -1.2370   10.4400   -0.7620 C   0  0  1  0  0  0  0  0  0  0  0  0
   -1.0170   10.0900    0.7410 C   0  0  0  0  0  0  0  0  0  0  0  0
   -1.4700   11.9960   -0.8260 C   0  0  0  0  0  0  0  0  0  0  0  0
   -1.1010   12.7000   -2.1450 C   0  0  0  0  0  0  0  0  0  0  0  0
    0.3030   12.2980   -2.6080 C   0  0  2  0  0  0  0  0  0  0  0  0
    1.3220   12.7840   -1.5220 C   0  0  0  0  0  0  0  0  0  0  0  0
    1.2173   14.2662   -1.8808 H   0  0  0  0  0  0  0  0  0  0  0  0
    1.6187   15.8613   -2.6029 H   0  0  0  0  0  0  0  0  0  0  0  0
   -0.0800   15.2773   -2.6029 H   0  0  0  0  0  0  0  0  0  0  0  0
    2.2820   14.3570   -4.2601 H   0  0  0  0  0  0  0  0  0  0  0  0
   -0.6098   14.8118   -5.0950 H   0  0  0  0  0  0  0  0  0  0  0  0
    0.6877   16.1003   -5.0816 H   0  0  0  0  0  0  0  0  0  0  0  0
    1.9886   14.3236   -6.5371 H   0  0  0  0  0  0  0  0  0  0  0  0
    0.3057   13.7610   -6.9094 H   0  0  0  0  0  0  0  0  0  0  0  0
    0.4095   16.4003   -6.7913 H   0  0  0  0  0  0  0  0  0  0  0  0
    3.2685   14.6757   -8.0548 H   0  0  0  0  0  0  0  0  0  0  0  0
    2.5059   14.1332   -9.5881 H   0  0  0  0  0  0  0  0  0  0  0  0
    3.6180   15.5438   -9.5881 H   0  0  0  0  0  0  0  0  0  0  0  0
    1.8016   18.0454   -8.5990 H   0  0  0  0  0  0  0  0  0  0  0  0
    2.6640   17.3487  -10.0123 H   0  0  0  0  0  0  0  0  0  0  0  0
    0.8703   17.4438  -10.0123 H   0  0  0  0  0  0  0  0  0  0  0  0
   -0.0856   12.8785   -4.6786 H   0  0  0  0  0  0  0  0  0  0  0  0
    1.8144   11.5988   -5.4460 H   0  0  0  0  0  0  0  0  0  0  0  0
    2.8878   12.3147   -4.2246 H   0  0  0  0  0  0  0  0  0  0  0  0
    1.7736    9.6853   -4.1201 H   0  0  0  0  0  0  0  0  0  0  0  0
    2.5098   10.5008   -2.7431 H   0  0  0  0  0  0  0  0  0  0  0  0
   -1.5706    9.8415   -3.5161 H   0  0  0  0  0  0  0  0  0  0  0  0
   -0.9638   11.1303   -4.6104 H   0  0  0  0  0  0  0  0  0  0  0  0
   -0.1848    9.5117   -4.6104 H   0  0  0  0  0  0  0  0  0  0  0  0
    0.9282   10.3275   -0.9170 H   0  0  0  0  0  0  0  0  0  0  0  0
    0.9158    8.2169   -2.3928 H   0  0  0  0  0  0  0  0  0  0  0  0
    0.4954    8.1301   -0.6027 H   0  0  0  0  0  0  0  0  0  0  0  0
   -1.0040    6.6942   -2.2245 H   0  0  0  0  0  0  0  0  0  0  0  0
   -2.8031   10.3068   -2.1832 H   0  0  0  0  0  0  0  0  0  0  0  0
   -3.3916    9.1290    0.6036 H   0  0  0  0  0  0  0  0  0  0  0  0
   -3.9141   10.7532   -0.0280 H   0  0  0  0  0  0  0  0  0  0  0  0
   -5.7524    9.0979   -0.0668 H   0  0  0  0  0  0  0  0  0  0  0  0
   -5.2973    9.6868   -1.7138 H   0  0  0  0  0  0  0  0  0  0  0  0
   -5.6497    7.3149   -1.8131 H   0  0  0  0  0  0  0  0  0  0  0  0
   -3.9350    6.0830   -0.4520 H   0  0  0  0  0  0  0  0  0  0  0  0
   -4.6279    9.0333   -3.4964 H   0  0  0  0  0  0  0  0  0  0  0  0
   -3.1152    8.4307   -4.2550 H   0  0  0  0  0  0  0  0  0  0  0  0
   -4.5901    7.4054   -4.2550 H   0  0  0  0  0  0  0  0  0  0  0  0
   -3.2667    5.4764   -1.6411 H   0  0  0  0  0  0  0  0  0  0  0  0
   -4.1951    5.6077   -3.1732 H   0  0  0  0  0  0  0  0  0  0  0  0
   -2.4193    5.8779   -3.1732 H   0  0  0  0  0  0  0  0  0  0  0  0
   -1.4974   10.8543    1.3696 H   0  0  0  0  0  0  0  0  0  0  0  0
   -1.4596    9.1064    0.9570 H   0  0  0  0  0  0  0  0  0  0  0  0
    0.0612   10.0623    0.9570 H   0  0  0  0  0  0  0  0  0  0  0  0
   -2.5380   12.1805   -0.6378 H   0  0  0  0  0  0  0  0  0  0  0  0
   -0.7891   12.4201   -0.0733 H   0  0  0  0  0  0  0  0  0  0  0  0
   -1.8296   12.4179   -2.9193 H   0  0  0  0  0  0  0  0  0  0  0  0
   -1.1171   13.7872   -1.9783 H   0  0  0  0  0  0  0  0  0  0  0  0
    0.9116   12.5882   -0.5204 H   0  0  0  0  0  0  0  0  0  0  0  0
    2.2716   12.2418   -1.6415 H   0  0  0  0  0  0  0  0  0  0  0  0
    1.4984   13.8632   -1.6415 H   0  0  0  0  0  0  0  0  0  0  0  0
  1  2  1  0
  2  3  1  0
  3  4  1  0
  4  5  1  0
  5  6  1  0
  6  7  1  0
  7  8  1  0
  7  9  1  0
  2 10  1  0
 10 11  1  0
 11 12  1  0
 12 13  1  0
 13 14  1  6
 13 15  1  0
 15 16  1  0
 16 17  1  0
 17 18  2  0
 18 19  1  0
 19 20  1  0
 20 21  1  0
 21 22  1  0
 22 23  1  0
 22 24  1  0
 24 25  1  0
 24 26  1  0
 19 27  1  0
 27 28  1  1
 27 29  1  0
 29 30  1  0
 30 31  1  0
 31 32  1  1
  7  5  1  0
 31 10  1  0
 31 13  1  0
 27 15  1  0
 24 18  1  0
  1 33  1  0
  1 34  1  0
  1 35  1  0
  2 36  1  6
  3 37  1  0
  3 38  1  0
  4 39  1  0
  4 40  1  0
  5 41  1  1
  8 42  1  0
  8 43  1  0
  8 44  1  0
  9 45  1  0
  9 46  1  0
  9 47  1  0
 10 48  1  6
 11 49  1  0
 11 50  1  0
 12 51  1  0
 12 52  1  0
 14 53  1  0
 14 54  1  0
 14 55  1  0
 15 56  1  1
 16 57  1  0
 16 58  1  0
 17 59  1  0
 19 60  1  6
 20 61  1  0
 20 62  1  0
 21 63  1  0
 21 64  1  0
 22 65  1  6
 23 66  1  0
 25 67  1  0
 25 68  1  0
 25 69  1  0
 26 70  1  0
 26 71  1  0
 26 72  1  0
 28 73  1  0
 28 74  1  0
 28 75  1  0
 29 76  1  0
 29 77  1  0
 30 78  1  0
 30 79  1  0
 32 80  1  0
 32 81  1  0
 32 82  1  0
M  END
>  <meeko>  (13) 
{"is_sidechain": [false], "intermolecular_energy": 2.731, "internal_energy": -0.839}

$$$$
EPH_relaxed_0001_pdb2pqr_Repair_182_r2_0001_out
     RDKit          3D

 82 86  0  0  0  0  0  0  0  0999 V2000
   -0.1220    9.3340   -4.2140 C   0  0  0  0  0  0  0  0  0  0  0  0
    0.0820    9.5490   -2.7110 C   0  0  2  0  0  0  0  0  0  0  0  0
   -0.6840    8.5120   -1.8670 C   0  0  0  0  0  0  0  0  0  0  0  0
   -2.2040    8.5790   -2.0390 C   0  0  0  0  0  0  0  0  0  0  0  0
   -2.7500    7.3240   -2.6490 C   0  0  2  0  0  0  0  0  0  0  0  0
   -3.7770    7.5310   -3.6270 O   0  0  0  0  0  0  0  0  0  0  0  0
   -4.1700    6.8370   -2.4330 C   0  0  0  0  0  0  0  0  0  0  0  0
   -5.1330    7.5970   -1.5760 C   0  0  0  0  0  0  0  0  0  0  0  0
   -4.4700    5.3860   -2.6490 C   0  0  0  0  0  0  0  0  0  0  0  0
   -0.3520   10.9580   -2.3250 C   0  0  1  0  0  0  0  0  0  0  0  0
   -1.5700   10.9660   -1.3630 C   0  0  0  0  0  0  0  0  0  0  0  0
   -1.3740   12.1670   -0.4030 C   0  0  0  0  0  0  0  0  0  0  0  0
   -0.2390   12.9990   -1.0450 C   0  0  1  0  0  0  0  0  0  0  0  0
   -0.9400   13.8410   -2.1570 C   0  0  0  0  0  0  0  0  0  0  0  0
    0.5910   13.9010   -0.0740 C   0  0  2  0  0  0  0  0  0  0  0  0
   -0.2110   15.0060    0.6350 C   0  0  0  0  0  0  0  0  0  0  0  0
   -0.2660   16.3140   -0.0830 C   0  0  0  0  0  0  0  0  0  0  0  0
    0.5320   16.6810   -1.1020 C   0  0  0  0  0  0  0  0  0  0  0  0
    1.6810   15.7770   -1.5680 C   0  0  1  0  0  0  0  0  0  0  0  0
    2.9670   16.6250   -1.7480 C   0  0  0  0  0  0  0  0  0  0  0  0
    2.7550   17.8220   -2.6710 C   0  0  0  0  0  0  0  0  0  0  0  0
    1.6460   18.7270   -2.1430 C   0  0  2  0  0  0  0  0  0  0  0  0
    2.0810   19.3230   -0.9160 O   0  0  0  0  0  0  0  0  0  0  0  0
    0.3020   17.9800   -1.9130 C   0  0  0  0  0  0  0  0  0  0  0  0
   -0.3200   17.5970   -3.2780 C   0  0  0  0  0  0  0  0  0  0  0  0
   -0.6890   18.9740   -1.2480 C   0  0  0  0  0  0  0  0  0  0  0  0
    1.9280   14.4680   -0.7020 C   0  0  1  0  0  0  0  0  0  0  0  0
    2.8770   14.7930    0.4930 C   0  0  0  0  0  0  0  0  0  0  0  0
    2.6750   13.4000   -1.5850 C   0  0  0  0  0  0  0  0  0  0  0  0
    1.7950   12.4600   -2.4300 C   0  0  0  0  0  0  0  0  0  0  0  0
    0.6800   11.8420   -1.5810 C   0  0  2  0  0  0  0  0  0  0  0  0
    1.3540   10.9700   -0.4670 C   0  0  0  0  0  0  0  0  0  0  0  0
   -0.8712    8.5444   -4.3731 H   0  0  0  0  0  0  0  0  0  0  0  0
   -0.4722   10.2698   -4.6741 H   0  0  0  0  0  0  0  0  0  0  0  0
    0.8309    9.0334   -4.6741 H   0  0  0  0  0  0  0  0  0  0  0  0
    1.1537    9.4187   -2.5001 H   0  0  0  0  0  0  0  0  0  0  0  0
   -0.3454    7.5074   -2.1603 H   0  0  0  0  0  0  0  0  0  0  0  0
   -0.4701    8.7359   -0.8115 H   0  0  0  0  0  0  0  0  0  0  0  0
   -2.6679    8.7267   -1.0526 H   0  0  0  0  0  0  0  0  0  0  0  0
   -2.4355    9.4163   -2.7137 H   0  0  0  0  0  0  0  0  0  0  0  0
   -1.7753    6.8241   -2.5485 H   0  0  0  0  0  0  0  0  0  0  0  0
   -4.9027    7.4153   -0.5158 H   0  0  0  0  0  0  0  0  0  0  0  0
   -5.0457    8.6722   -1.7911 H   0  0  0  0  0  0  0  0  0  0  0  0
   -6.1585    7.2622   -1.7911 H   0  0  0  0  0  0  0  0  0  0  0  0
   -4.5738    4.8842   -1.6756 H   0  0  0  0  0  0  0  0  0  0  0  0
   -5.4079    5.2858   -3.2150 H   0  0  0  0  0  0  0  0  0  0  0  0
   -3.6488    4.9221   -3.2150 H   0  0  0  0  0  0  0  0  0  0  0  0
   -0.5484   11.3702   -3.3258 H   0  0  0  0  0  0  0  0  0  0  0  0
   -2.5027   11.0856   -1.9338 H   0  0  0  0  0  0  0  0  0  0  0  0
   -1.6381   10.0209   -0.8043 H   0  0  0  0  0  0  0  0  0  0  0  0
   -2.2972   12.7607   -0.3303 H   0  0  0  0  0  0  0  0  0  0  0  0
   -1.1288   11.8470    0.6205 H   0  0  0  0  0  0  0  0  0  0  0  0
   -1.5773   14.6065   -1.6903 H   0  0  0  0  0  0  0  0  0  0  0  0
   -0.1781   14.3296   -2.7821 H   0  0  0  0  0  0  0  0  0  0  0  0
   -1.5586   13.1802   -2.7821 H   0  0  0  0  0  0  0  0  0  0  0  0
    0.8843   13.1930    0.7151 H   0  0  0  0  0  0  0  0  0  0  0  0
   -1.2423   14.6466    0.7663 H   0  0  0  0  0  0  0  0  0  0  0  0
    0.3114   15.2008    1.5832 H   0  0  0  0  0  0  0  0  0  0  0  0
   -1.0234   17.0392    0.2495 H   0  0  0  0  0  0  0  0  0  0  0  0
    1.3686   15.3637   -2.5384 H   0  0  0  0  0  0  0  0  0  0  0  0
    3.2878   16.9925   -0.7621 H   0  0  0  0  0  0  0  0  0  0  0  0
    3.7303   15.9801   -2.2079 H   0  0  0  0  0  0  0  0  0  0  0  0
    3.6901   18.3978   -2.7346 H   0  0  0  0  0  0  0  0  0  0  0  0
    2.4633   17.4520   -3.6650 H   0  0  0  0  0  0  0  0  0  0  0  0
    1.4526   19.4918   -2.9095 H   0  0  0  0  0  0  0  0  0  0  0  0
    2.8910   18.8630   -0.6370 H   0  0  0  0  0  0  0  0  0  0  0  0
   -1.2459   17.0269   -3.1120 H   0  0  0  0  0  0  0  0  0  0  0  0
   -0.5489   18.5108   -3.8460 H   0  0  0  0  0  0  0  0  0  0  0  0
    0.3929   16.9812   -3.8460 H   0  0  0  0  0  0  0  0  0  0  0  0
   -0.6094   18.8942   -0.1538 H   0  0  0  0  0  0  0  0  0  0  0  0
   -0.4437   20.0000   -1.5596 H   0  0  0  0  0  0  0  0  0  0  0  0
   -1.7157   18.7318   -1.5596 H   0  0  0  0  0  0  0  0  0  0  0  0
    2.3485   14.6120    1.4406 H   0  0  0  0  0  0  0  0  0  0  0  0
    3.7668   14.1484    0.4405 H   0  0  0  0  0  0  0  0  0  0  0  0
    3.1848   15.8478    0.4405 H   0  0  0  0  0  0  0  0  0  0  0  0
    3.3388   13.9431   -2.2738 H   0  0  0  0  0  0  0  0  0  0  0  0
    3.1914   12.7443   -0.8685 H   0  0  0  0  0  0  0  0  0  0  0  0
    1.3444   13.0329   -3.2538 H   0  0  0  0  0  0  0  0  0  0  0  0
    2.4256   11.6495   -2.8243 H   0  0  0  0  0  0  0  0  0  0  0  0
    1.0608   11.3493    0.5230 H   0  0  0  0  0  0  0  0  0  0  0  0
    1.0265    9.9250   -0.5710 H   0  0  0  0  0  0  0  0  0  0  0  0
    2.4478   11.0236   -0.5710 H   0  0  0  0  0  0  0  0  0  0  0  0
  1  2  1  0
  2  3  1  0
  3  4  1  0
  4  5  1  0
  5  6  1  0
  6  7  1  0
  7  8  1  0
  7  9  1  0
  2 10  1  0
 10 11  1  0
 11 12  1  0
 12 13  1  0
 13 14  1  6
 13 15  1  0
 15 16  1  0
 16 17  1  0
 17 18  2  0
 18 19  1  0
 19 20  1  0
 20 21  1  0
 21 22  1  0
 22 23  1  0
 22 24  1  0
 24 25  1  0
 24 26  1  0
 19 27  1  0
 27 28  1  1
 27 29  1  0
 29 30  1  0
 30 31  1  0
 31 32  1  1
  7  5  1  0
 31 10  1  0
 31 13  1  0
 27 15  1  0
 24 18  1  0
  1 33  1  0
  1 34  1  0
  1 35  1  0
  2 36  1  6
  3 37  1  0
  3 38  1  0
  4 39  1  0
  4 40  1  0
  5 41  1  6
  8 42  1  0
  8 43  1  0
  8 44  1  0
  9 45  1  0
  9 46  1  0
  9 47  1  0
 10 48  1  6
 11 49  1  0
 11 50  1  0
 12 51  1  0
 12 52  1  0
 14 53  1  0
 14 54  1  0
 14 55  1  0
 15 56  1  1
 16 57  1  0
 16 58  1  0
 17 59  1  0
 19 60  1  6
 20 61  1  0
 20 62  1  0
 21 63  1  0
 21 64  1  0
 22 65  1  6
 23 66  1  0
 25 67  1  0
 25 68  1  0
 25 69  1  0
 26 70  1  0
 26 71  1  0
 26 72  1  0
 28 73  1  0
 28 74  1  0
 28 75  1  0
 29 76  1  0
 29 77  1  0
 30 78  1  0
 30 79  1  0
 32 80  1  0
 32 81  1  0
 32 82  1  0
M  END
>  <meeko>  (14) 
{"is_sidechain": [false], "intermolecular_energy": 2.731, "internal_energy": -0.839}

$$$$
EPH_relaxed_0001_pdb2pqr_Repair_182_r2_0001_out
     RDKit          3D

 82 86  0  0  0  0  0  0  0  0999 V2000
    3.1180   14.8390   -7.5480 C   0  0  0  0  0  0  0  0  0  0  0  0
    1.5940   14.8890   -7.4060 C   0  0  2  0  0  0  0  0  0  0  0  0
    0.9890   16.1410   -8.0710 C   0  0  0  0  0  0  0  0  0  0  0  0
    1.9200   16.8080   -9.0870 C   0  0  0  0  0  0  0  0  0  0  0  0
    1.5890   16.4040  -10.4920 C   0  0  2  0  0  0  0  0  0  0  0  0
    1.0020   15.1020  -10.6170 O   0  0  0  0  0  0  0  0  0  0  0  0
    2.2910   15.2770  -11.2260 C   0  0  0  0  0  0  0  0  0  0  0  0
    3.3830   14.4850  -10.5770 C   0  0  0  0  0  0  0  0  0  0  0  0
    2.2580   15.2670  -12.7220 C   0  0  0  0  0  0  0  0  0  0  0  0
    1.2080   14.8440   -5.9320 C   0  0  1  0  0  0  0  0  0  0  0  0
   -0.0540   15.6910   -5.6190 C   0  0  0  0  0  0  0  0  0  0  0  0
   -0.8290   14.9440   -4.5030 C   0  0  0  0  0  0  0  0  0  0  0  0
    0.1670   13.8820   -3.9810 C   0  0  1  0  0  0  0  0  0  0  0  0
    1.0970   14.6540   -2.9940 C   0  0  0  0  0  0  0  0  0  0  0  0
   -0.4610   12.6160   -3.3120 C   0  0  2  0  0  0  0  0  0  0  0  0
   -1.2820   12.8900   -2.0400 C   0  0  0  0  0  0  0  0  0  0  0  0
   -0.5130   12.8390   -0.7610 C   0  0  0  0  0  0  0  0  0  0  0  0
    0.7140   12.3080   -0.6070 C   0  0  0  0  0  0  0  0  0  0  0  0
    1.4150   11.5940   -1.7700 C   0  0  1  0  0  0  0  0  0  0  0  0
    2.0120   10.2530   -1.2700 C   0  0  0  0  0  0  0  0  0  0  0  0
    2.9250   10.4330   -0.0600 C   0  0  0  0  0  0  0  0  0  0  0  0
    2.1750   11.0930    1.0950 C   0  0  2  0  0  0  0  0  0  0  0  0
    1.1690   10.1910    1.5660 O   0  0  0  0  0  0  0  0  0  0  0  0
    1.5220   12.4490    0.7060 C   0  0  0  0  0  0  0  0  0  0  0  0
    2.6250   13.5140    0.4870 C   0  0  0  0  0  0  0  0  0  0  0  0
    0.6820   12.9380    1.9170 C   0  0  0  0  0  0  0  0  0  0  0  0
    0.5570   11.4240   -3.0970 C   0  0  1  0  0  0  0  0  0  0  0  0
   -0.2940   10.1200   -3.0160 C   0  0  0  0  0  0  0  0  0  0  0  0
    1.5330   11.2420   -4.3200 C   0  0  0  0  0  0  0  0  0  0  0  0
    2.0240   12.5270   -5.0130 C   0  0  0  0  0  0  0  0  0  0  0  0
    0.8520   13.4600   -5.3320 C   0  0  2  0  0  0  0  0  0  0  0  0
   -0.0900   12.7190   -6.3410 C   0  0  0  0  0  0  0  0  0  0  0  0
    3.5790   14.8239   -6.5494 H   0  0  0  0  0  0  0  0  0  0  0  0
    3.4054   13.9309   -8.0983 H   0  0  0  0  0  0  0  0  0  0  0  0
    3.4643   15.7263   -8.0983 H   0  0  0  0  0  0  0  0  0  0  0  0
    1.1845   14.0098   -7.9250 H   0  0  0  0  0  0  0  0  0  0  0  0
    0.0639   15.8469   -8.5883 H   0  0  0  0  0  0  0  0  0  0  0  0
    0.8073   16.8741   -7.2713 H   0  0  0  0  0  0  0  0  0  0  0  0
    1.8213   17.8999   -8.9976 H   0  0  0  0  0  0  0  0  0  0  0  0
    2.9494   16.4859   -8.8714 H   0  0  0  0  0  0  0  0  0  0  0  0
    1.3818   17.4482  -10.7689 H   0  0  0  0  0  0  0  0  0  0  0  0
    3.2865   14.5550   -9.4835 H   0  0  0  0  0  0  0  0  0  0  0  0
    3.3051   13.4320  -10.8853 H   0  0  0  0  0  0  0  0  0  0  0  0
    4.3598   14.8861  -10.8853 H   0  0  0  0  0  0  0  0  0  0  0  0
    1.2577   14.9639  -13.0647 H   0  0  0  0  0  0  0  0  0  0  0  0
    2.4856   16.2744  -13.1005 H   0  0  0  0  0  0  0  0  0  0  0  0
    3.0065   14.5554  -13.1005 H   0  0  0  0  0  0  0  0  0  0  0  0
    2.1407   15.2191   -5.4854 H   0  0  0  0  0  0  0  0  0  0  0  0
    0.2388   16.6927   -5.2714 H   0  0  0  0  0  0  0  0  0  0  0  0
   -0.6776   15.8168   -6.5164 H   0  0  0  0  0  0  0  0  0  0  0  0
   -1.1151   15.6370   -3.6981 H   0  0  0  0  0  0  0  0  0  0  0  0
   -1.7627   14.4947   -4.8722 H   0  0  0  0  0  0  0  0  0  0  0  0
    0.8108   14.4164   -1.9588 H   0  0  0  0  0  0  0  0  0  0  0  0
    2.1416   14.3538   -3.1637 H   0  0  0  0  0  0  0  0  0  0  0  0
    0.9942   15.7360   -3.1637 H   0  0  0  0  0  0  0  0  0  0  0  0
   -1.1858   12.2838   -4.0699 H   0  0  0  0  0  0  0  0  0  0  0  0
   -1.7246   13.8929   -2.1307 H   0  0  0  0  0  0  0  0  0  0  0  0
   -2.0273   12.0832   -1.9793 H   0  0  0  0  0  0  0  0  0  0  0  0
   -0.9897   13.2721    0.1307 H   0  0  0  0  0  0  0  0  0  0  0  0
    2.2246   12.2641   -2.0949 H   0  0  0  0  0  0  0  0  0  0  0  0
    1.1863    9.5815   -0.9918 H   0  0  0  0  0  0  0  0  0  0  0  0
    2.6184    9.8330   -2.0860 H   0  0  0  0  0  0  0  0  0  0  0  0
    3.2913    9.4479    0.2646 H   0  0  0  0  0  0  0  0  0  0  0  0
    3.7667   11.0800   -0.3479 H   0  0  0  0  0  0  0  0  0  0  0  0
    2.9101   11.3143    1.8829 H   0  0  0  0  0  0  0  0  0  0  0  0
    1.6210    9.4300    1.9680 H   0  0  0  0  0  0  0  0  0  0  0  0
    2.9916   13.8680    1.4618 H   0  0  0  0  0  0  0  0  0  0  0  0
    3.4572   13.0691   -0.0782 H   0  0  0  0  0  0  0  0  0  0  0  0
    2.2095   14.3613   -0.0782 H   0  0  0  0  0  0  0  0  0  0  0  0
    1.1826   12.6466    2.8521 H   0  0  0  0  0  0  0  0  0  0  0  0
    0.5860   14.0331    1.8784 H   0  0  0  0  0  0  0  0  0  0  0  0
   -0.3177   12.4807    1.8784 H   0  0  0  0  0  0  0  0  0  0  0  0
   -0.4647    9.8585   -1.9613 H   0  0  0  0  0  0  0  0  0  0  0  0
   -1.2610   10.2816   -3.5148 H   0  0  0  0  0  0  0  0  0  0  0  0
    0.2433    9.2999   -3.5148 H   0  0  0  0  0  0  0  0  0  0  0  0
    2.4191   10.6981   -3.9607 H   0  0  0  0  0  0  0  0  0  0  0  0
    0.9440   10.7106   -5.0821 H   0  0  0  0  0  0  0  0  0  0  0  0
    2.7280   13.0482   -4.3476 H   0  0  0  0  0  0  0  0  0  0  0  0
    2.5184   12.2500   -5.9558 H   0  0  0  0  0  0  0  0  0  0  0  0
   -0.8354   12.1326   -5.7838 H   0  0  0  0  0  0  0  0  0  0  0  0
   -0.6033   13.4580   -6.9738 H   0  0  0  0  0  0  0  0  0  0  0  0
    0.5073   12.0461   -6.9738 H   0  0  0  0  0  0  0  0  0  0  0  0
  1  2  1  0
  2  3  1  0
  3  4  1  0
  4  5  1  0
  5  6  1  0
  6  7  1  0
  7  8  1  0
  7  9  1  0
  2 10  1  0
 10 11  1  0
 11 12  1  0
 12 13  1  0
 13 14  1  1
 13 15  1  0
 15 16  1  0
 16 17  1  0
 17 18  2  0
 18 19  1  0
 19 20  1  0
 20 21  1  0
 21 22  1  0
 22 23  1  0
 22 24  1  0
 24 25  1  0
 24 26  1  0
 19 27  1  0
 27 28  1  1
 27 29  1  0
 29 30  1  0
 30 31  1  0
 31 32  1  6
  7  5  1  0
 31 10  1  0
 31 13  1  0
 27 15  1  0
 24 18  1  0
  1 33  1  0
  1 34  1  0
  1 35  1  0
  2 36  1  6
  3 37  1  0
  3 38  1  0
  4 39  1  0
  4 40  1  0
  5 41  1  6
  8 42  1  0
  8 43  1  0
  8 44  1  0
  9 45  1  0
  9 46  1  0
  9 47  1  0
 10 48  1  1
 11 49  1  0
 11 50  1  0
 12 51  1  0
 12 52  1  0
 14 53  1  0
 14 54  1  0
 14 55  1  0
 15 56  1  6
 16 57  1  0
 16 58  1  0
 17 59  1  0
 19 60  1  6
 20 61  1  0
 20 62  1  0
 21 63  1  0
 21 64  1  0
 22 65  1  1
 23 66  1  0
 25 67  1  0
 25 68  1  0
 25 69  1  0
 26 70  1  0
 26 71  1  0
 26 72  1  0
 28 73  1  0
 28 74  1  0
 28 75  1  0
 29 76  1  0
 29 77  1  0
 30 78  1  0
 30 79  1  0
 32 80  1  0
 32 81  1  0
 32 82  1  0
M  END
>  <meeko>  (15) 
{"is_sidechain": [false], "intermolecular_energy": 2.731, "internal_energy": -0.839}

$$$$
EPH_relaxed_0001_pdb2pqr_Repair_182_r2_0001_out
     RDKit          3D

 82 86  0  0  0  0  0  0  0  0999 V2000
    0.3940    7.9870   -2.6060 C   0  0  0  0  0  0  0  0  0  0  0  0
   -0.9660    8.3430   -1.9990 C   0  0  2  0  0  0  0  0  0  0  0  0
   -2.1380    7.7720   -2.8230 C   0  0  0  0  0  0  0  0  0  0  0  0
   -3.3680    7.4210   -1.9820 C   0  0  0  0  0  0  0  0  0  0  0  0
   -4.3810    6.6520   -2.7760 C   0  0  2  0  0  0  0  0  0  0  0  0
   -5.0190    7.4020   -3.8180 O   0  0  0  0  0  0  0  0  0  0  0  0
   -5.8680    6.9530   -2.7490 C   0  0  0  0  0  0  0  0  0  0  0  0
   -6.4250    8.0590   -1.9100 C   0  0  0  0  0  0  0  0  0  0  0  0
   -6.8230    5.8740   -3.1520 C   0  0  0  0  0  0  0  0  0  0  0  0
   -1.1020    9.8560   -1.8780 C   0  0  1  0  0  0  0  0  0  0  0  0
   -2.5440   10.2990   -1.5130 C   0  0  0  0  0  0  0  0  0  0  0  0
   -2.4110   11.5460   -0.6010 C   0  0  0  0  0  0  0  0  0  0  0  0
   -0.9310   11.9750   -0.7400 C   0  0  1  0  0  0  0  0  0  0  0  0
   -0.8730   12.7870   -2.0720 C   0  0  0  0  0  0  0  0  0  0  0  0
   -0.3310   12.7840    0.4560 C   0  0  2  0  0  0  0  0  0  0  0  0
   -1.0000   14.1420    0.7270 C   0  0  0  0  0  0  0  0  0  0  0  0
   -0.4010   15.3040    0.0060 C   0  0  0  0  0  0  0  0  0  0  0  0
    0.8010   15.3130   -0.6000 C   0  0  0  0  0  0  0  0  0  0  0  0
    1.7360   14.0990   -0.5130 C   0  0  1  0  0  0  0  0  0  0  0  0
    3.1720   14.5760   -0.1690 C   0  0  0  0  0  0  0  0  0  0  0  0
    3.6830   15.6380   -1.1370 C   0  0  0  0  0  0  0  0  0  0  0  0
    2.7590   16.8520   -1.1530 C   0  0  2  0  0  0  0  0  0  0  0  0
    2.8270   17.5000    0.1220 O   0  0  0  0  0  0  0  0  0  0  0  0
    1.2820   16.4940   -1.4780 C   0  0  0  0  0  0  0  0  0  0  0  0
    1.1630   16.0750   -2.9640 C   0  0  0  0  0  0  0  0  0  0  0  0
    0.4320   17.7840   -1.3220 C   0  0  0  0  0  0  0  0  0  0  0  0
    1.2460   12.9130    0.4240 C   0  0  1  0  0  0  0  0  0  0  0  0
    1.7010   13.1710    1.8930 C   0  0  0  0  0  0  0  0  0  0  0  0
    1.9470   11.5770   -0.0290 C   0  0  0  0  0  0  0  0  0  0  0  0
    1.2430   10.7620   -1.1310 C   0  0  0  0  0  0  0  0  0  0  0  0
   -0.2400   10.5640   -0.8030 C   0  0  2  0  0  0  0  0  0  0  0  0
   -0.3310    9.7310    0.5210 C   0  0  0  0  0  0  0  0  0  0  0  0
    1.1174    7.7976   -1.7992 H   0  0  0  0  0  0  0  0  0  0  0  0
    0.2934    7.0849   -3.2274 H   0  0  0  0  0  0  0  0  0  0  0  0
    0.7482    8.8227   -3.2274 H   0  0  0  0  0  0  0  0  0  0  0  0
   -1.0118    7.8851   -0.9999 H   0  0  0  0  0  0  0  0  0  0  0  0
   -2.4324    8.5207   -3.5732 H   0  0  0  0  0  0  0  0  0  0  0  0
   -1.7837    6.8365   -3.2804 H   0  0  0  0  0  0  0  0  0  0  0  0
   -3.0506    6.8113   -1.1232 H   0  0  0  0  0  0  0  0  0  0  0  0
   -3.8345    8.3595   -1.6480 H   0  0  0  0  0  0  0  0  0  0  0  0
   -3.8145    5.7189   -2.6403 H   0  0  0  0  0  0  0  0  0  0  0  0
   -6.2999    7.8106   -0.8457 H   0  0  0  0  0  0  0  0  0  0  0  0
   -5.8902    8.9939   -2.1336 H   0  0  0  0  0  0  0  0  0  0  0  0
   -7.4945    8.1859   -2.1336 H   0  0  0  0  0  0  0  0  0  0  0  0
   -7.2422    5.4004   -2.2520 H   0  0  0  0  0  0  0  0  0  0  0  0
   -7.6370    6.3094   -3.7501 H   0  0  0  0  0  0  0  0  0  0  0  0
   -6.2919    5.1189   -3.7501 H   0  0  0  0  0  0  0  0  0  0  0  0
   -0.7668   10.1521   -2.8830 H   0  0  0  0  0  0  0  0  0  0  0  0
   -3.1041   10.5543   -2.4246 H   0  0  0  0  0  0  0  0  0  0  0  0
   -3.0879    9.4914   -1.0013 H   0  0  0  0  0  0  0  0  0  0  0  0
   -3.0816   12.3490   -0.9408 H   0  0  0  0  0  0  0  0  0  0  0  0
   -2.6870   11.3314    0.4420 H   0  0  0  0  0  0  0  0  0  0  0  0
   -0.7963   13.8604   -1.8440 H   0  0  0  0  0  0  0  0  0  0  0  0
    0.0050   12.4724   -2.6553 H   0  0  0  0  0  0  0  0  0  0  0  0
   -1.7868   12.6004   -2.6553 H   0  0  0  0  0  0  0  0  0  0  0  0
   -0.5829   12.1502    1.3191 H   0  0  0  0  0  0  0  0  0  0  0  0
   -2.0563   14.0657    0.4299 H   0  0  0  0  0  0  0  0  0  0  0  0
   -0.8569   14.3428    1.7990 H   0  0  0  0  0  0  0  0  0  0  0  0
   -0.9917   16.2311   -0.0334 H   0  0  0  0  0  0  0  0  0  0  0  0
    1.7257   13.6341   -1.5099 H   0  0  0  0  0  0  0  0  0  0  0  0
    3.1698   14.9970    0.8473 H   0  0  0  0  0  0  0  0  0  0  0  0
    3.8402   13.7055   -0.2451 H   0  0  0  0  0  0  0  0  0  0  0  0
    4.6889   15.9554   -0.8248 H   0  0  0  0  0  0  0  0  0  0  0  0
    3.7122   15.2060   -2.1482 H   0  0  0  0  0  0  0  0  0  0  0  0
    3.1045   17.5185   -1.9570 H   0  0  0  0  0  0  0  0  0  0  0  0
    2.3830   18.3600    0.0390 H   0  0  0  0  0  0  0  0  0  0  0  0
    0.8629   15.0184   -3.0241 H   0  0  0  0  0  0  0  0  0  0  0  0
    0.4068   16.6998   -3.4617 H   0  0  0  0  0  0  0  0  0  0  0  0
    2.1347   16.2091   -3.4617 H   0  0  0  0  0  0  0  0  0  0  0  0
    0.2886   18.0016   -0.2533 H   0  0  0  0  0  0  0  0  0  0  0  0
    0.9526   18.6263   -1.8011 H   0  0  0  0  0  0  0  0  0  0  0  0
   -0.5474   17.6380   -1.8011 H   0  0  0  0  0  0  0  0  0  0  0  0
    0.9581   12.7498    2.5863 H   0  0  0  0  0  0  0  0  0  0  0  0
    2.6759   12.6913    2.0645 H   0  0  0  0  0  0  0  0  0  0  0  0
    1.7899   14.2539    2.0645 H   0  0  0  0  0  0  0  0  0  0  0  0
    2.9509   11.8360   -0.3966 H   0  0  0  0  0  0  0  0  0  0  0  0
    1.9345   10.9296    0.8602 H   0  0  0  0  0  0  0  0  0  0  0  0
    1.3316   11.2981   -2.0874 H   0  0  0  0  0  0  0  0  0  0  0  0
    1.7226    9.7743   -1.1977 H   0  0  0  0  0  0  0  0  0  0  0  0
   -0.2571   10.4072    1.3854 H   0  0  0  0  0  0  0  0  0  0  0  0
   -1.2927    9.1980    0.5535 H   0  0  0  0  0  0  0  0  0  0  0  0
    0.4930    9.0030    0.5535 H   0  0  0  0  0  0  0  0  0  0  0  0
  1  2  1  0
  2  3  1  0
  3  4  1  0
  4  5  1  0
  5  6  1  0
  6  7  1  0
  7  8  1  0
  7  9  1  0
  2 10  1  0
 10 11  1  0
 11 12  1  0
 12 13  1  0
 13 14  1  6
 13 15  1  0
 15 16  1  0
 16 17  1  0
 17 18  2  0
 18 19  1  0
 19 20  1  0
 20 21  1  0
 21 22  1  0
 22 23  1  0
 22 24  1  0
 24 25  1  0
 24 26  1  0
 19 27  1  0
 27 28  1  1
 27 29  1  0
 29 30  1  0
 30 31  1  0
 31 32  1  1
  7  5  1  0
 31 10  1  0
 31 13  1  0
 27 15  1  0
 24 18  1  0
  1 33  1  0
  1 34  1  0
  1 35  1  0
  2 36  1  1
  3 37  1  0
  3 38  1  0
  4 39  1  0
  4 40  1  0
  5 41  1  6
  8 42  1  0
  8 43  1  0
  8 44  1  0
  9 45  1  0
  9 46  1  0
  9 47  1  0
 10 48  1  6
 11 49  1  0
 11 50  1  0
 12 51  1  0
 12 52  1  0
 14 53  1  0
 14 54  1  0
 14 55  1  0
 15 56  1  1
 16 57  1  0
 16 58  1  0
 17 59  1  0
 19 60  1  6
 20 61  1  0
 20 62  1  0
 21 63  1  0
 21 64  1  0
 22 65  1  6
 23 66  1  0
 25 67  1  0
 25 68  1  0
 25 69  1  0
 26 70  1  0
 26 71  1  0
 26 72  1  0
 28 73  1  0
 28 74  1  0
 28 75  1  0
 29 76  1  0
 29 77  1  0
 30 78  1  0
 30 79  1  0
 32 80  1  0
 32 81  1  0
 32 82  1  0
M  END
>  <meeko>  (16) 
{"is_sidechain": [false], "intermolecular_energy": 2.731, "internal_energy": -0.839}

$$$$
EPH_relaxed_0001_pdb2pqr_Repair_182_r2_0001_out
     RDKit          3D

 82 86  0  0  0  0  0  0  0  0999 V2000
    2.7940   18.4830   -1.8270 C   0  0  0  0  0  0  0  0  0  0  0  0
    1.4700   17.7170   -1.7460 C   0  0  2  0  0  0  0  0  0  0  0  0
    0.7430   17.9530   -0.4070 C   0  0  0  0  0  0  0  0  0  0  0  0
    0.8850   19.3810    0.1270 C   0  0  0  0  0  0  0  0  0  0  0  0
   -0.4130   20.1270    0.0680 C   0  0  2  0  0  0  0  0  0  0  0  0
   -1.1220   20.1940    1.3120 O   0  0  0  0  0  0  0  0  0  0  0  0
   -1.7670   19.4670    0.2530 C   0  0  0  0  0  0  0  0  0  0  0  0
   -1.8890   17.9980    0.5110 C   0  0  0  0  0  0  0  0  0  0  0  0
   -2.9780   20.1520   -0.2980 C   0  0  0  0  0  0  0  0  0  0  0  0
    1.7190   16.2270   -1.9480 C   0  0  1  0  0  0  0  0  0  0  0  0
    3.2220   15.8920   -2.1380 C   0  0  0  0  0  0  0  0  0  0  0  0
    3.4620   14.5140   -1.4690 C   0  0  0  0  0  0  0  0  0  0  0  0
    2.0440   13.9530   -1.2130 C   0  0  1  0  0  0  0  0  0  0  0  0
    1.5970   13.3520   -2.5830 C   0  0  0  0  0  0  0  0  0  0  0  0
    1.9110   12.9110   -0.0550 C   0  0  2  0  0  0  0  0  0  0  0  0
    2.7050   11.6080   -0.2550 C   0  0  0  0  0  0  0  0  0  0  0  0
    1.9660   10.5120   -0.9480 C   0  0  0  0  0  0  0  0  0  0  0  0
    0.6340   10.4650   -1.1380 C   0  0  0  0  0  0  0  0  0  0  0  0
   -0.2850   11.5420   -0.5470 C   0  0  1  0  0  0  0  0  0  0  0  0
   -1.5020   10.8660    0.1370 C   0  0  0  0  0  0  0  0  0  0  0  0
   -2.2440    9.9140   -0.7960 C   0  0  0  0  0  0  0  0  0  0  0  0
   -1.3110    8.8240   -1.3180 C   0  0  2  0  0  0  0  0  0  0  0  0
   -0.9240    7.9860   -0.2240 O   0  0  0  0  0  0  0  0  0  0  0  0
   -0.0430    9.3860   -2.0190 C   0  0  0  0  0  0  0  0  0  0  0  0
   -0.4400   10.0370   -3.3670 C   0  0  0  0  0  0  0  0  0  0  0  0
    0.8790    8.1870   -2.3710 C   0  0  0  0  0  0  0  0  0  0  0  0
    0.4200   12.6180    0.3860 C   0  0  1  0  0  0  0  0  0  0  0  0
    0.4850   12.0910    1.8520 C   0  0  0  0  0  0  0  0  0  0  0  0
   -0.4610   13.9230    0.4220 C   0  0  0  0  0  0  0  0  0  0  0  0
   -0.2000   14.9680   -0.6800 C   0  0  0  0  0  0  0  0  0  0  0  0
    1.2960   15.2740   -0.8020 C   0  0  2  0  0  0  0  0  0  0  0  0
    1.7690   15.9000    0.5530 C   0  0  0  0  0  0  0  0  0  0  0  0
    3.1584   18.6938   -0.8107 H   0  0  0  0  0  0  0  0  0  0  0  0
    3.5370   17.8752   -2.3642 H   0  0  0  0  0  0  0  0  0  0  0  0
    2.6374   19.4300   -2.3642 H   0  0  0  0  0  0  0  0  0  0  0  0
    0.8182   18.0972   -2.5464 H   0  0  0  0  0  0  0  0  0  0  0  0
   -0.3267   17.7406   -0.5505 H   0  0  0  0  0  0  0  0  0  0  0  0
    1.2078   17.2852    0.3333 H   0  0  0  0  0  0  0  0  0  0  0  0
    1.2243   19.3384    1.1725 H   0  0  0  0  0  0  0  0  0  0  0  0
    1.6140   19.9115   -0.5031 H   0  0  0  0  0  0  0  0  0  0  0  0
   -0.0193   20.7972   -0.7104 H   0  0  0  0  0  0  0  0  0  0  0  0
   -1.9041   17.8163    1.5958 H   0  0  0  0  0  0  0  0  0  0  0  0
   -2.8214   17.6233    0.0634 H   0  0  0  0  0  0  0  0  0  0  0  0
   -1.0312   17.4746    0.0634 H   0  0  0  0  0  0  0  0  0  0  0  0
   -3.6071   20.5078    0.5312 H   0  0  0  0  0  0  0  0  0  0  0  0
   -2.6663   21.0076   -0.9151 H   0  0  0  0  0  0  0  0  0  0  0  0
   -3.5507   19.4441   -0.9151 H   0  0  0  0  0  0  0  0  0  0  0  0
    1.0901   16.0538   -2.8337 H   0  0  0  0  0  0  0  0  0  0  0  0
    3.4660   15.8404   -3.2094 H   0  0  0  0  0  0  0  0  0  0  0  0
    3.8591   16.6664   -1.6860 H   0  0  0  0  0  0  0  0  0  0  0  0
    4.0272   13.8499   -2.1395 H   0  0  0  0  0  0  0  0  0  0  0  0
    4.0516   14.5962   -0.5440 H   0  0  0  0  0  0  0  0  0  0  0  0
    0.9490   12.4807   -2.4072 H   0  0  0  0  0  0  0  0  0  0  0  0
    1.0429   14.1119   -3.1535 H   0  0  0  0  0  0  0  0  0  0  0  0
    2.4842   13.0399   -3.1535 H   0  0  0  0  0  0  0  0  0  0  0  0
    2.3956   13.4298    0.7853 H   0  0  0  0  0  0  0  0  0  0  0  0
    3.6003   11.8432   -0.8493 H   0  0  0  0  0  0  0  0  0  0  0  0
    2.9324   11.2320    0.7534 H   0  0  0  0  0  0  0  0  0  0  0  0
    2.5599    9.6715   -1.3364 H   0  0  0  0  0  0  0  0  0  0  0  0
   -0.6262   12.1511   -1.3970 H   0  0  0  0  0  0  0  0  0  0  0  0
   -1.1457   10.2983    1.0092 H   0  0  0  0  0  0  0  0  0  0  0  0
   -2.2040   11.6606    0.4299 H   0  0  0  0  0  0  0  0  0  0  0  0
   -3.0735    9.4450   -0.2464 H   0  0  0  0  0  0  0  0  0  0  0  0
   -2.6263   10.4887   -1.6525 H   0  0  0  0  0  0  0  0  0  0  0  0
   -1.8635    8.2542   -2.0796 H   0  0  0  0  0  0  0  0  0  0  0  0
   -1.7340    7.6050    0.1560 H   0  0  0  0  0  0  0  0  0  0  0  0
   -1.0040   10.9618   -3.1755 H   0  0  0  0  0  0  0  0  0  0  0  0
    0.4678   10.2734   -3.9415 H   0  0  0  0  0  0  0  0  0  0  0  0
   -1.0658    9.3382   -3.9415 H   0  0  0  0  0  0  0  0  0  0  0  0
    1.2400    7.7176   -1.4440 H   0  0  0  0  0  0  0  0  0  0  0  0
    0.3131    7.4496   -2.9592 H   0  0  0  0  0  0  0  0  0  0  0  0
    1.7370    8.5446   -2.9592 H   0  0  0  0  0  0  0  0  0  0  0  0
    0.3809   12.9348    2.5499 H   0  0  0  0  0  0  0  0  0  0  0  0
   -0.3314   11.3732    2.0202 H   0  0  0  0  0  0  0  0  0  0  0  0
    1.4514   11.5931    2.0202 H   0  0  0  0  0  0  0  0  0  0  0  0
   -1.5144   13.6155    0.3463 H   0  0  0  0  0  0  0  0  0  0  0  0
   -0.1938   14.4248    1.3637 H   0  0  0  0  0  0  0  0  0  0  0  0
   -0.5669   14.5773   -1.6406 H   0  0  0  0  0  0  0  0  0  0  0  0
   -0.7275   15.8963   -0.4152 H   0  0  0  0  0  0  0  0  0  0  0  0
    1.3387   15.3305    1.3900 H   0  0  0  0  0  0  0  0  0  0  0  0
    2.8669   15.8632    0.6105 H   0  0  0  0  0  0  0  0  0  0  0  0
    1.4337   16.9461    0.6105 H   0  0  0  0  0  0  0  0  0  0  0  0
  1  2  1  0
  2  3  1  0
  3  4  1  0
  4  5  1  0
  5  6  1  0
  6  7  1  0
  7  8  1  0
  7  9  1  0
  2 10  1  0
 10 11  1  0
 11 12  1  0
 12 13  1  0
 13 14  1  6
 13 15  1  0
 15 16  1  0
 16 17  1  0
 17 18  2  0
 18 19  1  0
 19 20  1  0
 20 21  1  0
 21 22  1  0
 22 23  1  0
 22 24  1  0
 24 25  1  0
 24 26  1  0
 19 27  1  0
 27 28  1  1
 27 29  1  0
 29 30  1  0
 30 31  1  0
 31 32  1  1
  7  5  1  0
 31 10  1  0
 31 13  1  0
 27 15  1  0
 24 18  1  0
  1 33  1  0
  1 34  1  0
  1 35  1  0
  2 36  1  6
  3 37  1  0
  3 38  1  0
  4 39  1  0
  4 40  1  0
  5 41  1  6
  8 42  1  0
  8 43  1  0
  8 44  1  0
  9 45  1  0
  9 46  1  0
  9 47  1  0
 10 48  1  6
 11 49  1  0
 11 50  1  0
 12 51  1  0
 12 52  1  0
 14 53  1  0
 14 54  1  0
 14 55  1  0
 15 56  1  1
 16 57  1  0
 16 58  1  0
 17 59  1  0
 19 60  1  6
 20 61  1  0
 20 62  1  0
 21 63  1  0
 21 64  1  0
 22 65  1  6
 23 66  1  0
 25 67  1  0
 25 68  1  0
 25 69  1  0
 26 70  1  0
 26 71  1  0
 26 72  1  0
 28 73  1  0
 28 74  1  0
 28 75  1  0
 29 76  1  0
 29 77  1  0
 30 78  1  0
 30 79  1  0
 32 80  1  0
 32 81  1  0
 32 82  1  0
M  END
>  <meeko>  (17) 
{"is_sidechain": [false], "intermolecular_energy": 2.731, "internal_energy": -0.839}

$$$$
EPH_relaxed_0001_pdb2pqr_Repair_182_r2_0001_out
     RDKit          3D

 82 86  0  0  0  0  0  0  0  0999 V2000
    0.8350   14.7570   -4.8330 C   0  0  0  0  0  0  0  0  0  0  0  0
    0.6060   14.2040   -3.4230 C   0  0  2  0  0  0  0  0  0  0  0  0
    1.8400   14.3950   -2.5180 C   0  0  0  0  0  0  0  0  0  0  0  0
    1.6440   15.4520   -1.4270 C   0  0  0  0  0  0  0  0  0  0  0  0
    1.1730   16.7560   -1.9970 C   0  0  2  0  0  0  0  0  0  0  0  0
    2.1270   17.4250   -2.8310 O   0  0  0  0  0  0  0  0  0  0  0  0
    1.7660   18.0990   -1.6150 C   0  0  0  0  0  0  0  0  0  0  0  0
    2.8820   18.2060   -0.6240 C   0  0  0  0  0  0  0  0  0  0  0  0
    0.9440   19.3320   -1.8300 C   0  0  0  0  0  0  0  0  0  0  0  0
    0.2390   12.7270   -3.4980 C   0  0  1  0  0  0  0  0  0  0  0  0
    1.4580   11.8240   -3.8290 C   0  0  0  0  0  0  0  0  0  0  0  0
    1.2540   10.4970   -3.0540 C   0  0  0  0  0  0  0  0  0  0  0  0
   -0.2160   10.5460   -2.5760 C   0  0  1  0  0  0  0  0  0  0  0  0
   -1.0560   10.0990   -3.8130 C   0  0  0  0  0  0  0  0  0  0  0  0
   -0.5590    9.6970   -1.3080 C   0  0  2  0  0  0  0  0  0  0  0  0
   -0.3580    8.1790   -1.4650 C   0  0  0  0  0  0  0  0  0  0  0  0
   -1.5510    7.4240   -1.9490 C   0  0  0  0  0  0  0  0  0  0  0  0
   -2.8140    7.8900   -1.9750 C   0  0  0  0  0  0  0  0  0  0  0  0
   -3.1570    9.2680   -1.3930 C   0  0  1  0  0  0  0  0  0  0  0  0
   -4.4230    9.1540   -0.5040 C   0  0  0  0  0  0  0  0  0  0  0  0
   -5.6000    8.5210   -1.2400 C   0  0  0  0  0  0  0  0  0  0  0  0
   -5.2390    7.1300   -1.7520 C   0  0  2  0  0  0  0  0  0  0  0  0
   -5.0400    6.2630   -0.6310 O   0  0  0  0  0  0  0  0  0  0  0  0
   -3.9720    7.1180   -2.6530 C   0  0  0  0  0  0  0  0  0  0  0  0
   -4.2880    7.8050   -4.0040 C   0  0  0  0  0  0  0  0  0  0  0  0
   -3.6360    5.6390   -2.9850 C   0  0  0  0  0  0  0  0  0  0  0  0
   -1.9660   10.0300   -0.6660 C   0  0  1  0  0  0  0  0  0  0  0  0
   -1.8890    9.5920    0.8280 C   0  0  0  0  0  0  0  0  0  0  0  0
   -2.2710   11.5740   -0.6620 C   0  0  0  0  0  0  0  0  0  0  0  0
   -1.8020   12.3790   -1.8880 C   0  0  0  0  0  0  0  0  0  0  0  0
   -0.3380   12.0720   -2.2180 C   0  0  2  0  0  0  0  0  0  0  0  0
    0.5340   12.5310   -1.0000 C   0  0  0  0  0  0  0  0  0  0  0  0
    1.2551   15.7714   -4.7653 H   0  0  0  0  0  0  0  0  0  0  0  0
    1.5370   14.1047   -5.3731 H   0  0  0  0  0  0  0  0  0  0  0  0
   -0.1226   14.7920   -5.3731 H   0  0  0  0  0  0  0  0  0  0  0  0
   -0.2234   14.7709   -2.9750 H   0  0  0  0  0  0  0  0  0  0  0  0
    2.0680   13.4340   -2.0338 H   0  0  0  0  0  0  0  0  0  0  0  0
    2.6605   14.7449   -3.1618 H   0  0  0  0  0  0  0  0  0  0  0  0
    0.8968   15.0869   -0.7070 H   0  0  0  0  0  0  0  0  0  0  0  0
    2.6136   15.6224   -0.9363 H   0  0  0  0  0  0  0  0  0  0  0  0
    0.1360   16.3911   -2.0348 H   0  0  0  0  0  0  0  0  0  0  0  0
    2.4717   18.1667    0.3959 H   0  0  0  0  0  0  0  0  0  0  0  0
    3.5830   17.3710   -0.7697 H   0  0  0  0  0  0  0  0  0  0  0  0
    3.4116   19.1590   -0.7697 H   0  0  0  0  0  0  0  0  0  0  0  0
    0.6601   19.7578   -0.8563 H   0  0  0  0  0  0  0  0  0  0  0  0
    1.5313   20.0702   -2.3958 H   0  0  0  0  0  0  0  0  0  0  0  0
    0.0367   19.0738   -2.3958 H   0  0  0  0  0  0  0  0  0  0  0  0
   -0.5331   12.7684   -4.2804 H   0  0  0  0  0  0  0  0  0  0  0  0
    1.5020   11.6283   -4.9106 H   0  0  0  0  0  0  0  0  0  0  0  0
    2.4008   12.3105   -3.5385 H   0  0  0  0  0  0  0  0  0  0  0  0
    1.4191    9.6326   -3.7140 H   0  0  0  0  0  0  0  0  0  0  0  0
    1.9609   10.3893   -2.2181 H   0  0  0  0  0  0  0  0  0  0  0  0
   -1.9790    9.6078   -3.4713 H   0  0  0  0  0  0  0  0  0  0  0  0
   -1.3124   10.9799   -4.4198 H   0  0  0  0  0  0  0  0  0  0  0  0
   -0.4686    9.3942   -4.4198 H   0  0  0  0  0  0  0  0  0  0  0  0
    0.2057   10.0271   -0.5895 H   0  0  0  0  0  0  0  0  0  0  0  0
    0.4604    8.0170   -2.1819 H   0  0  0  0  0  0  0  0  0  0  0  0
   -0.1436    7.7948   -0.4568 H   0  0  0  0  0  0  0  0  0  0  0  0
   -1.3844    6.4003   -2.3155 H   0  0  0  0  0  0  0  0  0  0  0  0
   -3.3641    9.9194   -2.2549 H   0  0  0  0  0  0  0  0  0  0  0  0
   -4.1828    8.5364    0.3740 H   0  0  0  0  0  0  0  0  0  0  0  0
   -4.7198   10.1726   -0.2136 H   0  0  0  0  0  0  0  0  0  0  0  0
   -6.4540    8.4406   -0.5513 H   0  0  0  0  0  0  0  0  0  0  0  0
   -5.8581    9.1557   -2.1006 H   0  0  0  0  0  0  0  0  0  0  0  0
   -6.0733    6.7831   -2.3794 H   0  0  0  0  0  0  0  0  0  0  0  0
   -5.3690    6.7240    0.1590 H   0  0  0  0  0  0  0  0  0  0  0  0
   -4.7410    8.7899   -3.8174 H   0  0  0  0  0  0  0  0  0  0  0  0
   -3.3578    7.9319   -4.5772 H   0  0  0  0  0  0  0  0  0  0  0  0
   -4.9897    7.1813   -4.5772 H   0  0  0  0  0  0  0  0  0  0  0  0
   -3.5075    5.0735   -2.0503 H   0  0  0  0  0  0  0  0  0  0  0  0
   -4.4570    5.1989   -3.5700 H   0  0  0  0  0  0  0  0  0  0  0  0
   -2.7054    5.5968   -3.5700 H   0  0  0  0  0  0  0  0  0  0  0  0
   -2.0430   10.4679    1.4753 H   0  0  0  0  0  0  0  0  0  0  0  0
   -2.6694    8.8440    1.0315 H   0  0  0  0  0  0  0  0  0  0  0  0
   -0.9003    9.1550    1.0315 H   0  0  0  0  0  0  0  0  0  0  0  0
   -3.3610   11.6974   -0.5804 H   0  0  0  0  0  0  0  0  0  0  0  0
   -1.6958   11.9781    0.1841 H   0  0  0  0  0  0  0  0  0  0  0  0
   -2.4287   12.1155   -2.7527 H   0  0  0  0  0  0  0  0  0  0  0  0
   -1.8927   13.4511   -1.6593 H   0  0  0  0  0  0  0  0  0  0  0  0
    0.0246   12.2629   -0.0626 H   0  0  0  0  0  0  0  0  0  0  0  0
    1.5132   12.0314   -1.0411 H   0  0  0  0  0  0  0  0  0  0  0  0
    0.6765   13.6210   -1.0411 H   0  0  0  0  0  0  0  0  0  0  0  0
  1  2  1  0
  2  3  1  0
  3  4  1  0
  4  5  1  0
  5  6  1  0
  6  7  1  0
  7  8  1  0
  7  9  1  0
  2 10  1  0
 10 11  1  0
 11 12  1  0
 12 13  1  0
 13 14  1  6
 13 15  1  0
 15 16  1  0
 16 17  1  0
 17 18  2  0
 18 19  1  0
 19 20  1  0
 20 21  1  0
 21 22  1  0
 22 23  1  0
 22 24  1  0
 24 25  1  0
 24 26  1  0
 19 27  1  0
 27 28  1  1
 27 29  1  0
 29 30  1  0
 30 31  1  0
 31 32  1  1
  7  5  1  0
 31 10  1  0
 31 13  1  0
 27 15  1  0
 24 18  1  0
  1 33  1  0
  1 34  1  0
  1 35  1  0
  2 36  1  1
  3 37  1  0
  3 38  1  0
  4 39  1  0
  4 40  1  0
  5 41  1  6
  8 42  1  0
  8 43  1  0
  8 44  1  0
  9 45  1  0
  9 46  1  0
  9 47  1  0
 10 48  1  6
 11 49  1  0
 11 50  1  0
 12 51  1  0
 12 52  1  0
 14 53  1  0
 14 54  1  0
 14 55  1  0
 15 56  1  1
 16 57  1  0
 16 58  1  0
 17 59  1  0
 19 60  1  6
 20 61  1  0
 20 62  1  0
 21 63  1  0
 21 64  1  0
 22 65  1  6
 23 66  1  0
 25 67  1  0
 25 68  1  0
 25 69  1  0
 26 70  1  0
 26 71  1  0
 26 72  1  0
 28 73  1  0
 28 74  1  0
 28 75  1  0
 29 76  1  0
 29 77  1  0
 30 78  1  0
 30 79  1  0
 32 80  1  0
 32 81  1  0
 32 82  1  0
M  END
>  <meeko>  (18) 
{"is_sidechain": [false], "intermolecular_energy": 2.731, "internal_energy": -0.839}

$$$$
EPH_relaxed_0001_pdb2pqr_Repair_182_r2_0001_out
     RDKit          3D

 82 86  0  0  0  0  0  0  0  0999 V2000
    3.7580    9.6570    0.0570 C   0  0  0  0  0  0  0  0  0  0  0  0
    2.3470   10.1200   -0.3150 C   0  0  2  0  0  0  0  0  0  0  0  0
    1.5770    9.0510   -1.1160 C   0  0  0  0  0  0  0  0  0  0  0  0
    0.2300    8.6680   -0.4960 C   0  0  0  0  0  0  0  0  0  0  0  0
   -0.7420    8.1910   -1.5320 C   0  0  2  0  0  0  0  0  0  0  0  0
   -1.2620    9.2200   -2.3830 O   0  0  0  0  0  0  0  0  0  0  0  0
   -2.2130    8.5610   -1.5320 C   0  0  0  0  0  0  0  0  0  0  0  0
   -2.7960    9.4440   -0.4730 C   0  0  0  0  0  0  0  0  0  0  0  0
   -3.1730    7.6800   -2.2690 C   0  0  0  0  0  0  0  0  0  0  0  0
    2.4180   11.4170   -1.1110 C   0  0  1  0  0  0  0  0  0  0  0  0
    2.2370   11.1930   -2.6360 C   0  0  0  0  0  0  0  0  0  0  0  0
    1.4690   12.4250   -3.1820 C   0  0  0  0  0  0  0  0  0  0  0  0
    1.5260   13.4590   -2.0340 C   0  0  1  0  0  0  0  0  0  0  0  0
    2.9340   14.1220   -2.1610 C   0  0  0  0  0  0  0  0  0  0  0  0
    0.3850   14.5280   -2.0090 C   0  0  2  0  0  0  0  0  0  0  0  0
    0.3370   15.4590   -3.2340 C   0  0  0  0  0  0  0  0  0  0  0  0
    1.1330   16.7150   -3.1110 C   0  0  0  0  0  0  0  0  0  0  0  0
    1.6260   17.2210   -1.9650 C   0  0  0  0  0  0  0  0  0  0  0  0
    1.3140   16.5620   -0.6160 C   0  0  1  0  0  0  0  0  0  0  0  0
    0.9030   17.6510    0.4100 C   0  0  0  0  0  0  0  0  0  0  0  0
    1.9400   18.7630    0.5290 C   0  0  0  0  0  0  0  0  0  0  0  0
    2.1800   19.4330   -0.8210 C   0  0  2  0  0  0  0  0  0  0  0  0
    0.9900   20.1250   -1.2110 O   0  0  0  0  0  0  0  0  0  0  0  0
    2.5910   18.4310   -1.9370 C   0  0  0  0  0  0  0  0  0  0  0  0
    4.0220   17.9060   -1.6640 C   0  0  0  0  0  0  0  0  0  0  0  0
    2.6640   19.2130   -3.2770 C   0  0  0  0  0  0  0  0  0  0  0  0
    0.2920   15.3460   -0.6580 C   0  0  1  0  0  0  0  0  0  0  0  0
   -1.1710   15.8770   -0.5590 C   0  0  0  0  0  0  0  0  0  0  0  0
    0.5210   14.4380    0.6080 C   0  0  0  0  0  0  0  0  0  0  0  0
    1.5770   13.3230    0.4820 C   0  0  0  0  0  0  0  0  0  0  0  0
    1.3610   12.5050   -0.7950 C   0  0  2  0  0  0  0  0  0  0  0  0
   -0.0380   11.8090   -0.6860 C   0  0  0  0  0  0  0  0  0  0  0  0
    3.8565    9.6247    1.1521 H   0  0  0  0  0  0  0  0  0  0  0  0
    3.9356    8.6534   -0.3569 H   0  0  0  0  0  0  0  0  0  0  0  0
    4.4957   10.3602   -0.3569 H   0  0  0  0  0  0  0  0  0  0  0  0
    1.7969   10.2894    0.6224 H   0  0  0  0  0  0  0  0  0  0  0  0
    1.3950    9.4401   -2.1286 H   0  0  0  0  0  0  0  0  0  0  0  0
    2.1984    8.1433   -1.1203 H   0  0  0  0  0  0  0  0  0  0  0  0
    0.3911    7.8648    0.2381 H   0  0  0  0  0  0  0  0  0  0  0  0
   -0.1928    9.5626   -0.0155 H   0  0  0  0  0  0  0  0  0  0  0  0
   -0.2248    7.2230   -1.6057 H   0  0  0  0  0  0  0  0  0  0  0  0
   -2.5346    9.0480    0.5194 H   0  0  0  0  0  0  0  0  0  0  0  0
   -2.3914   10.4613   -0.5801 H   0  0  0  0  0  0  0  0  0  0  0  0
   -3.8904    9.4715   -0.5801 H   0  0  0  0  0  0  0  0  0  0  0  0
   -3.7843    7.1190   -1.5468 H   0  0  0  0  0  0  0  0  0  0  0  0
   -3.8273    8.2986   -2.9009 H   0  0  0  0  0  0  0  0  0  0  0  0
   -2.6128    6.9751   -2.9009 H   0  0  0  0  0  0  0  0  0  0  0  0
    3.4170   11.7639   -0.8083 H   0  0  0  0  0  0  0  0  0  0  0  0
    3.2185   11.1111   -3.1258 H   0  0  0  0  0  0  0  0  0  0  0  0
    1.6842   10.2632   -2.8354 H   0  0  0  0  0  0  0  0  0  0  0  0
    1.9586   12.8193   -4.0847 H   0  0  0  0  0  0  0  0  0  0  0  0
    0.4367   12.1789   -3.4714 H   0  0  0  0  0  0  0  0  0  0  0  0
    3.3409   14.3136   -1.1572 H   0  0  0  0  0  0  0  0  0  0  0  0
    3.6091   13.4472   -2.7077 H   0  0  0  0  0  0  0  0  0  0  0  0
    2.8439   15.0723   -2.7077 H   0  0  0  0  0  0  0  0  0  0  0  0
   -0.5212   13.9073   -2.0687 H   0  0  0  0  0  0  0  0  0  0  0  0
    0.7169   14.8993   -4.1015 H   0  0  0  0  0  0  0  0  0  0  0  0
   -0.7123   15.7724   -3.3373 H   0  0  0  0  0  0  0  0  0  0  0  0
    1.3342   17.2755   -4.0359 H   0  0  0  0  0  0  0  0  0  0  0  0
    2.2466   16.0771   -0.2918 H   0  0  0  0  0  0  0  0  0  0  0  0
   -0.0528   18.0927    0.0917 H   0  0  0  0  0  0  0  0  0  0  0  0
    0.8174   17.1673    1.3942 H   0  0  0  0  0  0  0  0  0  0  0  0
    1.5796   19.5159    1.2454 H   0  0  0  0  0  0  0  0  0  0  0  0
    2.8870   18.3237    0.8758 H   0  0  0  0  0  0  0  0  0  0  0  0
    3.0222   20.1299   -0.6983 H   0  0  0  0  0  0  0  0  0  0  0  0
    0.7080   20.6710   -0.4580 H   0  0  0  0  0  0  0  0  0  0  0  0
    4.1892   17.8447   -0.5785 H   0  0  0  0  0  0  0  0  0  0  0  0
    4.1373   16.9070   -2.1098 H   0  0  0  0  0  0  0  0  0  0  0  0
    4.7560   18.5934   -2.1098 H   0  0  0  0  0  0  0  0  0  0  0  0
    2.7644   20.2885   -3.0689 H   0  0  0  0  0  0  0  0  0  0  0  0
    3.5339   18.8687   -3.8555 H   0  0  0  0  0  0  0  0  0  0  0  0
    1.7454   19.0357   -3.8555 H   0  0  0  0  0  0  0  0  0  0  0  0
   -1.4531   15.9794    0.4993 H   0  0  0  0  0  0  0  0  0  0  0  0
   -1.2395   16.8573   -1.0532 H   0  0  0  0  0  0  0  0  0  0  0  0
   -1.8523   15.1688   -1.0532 H   0  0  0  0  0  0  0  0  0  0  0  0
    0.8267   15.0936    1.4367 H   0  0  0  0  0  0  0  0  0  0  0  0
   -0.4337   13.9139    0.7625 H   0  0  0  0  0  0  0  0  0  0  0  0
    2.5784   13.7774    0.4532 H   0  0  0  0  0  0  0  0  0  0  0  0
    1.4835   12.6518    1.3485 H   0  0  0  0  0  0  0  0  0  0  0  0
   -0.3009   11.6782    0.3741 H   0  0  0  0  0  0  0  0  0  0  0  0
   -0.7979   12.4341   -1.1778 H   0  0  0  0  0  0  0  0  0  0  0  0
    0.0023   10.8259   -1.1778 H   0  0  0  0  0  0  0  0  0  0  0  0
  1  2  1  0
  2  3  1  0
  3  4  1  0
  4  5  1  0
  5  6  1  0
  6  7  1  0
  7  8  1  0
  7  9  1  0
  2 10  1  0
 10 11  1  0
 11 12  1  0
 12 13  1  0
 13 14  1  1
 13 15  1  0
 15 16  1  0
 16 17  1  0
 17 18  2  0
 18 19  1  0
 19 20  1  0
 20 21  1  0
 21 22  1  0
 22 23  1  0
 22 24  1  0
 24 25  1  0
 24 26  1  0
 19 27  1  0
 27 28  1  1
 27 29  1  0
 29 30  1  0
 30 31  1  0
 31 32  1  1
  7  5  1  0
 31 10  1  0
 31 13  1  0
 27 15  1  0
 24 18  1  0
  1 33  1  0
  1 34  1  0
  1 35  1  0
  2 36  1  1
  3 37  1  0
  3 38  1  0
  4 39  1  0
  4 40  1  0
  5 41  1  6
  8 42  1  0
  8 43  1  0
  8 44  1  0
  9 45  1  0
  9 46  1  0
  9 47  1  0
 10 48  1  6
 11 49  1  0
 11 50  1  0
 12 51  1  0
 12 52  1  0
 14 53  1  0
 14 54  1  0
 14 55  1  0
 15 56  1  6
 16 57  1  0
 16 58  1  0
 17 59  1  0
 19 60  1  1
 20 61  1  0
 20 62  1  0
 21 63  1  0
 21 64  1  0
 22 65  1  1
 23 66  1  0
 25 67  1  0
 25 68  1  0
 25 69  1  0
 26 70  1  0
 26 71  1  0
 26 72  1  0
 28 73  1  0
 28 74  1  0
 28 75  1  0
 29 76  1  0
 29 77  1  0
 30 78  1  0
 30 79  1  0
 32 80  1  0
 32 81  1  0
 32 82  1  0
M  END
>  <meeko>  (19) 
{"is_sidechain": [false], "intermolecular_energy": 2.731, "internal_energy": -0.839}

$$$$
