EPH_relaxed_0001_pdb2pqr_Repair_171_r2_0001_out
     RDKit          3D

 82 86  0  0  0  0  0  0  0  0999 V2000
   -3.6050    7.4300   -3.3700 C   0  0  0  0  0  0  0  0  0  0  0  0
   -3.4770    7.4960   -1.8450 C   0  0  2  0  0  0  0  0  0  0  0  0
   -4.8290    7.2740   -1.1390 C   0  0  0  0  0  0  0  0  0  0  0  0
   -5.9380    6.7830   -2.0730 C   0  0  0  0  0  0  0  0  0  0  0  0
   -7.2990    7.1190   -1.5420 C   0  0  2  0  0  0  0  0  0  0  0  0
   -8.0820    5.9870   -1.1430 O   0  0  0  0  0  0  0  0  0  0  0  0
   -8.5880    6.7480   -2.2510 C   0  0  0  0  0  0  0  0  0  0  0  0
   -8.5780    6.0090   -3.5520 C   0  0  0  0  0  0  0  0  0  0  0  0
   -9.8280    7.5250   -1.9330 C   0  0  0  0  0  0  0  0  0  0  0  0
   -2.8870    8.8390   -1.4310 C   0  0  1  0  0  0  0  0  0  0  0  0
   -3.4390    9.3400   -0.0700 C   0  0  0  0  0  0  0  0  0  0  0  0
   -2.2770   10.0850    0.6370 C   0  0  0  0  0  0  0  0  0  0  0  0
   -1.2090   10.2770   -0.4650 C   0  0  1  0  0  0  0  0  0  0  0  0
   -1.6860   11.5250   -1.2720 C   0  0  0  0  0  0  0  0  0  0  0  0
    0.2670   10.4350    0.0240 C   0  0  2  0  0  0  0  0  0  0  0  0
    0.5350   11.6690    0.9030 C   0  0  0  0  0  0  0  0  0  0  0  0
    0.9430   12.9010    0.1660 C   0  0  0  0  0  0  0  0  0  0  0  0
    1.3650   12.9440   -1.1120 C   0  0  0  0  0  0  0  0  0  0  0  0
    1.5570   11.6560   -1.9220 C   0  0  1  0  0  0  0  0  0  0  0  0
    2.9200   11.7080   -2.6620 C   0  0  0  0  0  0  0  0  0  0  0  0
    3.0740   12.9630   -3.5160 C   0  0  0  0  0  0  0  0  0  0  0  0
    2.9340   14.2220   -2.6660 C   0  0  2  0  0  0  0  0  0  0  0  0
    4.0410   14.2940   -1.7630 O   0  0  0  0  0  0  0  0  0  0  0  0
    1.6020   14.2760   -1.8650 C   0  0  0  0  0  0  0  0  0  0  0  0
    0.4190   14.5030   -2.8380 C   0  0  0  0  0  0  0  0  0  0  0  0
    1.6500   15.5240   -0.9430 C   0  0  0  0  0  0  0  0  0  0  0  0
    1.3480   10.2980   -1.1230 C   0  0  1  0  0  0  0  0  0  0  0  0
    2.6810    9.8760   -0.4320 C   0  0  0  0  0  0  0  0  0  0  0  0
    0.9950    9.1510   -2.1430 C   0  0  0  0  0  0  0  0  0  0  0  0
   -0.4930    8.9670   -2.4950 C   0  0  0  0  0  0  0  0  0  0  0  0
   -1.3530    8.9100   -1.2280 C   0  0  2  0  0  0  0  0  0  0  0  0
   -0.9110    7.6510   -0.4070 C   0  0  0  0  0  0  0  0  0  0  0  0
   -4.5533    6.9410   -3.6375 H   0  0  0  0  0  0  0  0  0  0  0  0
   -3.5884    8.4491   -3.7838 H   0  0  0  0  0  0  0  0  0  0  0  0
   -2.7652    6.8525   -3.7838 H   0  0  0  0  0  0  0  0  0  0  0  0
   -2.8049    6.6829   -1.5335 H   0  0  0  0  0  0  0  0  0  0  0  0
   -4.6874    6.5261   -0.3449 H   0  0  0  0  0  0  0  0  0  0  0  0
   -5.1495    8.2496   -0.7446 H   0  0  0  0  0  0  0  0  0  0  0  0
   -5.8119    7.2583   -3.0570 H   0  0  0  0  0  0  0  0  0  0  0  0
   -5.8610    5.6885   -2.1513 H   0  0  0  0  0  0  0  0  0  0  0  0
   -6.9300    8.0705   -1.1314 H   0  0  0  0  0  0  0  0  0  0  0  0
   -8.5633    4.9262   -3.3586 H   0  0  0  0  0  0  0  0  0  0  0  0
   -9.4797    6.2666   -4.1269 H   0  0  0  0  0  0  0  0  0  0  0  0
   -7.6836    6.2909   -4.1269 H   0  0  0  0  0  0  0  0  0  0  0  0
   -9.9450    7.5983   -0.8417 H   0  0  0  0  0  0  0  0  0  0  0  0
   -9.7480    8.5348   -2.3619 H   0  0  0  0  0  0  0  0  0  0  0  0
  -10.7018    7.0127   -2.3619 H   0  0  0  0  0  0  0  0  0  0  0  0
   -3.1795    9.4446   -2.3014 H   0  0  0  0  0  0  0  0  0  0  0  0
   -4.2844   10.0247   -0.2330 H   0  0  0  0  0  0  0  0  0  0  0  0
   -3.8009    8.5010    0.5424 H   0  0  0  0  0  0  0  0  0  0  0  0
   -2.6167   11.0577    1.0222 H   0  0  0  0  0  0  0  0  0  0  0  0
   -1.8886    9.5270    1.5017 H   0  0  0  0  0  0  0  0  0  0  0  0
   -1.9895   12.3190   -0.5739 H   0  0  0  0  0  0  0  0  0  0  0  0
   -0.8634   11.8884   -1.9054 H   0  0  0  0  0  0  0  0  0  0  0  0
   -2.5413   11.2471   -1.9054 H   0  0  0  0  0  0  0  0  0  0  0  0
    0.3902    9.5645    0.6851 H   0  0  0  0  0  0  0  0  0  0  0  0
   -0.3859   11.8957    1.4602 H   0  0  0  0  0  0  0  0  0  0  0  0
    1.3863   11.4042    1.5473 H   0  0  0  0  0  0  0  0  0  0  0  0
    0.8949   13.8542    0.7129 H   0  0  0  0  0  0  0  0  0  0  0  0
    0.7360   11.6310   -2.6537 H   0  0  0  0  0  0  0  0  0  0  0  0
    3.7276   11.6881   -1.9155 H   0  0  0  0  0  0  0  0  0  0  0  0
    2.9687   10.8385   -3.3340 H   0  0  0  0  0  0  0  0  0  0  0  0
    4.0670   12.9568   -3.9891 H   0  0  0  0  0  0  0  0  0  0  0  0
    2.2833   12.9662   -4.2808 H   0  0  0  0  0  0  0  0  0  0  0  0
    2.9233   15.0826   -3.3510 H   0  0  0  0  0  0  0  0  0  0  0  0
    4.1100   15.2130   -1.4540 H   0  0  0  0  0  0  0  0  0  0  0  0
   -0.5011   14.6796   -2.2616 H   0  0  0  0  0  0  0  0  0  0  0  0
    0.6281   15.3774   -3.4718 H   0  0  0  0  0  0  0  0  0  0  0  0
    0.2896   13.6133   -3.4718 H   0  0  0  0  0  0  0  0  0  0  0  0
    1.6377   15.2033    0.1091 H   0  0  0  0  0  0  0  0  0  0  0  0
    2.5707   16.0920   -1.1424 H   0  0  0  0  0  0  0  0  0  0  0  0
    0.7757   16.1610   -1.1424 H   0  0  0  0  0  0  0  0  0  0  0  0
    2.5563    9.9155    0.6602 H   0  0  0  0  0  0  0  0  0  0  0  0
    2.9423    8.8512   -0.7344 H   0  0  0  0  0  0  0  0  0  0  0  0
    3.4845   10.5637   -0.7344 H   0  0  0  0  0  0  0  0  0  0  0  0
    1.5346    9.3601   -3.0784 H   0  0  0  0  0  0  0  0  0  0  0  0
    1.2886    8.2182   -1.6394 H   0  0  0  0  0  0  0  0  0  0  0  0
   -0.8231    9.8126   -3.1163 H   0  0  0  0  0  0  0  0  0  0  0  0
   -0.6098    8.0194   -3.0413 H   0  0  0  0  0  0  0  0  0  0  0  0
   -0.9876    7.8691    0.6684 H   0  0  0  0  0  0  0  0  0  0  0  0
   -1.5650    6.8024   -0.6565 H   0  0  0  0  0  0  0  0  0  0  0  0
    0.1299    7.3975   -0.6565 H   0  0  0  0  0  0  0  0  0  0  0  0
  1  2  1  0
  2  3  1  0
  3  4  1  0
  4  5  1  0
  5  6  1  0
  6  7  1  0
  7  8  1  0
  7  9  1  0
  2 10  1  0
 10 11  1  0
 11 12  1  0
 12 13  1  0
 13 14  1  6
 13 15  1  0
 15 16  1  0
 16 17  1  0
 17 18  2  0
 18 19  1  0
 19 20  1  0
 20 21  1  0
 21 22  1  0
 22 23  1  0
 22 24  1  0
 24 25  1  0
 24 26  1  0
 19 27  1  0
 27 28  1  1
 27 29  1  0
 29 30  1  0
 30 31  1  0
 31 32  1  1
  7  5  1  0
 31 10  1  0
 31 13  1  0
 27 15  1  0
 24 18  1  0
  1 33  1  0
  1 34  1  0
  1 35  1  0
  2 36  1  1
  3 37  1  0
  3 38  1  0
  4 39  1  0
  4 40  1  0
  5 41  1  1
  8 42  1  0
  8 43  1  0
  8 44  1  0
  9 45  1  0
  9 46  1  0
  9 47  1  0
 10 48  1  6
 11 49  1  0
 11 50  1  0
 12 51  1  0
 12 52  1  0
 14 53  1  0
 14 54  1  0
 14 55  1  0
 15 56  1  1
 16 57  1  0
 16 58  1  0
 17 59  1  0
 19 60  1  6
 20 61  1  0
 20 62  1  0
 21 63  1  0
 21 64  1  0
 22 65  1  6
 23 66  1  0
 25 67  1  0
 25 68  1  0
 25 69  1  0
 26 70  1  0
 26 71  1  0
 26 72  1  0
 28 73  1  0
 28 74  1  0
 28 75  1  0
 29 76  1  0
 29 77  1  0
 30 78  1  0
 30 79  1  0
 32 80  1  0
 32 81  1  0
 32 82  1  0
M  END
>  <meeko>  (1) 
{"is_sidechain": [false], "intermolecular_energy": 2.731, "internal_energy": -0.839}

$$$$
EPH_relaxed_0001_pdb2pqr_Repair_171_r2_0001_out
     RDKit          3D

 82 86  0  0  0  0  0  0  0  0999 V2000
   -5.1430    5.8800   -1.7710 C   0  0  0  0  0  0  0  0  0  0  0  0
   -5.4490    7.3790   -1.8450 C   0  0  2  0  0  0  0  0  0  0  0  0
   -5.2160    8.0860   -0.4940 C   0  0  0  0  0  0  0  0  0  0  0  0
   -4.1460    9.1790   -0.5490 C   0  0  0  0  0  0  0  0  0  0  0  0
   -2.7940    8.6170   -0.8710 C   0  0  2  0  0  0  0  0  0  0  0  0
   -1.7770    8.9110    0.0950 O   0  0  0  0  0  0  0  0  0  0  0  0
   -1.5910    9.4750   -1.2130 C   0  0  0  0  0  0  0  0  0  0  0  0
   -1.6830   10.9680   -1.2510 C   0  0  0  0  0  0  0  0  0  0  0  0
   -0.4660    8.8560   -1.9820 C   0  0  0  0  0  0  0  0  0  0  0  0
   -6.8870    7.5930   -2.3030 C   0  0  1  0  0  0  0  0  0  0  0  0
   -7.1930    6.8940   -3.6540 C   0  0  0  0  0  0  0  0  0  0  0  0
   -8.6640    6.4090   -3.5840 C   0  0  0  0  0  0  0  0  0  0  0  0
   -9.2520    7.1280   -2.3470 C   0  0  1  0  0  0  0  0  0  0  0  0
   -9.6160    8.5600   -2.8500 C   0  0  0  0  0  0  0  0  0  0  0  0
  -10.4710    6.4310   -1.6570 C   0  0  2  0  0  0  0  0  0  0  0  0
  -11.7270    6.2940   -2.5350 C   0  0  0  0  0  0  0  0  0  0  0  0
  -12.6900    7.4320   -2.4520 C   0  0  0  0  0  0  0  0  0  0  0  0
  -12.6970    8.3820   -1.4990 C   0  0  0  0  0  0  0  0  0  0  0  0
  -11.7280    8.3150   -0.3120 C   0  0  1  0  0  0  0  0  0  0  0  0
  -12.5020    8.5890    1.0050 C   0  0  0  0  0  0  0  0  0  0  0  0
  -13.2820    9.9000    0.9620 C   0  0  0  0  0  0  0  0  0  0  0  0
  -14.2760    9.9060   -0.1960 C   0  0  2  0  0  0  0  0  0  0  0  0
  -15.2850    8.9230    0.0570 O   0  0  0  0  0  0  0  0  0  0  0  0
  -13.6120    9.6300   -1.5740 C   0  0  0  0  0  0  0  0  0  0  0  0
  -12.7450   10.8440   -1.9870 C   0  0  0  0  0  0  0  0  0  0  0  0
  -14.7410    9.5220   -2.6350 C   0  0  0  0  0  0  0  0  0  0  0  0
  -10.8250    7.0100   -0.2280 C   0  0  1  0  0  0  0  0  0  0  0  0
  -11.5880    5.8820    0.5330 C   0  0  0  0  0  0  0  0  0  0  0  0
   -9.5390    7.3280    0.6240 C   0  0  0  0  0  0  0  0  0  0  0  0
   -8.3280    7.9030   -0.1350 C   0  0  0  0  0  0  0  0  0  0  0  0
   -8.0140    7.0680   -1.3800 C   0  0  2  0  0  0  0  0  0  0  0  0
   -7.6230    5.6280   -0.9040 C   0  0  0  0  0  0  0  0  0  0  0  0
   -5.0798    5.5703   -0.7174 H   0  0  0  0  0  0  0  0  0  0  0  0
   -5.9447    5.3170   -2.2712 H   0  0  0  0  0  0  0  0  0  0  0  0
   -4.1847    5.6763   -2.2712 H   0  0  0  0  0  0  0  0  0  0  0  0
   -4.7559    7.8234   -2.5745 H   0  0  0  0  0  0  0  0  0  0  0  0
   -6.1636    8.5433   -0.1732 H   0  0  0  0  0  0  0  0  0  0  0  0
   -4.8592    7.3216    0.2119 H   0  0  0  0  0  0  0  0  0  0  0  0
   -4.4221    9.9092   -1.3239 H   0  0  0  0  0  0  0  0  0  0  0  0
   -4.0919    9.6555    0.4410 H   0  0  0  0  0  0  0  0  0  0  0  0
   -3.2487    7.7502   -1.3729 H   0  0  0  0  0  0  0  0  0  0  0  0
   -1.7072   11.3601   -0.2236 H   0  0  0  0  0  0  0  0  0  0  0  0
   -0.8083   11.3760   -1.7787 H   0  0  0  0  0  0  0  0  0  0  0  0
   -2.6012   11.2655   -1.7787 H   0  0  0  0  0  0  0  0  0  0  0  0
    0.2764    8.4475   -1.2807 H   0  0  0  0  0  0  0  0  0  0  0  0
   -0.8568    8.0459   -2.6153 H   0  0  0  0  0  0  0  0  0  0  0  0
    0.0091    9.6197   -2.6153 H   0  0  0  0  0  0  0  0  0  0  0  0
   -6.9087    8.6924   -2.3335 H   0  0  0  0  0  0  0  0  0  0  0  0
   -7.0674    7.6040   -4.4848 H   0  0  0  0  0  0  0  0  0  0  0  0
   -6.5073    6.0514   -3.8268 H   0  0  0  0  0  0  0  0  0  0  0  0
   -9.2107    6.6935   -4.4951 H   0  0  0  0  0  0  0  0  0  0  0  0
   -8.7397    5.3144   -3.5061 H   0  0  0  0  0  0  0  0  0  0  0  0
   -9.7838    9.2203   -1.9864 H   0  0  0  0  0  0  0  0  0  0  0  0
   -8.7899    8.9557   -3.4590 H   0  0  0  0  0  0  0  0  0  0  0  0
  -10.5308    8.5132   -3.4590 H   0  0  0  0  0  0  0  0  0  0  0  0
  -10.1009    5.4066   -1.5033 H   0  0  0  0  0  0  0  0  0  0  0  0
  -11.4016    6.1997   -3.5815 H   0  0  0  0  0  0  0  0  0  0  0  0
  -12.2658    5.4113   -2.1601 H   0  0  0  0  0  0  0  0  0  0  0  0
  -13.4586    7.4995   -3.2360 H   0  0  0  0  0  0  0  0  0  0  0  0
  -10.9853    9.1088   -0.4805 H   0  0  0  0  0  0  0  0  0  0  0  0
  -13.2084    7.7636    1.1774 H   0  0  0  0  0  0  0  0  0  0  0  0
  -11.7639    8.6655    1.8170 H   0  0  0  0  0  0  0  0  0  0  0  0
  -13.8302   10.0238    1.9076 H   0  0  0  0  0  0  0  0  0  0  0  0
  -12.5709   10.7269    0.8184 H   0  0  0  0  0  0  0  0  0  0  0  0
  -14.7101   10.9151   -0.2530 H   0  0  0  0  0  0  0  0  0  0  0  0
  -15.8320    8.8500   -0.7430 H   0  0  0  0  0  0  0  0  0  0  0  0
  -12.3788   11.3567   -1.0853 H   0  0  0  0  0  0  0  0  0  0  0  0
  -11.8891   10.4970   -2.5846 H   0  0  0  0  0  0  0  0  0  0  0  0
  -13.3509   11.5410   -2.5846 H   0  0  0  0  0  0  0  0  0  0  0  0
  -15.7128    9.4290   -2.1281 H   0  0  0  0  0  0  0  0  0  0  0  0
  -14.7404   10.4243   -3.2642 H   0  0  0  0  0  0  0  0  0  0  0  0
  -14.5694    8.6362   -3.2642 H   0  0  0  0  0  0  0  0  0  0  0  0
  -11.4839    6.0359    1.6172 H   0  0  0  0  0  0  0  0  0  0  0  0
  -12.6530    5.9106    0.2592 H   0  0  0  0  0  0  0  0  0  0  0  0
  -11.1651    4.9041    0.2592 H   0  0  0  0  0  0  0  0  0  0  0  0
   -9.8238    8.0567    1.3972 H   0  0  0  0  0  0  0  0  0  0  0  0
   -9.2014    6.3548    1.0100 H   0  0  0  0  0  0  0  0  0  0  0  0
   -8.5525    8.9353   -0.4414 H   0  0  0  0  0  0  0  0  0  0  0  0
   -7.4535    7.8807    0.5318 H   0  0  0  0  0  0  0  0  0  0  0  0
   -7.6141    5.5951    0.1955 H   0  0  0  0  0  0  0  0  0  0  0  0
   -8.3569    4.9034   -1.2866 H   0  0  0  0  0  0  0  0  0  0  0  0
   -6.6234    5.3741   -1.2866 H   0  0  0  0  0  0  0  0  0  0  0  0
  1  2  1  0
  2  3  1  0
  3  4  1  0
  4  5  1  0
  5  6  1  0
  6  7  1  0
  7  8  1  0
  7  9  1  0
  2 10  1  0
 10 11  1  0
 11 12  1  0
 12 13  1  0
 13 14  1  6
 13 15  1  0
 15 16  1  0
 16 17  1  0
 17 18  2  0
 18 19  1  0
 19 20  1  0
 20 21  1  0
 21 22  1  0
 22 23  1  0
 22 24  1  0
 24 25  1  0
 24 26  1  0
 19 27  1  0
 27 28  1  1
 27 29  1  0
 29 30  1  0
 30 31  1  0
 31 32  1  1
  7  5  1  0
 31 10  1  0
 31 13  1  0
 27 15  1  0
 24 18  1  0
  1 33  1  0
  1 34  1  0
  1 35  1  0
  2 36  1  6
  3 37  1  0
  3 38  1  0
  4 39  1  0
  4 40  1  0
  5 41  1  6
  8 42  1  0
  8 43  1  0
  8 44  1  0
  9 45  1  0
  9 46  1  0
  9 47  1  0
 10 48  1  6
 11 49  1  0
 11 50  1  0
 12 51  1  0
 12 52  1  0
 14 53  1  0
 14 54  1  0
 14 55  1  0
 15 56  1  1
 16 57  1  0
 16 58  1  0
 17 59  1  0
 19 60  1  6
 20 61  1  0
 20 62  1  0
 21 63  1  0
 21 64  1  0
 22 65  1  6
 23 66  1  0
 25 67  1  0
 25 68  1  0
 25 69  1  0
 26 70  1  0
 26 71  1  0
 26 72  1  0
 28 73  1  0
 28 74  1  0
 28 75  1  0
 29 76  1  0
 29 77  1  0
 30 78  1  0
 30 79  1  0
 32 80  1  0
 32 81  1  0
 32 82  1  0
M  END
>  <meeko>  (2) 
{"is_sidechain": [false], "intermolecular_energy": 2.731, "internal_energy": -0.839}

$$$$
EPH_relaxed_0001_pdb2pqr_Repair_171_r2_0001_out
     RDKit          3D

 82 86  0  0  0  0  0  0  0  0999 V2000
   -0.9100    9.3420   -2.2030 C   0  0  0  0  0  0  0  0  0  0  0  0
   -1.2290    9.4570   -0.7090 C   0  0  2  0  0  0  0  0  0  0  0  0
   -2.7380    9.3160   -0.4250 C   0  0  0  0  0  0  0  0  0  0  0  0
   -3.4070    8.1810   -1.2040 C   0  0  0  0  0  0  0  0  0  0  0  0
   -4.8880    8.1510   -0.9780 C   0  0  2  0  0  0  0  0  0  0  0  0
   -5.4000    6.8880   -0.5320 O   0  0  0  0  0  0  0  0  0  0  0  0
   -5.8480    7.3340   -1.8220 C   0  0  0  0  0  0  0  0  0  0  0  0
   -5.3620    6.4900   -2.9590 C   0  0  0  0  0  0  0  0  0  0  0  0
   -7.2900    7.7330   -1.8560 C   0  0  0  0  0  0  0  0  0  0  0  0
   -0.7200   10.7890   -0.1700 C   0  0  1  0  0  0  0  0  0  0  0  0
    0.2620   10.6150    1.0190 C   0  0  0  0  0  0  0  0  0  0  0  0
    1.3150   11.7470    0.8990 C   0  0  0  0  0  0  0  0  0  0  0  0
    0.7230   12.7210   -0.1470 C   0  0  1  0  0  0  0  0  0  0  0  0
   -0.3030   13.5880    0.6490 C   0  0  0  0  0  0  0  0  0  0  0  0
    1.7490   13.6090   -0.9240 C   0  0  2  0  0  0  0  0  0  0  0  0
    2.5620   14.5820   -0.0520 C   0  0  0  0  0  0  0  0  0  0  0  0
    1.9560   15.9340    0.1300 C   0  0  0  0  0  0  0  0  0  0  0  0
    0.9550   16.4480   -0.6100 C   0  0  0  0  0  0  0  0  0  0  0  0
    0.3950   15.6850   -1.8160 C   0  0  1  0  0  0  0  0  0  0  0  0
    0.2620   16.6500   -3.0230 C   0  0  0  0  0  0  0  0  0  0  0  0
   -0.5540   17.8950   -2.6900 C   0  0  0  0  0  0  0  0  0  0  0  0
    0.0670   18.6580   -1.5230 C   0  0  2  0  0  0  0  0  0  0  0  0
    1.3300   19.1870   -1.9390 O   0  0  0  0  0  0  0  0  0  0  0  0
    0.2590   17.7850   -0.2520 C   0  0  0  0  0  0  0  0  0  0  0  0
   -1.1220   17.4620    0.3710 C   0  0  0  0  0  0  0  0  0  0  0  0
    1.0220   18.6340    0.8000 C   0  0  0  0  0  0  0  0  0  0  0  0
    1.1460   14.3360   -2.1930 C   0  0  1  0  0  0  0  0  0  0  0  0
    2.3450   14.6420   -3.1420 C   0  0  0  0  0  0  0  0  0  0  0  0
    0.1640   13.4100   -3.0030 C   0  0  0  0  0  0  0  0  0  0  0  0
   -0.7400   12.4700   -2.1830 C   0  0  0  0  0  0  0  0  0  0  0  0
    0.0760   11.6930   -1.1450 C   0  0  2  0  0  0  0  0  0  0  0  0
    1.1010   10.7950   -1.9170 C   0  0  0  0  0  0  0  0  0  0  0  0
    0.1178    8.9715   -2.3310 H   0  0  0  0  0  0  0  0  0  0  0  0
   -1.6140    8.6411   -2.6753 H   0  0  0  0  0  0  0  0  0  0  0  0
   -1.0048   10.3309   -2.6753 H   0  0  0  0  0  0  0  0  0  0  0  0
   -0.7178    8.6286   -0.1967 H   0  0  0  0  0  0  0  0  0  0  0  0
   -2.8728    9.1260    0.6500 H   0  0  0  0  0  0  0  0  0  0  0  0
   -3.2150   10.2529   -0.7486 H   0  0  0  0  0  0  0  0  0  0  0  0
   -3.2131    8.3228   -2.2774 H   0  0  0  0  0  0  0  0  0  0  0  0
   -2.9869    7.2281   -0.8498 H   0  0  0  0  0  0  0  0  0  0  0  0
   -4.8869    9.2094   -0.6784 H   0  0  0  0  0  0  0  0  0  0  0  0
   -4.8499    5.6007   -2.5628 H   0  0  0  0  0  0  0  0  0  0  0  0
   -6.2178    6.1764   -3.5748 H   0  0  0  0  0  0  0  0  0  0  0  0
   -4.6612    7.0728   -3.5748 H   0  0  0  0  0  0  0  0  0  0  0  0
   -7.6660    7.8370   -0.8275 H   0  0  0  0  0  0  0  0  0  0  0  0
   -7.3924    8.6932   -2.3827 H   0  0  0  0  0  0  0  0  0  0  0  0
   -7.8715    6.9620   -2.3827 H   0  0  0  0  0  0  0  0  0  0  0  0
   -1.6787   11.2640    0.0855 H   0  0  0  0  0  0  0  0  0  0  0  0
   -0.2791   10.7006    1.9728 H   0  0  0  0  0  0  0  0  0  0  0  0
    0.7415    9.6253    0.9936 H   0  0  0  0  0  0  0  0  0  0  0  0
    1.4534   12.2527    1.8660 H   0  0  0  0  0  0  0  0  0  0  0  0
    2.3040   11.3672    0.6028 H   0  0  0  0  0  0  0  0  0  0  0  0
   -0.1401   13.4503    1.7281 H   0  0  0  0  0  0  0  0  0  0  0  0
   -0.1662   14.6482    0.3898 H   0  0  0  0  0  0  0  0  0  0  0  0
   -1.3256   13.2762    0.3898 H   0  0  0  0  0  0  0  0  0  0  0  0
    2.4707   12.8662   -1.2946 H   0  0  0  0  0  0  0  0  0  0  0  0
    2.6831   14.1272    0.9422 H   0  0  0  0  0  0  0  0  0  0  0  0
    3.5125   14.7435   -0.5815 H   0  0  0  0  0  0  0  0  0  0  0  0
    2.3610   16.5633    0.9362 H   0  0  0  0  0  0  0  0  0  0  0  0
   -0.5999   15.3264   -1.5134 H   0  0  0  0  0  0  0  0  0  0  0  0
    1.2688   16.9621   -3.3374 H   0  0  0  0  0  0  0  0  0  0  0  0
   -0.2639   16.1110   -3.8248 H   0  0  0  0  0  0  0  0  0  0  0  0
   -0.5864   18.5509   -3.5725 H   0  0  0  0  0  0  0  0  0  0  0  0
   -1.5697   17.5833   -2.4050 H   0  0  0  0  0  0  0  0  0  0  0  0
   -0.6300   19.4630   -1.2470 H   0  0  0  0  0  0  0  0  0  0  0  0
    1.3260   19.2280   -2.9100 H   0  0  0  0  0  0  0  0  0  0  0  0
   -1.0427   17.4805    1.4680 H   0  0  0  0  0  0  0  0  0  0  0  0
   -1.8565   18.2126    0.0437 H   0  0  0  0  0  0  0  0  0  0  0  0
   -1.4474   16.4635    0.0437 H   0  0  0  0  0  0  0  0  0  0  0  0
    0.7324   18.3118    1.8111 H   0  0  0  0  0  0  0  0  0  0  0  0
    2.1051   18.4956    0.6672 H   0  0  0  0  0  0  0  0  0  0  0  0
    0.7691   19.6963    0.6672 H   0  0  0  0  0  0  0  0  0  0  0  0
    3.2384   14.8700   -2.5422 H   0  0  0  0  0  0  0  0  0  0  0  0
    2.5433   13.7657   -3.7766 H   0  0  0  0  0  0  0  0  0  0  0  0
    2.0991   15.5062   -3.7766 H   0  0  0  0  0  0  0  0  0  0  0  0
   -0.4895   14.0613   -3.6019 H   0  0  0  0  0  0  0  0  0  0  0  0
    0.8143   12.7444   -3.5895 H   0  0  0  0  0  0  0  0  0  0  0  0
   -1.5052   13.0673   -1.6656 H   0  0  0  0  0  0  0  0  0  0  0  0
   -1.2119   11.7507   -2.8685 H   0  0  0  0  0  0  0  0  0  0  0  0
    1.7255   10.2479   -1.1954 H   0  0  0  0  0  0  0  0  0  0  0  0
    0.5569   10.0776   -2.5489 H   0  0  0  0  0  0  0  0  0  0  0  0
    1.7406   11.4288   -2.5489 H   0  0  0  0  0  0  0  0  0  0  0  0
  1  2  1  0
  2  3  1  0
  3  4  1  0
  4  5  1  0
  5  6  1  0
  6  7  1  0
  7  8  1  0
  7  9  1  0
  2 10  1  0
 10 11  1  0
 11 12  1  0
 12 13  1  0
 13 14  1  1
 13 15  1  0
 15 16  1  0
 16 17  1  0
 17 18  2  0
 18 19  1  0
 19 20  1  0
 20 21  1  0
 21 22  1  0
 22 23  1  0
 22 24  1  0
 24 25  1  0
 24 26  1  0
 19 27  1  0
 27 28  1  6
 27 29  1  0
 29 30  1  0
 30 31  1  0
 31 32  1  6
  7  5  1  0
 31 10  1  0
 31 13  1  0
 27 15  1  0
 24 18  1  0
  1 33  1  0
  1 34  1  0
  1 35  1  0
  2 36  1  1
  3 37  1  0
  3 38  1  0
  4 39  1  0
  4 40  1  0
  5 41  1  1
  8 42  1  0
  8 43  1  0
  8 44  1  0
  9 45  1  0
  9 46  1  0
  9 47  1  0
 10 48  1  1
 11 49  1  0
 11 50  1  0
 12 51  1  0
 12 52  1  0
 14 53  1  0
 14 54  1  0
 14 55  1  0
 15 56  1  6
 16 57  1  0
 16 58  1  0
 17 59  1  0
 19 60  1  1
 20 61  1  0
 20 62  1  0
 21 63  1  0
 21 64  1  0
 22 65  1  1
 23 66  1  0
 25 67  1  0
 25 68  1  0
 25 69  1  0
 26 70  1  0
 26 71  1  0
 26 72  1  0
 28 73  1  0
 28 74  1  0
 28 75  1  0
 29 76  1  0
 29 77  1  0
 30 78  1  0
 30 79  1  0
 32 80  1  0
 32 81  1  0
 32 82  1  0
M  END
>  <meeko>  (3) 
{"is_sidechain": [false], "intermolecular_energy": 2.731, "internal_energy": -0.839}

$$$$
EPH_relaxed_0001_pdb2pqr_Repair_171_r2_0001_out
     RDKit          3D

 82 86  0  0  0  0  0  0  0  0999 V2000
    1.3000   16.9800    0.0450 C   0  0  0  0  0  0  0  0  0  0  0  0
    1.0700   17.0440   -1.4680 C   0  0  2  0  0  0  0  0  0  0  0  0
    0.1670   18.2280   -1.8680 C   0  0  0  0  0  0  0  0  0  0  0  0
    0.4930   19.5290   -1.1280 C   0  0  0  0  0  0  0  0  0  0  0  0
   -0.7440   20.1950   -0.6060 C   0  0  2  0  0  0  0  0  0  0  0  0
   -0.8660   20.1940    0.8220 O   0  0  0  0  0  0  0  0  0  0  0  0
   -1.8600   19.4490    0.1000 C   0  0  0  0  0  0  0  0  0  0  0  0
   -1.7930   17.9710    0.3230 C   0  0  0  0  0  0  0  0  0  0  0  0
   -3.2230   20.0680    0.1370 C   0  0  0  0  0  0  0  0  0  0  0  0
    0.4610   15.7360   -1.9580 C   0  0  1  0  0  0  0  0  0  0  0  0
    0.0870   15.7770   -3.4630 C   0  0  0  0  0  0  0  0  0  0  0  0
    0.3450   14.3570   -4.0280 C   0  0  0  0  0  0  0  0  0  0  0  0
    0.5380   13.4690   -2.7760 C   0  0  1  0  0  0  0  0  0  0  0  0
   -0.9090   13.1480   -2.2860 C   0  0  0  0  0  0  0  0  0  0  0  0
    1.3820   12.1680   -2.9750 C   0  0  2  0  0  0  0  0  0  0  0  0
    0.7870   11.1490   -3.9620 C   0  0  0  0  0  0  0  0  0  0  0  0
   -0.1220   10.1300   -3.3570 C   0  0  0  0  0  0  0  0  0  0  0  0
   -0.2270    9.8580   -2.0430 C   0  0  0  0  0  0  0  0  0  0  0  0
    0.6910   10.5400   -1.0210 C   0  0  1  0  0  0  0  0  0  0  0  0
    1.2510    9.4790   -0.0380 C   0  0  0  0  0  0  0  0  0  0  0  0
    0.1500    8.6570    0.6240 C   0  0  0  0  0  0  0  0  0  0  0  0
   -0.7060    7.9470   -0.4220 C   0  0  2  0  0  0  0  0  0  0  0  0
    0.0950    6.9630   -1.0820 O   0  0  0  0  0  0  0  0  0  0  0  0
   -1.3160    8.9160   -1.4730 C   0  0  0  0  0  0  0  0  0  0  0  0
   -2.4110    9.7850   -0.8070 C   0  0  0  0  0  0  0  0  0  0  0  0
   -2.0370    8.0600   -2.5490 C   0  0  0  0  0  0  0  0  0  0  0  0
    1.8280   11.4720   -1.6250 C   0  0  1  0  0  0  0  0  0  0  0  0
    3.0920   10.6220   -1.9590 C   0  0  0  0  0  0  0  0  0  0  0  0
    2.2710   12.5160   -0.5320 C   0  0  0  0  0  0  0  0  0  0  0  0
    1.4740   13.8320   -0.4650 C   0  0  0  0  0  0  0  0  0  0  0  0
    1.3360   14.4620   -1.8550 C   0  0  2  0  0  0  0  0  0  0  0  0
    2.7750   14.8160   -2.3650 C   0  0  0  0  0  0  0  0  0  0  0  0
    0.3681   17.2393    0.5688 H   0  0  0  0  0  0  0  0  0  0  0  0
    1.6077   15.9621    0.3264 H   0  0  0  0  0  0  0  0  0  0  0  0
    2.0893   17.6926    0.3264 H   0  0  0  0  0  0  0  0  0  0  0  0
    2.0491   17.1991   -1.9449 H   0  0  0  0  0  0  0  0  0  0  0  0
    0.2833   18.4041   -2.9476 H   0  0  0  0  0  0  0  0  0  0  0  0
   -0.8627   17.9530   -1.5959 H   0  0  0  0  0  0  0  0  0  0  0  0
    1.1588   19.3010   -0.2826 H   0  0  0  0  0  0  0  0  0  0  0  0
    0.9780   20.2150   -1.8381 H   0  0  0  0  0  0  0  0  0  0  0  0
   -0.7474   20.9032   -1.4477 H   0  0  0  0  0  0  0  0  0  0  0  0
   -1.7836   17.7632    1.4032 H   0  0  0  0  0  0  0  0  0  0  0  0
   -2.6703   17.4909   -0.1351 H   0  0  0  0  0  0  0  0  0  0  0  0
   -0.8759   17.5723   -0.1351 H   0  0  0  0  0  0  0  0  0  0  0  0
   -3.5334   20.2090    1.1828 H   0  0  0  0  0  0  0  0  0  0  0  0
   -3.1970   21.0426   -0.3723 H   0  0  0  0  0  0  0  0  0  0  0  0
   -3.9398   19.4071   -0.3723 H   0  0  0  0  0  0  0  0  0  0  0  0
   -0.3941   15.6623   -1.2700 H   0  0  0  0  0  0  0  0  0  0  0  0
   -0.9731   16.0451   -3.5825 H   0  0  0  0  0  0  0  0  0  0  0  0
    0.6856   16.5291   -3.9979 H   0  0  0  0  0  0  0  0  0  0  0  0
   -0.5156   14.0121   -4.6200 H   0  0  0  0  0  0  0  0  0  0  0  0
    1.2156   14.3267   -4.6996 H   0  0  0  0  0  0  0  0  0  0  0  0
   -0.9311   13.1431   -1.1862 H   0  0  0  0  0  0  0  0  0  0  0  0
   -1.6023   13.9142   -2.6632 H   0  0  0  0  0  0  0  0  0  0  0  0
   -1.2133   12.1605   -2.6632 H   0  0  0  0  0  0  0  0  0  0  0  0
    2.2952   12.5503   -3.4544 H   0  0  0  0  0  0  0  0  0  0  0  0
    0.2172   11.7044   -4.7215 H   0  0  0  0  0  0  0  0  0  0  0  0
    1.6404   10.5896   -4.3728 H   0  0  0  0  0  0  0  0  0  0  0  0
   -0.7595    9.5531   -4.0432 H   0  0  0  0  0  0  0  0  0  0  0  0
    0.0594   11.2568   -0.4757 H   0  0  0  0  0  0  0  0  0  0  0  0
    1.9136    8.7988   -0.5932 H   0  0  0  0  0  0  0  0  0  0  0  0
    1.7930   10.0128    0.7565 H   0  0  0  0  0  0  0  0  0  0  0  0
    0.6090    7.9057    1.2835 H   0  0  0  0  0  0  0  0  0  0  0  0
   -0.4942    9.3353    1.2027 H   0  0  0  0  0  0  0  0  0  0  0  0
   -1.5525    7.4815    0.1041 H   0  0  0  0  0  0  0  0  0  0  0  0
   -0.1320    6.9850   -2.0270 H   0  0  0  0  0  0  0  0  0  0  0  0
   -2.3209    9.7135    0.2870 H   0  0  0  0  0  0  0  0  0  0  0  0
   -2.2867   10.8329   -1.1174 H   0  0  0  0  0  0  0  0  0  0  0  0
   -3.4033    9.4259   -1.1174 H   0  0  0  0  0  0  0  0  0  0  0  0
   -2.6703    7.3081   -2.0555 H   0  0  0  0  0  0  0  0  0  0  0  0
   -2.6627    8.7113   -3.1769 H   0  0  0  0  0  0  0  0  0  0  0  0
   -1.2888    7.5541   -3.1769 H   0  0  0  0  0  0  0  0  0  0  0  0
    3.5735   10.2982   -1.0245 H   0  0  0  0  0  0  0  0  0  0  0  0
    2.7959    9.7388   -2.5440 H   0  0  0  0  0  0  0  0  0  0  0  0
    3.7982   11.2294   -2.5440 H   0  0  0  0  0  0  0  0  0  0  0  0
    2.1874   12.0261    0.4493 H   0  0  0  0  0  0  0  0  0  0  0  0
    3.2921   12.8121   -0.8141 H   0  0  0  0  0  0  0  0  0  0  0  0
    0.4713   13.6252   -0.0627 H   0  0  0  0  0  0  0  0  0  0  0  0
    2.0132   14.5354    0.1865 H   0  0  0  0  0  0  0  0  0  0  0  0
    3.4394   14.9794   -1.5037 H   0  0  0  0  0  0  0  0  0  0  0  0
    3.1624   13.9864   -2.9746 H   0  0  0  0  0  0  0  0  0  0  0  0
    2.7333   15.7307   -2.9746 H   0  0  0  0  0  0  0  0  0  0  0  0
  1  2  1  0
  2  3  1  0
  3  4  1  0
  4  5  1  0
  5  6  1  0
  6  7  1  0
  7  8  1  0
  7  9  1  0
  2 10  1  0
 10 11  1  0
 11 12  1  0
 12 13  1  0
 13 14  1  1
 13 15  1  0
 15 16  1  0
 16 17  1  0
 17 18  2  0
 18 19  1  0
 19 20  1  0
 20 21  1  0
 21 22  1  0
 22 23  1  0
 22 24  1  0
 24 25  1  0
 24 26  1  0
 19 27  1  0
 27 28  1  6
 27 29  1  0
 29 30  1  0
 30 31  1  0
 31 32  1  6
  7  5  1  0
 31 10  1  0
 31 13  1  0
 27 15  1  0
 24 18  1  0
  1 33  1  0
  1 34  1  0
  1 35  1  0
  2 36  1  6
  3 37  1  0
  3 38  1  0
  4 39  1  0
  4 40  1  0
  5 41  1  6
  8 42  1  0
  8 43  1  0
  8 44  1  0
  9 45  1  0
  9 46  1  0
  9 47  1  0
 10 48  1  1
 11 49  1  0
 11 50  1  0
 12 51  1  0
 12 52  1  0
 14 53  1  0
 14 54  1  0
 14 55  1  0
 15 56  1  6
 16 57  1  0
 16 58  1  0
 17 59  1  0
 19 60  1  1
 20 61  1  0
 20 62  1  0
 21 63  1  0
 21 64  1  0
 22 65  1  1
 23 66  1  0
 25 67  1  0
 25 68  1  0
 25 69  1  0
 26 70  1  0
 26 71  1  0
 26 72  1  0
 28 73  1  0
 28 74  1  0
 28 75  1  0
 29 76  1  0
 29 77  1  0
 30 78  1  0
 30 79  1  0
 32 80  1  0
 32 81  1  0
 32 82  1  0
M  END
>  <meeko>  (4) 
{"is_sidechain": [false], "intermolecular_energy": 2.731, "internal_energy": -0.839}

$$$$
EPH_relaxed_0001_pdb2pqr_Repair_171_r2_0001_out
     RDKit          3D

 82 86  0  0  0  0  0  0  0  0999 V2000
   -4.9930    8.6080   -0.5030 C   0  0  0  0  0  0  0  0  0  0  0  0
   -5.3340    7.4950   -1.4980 C   0  0  2  0  0  0  0  0  0  0  0  0
   -4.3310    7.4340   -2.6670 C   0  0  0  0  0  0  0  0  0  0  0  0
   -2.8940    7.1380   -2.2300 C   0  0  0  0  0  0  0  0  0  0  0  0
   -1.9440    8.2030   -2.6890 C   0  0  2  0  0  0  0  0  0  0  0  0
   -0.5720    7.9680   -2.3480 O   0  0  0  0  0  0  0  0  0  0  0  0
   -1.1880    9.1150   -1.7410 C   0  0  0  0  0  0  0  0  0  0  0  0
   -1.3500    9.0040   -0.2570 C   0  0  0  0  0  0  0  0  0  0  0  0
   -0.6760   10.4210   -2.2610 C   0  0  0  0  0  0  0  0  0  0  0  0
   -6.7480    7.6920   -2.0330 C   0  0  1  0  0  0  0  0  0  0  0  0
   -6.9650    7.0080   -3.4090 C   0  0  0  0  0  0  0  0  0  0  0  0
   -8.4290    6.4970   -3.4280 C   0  0  0  0  0  0  0  0  0  0  0  0
   -9.0980    7.1860   -2.2160 C   0  0  1  0  0  0  0  0  0  0  0  0
   -9.4590    8.6190   -2.7180 C   0  0  0  0  0  0  0  0  0  0  0  0
  -10.3400    6.4580   -1.6070 C   0  0  2  0  0  0  0  0  0  0  0  0
  -11.5430    6.3130   -2.5560 C   0  0  0  0  0  0  0  0  0  0  0  0
  -12.5290    7.4330   -2.5100 C   0  0  0  0  0  0  0  0  0  0  0  0
  -12.6070    8.3680   -1.5450 C   0  0  0  0  0  0  0  0  0  0  0  0
  -11.7050    8.2980   -0.3060 C   0  0  1  0  0  0  0  0  0  0  0  0
  -12.5560    8.5390    0.9680 C   0  0  0  0  0  0  0  0  0  0  0  0
  -13.3560    9.8360    0.9010 C   0  0  0  0  0  0  0  0  0  0  0  0
  -14.2830    9.8430   -0.3110 C   0  0  2  0  0  0  0  0  0  0  0  0
  -15.2870    8.8400   -0.1290 O   0  0  0  0  0  0  0  0  0  0  0  0
  -13.5390    9.6000   -1.6540 C   0  0  0  0  0  0  0  0  0  0  0  0
  -12.6720   10.8360   -1.9990 C   0  0  0  0  0  0  0  0  0  0  0  0
  -14.6050    9.4900   -2.7770 C   0  0  0  0  0  0  0  0  0  0  0  0
  -10.7840    7.0080   -0.1910 C   0  0  1  0  0  0  0  0  0  0  0  0
  -11.5680    5.8560    0.5090 C   0  0  0  0  0  0  0  0  0  0  0  0
   -9.5540    7.3350    0.7360 C   0  0  0  0  0  0  0  0  0  0  0  0
   -8.3130    7.9430    0.0550 C   0  0  0  0  0  0  0  0  0  0  0  0
   -7.9150    7.1330   -1.1820 C   0  0  2  0  0  0  0  0  0  0  0  0
   -7.5250    5.6920   -0.7060 C   0  0  0  0  0  0  0  0  0  0  0  0
   -5.1087    8.2302    0.5236 H   0  0  0  0  0  0  0  0  0  0  0  0
   -3.9539    8.9335   -0.6589 H   0  0  0  0  0  0  0  0  0  0  0  0
   -5.6714    9.4597   -0.6589 H   0  0  0  0  0  0  0  0  0  0  0  0
   -5.2706    6.5380   -0.9594 H   0  0  0  0  0  0  0  0  0  0  0  0
   -4.6532    6.6429   -3.3601 H   0  0  0  0  0  0  0  0  0  0  0  0
   -4.3255    8.4280   -3.1381 H   0  0  0  0  0  0  0  0  0  0  0  0
   -2.8603    7.0794   -1.1321 H   0  0  0  0  0  0  0  0  0  0  0  0
   -2.5866    6.1851   -2.6854 H   0  0  0  0  0  0  0  0  0  0  0  0
   -2.5654    8.4096   -3.5728 H   0  0  0  0  0  0  0  0  0  0  0  0
   -0.5415    9.5579    0.2425 H   0  0  0  0  0  0  0  0  0  0  0  0
   -2.3214    9.4272    0.0385 H   0  0  0  0  0  0  0  0  0  0  0  0
   -1.3061    7.9453    0.0385 H   0  0  0  0  0  0  0  0  0  0  0  0
   -0.4189   11.0767   -1.4160 H   0  0  0  0  0  0  0  0  0  0  0  0
    0.2199   10.2455   -2.8747 H   0  0  0  0  0  0  0  0  0  0  0  0
   -1.4525   10.9011   -2.8747 H   0  0  0  0  0  0  0  0  0  0  0  0
   -6.7883    8.7911   -2.0492 H   0  0  0  0  0  0  0  0  0  0  0  0
   -6.8059    7.7323   -4.2215 H   0  0  0  0  0  0  0  0  0  0  0  0
   -6.2555    6.1802   -3.5551 H   0  0  0  0  0  0  0  0  0  0  0  0
   -8.9292    6.7862   -4.3640 H   0  0  0  0  0  0  0  0  0  0  0  0
   -8.4889    5.4002   -3.3700 H   0  0  0  0  0  0  0  0  0  0  0  0
   -9.6253    9.2791   -1.8540 H   0  0  0  0  0  0  0  0  0  0  0  0
   -8.6321    9.0133   -3.3269 H   0  0  0  0  0  0  0  0  0  0  0  0
  -10.3740    8.5745   -3.3269 H   0  0  0  0  0  0  0  0  0  0  0  0
   -9.9603    5.4378   -1.4488 H   0  0  0  0  0  0  0  0  0  0  0  0
  -11.1584    6.2405   -3.5840 H   0  0  0  0  0  0  0  0  0  0  0  0
  -12.0858    5.4154   -2.2249 H   0  0  0  0  0  0  0  0  0  0  0  0
  -13.2535    7.4998   -3.3350 H   0  0  0  0  0  0  0  0  0  0  0  0
  -10.9677    9.1063   -0.4201 H   0  0  0  0  0  0  0  0  0  0  0  0
  -13.2559    7.6990    1.0885 H   0  0  0  0  0  0  0  0  0  0  0  0
  -11.8655    8.6166    1.8207 H   0  0  0  0  0  0  0  0  0  0  0  0
  -13.9588    9.9348    1.8158 H   0  0  0  0  0  0  0  0  0  0  0  0
  -12.6534   10.6776    0.8105 H   0  0  0  0  0  0  0  0  0  0  0  0
  -14.7302   10.8457   -0.3779 H   0  0  0  0  0  0  0  0  0  0  0  0
  -14.8540    7.9730   -0.2050 H   0  0  0  0  0  0  0  0  0  0  0  0
  -12.3341   11.3178   -1.0697 H   0  0  0  0  0  0  0  0  0  0  0  0
  -11.7978   10.5183   -2.5862 H   0  0  0  0  0  0  0  0  0  0  0  0
  -13.2683   11.5498   -2.5862 H   0  0  0  0  0  0  0  0  0  0  0  0
  -15.6031    9.3870   -2.3263 H   0  0  0  0  0  0  0  0  0  0  0  0
  -14.5758   10.3959   -3.4003 H   0  0  0  0  0  0  0  0  0  0  0  0
  -14.3915    8.6091   -3.4003 H   0  0  0  0  0  0  0  0  0  0  0  0
  -11.4904    5.9700    1.6003 H   0  0  0  0  0  0  0  0  0  0  0  0
  -12.6258    5.8980    0.2102 H   0  0  0  0  0  0  0  0  0  0  0  0
  -11.1408    4.8874    0.2102 H   0  0  0  0  0  0  0  0  0  0  0  0
   -9.8949    8.0464    1.5026 H   0  0  0  0  0  0  0  0  0  0  0  0
   -9.2206    6.3619    1.1257 H   0  0  0  0  0  0  0  0  0  0  0  0
   -8.5388    8.9759   -0.2485 H   0  0  0  0  0  0  0  0  0  0  0  0
   -7.4769    7.9259    0.7696 H   0  0  0  0  0  0  0  0  0  0  0  0
   -7.5160    5.6589    0.3935 H   0  0  0  0  0  0  0  0  0  0  0  0
   -8.2595    4.9681   -1.0887 H   0  0  0  0  0  0  0  0  0  0  0  0
   -6.5256    5.4374   -1.0887 H   0  0  0  0  0  0  0  0  0  0  0  0
  1  2  1  0
  2  3  1  0
  3  4  1  0
  4  5  1  0
  5  6  1  0
  6  7  1  0
  7  8  1  0
  7  9  1  0
  2 10  1  0
 10 11  1  0
 11 12  1  0
 12 13  1  0
 13 14  1  6
 13 15  1  0
 15 16  1  0
 16 17  1  0
 17 18  2  0
 18 19  1  0
 19 20  1  0
 20 21  1  0
 21 22  1  0
 22 23  1  0
 22 24  1  0
 24 25  1  0
 24 26  1  0
 19 27  1  0
 27 28  1  1
 27 29  1  0
 29 30  1  0
 30 31  1  0
 31 32  1  1
  7  5  1  0
 31 10  1  0
 31 13  1  0
 27 15  1  0
 24 18  1  0
  1 33  1  0
  1 34  1  0
  1 35  1  0
  2 36  1  1
  3 37  1  0
  3 38  1  0
  4 39  1  0
  4 40  1  0
  5 41  1  6
  8 42  1  0
  8 43  1  0
  8 44  1  0
  9 45  1  0
  9 46  1  0
  9 47  1  0
 10 48  1  6
 11 49  1  0
 11 50  1  0
 12 51  1  0
 12 52  1  0
 14 53  1  0
 14 54  1  0
 14 55  1  0
 15 56  1  1
 16 57  1  0
 16 58  1  0
 17 59  1  0
 19 60  1  6
 20 61  1  0
 20 62  1  0
 21 63  1  0
 21 64  1  0
 22 65  1  6
 23 66  1  0
 25 67  1  0
 25 68  1  0
 25 69  1  0
 26 70  1  0
 26 71  1  0
 26 72  1  0
 28 73  1  0
 28 74  1  0
 28 75  1  0
 29 76  1  0
 29 77  1  0
 30 78  1  0
 30 79  1  0
 32 80  1  0
 32 81  1  0
 32 82  1  0
M  END
>  <meeko>  (5) 
{"is_sidechain": [false], "intermolecular_energy": 2.731, "internal_energy": -0.839}

$$$$
EPH_relaxed_0001_pdb2pqr_Repair_171_r2_0001_out
     RDKit          3D

 82 86  0  0  0  0  0  0  0  0999 V2000
   -1.3670   10.4160    1.5580 C   0  0  0  0  0  0  0  0  0  0  0  0
   -2.0050   10.0940    0.2040 C   0  0  2  0  0  0  0  0  0  0  0  0
   -2.8230    8.7880    0.2430 C   0  0  0  0  0  0  0  0  0  0  0  0
   -4.2010    8.9040   -0.4140 C   0  0  0  0  0  0  0  0  0  0  0  0
   -4.7440    7.5630   -0.8040 C   0  0  2  0  0  0  0  0  0  0  0  0
   -4.8300    7.3400   -2.2180 O   0  0  0  0  0  0  0  0  0  0  0  0
   -6.0770    7.3720   -1.5040 C   0  0  0  0  0  0  0  0  0  0  0  0
   -6.9490    8.5370   -1.8540 C   0  0  0  0  0  0  0  0  0  0  0  0
   -6.7500    6.0380   -1.4080 C   0  0  0  0  0  0  0  0  0  0  0  0
   -0.9270   10.0030   -0.8700 C   0  0  1  0  0  0  0  0  0  0  0  0
   -1.3690    9.1490   -2.0880 C   0  0  0  0  0  0  0  0  0  0  0  0
   -0.7290    9.7960   -3.3430 C   0  0  0  0  0  0  0  0  0  0  0  0
    0.3170   10.7870   -2.7810 C   0  0  1  0  0  0  0  0  0  0  0  0
    1.5620    9.9090   -2.4440 C   0  0  0  0  0  0  0  0  0  0  0  0
    0.6930   11.9920   -3.7030 C   0  0  2  0  0  0  0  0  0  0  0  0
    1.3500   11.6090   -5.0410 C   0  0  0  0  0  0  0  0  0  0  0  0
    2.8400   11.5240   -5.0180 C   0  0  0  0  0  0  0  0  0  0  0  0
    3.6370   12.0190   -4.0530 C   0  0  0  0  0  0  0  0  0  0  0  0
    3.0540   12.8310   -2.8890 C   0  0  1  0  0  0  0  0  0  0  0  0
    3.9060   14.1080   -2.6710 C   0  0  0  0  0  0  0  0  0  0  0  0
    5.3880   13.7980   -2.4810 C   0  0  0  0  0  0  0  0  0  0  0  0
    5.9450   13.0410   -3.6840 C   0  0  2  0  0  0  0  0  0  0  0  0
    5.9280   13.9080   -4.8220 O   0  0  0  0  0  0  0  0  0  0  0  0
    5.1600   11.7390   -4.0070 C   0  0  0  0  0  0  0  0  0  0  0  0
    5.4270   10.6840   -2.9050 C   0  0  0  0  0  0  0  0  0  0  0  0
    5.7340   11.1490   -5.3230 C   0  0  0  0  0  0  0  0  0  0  0  0
    1.4980   13.1420   -2.9720 C   0  0  1  0  0  0  0  0  0  0  0  0
    1.2590   14.4450   -3.7950 C   0  0  0  0  0  0  0  0  0  0  0  0
    0.9520   13.4260   -1.5230 C   0  0  0  0  0  0  0  0  0  0  0  0
    0.4840   12.2060   -0.7050 C   0  0  0  0  0  0  0  0  0  0  0  0
   -0.4630   11.3270   -1.5270 C   0  0  2  0  0  0  0  0  0  0  0  0
   -1.7360   12.1770   -1.8620 C   0  0  0  0  0  0  0  0  0  0  0  0
   -2.0330   10.0799    2.3664 H   0  0  0  0  0  0  0  0  0  0  0  0
   -0.4001    9.8979    1.6402 H   0  0  0  0  0  0  0  0  0  0  0  0
   -1.2095   11.5016    1.6402 H   0  0  0  0  0  0  0  0  0  0  0  0
   -2.7009   10.9112   -0.0367 H   0  0  0  0  0  0  0  0  0  0  0  0
   -2.2535    8.0060   -0.2806 H   0  0  0  0  0  0  0  0  0  0  0  0
   -2.9919    8.5465    1.3028 H   0  0  0  0  0  0  0  0  0  0  0  0
   -4.8956    9.3771    0.2958 H   0  0  0  0  0  0  0  0  0  0  0  0
   -4.0960    9.5098   -1.3262 H   0  0  0  0  0  0  0  0  0  0  0  0
   -4.3086    7.0991    0.0934 H   0  0  0  0  0  0  0  0  0  0  0  0
   -7.3079    9.0166   -0.9314 H   0  0  0  0  0  0  0  0  0  0  0  0
   -6.3709    9.2635   -2.4439 H   0  0  0  0  0  0  0  0  0  0  0  0
   -7.8090    8.1871   -2.4439 H   0  0  0  0  0  0  0  0  0  0  0  0
   -6.8849    5.7707   -0.3495 H   0  0  0  0  0  0  0  0  0  0  0  0
   -7.7317    6.0862   -1.9020 H   0  0  0  0  0  0  0  0  0  0  0  0
   -6.1279    5.2771   -1.9020 H   0  0  0  0  0  0  0  0  0  0  0  0
   -0.1087    9.5728   -0.2739 H   0  0  0  0  0  0  0  0  0  0  0  0
   -1.0152    8.1138   -1.9733 H   0  0  0  0  0  0  0  0  0  0  0  0
   -2.4653    9.1204   -2.1736 H   0  0  0  0  0  0  0  0  0  0  0  0
   -0.2436    9.0325   -3.9687 H   0  0  0  0  0  0  0  0  0  0  0  0
   -1.4739   10.2935   -3.9815 H   0  0  0  0  0  0  0  0  0  0  0  0
    1.6715    9.8318   -1.3522 H   0  0  0  0  0  0  0  0  0  0  0  0
    1.4285    8.9041   -2.8711 H   0  0  0  0  0  0  0  0  0  0  0  0
    2.4637   10.3721   -2.8711 H   0  0  0  0  0  0  0  0  0  0  0  0
   -0.2922   12.4075   -3.9614 H   0  0  0  0  0  0  0  0  0  0  0  0
    0.9581   10.6266   -5.3433 H   0  0  0  0  0  0  0  0  0  0  0  0
    1.1020   12.4175   -5.7444 H   0  0  0  0  0  0  0  0  0  0  0  0
    3.3281   11.0135   -5.8613 H   0  0  0  0  0  0  0  0  0  0  0  0
    3.1199   12.1829   -2.0026 H   0  0  0  0  0  0  0  0  0  0  0  0
    3.7923   14.7617   -3.5484 H   0  0  0  0  0  0  0  0  0  0  0  0
    3.5469   14.5960   -1.7529 H   0  0  0  0  0  0  0  0  0  0  0  0
    5.9408   14.7415   -2.3617 H   0  0  0  0  0  0  0  0  0  0  0  0
    5.5035   13.1691   -1.5859 H   0  0  0  0  0  0  0  0  0  0  0  0
    6.9711   12.7336   -3.4336 H   0  0  0  0  0  0  0  0  0  0  0  0
    5.8230   13.3530   -5.6130 H   0  0  0  0  0  0  0  0  0  0  0  0
    5.3092   11.1496   -1.9154 H   0  0  0  0  0  0  0  0  0  0  0  0
    4.7100    9.8562   -3.0085 H   0  0  0  0  0  0  0  0  0  0  0  0
    6.4514   10.2969   -3.0085 H   0  0  0  0  0  0  0  0  0  0  0  0
    6.4827   10.3794   -5.0839 H   0  0  0  0  0  0  0  0  0  0  0  0
    4.9193   10.6984   -5.9089 H   0  0  0  0  0  0  0  0  0  0  0  0
    6.2068   11.9510   -5.9089 H   0  0  0  0  0  0  0  0  0  0  0  0
    1.1041   15.2896   -3.1076 H   0  0  0  0  0  0  0  0  0  0  0  0
    2.1356   14.6442   -4.4290 H   0  0  0  0  0  0  0  0  0  0  0  0
    0.3688   14.3202   -4.4290 H   0  0  0  0  0  0  0  0  0  0  0  0
    1.7551   13.9189   -0.9555 H   0  0  0  0  0  0  0  0  0  0  0  0
    0.0494   14.0372   -1.6702 H   0  0  0  0  0  0  0  0  0  0  0  0
    1.3617   11.6120   -0.4102 H   0  0  0  0  0  0  0  0  0  0  0  0
   -0.0537   12.5651    0.1849 H   0  0  0  0  0  0  0  0  0  0  0  0
   -2.2183   12.4990   -0.9273 H   0  0  0  0  0  0  0  0  0  0  0  0
   -1.4429   13.0613   -2.4469 H   0  0  0  0  0  0  0  0  0  0  0  0
   -2.4404   11.5674   -2.4469 H   0  0  0  0  0  0  0  0  0  0  0  0
  1  2  1  0
  2  3  1  0
  3  4  1  0
  4  5  1  0
  5  6  1  0
  6  7  1  0
  7  8  1  0
  7  9  1  0
  2 10  1  0
 10 11  1  0
 11 12  1  0
 12 13  1  0
 13 14  1  1
 13 15  1  0
 15 16  1  0
 16 17  1  0
 17 18  2  0
 18 19  1  0
 19 20  1  0
 20 21  1  0
 21 22  1  0
 22 23  1  0
 22 24  1  0
 24 25  1  0
 24 26  1  0
 19 27  1  0
 27 28  1  6
 27 29  1  0
 29 30  1  0
 30 31  1  0
 31 32  1  6
  7  5  1  0
 31 10  1  0
 31 13  1  0
 27 15  1  0
 24 18  1  0
  1 33  1  0
  1 34  1  0
  1 35  1  0
  2 36  1  6
  3 37  1  0
  3 38  1  0
  4 39  1  0
  4 40  1  0
  5 41  1  1
  8 42  1  0
  8 43  1  0
  8 44  1  0
  9 45  1  0
  9 46  1  0
  9 47  1  0
 10 48  1  1
 11 49  1  0
 11 50  1  0
 12 51  1  0
 12 52  1  0
 14 53  1  0
 14 54  1  0
 14 55  1  0
 15 56  1  6
 16 57  1  0
 16 58  1  0
 17 59  1  0
 19 60  1  1
 20 61  1  0
 20 62  1  0
 21 63  1  0
 21 64  1  0
 22 65  1  1
 23 66  1  0
 25 67  1  0
 25 68  1  0
 25 69  1  0
 26 70  1  0
 26 71  1  0
 26 72  1  0
 28 73  1  0
 28 74  1  0
 28 75  1  0
 29 76  1  0
 29 77  1  0
 30 78  1  0
 30 79  1  0
 32 80  1  0
 32 81  1  0
 32 82  1  0
M  END
>  <meeko>  (6) 
{"is_sidechain": [false], "intermolecular_energy": 2.731, "internal_energy": -0.839}

$$$$
EPH_relaxed_0001_pdb2pqr_Repair_171_r2_0001_out
     RDKit          3D

 82 86  0  0  0  0  0  0  0  0999 V2000
   -0.1000   17.9050   -2.0010 C   0  0  0  0  0  0  0  0  0  0  0  0
   -0.4060   16.6570   -1.1680 C   0  0  2  0  0  0  0  0  0  0  0  0
   -0.7920   17.0080    0.2830 C   0  0  0  0  0  0  0  0  0  0  0  0
   -0.6870   18.5020    0.6040 C   0  0  0  0  0  0  0  0  0  0  0  0
    0.5370   18.8110    1.4120 C   0  0  2  0  0  0  0  0  0  0  0  0
    0.6980   20.1940    1.7500 O   0  0  0  0  0  0  0  0  0  0  0  0
    1.7010   19.6320    0.8880 C   0  0  0  0  0  0  0  0  0  0  0  0
    1.6960   20.1940   -0.4990 C   0  0  0  0  0  0  0  0  0  0  0  0
    3.0380   19.4750    1.5410 C   0  0  0  0  0  0  0  0  0  0  0  0
    0.7970   15.7210   -1.1740 C   0  0  1  0  0  0  0  0  0  0  0  0
    1.2760   15.3530    0.2560 C   0  0  0  0  0  0  0  0  0  0  0  0
    1.7790   13.8880    0.1960 C   0  0  0  0  0  0  0  0  0  0  0  0
    1.8850   13.5730   -1.3140 C   0  0  1  0  0  0  0  0  0  0  0  0
    3.2470   14.1920   -1.7590 C   0  0  0  0  0  0  0  0  0  0  0  0
    1.7780   12.0660   -1.7150 C   0  0  2  0  0  0  0  0  0  0  0  0
    2.8880   11.1610   -1.1540 C   0  0  0  0  0  0  0  0  0  0  0  0
    4.0930   11.0160   -2.0240 C   0  0  0  0  0  0  0  0  0  0  0  0
    4.1640   11.3530   -3.3250 C   0  0  0  0  0  0  0  0  0  0  0  0
    2.9230   11.8510   -4.0780 C   0  0  1  0  0  0  0  0  0  0  0  0
    2.8180   11.1210   -5.4430 C   0  0  0  0  0  0  0  0  0  0  0  0
    4.0930   11.2450   -6.2720 C   0  0  0  0  0  0  0  0  0  0  0  0
    5.2940   10.6870   -5.5120 C   0  0  2  0  0  0  0  0  0  0  0  0
    5.1280    9.2740   -5.3630 O   0  0  0  0  0  0  0  0  0  0  0  0
    5.4940   11.3410   -4.1170 C   0  0  0  0  0  0  0  0  0  0  0  0
    5.9700   12.8040   -4.2910 C   0  0  0  0  0  0  0  0  0  0  0  0
    6.6490   10.5910   -3.4000 C   0  0  0  0  0  0  0  0  0  0  0  0
    1.5590   11.8200   -3.2630 C   0  0  1  0  0  0  0  0  0  0  0  0
    0.8880   10.4190   -3.4010 C   0  0  0  0  0  0  0  0  0  0  0  0
    0.5580   12.8560   -3.8970 C   0  0  0  0  0  0  0  0  0  0  0  0
    0.6320   14.3040   -3.3750 C   0  0  0  0  0  0  0  0  0  0  0  0
    0.6160   14.3350   -1.8430 C   0  0  2  0  0  0  0  0  0  0  0  0
   -0.7530   13.7390   -1.3670 C   0  0  0  0  0  0  0  0  0  0  0  0
    0.1076   18.7517   -1.3302 H   0  0  0  0  0  0  0  0  0  0  0  0
    0.7784   17.7160   -2.6356 H   0  0  0  0  0  0  0  0  0  0  0  0
   -0.9662   18.1438   -2.6356 H   0  0  0  0  0  0  0  0  0  0  0  0
   -1.2703   16.1556   -1.6280 H   0  0  0  0  0  0  0  0  0  0  0  0
   -1.8308   16.6885    0.4530 H   0  0  0  0  0  0  0  0  0  0  0  0
   -0.0798   16.4873    0.9400 H   0  0  0  0  0  0  0  0  0  0  0  0
   -0.6437   19.0670   -0.3388 H   0  0  0  0  0  0  0  0  0  0  0  0
   -1.5693   18.7884    1.1952 H   0  0  0  0  0  0  0  0  0  0  0  0
    0.4896   17.8276    1.9025 H   0  0  0  0  0  0  0  0  0  0  0  0
    1.6862   21.2928   -0.4493 H   0  0  0  0  0  0  0  0  0  0  0  0
    2.5972   19.8591   -1.0336 H   0  0  0  0  0  0  0  0  0  0  0  0
    0.8009   19.8431   -1.0336 H   0  0  0  0  0  0  0  0  0  0  0  0
    2.9161   19.4893    2.6341 H   0  0  0  0  0  0  0  0  0  0  0  0
    3.4857   18.5181    1.2345 H   0  0  0  0  0  0  0  0  0  0  0  0
    3.6952   20.3021    1.2345 H   0  0  0  0  0  0  0  0  0  0  0  0
    1.5024   16.3318   -1.7565 H   0  0  0  0  0  0  0  0  0  0  0  0
    2.0928   16.0216    0.5657 H   0  0  0  0  0  0  0  0  0  0  0  0
    0.4601   15.4609    0.9858 H   0  0  0  0  0  0  0  0  0  0  0  0
    2.7614   13.7946    0.6820 H   0  0  0  0  0  0  0  0  0  0  0  0
    1.1055   13.1941    0.7204 H   0  0  0  0  0  0  0  0  0  0  0  0
    3.8361   14.4597   -0.8695 H   0  0  0  0  0  0  0  0  0  0  0  0
    3.8040   13.4586   -2.3606 H   0  0  0  0  0  0  0  0  0  0  0  0
    3.0608   15.0939   -2.3606 H   0  0  0  0  0  0  0  0  0  0  0  0
    0.8530   11.7533   -1.2085 H   0  0  0  0  0  0  0  0  0  0  0  0
    3.2131   11.5795   -0.1900 H   0  0  0  0  0  0  0  0  0  0  0  0
    2.4489   10.1558   -1.0721 H   0  0  0  0  0  0  0  0  0  0  0  0
    4.9997   10.5982   -1.5622 H   0  0  0  0  0  0  0  0  0  0  0  0
    3.0780   12.9277   -4.2415 H   0  0  0  0  0  0  0  0  0  0  0  0
    2.6196   10.0549   -5.2585 H   0  0  0  0  0  0  0  0  0  0  0  0
    2.0026   11.5918   -6.0118 H   0  0  0  0  0  0  0  0  0  0  0  0
    3.9684   10.6844   -7.2102 H   0  0  0  0  0  0  0  0  0  0  0  0
    4.2736   12.3097   -6.4815 H   0  0  0  0  0  0  0  0  0  0  0  0
    6.1944   10.9213   -6.0988 H   0  0  0  0  0  0  0  0  0  0  0  0
    4.2940    9.1240   -4.8870 H   0  0  0  0  0  0  0  0  0  0  0  0
    6.1188   13.2613   -3.3017 H   0  0  0  0  0  0  0  0  0  0  0  0
    6.9188   12.8172   -4.8475 H   0  0  0  0  0  0  0  0  0  0  0  0
    5.2106   13.3729   -4.8475 H   0  0  0  0  0  0  0  0  0  0  0  0
    6.5201   10.6747   -2.3108 H   0  0  0  0  0  0  0  0  0  0  0  0
    6.6335    9.5302   -3.6906 H   0  0  0  0  0  0  0  0  0  0  0  0
    7.6117   11.0367   -3.6906 H   0  0  0  0  0  0  0  0  0  0  0  0
    0.6906   10.0068   -2.4004 H   0  0  0  0  0  0  0  0  0  0  0  0
   -0.0600   10.5189   -3.9500 H   0  0  0  0  0  0  0  0  0  0  0  0
    1.5601    9.7430   -3.9500 H   0  0  0  0  0  0  0  0  0  0  0  0
    0.7487   12.8827   -4.9800 H   0  0  0  0  0  0  0  0  0  0  0  0
   -0.4430   12.4990   -3.6133 H   0  0  0  0  0  0  0  0  0  0  0  0
    1.5615   14.7694   -3.7349 H   0  0  0  0  0  0  0  0  0  0  0  0
   -0.2436   14.8565   -3.7467 H   0  0  0  0  0  0  0  0  0  0  0  0
   -0.7845   13.7253   -0.2675 H   0  0  0  0  0  0  0  0  0  0  0  0
   -1.5762   14.3602   -1.7497 H   0  0  0  0  0  0  0  0  0  0  0  0
   -0.8592   12.7132   -1.7497 H   0  0  0  0  0  0  0  0  0  0  0  0
  1  2  1  0
  2  3  1  0
  3  4  1  0
  4  5  1  0
  5  6  1  0
  6  7  1  0
  7  8  1  0
  7  9  1  0
  2 10  1  0
 10 11  1  0
 11 12  1  0
 12 13  1  0
 13 14  1  6
 13 15  1  0
 15 16  1  0
 16 17  1  0
 17 18  2  0
 18 19  1  0
 19 20  1  0
 20 21  1  0
 21 22  1  0
 22 23  1  0
 22 24  1  0
 24 25  1  0
 24 26  1  0
 19 27  1  0
 27 28  1  1
 27 29  1  0
 29 30  1  0
 30 31  1  0
 31 32  1  1
  7  5  1  0
 31 10  1  0
 31 13  1  0
 27 15  1  0
 24 18  1  0
  1 33  1  0
  1 34  1  0
  1 35  1  0
  2 36  1  6
  3 37  1  0
  3 38  1  0
  4 39  1  0
  4 40  1  0
  5 41  1  1
  8 42  1  0
  8 43  1  0
  8 44  1  0
  9 45  1  0
  9 46  1  0
  9 47  1  0
 10 48  1  6
 11 49  1  0
 11 50  1  0
 12 51  1  0
 12 52  1  0
 14 53  1  0
 14 54  1  0
 14 55  1  0
 15 56  1  1
 16 57  1  0
 16 58  1  0
 17 59  1  0
 19 60  1  6
 20 61  1  0
 20 62  1  0
 21 63  1  0
 21 64  1  0
 22 65  1  6
 23 66  1  0
 25 67  1  0
 25 68  1  0
 25 69  1  0
 26 70  1  0
 26 71  1  0
 26 72  1  0
 28 73  1  0
 28 74  1  0
 28 75  1  0
 29 76  1  0
 29 77  1  0
 30 78  1  0
 30 79  1  0
 32 80  1  0
 32 81  1  0
 32 82  1  0
M  END
>  <meeko>  (7) 
{"is_sidechain": [false], "intermolecular_energy": 2.731, "internal_energy": -0.839}

$$$$
EPH_relaxed_0001_pdb2pqr_Repair_171_r2_0001_out
     RDKit          3D

 82 86  0  0  0  0  0  0  0  0999 V2000
   -3.0720    7.6690   -2.7860 C   0  0  0  0  0  0  0  0  0  0  0  0
   -3.4690    8.1040   -1.3720 C   0  0  2  0  0  0  0  0  0  0  0  0
   -4.9810    8.3800   -1.2520 C   0  0  0  0  0  0  0  0  0  0  0  0
   -5.8290    7.1130   -1.1070 C   0  0  0  0  0  0  0  0  0  0  0  0
   -6.4660    6.7200   -2.4060 C   0  0  2  0  0  0  0  0  0  0  0  0
   -7.1400    5.4550   -2.3840 O   0  0  0  0  0  0  0  0  0  0  0  0
   -5.9950    5.5490   -3.2480 C   0  0  0  0  0  0  0  0  0  0  0  0
   -4.8410    4.6970   -2.8230 C   0  0  0  0  0  0  0  0  0  0  0  0
   -6.3370    5.5320   -4.7050 C   0  0  0  0  0  0  0  0  0  0  0  0
   -2.6800    9.3430   -0.9680 C   0  0  1  0  0  0  0  0  0  0  0  0
   -2.9840    9.7980    0.4840 C   0  0  0  0  0  0  0  0  0  0  0  0
   -1.6600   10.3630    1.0620 C   0  0  0  0  0  0  0  0  0  0  0  0
   -0.7350   10.5220   -0.1670 C   0  0  1  0  0  0  0  0  0  0  0  0
   -1.1690   11.8690   -0.8250 C   0  0  0  0  0  0  0  0  0  0  0  0
    0.8030   10.4870    0.1170 C   0  0  2  0  0  0  0  0  0  0  0  0
    1.3250   11.6190    1.0200 C   0  0  0  0  0  0  0  0  0  0  0  0
    1.7690   12.8520    0.3040 C   0  0  0  0  0  0  0  0  0  0  0  0
    2.0180   12.9430   -1.0150 C   0  0  0  0  0  0  0  0  0  0  0  0
    1.9520   11.7040   -1.9170 C   0  0  1  0  0  0  0  0  0  0  0  0
    3.2000   11.6670   -2.8380 C   0  0  0  0  0  0  0  0  0  0  0  0
    3.3800   12.9570   -3.6320 C   0  0  0  0  0  0  0  0  0  0  0  0
    3.5010   14.1590   -2.6980 C   0  0  2  0  0  0  0  0  0  0  0  0
    4.7200   14.0470   -1.9580 O   0  0  0  0  0  0  0  0  0  0  0  0
    2.3040   14.2940   -1.7160 C   0  0  0  0  0  0  0  0  0  0  0  0
    1.0340   14.7140   -2.4980 C   0  0  0  0  0  0  0  0  0  0  0  0
    2.6170   15.4600   -0.7390 C   0  0  0  0  0  0  0  0  0  0  0  0
    1.6970   10.3210   -1.1780 C   0  0  1  0  0  0  0  0  0  0  0  0
    3.0530    9.7120   -0.7060 C   0  0  0  0  0  0  0  0  0  0  0  0
    1.0820    9.2950   -2.2020 C   0  0  0  0  0  0  0  0  0  0  0  0
   -0.4510    9.2960   -2.3500 C   0  0  0  0  0  0  0  0  0  0  0  0
   -1.1340    9.2370   -0.9800 C   0  0  2  0  0  0  0  0  0  0  0  0
   -0.7330    7.8820   -0.3030 C   0  0  0  0  0  0  0  0  0  0  0  0
   -2.3316    6.8577   -2.7257 H   0  0  0  0  0  0  0  0  0  0  0  0
   -3.9631    7.3130   -3.3239 H   0  0  0  0  0  0  0  0  0  0  0  0
   -2.6363    8.5239   -3.3239 H   0  0  0  0  0  0  0  0  0  0  0  0
   -3.2301    7.2733   -0.6917 H   0  0  0  0  0  0  0  0  0  0  0  0
   -5.1493    9.0134   -0.3685 H   0  0  0  0  0  0  0  0  0  0  0  0
   -5.2931    8.8703   -2.1859 H   0  0  0  0  0  0  0  0  0  0  0  0
   -5.1849    6.2905   -0.7627 H   0  0  0  0  0  0  0  0  0  0  0  0
   -6.6295    7.3176   -0.3808 H   0  0  0  0  0  0  0  0  0  0  0  0
   -6.6666    7.7729   -2.6532 H   0  0  0  0  0  0  0  0  0  0  0  0
   -4.7952    4.6632   -1.7245 H   0  0  0  0  0  0  0  0  0  0  0  0
   -4.9731    3.6781   -3.2160 H   0  0  0  0  0  0  0  0  0  0  0  0
   -3.9062    5.1232   -3.2160 H   0  0  0  0  0  0  0  0  0  0  0  0
   -7.4291    5.4777   -4.8247 H   0  0  0  0  0  0  0  0  0  0  0  0
   -5.9612    6.4499   -5.1806 H   0  0  0  0  0  0  0  0  0  0  0  0
   -5.8720    4.6559   -5.1806 H   0  0  0  0  0  0  0  0  0  0  0  0
   -3.0154   10.0385   -1.7514 H   0  0  0  0  0  0  0  0  0  0  0  0
   -3.7598   10.5778    0.4821 H   0  0  0  0  0  0  0  0  0  0  0  0
   -3.3542    8.9591    1.0916 H   0  0  0  0  0  0  0  0  0  0  0  0
   -1.8316   11.3351    1.5473 H   0  0  0  0  0  0  0  0  0  0  0  0
   -1.2253    9.7054    1.8293 H   0  0  0  0  0  0  0  0  0  0  0  0
   -1.4051   12.6016   -0.0392 H   0  0  0  0  0  0  0  0  0  0  0  0
   -0.3491   12.2528   -1.4498 H   0  0  0  0  0  0  0  0  0  0  0  0
   -2.0588   11.7019   -1.4498 H   0  0  0  0  0  0  0  0  0  0  0  0
    0.9149    9.5624    0.7023 H   0  0  0  0  0  0  0  0  0  0  0  0
    0.5186   11.9002    1.7133 H   0  0  0  0  0  0  0  0  0  0  0  0
    2.2185   11.2202    1.5226 H   0  0  0  0  0  0  0  0  0  0  0  0
    1.9039   13.7628    0.9059 H   0  0  0  0  0  0  0  0  0  0  0  0
    1.0427   11.8188   -2.5253 H   0  0  0  0  0  0  0  0  0  0  0  0
    4.0930   11.5087   -2.2155 H   0  0  0  0  0  0  0  0  0  0  0  0
    3.0585   10.8484   -3.5590 H   0  0  0  0  0  0  0  0  0  0  0  0
    4.2929   12.8807   -4.2410 H   0  0  0  0  0  0  0  0  0  0  0  0
    2.4995   13.0993   -4.2759 H   0  0  0  0  0  0  0  0  0  0  0  0
    3.4978   15.0642   -3.3230 H   0  0  0  0  0  0  0  0  0  0  0  0
    5.0970   13.1700   -2.1420 H   0  0  0  0  0  0  0  0  0  0  0  0
    0.2365   14.9777   -1.7877 H   0  0  0  0  0  0  0  0  0  0  0  0
    1.2639   15.5839   -3.1307 H   0  0  0  0  0  0  0  0  0  0  0  0
    0.6999   13.8785   -3.1307 H   0  0  0  0  0  0  0  0  0  0  0  0
    2.5218   15.1052    0.2978 H   0  0  0  0  0  0  0  0  0  0  0  0
    3.6429   15.8175   -0.9114 H   0  0  0  0  0  0  0  0  0  0  0  0
    1.9080   16.2832   -0.9114 H   0  0  0  0  0  0  0  0  0  0  0  0
    3.0855    9.6974    0.3934 H   0  0  0  0  0  0  0  0  0  0  0  0
    3.1470    8.6852   -1.0893 H   0  0  0  0  0  0  0  0  0  0  0  0
    3.8829   10.3238   -1.0893 H   0  0  0  0  0  0  0  0  0  0  0  0
    1.5119    9.5133   -3.1907 H   0  0  0  0  0  0  0  0  0  0  0  0
    1.3317    8.3021   -1.7998 H   0  0  0  0  0  0  0  0  0  0  0  0
   -0.7620   10.2153   -2.8678 H   0  0  0  0  0  0  0  0  0  0  0  0
   -0.7482    8.4089   -2.9286 H   0  0  0  0  0  0  0  0  0  0  0  0
   -0.7663    7.9946    0.7907 H   0  0  0  0  0  0  0  0  0  0  0  0
   -1.4368    7.0952   -0.6122 H   0  0  0  0  0  0  0  0  0  0  0  0
    0.2856    7.6050   -0.6122 H   0  0  0  0  0  0  0  0  0  0  0  0
  1  2  1  0
  2  3  1  0
  3  4  1  0
  4  5  1  0
  5  6  1  0
  6  7  1  0
  7  8  1  0
  7  9  1  0
  2 10  1  0
 10 11  1  0
 11 12  1  0
 12 13  1  0
 13 14  1  6
 13 15  1  0
 15 16  1  0
 16 17  1  0
 17 18  2  0
 18 19  1  0
 19 20  1  0
 20 21  1  0
 21 22  1  0
 22 23  1  0
 22 24  1  0
 24 25  1  0
 24 26  1  0
 19 27  1  0
 27 28  1  1
 27 29  1  0
 29 30  1  0
 30 31  1  0
 31 32  1  1
  7  5  1  0
 31 10  1  0
 31 13  1  0
 27 15  1  0
 24 18  1  0
  1 33  1  0
  1 34  1  0
  1 35  1  0
  2 36  1  1
  3 37  1  0
  3 38  1  0
  4 39  1  0
  4 40  1  0
  5 41  1  6
  8 42  1  0
  8 43  1  0
  8 44  1  0
  9 45  1  0
  9 46  1  0
  9 47  1  0
 10 48  1  6
 11 49  1  0
 11 50  1  0
 12 51  1  0
 12 52  1  0
 14 53  1  0
 14 54  1  0
 14 55  1  0
 15 56  1  1
 16 57  1  0
 16 58  1  0
 17 59  1  0
 19 60  1  6
 20 61  1  0
 20 62  1  0
 21 63  1  0
 21 64  1  0
 22 65  1  6
 23 66  1  0
 25 67  1  0
 25 68  1  0
 25 69  1  0
 26 70  1  0
 26 71  1  0
 26 72  1  0
 28 73  1  0
 28 74  1  0
 28 75  1  0
 29 76  1  0
 29 77  1  0
 30 78  1  0
 30 79  1  0
 32 80  1  0
 32 81  1  0
 32 82  1  0
M  END
>  <meeko>  (8) 
{"is_sidechain": [false], "intermolecular_energy": 2.731, "internal_energy": -0.839}

$$$$
EPH_relaxed_0001_pdb2pqr_Repair_171_r2_0001_out
     RDKit          3D

 82 86  0  0  0  0  0  0  0  0999 V2000
   -0.9620   17.9110    0.7540 C   0  0  0  0  0  0  0  0  0  0  0  0
    0.3690   17.3470    0.2500 C   0  0  2  0  0  0  0  0  0  0  0  0
    1.1980   18.4040   -0.5070 C   0  0  0  0  0  0  0  0  0  0  0  0
    1.5570   19.6280    0.3400 C   0  0  0  0  0  0  0  0  0  0  0  0
    2.9600   19.5490    0.8610 C   0  0  2  0  0  0  0  0  0  0  0  0
    3.1960   18.4800    1.7870 O   0  0  0  0  0  0  0  0  0  0  0  0
    3.3310   19.8120    2.3090 C   0  0  0  0  0  0  0  0  0  0  0  0
    2.2950   20.1740    3.3260 C   0  0  0  0  0  0  0  0  0  0  0  0
    4.7430   20.1940    2.6280 C   0  0  0  0  0  0  0  0  0  0  0  0
    0.1160   16.1420   -0.6490 C   0  0  1  0  0  0  0  0  0  0  0  0
    0.2990   16.4710   -2.1550 C   0  0  0  0  0  0  0  0  0  0  0  0
    0.8900   15.2020   -2.8210 C   0  0  0  0  0  0  0  0  0  0  0  0
    0.7180   14.0890   -1.7610 C   0  0  1  0  0  0  0  0  0  0  0  0
   -0.7660   13.6260   -1.9030 C   0  0  0  0  0  0  0  0  0  0  0  0
    1.7100   12.8840   -1.8560 C   0  0  2  0  0  0  0  0  0  0  0  0
    1.6160   12.0630   -3.1540 C   0  0  0  0  0  0  0  0  0  0  0  0
    0.6650   10.9130   -3.1140 C   0  0  0  0  0  0  0  0  0  0  0  0
    0.1300   10.3800   -2.0000 C   0  0  0  0  0  0  0  0  0  0  0  0
    0.5480   10.8760   -0.6100 C   0  0  1  0  0  0  0  0  0  0  0  0
    0.8310    9.6590    0.3100 C   0  0  0  0  0  0  0  0  0  0  0  0
   -0.3410    8.6830    0.3670 C   0  0  0  0  0  0  0  0  0  0  0  0
   -0.6890    8.1680   -1.0270 C   0  0  2  0  0  0  0  0  0  0  0  0
    0.3940    7.3640   -1.5050 O   0  0  0  0  0  0  0  0  0  0  0  0
   -0.9840    9.3050   -2.0450 C   0  0  0  0  0  0  0  0  0  0  0  0
   -2.3300    9.9850   -1.6890 C   0  0  0  0  0  0  0  0  0  0  0  0
   -1.1810    8.6570   -3.4420 C   0  0  0  0  0  0  0  0  0  0  0  0
    1.7190   11.9490   -0.5800 C   0  0  1  0  0  0  0  0  0  0  0  0
    3.1020   11.2280   -0.5660 C   0  0  0  0  0  0  0  0  0  0  0  0
    1.6320   12.7680    0.7620 C   0  0  0  0  0  0  0  0  0  0  0  0
    0.7280   14.0160    0.7580 C   0  0  0  0  0  0  0  0  0  0  0  0
    1.0270   14.9050   -0.4530 C   0  0  2  0  0  0  0  0  0  0  0  0
    2.5070   15.4040   -0.3260 C   0  0  0  0  0  0  0  0  0  0  0  0
   -0.9664   17.9129    1.8540 H   0  0  0  0  0  0  0  0  0  0  0  0
   -1.0876   18.9397    0.3851 H   0  0  0  0  0  0  0  0  0  0  0  0
   -1.7884   17.2857    0.3851 H   0  0  0  0  0  0  0  0  0  0  0  0
    0.9520   17.0383    1.1302 H   0  0  0  0  0  0  0  0  0  0  0  0
    2.1312   17.9331   -0.8496 H   0  0  0  0  0  0  0  0  0  0  0  0
    0.5770   18.7619   -1.3415 H   0  0  0  0  0  0  0  0  0  0  0  0
    1.4569   20.5317   -0.2791 H   0  0  0  0  0  0  0  0  0  0  0  0
    0.8729   19.6622    1.2007 H   0  0  0  0  0  0  0  0  0  0  0  0
    3.3586   19.9419   -0.0860 H   0  0  0  0  0  0  0  0  0  0  0  0
    2.7066   20.0302    4.3359 H   0  0  0  0  0  0  0  0  0  0  0  0
    2.0046   21.2269    3.1949 H   0  0  0  0  0  0  0  0  0  0  0  0
    1.4121   19.5311    3.1949 H   0  0  0  0  0  0  0  0  0  0  0  0
    4.8755   20.2298    3.7194 H   0  0  0  0  0  0  0  0  0  0  0  0
    5.4300   19.4494    2.1995 H   0  0  0  0  0  0  0  0  0  0  0  0
    4.9609   21.1834    2.1995 H   0  0  0  0  0  0  0  0  0  0  0  0
   -0.9146   15.9014   -0.3489 H   0  0  0  0  0  0  0  0  0  0  0  0
   -0.6715   16.7201   -2.6090 H   0  0  0  0  0  0  0  0  0  0  0  0
    0.9647   17.3358   -2.2925 H   0  0  0  0  0  0  0  0  0  0  0  0
    0.3380   14.9524   -3.7392 H   0  0  0  0  0  0  0  0  0  0  0  0
    1.9407   15.3372   -3.1172 H   0  0  0  0  0  0  0  0  0  0  0  0
   -1.2046   13.4892   -0.9036 H   0  0  0  0  0  0  0  0  0  0  0  0
   -1.3370   14.3887   -2.4528 H   0  0  0  0  0  0  0  0  0  0  0  0
   -0.8020   12.6739   -2.4528 H   0  0  0  0  0  0  0  0  0  0  0  0
    2.6882   13.3860   -1.8898 H   0  0  0  0  0  0  0  0  0  0  0  0
    1.2980   12.7390   -3.9614 H   0  0  0  0  0  0  0  0  0  0  0  0
    2.6137   11.6273   -3.3113 H   0  0  0  0  0  0  0  0  0  0  0  0
    0.3773   10.4635   -4.0759 H   0  0  0  0  0  0  0  0  0  0  0  0
   -0.3075   11.4475   -0.2208 H   0  0  0  0  0  0  0  0  0  0  0  0
    1.7148    9.1267   -0.0714 H   0  0  0  0  0  0  0  0  0  0  0  0
    0.9966   10.0415    1.3280 H   0  0  0  0  0  0  0  0  0  0  0  0
   -0.0697    7.8314    1.0082 H   0  0  0  0  0  0  0  0  0  0  0  0
   -1.2164    9.2085    0.7763 H   0  0  0  0  0  0  0  0  0  0  0  0
   -1.6135    7.5784   -0.9391 H   0  0  0  0  0  0  0  0  0  0  0  0
    0.7190    6.8330   -0.7580 H   0  0  0  0  0  0  0  0  0  0  0  0
   -2.4358   10.0385   -0.5954 H   0  0  0  0  0  0  0  0  0  0  0  0
   -2.3499   11.0013   -2.1094 H   0  0  0  0  0  0  0  0  0  0  0  0
   -3.1599    9.3980   -2.1094 H   0  0  0  0  0  0  0  0  0  0  0  0
   -1.4990    7.6111   -3.3195 H   0  0  0  0  0  0  0  0  0  0  0  0
   -1.9511    9.2116   -3.9982 H   0  0  0  0  0  0  0  0  0  0  0  0
   -0.2325    8.6891   -3.9982 H   0  0  0  0  0  0  0  0  0  0  0  0
    3.4189   11.0628    0.4743 H   0  0  0  0  0  0  0  0  0  0  0  0
    3.0161   10.2599   -1.0812 H   0  0  0  0  0  0  0  0  0  0  0  0
    3.8464   11.8528   -1.0812 H   0  0  0  0  0  0  0  0  0  0  0  0
    1.2581   12.0889    1.5424 H   0  0  0  0  0  0  0  0  0  0  0  0
    2.6493   13.1505    0.9318 H   0  0  0  0  0  0  0  0  0  0  0  0
   -0.3244   13.6980    0.7200 H   0  0  0  0  0  0  0  0  0  0  0  0
    0.9227   14.5933    1.6738 H   0  0  0  0  0  0  0  0  0  0  0  0
    2.7737   15.4939    0.7374 H   0  0  0  0  0  0  0  0  0  0  0  0
    3.1801   14.6831   -0.8131 H   0  0  0  0  0  0  0  0  0  0  0  0
    2.6062   16.3853   -0.8131 H   0  0  0  0  0  0  0  0  0  0  0  0
  1  2  1  0
  2  3  1  0
  3  4  1  0
  4  5  1  0
  5  6  1  0
  6  7  1  0
  7  8  1  0
  7  9  1  0
  2 10  1  0
 10 11  1  0
 11 12  1  0
 12 13  1  0
 13 14  1  1
 13 15  1  0
 15 16  1  0
 16 17  1  0
 17 18  2  0
 18 19  1  0
 19 20  1  0
 20 21  1  0
 21 22  1  0
 22 23  1  0
 22 24  1  0
 24 25  1  0
 24 26  1  0
 19 27  1  0
 27 28  1  1
 27 29  1  0
 29 30  1  0
 30 31  1  0
 31 32  1  6
  7  5  1  0
 31 10  1  0
 31 13  1  0
 27 15  1  0
 24 18  1  0
  1 33  1  0
  1 34  1  0
  1 35  1  0
  2 36  1  1
  3 37  1  0
  3 38  1  0
  4 39  1  0
  4 40  1  0
  5 41  1  6
  8 42  1  0
  8 43  1  0
  8 44  1  0
  9 45  1  0
  9 46  1  0
  9 47  1  0
 10 48  1  6
 11 49  1  0
 11 50  1  0
 12 51  1  0
 12 52  1  0
 14 53  1  0
 14 54  1  0
 14 55  1  0
 15 56  1  6
 16 57  1  0
 16 58  1  0
 17 59  1  0
 19 60  1  1
 20 61  1  0
 20 62  1  0
 21 63  1  0
 21 64  1  0
 22 65  1  1
 23 66  1  0
 25 67  1  0
 25 68  1  0
 25 69  1  0
 26 70  1  0
 26 71  1  0
 26 72  1  0
 28 73  1  0
 28 74  1  0
 28 75  1  0
 29 76  1  0
 29 77  1  0
 30 78  1  0
 30 79  1  0
 32 80  1  0
 32 81  1  0
 32 82  1  0
M  END
>  <meeko>  (9) 
{"is_sidechain": [false], "intermolecular_energy": 2.731, "internal_energy": -0.839}

$$$$
EPH_relaxed_0001_pdb2pqr_Repair_171_r2_0001_out
     RDKit          3D

 82 86  0  0  0  0  0  0  0  0999 V2000
    0.1530   17.7400   -2.2620 C   0  0  0  0  0  0  0  0  0  0  0  0
    0.1440   16.8570   -1.0120 C   0  0  2  0  0  0  0  0  0  0  0  0
    0.2390   17.6850    0.2850 C   0  0  0  0  0  0  0  0  0  0  0  0
    0.5530   19.1650    0.0490 C   0  0  0  0  0  0  0  0  0  0  0  0
   -0.6960   19.9890   -0.0380 C   0  0  2  0  0  0  0  0  0  0  0  0
   -1.3680   20.1910    1.2120 O   0  0  0  0  0  0  0  0  0  0  0  0
   -2.0840   19.4340    0.2220 C   0  0  0  0  0  0  0  0  0  0  0  0
   -2.2950   17.9990    0.5890 C   0  0  0  0  0  0  0  0  0  0  0  0
   -3.2630   20.1560   -0.3530 C   0  0  0  0  0  0  0  0  0  0  0  0
    1.2900   15.8540   -1.0750 C   0  0  1  0  0  0  0  0  0  0  0  0
    1.8210   15.4640    0.3300 C   0  0  0  0  0  0  0  0  0  0  0  0
    2.2380   13.9720    0.2520 C   0  0  0  0  0  0  0  0  0  0  0  0
    2.2490   13.6490   -1.2610 C   0  0  1  0  0  0  0  0  0  0  0  0
    3.6190   14.1900   -1.7770 C   0  0  0  0  0  0  0  0  0  0  0  0
    2.0370   12.1490   -1.6480 C   0  0  2  0  0  0  0  0  0  0  0  0
    3.1230   11.1850   -1.1400 C   0  0  0  0  0  0  0  0  0  0  0  0
    4.2720   10.9720   -2.0700 C   0  0  0  0  0  0  0  0  0  0  0  0
    4.2950   11.3020   -3.3740 C   0  0  0  0  0  0  0  0  0  0  0  0
    3.0470   11.8670   -4.0650 C   0  0  1  0  0  0  0  0  0  0  0  0
    2.8320   11.1410   -5.4200 C   0  0  0  0  0  0  0  0  0  0  0  0
    4.0680   11.1930   -6.3130 C   0  0  0  0  0  0  0  0  0  0  0  0
    5.2730   10.5700   -5.6140 C   0  0  2  0  0  0  0  0  0  0  0  0
    5.0370    9.1680   -5.4490 O   0  0  0  0  0  0  0  0  0  0  0  0
    5.5800   11.2140   -4.2330 C   0  0  0  0  0  0  0  0  0  0  0  0
    6.1270   12.6480   -4.4380 C   0  0  0  0  0  0  0  0  0  0  0  0
    6.7270   10.4020   -3.5720 C   0  0  0  0  0  0  0  0  0  0  0  0
    1.7260   11.9140   -3.1820 C   0  0  1  0  0  0  0  0  0  0  0  0
    0.9720   10.5520   -3.2790 C   0  0  0  0  0  0  0  0  0  0  0  0
    0.7530   13.0030   -3.7700 C   0  0  0  0  0  0  0  0  0  0  0  0
    0.9340   14.4450   -3.2580 C   0  0  0  0  0  0  0  0  0  0  0  0
    0.9980   14.4800   -1.7280 C   0  0  2  0  0  0  0  0  0  0  0  0
   -0.3750   13.9620   -1.1800 C   0  0  0  0  0  0  0  0  0  0  0  0
    0.1638   18.7986   -1.9631 H   0  0  0  0  0  0  0  0  0  0  0  0
    1.0489   17.5189   -2.8607 H   0  0  0  0  0  0  0  0  0  0  0  0
   -0.7473   17.5372   -2.8607 H   0  0  0  0  0  0  0  0  0  0  0  0
   -0.8170   16.3222   -0.9923 H   0  0  0  0  0  0  0  0  0  0  0  0
   -0.7231   17.6141    0.8135 H   0  0  0  0  0  0  0  0  0  0  0  0
    1.0717   17.2693    0.8714 H   0  0  0  0  0  0  0  0  0  0  0  0
    1.1679   19.5363    0.8821 H   0  0  0  0  0  0  0  0  0  0  0  0
    1.0900   19.2537   -0.9069 H   0  0  0  0  0  0  0  0  0  0  0  0
   -0.2799   20.5748   -0.8709 H   0  0  0  0  0  0  0  0  0  0  0  0
   -2.3097   17.8990    1.6843 H   0  0  0  0  0  0  0  0  0  0  0  0
   -3.2538   17.6521    0.1762 H   0  0  0  0  0  0  0  0  0  0  0  0
   -1.4766   17.3908    0.1762 H   0  0  0  0  0  0  0  0  0  0  0  0
   -3.8914   20.5408    0.4638 H   0  0  0  0  0  0  0  0  0  0  0  0
   -2.9129   20.9947   -0.9726 H   0  0  0  0  0  0  0  0  0  0  0  0
   -3.8509   19.4629   -0.9726 H   0  0  0  0  0  0  0  0  0  0  0  0
    1.9978   16.4223   -1.6964 H   0  0  0  0  0  0  0  0  0  0  0  0
    2.6887   16.0866    0.5934 H   0  0  0  0  0  0  0  0  0  0  0  0
    1.0514   15.6194    1.1004 H   0  0  0  0  0  0  0  0  0  0  0  0
    3.2371   13.8246    0.6879 H   0  0  0  0  0  0  0  0  0  0  0  0
    1.5548   13.3178    0.8135 H   0  0  0  0  0  0  0  0  0  0  0  0
    4.2598   14.4430   -0.9195 H   0  0  0  0  0  0  0  0  0  0  0  0
    4.1113   13.4188   -2.3876 H   0  0  0  0  0  0  0  0  0  0  0  0
    3.4515   15.0895   -2.3876 H   0  0  0  0  0  0  0  0  0  0  0  0
    1.1235   11.8880   -1.0936 H   0  0  0  0  0  0  0  0  0  0  0  0
    3.5197   11.5868   -0.1960 H   0  0  0  0  0  0  0  0  0  0  0  0
    2.6340   10.2057   -1.0308 H   0  0  0  0  0  0  0  0  0  0  0  0
    5.1767   10.5054   -1.6532 H   0  0  0  0  0  0  0  0  0  0  0  0
    3.2534   12.9331   -4.2407 H   0  0  0  0  0  0  0  0  0  0  0  0
    2.5848   10.0878   -5.2207 H   0  0  0  0  0  0  0  0  0  0  0  0
    2.0156   11.6548   -5.9488 H   0  0  0  0  0  0  0  0  0  0  0  0
    3.8647   10.6395   -7.2416 H   0  0  0  0  0  0  0  0  0  0  0  0
    4.2966   12.2459   -6.5348 H   0  0  0  0  0  0  0  0  0  0  0  0
    6.1530   10.7525   -6.2483 H   0  0  0  0  0  0  0  0  0  0  0  0
    5.8930    8.7140   -5.5290 H   0  0  0  0  0  0  0  0  0  0  0  0
    6.3055   13.1159   -3.4586 H   0  0  0  0  0  0  0  0  0  0  0  0
    7.0712   12.6033   -5.0005 H   0  0  0  0  0  0  0  0  0  0  0  0
    5.3929   13.2435   -5.0005 H   0  0  0  0  0  0  0  0  0  0  0  0
    6.6375   10.4653   -2.4775 H   0  0  0  0  0  0  0  0  0  0  0  0
    6.6590    9.3497   -3.8852 H   0  0  0  0  0  0  0  0  0  0  0  0
    7.6969   10.8158   -3.8852 H   0  0  0  0  0  0  0  0  0  0  0  0
    0.7635   10.1754   -2.2667 H   0  0  0  0  0  0  0  0  0  0  0  0
    0.0246   10.6950   -3.8193 H   0  0  0  0  0  0  0  0  0  0  0  0
    1.5961    9.8250   -3.8193 H   0  0  0  0  0  0  0  0  0  0  0  0
    0.8903   13.0176   -4.8613 H   0  0  0  0  0  0  0  0  0  0  0  0
   -0.2511   12.7026   -3.4359 H   0  0  0  0  0  0  0  0  0  0  0  0
    1.8684   14.8573   -3.6667 H   0  0  0  0  0  0  0  0  0  0  0  0
    0.0722   15.0445   -3.5866 H   0  0  0  0  0  0  0  0  0  0  0  0
   -0.3569   13.9688   -0.0802 H   0  0  0  0  0  0  0  0  0  0  0  0
   -1.1832   14.6170   -1.5375 H   0  0  0  0  0  0  0  0  0  0  0  0
   -0.5491   12.9364   -1.5375 H   0  0  0  0  0  0  0  0  0  0  0  0
  1  2  1  0
  2  3  1  0
  3  4  1  0
  4  5  1  0
  5  6  1  0
  6  7  1  0
  7  8  1  0
  7  9  1  0
  2 10  1  0
 10 11  1  0
 11 12  1  0
 12 13  1  0
 13 14  1  6
 13 15  1  0
 15 16  1  0
 16 17  1  0
 17 18  2  0
 18 19  1  0
 19 20  1  0
 20 21  1  0
 21 22  1  0
 22 23  1  0
 22 24  1  0
 24 25  1  0
 24 26  1  0
 19 27  1  0
 27 28  1  1
 27 29  1  0
 29 30  1  0
 30 31  1  0
 31 32  1  1
  7  5  1  0
 31 10  1  0
 31 13  1  0
 27 15  1  0
 24 18  1  0
  1 33  1  0
  1 34  1  0
  1 35  1  0
  2 36  1  1
  3 37  1  0
  3 38  1  0
  4 39  1  0
  4 40  1  0
  5 41  1  6
  8 42  1  0
  8 43  1  0
  8 44  1  0
  9 45  1  0
  9 46  1  0
  9 47  1  0
 10 48  1  6
 11 49  1  0
 11 50  1  0
 12 51  1  0
 12 52  1  0
 14 53  1  0
 14 54  1  0
 14 55  1  0
 15 56  1  1
 16 57  1  0
 16 58  1  0
 17 59  1  0
 19 60  1  6
 20 61  1  0
 20 62  1  0
 21 63  1  0
 21 64  1  0
 22 65  1  6
 23 66  1  0
 25 67  1  0
 25 68  1  0
 25 69  1  0
 26 70  1  0
 26 71  1  0
 26 72  1  0
 28 73  1  0
 28 74  1  0
 28 75  1  0
 29 76  1  0
 29 77  1  0
 30 78  1  0
 30 79  1  0
 32 80  1  0
 32 81  1  0
 32 82  1  0
M  END
>  <meeko>  (10) 
{"is_sidechain": [false], "intermolecular_energy": 2.731, "internal_energy": -0.839}

$$$$
EPH_relaxed_0001_pdb2pqr_Repair_171_r2_0001_out
     RDKit          3D

 82 86  0  0  0  0  0  0  0  0999 V2000
   -2.9710    9.6770    0.3480 C   0  0  0  0  0  0  0  0  0  0  0  0
   -2.8710    9.6150   -1.1790 C   0  0  2  0  0  0  0  0  0  0  0  0
   -2.5680    8.1890   -1.6830 C   0  0  0  0  0  0  0  0  0  0  0  0
   -3.7620    7.5090   -2.3600 C   0  0  0  0  0  0  0  0  0  0  0  0
   -4.9790    7.5290   -1.4860 C   0  0  2  0  0  0  0  0  0  0  0  0
   -5.4480    6.2350   -1.0830 O   0  0  0  0  0  0  0  0  0  0  0  0
   -6.3310    6.9960   -1.9230 C   0  0  0  0  0  0  0  0  0  0  0  0
   -6.5350    6.4070   -3.2830 C   0  0  0  0  0  0  0  0  0  0  0  0
   -7.5560    7.4890   -1.2180 C   0  0  0  0  0  0  0  0  0  0  0  0
   -1.7980   10.5800   -1.6700 C   0  0  1  0  0  0  0  0  0  0  0  0
   -2.1110   12.0560   -1.3070 C   0  0  0  0  0  0  0  0  0  0  0  0
   -0.7520   12.7430   -1.0160 C   0  0  0  0  0  0  0  0  0  0  0  0
    0.3090   11.7460   -1.5370 C   0  0  1  0  0  0  0  0  0  0  0  0
    0.3710   11.9940   -3.0770 C   0  0  0  0  0  0  0  0  0  0  0  0
    1.7250   11.8370   -0.8800 C   0  0  2  0  0  0  0  0  0  0  0  0
    2.4570   13.1740   -1.0920 C   0  0  0  0  0  0  0  0  0  0  0  0
    3.3240   13.2400   -2.3050 C   0  0  0  0  0  0  0  0  0  0  0  0
    3.7340   12.1840   -3.0330 C   0  0  0  0  0  0  0  0  0  0  0  0
    3.4020   10.7510   -2.5970 C   0  0  1  0  0  0  0  0  0  0  0  0
    4.6760    9.8720   -2.6960 C   0  0  0  0  0  0  0  0  0  0  0  0
    5.3190    9.9270   -4.0780 C   0  0  0  0  0  0  0  0  0  0  0  0
    5.6880   11.3610   -4.4510 C   0  0  2  0  0  0  0  0  0  0  0  0
    6.7290   11.8110   -3.5790 O   0  0  0  0  0  0  0  0  0  0  0  0
    4.4840   12.3420   -4.3780 C   0  0  0  0  0  0  0  0  0  0  0  0
    3.4920   12.0350   -5.5270 C   0  0  0  0  0  0  0  0  0  0  0  0
    5.0200   13.7750   -4.6390 C   0  0  0  0  0  0  0  0  0  0  0  0
    2.6670   10.6060   -1.1960 C   0  0  1  0  0  0  0  0  0  0  0  0
    3.7190   10.5440   -0.0470 C   0  0  0  0  0  0  0  0  0  0  0  0
    1.8910    9.2350   -1.1620 C   0  0  0  0  0  0  0  0  0  0  0  0
    0.4540    9.2360   -1.7160 C   0  0  0  0  0  0  0  0  0  0  0  0
   -0.3630   10.3870   -1.1190 C   0  0  2  0  0  0  0  0  0  0  0  0
   -0.4610   10.1520    0.4270 C   0  0  0  0  0  0  0  0  0  0  0  0
   -2.1161    9.1470    0.7933 H   0  0  0  0  0  0  0  0  0  0  0  0
   -2.9611   10.7276    0.6737 H   0  0  0  0  0  0  0  0  0  0  0  0
   -3.9076    9.2009    0.6737 H   0  0  0  0  0  0  0  0  0  0  0  0
   -3.8493    9.9090   -1.5869 H   0  0  0  0  0  0  0  0  0  0  0  0
   -1.7429    8.2449   -2.4084 H   0  0  0  0  0  0  0  0  0  0  0  0
   -2.3108    7.5840   -0.8011 H   0  0  0  0  0  0  0  0  0  0  0  0
   -3.9881    8.0368   -3.2983 H   0  0  0  0  0  0  0  0  0  0  0  0
   -3.4952    6.4594   -2.5529 H   0  0  0  0  0  0  0  0  0  0  0  0
   -4.6723    8.4866   -1.0399 H   0  0  0  0  0  0  0  0  0  0  0  0
   -6.8935    5.3718   -3.1842 H   0  0  0  0  0  0  0  0  0  0  0  0
   -7.2794    7.0020   -3.8324 H   0  0  0  0  0  0  0  0  0  0  0  0
   -5.5820    6.4141   -3.8324 H   0  0  0  0  0  0  0  0  0  0  0  0
   -7.4029    7.4274   -0.1304 H   0  0  0  0  0  0  0  0  0  0  0  0
   -7.7473    8.5341   -1.5027 H   0  0  0  0  0  0  0  0  0  0  0  0
   -8.4180    6.8677   -1.5027 H   0  0  0  0  0  0  0  0  0  0  0  0
   -1.8224   10.3517   -2.7458 H   0  0  0  0  0  0  0  0  0  0  0  0
   -2.6149   12.5543   -2.1483 H   0  0  0  0  0  0  0  0  0  0  0  0
   -2.7782   12.1151   -0.4345 H   0  0  0  0  0  0  0  0  0  0  0  0
   -0.6793   13.7018   -1.5503 H   0  0  0  0  0  0  0  0  0  0  0  0
   -0.6205   12.9716    0.0519 H   0  0  0  0  0  0  0  0  0  0  0  0
    0.6337   13.0448   -3.2689 H   0  0  0  0  0  0  0  0  0  0  0  0
    1.1328   11.3381   -3.5236 H   0  0  0  0  0  0  0  0  0  0  0  0
   -0.6098   11.7738   -3.5236 H   0  0  0  0  0  0  0  0  0  0  0  0
    1.4904   11.7910    0.1937 H   0  0  0  0  0  0  0  0  0  0  0  0
    1.6994   13.9675   -1.1720 H   0  0  0  0  0  0  0  0  0  0  0  0
    3.1298   13.2930   -0.2299 H   0  0  0  0  0  0  0  0  0  0  0  0
    3.6564   14.2362   -2.6322 H   0  0  0  0  0  0  0  0  0  0  0  0
    2.6414   10.3860   -3.3029 H   0  0  0  0  0  0  0  0  0  0  0  0
    5.4064   10.2249   -1.9530 H   0  0  0  0  0  0  0  0  0  0  0  0
    4.3780    8.8300   -2.5078 H   0  0  0  0  0  0  0  0  0  0  0  0
    6.2295    9.3097   -4.0764 H   0  0  0  0  0  0  0  0  0  0  0  0
    4.5979    9.5464   -4.8164 H   0  0  0  0  0  0  0  0  0  0  0  0
    6.0234   11.3535   -5.4986 H   0  0  0  0  0  0  0  0  0  0  0  0
    7.4520   12.1490   -4.1340 H   0  0  0  0  0  0  0  0  0  0  0  0
    2.5221   11.7348   -5.1037 H   0  0  0  0  0  0  0  0  0  0  0  0
    3.3591   12.9340   -6.1467 H   0  0  0  0  0  0  0  0  0  0  0  0
    3.8902   11.2181   -6.1467 H   0  0  0  0  0  0  0  0  0  0  0  0
    5.2077   14.2769   -3.6783 H   0  0  0  0  0  0  0  0  0  0  0  0
    5.9573   13.7172   -5.2118 H   0  0  0  0  0  0  0  0  0  0  0  0
    4.2749   14.3465   -5.2118 H   0  0  0  0  0  0  0  0  0  0  0  0
    3.2034   10.5744    0.9242 H   0  0  0  0  0  0  0  0  0  0  0  0
    4.2951    9.6103   -0.1273 H   0  0  0  0  0  0  0  0  0  0  0  0
    4.4007   11.4035   -0.1273 H   0  0  0  0  0  0  0  0  0  0  0  0
    2.4730    8.5086   -1.7482 H   0  0  0  0  0  0  0  0  0  0  0  0
    1.7876    8.9894   -0.0948 H   0  0  0  0  0  0  0  0  0  0  0  0
    0.4900    9.3495   -2.8095 H   0  0  0  0  0  0  0  0  0  0  0  0
   -0.0278    8.2855   -1.4433 H   0  0  0  0  0  0  0  0  0  0  0  0
   -0.0901   11.0415    0.9573 H   0  0  0  0  0  0  0  0  0  0  0  0
   -1.5098    9.9705    0.7045 H   0  0  0  0  0  0  0  0  0  0  0  0
    0.1481    9.2791    0.7045 H   0  0  0  0  0  0  0  0  0  0  0  0
  1  2  1  0
  2  3  1  0
  3  4  1  0
  4  5  1  0
  5  6  1  0
  6  7  1  0
  7  8  1  0
  7  9  1  0
  2 10  1  0
 10 11  1  0
 11 12  1  0
 12 13  1  0
 13 14  1  6
 13 15  1  0
 15 16  1  0
 16 17  1  0
 17 18  2  0
 18 19  1  0
 19 20  1  0
 20 21  1  0
 21 22  1  0
 22 23  1  0
 22 24  1  0
 24 25  1  0
 24 26  1  0
 19 27  1  0
 27 28  1  1
 27 29  1  0
 29 30  1  0
 30 31  1  0
 31 32  1  1
  7  5  1  0
 31 10  1  0
 31 13  1  0
 27 15  1  0
 24 18  1  0
  1 33  1  0
  1 34  1  0
  1 35  1  0
  2 36  1  6
  3 37  1  0
  3 38  1  0
  4 39  1  0
  4 40  1  0
  5 41  1  1
  8 42  1  0
  8 43  1  0
  8 44  1  0
  9 45  1  0
  9 46  1  0
  9 47  1  0
 10 48  1  6
 11 49  1  0
 11 50  1  0
 12 51  1  0
 12 52  1  0
 14 53  1  0
 14 54  1  0
 14 55  1  0
 15 56  1  1
 16 57  1  0
 16 58  1  0
 17 59  1  0
 19 60  1  6
 20 61  1  0
 20 62  1  0
 21 63  1  0
 21 64  1  0
 22 65  1  6
 23 66  1  0
 25 67  1  0
 25 68  1  0
 25 69  1  0
 26 70  1  0
 26 71  1  0
 26 72  1  0
 28 73  1  0
 28 74  1  0
 28 75  1  0
 29 76  1  0
 29 77  1  0
 30 78  1  0
 30 79  1  0
 32 80  1  0
 32 81  1  0
 32 82  1  0
M  END
>  <meeko>  (11) 
{"is_sidechain": [false], "intermolecular_energy": 2.731, "internal_energy": -0.839}

$$$$
EPH_relaxed_0001_pdb2pqr_Repair_171_r2_0001_out
     RDKit          3D

 82 86  0  0  0  0  0  0  0  0999 V2000
   -2.4640   10.0840    0.7140 C   0  0  0  0  0  0  0  0  0  0  0  0
   -0.9860   10.2170    1.0920 C   0  0  2  0  0  0  0  0  0  0  0  0
   -0.6800   11.5630    1.7770 C   0  0  0  0  0  0  0  0  0  0  0  0
    0.3600   11.4620    2.8970 C   0  0  0  0  0  0  0  0  0  0  0  0
    0.3420   12.6720    3.7810 C   0  0  2  0  0  0  0  0  0  0  0  0
    0.4340   12.3900    5.1840 O   0  0  0  0  0  0  0  0  0  0  0  0
   -0.7910   12.9930    4.7370 C   0  0  0  0  0  0  0  0  0  0  0  0
   -1.9870   12.1010    4.8570 C   0  0  0  0  0  0  0  0  0  0  0  0
   -0.9660   14.4090    5.1900 C   0  0  0  0  0  0  0  0  0  0  0  0
   -0.1160   10.0540   -0.1490 C   0  0  1  0  0  0  0  0  0  0  0  0
   -0.7770    9.1570   -1.2290 C   0  0  0  0  0  0  0  0  0  0  0  0
   -0.3610    9.7340   -2.6060 C   0  0  0  0  0  0  0  0  0  0  0  0
    0.7810   10.7270   -2.2840 C   0  0  1  0  0  0  0  0  0  0  0  0
    2.0540    9.8370   -2.1300 C   0  0  0  0  0  0  0  0  0  0  0  0
    1.0040   11.8810   -3.3150 C   0  0  2  0  0  0  0  0  0  0  0  0
    1.4090   11.4250   -4.7270 C   0  0  0  0  0  0  0  0  0  0  0  0
    2.8790   11.3090   -4.9630 C   0  0  0  0  0  0  0  0  0  0  0  0
    3.8410   11.8280   -4.1780 C   0  0  0  0  0  0  0  0  0  0  0  0
    3.4830   12.7030   -2.9690 C   0  0  1  0  0  0  0  0  0  0  0  0
    4.3780   13.9700   -2.9650 C   0  0  0  0  0  0  0  0  0  0  0  0
    5.8660   13.6370   -3.0240 C   0  0  0  0  0  0  0  0  0  0  0  0
    6.1910   12.8160   -4.2700 C   0  0  2  0  0  0  0  0  0  0  0  0
    5.9840   13.6320   -5.4270 O   0  0  0  0  0  0  0  0  0  0  0  0
    5.3430   11.5180   -4.3870 C   0  0  0  0  0  0  0  0  0  0  0  0
    5.7870   10.5070   -3.3010 C   0  0  0  0  0  0  0  0  0  0  0  0
    5.6680   10.8580   -5.7540 C   0  0  0  0  0  0  0  0  0  0  0  0
    1.9410   13.0440   -2.7920 C   0  0  1  0  0  0  0  0  0  0  0  0
    1.5780   14.3140   -3.6210 C   0  0  0  0  0  0  0  0  0  0  0  0
    1.6640   13.4040   -1.2840 C   0  0  0  0  0  0  0  0  0  0  0  0
    1.3320   12.2320   -0.3400 C   0  0  0  0  0  0  0  0  0  0  0  0
    0.2430   11.3380   -0.9390 C   0  0  2  0  0  0  0  0  0  0  0  0
   -1.0580   12.1990   -1.0850 C   0  0  0  0  0  0  0  0  0  0  0  0
   -3.0729   10.0292    1.6285 H   0  0  0  0  0  0  0  0  0  0  0  0
   -2.7709   10.9582    0.1210 H   0  0  0  0  0  0  0  0  0  0  0  0
   -2.6099    9.1691    0.1210 H   0  0  0  0  0  0  0  0  0  0  0  0
   -0.7564    9.4201    1.8147 H   0  0  0  0  0  0  0  0  0  0  0  0
   -0.3037   12.2623    1.0158 H   0  0  0  0  0  0  0  0  0  0  0  0
   -1.6167   11.9088    2.2386 H   0  0  0  0  0  0  0  0  0  0  0  0
    0.1426   10.5722    3.5061 H   0  0  0  0  0  0  0  0  0  0  0  0
    1.3556   11.3898    2.4349 H   0  0  0  0  0  0  0  0  0  0  0  0
    0.8493   13.2713    3.0106 H   0  0  0  0  0  0  0  0  0  0  0  0
   -2.2133   11.9322    5.9201 H   0  0  0  0  0  0  0  0  0  0  0  0
   -2.8503   12.5776    4.3695 H   0  0  0  0  0  0  0  0  0  0  0  0
   -1.7763   11.1377    4.3695 H   0  0  0  0  0  0  0  0  0  0  0  0
   -0.9704   14.4444    6.2894 H   0  0  0  0  0  0  0  0  0  0  0  0
   -0.1367   15.0217    4.8067 H   0  0  0  0  0  0  0  0  0  0  0  0
   -1.9195   14.8014    4.8067 H   0  0  0  0  0  0  0  0  0  0  0  0
    0.7881    9.6316    0.3138 H   0  0  0  0  0  0  0  0  0  0  0  0
   -0.4219    8.1206   -1.1297 H   0  0  0  0  0  0  0  0  0  0  0  0
   -1.8715    9.1482   -1.1190 H   0  0  0  0  0  0  0  0  0  0  0  0
   -0.0038    8.9336   -3.2706 H   0  0  0  0  0  0  0  0  0  0  0  0
   -1.2005   10.2182   -3.1263 H   0  0  0  0  0  0  0  0  0  0  0  0
    2.2692    9.6866   -1.0618 H   0  0  0  0  0  0  0  0  0  0  0  0
    1.8803    8.8625   -2.6098 H   0  0  0  0  0  0  0  0  0  0  0  0
    2.9096   10.3347   -2.6098 H   0  0  0  0  0  0  0  0  0  0  0  0
   -0.0057   12.3054   -3.4169 H   0  0  0  0  0  0  0  0  0  0  0  0
    0.9568   10.4388   -4.9084 H   0  0  0  0  0  0  0  0  0  0  0  0
    1.0515   12.2067   -5.4134 H   0  0  0  0  0  0  0  0  0  0  0  0
    3.2031   10.7519   -5.8544 H   0  0  0  0  0  0  0  0  0  0  0  0
    3.6947   12.0933   -2.0783 H   0  0  0  0  0  0  0  0  0  0  0  0
    4.1200   14.5865   -3.8387 H   0  0  0  0  0  0  0  0  0  0  0  0
    4.1934   14.5056   -2.0221 H   0  0  0  0  0  0  0  0  0  0  0  0
    6.4439   14.5727   -3.0482 H   0  0  0  0  0  0  0  0  0  0  0  0
    6.1297   13.0459   -2.1346 H   0  0  0  0  0  0  0  0  0  0  0  0
    7.2412   12.4984   -4.1910 H   0  0  0  0  0  0  0  0  0  0  0  0
    6.0070   13.0500   -6.2050 H   0  0  0  0  0  0  0  0  0  0  0  0
    5.5997   10.9335   -2.3045 H   0  0  0  0  0  0  0  0  0  0  0  0
    5.2160    9.5736   -3.4136 H   0  0  0  0  0  0  0  0  0  0  0  0
    6.8607   10.2959   -3.4136 H   0  0  0  0  0  0  0  0  0  0  0  0
    6.1482    9.8828   -5.5854 H   0  0  0  0  0  0  0  0  0  0  0  0
    4.7373   10.7150   -6.3226 H   0  0  0  0  0  0  0  0  0  0  0  0
    6.3488   11.5085   -6.3226 H   0  0  0  0  0  0  0  0  0  0  0  0
    1.3411   15.1427   -2.9375 H   0  0  0  0  0  0  0  0  0  0  0  0
    2.4320   14.5944   -4.2551 H   0  0  0  0  0  0  0  0  0  0  0  0
    0.7048   14.1007   -4.2551 H   0  0  0  0  0  0  0  0  0  0  0  0
    2.5614   13.9041   -0.8909 H   0  0  0  0  0  0  0  0  0  0  0  0
    0.7580   14.0277   -1.2985 H   0  0  0  0  0  0  0  0  0  0  0  0
    2.2400   11.6329   -0.1768 H   0  0  0  0  0  0  0  0  0  0  0  0
    0.9650   12.6418    0.6126 H   0  0  0  0  0  0  0  0  0  0  0  0
   -1.4430   12.4538   -0.0866 H   0  0  0  0  0  0  0  0  0  0  0  0
   -0.8265   13.1228   -1.6355 H   0  0  0  0  0  0  0  0  0  0  0  0
   -1.8178   11.6248   -1.6355 H   0  0  0  0  0  0  0  0  0  0  0  0
  1  2  1  0
  2  3  1  0
  3  4  1  0
  4  5  1  0
  5  6  1  0
  6  7  1  0
  7  8  1  0
  7  9  1  0
  2 10  1  0
 10 11  1  0
 11 12  1  0
 12 13  1  0
 13 14  1  1
 13 15  1  0
 15 16  1  0
 16 17  1  0
 17 18  2  0
 18 19  1  0
 19 20  1  0
 20 21  1  0
 21 22  1  0
 22 23  1  0
 22 24  1  0
 24 25  1  0
 24 26  1  0
 19 27  1  0
 27 28  1  6
 27 29  1  0
 29 30  1  0
 30 31  1  0
 31 32  1  6
  7  5  1  0
 31 10  1  0
 31 13  1  0
 27 15  1  0
 24 18  1  0
  1 33  1  0
  1 34  1  0
  1 35  1  0
  2 36  1  1
  3 37  1  0
  3 38  1  0
  4 39  1  0
  4 40  1  0
  5 41  1  6
  8 42  1  0
  8 43  1  0
  8 44  1  0
  9 45  1  0
  9 46  1  0
  9 47  1  0
 10 48  1  1
 11 49  1  0
 11 50  1  0
 12 51  1  0
 12 52  1  0
 14 53  1  0
 14 54  1  0
 14 55  1  0
 15 56  1  6
 16 57  1  0
 16 58  1  0
 17 59  1  0
 19 60  1  1
 20 61  1  0
 20 62  1  0
 21 63  1  0
 21 64  1  0
 22 65  1  1
 23 66  1  0
 25 67  1  0
 25 68  1  0
 25 69  1  0
 26 70  1  0
 26 71  1  0
 26 72  1  0
 28 73  1  0
 28 74  1  0
 28 75  1  0
 29 76  1  0
 29 77  1  0
 30 78  1  0
 30 79  1  0
 32 80  1  0
 32 81  1  0
 32 82  1  0
M  END
>  <meeko>  (12) 
{"is_sidechain": [false], "intermolecular_energy": 2.731, "internal_energy": -0.839}

$$$$
EPH_relaxed_0001_pdb2pqr_Repair_171_r2_0001_out
     RDKit          3D

 82 86  0  0  0  0  0  0  0  0999 V2000
    1.8070   11.9790    4.2480 C   0  0  0  0  0  0  0  0  0  0  0  0
    0.8940   12.4690    3.1200 C   0  0  2  0  0  0  0  0  0  0  0  0
   -0.5940   12.1920    3.4160 C   0  0  0  0  0  0  0  0  0  0  0  0
   -1.4160   13.4570    3.6750 C   0  0  0  0  0  0  0  0  0  0  0  0
   -1.0300   14.1140    4.9660 C   0  0  2  0  0  0  0  0  0  0  0  0
   -0.2580   13.2900    5.8490 O   0  0  0  0  0  0  0  0  0  0  0  0
   -1.5600   13.6760    6.3180 C   0  0  0  0  0  0  0  0  0  0  0  0
   -2.5230   12.5370    6.4480 C   0  0  0  0  0  0  0  0  0  0  0  0
   -1.5270   14.6550    7.4510 C   0  0  0  0  0  0  0  0  0  0  0  0
    1.2950   11.8120    1.8050 C   0  0  1  0  0  0  0  0  0  0  0  0
    0.2930   10.7160    1.3540 C   0  0  0  0  0  0  0  0  0  0  0  0
    0.2360   10.7700   -0.1940 C   0  0  0  0  0  0  0  0  0  0  0  0
    1.4390   11.6550   -0.5970 C   0  0  1  0  0  0  0  0  0  0  0  0
    2.6730   10.7000   -0.5510 C   0  0  0  0  0  0  0  0  0  0  0  0
    1.3280   12.3870   -1.9740 C   0  0  2  0  0  0  0  0  0  0  0  0
    1.2280   11.4610   -3.1990 C   0  0  0  0  0  0  0  0  0  0  0  0
    2.5310   11.0850   -3.8220 C   0  0  0  0  0  0  0  0  0  0  0  0
    3.7100   11.6930   -3.5970 C   0  0  0  0  0  0  0  0  0  0  0  0
    3.7960   12.9430   -2.7110 C   0  0  1  0  0  0  0  0  0  0  0  0
    4.6650   14.0180   -3.4140 C   0  0  0  0  0  0  0  0  0  0  0  0
    6.0400   13.4900   -3.8120 C   0  0  0  0  0  0  0  0  0  0  0  0
    5.9140   12.2840   -4.7390 C   0  0  2  0  0  0  0  0  0  0  0  0
    5.3490   12.7150   -5.9810 O   0  0  0  0  0  0  0  0  0  0  0  0
    5.0500   11.1390   -4.1410 C   0  0  0  0  0  0  0  0  0  0  0  0
    5.8110   10.4710   -2.9690 C   0  0  0  0  0  0  0  0  0  0  0  0
    4.8860   10.0450   -5.2310 C   0  0  0  0  0  0  0  0  0  0  0  0
    2.4090   13.5220   -2.1940 C   0  0  1  0  0  0  0  0  0  0  0  0
    1.8150   14.5030   -3.2510 C   0  0  0  0  0  0  0  0  0  0  0  0
    2.6590   14.3700   -0.8920 C   0  0  0  0  0  0  0  0  0  0  0  0
    2.6390   13.6090    0.4480 C   0  0  0  0  0  0  0  0  0  0  0  0
    1.3940   12.7230    0.5560 C   0  0  2  0  0  0  0  0  0  0  0  0
    0.1370   13.6580    0.5340 C   0  0  0  0  0  0  0  0  0  0  0  0
    1.3526   12.2229    5.2196 H   0  0  0  0  0  0  0  0  0  0  0  0
    1.9373   10.8897    4.1672 H   0  0  0  0  0  0  0  0  0  0  0  0
    2.7868   12.4725    4.1672 H   0  0  0  0  0  0  0  0  0  0  0  0
    1.0177   13.5593    3.0434 H   0  0  0  0  0  0  0  0  0  0  0  0
   -1.0279   11.6667    2.5524 H   0  0  0  0  0  0  0  0  0  0  0  0
   -0.6320   11.5901    4.3359 H   0  0  0  0  0  0  0  0  0  0  0  0
   -1.2491   14.1657    2.8504 H   0  0  0  0  0  0  0  0  0  0  0  0
   -2.4760   13.1701    3.7396 H   0  0  0  0  0  0  0  0  0  0  0  0
   -0.9783   15.0982    4.4775 H   0  0  0  0  0  0  0  0  0  0  0  0
   -2.7007   12.3268    7.5130 H   0  0  0  0  0  0  0  0  0  0  0  0
   -3.4738   12.8036    5.9633 H   0  0  0  0  0  0  0  0  0  0  0  0
   -2.1021   11.6438    5.9633 H   0  0  0  0  0  0  0  0  0  0  0  0
   -1.5454   14.1106    8.4067 H   0  0  0  0  0  0  0  0  0  0  0  0
   -0.6081   15.2565    7.3892 H   0  0  0  0  0  0  0  0  0  0  0  0
   -2.4033   15.3170    7.3892 H   0  0  0  0  0  0  0  0  0  0  0  0
    2.2934   11.4421    2.0813 H   0  0  0  0  0  0  0  0  0  0  0  0
    0.6399    9.7263    1.6858 H   0  0  0  0  0  0  0  0  0  0  0  0
   -0.7017   10.8868    1.7915 H   0  0  0  0  0  0  0  0  0  0  0  0
    0.3350    9.7615   -0.6218 H   0  0  0  0  0  0  0  0  0  0  0  0
   -0.7196   11.1710   -0.5630 H   0  0  0  0  0  0  0  0  0  0  0  0
    2.9387   10.4944    0.4964 H   0  0  0  0  0  0  0  0  0  0  0  0
    2.4252    9.7560   -1.0585 H   0  0  0  0  0  0  0  0  0  0  0  0
    3.5246   11.1766   -1.0585 H   0  0  0  0  0  0  0  0  0  0  0  0
    0.3513   12.8872   -1.8971 H   0  0  0  0  0  0  0  0  0  0  0  0
    0.7217   10.5361   -2.8855 H   0  0  0  0  0  0  0  0  0  0  0  0
    0.6770   12.0273   -3.9643 H   0  0  0  0  0  0  0  0  0  0  0  0
    2.5272   10.2389   -4.5249 H   0  0  0  0  0  0  0  0  0  0  0  0
    4.2830   12.6219   -1.7784 H   0  0  0  0  0  0  0  0  0  0  0  0
    4.1417   14.3572   -4.3201 H   0  0  0  0  0  0  0  0  0  0  0  0
    4.8172   14.8425   -2.7019 H   0  0  0  0  0  0  0  0  0  0  0  0
    6.5951   14.2859   -4.3302 H   0  0  0  0  0  0  0  0  0  0  0  0
    6.5735   13.1789   -2.9017 H   0  0  0  0  0  0  0  0  0  0  0  0
    6.9236   11.8717   -4.8834 H   0  0  0  0  0  0  0  0  0  0  0  0
    5.3710   13.6870   -5.9930 H   0  0  0  0  0  0  0  0  0  0  0  0
    5.4014   10.8306   -2.0135 H   0  0  0  0  0  0  0  0  0  0  0  0
    5.6935    9.3790   -3.0306 H   0  0  0  0  0  0  0  0  0  0  0  0
    6.8785   10.7290   -3.0306 H   0  0  0  0  0  0  0  0  0  0  0  0
    4.7394    9.0669   -4.7496 H   0  0  0  0  0  0  0  0  0  0  0  0
    4.0130   10.2798   -5.8577 H   0  0  0  0  0  0  0  0  0  0  0  0
    5.7895   10.0135   -5.8577 H   0  0  0  0  0  0  0  0  0  0  0  0
    1.3113   15.3349   -2.7369 H   0  0  0  0  0  0  0  0  0  0  0  0
    2.6257   14.8982   -3.8808 H   0  0  0  0  0  0  0  0  0  0  0  0
    1.0891   13.9678   -3.8808 H   0  0  0  0  0  0  0  0  0  0  0  0
    3.6458   14.8462   -0.9895 H   0  0  0  0  0  0  0  0  0  0  0  0
    1.8123   15.0701   -0.8378 H   0  0  0  0  0  0  0  0  0  0  0  0
    3.5372   12.9777    0.5169 H   0  0  0  0  0  0  0  0  0  0  0  0
    2.6203   14.3422    1.2678 H   0  0  0  0  0  0  0  0  0  0  0  0
   -0.1689   13.8855    1.5658 H   0  0  0  0  0  0  0  0  0  0  0  0
    0.3847   14.5931    0.0104 H   0  0  0  0  0  0  0  0  0  0  0  0
   -0.6874   13.1518    0.0104 H   0  0  0  0  0  0  0  0  0  0  0  0
  1  2  1  0
  2  3  1  0
  3  4  1  0
  4  5  1  0
  5  6  1  0
  6  7  1  0
  7  8  1  0
  7  9  1  0
  2 10  1  0
 10 11  1  0
 11 12  1  0
 12 13  1  0
 13 14  1  6
 13 15  1  0
 15 16  1  0
 16 17  1  0
 17 18  2  0
 18 19  1  0
 19 20  1  0
 20 21  1  0
 21 22  1  0
 22 23  1  0
 22 24  1  0
 24 25  1  0
 24 26  1  0
 19 27  1  0
 27 28  1  6
 27 29  1  0
 29 30  1  0
 30 31  1  0
 31 32  1  6
  7  5  1  0
 31 10  1  0
 31 13  1  0
 27 15  1  0
 24 18  1  0
  1 33  1  0
  1 34  1  0
  1 35  1  0
  2 36  1  6
  3 37  1  0
  3 38  1  0
  4 39  1  0
  4 40  1  0
  5 41  1  6
  8 42  1  0
  8 43  1  0
  8 44  1  0
  9 45  1  0
  9 46  1  0
  9 47  1  0
 10 48  1  1
 11 49  1  0
 11 50  1  0
 12 51  1  0
 12 52  1  0
 14 53  1  0
 14 54  1  0
 14 55  1  0
 15 56  1  1
 16 57  1  0
 16 58  1  0
 17 59  1  0
 19 60  1  1
 20 61  1  0
 20 62  1  0
 21 63  1  0
 21 64  1  0
 22 65  1  6
 23 66  1  0
 25 67  1  0
 25 68  1  0
 25 69  1  0
 26 70  1  0
 26 71  1  0
 26 72  1  0
 28 73  1  0
 28 74  1  0
 28 75  1  0
 29 76  1  0
 29 77  1  0
 30 78  1  0
 30 79  1  0
 32 80  1  0
 32 81  1  0
 32 82  1  0
M  END
>  <meeko>  (13) 
{"is_sidechain": [false], "intermolecular_energy": 2.731, "internal_energy": -0.839}

$$$$
EPH_relaxed_0001_pdb2pqr_Repair_171_r2_0001_out
     RDKit          3D

 82 86  0  0  0  0  0  0  0  0999 V2000
  -15.2870    8.8230    0.3720 C   0  0  0  0  0  0  0  0  0  0  0  0
  -14.3780    9.1010   -0.8290 C   0  0  2  0  0  0  0  0  0  0  0  0
  -14.6690    8.1520   -2.0090 C   0  0  0  0  0  0  0  0  0  0  0  0
  -14.7990    8.8680   -3.3560 C   0  0  0  0  0  0  0  0  0  0  0  0
  -15.2870   10.2760   -3.1910 C   0  0  2  0  0  0  0  0  0  0  0  0
  -14.9070   11.1680   -4.2470 O   0  0  0  0  0  0  0  0  0  0  0  0
  -14.3650   11.4560   -2.9480 C   0  0  0  0  0  0  0  0  0  0  0  0
  -12.8820   11.2830   -2.8550 C   0  0  0  0  0  0  0  0  0  0  0  0
  -14.9340   12.6900   -2.3180 C   0  0  0  0  0  0  0  0  0  0  0  0
  -12.9170    8.9820   -0.4120 C   0  0  1  0  0  0  0  0  0  0  0  0
  -12.7290    9.0240    1.1280 C   0  0  0  0  0  0  0  0  0  0  0  0
  -11.5470    8.0780    1.4600 C   0  0  0  0  0  0  0  0  0  0  0  0
  -10.8850    7.7850    0.0920 C   0  0  1  0  0  0  0  0  0  0  0  0
   -9.9790    9.0240   -0.1880 C   0  0  0  0  0  0  0  0  0  0  0  0
  -10.0840    6.4470   -0.0150 C   0  0  2  0  0  0  0  0  0  0  0  0
   -8.8680    6.3380    0.9220 C   0  0  0  0  0  0  0  0  0  0  0  0
   -7.5780    6.8300    0.3530 C   0  0  0  0  0  0  0  0  0  0  0  0
   -7.3400    7.0740   -0.9490 C   0  0  0  0  0  0  0  0  0  0  0  0
   -8.3980    6.7610   -2.0150 C   0  0  1  0  0  0  0  0  0  0  0  0
   -7.7320    6.0160   -3.2020 C   0  0  0  0  0  0  0  0  0  0  0  0
   -6.5360    6.7720   -3.7710 C   0  0  0  0  0  0  0  0  0  0  0  0
   -5.4810    7.0130   -2.6950 C   0  0  2  0  0  0  0  0  0  0  0  0
   -4.9250    5.7540   -2.3040 O   0  0  0  0  0  0  0  0  0  0  0  0
   -6.0380    7.7490   -1.4440 C   0  0  0  0  0  0  0  0  0  0  0  0
   -6.3610    9.2200   -1.8070 C   0  0  0  0  0  0  0  0  0  0  0  0
   -4.9090    7.8030   -0.3800 C   0  0  0  0  0  0  0  0  0  0  0  0
   -9.7110    6.0320   -1.4960 C   0  0  1  0  0  0  0  0  0  0  0  0
   -9.4930    4.4880   -1.4840 C   0  0  0  0  0  0  0  0  0  0  0  0
  -10.8860    6.3070   -2.5080 C   0  0  0  0  0  0  0  0  0  0  0  0
  -11.7170    7.5830   -2.2780 C   0  0  0  0  0  0  0  0  0  0  0  0
  -12.1650    7.6900   -0.8170 C   0  0  2  0  0  0  0  0  0  0  0  0
  -13.0960    6.4680   -0.5110 C   0  0  0  0  0  0  0  0  0  0  0  0
  -14.7270    8.9943    1.3031 H   0  0  0  0  0  0  0  0  0  0  0  0
  -16.1561    9.4964    0.3377 H   0  0  0  0  0  0  0  0  0  0  0  0
  -15.6308    7.7787    0.3377 H   0  0  0  0  0  0  0  0  0  0  0  0
  -14.5846   10.1257   -1.1715 H   0  0  0  0  0  0  0  0  0  0  0  0
  -13.8473    7.4242   -2.0803 H   0  0  0  0  0  0  0  0  0  0  0  0
  -15.6376    7.6722   -1.8048 H   0  0  0  0  0  0  0  0  0  0  0  0
  -13.8143    8.8871   -3.8460 H   0  0  0  0  0  0  0  0  0  0  0  0
  -15.5324    8.3203   -3.9660 H   0  0  0  0  0  0  0  0  0  0  0  0
  -16.1924    9.9278   -2.6723 H   0  0  0  0  0  0  0  0  0  0  0  0
  -12.5826   11.2481   -1.7971 H   0  0  0  0  0  0  0  0  0  0  0  0
  -12.5906   10.3448   -3.3497 H   0  0  0  0  0  0  0  0  0  0  0  0
  -12.3824   12.1290   -3.3497 H   0  0  0  0  0  0  0  0  0  0  0  0
  -14.8906   12.5959   -1.2229 H   0  0  0  0  0  0  0  0  0  0  0  0
  -14.3490   13.5662   -2.6342 H   0  0  0  0  0  0  0  0  0  0  0  0
  -15.9802   12.8141   -2.6342 H   0  0  0  0  0  0  0  0  0  0  0  0
  -12.5005    9.8446   -0.9529 H   0  0  0  0  0  0  0  0  0  0  0  0
  -12.4970   10.0488    1.4535 H   0  0  0  0  0  0  0  0  0  0  0  0
  -13.6460    8.7075    1.6467 H   0  0  0  0  0  0  0  0  0  0  0  0
  -10.8347    8.5700    2.1386 H   0  0  0  0  0  0  0  0  0  0  0  0
  -11.8774    7.1603    1.9685 H   0  0  0  0  0  0  0  0  0  0  0  0
   -9.6562    9.4654    0.7665 H   0  0  0  0  0  0  0  0  0  0  0  0
   -9.0960    8.7099   -0.7639 H   0  0  0  0  0  0  0  0  0  0  0  0
  -10.5460    9.7702   -0.7639 H   0  0  0  0  0  0  0  0  0  0  0  0
  -10.8107    5.7067    0.3509 H   0  0  0  0  0  0  0  0  0  0  0  0
   -9.0842    6.9220    1.8287 H   0  0  0  0  0  0  0  0  0  0  0  0
   -8.7263    5.2640    1.1129 H   0  0  0  0  0  0  0  0  0  0  0  0
   -6.7523    7.0081    1.0577 H   0  0  0  0  0  0  0  0  0  0  0  0
   -8.7850    7.7332   -2.3543 H   0  0  0  0  0  0  0  0  0  0  0  0
   -7.3920    5.0298   -2.8530 H   0  0  0  0  0  0  0  0  0  0  0  0
   -8.4814    5.9265   -4.0022 H   0  0  0  0  0  0  0  0  0  0  0  0
   -6.0912    6.1814   -4.5855 H   0  0  0  0  0  0  0  0  0  0  0  0
   -6.8828    7.7458   -4.1471 H   0  0  0  0  0  0  0  0  0  0  0  0
   -4.7122    7.6695   -3.1287 H   0  0  0  0  0  0  0  0  0  0  0  0
   -5.5220    5.3610   -1.6440 H   0  0  0  0  0  0  0  0  0  0  0  0
   -6.4896    9.8055   -0.8847 H   0  0  0  0  0  0  0  0  0  0  0  0
   -5.5341    9.6421   -2.3970 H   0  0  0  0  0  0  0  0  0  0  0  0
   -7.2886    9.2569   -2.3970 H   0  0  0  0  0  0  0  0  0  0  0  0
   -5.3524    7.7818    0.6265 H   0  0  0  0  0  0  0  0  0  0  0  0
   -4.2444    6.9356   -0.5062 H   0  0  0  0  0  0  0  0  0  0  0  0
   -4.3302    8.7299   -0.5062 H   0  0  0  0  0  0  0  0  0  0  0  0
   -9.4429    4.1329   -0.4441 H   0  0  0  0  0  0  0  0  0  0  0  0
  -10.3305    3.9954   -1.9997 H   0  0  0  0  0  0  0  0  0  0  0  0
   -8.5519    4.2466   -1.9997 H   0  0  0  0  0  0  0  0  0  0  0  0
  -10.4491    6.3717   -3.5154 H   0  0  0  0  0  0  0  0  0  0  0  0
  -11.5908    5.4749   -2.3633 H   0  0  0  0  0  0  0  0  0  0  0  0
  -11.1054    8.4613   -2.5320 H   0  0  0  0  0  0  0  0  0  0  0  0
  -12.6115    7.5387   -2.9167 H   0  0  0  0  0  0  0  0  0  0  0  0
  -13.1911    6.3431    0.5777 H   0  0  0  0  0  0  0  0  0  0  0  0
  -14.0897    6.6457   -0.9479 H   0  0  0  0  0  0  0  0  0  0  0  0
  -12.6609    5.5571   -0.9479 H   0  0  0  0  0  0  0  0  0  0  0  0
  1  2  1  0
  2  3  1  0
  3  4  1  0
  4  5  1  0
  5  6  1  0
  6  7  1  0
  7  8  1  0
  7  9  1  0
  2 10  1  0
 10 11  1  0
 11 12  1  0
 12 13  1  0
 13 14  1  6
 13 15  1  0
 15 16  1  0
 16 17  1  0
 17 18  2  0
 18 19  1  0
 19 20  1  0
 20 21  1  0
 21 22  1  0
 22 23  1  0
 22 24  1  0
 24 25  1  0
 24 26  1  0
 19 27  1  0
 27 28  1  1
 27 29  1  0
 29 30  1  0
 30 31  1  0
 31 32  1  1
  7  5  1  0
 31 10  1  0
 31 13  1  0
 27 15  1  0
 24 18  1  0
  1 33  1  0
  1 34  1  0
  1 35  1  0
  2 36  1  6
  3 37  1  0
  3 38  1  0
  4 39  1  0
  4 40  1  0
  5 41  1  1
  8 42  1  0
  8 43  1  0
  8 44  1  0
  9 45  1  0
  9 46  1  0
  9 47  1  0
 10 48  1  6
 11 49  1  0
 11 50  1  0
 12 51  1  0
 12 52  1  0
 14 53  1  0
 14 54  1  0
 14 55  1  0
 15 56  1  1
 16 57  1  0
 16 58  1  0
 17 59  1  0
 19 60  1  6
 20 61  1  0
 20 62  1  0
 21 63  1  0
 21 64  1  0
 22 65  1  6
 23 66  1  0
 25 67  1  0
 25 68  1  0
 25 69  1  0
 26 70  1  0
 26 71  1  0
 26 72  1  0
 28 73  1  0
 28 74  1  0
 28 75  1  0
 29 76  1  0
 29 77  1  0
 30 78  1  0
 30 79  1  0
 32 80  1  0
 32 81  1  0
 32 82  1  0
M  END
>  <meeko>  (14) 
{"is_sidechain": [false], "intermolecular_energy": 2.731, "internal_energy": -0.839}

$$$$
EPH_relaxed_0001_pdb2pqr_Repair_171_r2_0001_out
     RDKit          3D

 82 86  0  0  0  0  0  0  0  0999 V2000
    2.6670   14.1530   -2.2980 C   0  0  0  0  0  0  0  0  0  0  0  0
    1.3980   14.1030   -3.1540 C   0  0  2  0  0  0  0  0  0  0  0  0
    0.2790   14.9980   -2.5870 C   0  0  0  0  0  0  0  0  0  0  0  0
    0.6370   15.6610   -1.2540 C   0  0  0  0  0  0  0  0  0  0  0  0
    0.5340   17.1540   -1.3330 C   0  0  2  0  0  0  0  0  0  0  0  0
    1.0160   17.8500   -0.1760 O   0  0  0  0  0  0  0  0  0  0  0  0
   -0.3880   17.9770   -0.4530 C   0  0  0  0  0  0  0  0  0  0  0  0
   -1.2710   17.3330    0.5700 C   0  0  0  0  0  0  0  0  0  0  0  0
   -0.7890   19.3430   -0.9160 C   0  0  0  0  0  0  0  0  0  0  0  0
    0.9070   12.6650   -3.2710 C   0  0  1  0  0  0  0  0  0  0  0  0
    2.0460   11.6700   -3.6190 C   0  0  0  0  0  0  0  0  0  0  0  0
    1.7240   10.3450   -2.8820 C   0  0  0  0  0  0  0  0  0  0  0  0
    0.2600   10.5070   -2.4110 C   0  0  1  0  0  0  0  0  0  0  0  0
   -0.6050   10.1660   -3.6650 C   0  0  0  0  0  0  0  0  0  0  0  0
   -0.1640    9.6570   -1.1690 C   0  0  2  0  0  0  0  0  0  0  0  0
   -0.0920    8.1320   -1.3660 C   0  0  0  0  0  0  0  0  0  0  0  0
   -1.3420    7.4950   -1.8770 C   0  0  0  0  0  0  0  0  0  0  0  0
   -2.5600    8.0680   -1.8970 C   0  0  0  0  0  0  0  0  0  0  0  0
   -2.7890    9.4540   -1.2810 C   0  0  1  0  0  0  0  0  0  0  0  0
   -4.0670    9.4250   -0.4020 C   0  0  0  0  0  0  0  0  0  0  0  0
   -5.2880    8.9160   -1.1610 C   0  0  0  0  0  0  0  0  0  0  0  0
   -5.0420    7.5120   -1.7090 C   0  0  2  0  0  0  0  0  0  0  0  0
   -4.9270    6.6020   -0.6110 O   0  0  0  0  0  0  0  0  0  0  0  0
   -3.7740    7.4160   -2.6030 C   0  0  0  0  0  0  0  0  0  0  0  0
   -4.0200    8.1630   -3.9370 C   0  0  0  0  0  0  0  0  0  0  0  0
   -3.5630    5.9230   -2.9740 C   0  0  0  0  0  0  0  0  0  0  0  0
   -1.5430   10.0920   -0.5270 C   0  0  1  0  0  0  0  0  0  0  0  0
   -1.5150    9.6090    0.9560 C   0  0  0  0  0  0  0  0  0  0  0  0
   -1.7150   11.6560   -0.4810 C   0  0  0  0  0  0  0  0  0  0  0  0
   -1.1690   12.4500   -1.6830 C   0  0  0  0  0  0  0  0  0  0  0  0
    0.2660   12.0270   -2.0130 C   0  0  2  0  0  0  0  0  0  0  0  0
    1.1640   12.3780   -0.7780 C   0  0  0  0  0  0  0  0  0  0  0  0
    2.3916   14.1421   -1.2331 H   0  0  0  0  0  0  0  0  0  0  0  0
    3.2958   13.2789   -2.5231 H   0  0  0  0  0  0  0  0  0  0  0  0
    3.2251   15.0738   -2.5231 H   0  0  0  0  0  0  0  0  0  0  0  0
    1.6557   14.4901   -4.1509 H   0  0  0  0  0  0  0  0  0  0  0  0
    0.0612   15.7883   -3.3205 H   0  0  0  0  0  0  0  0  0  0  0  0
   -0.5886   14.3482   -2.4000 H   0  0  0  0  0  0  0  0  0  0  0  0
   -0.0522   15.2966   -0.4780 H   0  0  0  0  0  0  0  0  0  0  0  0
    1.6777   15.4012   -1.0100 H   0  0  0  0  0  0  0  0  0  0  0  0
    0.6874   17.1300   -2.4220 H   0  0  0  0  0  0  0  0  0  0  0  0
   -0.9147   17.5929    1.5777 H   0  0  0  0  0  0  0  0  0  0  0  0
   -2.3028   17.6921    0.4420 H   0  0  0  0  0  0  0  0  0  0  0  0
   -1.2443   16.2408    0.4420 H   0  0  0  0  0  0  0  0  0  0  0  0
   -0.9776   19.9853   -0.0432 H   0  0  0  0  0  0  0  0  0  0  0  0
    0.0197   19.7767   -1.5225 H   0  0  0  0  0  0  0  0  0  0  0  0
   -1.7038   19.2707   -1.5225 H   0  0  0  0  0  0  0  0  0  0  0  0
    0.1477   12.7943   -4.0564 H   0  0  0  0  0  0  0  0  0  0  0  0
    2.0817   11.5001   -4.7052 H   0  0  0  0  0  0  0  0  0  0  0  0
    3.0244   12.0661   -3.3094 H   0  0  0  0  0  0  0  0  0  0  0  0
    1.8198    9.4877   -3.5645 H   0  0  0  0  0  0  0  0  0  0  0  0
    2.4128   10.1545   -2.0458 H   0  0  0  0  0  0  0  0  0  0  0  0
   -1.5832    9.7804   -3.3418 H   0  0  0  0  0  0  0  0  0  0  0  0
   -0.7501   11.0742   -4.2684 H   0  0  0  0  0  0  0  0  0  0  0  0
   -0.0913    9.4031   -4.2684 H   0  0  0  0  0  0  0  0  0  0  0  0
    0.6203    9.9008   -0.4373 H   0  0  0  0  0  0  0  0  0  0  0  0
    0.7151    7.9196   -2.0826 H   0  0  0  0  0  0  0  0  0  0  0  0
    0.0813    7.7041   -0.3675 H   0  0  0  0  0  0  0  0  0  0  0  0
   -1.2608    6.4710   -2.2704 H   0  0  0  0  0  0  0  0  0  0  0  0
   -2.9333   10.1430   -2.1263 H   0  0  0  0  0  0  0  0  0  0  0  0
   -3.8873    8.7653    0.4597 H   0  0  0  0  0  0  0  0  0  0  0  0
   -4.2775   10.4571   -0.0851 H   0  0  0  0  0  0  0  0  0  0  0  0
   -6.1511    8.8906   -0.4795 H   0  0  0  0  0  0  0  0  0  0  0  0
   -5.4851    9.5934   -2.0050 H   0  0  0  0  0  0  0  0  0  0  0  0
   -5.8975    7.2541   -2.3505 H   0  0  0  0  0  0  0  0  0  0  0  0
   -4.2680    6.9650    0.0040 H   0  0  0  0  0  0  0  0  0  0  0  0
   -4.3577    9.1884   -3.7262 H   0  0  0  0  0  0  0  0  0  0  0  0
   -3.0854    8.1965   -4.5162 H   0  0  0  0  0  0  0  0  0  0  0  0
   -4.7916    7.6347   -4.5162 H   0  0  0  0  0  0  0  0  0  0  0  0
   -3.4785    5.3251   -2.0545 H   0  0  0  0  0  0  0  0  0  0  0  0
   -4.4198    5.5674   -3.5651 H   0  0  0  0  0  0  0  0  0  0  0  0
   -2.6412    5.8188   -3.5651 H   0  0  0  0  0  0  0  0  0  0  0  0
   -1.5655   10.4798    1.6262 H   0  0  0  0  0  0  0  0  0  0  0  0
   -2.3765    8.9513    1.1438 H   0  0  0  0  0  0  0  0  0  0  0  0
   -0.5832    9.0553    1.1438 H   0  0  0  0  0  0  0  0  0  0  0  0
   -2.7910   11.8704   -0.4015 H   0  0  0  0  0  0  0  0  0  0  0  0
   -1.1146   11.9866    0.3793 H   0  0  0  0  0  0  0  0  0  0  0  0
   -1.8092   12.2640   -2.5579 H   0  0  0  0  0  0  0  0  0  0  0  0
   -1.1692   13.5196   -1.4263 H   0  0  0  0  0  0  0  0  0  0  0  0
    0.6128   12.1625    0.1492 H   0  0  0  0  0  0  0  0  0  0  0  0
    2.0818   11.7724   -0.8081 H   0  0  0  0  0  0  0  0  0  0  0  0
    1.4279   13.4455   -0.8081 H   0  0  0  0  0  0  0  0  0  0  0  0
  1  2  1  0
  2  3  1  0
  3  4  1  0
  4  5  1  0
  5  6  1  0
  6  7  1  0
  7  8  1  0
  7  9  1  0
  2 10  1  0
 10 11  1  0
 11 12  1  0
 12 13  1  0
 13 14  1  6
 13 15  1  0
 15 16  1  0
 16 17  1  0
 17 18  2  0
 18 19  1  0
 19 20  1  0
 20 21  1  0
 21 22  1  0
 22 23  1  0
 22 24  1  0
 24 25  1  0
 24 26  1  0
 19 27  1  0
 27 28  1  1
 27 29  1  0
 29 30  1  0
 30 31  1  0
 31 32  1  1
  7  5  1  0
 31 10  1  0
 31 13  1  0
 27 15  1  0
 24 18  1  0
  1 33  1  0
  1 34  1  0
  1 35  1  0
  2 36  1  6
  3 37  1  0
  3 38  1  0
  4 39  1  0
  4 40  1  0
  5 41  1  6
  8 42  1  0
  8 43  1  0
  8 44  1  0
  9 45  1  0
  9 46  1  0
  9 47  1  0
 10 48  1  6
 11 49  1  0
 11 50  1  0
 12 51  1  0
 12 52  1  0
 14 53  1  0
 14 54  1  0
 14 55  1  0
 15 56  1  1
 16 57  1  0
 16 58  1  0
 17 59  1  0
 19 60  1  6
 20 61  1  0
 20 62  1  0
 21 63  1  0
 21 64  1  0
 22 65  1  6
 23 66  1  0
 25 67  1  0
 25 68  1  0
 25 69  1  0
 26 70  1  0
 26 71  1  0
 26 72  1  0
 28 73  1  0
 28 74  1  0
 28 75  1  0
 29 76  1  0
 29 77  1  0
 30 78  1  0
 30 79  1  0
 32 80  1  0
 32 81  1  0
 32 82  1  0
M  END
>  <meeko>  (15) 
{"is_sidechain": [false], "intermolecular_energy": 2.731, "internal_energy": -0.839}

$$$$
EPH_relaxed_0001_pdb2pqr_Repair_171_r2_0001_out
     RDKit          3D

 82 86  0  0  0  0  0  0  0  0999 V2000
   -0.0080   18.4600   -3.1590 C   0  0  0  0  0  0  0  0  0  0  0  0
    0.1070   17.6070   -1.8930 C   0  0  2  0  0  0  0  0  0  0  0  0
    1.1760   18.1490   -0.9220 C   0  0  0  0  0  0  0  0  0  0  0  0
    0.8260   19.5140   -0.3220 C   0  0  0  0  0  0  0  0  0  0  0  0
   -0.4520   19.4640    0.4600 C   0  0  2  0  0  0  0  0  0  0  0  0
   -1.3660   18.4380    0.0500 O   0  0  0  0  0  0  0  0  0  0  0  0
   -1.8090   19.7920   -0.1350 C   0  0  0  0  0  0  0  0  0  0  0  0
   -1.9570   20.1940   -1.5680 C   0  0  0  0  0  0  0  0  0  0  0  0
   -2.9170   20.1940    0.7890 C   0  0  0  0  0  0  0  0  0  0  0  0
    0.4280   16.1640   -2.2660 C   0  0  1  0  0  0  0  0  0  0  0  0
    1.7180   16.0400   -3.1200 C   0  0  0  0  0  0  0  0  0  0  0  0
    2.4040   14.7130   -2.7040 C   0  0  0  0  0  0  0  0  0  0  0  0
    1.3330   13.9630   -1.8780 C   0  0  1  0  0  0  0  0  0  0  0  0
    0.4030   13.2950   -2.9390 C   0  0  0  0  0  0  0  0  0  0  0  0
    1.8650   12.9210   -0.8400 C   0  0  2  0  0  0  0  0  0  0  0  0
    2.6440   11.7390   -1.4430 C   0  0  0  0  0  0  0  0  0  0  0  0
    1.8200   10.5460   -1.7970 C   0  0  0  0  0  0  0  0  0  0  0  0
    0.5610   10.3130   -1.3800 C   0  0  0  0  0  0  0  0  0  0  0  0
   -0.1260   11.2570   -0.3850 C   0  0  1  0  0  0  0  0  0  0  0  0
   -0.8130   10.4230    0.7290 C   0  0  0  0  0  0  0  0  0  0  0  0
   -1.7660    9.3710    0.1690 C   0  0  0  0  0  0  0  0  0  0  0  0
   -1.0330    8.4170   -0.7710 C   0  0  2  0  0  0  0  0  0  0  0  0
   -0.0960    7.6490   -0.0090 O   0  0  0  0  0  0  0  0  0  0  0  0
   -0.2940    9.1450   -1.9290 C   0  0  0  0  0  0  0  0  0  0  0  0
   -1.3300    9.7250   -2.9230 C   0  0  0  0  0  0  0  0  0  0  0  0
    0.5180    8.0830   -2.7180 C   0  0  0  0  0  0  0  0  0  0  0  0
    0.7770   12.4270    0.1980 C   0  0  1  0  0  0  0  0  0  0  0  0
    1.5550   11.9240    1.4520 C   0  0  0  0  0  0  0  0  0  0  0  0
   -0.1530   13.5970    0.6920 C   0  0  0  0  0  0  0  0  0  0  0  0
   -0.5470   14.6600   -0.3510 C   0  0  0  0  0  0  0  0  0  0  0  0
    0.6850   15.1700   -1.1060 C   0  0  2  0  0  0  0  0  0  0  0  0
    1.6290   15.8660   -0.0670 C   0  0  0  0  0  0  0  0  0  0  0  0
   -0.1501   19.5143   -2.8791 H   0  0  0  0  0  0  0  0  0  0  0  0
    0.9118   18.3593   -3.7538 H   0  0  0  0  0  0  0  0  0  0  0  0
   -0.8683   18.1193   -3.7538 H   0  0  0  0  0  0  0  0  0  0  0  0
   -0.8627   17.6514   -1.3755 H   0  0  0  0  0  0  0  0  0  0  0  0
    1.2957   17.4284   -0.0996 H   0  0  0  0  0  0  0  0  0  0  0  0
    2.1011   18.2802   -1.5024 H   0  0  0  0  0  0  0  0  0  0  0  0
    1.6409   19.8293    0.3463 H   0  0  0  0  0  0  0  0  0  0  0  0
    0.6952   20.2286   -1.1480 H   0  0  0  0  0  0  0  0  0  0  0  0
    0.0613   19.8163    1.3668 H   0  0  0  0  0  0  0  0  0  0  0  0
   -2.3366   21.2250   -1.6223 H   0  0  0  0  0  0  0  0  0  0  0  0
   -0.9788   20.1366   -2.0678 H   0  0  0  0  0  0  0  0  0  0  0  0
   -2.6645   19.5160   -2.0678 H   0  0  0  0  0  0  0  0  0  0  0  0
   -2.5868   20.0742    1.8314 H   0  0  0  0  0  0  0  0  0  0  0  0
   -3.1827   21.2458    0.6071 H   0  0  0  0  0  0  0  0  0  0  0  0
   -3.7953   19.5572    0.6071 H   0  0  0  0  0  0  0  0  0  0  0  0
   -0.5019   15.8981   -2.7900 H   0  0  0  0  0  0  0  0  0  0  0  0
    1.4632   16.0156   -4.1898 H   0  0  0  0  0  0  0  0  0  0  0  0
    2.3854   16.8985   -2.9543 H   0  0  0  0  0  0  0  0  0  0  0  0
    2.6898   14.1288   -3.5911 H   0  0  0  0  0  0  0  0  0  0  0  0
    3.3286   14.8824   -2.1327 H   0  0  0  0  0  0  0  0  0  0  0  0
   -0.3879   12.7269   -2.4275 H   0  0  0  0  0  0  0  0  0  0  0  0
   -0.0532   14.0732   -3.5686 H   0  0  0  0  0  0  0  0  0  0  0  0
    0.9948   12.6142   -3.5686 H   0  0  0  0  0  0  0  0  0  0  0  0
    2.6034   13.5076   -0.2737 H   0  0  0  0  0  0  0  0  0  0  0  0
    3.1419   12.0917   -2.3582 H   0  0  0  0  0  0  0  0  0  0  0  0
    3.3426   11.4050   -0.6617 H   0  0  0  0  0  0  0  0  0  0  0  0
    2.2801    9.7934   -2.4542 H   0  0  0  0  0  0  0  0  0  0  0  0
   -0.8841   11.8074   -0.9615 H   0  0  0  0  0  0  0  0  0  0  0  0
   -0.0359    9.9160    1.3198 H   0  0  0  0  0  0  0  0  0  0  0  0
   -1.4048   11.1145    1.3468 H   0  0  0  0  0  0  0  0  0  0  0  0
   -2.1970    8.7958    1.0017 H   0  0  0  0  0  0  0  0  0  0  0  0
   -2.5595    9.8812   -0.3968 H   0  0  0  0  0  0  0  0  0  0  0  0
   -1.7888    7.7698   -1.2399 H   0  0  0  0  0  0  0  0  0  0  0  0
   -0.2070    7.8920    0.9250 H   0  0  0  0  0  0  0  0  0  0  0  0
   -2.1562   10.1876   -2.3632 H   0  0  0  0  0  0  0  0  0  0  0  0
   -0.8461   10.4834   -3.5560 H   0  0  0  0  0  0  0  0  0  0  0  0
   -1.7236    8.9160   -3.5560 H   0  0  0  0  0  0  0  0  0  0  0  0
    1.0300    7.4134   -2.0112 H   0  0  0  0  0  0  0  0  0  0  0  0
   -0.1638    7.4960   -3.3509 H   0  0  0  0  0  0  0  0  0  0  0  0
    1.2632    8.5871   -3.3509 H   0  0  0  0  0  0  0  0  0  0  0  0
    1.0375   12.2586    2.3632 H   0  0  0  0  0  0  0  0  0  0  0  0
    1.6006   10.8250    1.4388 H   0  0  0  0  0  0  0  0  0  0  0  0
    2.5759   12.3335    1.4388 H   0  0  0  0  0  0  0  0  0  0  0  0
   -1.0807   13.1458    1.0738 H   0  0  0  0  0  0  0  0  0  0  0  0
    0.4405   14.1380    1.4437 H   0  0  0  0  0  0  0  0  0  0  0  0
   -1.2511   14.2154   -1.0698 H   0  0  0  0  0  0  0  0  0  0  0  0
   -1.0143   15.5078    0.1713 H   0  0  0  0  0  0  0  0  0  0  0  0
    1.2964   15.6208    0.9524 H   0  0  0  0  0  0  0  0  0  0  0  0
    2.6597   15.5100   -0.2120 H   0  0  0  0  0  0  0  0  0  0  0  0
    1.5937   16.9558   -0.2120 H   0  0  0  0  0  0  0  0  0  0  0  0
  1  2  1  0
  2  3  1  0
  3  4  1  0
  4  5  1  0
  5  6  1  0
  6  7  1  0
  7  8  1  0
  7  9  1  0
  2 10  1  0
 10 11  1  0
 11 12  1  0
 12 13  1  0
 13 14  1  6
 13 15  1  0
 15 16  1  0
 16 17  1  0
 17 18  2  0
 18 19  1  0
 19 20  1  0
 20 21  1  0
 21 22  1  0
 22 23  1  0
 22 24  1  0
 24 25  1  0
 24 26  1  0
 19 27  1  0
 27 28  1  1
 27 29  1  0
 29 30  1  0
 30 31  1  0
 31 32  1  1
  7  5  1  0
 31 10  1  0
 31 13  1  0
 27 15  1  0
 24 18  1  0
  1 33  1  0
  1 34  1  0
  1 35  1  0
  2 36  1  1
  3 37  1  0
  3 38  1  0
  4 39  1  0
  4 40  1  0
  5 41  1  1
  8 42  1  0
  8 43  1  0
  8 44  1  0
  9 45  1  0
  9 46  1  0
  9 47  1  0
 10 48  1  6
 11 49  1  0
 11 50  1  0
 12 51  1  0
 12 52  1  0
 14 53  1  0
 14 54  1  0
 14 55  1  0
 15 56  1  1
 16 57  1  0
 16 58  1  0
 17 59  1  0
 19 60  1  6
 20 61  1  0
 20 62  1  0
 21 63  1  0
 21 64  1  0
 22 65  1  6
 23 66  1  0
 25 67  1  0
 25 68  1  0
 25 69  1  0
 26 70  1  0
 26 71  1  0
 26 72  1  0
 28 73  1  0
 28 74  1  0
 28 75  1  0
 29 76  1  0
 29 77  1  0
 30 78  1  0
 30 79  1  0
 32 80  1  0
 32 81  1  0
 32 82  1  0
M  END
>  <meeko>  (16) 
{"is_sidechain": [false], "intermolecular_energy": 2.731, "internal_energy": -0.839}

$$$$
EPH_relaxed_0001_pdb2pqr_Repair_171_r2_0001_out
     RDKit          3D

 82 86  0  0  0  0  0  0  0  0999 V2000
  -14.1050    9.7050    0.8470 C   0  0  0  0  0  0  0  0  0  0  0  0
  -13.4200    9.2630   -0.4500 C   0  0  2  0  0  0  0  0  0  0  0  0
  -14.3160    8.3320   -1.2910 C   0  0  0  0  0  0  0  0  0  0  0  0
  -14.5460    8.8280   -2.7220 C   0  0  0  0  0  0  0  0  0  0  0  0
  -15.2610   10.1450   -2.7430 C   0  0  2  0  0  0  0  0  0  0  0  0
  -15.0980   10.8950   -3.9550 O   0  0  0  0  0  0  0  0  0  0  0  0
  -14.5470   11.4840   -2.7660 C   0  0  0  0  0  0  0  0  0  0  0  0
  -13.0530   11.5720   -2.7660 C   0  0  0  0  0  0  0  0  0  0  0  0
  -15.2870   12.6970   -2.2960 C   0  0  0  0  0  0  0  0  0  0  0  0
  -12.1020    8.5690   -0.1300 C   0  0  1  0  0  0  0  0  0  0  0  0
  -12.2530    7.4700    0.9560 C   0  0  0  0  0  0  0  0  0  0  0  0
  -11.2600    6.3380    0.5870 C   0  0  0  0  0  0  0  0  0  0  0  0
  -10.3440    6.9580   -0.4930 C   0  0  1  0  0  0  0  0  0  0  0  0
   -9.2920    7.7920    0.3040 C   0  0  0  0  0  0  0  0  0  0  0  0
   -9.6590    5.9550   -1.4770 C   0  0  2  0  0  0  0  0  0  0  0  0
   -8.6920    4.9540   -0.8210 C   0  0  0  0  0  0  0  0  0  0  0  0
   -7.2710    5.4020   -0.7330 C   0  0  0  0  0  0  0  0  0  0  0  0
   -6.7330    6.4320   -1.4130 C   0  0  0  0  0  0  0  0  0  0  0  0
   -7.5550    7.2050   -2.4520 C   0  0  1  0  0  0  0  0  0  0  0  0
   -6.7140    7.3920   -3.7420 C   0  0  0  0  0  0  0  0  0  0  0  0
   -5.3600    8.0410   -3.4690 C   0  0  0  0  0  0  0  0  0  0  0  0
   -4.5490    7.2120   -2.4760 C   0  0  2  0  0  0  0  0  0  0  0  0
   -4.2060    5.9650   -3.0880 O   0  0  0  0  0  0  0  0  0  0  0  0
   -5.2990    6.9500   -1.1400 C   0  0  0  0  0  0  0  0  0  0  0  0
   -5.4040    8.2690   -0.3350 C   0  0  0  0  0  0  0  0  0  0  0  0
   -4.4310    5.9880   -0.2860 C   0  0  0  0  0  0  0  0  0  0  0  0
   -9.0090    6.6370   -2.7490 C   0  0  1  0  0  0  0  0  0  0  0  0
   -8.9350    5.5390   -3.8540 C   0  0  0  0  0  0  0  0  0  0  0  0
   -9.9040    7.7930   -3.3310 C   0  0  0  0  0  0  0  0  0  0  0  0
  -10.6500    8.6750   -2.3120 C   0  0  0  0  0  0  0  0  0  0  0  0
  -11.3960    7.8160   -1.2860 C   0  0  2  0  0  0  0  0  0  0  0  0
  -12.4760    6.9820   -2.0560 C   0  0  0  0  0  0  0  0  0  0  0  0
  -13.5312    9.3347    1.7093 H   0  0  0  0  0  0  0  0  0  0  0  0
  -14.1509   10.8035    0.8815 H   0  0  0  0  0  0  0  0  0  0  0  0
  -15.1248    9.2941    0.8815 H   0  0  0  0  0  0  0  0  0  0  0  0
  -13.2288   10.1658   -1.0487 H   0  0  0  0  0  0  0  0  0  0  0  0
  -13.8398    7.3416   -1.3389 H   0  0  0  0  0  0  0  0  0  0  0  0
  -15.2994    8.3010   -0.7991 H   0  0  0  0  0  0  0  0  0  0  0  0
  -13.5722    8.9429   -3.2205 H   0  0  0  0  0  0  0  0  0  0  0  0
  -15.1714    8.0895   -3.2450 H   0  0  0  0  0  0  0  0  0  0  0  0
  -16.0629    9.7472   -2.1037 H   0  0  0  0  0  0  0  0  0  0  0  0
  -12.6870   11.5936   -1.7289 H   0  0  0  0  0  0  0  0  0  0  0  0
  -12.6342   10.6970   -3.2845 H   0  0  0  0  0  0  0  0  0  0  0  0
  -12.7398   12.4902   -3.2845 H   0  0  0  0  0  0  0  0  0  0  0  0
  -15.2987   12.7161   -1.1962 H   0  0  0  0  0  0  0  0  0  0  0  0
  -14.7864   13.6009   -2.6732 H   0  0  0  0  0  0  0  0  0  0  0  0
  -16.3198   12.6655   -2.6732 H   0  0  0  0  0  0  0  0  0  0  0  0
  -11.5035    9.4409    0.1728 H   0  0  0  0  0  0  0  0  0  0  0  0
  -12.0086    7.8804    1.9469 H   0  0  0  0  0  0  0  0  0  0  0  0
  -13.2855    7.0927    0.9955 H   0  0  0  0  0  0  0  0  0  0  0  0
  -10.6729    6.0347    1.4664 H   0  0  0  0  0  0  0  0  0  0  0  0
  -11.7735    5.4336    0.2288 H   0  0  0  0  0  0  0  0  0  0  0  0
   -9.4598    7.6590    1.3830 H   0  0  0  0  0  0  0  0  0  0  0  0
   -8.2795    7.4485    0.0453 H   0  0  0  0  0  0  0  0  0  0  0  0
   -9.3955    8.8561    0.0453 H   0  0  0  0  0  0  0  0  0  0  0  0
  -10.5104    5.3572   -1.8344 H   0  0  0  0  0  0  0  0  0  0  0  0
   -9.0495    4.7560    0.2003 H   0  0  0  0  0  0  0  0  0  0  0  0
   -8.6904    4.0647   -1.4684 H   0  0  0  0  0  0  0  0  0  0  0  0
   -6.6077    4.8439   -0.0558 H   0  0  0  0  0  0  0  0  0  0  0  0
   -7.7706    8.1848   -2.0009 H   0  0  0  0  0  0  0  0  0  0  0  0
   -6.5465    6.4059   -4.1997 H   0  0  0  0  0  0  0  0  0  0  0  0
   -7.2751    8.0596   -4.4125 H   0  0  0  0  0  0  0  0  0  0  0  0
   -4.8014    8.1197   -4.4133 H   0  0  0  0  0  0  0  0  0  0  0  0
   -5.5290    9.0390   -3.0383 H   0  0  0  0  0  0  0  0  0  0  0  0
   -3.6485    7.7904   -2.2217 H   0  0  0  0  0  0  0  0  0  0  0  0
   -4.8190    5.2920   -2.7470 H   0  0  0  0  0  0  0  0  0  0  0  0
   -5.3861    8.0439    0.7416 H   0  0  0  0  0  0  0  0  0  0  0  0
   -4.5549    8.9212   -0.5874 H   0  0  0  0  0  0  0  0  0  0  0  0
   -6.3456    8.7787   -0.5874 H   0  0  0  0  0  0  0  0  0  0  0  0
   -4.6082    6.1844    0.7817 H   0  0  0  0  0  0  0  0  0  0  0  0
   -4.7016    4.9472   -0.5172 H   0  0  0  0  0  0  0  0  0  0  0  0
   -3.3679    6.1505   -0.5172 H   0  0  0  0  0  0  0  0  0  0  0  0
   -8.8682    4.5477   -3.3820 H   0  0  0  0  0  0  0  0  0  0  0  0
   -9.8384    5.5870   -4.4797 H   0  0  0  0  0  0  0  0  0  0  0  0
   -8.0462    5.7078   -4.4797 H   0  0  0  0  0  0  0  0  0  0  0  0
   -9.2529    8.4503   -3.9260 H   0  0  0  0  0  0  0  0  0  0  0  0
  -10.6937    7.2846   -3.9036 H   0  0  0  0  0  0  0  0  0  0  0  0
   -9.9229    9.3122   -1.7872 H   0  0  0  0  0  0  0  0  0  0  0  0
  -11.3831    9.2919   -2.8523 H   0  0  0  0  0  0  0  0  0  0  0  0
  -13.1321    6.4753   -1.3330 H   0  0  0  0  0  0  0  0  0  0  0  0
  -13.0760    7.6534   -2.6878 H   0  0  0  0  0  0  0  0  0  0  0  0
  -11.9781    6.2317   -2.6878 H   0  0  0  0  0  0  0  0  0  0  0  0
  1  2  1  0
  2  3  1  0
  3  4  1  0
  4  5  1  0
  5  6  1  0
  6  7  1  0
  7  8  1  0
  7  9  1  0
  2 10  1  0
 10 11  1  0
 11 12  1  0
 12 13  1  0
 13 14  1  1
 13 15  1  0
 15 16  1  0
 16 17  1  0
 17 18  2  0
 18 19  1  0
 19 20  1  0
 20 21  1  0
 21 22  1  0
 22 23  1  0
 22 24  1  0
 24 25  1  0
 24 26  1  0
 19 27  1  0
 27 28  1  6
 27 29  1  0
 29 30  1  0
 30 31  1  0
 31 32  1  6
  7  5  1  0
 31 10  1  0
 31 13  1  0
 27 15  1  0
 24 18  1  0
  1 33  1  0
  1 34  1  0
  1 35  1  0
  2 36  1  6
  3 37  1  0
  3 38  1  0
  4 39  1  0
  4 40  1  0
  5 41  1  1
  8 42  1  0
  8 43  1  0
  8 44  1  0
  9 45  1  0
  9 46  1  0
  9 47  1  0
 10 48  1  1
 11 49  1  0
 11 50  1  0
 12 51  1  0
 12 52  1  0
 14 53  1  0
 14 54  1  0
 14 55  1  0
 15 56  1  6
 16 57  1  0
 16 58  1  0
 17 59  1  0
 19 60  1  1
 20 61  1  0
 20 62  1  0
 21 63  1  0
 21 64  1  0
 22 65  1  1
 23 66  1  0
 25 67  1  0
 25 68  1  0
 25 69  1  0
 26 70  1  0
 26 71  1  0
 26 72  1  0
 28 73  1  0
 28 74  1  0
 28 75  1  0
 29 76  1  0
 29 77  1  0
 30 78  1  0
 30 79  1  0
 32 80  1  0
 32 81  1  0
 32 82  1  0
M  END
>  <meeko>  (17) 
{"is_sidechain": [false], "intermolecular_energy": 2.731, "internal_energy": -0.839}

$$$$
EPH_relaxed_0001_pdb2pqr_Repair_171_r2_0001_out
     RDKit          3D

 82 86  0  0  0  0  0  0  0  0999 V2000
  -14.5260    6.2430   -0.4390 C   0  0  0  0  0  0  0  0  0  0  0  0
  -13.3910    7.1460    0.0520 C   0  0  2  0  0  0  0  0  0  0  0  0
  -13.8810    8.5720    0.3720 C   0  0  0  0  0  0  0  0  0  0  0  0
  -15.1970    8.9410   -0.3190 C   0  0  0  0  0  0  0  0  0  0  0  0
  -14.9800    9.3370   -1.7480 C   0  0  2  0  0  0  0  0  0  0  0  0
  -13.7830   10.0890   -1.9860 O   0  0  0  0  0  0  0  0  0  0  0  0
  -15.0210   10.7750   -2.2330 C   0  0  0  0  0  0  0  0  0  0  0  0
  -15.2860   11.9080   -1.2920 C   0  0  0  0  0  0  0  0  0  0  0  0
  -15.2870   11.0340   -3.6830 C   0  0  0  0  0  0  0  0  0  0  0  0
  -12.2800    7.1980   -0.9900 C   0  0  1  0  0  0  0  0  0  0  0  0
  -12.5010    8.3160   -2.0430 C   0  0  0  0  0  0  0  0  0  0  0  0
  -11.0990    8.8600   -2.4190 C   0  0  0  0  0  0  0  0  0  0  0  0
  -10.1090    7.8280   -1.8300 C   0  0  1  0  0  0  0  0  0  0  0  0
  -10.0760    6.6650   -2.8710 C   0  0  0  0  0  0  0  0  0  0  0  0
   -8.6730    8.3540   -1.5060 C   0  0  2  0  0  0  0  0  0  0  0  0
   -7.8740    8.8590   -2.7200 C   0  0  0  0  0  0  0  0  0  0  0  0
   -7.0380    7.8290   -3.4060 C   0  0  0  0  0  0  0  0  0  0  0  0
   -6.7080    6.6260   -2.9000 C   0  0  0  0  0  0  0  0  0  0  0  0
   -7.1060    6.2360   -1.4710 C   0  0  1  0  0  0  0  0  0  0  0  0
   -5.8860    5.6100   -0.7460 C   0  0  0  0  0  0  0  0  0  0  0  0
   -5.2790    4.4450   -1.5210 C   0  0  0  0  0  0  0  0  0  0  0  0
   -4.8420    4.8870   -2.9150 C   0  0  2  0  0  0  0  0  0  0  0  0
   -3.7540    5.8070   -2.7870 O   0  0  0  0  0  0  0  0  0  0  0  0
   -5.9860    5.5410   -3.7380 C   0  0  0  0  0  0  0  0  0  0  0  0
   -7.0250    4.4630   -4.1340 C   0  0  0  0  0  0  0  0  0  0  0  0
   -5.3790    6.0680   -5.0660 C   0  0  0  0  0  0  0  0  0  0  0  0
   -7.8100    7.3730   -0.6130 C   0  0  1  0  0  0  0  0  0  0  0  0
   -6.7310    8.2490    0.0950 C   0  0  0  0  0  0  0  0  0  0  0  0
   -8.6590    6.7030    0.5320 C   0  0  0  0  0  0  0  0  0  0  0  0
  -10.1090    6.3150    0.1850 C   0  0  0  0  0  0  0  0  0  0  0  0
  -10.8430    7.4800   -0.4840 C   0  0  2  0  0  0  0  0  0  0  0  0
  -10.9120    8.6570    0.5480 C   0  0  0  0  0  0  0  0  0  0  0  0
  -15.0580    5.8197    0.4258 H   0  0  0  0  0  0  0  0  0  0  0  0
  -15.2268    6.8331   -1.0477 H   0  0  0  0  0  0  0  0  0  0  0  0
  -14.1085    5.4274   -1.0477 H   0  0  0  0  0  0  0  0  0  0  0  0
  -13.0039    6.7128    0.9861 H   0  0  0  0  0  0  0  0  0  0  0  0
  -14.0251    8.6537    1.4595 H   0  0  0  0  0  0  0  0  0  0  0  0
  -13.1152    9.2666   -0.0036 H   0  0  0  0  0  0  0  0  0  0  0  0
  -15.8717    8.0727   -0.2881 H   0  0  0  0  0  0  0  0  0  0  0  0
  -15.6347    9.7991    0.2122 H   0  0  0  0  0  0  0  0  0  0  0  0
  -15.4814    8.4241   -2.1018 H   0  0  0  0  0  0  0  0  0  0  0  0
  -15.2024   11.5506   -0.2550 H   0  0  0  0  0  0  0  0  0  0  0  0
  -14.5507   12.7077   -1.4646 H   0  0  0  0  0  0  0  0  0  0  0  0
  -16.2997   12.2986   -1.4646 H   0  0  0  0  0  0  0  0  0  0  0  0
  -16.0720   11.7983   -3.7810 H   0  0  0  0  0  0  0  0  0  0  0  0
  -14.3657   11.3905   -4.1668 H   0  0  0  0  0  0  0  0  0  0  0  0
  -15.6188   10.1035   -4.1668 H   0  0  0  0  0  0  0  0  0  0  0  0
  -12.3462    6.1722   -1.3817 H   0  0  0  0  0  0  0  0  0  0  0  0
  -12.9989    7.9046   -2.9334 H   0  0  0  0  0  0  0  0  0  0  0  0
  -13.1403    9.1160   -1.6413 H   0  0  0  0  0  0  0  0  0  0  0  0
  -10.9879    8.9250   -3.5114 H   0  0  0  0  0  0  0  0  0  0  0  0
  -10.9264    9.8737   -2.0282 H   0  0  0  0  0  0  0  0  0  0  0  0
  -10.0486    5.7006   -2.3426 H   0  0  0  0  0  0  0  0  0  0  0  0
  -10.9758    6.7120   -3.5019 H   0  0  0  0  0  0  0  0  0  0  0  0
   -9.1803    6.7630   -3.5019 H   0  0  0  0  0  0  0  0  0  0  0  0
   -8.8799    9.2441   -0.8938 H   0  0  0  0  0  0  0  0  0  0  0  0
   -8.5882    9.2610   -3.4537 H   0  0  0  0  0  0  0  0  0  0  0  0
   -7.1720    9.6113   -2.3311 H   0  0  0  0  0  0  0  0  0  0  0  0
   -6.6600    8.0741   -4.4095 H   0  0  0  0  0  0  0  0  0  0  0  0
   -7.9045    5.4861   -1.5713 H   0  0  0  0  0  0  0  0  0  0  0  0
   -5.1170    6.3857   -0.6160 H   0  0  0  0  0  0  0  0  0  0  0  0
   -6.2363    5.2208    0.2214 H   0  0  0  0  0  0  0  0  0  0  0  0
   -4.4043    4.0647   -0.9730 H   0  0  0  0  0  0  0  0  0  0  0  0
   -6.0398    3.6573   -1.6245 H   0  0  0  0  0  0  0  0  0  0  0  0
   -4.5368    3.9851   -3.4659 H   0  0  0  0  0  0  0  0  0  0  0  0
   -3.4890    6.0760   -3.6830 H   0  0  0  0  0  0  0  0  0  0  0  0
   -7.4550    4.0168   -3.2251 H   0  0  0  0  0  0  0  0  0  0  0  0
   -7.8257    4.9265   -4.7291 H   0  0  0  0  0  0  0  0  0  0  0  0
   -6.5323    3.6800   -4.7291 H   0  0  0  0  0  0  0  0  0  0  0  0
   -4.5657    6.7741   -4.8426 H   0  0  0  0  0  0  0  0  0  0  0  0
   -4.9818    5.2235   -5.6482 H   0  0  0  0  0  0  0  0  0  0  0  0
   -6.1594    6.5799   -5.6482 H   0  0  0  0  0  0  0  0  0  0  0  0
   -6.8428    8.1582    1.1855 H   0  0  0  0  0  0  0  0  0  0  0  0
   -5.7285    7.9060   -0.2006 H   0  0  0  0  0  0  0  0  0  0  0  0
   -6.8607    9.3006   -0.2006 H   0  0  0  0  0  0  0  0  0  0  0  0
   -8.1347    5.7873    0.8427 H   0  0  0  0  0  0  0  0  0  0  0  0
   -8.7459    7.4721    1.3136 H   0  0  0  0  0  0  0  0  0  0  0  0
  -10.0970    5.4555   -0.5014 H   0  0  0  0  0  0  0  0  0  0  0  0
  -10.6353    6.0571    1.1158 H   0  0  0  0  0  0  0  0  0  0  0  0
  -10.8882    8.2505    1.5699 H   0  0  0  0  0  0  0  0  0  0  0  0
  -10.0515    9.3259    0.3993 H   0  0  0  0  0  0  0  0  0  0  0  0
  -11.8447    9.2208    0.3993 H   0  0  0  0  0  0  0  0  0  0  0  0
  1  2  1  0
  2  3  1  0
  3  4  1  0
  4  5  1  0
  5  6  1  0
  6  7  1  0
  7  8  1  0
  7  9  1  0
  2 10  1  0
 10 11  1  0
 11 12  1  0
 12 13  1  0
 13 14  1  6
 13 15  1  0
 15 16  1  0
 16 17  1  0
 17 18  2  0
 18 19  1  0
 19 20  1  0
 20 21  1  0
 21 22  1  0
 22 23  1  0
 22 24  1  0
 24 25  1  0
 24 26  1  0
 19 27  1  0
 27 28  1  1
 27 29  1  0
 29 30  1  0
 30 31  1  0
 31 32  1  1
  7  5  1  0
 31 10  1  0
 31 13  1  0
 27 15  1  0
 24 18  1  0
  1 33  1  0
  1 34  1  0
  1 35  1  0
  2 36  1  1
  3 37  1  0
  3 38  1  0
  4 39  1  0
  4 40  1  0
  5 41  1  6
  8 42  1  0
  8 43  1  0
  8 44  1  0
  9 45  1  0
  9 46  1  0
  9 47  1  0
 10 48  1  6
 11 49  1  0
 11 50  1  0
 12 51  1  0
 12 52  1  0
 14 53  1  0
 14 54  1  0
 14 55  1  0
 15 56  1  1
 16 57  1  0
 16 58  1  0
 17 59  1  0
 19 60  1  6
 20 61  1  0
 20 62  1  0
 21 63  1  0
 21 64  1  0
 22 65  1  6
 23 66  1  0
 25 67  1  0
 25 68  1  0
 25 69  1  0
 26 70  1  0
 26 71  1  0
 26 72  1  0
 28 73  1  0
 28 74  1  0
 28 75  1  0
 29 76  1  0
 29 77  1  0
 30 78  1  0
 30 79  1  0
 32 80  1  0
 32 81  1  0
 32 82  1  0
M  END
>  <meeko>  (18) 
{"is_sidechain": [false], "intermolecular_energy": 2.731, "internal_energy": -0.839}

$$$$
