EPH_relaxed_0001_pdb2pqr_Repair_399_r2_0001_out
     RDKit          3D

 82 86  0  0  0  0  0  0  0  0999 V2000
   -1.7190    8.5860   -1.8710 C   0  0  0  0  0  0  0  0  0  0  0  0
   -2.1010    9.1040   -0.4820 C   0  0  2  0  0  0  0  0  0  0  0  0
   -3.5960    9.4700   -0.3890 C   0  0  0  0  0  0  0  0  0  0  0  0
   -4.5170    8.2570   -0.2250 C   0  0  0  0  0  0  0  0  0  0  0  0
   -5.2210    7.9190   -1.5040 C   0  0  2  0  0  0  0  0  0  0  0  0
   -6.3480    8.7520   -1.8060 O   0  0  0  0  0  0  0  0  0  0  0  0
   -6.6330    7.3650   -1.5610 C   0  0  0  0  0  0  0  0  0  0  0  0
   -7.4240    7.1180   -0.3150 C   0  0  0  0  0  0  0  0  0  0  0  0
   -7.0570    6.6120   -2.7830 C   0  0  0  0  0  0  0  0  0  0  0  0
   -1.2460   10.3150   -0.1260 C   0  0  1  0  0  0  0  0  0  0  0  0
   -0.2260   10.0140    1.0050 C   0  0  0  0  0  0  0  0  0  0  0  0
    1.0470   10.8420    0.6910 C   0  0  0  0  0  0  0  0  0  0  0  0
    0.6050   11.8340   -0.4100 C   0  0  1  0  0  0  0  0  0  0  0  0
   -0.1100   12.9910    0.3560 C   0  0  0  0  0  0  0  0  0  0  0  0
    1.7340   12.3740   -1.3470 C   0  0  2  0  0  0  0  0  0  0  0  0
    2.8300   13.1940   -0.6440 C   0  0  0  0  0  0  0  0  0  0  0  0
    2.5770   14.6630   -0.5680 C   0  0  0  0  0  0  0  0  0  0  0  0
    1.6610   15.3380   -1.2880 C   0  0  0  0  0  0  0  0  0  0  0  0
    0.8280   14.6300   -2.3640 C   0  0  1  0  0  0  0  0  0  0  0  0
    0.8140   15.4880   -3.6560 C   0  0  0  0  0  0  0  0  0  0  0  0
    0.3470   16.9180   -3.4030 C   0  0  0  0  0  0  0  0  0  0  0  0
    1.2350   17.6080   -2.3710 C   0  0  2  0  0  0  0  0  0  0  0  0
    2.5430   17.7760   -2.9270 O   0  0  0  0  0  0  0  0  0  0  0  0
    1.3340   16.8290   -1.0290 C   0  0  0  0  0  0  0  0  0  0  0  0
   -0.0200   16.9070   -0.2820 C   0  0  0  0  0  0  0  0  0  0  0  0
    2.3690   17.5570   -0.1300 C   0  0  0  0  0  0  0  0  0  0  0  0
    1.2040   13.1110   -2.6440 C   0  0  1  0  0  0  0  0  0  0  0  0
    2.3480   13.0320   -3.7000 C   0  0  0  0  0  0  0  0  0  0  0  0
   -0.0390   12.3830   -3.2790 C   0  0  0  0  0  0  0  0  0  0  0  0
   -1.0580   11.7660   -2.3020 C   0  0  0  0  0  0  0  0  0  0  0  0
   -0.3550   10.9100   -1.2450 C   0  0  2  0  0  0  0  0  0  0  0  0
    0.3560    9.7250   -1.9840 C   0  0  0  0  0  0  0  0  0  0  0  0
   -1.0690    7.7046   -1.7677 H   0  0  0  0  0  0  0  0  0  0  0  0
   -2.6296    8.3075   -2.4217 H   0  0  0  0  0  0  0  0  0  0  0  0
   -1.1839    9.3737   -2.4217 H   0  0  0  0  0  0  0  0  0  0  0  0
   -1.9146    8.2921    0.2364 H   0  0  0  0  0  0  0  0  0  0  0  0
   -3.7380   10.1336    0.4767 H   0  0  0  0  0  0  0  0  0  0  0  0
   -3.8683    9.9548   -1.3381 H   0  0  0  0  0  0  0  0  0  0  0  0
   -3.9147    7.3920    0.0898 H   0  0  0  0  0  0  0  0  0  0  0  0
   -5.2776    8.5035    0.5304 H   0  0  0  0  0  0  0  0  0  0  0  0
   -4.2782    7.5850   -1.9618 H   0  0  0  0  0  0  0  0  0  0  0  0
   -6.7935    7.3149    0.5646 H   0  0  0  0  0  0  0  0  0  0  0  0
   -8.2977    7.7861   -0.2968 H   0  0  0  0  0  0  0  0  0  0  0  0
   -7.7623    6.0715   -0.2968 H   0  0  0  0  0  0  0  0  0  0  0  0
   -7.5763    5.6897   -2.4836 H   0  0  0  0  0  0  0  0  0  0  0  0
   -7.7358    7.2371   -3.3818 H   0  0  0  0  0  0  0  0  0  0  0  0
   -6.1705    6.3558   -3.3818 H   0  0  0  0  0  0  0  0  0  0  0  0
   -2.0389   11.0286    0.1425 H   0  0  0  0  0  0  0  0  0  0  0  0
   -0.6413   10.3123    1.9789 H   0  0  0  0  0  0  0  0  0  0  0  0
    0.0038    8.9394    1.0541 H   0  0  0  0  0  0  0  0  0  0  0  0
    1.3894   11.3823    1.5859 H   0  0  0  0  0  0  0  0  0  0  0  0
    1.8875   10.2094    0.3697 H   0  0  0  0  0  0  0  0  0  0  0  0
   -0.0104   12.8298    1.4396 H   0  0  0  0  0  0  0  0  0  0  0  0
    0.3523   13.9514    0.0841 H   0  0  0  0  0  0  0  0  0  0  0  0
   -1.1757   13.0071    0.0841 H   0  0  0  0  0  0  0  0  0  0  0  0
    2.2229   11.4477   -1.6831 H   0  0  0  0  0  0  0  0  0  0  0  0
    2.9335   12.8133    0.3828 H   0  0  0  0  0  0  0  0  0  0  0  0
    3.7384   13.0726   -1.2524 H   0  0  0  0  0  0  0  0  0  0  0  0
    3.1911   15.2436    0.1361 H   0  0  0  0  0  0  0  0  0  0  0  0
   -0.1910   14.5517   -1.9571 H   0  0  0  0  0  0  0  0  0  0  0  0
    1.8324   15.5177   -4.0707 H   0  0  0  0  0  0  0  0  0  0  0  0
    0.1049   15.0241   -4.3574 H   0  0  0  0  0  0  0  0  0  0  0  0
    0.3869   17.4819   -4.3466 H   0  0  0  0  0  0  0  0  0  0  0  0
   -0.6822   16.8876   -3.0160 H   0  0  0  0  0  0  0  0  0  0  0  0
    0.7749   18.5793   -2.1368 H   0  0  0  0  0  0  0  0  0  0  0  0
    3.1110   18.1530   -2.2340 H   0  0  0  0  0  0  0  0  0  0  0  0
    0.1589   16.8967    0.8033 H   0  0  0  0  0  0  0  0  0  0  0  0
   -0.5387   17.8365   -0.5593 H   0  0  0  0  0  0  0  0  0  0  0  0
   -0.6421   16.0432   -0.5593 H   0  0  0  0  0  0  0  0  0  0  0  0
    2.1222   17.3834    0.9278 H   0  0  0  0  0  0  0  0  0  0  0  0
    3.3759   17.1671   -0.3404 H   0  0  0  0  0  0  0  0  0  0  0  0
    2.3424   18.6364   -0.3404 H   0  0  0  0  0  0  0  0  0  0  0  0
    3.3179   12.9650   -3.1855 H   0  0  0  0  0  0  0  0  0  0  0  0
    2.2048   12.1416   -4.3298 H   0  0  0  0  0  0  0  0  0  0  0  0
    2.3285   13.9336   -4.3298 H   0  0  0  0  0  0  0  0  0  0  0  0
   -0.5746   13.1180   -3.8978 H   0  0  0  0  0  0  0  0  0  0  0  0
    0.3798   11.5304   -3.8336 H   0  0  0  0  0  0  0  0  0  0  0  0
   -1.6110   12.5742   -1.8009 H   0  0  0  0  0  0  0  0  0  0  0  0
   -1.7461   11.1244   -2.8719 H   0  0  0  0  0  0  0  0  0  0  0  0
    0.7740    9.0284   -1.2424 H   0  0  0  0  0  0  0  0  0  0  0  0
   -0.3736    9.1953   -2.6142 H   0  0  0  0  0  0  0  0  0  0  0  0
    1.1667   10.1195   -2.6142 H   0  0  0  0  0  0  0  0  0  0  0  0
  1  2  1  0
  2  3  1  0
  3  4  1  0
  4  5  1  0
  5  6  1  0
  6  7  1  0
  7  8  1  0
  7  9  1  0
  2 10  1  0
 10 11  1  0
 11 12  1  0
 12 13  1  0
 13 14  1  1
 13 15  1  0
 15 16  1  0
 16 17  1  0
 17 18  2  0
 18 19  1  0
 19 20  1  0
 20 21  1  0
 21 22  1  0
 22 23  1  0
 22 24  1  0
 24 25  1  0
 24 26  1  0
 19 27  1  0
 27 28  1  6
 27 29  1  0
 29 30  1  0
 30 31  1  0
 31 32  1  6
  7  5  1  0
 31 10  1  0
 31 13  1  0
 27 15  1  0
 24 18  1  0
  1 33  1  0
  1 34  1  0
  1 35  1  0
  2 36  1  1
  3 37  1  0
  3 38  1  0
  4 39  1  0
  4 40  1  0
  5 41  1  6
  8 42  1  0
  8 43  1  0
  8 44  1  0
  9 45  1  0
  9 46  1  0
  9 47  1  0
 10 48  1  1
 11 49  1  0
 11 50  1  0
 12 51  1  0
 12 52  1  0
 14 53  1  0
 14 54  1  0
 14 55  1  0
 15 56  1  6
 16 57  1  0
 16 58  1  0
 17 59  1  0
 19 60  1  1
 20 61  1  0
 20 62  1  0
 21 63  1  0
 21 64  1  0
 22 65  1  1
 23 66  1  0
 25 67  1  0
 25 68  1  0
 25 69  1  0
 26 70  1  0
 26 71  1  0
 26 72  1  0
 28 73  1  0
 28 74  1  0
 28 75  1  0
 29 76  1  0
 29 77  1  0
 30 78  1  0
 30 79  1  0
 32 80  1  0
 32 81  1  0
 32 82  1  0
M  END
>  <meeko>  (1) 
{"is_sidechain": [false], "intermolecular_energy": 2.731, "internal_energy": -0.839}

$$$$
EPH_relaxed_0001_pdb2pqr_Repair_399_r2_0001_out
     RDKit          3D

 82 86  0  0  0  0  0  0  0  0999 V2000
    4.2040   17.5710   -0.5670 C   0  0  0  0  0  0  0  0  0  0  0  0
    2.8450   18.1310   -0.1350 C   0  0  2  0  0  0  0  0  0  0  0  0
    2.9080   18.7970    1.2540 C   0  0  0  0  0  0  0  0  0  0  0  0
    4.2940   18.7400    1.9030 C   0  0  0  0  0  0  0  0  0  0  0  0
    4.2750   19.2840    3.2990 C   0  0  2  0  0  0  0  0  0  0  0  0
    5.3420   20.1930    3.6020 O   0  0  0  0  0  0  0  0  0  0  0  0
    5.3330   18.9590    4.3380 C   0  0  0  0  0  0  0  0  0  0  0  0
    6.4830   18.0550    4.0230 C   0  0  0  0  0  0  0  0  0  0  0  0
    4.9880   19.1230    5.7850 C   0  0  0  0  0  0  0  0  0  0  0  0
    1.8030   17.0190   -0.1320 C   0  0  1  0  0  0  0  0  0  0  0  0
    0.3740   17.5400   -0.4420 C   0  0  0  0  0  0  0  0  0  0  0  0
   -0.3410   16.4290   -1.2540 C   0  0  0  0  0  0  0  0  0  0  0  0
    0.5690   15.1870   -1.1010 C   0  0  1  0  0  0  0  0  0  0  0  0
    0.1950   14.5860    0.2900 C   0  0  0  0  0  0  0  0  0  0  0  0
    0.4740   14.1170   -2.2370 C   0  0  2  0  0  0  0  0  0  0  0  0
   -0.9030   13.4480   -2.3900 C   0  0  0  0  0  0  0  0  0  0  0  0
   -1.1010   12.2050   -1.5870 C   0  0  0  0  0  0  0  0  0  0  0  0
   -0.1240   11.4900   -0.9990 C   0  0  0  0  0  0  0  0  0  0  0  0
    1.3510   11.8620   -1.1950 C   0  0  1  0  0  0  0  0  0  0  0  0
    2.1690   10.5840   -1.5190 C   0  0  0  0  0  0  0  0  0  0  0  0
    1.9780    9.4870   -0.4760 C   0  0  0  0  0  0  0  0  0  0  0  0
    0.5050    9.1040   -0.3520 C   0  0  2  0  0  0  0  0  0  0  0  0
    0.0860    8.4840   -1.5710 O   0  0  0  0  0  0  0  0  0  0  0  0
   -0.4180   10.3130   -0.0360 C   0  0  0  0  0  0  0  0  0  0  0  0
   -0.1660   10.7970    1.4140 C   0  0  0  0  0  0  0  0  0  0  0  0
   -1.8880    9.8150   -0.0770 C   0  0  0  0  0  0  0  0  0  0  0  0
    1.6380   13.0450   -2.2160 C   0  0  1  0  0  0  0  0  0  0  0  0
    1.7500   12.4820   -3.6660 C   0  0  0  0  0  0  0  0  0  0  0  0
    3.0360   13.6870   -1.8800 C   0  0  0  0  0  0  0  0  0  0  0  0
    3.0480   14.8210   -0.8370 C   0  0  0  0  0  0  0  0  0  0  0  0
    1.9820   15.8730   -1.1600 C   0  0  2  0  0  0  0  0  0  0  0  0
    2.3440   16.5120   -2.5440 C   0  0  0  0  0  0  0  0  0  0  0  0
    4.7996   17.3256    0.3246 H   0  0  0  0  0  0  0  0  0  0  0  0
    4.0519   16.6623   -1.1679 H   0  0  0  0  0  0  0  0  0  0  0  0
    4.7363   18.3231   -1.1679 H   0  0  0  0  0  0  0  0  0  0  0  0
    2.5595   18.9065   -0.8610 H   0  0  0  0  0  0  0  0  0  0  0  0
    2.6184   19.8527    1.1462 H   0  0  0  0  0  0  0  0  0  0  0  0
    2.2235   18.2382    1.9092 H   0  0  0  0  0  0  0  0  0  0  0  0
    4.6309   17.6933    1.9328 H   0  0  0  0  0  0  0  0  0  0  0  0
    4.9790   19.3576    1.3036 H   0  0  0  0  0  0  0  0  0  0  0  0
    3.1762   19.2411    3.3262 H   0  0  0  0  0  0  0  0  0  0  0  0
    6.9364   17.6986    4.9597 H   0  0  0  0  0  0  0  0  0  0  0  0
    6.1239   17.1948    3.4389 H   0  0  0  0  0  0  0  0  0  0  0  0
    7.2340   18.6070    3.4389 H   0  0  0  0  0  0  0  0  0  0  0  0
    5.8091   18.7327    6.4042 H   0  0  0  0  0  0  0  0  0  0  0  0
    4.8363   20.1896    6.0072 H   0  0  0  0  0  0  0  0  0  0  0  0
    4.0651   18.5673    6.0072 H   0  0  0  0  0  0  0  0  0  0  0  0
    1.9462   16.6344    0.8886 H   0  0  0  0  0  0  0  0  0  0  0  0
   -0.1697   17.7343    0.4943 H   0  0  0  0  0  0  0  0  0  0  0  0
    0.4114   18.4817   -1.0092 H   0  0  0  0  0  0  0  0  0  0  0  0
   -1.3417   16.2303   -0.8427 H   0  0  0  0  0  0  0  0  0  0  0  0
   -0.4884   16.7111   -2.3070 H   0  0  0  0  0  0  0  0  0  0  0  0
    0.5955   15.2296    1.0871 H   0  0  0  0  0  0  0  0  0  0  0  0
   -0.8996   14.5270    0.3816 H   0  0  0  0  0  0  0  0  0  0  0  0
    0.6255   13.5779    0.3816 H   0  0  0  0  0  0  0  0  0  0  0  0
    0.6139   14.7231   -3.1442 H   0  0  0  0  0  0  0  0  0  0  0  0
   -1.6699   14.1753   -2.0852 H   0  0  0  0  0  0  0  0  0  0  0  0
   -0.9782   13.1442   -3.4445 H   0  0  0  0  0  0  0  0  0  0  0  0
   -2.1326   11.8429   -1.4657 H   0  0  0  0  0  0  0  0  0  0  0  0
    1.6868   12.2874   -0.2378 H   0  0  0  0  0  0  0  0  0  0  0  0
    1.8485   10.1991   -2.4983 H   0  0  0  0  0  0  0  0  0  0  0  0
    3.2336   10.8607   -1.5214 H   0  0  0  0  0  0  0  0  0  0  0  0
    2.5567    8.6007   -0.7753 H   0  0  0  0  0  0  0  0  0  0  0  0
    2.3268    9.8626    0.4973 H   0  0  0  0  0  0  0  0  0  0  0  0
    0.4148    8.4110    0.4975 H   0  0  0  0  0  0  0  0  0  0  0  0
    0.1240    9.1570   -2.2720 H   0  0  0  0  0  0  0  0  0  0  0  0
   -0.5546   10.0506    2.1224 H   0  0  0  0  0  0  0  0  0  0  0  0
    0.9144   10.9272    1.5745 H   0  0  0  0  0  0  0  0  0  0  0  0
   -0.6789   11.7568    1.5745 H   0  0  0  0  0  0  0  0  0  0  0  0
   -2.2611    9.6886    0.9500 H   0  0  0  0  0  0  0  0  0  0  0  0
   -2.5104   10.5524   -0.6050 H   0  0  0  0  0  0  0  0  0  0  0  0
   -1.9340    8.8511   -0.6050 H   0  0  0  0  0  0  0  0  0  0  0  0
    1.9645   11.4039   -3.6252 H   0  0  0  0  0  0  0  0  0  0  0  0
    0.8014   12.6473   -4.1978 H   0  0  0  0  0  0  0  0  0  0  0  0
    2.5631   12.9977   -4.1978 H   0  0  0  0  0  0  0  0  0  0  0  0
    3.6893   12.8847   -1.5065 H   0  0  0  0  0  0  0  0  0  0  0  0
    3.3701   14.1553   -2.8176 H   0  0  0  0  0  0  0  0  0  0  0  0
    2.8459   14.3973    0.1578 H   0  0  0  0  0  0  0  0  0  0  0  0
    4.0358   15.3047   -0.8555 H   0  0  0  0  0  0  0  0  0  0  0  0
    2.8803   17.4586   -2.3818 H   0  0  0  0  0  0  0  0  0  0  0  0
    2.9844   15.8203   -3.1110 H   0  0  0  0  0  0  0  0  0  0  0  0
    1.4215   16.7057   -3.1110 H   0  0  0  0  0  0  0  0  0  0  0  0
  1  2  1  0
  2  3  1  0
  3  4  1  0
  4  5  1  0
  5  6  1  0
  6  7  1  0
  7  8  1  0
  7  9  1  0
  2 10  1  0
 10 11  1  0
 11 12  1  0
 12 13  1  0
 13 14  1  1
 13 15  1  0
 15 16  1  0
 16 17  1  0
 17 18  2  0
 18 19  1  0
 19 20  1  0
 20 21  1  0
 21 22  1  0
 22 23  1  0
 22 24  1  0
 24 25  1  0
 24 26  1  0
 19 27  1  0
 27 28  1  6
 27 29  1  0
 29 30  1  0
 30 31  1  0
 31 32  1  6
  7  5  1  0
 31 10  1  0
 31 13  1  0
 27 15  1  0
 24 18  1  0
  1 33  1  0
  1 34  1  0
  1 35  1  0
  2 36  1  6
  3 37  1  0
  3 38  1  0
  4 39  1  0
  4 40  1  0
  5 41  1  1
  8 42  1  0
  8 43  1  0
  8 44  1  0
  9 45  1  0
  9 46  1  0
  9 47  1  0
 10 48  1  1
 11 49  1  0
 11 50  1  0
 12 51  1  0
 12 52  1  0
 14 53  1  0
 14 54  1  0
 14 55  1  0
 15 56  1  6
 16 57  1  0
 16 58  1  0
 17 59  1  0
 19 60  1  1
 20 61  1  0
 20 62  1  0
 21 63  1  0
 21 64  1  0
 22 65  1  1
 23 66  1  0
 25 67  1  0
 25 68  1  0
 25 69  1  0
 26 70  1  0
 26 71  1  0
 26 72  1  0
 28 73  1  0
 28 74  1  0
 28 75  1  0
 29 76  1  0
 29 77  1  0
 30 78  1  0
 30 79  1  0
 32 80  1  0
 32 81  1  0
 32 82  1  0
M  END
>  <meeko>  (2) 
{"is_sidechain": [false], "intermolecular_energy": 2.731, "internal_energy": -0.839}

$$$$
EPH_relaxed_0001_pdb2pqr_Repair_399_r2_0001_out
     RDKit          3D

 82 86  0  0  0  0  0  0  0  0999 V2000
    2.3820   17.9850   -2.7150 C   0  0  0  0  0  0  0  0  0  0  0  0
    1.0660   17.6350   -2.0150 C   0  0  2  0  0  0  0  0  0  0  0  0
    1.1860   17.7110   -0.4800 C   0  0  0  0  0  0  0  0  0  0  0  0
    0.8770   19.0970    0.0940 C   0  0  0  0  0  0  0  0  0  0  0  0
   -0.5500   19.2060    0.5400 C   0  0  2  0  0  0  0  0  0  0  0  0
   -1.4420   18.2640   -0.0700 O   0  0  0  0  0  0  0  0  0  0  0  0
   -1.6800   19.6480   -0.3710 C   0  0  0  0  0  0  0  0  0  0  0  0
   -1.4330   20.0110   -1.8020 C   0  0  0  0  0  0  0  0  0  0  0  0
   -2.9280   20.1940    0.2500 C   0  0  0  0  0  0  0  0  0  0  0  0
    0.6110   16.2410   -2.4330 C   0  0  1  0  0  0  0  0  0  0  0  0
    0.6830   16.0250   -3.9680 C   0  0  0  0  0  0  0  0  0  0  0  0
    1.0790   14.5430   -4.1920 C   0  0  0  0  0  0  0  0  0  0  0  0
    0.8980   13.8770   -2.8080 C   0  0  1  0  0  0  0  0  0  0  0  0
   -0.6310   13.5830   -2.7010 C   0  0  0  0  0  0  0  0  0  0  0  0
    1.7520   12.5950   -2.5410 C   0  0  2  0  0  0  0  0  0  0  0  0
    1.4550   11.4070   -3.4730 C   0  0  0  0  0  0  0  0  0  0  0  0
    0.4020   10.4650   -2.9900 C   0  0  0  0  0  0  0  0  0  0  0  0
   -0.0770   10.4040   -1.7330 C   0  0  0  0  0  0  0  0  0  0  0  0
    0.5180   11.2780   -0.6210 C   0  0  1  0  0  0  0  0  0  0  0  0
    0.7640   10.4120    0.6420 C   0  0  0  0  0  0  0  0  0  0  0  0
   -0.4880    9.6650    1.0920 C   0  0  0  0  0  0  0  0  0  0  0  0
   -1.0160    8.7640   -0.0210 C   0  0  2  0  0  0  0  0  0  0  0  0
   -0.0680    7.7170   -0.2540 O   0  0  0  0  0  0  0  0  0  0  0  0
   -1.2910    9.5250   -1.3470 C   0  0  0  0  0  0  0  0  0  0  0  0
   -2.5230   10.4470   -1.1720 C   0  0  0  0  0  0  0  0  0  0  0  0
   -1.6820    8.4790   -2.4260 C   0  0  0  0  0  0  0  0  0  0  0  0
    1.7880   12.1440   -1.0240 C   0  0  1  0  0  0  0  0  0  0  0  0
    3.0870   11.3010   -0.8410 C   0  0  0  0  0  0  0  0  0  0  0  0
    1.9090   13.3670   -0.0400 C   0  0  0  0  0  0  0  0  0  0  0  0
    1.1380   14.6450   -0.4200 C   0  0  0  0  0  0  0  0  0  0  0  0
    1.4090   15.0360   -1.8760 C   0  0  2  0  0  0  0  0  0  0  0  0
    2.9360   15.3590   -2.0090 C   0  0  0  0  0  0  0  0  0  0  0  0
    3.1554   18.1907   -1.9603 H   0  0  0  0  0  0  0  0  0  0  0  0
    2.6989   17.1399   -3.3438 H   0  0  0  0  0  0  0  0  0  0  0  0
    2.2372   18.8759   -3.3438 H   0  0  0  0  0  0  0  0  0  0  0  0
    0.3181   18.3799   -2.3245 H   0  0  0  0  0  0  0  0  0  0  0  0
    0.4826   16.9884   -0.0405 H   0  0  0  0  0  0  0  0  0  0  0  0
    2.2325   17.4847   -0.2278 H   0  0  0  0  0  0  0  0  0  0  0  0
    1.5351   19.2808    0.9560 H   0  0  0  0  0  0  0  0  0  0  0  0
    1.0472   19.8419   -0.6973 H   0  0  0  0  0  0  0  0  0  0  0  0
   -0.2362   19.5376    1.5408 H   0  0  0  0  0  0  0  0  0  0  0  0
   -0.8147   20.9196   -1.8483 H   0  0  0  0  0  0  0  0  0  0  0  0
   -0.9088   19.1848   -2.3046 H   0  0  0  0  0  0  0  0  0  0  0  0
   -2.3939   20.1953   -2.3046 H   0  0  0  0  0  0  0  0  0  0  0  0
   -2.8395   20.1553    1.3458 H   0  0  0  0  0  0  0  0  0  0  0  0
   -3.0707   21.2368   -0.0697 H   0  0  0  0  0  0  0  0  0  0  0  0
   -3.7907   19.5911   -0.0697 H   0  0  0  0  0  0  0  0  0  0  0  0
   -0.4056   16.2445   -2.0129 H   0  0  0  0  0  0  0  0  0  0  0  0
   -0.2962   16.2290   -4.4257 H   0  0  0  0  0  0  0  0  0  0  0  0
    1.4155   16.7040   -4.4289 H   0  0  0  0  0  0  0  0  0  0  0  0
    0.4206   14.0737   -4.9378 H   0  0  0  0  0  0  0  0  0  0  0  0
    2.1053   14.4387   -4.5739 H   0  0  0  0  0  0  0  0  0  0  0  0
   -0.9204   13.5274   -1.6412 H   0  0  0  0  0  0  0  0  0  0  0  0
   -1.1947   14.3892   -3.1932 H   0  0  0  0  0  0  0  0  0  0  0  0
   -0.8555   12.6252   -3.1932 H   0  0  0  0  0  0  0  0  0  0  0  0
    2.7673   12.9306   -2.7987 H   0  0  0  0  0  0  0  0  0  0  0  0
    1.1313   11.8096   -4.4442 H   0  0  0  0  0  0  0  0  0  0  0  0
    2.3851   10.8222   -3.5263 H   0  0  0  0  0  0  0  0  0  0  0  0
   -0.0182    9.7610   -3.7234 H   0  0  0  0  0  0  0  0  0  0  0  0
   -0.2359   12.0491   -0.4041 H   0  0  0  0  0  0  0  0  0  0  0  0
    1.5515    9.6774    0.4180 H   0  0  0  0  0  0  0  0  0  0  0  0
    1.0609   11.0877    1.4576 H   0  0  0  0  0  0  0  0  0  0  0  0
   -0.2431    9.0478    1.9690 H   0  0  0  0  0  0  0  0  0  0  0  0
   -1.2644   10.4021    1.3447 H   0  0  0  0  0  0  0  0  0  0  0  0
   -1.9824    8.3584    0.3129 H   0  0  0  0  0  0  0  0  0  0  0  0
   -0.2220    7.0270    0.4130 H   0  0  0  0  0  0  0  0  0  0  0  0
   -2.7209   10.5951   -0.1001 H   0  0  0  0  0  0  0  0  0  0  0  0
   -2.3235   11.4195   -1.6458 H   0  0  0  0  0  0  0  0  0  0  0  0
   -3.3997    9.9813   -1.6458 H   0  0  0  0  0  0  0  0  0  0  0  0
   -2.0267    7.5570   -1.9350 H   0  0  0  0  0  0  0  0  0  0  0  0
   -2.4895    8.8840   -3.0537 H   0  0  0  0  0  0  0  0  0  0  0  0
   -0.8069    8.2550   -3.0537 H   0  0  0  0  0  0  0  0  0  0  0  0
    3.2904   11.1690    0.2320 H   0  0  0  0  0  0  0  0  0  0  0  0
    2.9546   10.3162   -1.3129 H   0  0  0  0  0  0  0  0  0  0  0  0
    3.9324   11.8230   -1.3129 H   0  0  0  0  0  0  0  0  0  0  0  0
    1.5441   13.0390    0.9445 H   0  0  0  0  0  0  0  0  0  0  0  0
    2.9707   13.6534   -0.0672 H   0  0  0  0  0  0  0  0  0  0  0  0
    0.0603   14.4673   -0.2897 H   0  0  0  0  0  0  0  0  0  0  0  0
    1.4745   15.4647    0.2318 H   0  0  0  0  0  0  0  0  0  0  0  0
    3.3796   15.4528   -1.0068 H   0  0  0  0  0  0  0  0  0  0  0  0
    3.4362   14.5468   -2.5568 H   0  0  0  0  0  0  0  0  0  0  0  0
    3.0645   16.3042   -2.5568 H   0  0  0  0  0  0  0  0  0  0  0  0
  1  2  1  0
  2  3  1  0
  3  4  1  0
  4  5  1  0
  5  6  1  0
  6  7  1  0
  7  8  1  0
  7  9  1  0
  2 10  1  0
 10 11  1  0
 11 12  1  0
 12 13  1  0
 13 14  1  1
 13 15  1  0
 15 16  1  0
 16 17  1  0
 17 18  2  0
 18 19  1  0
 19 20  1  0
 20 21  1  0
 21 22  1  0
 22 23  1  0
 22 24  1  0
 24 25  1  0
 24 26  1  0
 19 27  1  0
 27 28  1  6
 27 29  1  0
 29 30  1  0
 30 31  1  0
 31 32  1  1
  7  5  1  0
 31 10  1  0
 31 13  1  0
 27 15  1  0
 24 18  1  0
  1 33  1  0
  1 34  1  0
  1 35  1  0
  2 36  1  6
  3 37  1  0
  3 38  1  0
  4 39  1  0
  4 40  1  0
  5 41  1  1
  8 42  1  0
  8 43  1  0
  8 44  1  0
  9 45  1  0
  9 46  1  0
  9 47  1  0
 10 48  1  1
 11 49  1  0
 11 50  1  0
 12 51  1  0
 12 52  1  0
 14 53  1  0
 14 54  1  0
 14 55  1  0
 15 56  1  6
 16 57  1  0
 16 58  1  0
 17 59  1  0
 19 60  1  1
 20 61  1  0
 20 62  1  0
 21 63  1  0
 21 64  1  0
 22 65  1  1
 23 66  1  0
 25 67  1  0
 25 68  1  0
 25 69  1  0
 26 70  1  0
 26 71  1  0
 26 72  1  0
 28 73  1  0
 28 74  1  0
 28 75  1  0
 29 76  1  0
 29 77  1  0
 30 78  1  0
 30 79  1  0
 32 80  1  0
 32 81  1  0
 32 82  1  0
M  END
>  <meeko>  (3) 
{"is_sidechain": [false], "intermolecular_energy": 2.731, "internal_energy": -0.839}

$$$$
EPH_relaxed_0001_pdb2pqr_Repair_399_r2_0001_out
     RDKit          3D

 82 86  0  0  0  0  0  0  0  0999 V2000
    2.2060   18.0060   -2.5810 C   0  0  0  0  0  0  0  0  0  0  0  0
    0.6840   17.8600   -2.6730 C   0  0  2  0  0  0  0  0  0  0  0  0
   -0.0240   18.3440   -1.3920 C   0  0  0  0  0  0  0  0  0  0  0  0
    0.6980   17.9470   -0.1010 C   0  0  0  0  0  0  0  0  0  0  0  0
    1.2880   19.1380    0.5920 C   0  0  2  0  0  0  0  0  0  0  0  0
    2.2360   19.8770   -0.1890 O   0  0  0  0  0  0  0  0  0  0  0  0
    2.7500   19.2350    0.9890 C   0  0  0  0  0  0  0  0  0  0  0  0
    3.7110   18.1230    0.7070 C   0  0  0  0  0  0  0  0  0  0  0  0
    3.1330   20.1900    2.0760 C   0  0  0  0  0  0  0  0  0  0  0  0
    0.3180   16.4070   -2.9530 C   0  0  1  0  0  0  0  0  0  0  0  0
    0.3920   16.0520   -4.4620 C   0  0  0  0  0  0  0  0  0  0  0  0
    0.8830   14.5840   -4.5520 C   0  0  0  0  0  0  0  0  0  0  0  0
    0.7560   14.0410   -3.1100 C   0  0  1  0  0  0  0  0  0  0  0  0
   -0.7500   13.6600   -2.9550 C   0  0  0  0  0  0  0  0  0  0  0  0
    1.6950   12.8470   -2.7360 C   0  0  2  0  0  0  0  0  0  0  0  0
    1.4690   11.5610   -3.5490 C   0  0  0  0  0  0  0  0  0  0  0  0
    0.4840   10.6020   -2.9660 C   0  0  0  0  0  0  0  0  0  0  0  0
    0.0200   10.6290   -1.7030 C   0  0  0  0  0  0  0  0  0  0  0  0
    0.5640   11.6400   -0.6850 C   0  0  1  0  0  0  0  0  0  0  0  0
    0.8760   10.9140    0.6500 C   0  0  0  0  0  0  0  0  0  0  0  0
   -0.3210   10.1340    1.1850 C   0  0  0  0  0  0  0  0  0  0  0  0
   -0.7960    9.0990    0.1680 C   0  0  2  0  0  0  0  0  0  0  0  0
    0.2160    8.0990    0.0200 O   0  0  0  0  0  0  0  0  0  0  0  0
   -1.1310    9.7130   -1.2200 C   0  0  0  0  0  0  0  0  0  0  0  0
   -2.4200   10.5660   -1.1140 C   0  0  0  0  0  0  0  0  0  0  0  0
   -1.4620    8.5470   -2.1900 C   0  0  0  0  0  0  0  0  0  0  0  0
    1.7720   12.5440   -1.1850 C   0  0  1  0  0  0  0  0  0  0  0  0
    3.1250   11.8080   -0.9420 C   0  0  0  0  0  0  0  0  0  0  0  0
    1.8210   13.8600   -0.3200 C   0  0  0  0  0  0  0  0  0  0  0  0
    0.9640   15.0440   -0.8080 C   0  0  0  0  0  0  0  0  0  0  0  0
    1.1970   15.3120   -2.2970 C   0  0  2  0  0  0  0  0  0  0  0  0
    2.6990   15.7190   -2.4810 C   0  0  0  0  0  0  0  0  0  0  0  0
    2.5083   18.0350   -1.5238 H   0  0  0  0  0  0  0  0  0  0  0  0
    2.6871   17.1499   -3.0766 H   0  0  0  0  0  0  0  0  0  0  0  0
    2.5156   18.9380   -3.0766 H   0  0  0  0  0  0  0  0  0  0  0  0
    0.3395   18.4968   -3.5011 H   0  0  0  0  0  0  0  0  0  0  0  0
   -0.0937   19.4412   -1.4274 H   0  0  0  0  0  0  0  0  0  0  0  0
   -1.0119   17.8607   -1.3690 H   0  0  0  0  0  0  0  0  0  0  0  0
   -0.0211   17.4611    0.5749 H   0  0  0  0  0  0  0  0  0  0  0  0
    1.5174   17.2614   -0.3629 H   0  0  0  0  0  0  0  0  0  0  0  0
    0.3575   19.3006    1.1557 H   0  0  0  0  0  0  0  0  0  0  0  0
    4.0742   17.7027    1.6564 H   0  0  0  0  0  0  0  0  0  0  0  0
    3.2030   17.3372    0.1287 H   0  0  0  0  0  0  0  0  0  0  0  0
    4.5621   18.5117    0.1287 H   0  0  0  0  0  0  0  0  0  0  0  0
    2.9465   19.7249    3.0552 H   0  0  0  0  0  0  0  0  0  0  0  0
    4.2006   20.4392    1.9858 H   0  0  0  0  0  0  0  0  0  0  0  0
    2.5334   21.1078    1.9858 H   0  0  0  0  0  0  0  0  0  0  0  0
   -0.6933   16.3858   -2.5208 H   0  0  0  0  0  0  0  0  0  0  0  0
   -0.6021   16.1480   -4.9230 H   0  0  0  0  0  0  0  0  0  0  0  0
    1.0747   16.7304   -4.9946 H   0  0  0  0  0  0  0  0  0  0  0  0
    0.2516   14.0050   -5.2420 H   0  0  0  0  0  0  0  0  0  0  0  0
    1.9111   14.5109   -4.9362 H   0  0  0  0  0  0  0  0  0  0  0  0
   -1.0039   13.5958   -1.8866 H   0  0  0  0  0  0  0  0  0  0  0  0
   -1.3739   14.4286   -3.4346 H   0  0  0  0  0  0  0  0  0  0  0  0
   -0.9333   12.6872   -3.4346 H   0  0  0  0  0  0  0  0  0  0  0  0
    2.6845   13.2214   -3.0372 H   0  0  0  0  0  0  0  0  0  0  0  0
    1.1117   11.8493   -4.5486 H   0  0  0  0  0  0  0  0  0  0  0  0
    2.4350   11.0350   -3.5608 H   0  0  0  0  0  0  0  0  0  0  0  0
    0.1057    9.8062   -3.6245 H   0  0  0  0  0  0  0  0  0  0  0  0
   -0.2374   12.3774   -0.5298 H   0  0  0  0  0  0  0  0  0  0  0  0
    1.7079   10.2136    0.4845 H   0  0  0  0  0  0  0  0  0  0  0  0
    1.1348   11.6810    1.3948 H   0  0  0  0  0  0  0  0  0  0  0  0
   -0.0302    9.6199    2.1129 H   0  0  0  0  0  0  0  0  0  0  0  0
   -1.1424   10.8397    1.3778 H   0  0  0  0  0  0  0  0  0  0  0  0
   -1.7304    8.6641    0.5524 H   0  0  0  0  0  0  0  0  0  0  0  0
    1.0710    8.5550   -0.0630 H   0  0  0  0  0  0  0  0  0  0  0  0
   -2.6659   10.7287   -0.0543 H   0  0  0  0  0  0  0  0  0  0  0  0
   -2.2590   11.5365   -1.6062 H   0  0  0  0  0  0  0  0  0  0  0  0
   -3.2503   10.0385   -1.6062 H   0  0  0  0  0  0  0  0  0  0  0  0
   -1.7171    7.6482   -1.6094 H   0  0  0  0  0  0  0  0  0  0  0  0
   -2.3157    8.8286   -2.8240 H   0  0  0  0  0  0  0  0  0  0  0  0
   -0.5877    8.3380   -2.8240 H   0  0  0  0  0  0  0  0  0  0  0  0
    3.3012   11.7122    0.1396 H   0  0  0  0  0  0  0  0  0  0  0  0
    3.0850   10.8073   -1.3971 H   0  0  0  0  0  0  0  0  0  0  0  0
    3.9433   12.3853   -1.3971 H   0  0  0  0  0  0  0  0  0  0  0  0
    1.4863   13.6032    0.6959 H   0  0  0  0  0  0  0  0  0  0  0  0
    2.8615   14.2105   -0.3875 H   0  0  0  0  0  0  0  0  0  0  0  0
   -0.0986   14.8098   -0.6465 H   0  0  0  0  0  0  0  0  0  0  0  0
    1.2509   15.9418   -0.2409 H   0  0  0  0  0  0  0  0  0  0  0  0
    3.1680   15.8461   -1.4941 H   0  0  0  0  0  0  0  0  0  0  0  0
    3.2266   14.9314   -3.0390 H   0  0  0  0  0  0  0  0  0  0  0  0
    2.7568   16.6652   -3.0390 H   0  0  0  0  0  0  0  0  0  0  0  0
  1  2  1  0
  2  3  1  0
  3  4  1  0
  4  5  1  0
  5  6  1  0
  6  7  1  0
  7  8  1  0
  7  9  1  0
  2 10  1  0
 10 11  1  0
 11 12  1  0
 12 13  1  0
 13 14  1  1
 13 15  1  0
 15 16  1  0
 16 17  1  0
 17 18  2  0
 18 19  1  0
 19 20  1  0
 20 21  1  0
 21 22  1  0
 22 23  1  0
 22 24  1  0
 24 25  1  0
 24 26  1  0
 19 27  1  0
 27 28  1  6
 27 29  1  0
 29 30  1  0
 30 31  1  0
 31 32  1  1
  7  5  1  0
 31 10  1  0
 31 13  1  0
 27 15  1  0
 24 18  1  0
  1 33  1  0
  1 34  1  0
  1 35  1  0
  2 36  1  6
  3 37  1  0
  3 38  1  0
  4 39  1  0
  4 40  1  0
  5 41  1  1
  8 42  1  0
  8 43  1  0
  8 44  1  0
  9 45  1  0
  9 46  1  0
  9 47  1  0
 10 48  1  1
 11 49  1  0
 11 50  1  0
 12 51  1  0
 12 52  1  0
 14 53  1  0
 14 54  1  0
 14 55  1  0
 15 56  1  6
 16 57  1  0
 16 58  1  0
 17 59  1  0
 19 60  1  1
 20 61  1  0
 20 62  1  0
 21 63  1  0
 21 64  1  0
 22 65  1  1
 23 66  1  0
 25 67  1  0
 25 68  1  0
 25 69  1  0
 26 70  1  0
 26 71  1  0
 26 72  1  0
 28 73  1  0
 28 74  1  0
 28 75  1  0
 29 76  1  0
 29 77  1  0
 30 78  1  0
 30 79  1  0
 32 80  1  0
 32 81  1  0
 32 82  1  0
M  END
>  <meeko>  (4) 
{"is_sidechain": [false], "intermolecular_energy": 2.731, "internal_energy": -0.839}

$$$$
EPH_relaxed_0001_pdb2pqr_Repair_399_r2_0001_out
     RDKit          3D

 82 86  0  0  0  0  0  0  0  0999 V2000
    3.8130   17.4350    0.4060 C   0  0  0  0  0  0  0  0  0  0  0  0
    2.8260   17.7200   -0.7290 C   0  0  2  0  0  0  0  0  0  0  0  0
    2.1930   19.1210   -0.6100 C   0  0  0  0  0  0  0  0  0  0  0  0
    1.3860   19.3240    0.6750 C   0  0  0  0  0  0  0  0  0  0  0  0
    0.0950   20.0400    0.4120 C   0  0  2  0  0  0  0  0  0  0  0  0
   -0.7530   20.1850    1.5580 O   0  0  0  0  0  0  0  0  0  0  0  0
   -1.2640   19.3700    0.4900 C   0  0  0  0  0  0  0  0  0  0  0  0
   -1.4010   17.9220    0.8420 C   0  0  0  0  0  0  0  0  0  0  0  0
   -2.4110   19.9900   -0.2460 C   0  0  0  0  0  0  0  0  0  0  0  0
    1.7360   16.6550   -0.7480 C   0  0  1  0  0  0  0  0  0  0  0  0
    0.4090   17.1700   -1.3670 C   0  0  0  0  0  0  0  0  0  0  0  0
   -0.2250   15.9750   -2.1250 C   0  0  0  0  0  0  0  0  0  0  0  0
    0.5750   14.7410   -1.6460 C   0  0  1  0  0  0  0  0  0  0  0  0
   -0.0550   14.3640   -0.2690 C   0  0  0  0  0  0  0  0  0  0  0  0
    0.6080   13.5180   -2.6200 C   0  0  2  0  0  0  0  0  0  0  0  0
   -0.7610   12.8790   -2.9100 C   0  0  0  0  0  0  0  0  0  0  0  0
   -1.1580   11.7750   -1.9870 C   0  0  0  0  0  0  0  0  0  0  0  0
   -0.3330   11.1240   -1.1460 C   0  0  0  0  0  0  0  0  0  0  0  0
    1.1730   11.4150   -1.1380 C   0  0  1  0  0  0  0  0  0  0  0  0
    1.9590   10.0780   -1.1350 C   0  0  0  0  0  0  0  0  0  0  0  0
    1.5370    9.1530    0.0030 C   0  0  0  0  0  0  0  0  0  0  0  0
    0.0450    8.8400   -0.0730 C   0  0  2  0  0  0  0  0  0  0  0  0
   -0.2030    8.0610   -1.2470 O   0  0  0  0  0  0  0  0  0  0  0  0
   -0.8470   10.1120   -0.0920 C   0  0  0  0  0  0  0  0  0  0  0  0
   -0.8090   10.7960    1.2970 C   0  0  0  0  0  0  0  0  0  0  0  0
   -2.3170    9.6610   -0.3130 C   0  0  0  0  0  0  0  0  0  0  0  0
    1.6900   12.4240   -2.2510 C   0  0  1  0  0  0  0  0  0  0  0  0
    2.0070   11.6490   -3.5670 C   0  0  0  0  0  0  0  0  0  0  0  0
    3.0480   13.0630   -1.7750 C   0  0  0  0  0  0  0  0  0  0  0  0
    2.9530   14.3380   -0.9150 C   0  0  0  0  0  0  0  0  0  0  0  0
    2.0160   15.3650   -1.5590 C   0  0  2  0  0  0  0  0  0  0  0  0
    2.6350   15.7800   -2.9370 C   0  0  0  0  0  0  0  0  0  0  0  0
    3.3107   17.5800    1.3738 H   0  0  0  0  0  0  0  0  0  0  0  0
    4.1696   16.3972    0.3299 H   0  0  0  0  0  0  0  0  0  0  0  0
    4.6679   18.1230    0.3299 H   0  0  0  0  0  0  0  0  0  0  0  0
    3.3895   17.6923   -1.6733 H   0  0  0  0  0  0  0  0  0  0  0  0
    2.9986   19.8695   -0.6362 H   0  0  0  0  0  0  0  0  0  0  0  0
    1.4920   19.2297   -1.4507 H   0  0  0  0  0  0  0  0  0  0  0  0
    1.1649   18.3409    1.1161 H   0  0  0  0  0  0  0  0  0  0  0  0
    1.9852   19.9389    1.3626 H   0  0  0  0  0  0  0  0  0  0  0  0
    0.5689   20.6586   -0.3644 H   0  0  0  0  0  0  0  0  0  0  0  0
   -1.4116   17.8101    1.9362 H   0  0  0  0  0  0  0  0  0  0  0  0
   -2.3402   17.5304    0.4243 H   0  0  0  0  0  0  0  0  0  0  0  0
   -0.5519   17.3612    0.4243 H   0  0  0  0  0  0  0  0  0  0  0  0
   -3.1404   20.3843    0.4769 H   0  0  0  0  0  0  0  0  0  0  0  0
   -2.0406   20.8107   -0.8778 H   0  0  0  0  0  0  0  0  0  0  0  0
   -2.8947   19.2305   -0.8778 H   0  0  0  0  0  0  0  0  0  0  0  0
    1.6876   16.4214    0.3258 H   0  0  0  0  0  0  0  0  0  0  0  0
   -0.2690   17.5180   -0.5737 H   0  0  0  0  0  0  0  0  0  0  0  0
    0.5922   18.0158   -2.0460 H   0  0  0  0  0  0  0  0  0  0  0  0
   -1.2893   15.8720   -1.8669 H   0  0  0  0  0  0  0  0  0  0  0  0
   -0.1812   16.1027   -3.2167 H   0  0  0  0  0  0  0  0  0  0  0  0
    0.5822   14.7453    0.5425 H   0  0  0  0  0  0  0  0  0  0  0  0
   -1.0569   14.8112   -0.1894 H   0  0  0  0  0  0  0  0  0  0  0  0
   -0.1345   13.2698   -0.1894 H   0  0  0  0  0  0  0  0  0  0  0  0
    0.9299   13.9781   -3.5659 H   0  0  0  0  0  0  0  0  0  0  0  0
   -1.5249   13.6678   -2.8447 H   0  0  0  0  0  0  0  0  0  0  0  0
   -0.6797   12.4258   -3.9090 H   0  0  0  0  0  0  0  0  0  0  0  0
   -2.2141   11.4675   -1.9948 H   0  0  0  0  0  0  0  0  0  0  0  0
    1.3709   11.9662   -0.2069 H   0  0  0  0  0  0  0  0  0  0  0  0
    1.7830    9.5635   -2.0912 H   0  0  0  0  0  0  0  0  0  0  0  0
    3.0233   10.3170   -0.9934 H   0  0  0  0  0  0  0  0  0  0  0  0
    2.1058    8.2140   -0.0666 H   0  0  0  0  0  0  0  0  0  0  0  0
    1.7417    9.6568    0.9592 H   0  0  0  0  0  0  0  0  0  0  0  0
   -0.2223    8.2830    0.8371 H   0  0  0  0  0  0  0  0  0  0  0  0
    0.2820    7.2230   -1.1520 H   0  0  0  0  0  0  0  0  0  0  0  0
   -0.8516   10.0292    2.0846 H   0  0  0  0  0  0  0  0  0  0  0  0
    0.1226   11.3725    1.3965 H   0  0  0  0  0  0  0  0  0  0  0  0
   -1.6710   11.4721    1.3965 H   0  0  0  0  0  0  0  0  0  0  0  0
   -2.8050    9.5113    0.6614 H   0  0  0  0  0  0  0  0  0  0  0  0
   -2.8569   10.4348   -0.8784 H   0  0  0  0  0  0  0  0  0  0  0  0
   -2.3300    8.7175   -0.8784 H   0  0  0  0  0  0  0  0  0  0  0  0
    2.4128   10.6570   -3.3196 H   0  0  0  0  0  0  0  0  0  0  0  0
    1.0846   11.5317   -4.1547 H   0  0  0  0  0  0  0  0  0  0  0  0
    2.7472   12.2118   -4.1547 H   0  0  0  0  0  0  0  0  0  0  0  0
    3.5845   12.3041   -1.1866 H   0  0  0  0  0  0  0  0  0  0  0  0
    3.5575   13.3762   -2.6982 H   0  0  0  0  0  0  0  0  0  0  0  0
    2.5668   14.0728    0.0803 H   0  0  0  0  0  0  0  0  0  0  0  0
    3.9563   14.7814   -0.8330 H   0  0  0  0  0  0  0  0  0  0  0  0
    3.5376   16.3851   -2.7662 H   0  0  0  0  0  0  0  0  0  0  0  0
    2.9012   14.8771   -3.5062 H   0  0  0  0  0  0  0  0  0  0  0  0
    1.9009   16.3691   -3.5062 H   0  0  0  0  0  0  0  0  0  0  0  0
  1  2  1  0
  2  3  1  0
  3  4  1  0
  4  5  1  0
  5  6  1  0
  6  7  1  0
  7  8  1  0
  7  9  1  0
  2 10  1  0
 10 11  1  0
 11 12  1  0
 12 13  1  0
 13 14  1  1
 13 15  1  0
 15 16  1  0
 16 17  1  0
 17 18  2  0
 18 19  1  0
 19 20  1  0
 20 21  1  0
 21 22  1  0
 22 23  1  0
 22 24  1  0
 24 25  1  0
 24 26  1  0
 19 27  1  0
 27 28  1  6
 27 29  1  0
 29 30  1  0
 30 31  1  0
 31 32  1  6
  7  5  1  0
 31 10  1  0
 31 13  1  0
 27 15  1  0
 24 18  1  0
  1 33  1  0
  1 34  1  0
  1 35  1  0
  2 36  1  6
  3 37  1  0
  3 38  1  0
  4 39  1  0
  4 40  1  0
  5 41  1  6
  8 42  1  0
  8 43  1  0
  8 44  1  0
  9 45  1  0
  9 46  1  0
  9 47  1  0
 10 48  1  1
 11 49  1  0
 11 50  1  0
 12 51  1  0
 12 52  1  0
 14 53  1  0
 14 54  1  0
 14 55  1  0
 15 56  1  6
 16 57  1  0
 16 58  1  0
 17 59  1  0
 19 60  1  1
 20 61  1  0
 20 62  1  0
 21 63  1  0
 21 64  1  0
 22 65  1  1
 23 66  1  0
 25 67  1  0
 25 68  1  0
 25 69  1  0
 26 70  1  0
 26 71  1  0
 26 72  1  0
 28 73  1  0
 28 74  1  0
 28 75  1  0
 29 76  1  0
 29 77  1  0
 30 78  1  0
 30 79  1  0
 32 80  1  0
 32 81  1  0
 32 82  1  0
M  END
>  <meeko>  (5) 
{"is_sidechain": [false], "intermolecular_energy": 2.731, "internal_energy": -0.839}

$$$$
EPH_relaxed_0001_pdb2pqr_Repair_399_r2_0001_out
     RDKit          3D

 82 86  0  0  0  0  0  0  0  0999 V2000
   -5.1760    5.8990   -1.6640 C   0  0  0  0  0  0  0  0  0  0  0  0
   -5.4600    7.3970   -1.8020 C   0  0  2  0  0  0  0  0  0  0  0  0
   -5.2070    8.1600   -0.4860 C   0  0  0  0  0  0  0  0  0  0  0  0
   -4.2290    9.3300   -0.6310 C   0  0  0  0  0  0  0  0  0  0  0  0
   -2.8210    8.9160   -0.3280 C   0  0  2  0  0  0  0  0  0  0  0  0
   -2.1870    9.6690    0.7150 O   0  0  0  0  0  0  0  0  0  0  0  0
   -1.6140    9.7960   -0.5970 C   0  0  0  0  0  0  0  0  0  0  0  0
   -1.7610   11.1600   -1.1960 C   0  0  0  0  0  0  0  0  0  0  0  0
   -0.2720    9.1470   -0.7340 C   0  0  0  0  0  0  0  0  0  0  0  0
   -6.8970    7.6140   -2.2610 C   0  0  1  0  0  0  0  0  0  0  0  0
   -7.2080    6.9040   -3.6060 C   0  0  0  0  0  0  0  0  0  0  0  0
   -8.6810    6.4260   -3.5290 C   0  0  0  0  0  0  0  0  0  0  0  0
   -9.2650    7.1570   -2.2970 C   0  0  1  0  0  0  0  0  0  0  0  0
   -9.6240    8.5860   -2.8120 C   0  0  0  0  0  0  0  0  0  0  0  0
  -10.4850    6.4710   -1.6010 C   0  0  2  0  0  0  0  0  0  0  0  0
  -11.7430    6.3320   -2.4760 C   0  0  0  0  0  0  0  0  0  0  0  0
  -12.7010    7.4740   -2.4020 C   0  0  0  0  0  0  0  0  0  0  0  0
  -12.7040    8.4320   -1.4560 C   0  0  0  0  0  0  0  0  0  0  0  0
  -11.7330    8.3710   -0.2690 C   0  0  1  0  0  0  0  0  0  0  0  0
  -12.5040    8.6590    1.0460 C   0  0  0  0  0  0  0  0  0  0  0  0
  -13.2790    9.9720    0.9930 C   0  0  0  0  0  0  0  0  0  0  0  0
  -14.2740    9.9720   -0.1640 C   0  0  2  0  0  0  0  0  0  0  0  0
  -15.2870    8.9960    0.0990 O   0  0  0  0  0  0  0  0  0  0  0  0
  -13.6140    9.6820   -1.5410 C   0  0  0  0  0  0  0  0  0  0  0  0
  -12.7420   10.8900   -1.9640 C   0  0  0  0  0  0  0  0  0  0  0  0
  -14.7440    9.5710   -2.5990 C   0  0  0  0  0  0  0  0  0  0  0  0
  -10.8350    7.0630   -0.1760 C   0  0  1  0  0  0  0  0  0  0  0  0
  -11.6020    5.9450    0.5950 C   0  0  0  0  0  0  0  0  0  0  0  0
   -9.5470    7.3830    0.6720 C   0  0  0  0  0  0  0  0  0  0  0  0
   -8.3350    7.9470   -0.0930 C   0  0  0  0  0  0  0  0  0  0  0  0
   -8.0260    7.1000   -1.3320 C   0  0  2  0  0  0  0  0  0  0  0  0
   -7.6390    5.6630   -0.8440 C   0  0  0  0  0  0  0  0  0  0  0  0
   -5.1254    5.6321   -0.5981 H   0  0  0  0  0  0  0  0  0  0  0  0
   -5.9817    5.3270   -2.1474 H   0  0  0  0  0  0  0  0  0  0  0  0
   -4.2168    5.6616   -2.1474 H   0  0  0  0  0  0  0  0  0  0  0  0
   -4.7647    7.7970   -2.5547 H   0  0  0  0  0  0  0  0  0  0  0  0
   -6.1677    8.5534   -0.1224 H   0  0  0  0  0  0  0  0  0  0  0  0
   -4.7527    7.4464    0.2171 H   0  0  0  0  0  0  0  0  0  0  0  0
   -4.2753    9.7076   -1.6631 H   0  0  0  0  0  0  0  0  0  0  0  0
   -4.5192   10.1107    0.0876 H   0  0  0  0  0  0  0  0  0  0  0  0
   -3.0461    7.8719   -0.5910 H   0  0  0  0  0  0  0  0  0  0  0  0
   -1.8415   11.9067   -0.3923 H   0  0  0  0  0  0  0  0  0  0  0  0
   -0.8818   11.3840   -1.8179 H   0  0  0  0  0  0  0  0  0  0  0  0
   -2.6677   11.1916   -1.8179 H   0  0  0  0  0  0  0  0  0  0  0  0
    0.1421    8.9467    0.2652 H   0  0  0  0  0  0  0  0  0  0  0  0
   -0.3770    8.2001   -1.2839 H   0  0  0  0  0  0  0  0  0  0  0  0
    0.4050    9.8173   -1.2839 H   0  0  0  0  0  0  0  0  0  0  0  0
   -6.9136    8.7131   -2.3013 H   0  0  0  0  0  0  0  0  0  0  0  0
   -7.0808    7.6060   -4.4433 H   0  0  0  0  0  0  0  0  0  0  0  0
   -6.5260    6.0572   -3.7727 H   0  0  0  0  0  0  0  0  0  0  0  0
   -9.2280    6.7053   -4.4416 H   0  0  0  0  0  0  0  0  0  0  0  0
   -8.7605    5.3324   -3.4414 H   0  0  0  0  0  0  0  0  0  0  0  0
   -9.7917    9.2536   -1.9540 H   0  0  0  0  0  0  0  0  0  0  0  0
   -8.7956    8.9746   -3.4225 H   0  0  0  0  0  0  0  0  0  0  0  0
  -10.5377    8.5369   -3.4225 H   0  0  0  0  0  0  0  0  0  0  0  0
  -10.1187    5.4463   -1.4403 H   0  0  0  0  0  0  0  0  0  0  0  0
  -11.4194    6.2272   -3.5221 H   0  0  0  0  0  0  0  0  0  0  0  0
  -12.2850    5.4551   -2.0922 H   0  0  0  0  0  0  0  0  0  0  0  0
  -13.4694    7.5384   -3.1865 H   0  0  0  0  0  0  0  0  0  0  0  0
  -10.9872    9.1603   -0.4444 H   0  0  0  0  0  0  0  0  0  0  0  0
  -13.2132    7.8377    1.2262 H   0  0  0  0  0  0  0  0  0  0  0  0
  -11.7645    8.7398    1.8563 H   0  0  0  0  0  0  0  0  0  0  0  0
  -13.8259   10.1056    1.9380 H   0  0  0  0  0  0  0  0  0  0  0  0
  -12.5651   10.7951    0.8419 H   0  0  0  0  0  0  0  0  0  0  0  0
  -14.7031   10.9827   -0.2292 H   0  0  0  0  0  0  0  0  0  0  0  0
  -15.5860    8.6440   -0.7570 H   0  0  0  0  0  0  0  0  0  0  0  0
  -12.3698   11.4057   -1.0665 H   0  0  0  0  0  0  0  0  0  0  0  0
  -11.8902   10.5355   -2.5630 H   0  0  0  0  0  0  0  0  0  0  0  0
  -13.3467   11.5868   -2.5630 H   0  0  0  0  0  0  0  0  0  0  0  0
  -15.7146    9.4757   -2.0902 H   0  0  0  0  0  0  0  0  0  0  0  0
  -14.7470   10.4732   -3.2283 H   0  0  0  0  0  0  0  0  0  0  0  0
  -14.5714    8.6855   -3.2283 H   0  0  0  0  0  0  0  0  0  0  0  0
  -11.4923    6.1049    1.6778 H   0  0  0  0  0  0  0  0  0  0  0  0
  -12.6679    5.9789    0.3255 H   0  0  0  0  0  0  0  0  0  0  0  0
  -11.1867    4.9627    0.3255 H   0  0  0  0  0  0  0  0  0  0  0  0
   -9.8282    8.1191    1.4395 H   0  0  0  0  0  0  0  0  0  0  0  0
   -9.2127    6.4118    1.0657 H   0  0  0  0  0  0  0  0  0  0  0  0
   -8.5559    8.9776   -0.4076 H   0  0  0  0  0  0  0  0  0  0  0  0
   -7.4596    7.9269    0.5728 H   0  0  0  0  0  0  0  0  0  0  0  0
   -7.6324    5.6386    0.2557 H   0  0  0  0  0  0  0  0  0  0  0  0
   -8.3736    4.9370   -1.2225 H   0  0  0  0  0  0  0  0  0  0  0  0
   -6.6391    5.4041   -1.2225 H   0  0  0  0  0  0  0  0  0  0  0  0
  1  2  1  0
  2  3  1  0
  3  4  1  0
  4  5  1  0
  5  6  1  0
  6  7  1  0
  7  8  1  0
  7  9  1  0
  2 10  1  0
 10 11  1  0
 11 12  1  0
 12 13  1  0
 13 14  1  6
 13 15  1  0
 15 16  1  0
 16 17  1  0
 17 18  2  0
 18 19  1  0
 19 20  1  0
 20 21  1  0
 21 22  1  0
 22 23  1  0
 22 24  1  0
 24 25  1  0
 24 26  1  0
 19 27  1  0
 27 28  1  1
 27 29  1  0
 29 30  1  0
 30 31  1  0
 31 32  1  1
  7  5  1  0
 31 10  1  0
 31 13  1  0
 27 15  1  0
 24 18  1  0
  1 33  1  0
  1 34  1  0
  1 35  1  0
  2 36  1  6
  3 37  1  0
  3 38  1  0
  4 39  1  0
  4 40  1  0
  5 41  1  1
  8 42  1  0
  8 43  1  0
  8 44  1  0
  9 45  1  0
  9 46  1  0
  9 47  1  0
 10 48  1  6
 11 49  1  0
 11 50  1  0
 12 51  1  0
 12 52  1  0
 14 53  1  0
 14 54  1  0
 14 55  1  0
 15 56  1  1
 16 57  1  0
 16 58  1  0
 17 59  1  0
 19 60  1  6
 20 61  1  0
 20 62  1  0
 21 63  1  0
 21 64  1  0
 22 65  1  6
 23 66  1  0
 25 67  1  0
 25 68  1  0
 25 69  1  0
 26 70  1  0
 26 71  1  0
 26 72  1  0
 28 73  1  0
 28 74  1  0
 28 75  1  0
 29 76  1  0
 29 77  1  0
 30 78  1  0
 30 79  1  0
 32 80  1  0
 32 81  1  0
 32 82  1  0
M  END
>  <meeko>  (6) 
{"is_sidechain": [false], "intermolecular_energy": 2.731, "internal_energy": -0.839}

$$$$
EPH_relaxed_0001_pdb2pqr_Repair_399_r2_0001_out
     RDKit          3D

 82 86  0  0  0  0  0  0  0  0999 V2000
    0.4500    8.7950   -2.3500 C   0  0  0  0  0  0  0  0  0  0  0  0
    1.1840    9.9360   -3.0600 C   0  0  2  0  0  0  0  0  0  0  0  0
    2.6870    9.9630   -2.7160 C   0  0  0  0  0  0  0  0  0  0  0  0
    3.5590   10.5800   -3.8120 C   0  0  0  0  0  0  0  0  0  0  0  0
    4.9570   10.8290   -3.3340 C   0  0  2  0  0  0  0  0  0  0  0  0
    5.5510   12.0380   -3.8250 O   0  0  0  0  0  0  0  0  0  0  0  0
    6.1690   10.8120   -4.2470 C   0  0  0  0  0  0  0  0  0  0  0  0
    6.0380   10.5380   -5.7130 C   0  0  0  0  0  0  0  0  0  0  0  0
    7.5180   10.5760   -3.6420 C   0  0  0  0  0  0  0  0  0  0  0  0
    0.5430   11.2710   -2.7000 C   0  0  1  0  0  0  0  0  0  0  0  0
   -0.8340   11.1030   -2.0020 C   0  0  0  0  0  0  0  0  0  0  0  0
   -0.9510   12.2480   -0.9630 C   0  0  0  0  0  0  0  0  0  0  0  0
    0.1970   13.2200   -1.3230 C   0  0  1  0  0  0  0  0  0  0  0  0
   -0.3550   14.0710   -2.5100 C   0  0  0  0  0  0  0  0  0  0  0  0
    0.7260   14.1240   -0.1620 C   0  0  2  0  0  0  0  0  0  0  0  0
   -0.3070   15.1020    0.4260 C   0  0  0  0  0  0  0  0  0  0  0  0
   -0.3530   16.4460   -0.2220 C   0  0  0  0  0  0  0  0  0  0  0  0
    0.5870   16.9520   -1.0410 C   0  0  0  0  0  0  0  0  0  0  0  0
    1.8900   16.1890   -1.3120 C   0  0  1  0  0  0  0  0  0  0  0  0
    3.0940   17.1590   -1.1880 C   0  0  0  0  0  0  0  0  0  0  0  0
    2.9460   18.3920   -2.0740 C   0  0  0  0  0  0  0  0  0  0  0  0
    1.6680   19.1560   -1.7350 C   0  0  2  0  0  0  0  0  0  0  0  0
    1.7940   19.7030   -0.4180 O   0  0  0  0  0  0  0  0  0  0  0  0
    0.3890   18.2780   -1.8170 C   0  0  0  0  0  0  0  0  0  0  0  0
    0.0860   17.9350   -3.2960 C   0  0  0  0  0  0  0  0  0  0  0  0
   -0.8080   19.1300   -1.3150 C   0  0  0  0  0  0  0  0  0  0  0  0
    2.0950   14.8510   -0.4790 C   0  0  1  0  0  0  0  0  0  0  0  0
    2.7550   15.1760    0.8950 C   0  0  0  0  0  0  0  0  0  0  0  0
    3.1040   13.9170   -1.2470 C   0  0  0  0  0  0  0  0  0  0  0  0
    2.5060   12.9620   -2.2970 C   0  0  0  0  0  0  0  0  0  0  0  0
    1.3150   12.1900   -1.7200 C   0  0  2  0  0  0  0  0  0  0  0  0
    1.8440   11.3080   -0.5390 C   0  0  0  0  0  0  0  0  0  0  0  0
    0.5344    8.9262   -1.2611 H   0  0  0  0  0  0  0  0  0  0  0  0
   -0.6112    8.8055   -2.6394 H   0  0  0  0  0  0  0  0  0  0  0  0
    0.8995    7.8337   -2.6394 H   0  0  0  0  0  0  0  0  0  0  0  0
    1.0964    9.7620   -4.1426 H   0  0  0  0  0  0  0  0  0  0  0  0
    2.8217   10.5485   -1.7946 H   0  0  0  0  0  0  0  0  0  0  0  0
    3.0087    8.9175   -2.6004 H   0  0  0  0  0  0  0  0  0  0  0  0
    3.5928    9.8923   -4.6699 H   0  0  0  0  0  0  0  0  0  0  0  0
    3.1174   11.5460   -4.0980 H   0  0  0  0  0  0  0  0  0  0  0  0
    4.7454   10.3256   -2.3791 H   0  0  0  0  0  0  0  0  0  0  0  0
    5.5679    9.5547   -5.8617 H   0  0  0  0  0  0  0  0  0  0  0  0
    5.4146   11.3164   -6.1772 H   0  0  0  0  0  0  0  0  0  0  0  0
    7.0352   10.5416   -6.1772 H   0  0  0  0  0  0  0  0  0  0  0  0
    7.4356   10.5904   -2.5452 H   0  0  0  0  0  0  0  0  0  0  0  0
    7.9000    9.5974   -3.9682 H   0  0  0  0  0  0  0  0  0  0  0  0
    8.2096   11.3668   -3.9682 H   0  0  0  0  0  0  0  0  0  0  0  0
    0.5051   11.7324   -3.6978 H   0  0  0  0  0  0  0  0  0  0  0  0
   -1.6451   11.1778   -2.7412 H   0  0  0  0  0  0  0  0  0  0  0  0
   -0.9135   10.1192   -1.5164 H   0  0  0  0  0  0  0  0  0  0  0  0
   -1.9260   12.7504   -1.0469 H   0  0  0  0  0  0  0  0  0  0  0  0
   -0.8785   11.8816    0.0716 H   0  0  0  0  0  0  0  0  0  0  0  0
   -0.9137   14.9323   -2.1150 H   0  0  0  0  0  0  0  0  0  0  0  0
    0.4834   14.4289   -3.1256 H   0  0  0  0  0  0  0  0  0  0  0  0
   -1.0236   13.4514   -3.1256 H   0  0  0  0  0  0  0  0  0  0  0  0
    0.9303   13.3916    0.6329 H   0  0  0  0  0  0  0  0  0  0  0  0
   -1.3023   14.6438    0.3294 H   0  0  0  0  0  0  0  0  0  0  0  0
   -0.0019   15.2768    1.4683 H   0  0  0  0  0  0  0  0  0  0  0  0
   -1.2298   17.0762   -0.0121 H   0  0  0  0  0  0  0  0  0  0  0  0
    1.8161   15.8174   -2.3447 H   0  0  0  0  0  0  0  0  0  0  0  0
    3.1774   17.4853   -0.1408 H   0  0  0  0  0  0  0  0  0  0  0  0
    3.9936   16.6180   -1.5166 H   0  0  0  0  0  0  0  0  0  0  0  0
    3.8121   19.0524   -1.9198 H   0  0  0  0  0  0  0  0  0  0  0  0
    2.8932   18.0666   -3.1234 H   0  0  0  0  0  0  0  0  0  0  0  0
    1.5497   19.9512   -2.4857 H   0  0  0  0  0  0  0  0  0  0  0  0
    2.4160   20.4480   -0.4670 H   0  0  0  0  0  0  0  0  0  0  0  0
   -0.6417   17.1112   -3.3397 H   0  0  0  0  0  0  0  0  0  0  0  0
   -0.3309   18.8196   -3.7996 H   0  0  0  0  0  0  0  0  0  0  0  0
    1.0153   17.6304   -3.7996 H   0  0  0  0  0  0  0  0  0  0  0  0
   -0.8175   19.1368   -0.2151 H   0  0  0  0  0  0  0  0  0  0  0  0
   -0.7064   20.1601   -1.6871 H   0  0  0  0  0  0  0  0  0  0  0  0
   -1.7481   18.6967   -1.6871 H   0  0  0  0  0  0  0  0  0  0  0  0
    2.0900   14.8486    1.7078 H   0  0  0  0  0  0  0  0  0  0  0  0
    3.7172   14.6487    0.9735 H   0  0  0  0  0  0  0  0  0  0  0  0
    2.9236   16.2602    0.9735 H   0  0  0  0  0  0  0  0  0  0  0  0
    3.8305   14.5636   -1.7610 H   0  0  0  0  0  0  0  0  0  0  0  0
    3.5343   13.2622   -0.4749 H   0  0  0  0  0  0  0  0  0  0  0  0
    2.1691   13.5472   -3.1653 H   0  0  0  0  0  0  0  0  0  0  0  0
    3.2803   12.2403   -2.5964 H   0  0  0  0  0  0  0  0  0  0  0  0
    1.5656   11.7722    0.4186 H   0  0  0  0  0  0  0  0  0  0  0  0
    1.3988   10.3042   -0.6030 H   0  0  0  0  0  0  0  0  0  0  0  0
    2.9392   11.2281   -0.6030 H   0  0  0  0  0  0  0  0  0  0  0  0
  1  2  1  0
  2  3  1  0
  3  4  1  0
  4  5  1  0
  5  6  1  0
  6  7  1  0
  7  8  1  0
  7  9  1  0
  2 10  1  0
 10 11  1  0
 11 12  1  0
 12 13  1  0
 13 14  1  6
 13 15  1  0
 15 16  1  0
 16 17  1  0
 17 18  2  0
 18 19  1  0
 19 20  1  0
 20 21  1  0
 21 22  1  0
 22 23  1  0
 22 24  1  0
 24 25  1  0
 24 26  1  0
 19 27  1  0
 27 28  1  1
 27 29  1  0
 29 30  1  0
 30 31  1  0
 31 32  1  1
  7  5  1  0
 31 10  1  0
 31 13  1  0
 27 15  1  0
 24 18  1  0
  1 33  1  0
  1 34  1  0
  1 35  1  0
  2 36  1  6
  3 37  1  0
  3 38  1  0
  4 39  1  0
  4 40  1  0
  5 41  1  1
  8 42  1  0
  8 43  1  0
  8 44  1  0
  9 45  1  0
  9 46  1  0
  9 47  1  0
 10 48  1  6
 11 49  1  0
 11 50  1  0
 12 51  1  0
 12 52  1  0
 14 53  1  0
 14 54  1  0
 14 55  1  0
 15 56  1  1
 16 57  1  0
 16 58  1  0
 17 59  1  0
 19 60  1  6
 20 61  1  0
 20 62  1  0
 21 63  1  0
 21 64  1  0
 22 65  1  6
 23 66  1  0
 25 67  1  0
 25 68  1  0
 25 69  1  0
 26 70  1  0
 26 71  1  0
 26 72  1  0
 28 73  1  0
 28 74  1  0
 28 75  1  0
 29 76  1  0
 29 77  1  0
 30 78  1  0
 30 79  1  0
 32 80  1  0
 32 81  1  0
 32 82  1  0
M  END
>  <meeko>  (7) 
{"is_sidechain": [false], "intermolecular_energy": 2.731, "internal_energy": -0.839}

$$$$
EPH_relaxed_0001_pdb2pqr_Repair_399_r2_0001_out
     RDKit          3D

 82 86  0  0  0  0  0  0  0  0999 V2000
    2.2250   19.2720   -2.1580 C   0  0  0  0  0  0  0  0  0  0  0  0
    1.5890   19.2450   -0.7650 C   0  0  2  0  0  0  0  0  0  0  0  0
    2.5210   19.8400    0.3100 C   0  0  0  0  0  0  0  0  0  0  0  0
    3.5770   18.8560    0.8220 C   0  0  0  0  0  0  0  0  0  0  0  0
    3.7690   18.9700    2.3040 C   0  0  2  0  0  0  0  0  0  0  0  0
    4.3760   20.1940    2.7370 O   0  0  0  0  0  0  0  0  0  0  0  0
    5.1310   18.9950    2.9710 C   0  0  0  0  0  0  0  0  0  0  0  0
    6.3930   18.9050    2.1720 C   0  0  0  0  0  0  0  0  0  0  0  0
    5.2270   18.6160    4.4160 C   0  0  0  0  0  0  0  0  0  0  0  0
    1.2110   17.8160   -0.3940 C   0  0  1  0  0  0  0  0  0  0  0  0
   -0.1120   17.7390    0.4150 C   0  0  0  0  0  0  0  0  0  0  0  0
   -0.8250   16.4320   -0.0170 C   0  0  0  0  0  0  0  0  0  0  0  0
    0.2500   15.6420   -0.7990 C   0  0  1  0  0  0  0  0  0  0  0  0
    1.1210   14.9540    0.2990 C   0  0  0  0  0  0  0  0  0  0  0  0
   -0.2780   14.6100   -1.8480 C   0  0  2  0  0  0  0  0  0  0  0  0
   -1.1150   13.4570   -1.2650 C   0  0  0  0  0  0  0  0  0  0  0  0
   -0.3420   12.2410   -0.8750 C   0  0  0  0  0  0  0  0  0  0  0  0
    0.9230   11.9660   -1.2450 C   0  0  0  0  0  0  0  0  0  0  0  0
    1.6740   12.8800   -2.2220 C   0  0  1  0  0  0  0  0  0  0  0  0
    2.3720   12.0170   -3.3060 C   0  0  0  0  0  0  0  0  0  0  0  0
    3.2710   10.9400   -2.7060 C   0  0  0  0  0  0  0  0  0  0  0  0
    2.4760   10.0160   -1.7860 C   0  0  2  0  0  0  0  0  0  0  0  0
    1.5420    9.2720   -2.5750 O   0  0  0  0  0  0  0  0  0  0  0  0
    1.7210   10.7750   -0.6600 C   0  0  0  0  0  0  0  0  0  0  0  0
    2.7380   11.3300    0.3670 C   0  0  0  0  0  0  0  0  0  0  0  0
    0.8480    9.7460    0.1070 C   0  0  0  0  0  0  0  0  0  0  0  0
    0.8290   14.0740   -2.8440 C   0  0  1  0  0  0  0  0  0  0  0  0
    0.0800   13.5860   -4.1220 C   0  0  0  0  0  0  0  0  0  0  0  0
    1.8130   15.2100   -3.3130 C   0  0  0  0  0  0  0  0  0  0  0  0
    2.2030   16.2680   -2.2630 C   0  0  0  0  0  0  0  0  0  0  0  0
    0.9630   16.8220   -1.5550 C   0  0  2  0  0  0  0  0  0  0  0  0
    0.0780   17.5390   -2.6310 C   0  0  0  0  0  0  0  0  0  0  0  0
    3.3197   19.3185   -2.0604 H   0  0  0  0  0  0  0  0  0  0  0  0
    1.9441   18.3611   -2.7070 H   0  0  0  0  0  0  0  0  0  0  0  0
    1.8680   20.1558   -2.7070 H   0  0  0  0  0  0  0  0  0  0  0  0
    0.6851   19.8708   -0.8013 H   0  0  0  0  0  0  0  0  0  0  0  0
    3.0373   20.7104   -0.1211 H   0  0  0  0  0  0  0  0  0  0  0  0
    1.8896   20.1100    1.1693 H   0  0  0  0  0  0  0  0  0  0  0  0
    3.2558   17.8317    0.5819 H   0  0  0  0  0  0  0  0  0  0  0  0
    4.5332   19.0943    0.3331 H   0  0  0  0  0  0  0  0  0  0  0  0
    2.8666   18.3693    2.4907 H   0  0  0  0  0  0  0  0  0  0  0  0
    7.2546   18.8436    2.8531 H   0  0  0  0  0  0  0  0  0  0  0  0
    6.3622   18.0068    1.5378 H   0  0  0  0  0  0  0  0  0  0  0  0
    6.4899   19.7985    1.5378 H   0  0  0  0  0  0  0  0  0  0  0  0
    5.0047   19.4936    5.0408 H   0  0  0  0  0  0  0  0  0  0  0  0
    4.5028   17.8174    4.6345 H   0  0  0  0  0  0  0  0  0  0  0  0
    6.2441   18.2585    4.6345 H   0  0  0  0  0  0  0  0  0  0  0  0
    2.1135   17.5254    0.1637 H   0  0  0  0  0  0  0  0  0  0  0  0
    0.1042   17.7139    1.4932 H   0  0  0  0  0  0  0  0  0  0  0  0
   -0.7454   18.6171    0.2208 H   0  0  0  0  0  0  0  0  0  0  0  0
   -1.1612   15.8639    0.8629 H   0  0  0  0  0  0  0  0  0  0  0  0
   -1.7226   16.6267   -0.6223 H   0  0  0  0  0  0  0  0  0  0  0  0
    0.7532   15.2445    1.2942 H   0  0  0  0  0  0  0  0  0  0  0  0
    1.0550   13.8616    0.1882 H   0  0  0  0  0  0  0  0  0  0  0  0
    2.1684   15.2712    0.1882 H   0  0  0  0  0  0  0  0  0  0  0  0
   -0.9770   15.2156   -2.4434 H   0  0  0  0  0  0  0  0  0  0  0  0
   -1.6330   13.8319   -0.3699 H   0  0  0  0  0  0  0  0  0  0  0  0
   -1.7963   13.1396   -2.0681 H   0  0  0  0  0  0  0  0  0  0  0  0
   -0.8488   11.5075   -0.2307 H   0  0  0  0  0  0  0  0  0  0  0  0
    2.4291   13.4099   -1.6228 H   0  0  0  0  0  0  0  0  0  0  0  0
    1.6002   11.5303   -3.9203 H   0  0  0  0  0  0  0  0  0  0  0  0
    3.0062   12.6847   -3.9076 H   0  0  0  0  0  0  0  0  0  0  0  0
    3.7125   10.3454   -3.5193 H   0  0  0  0  0  0  0  0  0  0  0  0
    4.0596   11.4296   -2.1158 H   0  0  0  0  0  0  0  0  0  0  0  0
    3.1945    9.3489   -1.2872 H   0  0  0  0  0  0  0  0  0  0  0  0
    0.7700    9.8420   -2.7310 H   0  0  0  0  0  0  0  0  0  0  0  0
    2.3750   11.1319    1.3863 H   0  0  0  0  0  0  0  0  0  0  0  0
    3.7110   10.8378    0.2222 H   0  0  0  0  0  0  0  0  0  0  0  0
    2.8505   12.4146    0.2222 H   0  0  0  0  0  0  0  0  0  0  0  0
    0.9733    9.8937    1.1898 H   0  0  0  0  0  0  0  0  0  0  0  0
   -0.2089    9.8886   -0.1626 H   0  0  0  0  0  0  0  0  0  0  0  0
    1.1609    8.7265   -0.1626 H   0  0  0  0  0  0  0  0  0  0  0  0
   -0.8081   13.0074   -3.8280 H   0  0  0  0  0  0  0  0  0  0  0  0
   -0.2304   14.4557   -4.7197 H   0  0  0  0  0  0  0  0  0  0  0  0
    0.7502   12.9507   -4.7197 H   0  0  0  0  0  0  0  0  0  0  0  0
    2.7388   14.7267   -3.6584 H   0  0  0  0  0  0  0  0  0  0  0  0
    1.2647   15.7634   -4.0896 H   0  0  0  0  0  0  0  0  0  0  0  0
    2.8671   15.8068   -1.5171 H   0  0  0  0  0  0  0  0  0  0  0  0
    2.7143   17.0970   -2.7741 H   0  0  0  0  0  0  0  0  0  0  0  0
   -0.6825   18.1551   -2.1289 H   0  0  0  0  0  0  0  0  0  0  0  0
    0.7130   18.1805   -3.2597 H   0  0  0  0  0  0  0  0  0  0  0  0
   -0.4178   16.7848   -3.2597 H   0  0  0  0  0  0  0  0  0  0  0  0
  1  2  1  0
  2  3  1  0
  3  4  1  0
  4  5  1  0
  5  6  1  0
  6  7  1  0
  7  8  1  0
  7  9  1  0
  2 10  1  0
 10 11  1  0
 11 12  1  0
 12 13  1  0
 13 14  1  1
 13 15  1  0
 15 16  1  0
 16 17  1  0
 17 18  2  0
 18 19  1  0
 19 20  1  0
 20 21  1  0
 21 22  1  0
 22 23  1  0
 22 24  1  0
 24 25  1  0
 24 26  1  0
 19 27  1  0
 27 28  1  6
 27 29  1  0
 29 30  1  0
 30 31  1  0
 31 32  1  6
  7  5  1  0
 31 10  1  0
 31 13  1  0
 27 15  1  0
 24 18  1  0
  1 33  1  0
  1 34  1  0
  1 35  1  0
  2 36  1  6
  3 37  1  0
  3 38  1  0
  4 39  1  0
  4 40  1  0
  5 41  1  1
  8 42  1  0
  8 43  1  0
  8 44  1  0
  9 45  1  0
  9 46  1  0
  9 47  1  0
 10 48  1  1
 11 49  1  0
 11 50  1  0
 12 51  1  0
 12 52  1  0
 14 53  1  0
 14 54  1  0
 14 55  1  0
 15 56  1  6
 16 57  1  0
 16 58  1  0
 17 59  1  0
 19 60  1  1
 20 61  1  0
 20 62  1  0
 21 63  1  0
 21 64  1  0
 22 65  1  1
 23 66  1  0
 25 67  1  0
 25 68  1  0
 25 69  1  0
 26 70  1  0
 26 71  1  0
 26 72  1  0
 28 73  1  0
 28 74  1  0
 28 75  1  0
 29 76  1  0
 29 77  1  0
 30 78  1  0
 30 79  1  0
 32 80  1  0
 32 81  1  0
 32 82  1  0
M  END
>  <meeko>  (8) 
{"is_sidechain": [false], "intermolecular_energy": 2.731, "internal_energy": -0.839}

$$$$
EPH_relaxed_0001_pdb2pqr_Repair_399_r2_0001_out
     RDKit          3D

 82 86  0  0  0  0  0  0  0  0999 V2000
   -0.2360   10.5620   -4.0850 C   0  0  0  0  0  0  0  0  0  0  0  0
    0.9200   10.3470   -3.1050 C   0  0  2  0  0  0  0  0  0  0  0  0
    0.7910    9.0170   -2.3370 C   0  0  0  0  0  0  0  0  0  0  0  0
   -0.6400    8.6990   -1.8940 C   0  0  0  0  0  0  0  0  0  0  0  0
   -0.8570    9.0240   -0.4470 C   0  0  2  0  0  0  0  0  0  0  0  0
   -2.2310    9.0440   -0.0380 O   0  0  0  0  0  0  0  0  0  0  0  0
   -1.5310   10.2960    0.0320 C   0  0  0  0  0  0  0  0  0  0  0  0
   -2.0280   11.3270   -0.9320 C   0  0  0  0  0  0  0  0  0  0  0  0
   -1.2670   10.7620    1.4310 C   0  0  0  0  0  0  0  0  0  0  0  0
    0.9920   11.5110   -2.1230 C   0  0  1  0  0  0  0  0  0  0  0  0
    2.0490   11.2870   -1.0090 C   0  0  0  0  0  0  0  0  0  0  0  0
    2.6580   12.6760   -0.6840 C   0  0  0  0  0  0  0  0  0  0  0  0
    1.7110   13.6870   -1.3730 C   0  0  1  0  0  0  0  0  0  0  0  0
    0.5090   13.8440   -0.3900 C   0  0  0  0  0  0  0  0  0  0  0  0
    2.3340   15.0710   -1.7490 C   0  0  2  0  0  0  0  0  0  0  0  0
    2.8320   15.9080   -0.5580 C   0  0  0  0  0  0  0  0  0  0  0  0
    1.8250   16.8380    0.0340 C   0  0  0  0  0  0  0  0  0  0  0  0
    0.6670   17.2060   -0.5440 C   0  0  0  0  0  0  0  0  0  0  0  0
    0.3160   16.7500   -1.9660 C   0  0  1  0  0  0  0  0  0  0  0  0
   -0.2050   17.9600   -2.7850 C   0  0  0  0  0  0  0  0  0  0  0  0
   -1.3650   18.6750   -2.0980 C   0  0  0  0  0  0  0  0  0  0  0  0
   -0.9600   19.1640   -0.7100 C   0  0  2  0  0  0  0  0  0  0  0  0
    0.0280   20.1900   -0.8540 O   0  0  0  0  0  0  0  0  0  0  0  0
   -0.4090   18.0330    0.2020 C   0  0  0  0  0  0  0  0  0  0  0  0
   -1.5630   17.0800    0.6030 C   0  0  0  0  0  0  0  0  0  0  0  0
    0.0940   18.6840    1.5190 C   0  0  0  0  0  0  0  0  0  0  0  0
    1.4460   15.9360   -2.7320 C   0  0  1  0  0  0  0  0  0  0  0  0
    2.4130   16.9220   -3.4560 C   0  0  0  0  0  0  0  0  0  0  0  0
    0.7770   15.0630   -3.8590 C   0  0  0  0  0  0  0  0  0  0  0  0
    0.2890   13.6590   -3.4530 C   0  0  0  0  0  0  0  0  0  0  0  0
    1.3800   12.8990   -2.6920 C   0  0  2  0  0  0  0  0  0  0  0  0
    2.5950   12.7060   -3.6630 C   0  0  0  0  0  0  0  0  0  0  0  0
   -1.1657   10.7349   -3.5231 H   0  0  0  0  0  0  0  0  0  0  0  0
   -0.0223   11.4358   -4.7181 H   0  0  0  0  0  0  0  0  0  0  0  0
   -0.3507    9.6698   -4.7181 H   0  0  0  0  0  0  0  0  0  0  0  0
    1.8480   10.2990   -3.6936 H   0  0  0  0  0  0  0  0  0  0  0  0
    1.1415    8.2037   -2.9894 H   0  0  0  0  0  0  0  0  0  0  0  0
    1.3967    9.1127   -1.4238 H   0  0  0  0  0  0  0  0  0  0  0  0
   -1.3410    9.2904   -2.5013 H   0  0  0  0  0  0  0  0  0  0  0  0
   -0.8107    7.6212   -2.0329 H   0  0  0  0  0  0  0  0  0  0  0  0
    0.0935    8.5437   -0.1716 H   0  0  0  0  0  0  0  0  0  0  0  0
   -2.4399   12.1814   -0.3750 H   0  0  0  0  0  0  0  0  0  0  0  0
   -1.1957   11.6687   -1.5648 H   0  0  0  0  0  0  0  0  0  0  0  0
   -2.8138   10.8887   -1.5648 H   0  0  0  0  0  0  0  0  0  0  0  0
   -1.6798   10.0334    2.1442 H   0  0  0  0  0  0  0  0  0  0  0  0
   -0.1822   10.8547    1.5880 H   0  0  0  0  0  0  0  0  0  0  0  0
   -1.7451   11.7401    1.5880 H   0  0  0  0  0  0  0  0  0  0  0  0
   -0.0519   11.5252   -1.7765 H   0  0  0  0  0  0  0  0  0  0  0  0
    1.5712   10.8639   -0.1131 H   0  0  0  0  0  0  0  0  0  0  0  0
    2.8266   10.5821   -1.3384 H   0  0  0  0  0  0  0  0  0  0  0  0
    2.6824   12.8449    0.4027 H   0  0  0  0  0  0  0  0  0  0  0  0
    3.6960   12.7695   -1.0358 H   0  0  0  0  0  0  0  0  0  0  0  0
    0.8743   13.7963    0.6465 H   0  0  0  0  0  0  0  0  0  0  0  0
    0.0191   14.8138   -0.5618 H   0  0  0  0  0  0  0  0  0  0  0  0
   -0.2136   13.0326   -0.5618 H   0  0  0  0  0  0  0  0  0  0  0  0
    3.2361   14.7793   -2.3068 H   0  0  0  0  0  0  0  0  0  0  0  0
    3.1596   15.2150    0.2309 H   0  0  0  0  0  0  0  0  0  0  0  0
    3.6397   16.5437   -0.9497 H   0  0  0  0  0  0  0  0  0  0  0  0
    2.0486   17.2575    1.0260 H   0  0  0  0  0  0  0  0  0  0  0  0
   -0.4832   16.0021   -1.8563 H   0  0  0  0  0  0  0  0  0  0  0  0
    0.6195   18.6753   -2.9208 H   0  0  0  0  0  0  0  0  0  0  0  0
   -0.5719   17.5779   -3.7490 H   0  0  0  0  0  0  0  0  0  0  0  0
   -1.6686   19.5378   -2.7091 H   0  0  0  0  0  0  0  0  0  0  0  0
   -2.1996   17.9666   -1.9907 H   0  0  0  0  0  0  0  0  0  0  0  0
   -1.8655   19.5492   -0.2185 H   0  0  0  0  0  0  0  0  0  0  0  0
    0.9010   19.7710   -0.7750 H   0  0  0  0  0  0  0  0  0  0  0  0
   -1.6291   17.0254    1.6997 H   0  0  0  0  0  0  0  0  0  0  0  0
   -2.5115   17.4615    0.1970 H   0  0  0  0  0  0  0  0  0  0  0  0
   -1.3677   16.0765    0.1970 H   0  0  0  0  0  0  0  0  0  0  0  0
   -0.3250   18.1417    2.3794 H   0  0  0  0  0  0  0  0  0  0  0  0
    1.1924   18.6366    1.5553 H   0  0  0  0  0  0  0  0  0  0  0  0
   -0.2290   19.7349    1.5553 H   0  0  0  0  0  0  0  0  0  0  0  0
    2.9775   17.4976   -2.7077 H   0  0  0  0  0  0  0  0  0  0  0  0
    3.1130   16.3531   -4.0855 H   0  0  0  0  0  0  0  0  0  0  0  0
    1.8306   17.6108   -4.0855 H   0  0  0  0  0  0  0  0  0  0  0  0
   -0.0918   15.6200   -4.2396 H   0  0  0  0  0  0  0  0  0  0  0  0
    1.5728   14.8884   -4.5981 H   0  0  0  0  0  0  0  0  0  0  0  0
   -0.5969   13.7582   -2.8086 H   0  0  0  0  0  0  0  0  0  0  0  0
    0.0402   13.0964   -4.3649 H   0  0  0  0  0  0  0  0  0  0  0  0
    3.5138   12.5600   -3.0761 H   0  0  0  0  0  0  0  0  0  0  0  0
    2.4211   11.8242   -4.2972 H   0  0  0  0  0  0  0  0  0  0  0  0
    2.7029   13.5983   -4.2972 H   0  0  0  0  0  0  0  0  0  0  0  0
  1  2  1  0
  2  3  1  0
  3  4  1  0
  4  5  1  0
  5  6  1  0
  6  7  1  0
  7  8  1  0
  7  9  1  0
  2 10  1  0
 10 11  1  0
 11 12  1  0
 12 13  1  0
 13 14  1  1
 13 15  1  0
 15 16  1  0
 16 17  1  0
 17 18  2  0
 18 19  1  0
 19 20  1  0
 20 21  1  0
 21 22  1  0
 22 23  1  0
 22 24  1  0
 24 25  1  0
 24 26  1  0
 19 27  1  0
 27 28  1  6
 27 29  1  0
 29 30  1  0
 30 31  1  0
 31 32  1  6
  7  5  1  0
 31 10  1  0
 31 13  1  0
 27 15  1  0
 24 18  1  0
  1 33  1  0
  1 34  1  0
  1 35  1  0
  2 36  1  6
  3 37  1  0
  3 38  1  0
  4 39  1  0
  4 40  1  0
  5 41  1  1
  8 42  1  0
  8 43  1  0
  8 44  1  0
  9 45  1  0
  9 46  1  0
  9 47  1  0
 10 48  1  1
 11 49  1  0
 11 50  1  0
 12 51  1  0
 12 52  1  0
 14 53  1  0
 14 54  1  0
 14 55  1  0
 15 56  1  6
 16 57  1  0
 16 58  1  0
 17 59  1  0
 19 60  1  1
 20 61  1  0
 20 62  1  0
 21 63  1  0
 21 64  1  0
 22 65  1  1
 23 66  1  0
 25 67  1  0
 25 68  1  0
 25 69  1  0
 26 70  1  0
 26 71  1  0
 26 72  1  0
 28 73  1  0
 28 74  1  0
 28 75  1  0
 29 76  1  0
 29 77  1  0
 30 78  1  0
 30 79  1  0
 32 80  1  0
 32 81  1  0
 32 82  1  0
M  END
>  <meeko>  (9) 
{"is_sidechain": [false], "intermolecular_energy": 2.731, "internal_energy": -0.839}

$$$$
EPH_relaxed_0001_pdb2pqr_Repair_399_r2_0001_out
     RDKit          3D

 82 86  0  0  0  0  0  0  0  0999 V2000
    2.7900   19.1500   -0.9540 C   0  0  0  0  0  0  0  0  0  0  0  0
    2.6110   18.1550   -2.1040 C   0  0  2  0  0  0  0  0  0  0  0  0
    1.2240   18.2780   -2.7670 C   0  0  0  0  0  0  0  0  0  0  0  0
    0.4230   19.4960   -2.2980 C   0  0  0  0  0  0  0  0  0  0  0  0
   -0.8990   19.0990   -1.7150 C   0  0  2  0  0  0  0  0  0  0  0  0
   -1.7780   20.1940   -1.4260 O   0  0  0  0  0  0  0  0  0  0  0  0
   -1.3210   19.4330   -0.2960 C   0  0  0  0  0  0  0  0  0  0  0  0
   -0.4220   20.1940    0.6270 C   0  0  0  0  0  0  0  0  0  0  0  0
   -2.3900   18.6050    0.3460 C   0  0  0  0  0  0  0  0  0  0  0  0
    2.8220   16.7330   -1.5980 C   0  0  1  0  0  0  0  0  0  0  0  0
    3.5890   16.6860   -0.2500 C   0  0  0  0  0  0  0  0  0  0  0  0
    3.0080   15.4950    0.5550 C   0  0  0  0  0  0  0  0  0  0  0  0
    2.1710   14.7010   -0.4750 C   0  0  1  0  0  0  0  0  0  0  0  0
    3.2100   13.8320   -1.2520 C   0  0  0  0  0  0  0  0  0  0  0  0
    1.0090   13.8300    0.1040 C   0  0  2  0  0  0  0  0  0  0  0  0
    1.4500   12.6990    1.0500 C   0  0  0  0  0  0  0  0  0  0  0  0
    1.7280   11.3890    0.3920 C   0  0  0  0  0  0  0  0  0  0  0  0
    1.3580   11.0460   -0.8560 C   0  0  0  0  0  0  0  0  0  0  0  0
    0.4990   11.9880   -1.7090 C   0  0  1  0  0  0  0  0  0  0  0  0
   -0.6530   11.1840   -2.3670 C   0  0  0  0  0  0  0  0  0  0  0  0
   -0.1500    9.9790   -3.1550 C   0  0  0  0  0  0  0  0  0  0  0  0
    0.6510    9.0370   -2.2600 C   0  0  2  0  0  0  0  0  0  0  0  0
   -0.2320    8.4600   -1.2920 O   0  0  0  0  0  0  0  0  0  0  0  0
    1.8340    9.7380   -1.5350 C   0  0  0  0  0  0  0  0  0  0  0  0
    2.9350   10.0970   -2.5640 C   0  0  0  0  0  0  0  0  0  0  0  0
    2.4700    8.7140   -0.5580 C   0  0  0  0  0  0  0  0  0  0  0  0
   -0.0130   13.3070   -0.9850 C   0  0  1  0  0  0  0  0  0  0  0  0
   -1.3510   13.0170   -0.2370 C   0  0  0  0  0  0  0  0  0  0  0  0
   -0.3390   14.3970   -2.0720 C   0  0  0  0  0  0  0  0  0  0  0  0
    0.8230   15.3050   -2.5160 C   0  0  0  0  0  0  0  0  0  0  0  0
    1.5580   15.8870   -1.3050 C   0  0  2  0  0  0  0  0  0  0  0  0
    0.5440   16.7830   -0.5150 C   0  0  0  0  0  0  0  0  0  0  0  0
    2.6950   18.6217    0.0061 H   0  0  0  0  0  0  0  0  0  0  0  0
    3.7858   19.6125   -1.0210 H   0  0  0  0  0  0  0  0  0  0  0  0
    2.0179   19.9306   -1.0210 H   0  0  0  0  0  0  0  0  0  0  0  0
    3.3650   18.3932   -2.8687 H   0  0  0  0  0  0  0  0  0  0  0  0
    1.3648   18.3531   -3.8554 H   0  0  0  0  0  0  0  0  0  0  0  0
    0.6497   17.3853   -2.4786 H   0  0  0  0  0  0  0  0  0  0  0  0
    1.0038   20.0314   -1.5325 H   0  0  0  0  0  0  0  0  0  0  0  0
    0.2339   20.1387   -3.1705 H   0  0  0  0  0  0  0  0  0  0  0  0
   -0.8922   18.1552   -2.2799 H   0  0  0  0  0  0  0  0  0  0  0  0
   -0.6900   19.9672    1.6695 H   0  0  0  0  0  0  0  0  0  0  0  0
    0.6227   19.9016    0.4450 H   0  0  0  0  0  0  0  0  0  0  0  0
   -0.5379   21.2726    0.4450 H   0  0  0  0  0  0  0  0  0  0  0  0
   -2.3002   18.6746    1.4401 H   0  0  0  0  0  0  0  0  0  0  0  0
   -3.3777   18.9760    0.0348 H   0  0  0  0  0  0  0  0  0  0  0  0
   -2.2777   17.5559    0.0348 H   0  0  0  0  0  0  0  0  0  0  0  0
    3.3660   16.3115   -2.4561 H   0  0  0  0  0  0  0  0  0  0  0  0
    4.6632   16.5328   -0.4307 H   0  0  0  0  0  0  0  0  0  0  0  0
    3.4733   17.6299    0.3029 H   0  0  0  0  0  0  0  0  0  0  0  0
    3.8165   14.8705    0.9629 H   0  0  0  0  0  0  0  0  0  0  0  0
    2.4075   15.8256    1.4153 H   0  0  0  0  0  0  0  0  0  0  0  0
    3.8498   13.2969   -0.5349 H   0  0  0  0  0  0  0  0  0  0  0  0
    2.6798   13.1045   -1.8842 H   0  0  0  0  0  0  0  0  0  0  0  0
    3.8323   14.4824   -1.8842 H   0  0  0  0  0  0  0  0  0  0  0  0
    0.4650   14.5501    0.7329 H   0  0  0  0  0  0  0  0  0  0  0  0
    2.3676   13.0232    1.5627 H   0  0  0  0  0  0  0  0  0  0  0  0
    0.6034   12.5240    1.7301 H   0  0  0  0  0  0  0  0  0  0  0  0
    2.2824   10.6399    0.9764 H   0  0  0  0  0  0  0  0  0  0  0  0
    1.1667   12.3882   -2.4862 H   0  0  0  0  0  0  0  0  0  0  0  0
   -1.3320   10.8303   -1.5772 H   0  0  0  0  0  0  0  0  0  0  0  0
   -1.1665   11.8535   -3.0727 H   0  0  0  0  0  0  0  0  0  0  0  0
   -1.0115    9.4353   -3.5701 H   0  0  0  0  0  0  0  0  0  0  0  0
    0.5050   10.3368   -3.9631 H   0  0  0  0  0  0  0  0  0  0  0  0
    1.0931    8.2643   -2.9062 H   0  0  0  0  0  0  0  0  0  0  0  0
   -0.7270    7.7490   -1.7330 H   0  0  0  0  0  0  0  0  0  0  0  0
    3.8505   10.3955   -2.0323 H   0  0  0  0  0  0  0  0  0  0  0  0
    3.1466    9.2213   -3.1952 H   0  0  0  0  0  0  0  0  0  0  0  0
    2.5897   10.9291   -3.1952 H   0  0  0  0  0  0  0  0  0  0  0  0
    2.2758    9.0267    0.4786 H   0  0  0  0  0  0  0  0  0  0  0  0
    2.0296    7.7208   -0.7300 H   0  0  0  0  0  0  0  0  0  0  0  0
    3.5555    8.6685   -0.7300 H   0  0  0  0  0  0  0  0  0  0  0  0
   -1.1795   13.0542    0.8489 H   0  0  0  0  0  0  0  0  0  0  0  0
   -2.0987   13.7739   -0.5163 H   0  0  0  0  0  0  0  0  0  0  0  0
   -1.7182   12.0184   -0.5163 H   0  0  0  0  0  0  0  0  0  0  0  0
   -0.7131   13.8748   -2.9650 H   0  0  0  0  0  0  0  0  0  0  0  0
   -1.0647   15.0716   -1.5942 H   0  0  0  0  0  0  0  0  0  0  0  0
    1.5308   14.7154   -3.1172 H   0  0  0  0  0  0  0  0  0  0  0  0
    0.4122   16.1354   -3.1091 H   0  0  0  0  0  0  0  0  0  0  0  0
    0.6985   16.6464    0.5655 H   0  0  0  0  0  0  0  0  0  0  0  0
    0.7055   17.8388   -0.7779 H   0  0  0  0  0  0  0  0  0  0  0  0
   -0.4839   16.4928   -0.7779 H   0  0  0  0  0  0  0  0  0  0  0  0
  1  2  1  0
  2  3  1  0
  3  4  1  0
  4  5  1  0
  5  6  1  0
  6  7  1  0
  7  8  1  0
  7  9  1  0
  2 10  1  0
 10 11  1  0
 11 12  1  0
 12 13  1  0
 13 14  1  6
 13 15  1  0
 15 16  1  0
 16 17  1  0
 17 18  2  0
 18 19  1  0
 19 20  1  0
 20 21  1  0
 21 22  1  0
 22 23  1  0
 22 24  1  0
 24 25  1  0
 24 26  1  0
 19 27  1  0
 27 28  1  1
 27 29  1  0
 29 30  1  0
 30 31  1  0
 31 32  1  1
  7  5  1  0
 31 10  1  0
 31 13  1  0
 27 15  1  0
 24 18  1  0
  1 33  1  0
  1 34  1  0
  1 35  1  0
  2 36  1  6
  3 37  1  0
  3 38  1  0
  4 39  1  0
  4 40  1  0
  5 41  1  6
  8 42  1  0
  8 43  1  0
  8 44  1  0
  9 45  1  0
  9 46  1  0
  9 47  1  0
 10 48  1  6
 11 49  1  0
 11 50  1  0
 12 51  1  0
 12 52  1  0
 14 53  1  0
 14 54  1  0
 14 55  1  0
 15 56  1  1
 16 57  1  0
 16 58  1  0
 17 59  1  0
 19 60  1  6
 20 61  1  0
 20 62  1  0
 21 63  1  0
 21 64  1  0
 22 65  1  6
 23 66  1  0
 25 67  1  0
 25 68  1  0
 25 69  1  0
 26 70  1  0
 26 71  1  0
 26 72  1  0
 28 73  1  0
 28 74  1  0
 28 75  1  0
 29 76  1  0
 29 77  1  0
 30 78  1  0
 30 79  1  0
 32 80  1  0
 32 81  1  0
 32 82  1  0
M  END
>  <meeko>  (10) 
{"is_sidechain": [false], "intermolecular_energy": 2.731, "internal_energy": -0.839}

$$$$
EPH_relaxed_0001_pdb2pqr_Repair_399_r2_0001_out
     RDKit          3D

 82 86  0  0  0  0  0  0  0  0999 V2000
   -3.9850    7.3380   -3.4780 C   0  0  0  0  0  0  0  0  0  0  0  0
   -3.6970    7.2800   -1.9750 C   0  0  2  0  0  0  0  0  0  0  0  0
   -4.9440    6.8810   -1.1600 C   0  0  0  0  0  0  0  0  0  0  0  0
   -6.1200    6.4150   -2.0220 C   0  0  0  0  0  0  0  0  0  0  0  0
   -7.4250    6.9520   -1.5170 C   0  0  2  0  0  0  0  0  0  0  0  0
   -8.3790    5.9510   -1.1410 O   0  0  0  0  0  0  0  0  0  0  0  0
   -8.7400    6.7840   -2.2540 C   0  0  0  0  0  0  0  0  0  0  0  0
   -8.8160    6.0560   -3.5590 C   0  0  0  0  0  0  0  0  0  0  0  0
   -9.8540    7.7390   -1.9560 C   0  0  0  0  0  0  0  0  0  0  0  0
   -3.1710    8.6270   -1.4950 C   0  0  1  0  0  0  0  0  0  0  0  0
   -3.8100    9.0750   -0.1530 C   0  0  0  0  0  0  0  0  0  0  0  0
   -2.7100    9.8320    0.6350 C   0  0  0  0  0  0  0  0  0  0  0  0
   -1.5910   10.0850   -0.4020 C   0  0  1  0  0  0  0  0  0  0  0  0
   -2.0600   11.3410   -1.2010 C   0  0  0  0  0  0  0  0  0  0  0  0
   -0.1480   10.2710    0.1710 C   0  0  2  0  0  0  0  0  0  0  0  0
    0.0360   11.4880    1.0950 C   0  0  0  0  0  0  0  0  0  0  0  0
    0.4460   12.7500    0.4130 C   0  0  0  0  0  0  0  0  0  0  0  0
    0.9340   12.8400   -0.8390 C   0  0  0  0  0  0  0  0  0  0  0  0
    1.2080   11.5800   -1.6700 C   0  0  1  0  0  0  0  0  0  0  0  0
    2.6060   11.6910   -2.3330 C   0  0  0  0  0  0  0  0  0  0  0  0
    2.7690   12.9720   -3.1450 C   0  0  0  0  0  0  0  0  0  0  0  0
    2.5460   14.2040   -2.2710 C   0  0  2  0  0  0  0  0  0  0  0  0
    3.6010   14.2820   -1.3070 O   0  0  0  0  0  0  0  0  0  0  0  0
    1.1730   14.1990   -1.5430 C   0  0  0  0  0  0  0  0  0  0  0  0
    0.0370   14.4180   -2.5730 C   0  0  0  0  0  0  0  0  0  0  0  0
    1.1340   15.4220   -0.5880 C   0  0  0  0  0  0  0  0  0  0  0  0
    0.9970   10.1950   -0.9190 C   0  0  1  0  0  0  0  0  0  0  0  0
    2.3020    9.7930   -0.1670 C   0  0  0  0  0  0  0  0  0  0  0  0
    0.7330    9.0680   -1.9860 C   0  0  0  0  0  0  0  0  0  0  0  0
   -0.7280    8.8520   -2.4230 C   0  0  0  0  0  0  0  0  0  0  0  0
   -1.6520    8.7360   -1.2070 C   0  0  2  0  0  0  0  0  0  0  0  0
   -1.2180    7.4680   -0.3950 C   0  0  0  0  0  0  0  0  0  0  0  0
   -5.0518    7.5528   -3.6389 H   0  0  0  0  0  0  0  0  0  0  0  0
   -3.3777    8.1319   -3.9373 H   0  0  0  0  0  0  0  0  0  0  0  0
   -3.7324    6.3709   -3.9373 H   0  0  0  0  0  0  0  0  0  0  0  0
   -2.9345    6.5037   -1.8136 H   0  0  0  0  0  0  0  0  0  0  0  0
   -4.6667    6.0625   -0.4794 H   0  0  0  0  0  0  0  0  0  0  0  0
   -5.2771    7.7805   -0.6215 H   0  0  0  0  0  0  0  0  0  0  0  0
   -5.9661    6.7643   -3.0537 H   0  0  0  0  0  0  0  0  0  0  0  0
   -6.1619    5.3166   -1.9796 H   0  0  0  0  0  0  0  0  0  0  0  0
   -6.9243    7.8350   -1.0932 H   0  0  0  0  0  0  0  0  0  0  0  0
   -8.9285    4.9780   -3.3715 H   0  0  0  0  0  0  0  0  0  0  0  0
   -9.6810    6.4207   -4.1325 H   0  0  0  0  0  0  0  0  0  0  0  0
   -7.8944    6.2342   -4.1325 H   0  0  0  0  0  0  0  0  0  0  0  0
   -9.9701    7.8385   -0.8667 H   0  0  0  0  0  0  0  0  0  0  0  0
   -9.6206    8.7219   -2.3912 H   0  0  0  0  0  0  0  0  0  0  0  0
  -10.7897    7.3582   -2.3912 H   0  0  0  0  0  0  0  0  0  0  0  0
   -3.4348    9.2477   -2.3640 H   0  0  0  0  0  0  0  0  0  0  0  0
   -4.6650    9.7402   -0.3439 H   0  0  0  0  0  0  0  0  0  0  0  0
   -4.1798    8.2098    0.4168 H   0  0  0  0  0  0  0  0  0  0  0  0
   -3.0984   10.7835    1.0271 H   0  0  0  0  0  0  0  0  0  0  0  0
   -2.3517    9.2609    1.5042 H   0  0  0  0  0  0  0  0  0  0  0  0
   -2.3559   12.1335   -0.4978 H   0  0  0  0  0  0  0  0  0  0  0  0
   -1.2359   11.7016   -1.8342 H   0  0  0  0  0  0  0  0  0  0  0  0
   -2.9187   11.0732   -1.8342 H   0  0  0  0  0  0  0  0  0  0  0  0
   -0.0349    9.3869    0.8156 H   0  0  0  0  0  0  0  0  0  0  0  0
   -0.9197   11.6735    1.6071 H   0  0  0  0  0  0  0  0  0  0  0  0
    0.8590   11.2299    1.7777 H   0  0  0  0  0  0  0  0  0  0  0  0
    0.3408   13.6862    0.9808 H   0  0  0  0  0  0  0  0  0  0  0  0
    0.4284   11.5514   -2.4455 H   0  0  0  0  0  0  0  0  0  0  0  0
    3.3725   11.6737   -1.5443 H   0  0  0  0  0  0  0  0  0  0  0  0
    2.7160   10.8420   -3.0237 H   0  0  0  0  0  0  0  0  0  0  0  0
    3.7859   13.0064   -3.5630 H   0  0  0  0  0  0  0  0  0  0  0  0
    2.0214   12.9738   -3.9519 H   0  0  0  0  0  0  0  0  0  0  0  0
    2.5464   15.0824   -2.9332 H   0  0  0  0  0  0  0  0  0  0  0  0
    3.6100   13.4450   -0.8120 H   0  0  0  0  0  0  0  0  0  0  0  0
   -0.9091   14.6004   -2.0422 H   0  0  0  0  0  0  0  0  0  0  0  0
    0.2767   15.2865   -3.2041 H   0  0  0  0  0  0  0  0  0  0  0  0
   -0.0634   13.5227   -3.2041 H   0  0  0  0  0  0  0  0  0  0  0  0
    1.1451   15.0731    0.4552 H   0  0  0  0  0  0  0  0  0  0  0  0
    2.0123   16.0584   -0.7712 H   0  0  0  0  0  0  0  0  0  0  0  0
    0.2169   16.0012   -0.7712 H   0  0  0  0  0  0  0  0  0  0  0  0
    2.1308    9.8457    0.9183 H   0  0  0  0  0  0  0  0  0  0  0  0
    2.5836    8.7665   -0.4443 H   0  0  0  0  0  0  0  0  0  0  0  0
    3.1124   10.4831   -0.4443 H   0  0  0  0  0  0  0  0  0  0  0  0
    1.3154    9.3182   -2.8850 H   0  0  0  0  0  0  0  0  0  0  0  0
    1.0266    8.1302   -1.4918 H   0  0  0  0  0  0  0  0  0  0  0  0
   -1.0492    9.7048   -3.0391 H   0  0  0  0  0  0  0  0  0  0  0  0
   -0.7873    7.9169   -2.9993 H   0  0  0  0  0  0  0  0  0  0  0  0
   -1.2905    7.6797    0.6820 H   0  0  0  0  0  0  0  0  0  0  0  0
   -1.8792    6.6262   -0.6485 H   0  0  0  0  0  0  0  0  0  0  0  0
   -0.1797    7.2079   -0.6485 H   0  0  0  0  0  0  0  0  0  0  0  0
  1  2  1  0
  2  3  1  0
  3  4  1  0
  4  5  1  0
  5  6  1  0
  6  7  1  0
  7  8  1  0
  7  9  1  0
  2 10  1  0
 10 11  1  0
 11 12  1  0
 12 13  1  0
 13 14  1  6
 13 15  1  0
 15 16  1  0
 16 17  1  0
 17 18  2  0
 18 19  1  0
 19 20  1  0
 20 21  1  0
 21 22  1  0
 22 23  1  0
 22 24  1  0
 24 25  1  0
 24 26  1  0
 19 27  1  0
 27 28  1  1
 27 29  1  0
 29 30  1  0
 30 31  1  0
 31 32  1  1
  7  5  1  0
 31 10  1  0
 31 13  1  0
 27 15  1  0
 24 18  1  0
  1 33  1  0
  1 34  1  0
  1 35  1  0
  2 36  1  6
  3 37  1  0
  3 38  1  0
  4 39  1  0
  4 40  1  0
  5 41  1  1
  8 42  1  0
  8 43  1  0
  8 44  1  0
  9 45  1  0
  9 46  1  0
  9 47  1  0
 10 48  1  6
 11 49  1  0
 11 50  1  0
 12 51  1  0
 12 52  1  0
 14 53  1  0
 14 54  1  0
 14 55  1  0
 15 56  1  1
 16 57  1  0
 16 58  1  0
 17 59  1  0
 19 60  1  6
 20 61  1  0
 20 62  1  0
 21 63  1  0
 21 64  1  0
 22 65  1  6
 23 66  1  0
 25 67  1  0
 25 68  1  0
 25 69  1  0
 26 70  1  0
 26 71  1  0
 26 72  1  0
 28 73  1  0
 28 74  1  0
 28 75  1  0
 29 76  1  0
 29 77  1  0
 30 78  1  0
 30 79  1  0
 32 80  1  0
 32 81  1  0
 32 82  1  0
M  END
>  <meeko>  (11) 
{"is_sidechain": [false], "intermolecular_energy": 2.731, "internal_energy": -0.839}

$$$$
EPH_relaxed_0001_pdb2pqr_Repair_399_r2_0001_out
     RDKit          3D

 82 86  0  0  0  0  0  0  0  0999 V2000
   -0.8470   16.3440   -5.8420 C   0  0  0  0  0  0  0  0  0  0  0  0
    0.2430   15.6400   -6.6550 C   0  0  2  0  0  0  0  0  0  0  0  0
   -0.1590   15.4600   -8.1320 C   0  0  0  0  0  0  0  0  0  0  0  0
    0.4640   16.4960   -9.0710 C   0  0  0  0  0  0  0  0  0  0  0  0
    1.8630   16.1220   -9.4590 C   0  0  2  0  0  0  0  0  0  0  0  0
    2.3130   16.6910  -10.6960 O   0  0  0  0  0  0  0  0  0  0  0  0
    2.1940   15.2590  -10.6630 C   0  0  0  0  0  0  0  0  0  0  0  0
    1.1210   14.7170  -11.5540 C   0  0  0  0  0  0  0  0  0  0  0  0
    3.5090   14.5450  -10.6900 C   0  0  0  0  0  0  0  0  0  0  0  0
    0.5620   14.2860   -6.0320 C   0  0  1  0  0  0  0  0  0  0  0  0
    1.8300   13.6310   -6.6440 C   0  0  0  0  0  0  0  0  0  0  0  0
    2.5350   12.8650   -5.4960 C   0  0  0  0  0  0  0  0  0  0  0  0
    1.4920   12.8240   -4.3550 C   0  0  1  0  0  0  0  0  0  0  0  0
    0.5380   11.6450   -4.7250 C   0  0  0  0  0  0  0  0  0  0  0  0
    2.0590   12.6740   -2.9060 C   0  0  2  0  0  0  0  0  0  0  0  0
    2.8300   11.3700   -2.6380 C   0  0  0  0  0  0  0  0  0  0  0  0
    2.0040   10.2340   -2.1310 C   0  0  0  0  0  0  0  0  0  0  0  0
    0.7590   10.3350   -1.6300 C   0  0  0  0  0  0  0  0  0  0  0  0
    0.0920   11.7050   -1.4450 C   0  0  1  0  0  0  0  0  0  0  0  0
   -0.5580   11.7790   -0.0390 C   0  0  0  0  0  0  0  0  0  0  0  0
   -1.5190   10.6230    0.2230 C   0  0  0  0  0  0  0  0  0  0  0  0
   -0.8060    9.2800    0.0870 C   0  0  2  0  0  0  0  0  0  0  0  0
    0.1570    9.1610    1.1390 O   0  0  0  0  0  0  0  0  0  0  0  0
   -0.1040    9.0950   -1.2870 C   0  0  0  0  0  0  0  0  0  0  0  0
   -1.1690    8.9220   -2.3970 C   0  0  0  0  0  0  0  0  0  0  0  0
    0.6940    7.7640   -1.2400 C   0  0  0  0  0  0  0  0  0  0  0  0
    1.0040   12.9670   -1.7640 C   0  0  1  0  0  0  0  0  0  0  0  0
    1.8190   13.3680   -0.4960 C   0  0  0  0  0  0  0  0  0  0  0  0
    0.0790   14.1960   -2.1040 C   0  0  0  0  0  0  0  0  0  0  0  0
   -0.3490   14.3560   -3.5750 C   0  0  0  0  0  0  0  0  0  0  0  0
    0.8580   14.2540   -4.5120 C   0  0  2  0  0  0  0  0  0  0  0  0
    1.8250   15.4400   -4.1780 C   0  0  0  0  0  0  0  0  0  0  0  0
   -0.6455   16.2138   -4.7685 H   0  0  0  0  0  0  0  0  0  0  0  0
   -0.8520   17.4164   -6.0867 H   0  0  0  0  0  0  0  0  0  0  0  0
   -1.8266   15.9075   -6.0867 H   0  0  0  0  0  0  0  0  0  0  0  0
    1.1379   16.2793   -6.6332 H   0  0  0  0  0  0  0  0  0  0  0  0
    0.1596   14.4592   -8.4589 H   0  0  0  0  0  0  0  0  0  0  0  0
   -1.2497   15.5924   -8.1863 H   0  0  0  0  0  0  0  0  0  0  0  0
   -0.1509   16.5684   -9.9802 H   0  0  0  0  0  0  0  0  0  0  0  0
    0.5007   17.4599   -8.5423 H   0  0  0  0  0  0  0  0  0  0  0  0
    2.1663   16.0633   -8.4033 H   0  0  0  0  0  0  0  0  0  0  0  0
    0.3069   14.3058  -10.9392 H   0  0  0  0  0  0  0  0  0  0  0  0
    0.7287   15.5251  -12.1889 H   0  0  0  0  0  0  0  0  0  0  0  0
    1.5386   13.9217  -12.1889 H   0  0  0  0  0  0  0  0  0  0  0  0
    3.8476   14.3611   -9.6597 H   0  0  0  0  0  0  0  0  0  0  0  0
    3.3944   13.5852  -11.2151 H   0  0  0  0  0  0  0  0  0  0  0  0
    4.2515   15.1638  -11.2151 H   0  0  0  0  0  0  0  0  0  0  0  0
   -0.3806   13.7596   -6.2428 H   0  0  0  0  0  0  0  0  0  0  0  0
    1.5467   12.9341   -7.4466 H   0  0  0  0  0  0  0  0  0  0  0  0
    2.4959   14.3903   -7.0799 H   0  0  0  0  0  0  0  0  0  0  0  0
    2.8014   11.8466   -5.8151 H   0  0  0  0  0  0  0  0  0  0  0  0
    3.4728   13.3492   -5.1862 H   0  0  0  0  0  0  0  0  0  0  0  0
    0.1593   11.1770   -3.8044 H   0  0  0  0  0  0  0  0  0  0  0  0
   -0.3070   12.0286   -5.3157 H   0  0  0  0  0  0  0  0  0  0  0  0
    1.0894   10.8987   -5.3157 H   0  0  0  0  0  0  0  0  0  0  0  0
    2.8087   13.4778   -2.8621 H   0  0  0  0  0  0  0  0  0  0  0  0
    3.3012   11.0538   -3.5803 H   0  0  0  0  0  0  0  0  0  0  0  0
    3.5518   11.6013   -1.8408 H   0  0  0  0  0  0  0  0  0  0  0  0
    2.4509    9.2297   -2.1703 H   0  0  0  0  0  0  0  0  0  0  0  0
   -0.6869   11.7722   -2.2189 H   0  0  0  0  0  0  0  0  0  0  0  0
    0.2384   11.7543    0.7194 H   0  0  0  0  0  0  0  0  0  0  0  0
   -1.1371   12.7128    0.0124 H   0  0  0  0  0  0  0  0  0  0  0  0
   -1.9231   10.7146    1.2420 H   0  0  0  0  0  0  0  0  0  0  0  0
   -2.3310   10.6663   -0.5178 H   0  0  0  0  0  0  0  0  0  0  0  0
   -1.5706    8.4922    0.1568 H   0  0  0  0  0  0  0  0  0  0  0  0
   -0.2470    9.5160    1.9490 H   0  0  0  0  0  0  0  0  0  0  0  0
   -2.1553    8.7618   -1.9371 H   0  0  0  0  0  0  0  0  0  0  0  0
   -1.1983    9.8272   -3.0214 H   0  0  0  0  0  0  0  0  0  0  0  0
   -0.9102    8.0541   -3.0214 H   0  0  0  0  0  0  0  0  0  0  0  0
    0.8663    7.4766   -0.1923 H   0  0  0  0  0  0  0  0  0  0  0  0
    0.1202    6.9744   -1.7472 H   0  0  0  0  0  0  0  0  0  0  0  0
    1.6608    7.8980   -1.7472 H   0  0  0  0  0  0  0  0  0  0  0  0
    1.2541   13.0901    0.4060 H   0  0  0  0  0  0  0  0  0  0  0  0
    2.7853   12.8425   -0.4999 H   0  0  0  0  0  0  0  0  0  0  0  0
    1.9923   14.4543   -0.4999 H   0  0  0  0  0  0  0  0  0  0  0  0
   -0.8352   14.1019   -1.4996 H   0  0  0  0  0  0  0  0  0  0  0  0
    0.6879   15.0850   -1.8826 H   0  0  0  0  0  0  0  0  0  0  0  0
   -1.0690   13.5639   -3.8283 H   0  0  0  0  0  0  0  0  0  0  0  0
   -0.8074   15.3480   -3.7007 H   0  0  0  0  0  0  0  0  0  0  0  0
    1.9116   15.5462   -3.0866 H   0  0  0  0  0  0  0  0  0  0  0  0
    2.8173   15.2358   -4.6064 H   0  0  0  0  0  0  0  0  0  0  0  0
    1.4252   16.3709   -4.6064 H   0  0  0  0  0  0  0  0  0  0  0  0
  1  2  1  0
  2  3  1  0
  3  4  1  0
  4  5  1  0
  5  6  1  0
  6  7  1  0
  7  8  1  0
  7  9  1  0
  2 10  1  0
 10 11  1  0
 11 12  1  0
 12 13  1  0
 13 14  1  6
 13 15  1  0
 15 16  1  0
 16 17  1  0
 17 18  2  0
 18 19  1  0
 19 20  1  0
 20 21  1  0
 21 22  1  0
 22 23  1  0
 22 24  1  0
 24 25  1  0
 24 26  1  0
 19 27  1  0
 27 28  1  1
 27 29  1  0
 29 30  1  0
 30 31  1  0
 31 32  1  1
  7  5  1  0
 31 10  1  0
 31 13  1  0
 27 15  1  0
 24 18  1  0
  1 33  1  0
  1 34  1  0
  1 35  1  0
  2 36  1  6
  3 37  1  0
  3 38  1  0
  4 39  1  0
  4 40  1  0
  5 41  1  1
  8 42  1  0
  8 43  1  0
  8 44  1  0
  9 45  1  0
  9 46  1  0
  9 47  1  0
 10 48  1  1
 11 49  1  0
 11 50  1  0
 12 51  1  0
 12 52  1  0
 14 53  1  0
 14 54  1  0
 14 55  1  0
 15 56  1  6
 16 57  1  0
 16 58  1  0
 17 59  1  0
 19 60  1  6
 20 61  1  0
 20 62  1  0
 21 63  1  0
 21 64  1  0
 22 65  1  1
 23 66  1  0
 25 67  1  0
 25 68  1  0
 25 69  1  0
 26 70  1  0
 26 71  1  0
 26 72  1  0
 28 73  1  0
 28 74  1  0
 28 75  1  0
 29 76  1  0
 29 77  1  0
 30 78  1  0
 30 79  1  0
 32 80  1  0
 32 81  1  0
 32 82  1  0
M  END
>  <meeko>  (12) 
{"is_sidechain": [false], "intermolecular_energy": 2.731, "internal_energy": -0.839}

$$$$
EPH_relaxed_0001_pdb2pqr_Repair_399_r2_0001_out
     RDKit          3D

 82 86  0  0  0  0  0  0  0  0999 V2000
    0.1230    9.3130   -2.2100 C   0  0  0  0  0  0  0  0  0  0  0  0
    1.1650   10.3280   -2.6890 C   0  0  2  0  0  0  0  0  0  0  0  0
    2.5760    9.7120   -2.7830 C   0  0  0  0  0  0  0  0  0  0  0  0
    3.4610   10.3620   -3.8490 C   0  0  0  0  0  0  0  0  0  0  0  0
    4.8420   10.6330   -3.3330 C   0  0  2  0  0  0  0  0  0  0  0  0
    5.3860   11.9030   -3.7160 O   0  0  0  0  0  0  0  0  0  0  0  0
    6.0630   10.7430   -4.2280 C   0  0  0  0  0  0  0  0  0  0  0  0
    5.9590   10.5830   -5.7120 C   0  0  0  0  0  0  0  0  0  0  0  0
    7.4140   10.5190   -3.6250 C   0  0  0  0  0  0  0  0  0  0  0  0
    1.1840   11.5330   -1.7560 C   0  0  1  0  0  0  0  0  0  0  0  0
    2.2600   11.4120   -0.6450 C   0  0  0  0  0  0  0  0  0  0  0  0
    2.7970   12.8430   -0.3840 C   0  0  0  0  0  0  0  0  0  0  0  0
    1.7920   13.7730   -1.1030 C   0  0  1  0  0  0  0  0  0  0  0  0
    0.5910   13.9070   -0.1140 C   0  0  0  0  0  0  0  0  0  0  0  0
    2.3370   15.1720   -1.5420 C   0  0  2  0  0  0  0  0  0  0  0  0
    2.8000   16.0820   -0.3910 C   0  0  0  0  0  0  0  0  0  0  0  0
    1.7500   16.9810    0.1730 C   0  0  0  0  0  0  0  0  0  0  0  0
    0.5680   17.2630   -0.4060 C   0  0  0  0  0  0  0  0  0  0  0  0
    0.2290   16.7310   -1.8050 C   0  0  1  0  0  0  0  0  0  0  0  0
   -0.3630   17.8770   -2.6660 C   0  0  0  0  0  0  0  0  0  0  0  0
   -1.5530   18.5570   -1.9960 C   0  0  0  0  0  0  0  0  0  0  0  0
   -1.1620   19.1240   -0.6340 C   0  0  2  0  0  0  0  0  0  0  0  0
   -0.2320   20.1940   -0.8300 O   0  0  0  0  0  0  0  0  0  0  0  0
   -0.5440   18.0620    0.3170 C   0  0  0  0  0  0  0  0  0  0  0  0
   -1.6410   17.0670    0.7700 C   0  0  0  0  0  0  0  0  0  0  0  0
   -0.0640   18.7920    1.6010 C   0  0  0  0  0  0  0  0  0  0  0  0
    1.3950   15.9470   -2.5490 C   0  0  1  0  0  0  0  0  0  0  0  0
    2.3020   16.9520   -3.3230 C   0  0  0  0  0  0  0  0  0  0  0  0
    0.7640   14.9940   -3.6320 C   0  0  0  0  0  0  0  0  0  0  0  0
    0.3550   13.5850   -3.1640 C   0  0  0  0  0  0  0  0  0  0  0  0
    1.4920   12.9150   -2.3850 C   0  0  2  0  0  0  0  0  0  0  0  0
    2.7060   12.7470   -3.3610 C   0  0  0  0  0  0  0  0  0  0  0  0
    0.1059    9.2963   -1.1103 H   0  0  0  0  0  0  0  0  0  0  0  0
   -0.8693    9.6002   -2.5878 H   0  0  0  0  0  0  0  0  0  0  0  0
    0.3840    8.3135   -2.5878 H   0  0  0  0  0  0  0  0  0  0  0  0
    0.8757   10.6461   -3.7015 H   0  0  0  0  0  0  0  0  0  0  0  0
    3.0696    9.8239   -1.8064 H   0  0  0  0  0  0  0  0  0  0  0  0
    2.4482    8.6579   -3.0702 H   0  0  0  0  0  0  0  0  0  0  0  0
    3.5300    9.6872   -4.7150 H   0  0  0  0  0  0  0  0  0  0  0  0
    3.0064   11.3225   -4.1331 H   0  0  0  0  0  0  0  0  0  0  0  0
    4.6435   10.0450   -2.4248 H   0  0  0  0  0  0  0  0  0  0  0  0
    5.3729    9.6813   -5.9434 H   0  0  0  0  0  0  0  0  0  0  0  0
    5.4608   11.4645   -6.1418 H   0  0  0  0  0  0  0  0  0  0  0  0
    6.9669   10.4855   -6.1418 H   0  0  0  0  0  0  0  0  0  0  0  0
    7.3327   10.5325   -2.5281 H   0  0  0  0  0  0  0  0  0  0  0  0
    7.8043    9.5439   -3.9518 H   0  0  0  0  0  0  0  0  0  0  0  0
    8.0981   11.3160   -3.9518 H   0  0  0  0  0  0  0  0  0  0  0  0
    0.1439   11.5054   -1.3990 H   0  0  0  0  0  0  0  0  0  0  0  0
    1.8126   11.0022    0.2725 H   0  0  0  0  0  0  0  0  0  0  0  0
    3.0712   10.7360   -0.9530 H   0  0  0  0  0  0  0  0  0  0  0  0
    2.8220   13.0578    0.6945 H   0  0  0  0  0  0  0  0  0  0  0  0
    3.8254   12.9764   -0.7509 H   0  0  0  0  0  0  0  0  0  0  0  0
    0.9618   13.8656    0.9208 H   0  0  0  0  0  0  0  0  0  0  0  0
    0.0822   14.8675   -0.2831 H   0  0  0  0  0  0  0  0  0  0  0  0
   -0.1170   13.0823   -0.2831 H   0  0  0  0  0  0  0  0  0  0  0  0
    3.2485   14.9068   -2.0978 H   0  0  0  0  0  0  0  0  0  0  0  0
    3.1703   15.4401    0.4219 H   0  0  0  0  0  0  0  0  0  0  0  0
    3.5699   16.7426   -0.8162 H   0  0  0  0  0  0  0  0  0  0  0  0
    1.9601   17.4530    1.1441 H   0  0  0  0  0  0  0  0  0  0  0  0
   -0.5285   15.9471   -1.6574 H   0  0  0  0  0  0  0  0  0  0  0  0
    0.4210   18.6288   -2.8396 H   0  0  0  0  0  0  0  0  0  0  0  0
   -0.7177   17.4368   -3.6096 H   0  0  0  0  0  0  0  0  0  0  0  0
   -1.9080   19.3763   -2.6385 H   0  0  0  0  0  0  0  0  0  0  0  0
   -2.3475   17.8103   -1.8503 H   0  0  0  0  0  0  0  0  0  0  0  0
   -2.0822   19.4814   -0.1488 H   0  0  0  0  0  0  0  0  0  0  0  0
   -0.3760   20.5490   -1.7240 H   0  0  0  0  0  0  0  0  0  0  0  0
   -1.6760   17.0352    1.8690 H   0  0  0  0  0  0  0  0  0  0  0  0
   -2.6165   17.3948    0.3814 H   0  0  0  0  0  0  0  0  0  0  0  0
   -1.4097   16.0643    0.3814 H   0  0  0  0  0  0  0  0  0  0  0  0
   -0.4218   18.2479    2.4876 H   0  0  0  0  0  0  0  0  0  0  0  0
    1.0353   18.8291    1.6124 H   0  0  0  0  0  0  0  0  0  0  0  0
   -0.4656   19.8160    1.6124 H   0  0  0  0  0  0  0  0  0  0  0  0
    2.8601   17.5704   -2.6047 H   0  0  0  0  0  0  0  0  0  0  0  0
    3.0096   16.3955   -3.9552 H   0  0  0  0  0  0  0  0  0  0  0  0
    1.6761   17.5990   -3.9552 H   0  0  0  0  0  0  0  0  0  0  0  0
   -0.1364   15.4881   -4.0259 H   0  0  0  0  0  0  0  0  0  0  0  0
    1.5617   14.8311   -4.3717 H   0  0  0  0  0  0  0  0  0  0  0  0
   -0.5289   13.6640   -2.5141 H   0  0  0  0  0  0  0  0  0  0  0  0
    0.1279   12.9731   -4.0495 H   0  0  0  0  0  0  0  0  0  0  0  0
    3.6301   12.6191   -2.7781 H   0  0  0  0  0  0  0  0  0  0  0  0
    2.5470   11.8623   -3.9951 H   0  0  0  0  0  0  0  0  0  0  0  0
    2.7933   13.6416   -3.9951 H   0  0  0  0  0  0  0  0  0  0  0  0
  1  2  1  0
  2  3  1  0
  3  4  1  0
  4  5  1  0
  5  6  1  0
  6  7  1  0
  7  8  1  0
  7  9  1  0
  2 10  1  0
 10 11  1  0
 11 12  1  0
 12 13  1  0
 13 14  1  1
 13 15  1  0
 15 16  1  0
 16 17  1  0
 17 18  2  0
 18 19  1  0
 19 20  1  0
 20 21  1  0
 21 22  1  0
 22 23  1  0
 22 24  1  0
 24 25  1  0
 24 26  1  0
 19 27  1  0
 27 28  1  6
 27 29  1  0
 29 30  1  0
 30 31  1  0
 31 32  1  6
  7  5  1  0
 31 10  1  0
 31 13  1  0
 27 15  1  0
 24 18  1  0
  1 33  1  0
  1 34  1  0
  1 35  1  0
  2 36  1  6
  3 37  1  0
  3 38  1  0
  4 39  1  0
  4 40  1  0
  5 41  1  1
  8 42  1  0
  8 43  1  0
  8 44  1  0
  9 45  1  0
  9 46  1  0
  9 47  1  0
 10 48  1  1
 11 49  1  0
 11 50  1  0
 12 51  1  0
 12 52  1  0
 14 53  1  0
 14 54  1  0
 14 55  1  0
 15 56  1  6
 16 57  1  0
 16 58  1  0
 17 59  1  0
 19 60  1  1
 20 61  1  0
 20 62  1  0
 21 63  1  0
 21 64  1  0
 22 65  1  1
 23 66  1  0
 25 67  1  0
 25 68  1  0
 25 69  1  0
 26 70  1  0
 26 71  1  0
 26 72  1  0
 28 73  1  0
 28 74  1  0
 28 75  1  0
 29 76  1  0
 29 77  1  0
 30 78  1  0
 30 79  1  0
 32 80  1  0
 32 81  1  0
 32 82  1  0
M  END
>  <meeko>  (13) 
{"is_sidechain": [false], "intermolecular_energy": 2.731, "internal_energy": -0.839}

$$$$
EPH_relaxed_0001_pdb2pqr_Repair_399_r2_0001_out
     RDKit          3D

 82 86  0  0  0  0  0  0  0  0999 V2000
   -2.2160    7.8070   -2.1800 C   0  0  0  0  0  0  0  0  0  0  0  0
   -2.2800    8.4450   -0.7900 C   0  0  2  0  0  0  0  0  0  0  0  0
   -3.7110    8.4450   -0.2160 C   0  0  0  0  0  0  0  0  0  0  0  0
   -4.7950    8.1880   -1.2660 C   0  0  0  0  0  0  0  0  0  0  0  0
   -5.8700    7.2840   -0.7430 C   0  0  2  0  0  0  0  0  0  0  0  0
   -6.3180    6.2870   -1.6710 O   0  0  0  0  0  0  0  0  0  0  0  0
   -7.2890    7.2720   -1.2820 C   0  0  0  0  0  0  0  0  0  0  0  0
   -7.7090    8.1840   -2.3920 C   0  0  0  0  0  0  0  0  0  0  0  0
   -8.3800    6.7320   -0.4120 C   0  0  0  0  0  0  0  0  0  0  0  0
   -1.7420    9.8700   -0.8470 C   0  0  1  0  0  0  0  0  0  0  0  0
   -1.3080   10.4010    0.5450 C   0  0  0  0  0  0  0  0  0  0  0  0
   -0.0790   11.3160    0.3120 C   0  0  0  0  0  0  0  0  0  0  0  0
   -0.0490   11.5460   -1.2170 C   0  0  1  0  0  0  0  0  0  0  0  0
   -1.0950   12.6760   -1.4730 C   0  0  0  0  0  0  0  0  0  0  0  0
    1.3430   11.8990   -1.8360 C   0  0  2  0  0  0  0  0  0  0  0  0
    1.9670   13.2130   -1.3350 C   0  0  0  0  0  0  0  0  0  0  0  0
    1.6200   14.4270   -2.1300 C   0  0  0  0  0  0  0  0  0  0  0  0
    1.0760   14.4270   -3.3620 C   0  0  0  0  0  0  0  0  0  0  0  0
    0.8450   13.1140   -4.1200 C   0  0  1  0  0  0  0  0  0  0  0  0
    1.3500   13.2620   -5.5790 C   0  0  0  0  0  0  0  0  0  0  0  0
    0.7350   14.4630   -6.2920 C   0  0  0  0  0  0  0  0  0  0  0  0
    1.0360   15.7570   -5.5390 C   0  0  2  0  0  0  0  0  0  0  0  0
    2.4430   16.0120   -5.6050 O   0  0  0  0  0  0  0  0  0  0  0  0
    0.5810   15.7210   -4.0530 C   0  0  0  0  0  0  0  0  0  0  0  0
   -0.9660   15.7480   -3.9820 C   0  0  0  0  0  0  0  0  0  0  0  0
    1.0690   17.0280   -3.3720 C   0  0  0  0  0  0  0  0  0  0  0  0
    1.3950   11.8000   -3.4150 C   0  0  1  0  0  0  0  0  0  0  0  0
    2.8890   11.5760   -3.7980 C   0  0  0  0  0  0  0  0  0  0  0  0
    0.6040   10.5530   -3.9620 C   0  0  0  0  0  0  0  0  0  0  0  0
   -0.7020   10.1840   -3.2340 C   0  0  0  0  0  0  0  0  0  0  0  0
   -0.4870   10.1220   -1.7180 C   0  0  2  0  0  0  0  0  0  0  0  0
    0.5450    8.9790   -1.4290 C   0  0  0  0  0  0  0  0  0  0  0  0
   -2.1067    6.7172   -2.0785 H   0  0  0  0  0  0  0  0  0  0  0  0
   -3.1413    8.0330   -2.7302 H   0  0  0  0  0  0  0  0  0  0  0  0
   -1.3540    8.2123   -2.7302 H   0  0  0  0  0  0  0  0  0  0  0  0
   -1.6551    7.8379   -0.1185 H   0  0  0  0  0  0  0  0  0  0  0  0
   -3.7775    7.6596    0.5512 H   0  0  0  0  0  0  0  0  0  0  0  0
   -3.8927    9.4492    0.1947 H   0  0  0  0  0  0  0  0  0  0  0  0
   -5.2463    9.1486   -1.5549 H   0  0  0  0  0  0  0  0  0  0  0  0
   -4.3251    7.6973   -2.1311 H   0  0  0  0  0  0  0  0  0  0  0  0
   -5.4693    7.3597    0.2786 H   0  0  0  0  0  0  0  0  0  0  0  0
   -8.1336    9.1060   -1.9682 H   0  0  0  0  0  0  0  0  0  0  0  0
   -6.8352    8.4338   -3.0118 H   0  0  0  0  0  0  0  0  0  0  0  0
   -8.4668    7.6824   -3.0118 H   0  0  0  0  0  0  0  0  0  0  0  0
   -8.1069    6.8672    0.6450 H   0  0  0  0  0  0  0  0  0  0  0  0
   -9.3160    7.2709   -0.6207 H   0  0  0  0  0  0  0  0  0  0  0  0
   -8.5192    5.6610   -0.6207 H   0  0  0  0  0  0  0  0  0  0  0  0
   -2.6131   10.3780   -1.2864 H   0  0  0  0  0  0  0  0  0  0  0  0
   -2.1265   10.9756    1.0031 H   0  0  0  0  0  0  0  0  0  0  0  0
   -1.0597    9.5718    1.2239 H   0  0  0  0  0  0  0  0  0  0  0  0
   -0.1983   12.2702    0.8461 H   0  0  0  0  0  0  0  0  0  0  0  0
    0.8530   10.8661    0.6848 H   0  0  0  0  0  0  0  0  0  0  0  0
   -1.4562   13.0663   -0.5101 H   0  0  0  0  0  0  0  0  0  0  0  0
   -0.6238   13.4891   -2.0447 H   0  0  0  0  0  0  0  0  0  0  0  0
   -1.9420   12.2689   -2.0447 H   0  0  0  0  0  0  0  0  0  0  0  0
    1.9843   11.0957   -1.4441 H   0  0  0  0  0  0  0  0  0  0  0  0
    1.6304   13.3764   -0.3006 H   0  0  0  0  0  0  0  0  0  0  0  0
    3.0558   13.0883   -1.4295 H   0  0  0  0  0  0  0  0  0  0  0  0
    1.8260   15.4051   -1.6708 H   0  0  0  0  0  0  0  0  0  0  0  0
   -0.2425   12.9489   -4.1162 H   0  0  0  0  0  0  0  0  0  0  0  0
    2.4432   13.3831   -5.5632 H   0  0  0  0  0  0  0  0  0  0  0  0
    1.0508   12.3578   -6.1293 H   0  0  0  0  0  0  0  0  0  0  0  0
    1.1527   14.5317   -7.3073 H   0  0  0  0  0  0  0  0  0  0  0  0
   -0.3557   14.3263   -6.3335 H   0  0  0  0  0  0  0  0  0  0  0  0
    0.4630   16.5615   -6.0232 H   0  0  0  0  0  0  0  0  0  0  0  0
    2.7750   15.6180   -6.4290 H   0  0  0  0  0  0  0  0  0  0  0  0
   -1.2847   15.7536   -2.9292 H   0  0  0  0  0  0  0  0  0  0  0  0
   -1.3403   16.6528   -4.4832 H   0  0  0  0  0  0  0  0  0  0  0  0
   -1.3717   14.8568   -4.4832 H   0  0  0  0  0  0  0  0  0  0  0  0
    1.0251   16.9105   -2.2792 H   0  0  0  0  0  0  0  0  0  0  0  0
    2.1052   17.2356   -3.6772 H   0  0  0  0  0  0  0  0  0  0  0  0
    0.4224   17.8639   -3.6772 H   0  0  0  0  0  0  0  0  0  0  0  0
    3.4925   11.4855   -2.8828 H   0  0  0  0  0  0  0  0  0  0  0  0
    2.9813   10.6540   -4.3908 H   0  0  0  0  0  0  0  0  0  0  0  0
    3.2476   12.4304   -4.3908 H   0  0  0  0  0  0  0  0  0  0  0  0
    0.3531   10.7536   -5.0140 H   0  0  0  0  0  0  0  0  0  0  0  0
    1.2740    9.6952   -3.8028 H   0  0  0  0  0  0  0  0  0  0  0  0
   -1.4657   10.9432   -3.4583 H   0  0  0  0  0  0  0  0  0  0  0  0
   -1.0295    9.1933   -3.5823 H   0  0  0  0  0  0  0  0  0  0  0  0
    0.6583    8.8535   -0.3421 H   0  0  0  0  0  0  0  0  0  0  0  0
    0.1840    8.0386   -1.8710 H   0  0  0  0  0  0  0  0  0  0  0  0
    1.5172    9.2424   -1.8710 H   0  0  0  0  0  0  0  0  0  0  0  0
  1  2  1  0
  2  3  1  0
  3  4  1  0
  4  5  1  0
  5  6  1  0
  6  7  1  0
  7  8  1  0
  7  9  1  0
  2 10  1  0
 10 11  1  0
 11 12  1  0
 12 13  1  0
 13 14  1  1
 13 15  1  0
 15 16  1  0
 16 17  1  0
 17 18  2  0
 18 19  1  0
 19 20  1  0
 20 21  1  0
 21 22  1  0
 22 23  1  0
 22 24  1  0
 24 25  1  0
 24 26  1  0
 19 27  1  0
 27 28  1  1
 27 29  1  0
 29 30  1  0
 30 31  1  0
 31 32  1  6
  7  5  1  0
 31 10  1  0
 31 13  1  0
 27 15  1  0
 24 18  1  0
  1 33  1  0
  1 34  1  0
  1 35  1  0
  2 36  1  1
  3 37  1  0
  3 38  1  0
  4 39  1  0
  4 40  1  0
  5 41  1  1
  8 42  1  0
  8 43  1  0
  8 44  1  0
  9 45  1  0
  9 46  1  0
  9 47  1  0
 10 48  1  6
 11 49  1  0
 11 50  1  0
 12 51  1  0
 12 52  1  0
 14 53  1  0
 14 54  1  0
 14 55  1  0
 15 56  1  1
 16 57  1  0
 16 58  1  0
 17 59  1  0
 19 60  1  6
 20 61  1  0
 20 62  1  0
 21 63  1  0
 21 64  1  0
 22 65  1  6
 23 66  1  0
 25 67  1  0
 25 68  1  0
 25 69  1  0
 26 70  1  0
 26 71  1  0
 26 72  1  0
 28 73  1  0
 28 74  1  0
 28 75  1  0
 29 76  1  0
 29 77  1  0
 30 78  1  0
 30 79  1  0
 32 80  1  0
 32 81  1  0
 32 82  1  0
M  END
>  <meeko>  (14) 
{"is_sidechain": [false], "intermolecular_energy": 2.731, "internal_energy": -0.839}

$$$$
EPH_relaxed_0001_pdb2pqr_Repair_399_r2_0001_out
     RDKit          3D

 82 86  0  0  0  0  0  0  0  0999 V2000
    2.8920   11.3960   -5.3960 C   0  0  0  0  0  0  0  0  0  0  0  0
    1.9050   11.0860   -4.2670 C   0  0  2  0  0  0  0  0  0  0  0  0
    0.7940   10.1160   -4.7160 C   0  0  0  0  0  0  0  0  0  0  0  0
   -0.2890    9.8880   -3.6580 C   0  0  0  0  0  0  0  0  0  0  0  0
    0.2140    9.0520   -2.5210 C   0  0  2  0  0  0  0  0  0  0  0  0
   -0.6580    7.9820   -2.1330 O   0  0  0  0  0  0  0  0  0  0  0  0
   -0.4460    9.0130   -1.1550 C   0  0  0  0  0  0  0  0  0  0  0  0
   -1.6650    9.8270   -0.8540 C   0  0  0  0  0  0  0  0  0  0  0  0
    0.3690    8.5700    0.0200 C   0  0  0  0  0  0  0  0  0  0  0  0
    1.2890   12.3790   -3.7460 C   0  0  1  0  0  0  0  0  0  0  0  0
   -0.2530   12.2860   -3.5920 C   0  0  0  0  0  0  0  0  0  0  0  0
   -0.6310   13.1360   -2.3510 C   0  0  0  0  0  0  0  0  0  0  0  0
    0.6450   13.9510   -2.0330 C   0  0  1  0  0  0  0  0  0  0  0  0
    0.6100   15.1550   -3.0260 C   0  0  0  0  0  0  0  0  0  0  0  0
    0.8100   14.4270   -0.5530 C   0  0  2  0  0  0  0  0  0  0  0  0
   -0.2790   15.3920   -0.0530 C   0  0  0  0  0  0  0  0  0  0  0  0
    0.0110   16.8420   -0.2570 C   0  0  0  0  0  0  0  0  0  0  0  0
    1.2150   17.3640   -0.5560 C   0  0  0  0  0  0  0  0  0  0  0  0
    2.4640   16.4760   -0.6220 C   0  0  1  0  0  0  0  0  0  0  0  0
    3.6250   17.1570    0.1500 C   0  0  0  0  0  0  0  0  0  0  0  0
    3.8930   18.5790   -0.3320 C   0  0  0  0  0  0  0  0  0  0  0  0
    2.6440   19.4460   -0.1960 C   0  0  2  0  0  0  0  0  0  0  0  0
    2.3490   19.6140    1.1940 O   0  0  0  0  0  0  0  0  0  0  0  0
    1.4060   18.8560   -0.9260 C   0  0  0  0  0  0  0  0  0  0  0  0
    1.6090   18.9530   -2.4590 C   0  0  0  0  0  0  0  0  0  0  0  0
    0.1830   19.7520   -0.5930 C   0  0  0  0  0  0  0  0  0  0  0  0
    2.2590   14.9580   -0.2010 C   0  0  1  0  0  0  0  0  0  0  0  0
    2.4250   14.8070    1.3420 C   0  0  0  0  0  0  0  0  0  0  0  0
    3.3920   14.0840   -0.8570 C   0  0  0  0  0  0  0  0  0  0  0  0
    3.1200   13.5430   -2.2740 C   0  0  0  0  0  0  0  0  0  0  0  0
    1.7450   12.8730   -2.3500 C   0  0  2  0  0  0  0  0  0  0  0  0
    1.7580   11.6440   -1.3780 C   0  0  0  0  0  0  0  0  0  0  0  0
    3.8578   11.6993   -4.9657 H   0  0  0  0  0  0  0  0  0  0  0  0
    3.0327   10.4988   -6.0167 H   0  0  0  0  0  0  0  0  0  0  0  0
    2.4945   12.2125   -6.0167 H   0  0  0  0  0  0  0  0  0  0  0  0
    2.4682   10.5916   -3.4618 H   0  0  0  0  0  0  0  0  0  0  0  0
    0.3172   10.5276   -5.6178 H   0  0  0  0  0  0  0  0  0  0  0  0
    1.2724    9.1429   -4.9010 H   0  0  0  0  0  0  0  0  0  0  0  0
   -0.6157   10.8627   -3.2665 H   0  0  0  0  0  0  0  0  0  0  0  0
   -1.1250    9.3535   -4.1328 H   0  0  0  0  0  0  0  0  0  0  0  0
    1.2565    9.2138   -2.8324 H   0  0  0  0  0  0  0  0  0  0  0  0
   -1.7902    9.9106    0.2356 H   0  0  0  0  0  0  0  0  0  0  0  0
   -1.5517   10.8313   -1.2882 H   0  0  0  0  0  0  0  0  0  0  0  0
   -2.5492    9.3375   -1.2882 H   0  0  0  0  0  0  0  0  0  0  0  0
   -0.1466    8.8502    0.9504 H   0  0  0  0  0  0  0  0  0  0  0  0
    0.4973    7.4780   -0.0135 H   0  0  0  0  0  0  0  0  0  0  0  0
    1.3551    9.0562   -0.0135 H   0  0  0  0  0  0  0  0  0  0  0  0
    1.6371   13.0751   -4.5234 H   0  0  0  0  0  0  0  0  0  0  0  0
   -0.7480   12.6852   -4.4896 H   0  0  0  0  0  0  0  0  0  0  0  0
   -0.5752   11.2416   -3.4683 H   0  0  0  0  0  0  0  0  0  0  0  0
   -1.4725   13.8060   -2.5809 H   0  0  0  0  0  0  0  0  0  0  0  0
   -0.9517   12.5148   -1.5018 H   0  0  0  0  0  0  0  0  0  0  0  0
    0.5826   16.0972   -2.4590 H   0  0  0  0  0  0  0  0  0  0  0  0
    1.5091   15.1342   -3.6594 H   0  0  0  0  0  0  0  0  0  0  0  0
   -0.2864   15.0820   -3.6594 H   0  0  0  0  0  0  0  0  0  0  0  0
    0.6654   13.4947    0.0126 H   0  0  0  0  0  0  0  0  0  0  0  0
   -1.2131   15.1544   -0.5831 H   0  0  0  0  0  0  0  0  0  0  0  0
   -0.3400   15.2442    1.0353 H   0  0  0  0  0  0  0  0  0  0  0  0
   -0.8304   17.5431   -0.1543 H   0  0  0  0  0  0  0  0  0  0  0  0
    2.7222   16.3937   -1.6881 H   0  0  0  0  0  0  0  0  0  0  0  0
    3.3665   17.1898    1.2187 H   0  0  0  0  0  0  0  0  0  0  0  0
    4.5360   16.5668   -0.0282 H   0  0  0  0  0  0  0  0  0  0  0  0
    4.7024   19.0168    0.2707 H   0  0  0  0  0  0  0  0  0  0  0  0
    4.1804   18.5416   -1.3931 H   0  0  0  0  0  0  0  0  0  0  0  0
    2.8590   20.4121   -0.6759 H   0  0  0  0  0  0  0  0  0  0  0  0
    3.0560   20.1570    1.5810 H   0  0  0  0  0  0  0  0  0  0  0  0
    2.5829   19.4183   -2.6712 H   0  0  0  0  0  0  0  0  0  0  0  0
    1.5813   17.9444   -2.8971 H   0  0  0  0  0  0  0  0  0  0  0  0
    0.8069   19.5651   -2.8971 H   0  0  0  0  0  0  0  0  0  0  0  0
    0.0736   19.8322    0.4986 H   0  0  0  0  0  0  0  0  0  0  0  0
    0.3352   20.7539   -1.0208 H   0  0  0  0  0  0  0  0  0  0  0  0
   -0.7264   19.3049   -1.0208 H   0  0  0  0  0  0  0  0  0  0  0  0
    1.7048   15.4621    1.8541 H   0  0  0  0  0  0  0  0  0  0  0  0
    2.2393   13.7618    1.6302 H   0  0  0  0  0  0  0  0  0  0  0  0
    3.4480   15.0906    1.6302 H   0  0  0  0  0  0  0  0  0  0  0  0
    4.3018   14.7004   -0.9051 H   0  0  0  0  0  0  0  0  0  0  0  0
    3.4727   13.1916   -0.2189 H   0  0  0  0  0  0  0  0  0  0  0  0
    3.1540   14.3771   -2.9904 H   0  0  0  0  0  0  0  0  0  0  0  0
    3.8888   12.7949   -2.5175 H   0  0  0  0  0  0  0  0  0  0  0  0
    1.7542   11.9997   -0.3371 H   0  0  0  0  0  0  0  0  0  0  0  0
    0.8663   11.0253   -1.5573 H   0  0  0  0  0  0  0  0  0  0  0  0
    2.6625   11.0443   -1.5573 H   0  0  0  0  0  0  0  0  0  0  0  0
  1  2  1  0
  2  3  1  0
  3  4  1  0
  4  5  1  0
  5  6  1  0
  6  7  1  0
  7  8  1  0
  7  9  1  0
  2 10  1  0
 10 11  1  0
 11 12  1  0
 12 13  1  0
 13 14  1  6
 13 15  1  0
 15 16  1  0
 16 17  1  0
 17 18  2  0
 18 19  1  0
 19 20  1  0
 20 21  1  0
 21 22  1  0
 22 23  1  0
 22 24  1  0
 24 25  1  0
 24 26  1  0
 19 27  1  0
 27 28  1  1
 27 29  1  0
 29 30  1  0
 30 31  1  0
 31 32  1  1
  7  5  1  0
 31 10  1  0
 31 13  1  0
 27 15  1  0
 24 18  1  0
  1 33  1  0
  1 34  1  0
  1 35  1  0
  2 36  1  1
  3 37  1  0
  3 38  1  0
  4 39  1  0
  4 40  1  0
  5 41  1  1
  8 42  1  0
  8 43  1  0
  8 44  1  0
  9 45  1  0
  9 46  1  0
  9 47  1  0
 10 48  1  6
 11 49  1  0
 11 50  1  0
 12 51  1  0
 12 52  1  0
 14 53  1  0
 14 54  1  0
 14 55  1  0
 15 56  1  1
 16 57  1  0
 16 58  1  0
 17 59  1  0
 19 60  1  6
 20 61  1  0
 20 62  1  0
 21 63  1  0
 21 64  1  0
 22 65  1  6
 23 66  1  0
 25 67  1  0
 25 68  1  0
 25 69  1  0
 26 70  1  0
 26 71  1  0
 26 72  1  0
 28 73  1  0
 28 74  1  0
 28 75  1  0
 29 76  1  0
 29 77  1  0
 30 78  1  0
 30 79  1  0
 32 80  1  0
 32 81  1  0
 32 82  1  0
M  END
>  <meeko>  (15) 
{"is_sidechain": [false], "intermolecular_energy": 2.731, "internal_energy": -0.839}

$$$$
EPH_relaxed_0001_pdb2pqr_Repair_399_r2_0001_out
     RDKit          3D

 82 86  0  0  0  0  0  0  0  0999 V2000
    2.9820   18.2970   -3.6600 C   0  0  0  0  0  0  0  0  0  0  0  0
    2.0260   18.0520   -2.4900 C   0  0  2  0  0  0  0  0  0  0  0  0
    2.1430   19.1430   -1.4060 C   0  0  0  0  0  0  0  0  0  0  0  0
    1.8050   18.6490    0.0030 C   0  0  0  0  0  0  0  0  0  0  0  0
    2.3430   19.5690    1.0570 C   0  0  2  0  0  0  0  0  0  0  0  0
    3.5910   20.1930    0.7270 O   0  0  0  0  0  0  0  0  0  0  0  0
    3.6100   19.2890    1.8440 C   0  0  0  0  0  0  0  0  0  0  0  0
    4.4160   18.0500    1.6100 C   0  0  0  0  0  0  0  0  0  0  0  0
    3.7970   19.9680    3.1650 C   0  0  0  0  0  0  0  0  0  0  0  0
    2.2920   16.6810   -1.8800 C   0  0  1  0  0  0  0  0  0  0  0  0
    2.9540   16.7690   -0.4780 C   0  0  0  0  0  0  0  0  0  0  0  0
    2.3930   15.5880    0.3560 C   0  0  0  0  0  0  0  0  0  0  0  0
    1.6940   14.6760   -0.6800 C   0  0  1  0  0  0  0  0  0  0  0  0
    2.8460   13.8410   -1.3210 C   0  0  0  0  0  0  0  0  0  0  0  0
    0.5510   13.7600   -0.1330 C   0  0  2  0  0  0  0  0  0  0  0  0
    0.9920   12.7210    0.9130 C   0  0  0  0  0  0  0  0  0  0  0  0
    1.4080   11.3980    0.3620 C   0  0  0  0  0  0  0  0  0  0  0  0
    1.1600   10.9570   -0.8850 C   0  0  0  0  0  0  0  0  0  0  0  0
    0.3090   11.7830   -1.8580 C   0  0  1  0  0  0  0  0  0  0  0  0
   -0.7320   10.8610   -2.5460 C   0  0  0  0  0  0  0  0  0  0  0  0
   -0.0890    9.6510   -3.2160 C   0  0  0  0  0  0  0  0  0  0  0  0
    0.7010    8.8230   -2.2060 C   0  0  2  0  0  0  0  0  0  0  0  0
   -0.2130    8.2420   -1.2710 O   0  0  0  0  0  0  0  0  0  0  0  0
    1.7740    9.6490   -1.4420 C   0  0  0  0  0  0  0  0  0  0  0  0
    2.9250   10.0250   -2.4080 C   0  0  0  0  0  0  0  0  0  0  0  0
    2.4000    8.7320   -0.3570 C   0  0  0  0  0  0  0  0  0  0  0  0
   -0.3460   13.1010   -1.2590 C   0  0  1  0  0  0  0  0  0  0  0  0
   -1.7150   12.7610   -0.5950 C   0  0  0  0  0  0  0  0  0  0  0  0
   -0.6590   14.1000   -2.4350 C   0  0  0  0  0  0  0  0  0  0  0  0
    0.4720   15.0620   -2.8490 C   0  0  0  0  0  0  0  0  0  0  0  0
    1.0690   15.7650   -1.6260 C   0  0  2  0  0  0  0  0  0  0  0  0
   -0.0620   16.6310   -0.9730 C   0  0  0  0  0  0  0  0  0  0  0  0
    3.9789   18.5525   -3.2716 H   0  0  0  0  0  0  0  0  0  0  0  0
    3.0500   17.3873   -4.2746 H   0  0  0  0  0  0  0  0  0  0  0  0
    2.6041   19.1273   -4.2746 H   0  0  0  0  0  0  0  0  0  0  0  0
    1.0008   18.0898   -2.8868 H   0  0  0  0  0  0  0  0  0  0  0  0
    3.1762   19.5204   -1.4032 H   0  0  0  0  0  0  0  0  0  0  0  0
    1.4113   19.9251   -1.6567 H   0  0  0  0  0  0  0  0  0  0  0  0
    0.7116   18.5887    0.1069 H   0  0  0  0  0  0  0  0  0  0  0  0
    2.2692   17.6613    0.1406 H   0  0  0  0  0  0  0  0  0  0  0  0
    1.3250   19.8435    1.3706 H   0  0  0  0  0  0  0  0  0  0  0  0
    4.7019   17.6105    2.5770 H   0  0  0  0  0  0  0  0  0  0  0  0
    3.8164   17.3246    1.0405 H   0  0  0  0  0  0  0  0  0  0  0  0
    5.3221   18.3041    1.0405 H   0  0  0  0  0  0  0  0  0  0  0  0
    3.5998   19.2520    3.9765 H   0  0  0  0  0  0  0  0  0  0  0  0
    4.8302   20.3370    3.2446 H   0  0  0  0  0  0  0  0  0  0  0  0
    3.0984   20.8139    3.2446 H   0  0  0  0  0  0  0  0  0  0  0  0
    2.9275   16.2498   -2.6676 H   0  0  0  0  0  0  0  0  0  0  0  0
    4.0469   16.6832   -0.5690 H   0  0  0  0  0  0  0  0  0  0  0  0
    2.7330   17.7330    0.0036 H   0  0  0  0  0  0  0  0  0  0  0  0
    3.2073   15.0483    0.8616 H   0  0  0  0  0  0  0  0  0  0  0  0
    1.7058   15.9247    1.1462 H   0  0  0  0  0  0  0  0  0  0  0  0
    3.4616   13.3948   -0.5261 H   0  0  0  0  0  0  0  0  0  0  0  0
    2.4171   13.0426   -1.9444 H   0  0  0  0  0  0  0  0  0  0  0  0
    3.4713   14.4970   -1.9444 H   0  0  0  0  0  0  0  0  0  0  0  0
   -0.0872   14.4753    0.4065 H   0  0  0  0  0  0  0  0  0  0  0  0
    1.8430   13.1398    1.4701 H   0  0  0  0  0  0  0  0  0  0  0  0
    0.1086   12.5256    1.5387 H   0  0  0  0  0  0  0  0  0  0  0  0
    1.9646   10.7262    1.0320 H   0  0  0  0  0  0  0  0  0  0  0  0
    1.0069   12.1836   -2.6080 H   0  0  0  0  0  0  0  0  0  0  0  0
   -1.4450   10.5064   -1.7872 H   0  0  0  0  0  0  0  0  0  0  0  0
   -1.2332   11.4491   -3.3289 H   0  0  0  0  0  0  0  0  0  0  0  0
   -0.8769    9.0234   -3.6580 H   0  0  0  0  0  0  0  0  0  0  0  0
    0.6017   10.0070   -3.9946 H   0  0  0  0  0  0  0  0  0  0  0  0
    1.2426    8.0474   -2.7673 H   0  0  0  0  0  0  0  0  0  0  0  0
    0.2410    7.5000   -0.8370 H   0  0  0  0  0  0  0  0  0  0  0  0
    3.8123   10.3148   -1.8260 H   0  0  0  0  0  0  0  0  0  0  0  0
    3.1690    9.1598   -3.0420 H   0  0  0  0  0  0  0  0  0  0  0  0
    2.6112   10.8673   -3.0420 H   0  0  0  0  0  0  0  0  0  0  0  0
    2.1392    9.1141    0.6410 H   0  0  0  0  0  0  0  0  0  0  0  0
    2.0104    7.7097   -0.4716 H   0  0  0  0  0  0  0  0  0  0  0  0
    3.4940    8.7225   -0.4716 H   0  0  0  0  0  0  0  0  0  0  0  0
   -1.6083   12.7875    0.4995 H   0  0  0  0  0  0  0  0  0  0  0  0
   -2.4678   13.4995   -0.9080 H   0  0  0  0  0  0  0  0  0  0  0  0
   -2.0348   11.7561   -0.9080 H   0  0  0  0  0  0  0  0  0  0  0  0
   -0.9265   13.5012   -3.3181 H   0  0  0  0  0  0  0  0  0  0  0  0
   -1.4636   14.7475   -2.0563 H   0  0  0  0  0  0  0  0  0  0  0  0
    1.2626   14.4904   -3.3571 H   0  0  0  0  0  0  0  0  0  0  0  0
    0.0546   15.8247   -3.5229 H   0  0  0  0  0  0  0  0  0  0  0  0
    0.0165   16.5709    0.1225 H   0  0  0  0  0  0  0  0  0  0  0  0
    0.0478   17.6781   -1.2916 H   0  0  0  0  0  0  0  0  0  0  0  0
   -1.0442   16.2519   -1.2916 H   0  0  0  0  0  0  0  0  0  0  0  0
  1  2  1  0
  2  3  1  0
  3  4  1  0
  4  5  1  0
  5  6  1  0
  6  7  1  0
  7  8  1  0
  7  9  1  0
  2 10  1  0
 10 11  1  0
 11 12  1  0
 12 13  1  0
 13 14  1  6
 13 15  1  0
 15 16  1  0
 16 17  1  0
 17 18  2  0
 18 19  1  0
 19 20  1  0
 20 21  1  0
 21 22  1  0
 22 23  1  0
 22 24  1  0
 24 25  1  0
 24 26  1  0
 19 27  1  0
 27 28  1  1
 27 29  1  0
 29 30  1  0
 30 31  1  0
 31 32  1  1
  7  5  1  0
 31 10  1  0
 31 13  1  0
 27 15  1  0
 24 18  1  0
  1 33  1  0
  1 34  1  0
  1 35  1  0
  2 36  1  6
  3 37  1  0
  3 38  1  0
  4 39  1  0
  4 40  1  0
  5 41  1  1
  8 42  1  0
  8 43  1  0
  8 44  1  0
  9 45  1  0
  9 46  1  0
  9 47  1  0
 10 48  1  6
 11 49  1  0
 11 50  1  0
 12 51  1  0
 12 52  1  0
 14 53  1  0
 14 54  1  0
 14 55  1  0
 15 56  1  1
 16 57  1  0
 16 58  1  0
 17 59  1  0
 19 60  1  6
 20 61  1  0
 20 62  1  0
 21 63  1  0
 21 64  1  0
 22 65  1  6
 23 66  1  0
 25 67  1  0
 25 68  1  0
 25 69  1  0
 26 70  1  0
 26 71  1  0
 26 72  1  0
 28 73  1  0
 28 74  1  0
 28 75  1  0
 29 76  1  0
 29 77  1  0
 30 78  1  0
 30 79  1  0
 32 80  1  0
 32 81  1  0
 32 82  1  0
M  END
>  <meeko>  (16) 
{"is_sidechain": [false], "intermolecular_energy": 2.731, "internal_energy": -0.839}

$$$$
EPH_relaxed_0001_pdb2pqr_Repair_399_r2_0001_out
     RDKit          3D

 82 86  0  0  0  0  0  0  0  0999 V2000
    0.9630   14.8770   -2.6240 C   0  0  0  0  0  0  0  0  0  0  0  0
    1.2110   14.2020   -3.9760 C   0  0  2  0  0  0  0  0  0  0  0  0
    0.5010   14.9360   -5.1310 C   0  0  0  0  0  0  0  0  0  0  0  0
    1.0740   14.6100   -6.5120 C   0  0  0  0  0  0  0  0  0  0  0  0
    0.8360   15.7230   -7.4880 C   0  0  2  0  0  0  0  0  0  0  0  0
    0.3630   15.3010   -8.7740 O   0  0  0  0  0  0  0  0  0  0  0  0
    1.6590   15.9210   -8.7470 C   0  0  0  0  0  0  0  0  0  0  0  0
    2.7820   14.9970   -9.0990 C   0  0  0  0  0  0  0  0  0  0  0  0
    1.6900   17.2800   -9.3750 C   0  0  0  0  0  0  0  0  0  0  0  0
    0.7550   12.7490   -3.9230 C   0  0  1  0  0  0  0  0  0  0  0  0
    1.8860   11.7540   -4.2940 C   0  0  0  0  0  0  0  0  0  0  0  0
    1.6750   10.4910   -3.4200 C   0  0  0  0  0  0  0  0  0  0  0  0
    0.2580   10.6600   -2.8250 C   0  0  1  0  0  0  0  0  0  0  0  0
   -0.7110   10.1930   -3.9560 C   0  0  0  0  0  0  0  0  0  0  0  0
   -0.0210    9.9120   -1.4810 C   0  0  2  0  0  0  0  0  0  0  0  0
    0.0780    8.3790   -1.5550 C   0  0  0  0  0  0  0  0  0  0  0  0
   -1.1940    7.6720   -1.8870 C   0  0  0  0  0  0  0  0  0  0  0  0
   -2.4250    8.2140   -1.8370 C   0  0  0  0  0  0  0  0  0  0  0  0
   -2.6370    9.6430   -1.3210 C   0  0  1  0  0  0  0  0  0  0  0  0
   -3.8250    9.6620   -0.3230 C   0  0  0  0  0  0  0  0  0  0  0  0
   -5.0960    9.0610   -0.9150 C   0  0  0  0  0  0  0  0  0  0  0  0
   -4.8610    7.6210   -1.3640 C   0  0  2  0  0  0  0  0  0  0  0  0
   -4.6150    6.8130   -0.2090 O   0  0  0  0  0  0  0  0  0  0  0  0
   -3.6810    7.4760   -2.3640 C   0  0  0  0  0  0  0  0  0  0  0  0
   -4.0740    8.0990   -3.7270 C   0  0  0  0  0  0  0  0  0  0  0  0
   -3.4610    5.9620   -2.6270 C   0  0  0  0  0  0  0  0  0  0  0  0
   -1.3460   10.3710   -0.7470 C   0  0  1  0  0  0  0  0  0  0  0  0
   -1.1640   10.0200    0.7620 C   0  0  0  0  0  0  0  0  0  0  0  0
   -1.5610   11.9290   -0.8170 C   0  0  0  0  0  0  0  0  0  0  0  0
   -1.1540   12.6280   -2.1290 C   0  0  0  0  0  0  0  0  0  0  0  0
    0.2550   12.2100   -2.5590 C   0  0  2  0  0  0  0  0  0  0  0  0
    1.2550   12.6860   -1.4510 C   0  0  0  0  0  0  0  0  0  0  0  0
    1.2194   14.1792   -1.8133 H   0  0  0  0  0  0  0  0  0  0  0  0
    1.5888   15.7781   -2.5438 H   0  0  0  0  0  0  0  0  0  0  0  0
   -0.0973   15.1586   -2.5438 H   0  0  0  0  0  0  0  0  0  0  0  0
    2.2922   14.2450   -4.1737 H   0  0  0  0  0  0  0  0  0  0  0  0
   -0.5620   14.6534   -5.1206 H   0  0  0  0  0  0  0  0  0  0  0  0
    0.6507   16.0134   -4.9672 H   0  0  0  0  0  0  0  0  0  0  0  0
    2.1573   14.4436   -6.4183 H   0  0  0  0  0  0  0  0  0  0  0  0
    0.5680   13.7091   -6.8892 H   0  0  0  0  0  0  0  0  0  0  0  0
    0.5552   16.4082   -6.6745 H   0  0  0  0  0  0  0  0  0  0  0  0
    3.2456   14.6156   -8.1773 H   0  0  0  0  0  0  0  0  0  0  0  0
    2.3923   14.1545   -9.6893 H   0  0  0  0  0  0  0  0  0  0  0  0
    3.5337   15.5416   -9.6893 H   0  0  0  0  0  0  0  0  0  0  0  0
    1.7075   18.0476   -8.5873 H   0  0  0  0  0  0  0  0  0  0  0  0
    2.5905   17.3749   -9.9995 H   0  0  0  0  0  0  0  0  0  0  0  0
    0.7947   17.4158   -9.9995 H   0  0  0  0  0  0  0  0  0  0  0  0
   -0.0787   12.7911   -4.6394 H   0  0  0  0  0  0  0  0  0  0  0  0
    1.8247   11.4913   -5.3604 H   0  0  0  0  0  0  0  0  0  0  0  0
    2.8766   12.1974   -4.1148 H   0  0  0  0  0  0  0  0  0  0  0  0
    1.7322    9.5801   -4.0339 H   0  0  0  0  0  0  0  0  0  0  0  0
    2.4449   10.3897   -2.6410 H   0  0  0  0  0  0  0  0  0  0  0  0
   -1.6156    9.7570   -3.5070 H   0  0  0  0  0  0  0  0  0  0  0  0
   -0.9901   11.0555   -4.5791 H   0  0  0  0  0  0  0  0  0  0  0  0
   -0.2102    9.4373   -4.5791 H   0  0  0  0  0  0  0  0  0  0  0  0
    0.8212   10.2355   -0.8516 H   0  0  0  0  0  0  0  0  0  0  0  0
    0.8199    8.1234   -2.3259 H   0  0  0  0  0  0  0  0  0  0  0  0
    0.3573    8.0436   -0.5453 H   0  0  0  0  0  0  0  0  0  0  0  0
   -1.1191    6.6197   -2.1987 H   0  0  0  0  0  0  0  0  0  0  0  0
   -2.8812   10.2525   -2.2036 H   0  0  0  0  0  0  0  0  0  0  0  0
   -3.5446    9.0842    0.5701 H   0  0  0  0  0  0  0  0  0  0  0  0
   -4.0364   10.7127   -0.0755 H   0  0  0  0  0  0  0  0  0  0  0  0
   -5.8896    9.0756   -0.1535 H   0  0  0  0  0  0  0  0  0  0  0  0
   -5.3917    9.6578   -1.7904 H   0  0  0  0  0  0  0  0  0  0  0  0
   -5.7649    7.2894   -1.8960 H   0  0  0  0  0  0  0  0  0  0  0  0
   -4.7230    5.8830   -0.4720 H   0  0  0  0  0  0  0  0  0  0  0  0
   -4.6538    9.0181   -3.5565 H   0  0  0  0  0  0  0  0  0  0  0  0
   -3.1640    8.3398   -4.2961 H   0  0  0  0  0  0  0  0  0  0  0  0
   -4.6832    7.3814   -4.2961 H   0  0  0  0  0  0  0  0  0  0  0  0
   -3.3838    5.4305   -1.6670 H   0  0  0  0  0  0  0  0  0  0  0  0
   -4.3105    5.5622   -3.2002 H   0  0  0  0  0  0  0  0  0  0  0  0
   -2.5329    5.8205   -3.2002 H   0  0  0  0  0  0  0  0  0  0  0  0
   -1.5830   10.8281    1.3795 H   0  0  0  0  0  0  0  0  0  0  0  0
   -1.6877    9.0788    0.9853 H   0  0  0  0  0  0  0  0  0  0  0  0
   -0.0930    9.9056    0.9853 H   0  0  0  0  0  0  0  0  0  0  0  0
   -2.6310   12.1250   -0.6534 H   0  0  0  0  0  0  0  0  0  0  0  0
   -0.8934   12.3467   -0.0490 H   0  0  0  0  0  0  0  0  0  0  0  0
   -1.8678   12.3531   -2.9195 H   0  0  0  0  0  0  0  0  0  0  0  0
   -1.1620   13.7155   -1.9639 H   0  0  0  0  0  0  0  0  0  0  0  0
    0.8268   12.4822   -0.4585 H   0  0  0  0  0  0  0  0  0  0  0  0
    2.2062   12.1441   -1.5583 H   0  0  0  0  0  0  0  0  0  0  0  0
    1.4342   13.7660   -1.5583 H   0  0  0  0  0  0  0  0  0  0  0  0
  1  2  1  0
  2  3  1  0
  3  4  1  0
  4  5  1  0
  5  6  1  0
  6  7  1  0
  7  8  1  0
  7  9  1  0
  2 10  1  0
 10 11  1  0
 11 12  1  0
 12 13  1  0
 13 14  1  6
 13 15  1  0
 15 16  1  0
 16 17  1  0
 17 18  2  0
 18 19  1  0
 19 20  1  0
 20 21  1  0
 21 22  1  0
 22 23  1  0
 22 24  1  0
 24 25  1  0
 24 26  1  0
 19 27  1  0
 27 28  1  1
 27 29  1  0
 29 30  1  0
 30 31  1  0
 31 32  1  1
  7  5  1  0
 31 10  1  0
 31 13  1  0
 27 15  1  0
 24 18  1  0
  1 33  1  0
  1 34  1  0
  1 35  1  0
  2 36  1  6
  3 37  1  0
  3 38  1  0
  4 39  1  0
  4 40  1  0
  5 41  1  1
  8 42  1  0
  8 43  1  0
  8 44  1  0
  9 45  1  0
  9 46  1  0
  9 47  1  0
 10 48  1  6
 11 49  1  0
 11 50  1  0
 12 51  1  0
 12 52  1  0
 14 53  1  0
 14 54  1  0
 14 55  1  0
 15 56  1  1
 16 57  1  0
 16 58  1  0
 17 59  1  0
 19 60  1  6
 20 61  1  0
 20 62  1  0
 21 63  1  0
 21 64  1  0
 22 65  1  6
 23 66  1  0
 25 67  1  0
 25 68  1  0
 25 69  1  0
 26 70  1  0
 26 71  1  0
 26 72  1  0
 28 73  1  0
 28 74  1  0
 28 75  1  0
 29 76  1  0
 29 77  1  0
 30 78  1  0
 30 79  1  0
 32 80  1  0
 32 81  1  0
 32 82  1  0
M  END
>  <meeko>  (17) 
{"is_sidechain": [false], "intermolecular_energy": 2.731, "internal_energy": -0.839}

$$$$
