EPH_relaxed_0001_pdb2pqr_Repair_46_r2_0001_out
     RDKit          3D

 82 86  0  0  0  0  0  0  0  0999 V2000
   -1.6340    8.6320   -1.8580 C   0  0  0  0  0  0  0  0  0  0  0  0
   -1.8590    9.0440   -0.4000 C   0  0  2  0  0  0  0  0  0  0  0  0
   -3.3450    9.3160   -0.0960 C   0  0  0  0  0  0  0  0  0  0  0  0
   -4.3050    8.7110   -1.1240 C   0  0  0  0  0  0  0  0  0  0  0  0
   -5.4050    7.9350   -0.4660 C   0  0  2  0  0  0  0  0  0  0  0  0
   -5.7330    6.6970   -1.1100 O   0  0  0  0  0  0  0  0  0  0  0  0
   -6.7610    7.7000   -1.1050 C   0  0  0  0  0  0  0  0  0  0  0  0
   -7.0890    8.2420   -2.4610 C   0  0  0  0  0  0  0  0  0  0  0  0
   -7.9220    7.3680   -0.2190 C   0  0  0  0  0  0  0  0  0  0  0  0
   -1.0260   10.2780   -0.0750 C   0  0  1  0  0  0  0  0  0  0  0  0
    0.0400   10.0080    1.0200 C   0  0  0  0  0  0  0  0  0  0  0  0
    1.2780   10.8700    0.6610 C   0  0  0  0  0  0  0  0  0  0  0  0
    0.7710   11.8480   -0.4250 C   0  0  1  0  0  0  0  0  0  0  0  0
    0.0510   12.9860    0.3650 C   0  0  0  0  0  0  0  0  0  0  0  0
    1.8520   12.4180   -1.4010 C   0  0  2  0  0  0  0  0  0  0  0  0
    2.9480   13.2690   -0.7360 C   0  0  0  0  0  0  0  0  0  0  0  0
    2.6570   14.7310   -0.6530 C   0  0  0  0  0  0  0  0  0  0  0  0
    1.6990   15.3780   -1.3410 C   0  0  0  0  0  0  0  0  0  0  0  0
    0.8490   14.6450   -2.3870 C   0  0  1  0  0  0  0  0  0  0  0  0
    0.7660   15.5000   -3.6780 C   0  0  0  0  0  0  0  0  0  0  0  0
    0.2680   16.9180   -3.4110 C   0  0  0  0  0  0  0  0  0  0  0  0
    1.1720   17.6330   -2.4110 C   0  0  2  0  0  0  0  0  0  0  0  0
    2.4550   17.8370   -3.0120 O   0  0  0  0  0  0  0  0  0  0  0  0
    1.3390   16.8600   -1.0730 C   0  0  0  0  0  0  0  0  0  0  0  0
    0.0100   16.9020   -0.2780 C   0  0  0  0  0  0  0  0  0  0  0  0
    2.3840   17.6180   -0.2100 C   0  0  0  0  0  0  0  0  0  0  0  0
    1.2560   13.1370   -2.6780 C   0  0  1  0  0  0  0  0  0  0  0  0
    2.3650   13.0880   -3.7740 C   0  0  0  0  0  0  0  0  0  0  0  0
    0.0130   12.3740   -3.2700 C   0  0  0  0  0  0  0  0  0  0  0  0
   -0.9540   11.7300   -2.2580 C   0  0  0  0  0  0  0  0  0  0  0  0
   -0.1910   10.8960   -1.2250 C   0  0  2  0  0  0  0  0  0  0  0  0
    0.5260    9.7300   -1.9870 C   0  0  0  0  0  0  0  0  0  0  0  0
   -1.1070    7.6670   -1.8892 H   0  0  0  0  0  0  0  0  0  0  0  0
   -2.6050    8.5361   -2.3659 H   0  0  0  0  0  0  0  0  0  0  0  0
   -1.0285    9.3971   -2.3659 H   0  0  0  0  0  0  0  0  0  0  0  0
   -1.5416    8.2033    0.2344 H   0  0  0  0  0  0  0  0  0  0  0  0
   -3.5808    8.8915    0.8910 H   0  0  0  0  0  0  0  0  0  0  0  0
   -3.4851   10.4066   -0.1286 H   0  0  0  0  0  0  0  0  0  0  0  0
   -4.7483    9.5232   -1.7189 H   0  0  0  0  0  0  0  0  0  0  0  0
   -3.7334    8.0213   -1.7624 H   0  0  0  0  0  0  0  0  0  0  0  0
   -5.1113    8.3135    0.5242 H   0  0  0  0  0  0  0  0  0  0  0  0
   -7.6558    9.1786   -2.3542 H   0  0  0  0  0  0  0  0  0  0  0  0
   -6.1577    8.4379   -3.0127 H   0  0  0  0  0  0  0  0  0  0  0  0
   -7.6945    7.5078   -3.0127 H   0  0  0  0  0  0  0  0  0  0  0  0
   -7.6164    7.4554    0.8341 H   0  0  0  0  0  0  0  0  0  0  0  0
   -8.7481    8.0659   -0.4202 H   0  0  0  0  0  0  0  0  0  0  0  0
   -8.2542    6.3388   -0.4202 H   0  0  0  0  0  0  0  0  0  0  0  0
   -1.8288   10.9696    0.2202 H   0  0  0  0  0  0  0  0  0  0  0  0
   -0.3495   10.2970    2.0073 H   0  0  0  0  0  0  0  0  0  0  0  0
    0.3010    8.9403    1.0626 H   0  0  0  0  0  0  0  0  0  0  0  0
    1.6365   11.4210    1.5430 H   0  0  0  0  0  0  0  0  0  0  0  0
    2.1237   10.2599    0.3109 H   0  0  0  0  0  0  0  0  0  0  0  0
    0.1625   12.8098    1.4451 H   0  0  0  0  0  0  0  0  0  0  0  0
    0.5006   13.9552    0.1033 H   0  0  0  0  0  0  0  0  0  0  0  0
   -1.0174   12.9948    0.1033 H   0  0  0  0  0  0  0  0  0  0  0  0
    2.3562   11.5063   -1.7541 H   0  0  0  0  0  0  0  0  0  0  0  0
    3.0963   12.8932    0.2871 H   0  0  0  0  0  0  0  0  0  0  0  0
    3.8386   13.1715   -1.3743 H   0  0  0  0  0  0  0  0  0  0  0  0
    3.2788   15.3300    0.0286 H   0  0  0  0  0  0  0  0  0  0  0  0
   -0.1527   14.5391   -1.9449 H   0  0  0  0  0  0  0  0  0  0  0  0
    1.7682   15.5573   -4.1278 H   0  0  0  0  0  0  0  0  0  0  0  0
    0.0457   15.0152   -4.3534 H   0  0  0  0  0  0  0  0  0  0  0  0
    0.2601   17.4809   -4.3560 H   0  0  0  0  0  0  0  0  0  0  0  0
   -0.7465   16.8608   -2.9896 H   0  0  0  0  0  0  0  0  0  0  0  0
    0.6932   18.5914   -2.1615 H   0  0  0  0  0  0  0  0  0  0  0  0
    2.7830   18.7040   -2.7190 H   0  0  0  0  0  0  0  0  0  0  0  0
    0.2274   16.8951    0.8003 H   0  0  0  0  0  0  0  0  0  0  0  0
   -0.5421   17.8180   -0.5349 H   0  0  0  0  0  0  0  0  0  0  0  0
   -0.5989   16.0226   -0.5349 H   0  0  0  0  0  0  0  0  0  0  0  0
    2.1642   17.4586    0.8560 H   0  0  0  0  0  0  0  0  0  0  0  0
    3.3914   17.2392   -0.4373 H   0  0  0  0  0  0  0  0  0  0  0  0
    2.3367   18.6932   -0.4373 H   0  0  0  0  0  0  0  0  0  0  0  0
    3.3536   13.0443   -3.2936 H   0  0  0  0  0  0  0  0  0  0  0  0
    2.2221   12.1953   -4.4006 H   0  0  0  0  0  0  0  0  0  0  0  0
    2.3013   13.9898   -4.4006 H   0  0  0  0  0  0  0  0  0  0  0  0
   -0.5639   13.0931   -3.8701 H   0  0  0  0  0  0  0  0  0  0  0  0
    0.4360   11.5329   -3.8389 H   0  0  0  0  0  0  0  0  0  0  0  0
   -1.5121   12.5231   -1.7388 H   0  0  0  0  0  0  0  0  0  0  0  0
   -1.6428   11.0681   -2.8034 H   0  0  0  0  0  0  0  0  0  0  0  0
    0.9580    9.0274   -1.2592 H   0  0  0  0  0  0  0  0  0  0  0  0
   -0.2034    9.2015   -2.6184 H   0  0  0  0  0  0  0  0  0  0  0  0
    1.3268   10.1424   -2.6184 H   0  0  0  0  0  0  0  0  0  0  0  0
  1  2  1  0
  2  3  1  0
  3  4  1  0
  4  5  1  0
  5  6  1  0
  6  7  1  0
  7  8  1  0
  7  9  1  0
  2 10  1  0
 10 11  1  0
 11 12  1  0
 12 13  1  0
 13 14  1  1
 13 15  1  0
 15 16  1  0
 16 17  1  0
 17 18  2  0
 18 19  1  0
 19 20  1  0
 20 21  1  0
 21 22  1  0
 22 23  1  0
 22 24  1  0
 24 25  1  0
 24 26  1  0
 19 27  1  0
 27 28  1  6
 27 29  1  0
 29 30  1  0
 30 31  1  0
 31 32  1  6
  7  5  1  0
 31 10  1  0
 31 13  1  0
 27 15  1  0
 24 18  1  0
  1 33  1  0
  1 34  1  0
  1 35  1  0
  2 36  1  1
  3 37  1  0
  3 38  1  0
  4 39  1  0
  4 40  1  0
  5 41  1  1
  8 42  1  0
  8 43  1  0
  8 44  1  0
  9 45  1  0
  9 46  1  0
  9 47  1  0
 10 48  1  1
 11 49  1  0
 11 50  1  0
 12 51  1  0
 12 52  1  0
 14 53  1  0
 14 54  1  0
 14 55  1  0
 15 56  1  6
 16 57  1  0
 16 58  1  0
 17 59  1  0
 19 60  1  1
 20 61  1  0
 20 62  1  0
 21 63  1  0
 21 64  1  0
 22 65  1  1
 23 66  1  0
 25 67  1  0
 25 68  1  0
 25 69  1  0
 26 70  1  0
 26 71  1  0
 26 72  1  0
 28 73  1  0
 28 74  1  0
 28 75  1  0
 29 76  1  0
 29 77  1  0
 30 78  1  0
 30 79  1  0
 32 80  1  0
 32 81  1  0
 32 82  1  0
M  END
>  <meeko>  (1) 
{"is_sidechain": [false], "intermolecular_energy": 2.731, "internal_energy": -0.839}

$$$$
EPH_relaxed_0001_pdb2pqr_Repair_46_r2_0001_out
     RDKit          3D

 82 86  0  0  0  0  0  0  0  0999 V2000
    4.2100   17.5750   -0.6540 C   0  0  0  0  0  0  0  0  0  0  0  0
    2.8520   18.1450   -0.2350 C   0  0  2  0  0  0  0  0  0  0  0  0
    2.9120   18.8360    1.1420 C   0  0  0  0  0  0  0  0  0  0  0  0
    4.2330   18.6170    1.8840 C   0  0  0  0  0  0  0  0  0  0  0  0
    4.2260   19.2680    3.2330 C   0  0  2  0  0  0  0  0  0  0  0  0
    5.2970   20.1940    3.4570 O   0  0  0  0  0  0  0  0  0  0  0  0
    5.2900   19.0220    4.2870 C   0  0  0  0  0  0  0  0  0  0  0  0
    6.4350   18.0920    4.0360 C   0  0  0  0  0  0  0  0  0  0  0  0
    4.9560   19.2990    5.7200 C   0  0  0  0  0  0  0  0  0  0  0  0
    1.8060   17.0370   -0.2170 C   0  0  1  0  0  0  0  0  0  0  0  0
    0.3780   17.5580   -0.5280 C   0  0  0  0  0  0  0  0  0  0  0  0
   -0.3430   16.4410   -1.3250 C   0  0  0  0  0  0  0  0  0  0  0  0
    0.5640   15.1980   -1.1600 C   0  0  1  0  0  0  0  0  0  0  0  0
    0.1930   14.6140    0.2390 C   0  0  0  0  0  0  0  0  0  0  0  0
    0.4620   14.1150   -2.2830 C   0  0  2  0  0  0  0  0  0  0  0  0
   -0.9170   13.4490   -2.4250 C   0  0  0  0  0  0  0  0  0  0  0  0
   -1.1160   12.2150   -1.6070 C   0  0  0  0  0  0  0  0  0  0  0  0
   -0.1400   11.5040   -1.0140 C   0  0  0  0  0  0  0  0  0  0  0  0
    1.3360   11.8700   -1.2180 C   0  0  1  0  0  0  0  0  0  0  0  0
    2.1490   10.5860   -1.5300 C   0  0  0  0  0  0  0  0  0  0  0  0
    1.9570    9.5010   -0.4740 C   0  0  0  0  0  0  0  0  0  0  0  0
    0.4840    9.1240   -0.3410 C   0  0  2  0  0  0  0  0  0  0  0  0
    0.0590    8.4910   -1.5520 O   0  0  0  0  0  0  0  0  0  0  0  0
   -0.4350   10.3400   -0.0360 C   0  0  0  0  0  0  0  0  0  0  0  0
   -0.1760   10.8390    1.4070 C   0  0  0  0  0  0  0  0  0  0  0  0
   -1.9060    9.8460   -0.0680 C   0  0  0  0  0  0  0  0  0  0  0  0
    1.6230   13.0400   -2.2540 C   0  0  1  0  0  0  0  0  0  0  0  0
    1.7290   12.4600   -3.6970 C   0  0  0  0  0  0  0  0  0  0  0  0
    3.0240   13.6810   -1.9300 C   0  0  0  0  0  0  0  0  0  0  0  0
    3.0420   14.8270   -0.9000 C   0  0  0  0  0  0  0  0  0  0  0  0
    1.9790   15.8790   -1.2320 C   0  0  2  0  0  0  0  0  0  0  0  0
    2.3380   16.5000   -2.6240 C   0  0  0  0  0  0  0  0  0  0  0  0
    4.7969   17.3287    0.2432 H   0  0  0  0  0  0  0  0  0  0  0  0
    4.0567   16.6653   -1.2531 H   0  0  0  0  0  0  0  0  0  0  0  0
    4.7520   18.3216   -1.2531 H   0  0  0  0  0  0  0  0  0  0  0  0
    2.5713   18.9087   -0.9753 H   0  0  0  0  0  0  0  0  0  0  0  0
    2.7718   19.9170    0.9944 H   0  0  0  0  0  0  0  0  0  0  0  0
    2.1187   18.3901    1.7600 H   0  0  0  0  0  0  0  0  0  0  0  0
    4.3957   17.5365    2.0106 H   0  0  0  0  0  0  0  0  0  0  0  0
    5.0394   19.0704    1.2890 H   0  0  0  0  0  0  0  0  0  0  0  0
    3.1273   19.2307    3.2707 H   0  0  0  0  0  0  0  0  0  0  0  0
    6.8506   17.7544    4.9969 H   0  0  0  0  0  0  0  0  0  0  0  0
    6.0818   17.2218    3.4633 H   0  0  0  0  0  0  0  0  0  0  0  0
    7.2143   18.6161    3.4633 H   0  0  0  0  0  0  0  0  0  0  0  0
    5.6382   18.7332    6.3715 H   0  0  0  0  0  0  0  0  0  0  0  0
    5.0655   20.3750    5.9207 H   0  0  0  0  0  0  0  0  0  0  0  0
    3.9188   18.9923    5.9207 H   0  0  0  0  0  0  0  0  0  0  0  0
    1.9505   16.6641    0.8077 H   0  0  0  0  0  0  0  0  0  0  0  0
   -0.1620   17.7642    0.4079 H   0  0  0  0  0  0  0  0  0  0  0  0
    0.4164   18.4931   -1.1060 H   0  0  0  0  0  0  0  0  0  0  0  0
   -1.3431   16.2503   -0.9086 H   0  0  0  0  0  0  0  0  0  0  0  0
   -0.4930   16.7114   -2.3806 H   0  0  0  0  0  0  0  0  0  0  0  0
    0.6043   15.2615    1.0274 H   0  0  0  0  0  0  0  0  0  0  0  0
   -0.9015   14.5661    0.3378 H   0  0  0  0  0  0  0  0  0  0  0  0
    0.6147   13.6029    0.3378 H   0  0  0  0  0  0  0  0  0  0  0  0
    0.6007   14.7106   -3.1974 H   0  0  0  0  0  0  0  0  0  0  0  0
   -1.6810   14.1819   -2.1263 H   0  0  0  0  0  0  0  0  0  0  0  0
   -0.9964   13.1340   -3.4759 H   0  0  0  0  0  0  0  0  0  0  0  0
   -2.1483   11.8573   -1.4786 H   0  0  0  0  0  0  0  0  0  0  0  0
    1.6759   12.3056   -0.2668 H   0  0  0  0  0  0  0  0  0  0  0  0
    1.8247   10.1913   -2.5042 H   0  0  0  0  0  0  0  0  0  0  0  0
    3.2145   10.8591   -1.5383 H   0  0  0  0  0  0  0  0  0  0  0  0
    2.5319    8.6095   -0.7651 H   0  0  0  0  0  0  0  0  0  0  0  0
    2.3095    9.8868    0.4939 H   0  0  0  0  0  0  0  0  0  0  0  0
    0.3945    8.4411    0.5167 H   0  0  0  0  0  0  0  0  0  0  0  0
   -0.3460    7.6400   -1.3130 H   0  0  0  0  0  0  0  0  0  0  0  0
   -0.5599   10.0995    2.1251 H   0  0  0  0  0  0  0  0  0  0  0  0
    0.9051   10.9722    1.5604 H   0  0  0  0  0  0  0  0  0  0  0  0
   -0.6893   11.7997    1.5604 H   0  0  0  0  0  0  0  0  0  0  0  0
   -2.2738    9.7225    0.9613 H   0  0  0  0  0  0  0  0  0  0  0  0
   -2.5293   10.5841   -0.5940 H   0  0  0  0  0  0  0  0  0  0  0  0
   -1.9575    8.8813   -0.5940 H   0  0  0  0  0  0  0  0  0  0  0  0
    1.9265   11.3792   -3.6442 H   0  0  0  0  0  0  0  0  0  0  0  0
    0.7841   12.6343   -4.2326 H   0  0  0  0  0  0  0  0  0  0  0  0
    2.5511   12.9572   -4.2326 H   0  0  0  0  0  0  0  0  0  0  0  0
    3.6760   12.8810   -1.5492 H   0  0  0  0  0  0  0  0  0  0  0  0
    3.3572   14.1370   -2.8739 H   0  0  0  0  0  0  0  0  0  0  0  0
    2.8409   14.4153    0.1000 H   0  0  0  0  0  0  0  0  0  0  0  0
    4.0313   15.3072   -0.9267 H   0  0  0  0  0  0  0  0  0  0  0  0
    2.8835   17.4435   -2.4749 H   0  0  0  0  0  0  0  0  0  0  0  0
    2.9689   15.7968   -3.1875 H   0  0  0  0  0  0  0  0  0  0  0  0
    1.4138   16.6959   -3.1875 H   0  0  0  0  0  0  0  0  0  0  0  0
  1  2  1  0
  2  3  1  0
  3  4  1  0
  4  5  1  0
  5  6  1  0
  6  7  1  0
  7  8  1  0
  7  9  1  0
  2 10  1  0
 10 11  1  0
 11 12  1  0
 12 13  1  0
 13 14  1  1
 13 15  1  0
 15 16  1  0
 16 17  1  0
 17 18  2  0
 18 19  1  0
 19 20  1  0
 20 21  1  0
 21 22  1  0
 22 23  1  0
 22 24  1  0
 24 25  1  0
 24 26  1  0
 19 27  1  0
 27 28  1  6
 27 29  1  0
 29 30  1  0
 30 31  1  0
 31 32  1  6
  7  5  1  0
 31 10  1  0
 31 13  1  0
 27 15  1  0
 24 18  1  0
  1 33  1  0
  1 34  1  0
  1 35  1  0
  2 36  1  6
  3 37  1  0
  3 38  1  0
  4 39  1  0
  4 40  1  0
  5 41  1  1
  8 42  1  0
  8 43  1  0
  8 44  1  0
  9 45  1  0
  9 46  1  0
  9 47  1  0
 10 48  1  1
 11 49  1  0
 11 50  1  0
 12 51  1  0
 12 52  1  0
 14 53  1  0
 14 54  1  0
 14 55  1  0
 15 56  1  6
 16 57  1  0
 16 58  1  0
 17 59  1  0
 19 60  1  1
 20 61  1  0
 20 62  1  0
 21 63  1  0
 21 64  1  0
 22 65  1  1
 23 66  1  0
 25 67  1  0
 25 68  1  0
 25 69  1  0
 26 70  1  0
 26 71  1  0
 26 72  1  0
 28 73  1  0
 28 74  1  0
 28 75  1  0
 29 76  1  0
 29 77  1  0
 30 78  1  0
 30 79  1  0
 32 80  1  0
 32 81  1  0
 32 82  1  0
M  END
>  <meeko>  (2) 
{"is_sidechain": [false], "intermolecular_energy": 2.731, "internal_energy": -0.839}

$$$$
EPH_relaxed_0001_pdb2pqr_Repair_46_r2_0001_out
     RDKit          3D

 82 86  0  0  0  0  0  0  0  0999 V2000
    2.3410   18.0750   -2.6820 C   0  0  0  0  0  0  0  0  0  0  0  0
    1.0520   17.6830   -1.9540 C   0  0  2  0  0  0  0  0  0  0  0  0
    1.2110   17.7400   -0.4210 C   0  0  0  0  0  0  0  0  0  0  0  0
    0.8700   19.1040    0.1830 C   0  0  0  0  0  0  0  0  0  0  0  0
   -0.5700   19.1850    0.5920 C   0  0  2  0  0  0  0  0  0  0  0  0
   -1.4410   18.2850   -0.1040 O   0  0  0  0  0  0  0  0  0  0  0  0
   -1.6720   19.6870   -0.3210 C   0  0  0  0  0  0  0  0  0  0  0  0
   -1.3820   20.1420   -1.7170 C   0  0  0  0  0  0  0  0  0  0  0  0
   -2.9390   20.1920    0.2960 C   0  0  0  0  0  0  0  0  0  0  0  0
    0.6180   16.2860   -2.3820 C   0  0  1  0  0  0  0  0  0  0  0  0
    0.7210   16.0720   -3.9150 C   0  0  0  0  0  0  0  0  0  0  0  0
    1.1350   14.5940   -4.1330 C   0  0  0  0  0  0  0  0  0  0  0  0
    0.9340   13.9250   -2.7530 C   0  0  1  0  0  0  0  0  0  0  0  0
   -0.5940   13.6170   -2.6760 C   0  0  0  0  0  0  0  0  0  0  0  0
    1.7950   12.6510   -2.4710 C   0  0  2  0  0  0  0  0  0  0  0  0
    1.5270   11.4610   -3.4100 C   0  0  0  0  0  0  0  0  0  0  0  0
    0.4740   10.5090   -2.9480 C   0  0  0  0  0  0  0  0  0  0  0  0
   -0.0270   10.4420   -1.7000 C   0  0  0  0  0  0  0  0  0  0  0  0
    0.5380   11.3200   -0.5760 C   0  0  1  0  0  0  0  0  0  0  0  0
    0.7680   10.4550    0.6900 C   0  0  0  0  0  0  0  0  0  0  0  0
   -0.4850    9.6970    1.1170 C   0  0  0  0  0  0  0  0  0  0  0  0
   -0.9830    8.7910   -0.0070 C   0  0  2  0  0  0  0  0  0  0  0  0
   -0.0210    7.7540   -0.2240 O   0  0  0  0  0  0  0  0  0  0  0  0
   -1.2400    9.5510   -1.3380 C   0  0  0  0  0  0  0  0  0  0  0  0
   -2.4840   10.4620   -1.1850 C   0  0  0  0  0  0  0  0  0  0  0  0
   -1.6010    8.5020   -2.4240 C   0  0  0  0  0  0  0  0  0  0  0  0
    1.8070   12.1990   -0.9550 C   0  0  1  0  0  0  0  0  0  0  0  0
    3.1100   11.3680   -0.7480 C   0  0  0  0  0  0  0  0  0  0  0  0
    1.8990   13.4220    0.0330 C   0  0  0  0  0  0  0  0  0  0  0  0
    1.1220   14.6930   -0.3610 C   0  0  0  0  0  0  0  0  0  0  0  0
    1.4170   15.0880   -1.8110 C   0  0  2  0  0  0  0  0  0  0  0  0
    2.9430   15.4250   -1.9150 C   0  0  0  0  0  0  0  0  0  0  0  0
    3.1213   18.3123   -1.9439 H   0  0  0  0  0  0  0  0  0  0  0  0
    2.6751   17.2378   -3.3125 H   0  0  0  0  0  0  0  0  0  0  0  0
    2.1525   18.9564   -3.3125 H   0  0  0  0  0  0  0  0  0  0  0  0
    0.2785   18.4138   -2.2327 H   0  0  0  0  0  0  0  0  0  0  0  0
    0.5454   16.9865    0.0253 H   0  0  0  0  0  0  0  0  0  0  0  0
    2.2713   17.5471   -0.2006 H   0  0  0  0  0  0  0  0  0  0  0  0
    1.5018   19.2700    1.0680 H   0  0  0  0  0  0  0  0  0  0  0  0
    1.0530   19.8731   -0.5819 H   0  0  0  0  0  0  0  0  0  0  0  0
   -0.2871   19.4506    1.6213 H   0  0  0  0  0  0  0  0  0  0  0  0
   -0.7910   21.0692   -1.6851 H   0  0  0  0  0  0  0  0  0  0  0  0
   -0.8135   19.3629   -2.2460 H   0  0  0  0  0  0  0  0  0  0  0  0
   -2.3283   20.3283   -2.2460 H   0  0  0  0  0  0  0  0  0  0  0  0
   -2.8523   20.1574    1.3920 H   0  0  0  0  0  0  0  0  0  0  0  0
   -3.1153   21.2291   -0.0253 H   0  0  0  0  0  0  0  0  0  0  0  0
   -3.7804   19.5605   -0.0253 H   0  0  0  0  0  0  0  0  0  0  0  0
   -0.4065   16.2798   -1.9816 H   0  0  0  0  0  0  0  0  0  0  0  0
   -0.2513   16.2673   -4.3910 H   0  0  0  0  0  0  0  0  0  0  0  0
    1.4559   16.7581   -4.3613 H   0  0  0  0  0  0  0  0  0  0  0  0
    0.4952   14.1193   -4.8915 H   0  0  0  0  0  0  0  0  0  0  0  0
    2.1692   14.4996   -4.4957 H   0  0  0  0  0  0  0  0  0  0  0  0
   -0.9028   13.5547   -1.6221 H   0  0  0  0  0  0  0  0  0  0  0  0
   -1.1556   14.4200   -3.1758 H   0  0  0  0  0  0  0  0  0  0  0  0
   -0.8006   12.6591   -3.1758 H   0  0  0  0  0  0  0  0  0  0  0  0
    2.8118   12.9966   -2.7090 H   0  0  0  0  0  0  0  0  0  0  0  0
    1.2182   11.8616   -4.3868 H   0  0  0  0  0  0  0  0  0  0  0  0
    2.4634   10.8850   -3.4463 H   0  0  0  0  0  0  0  0  0  0  0  0
    0.0735    9.8025   -3.6899 H   0  0  0  0  0  0  0  0  0  0  0  0
   -0.2270   12.0835   -0.3716 H   0  0  0  0  0  0  0  0  0  0  0  0
    1.5656    9.7273    0.4796 H   0  0  0  0  0  0  0  0  0  0  0  0
    1.0441   11.1326    1.5113 H   0  0  0  0  0  0  0  0  0  0  0  0
   -0.2511    9.0820    1.9985 H   0  0  0  0  0  0  0  0  0  0  0  0
   -1.2729   10.4265    1.3558 H   0  0  0  0  0  0  0  0  0  0  0  0
   -1.9511    8.3753    0.3092 H   0  0  0  0  0  0  0  0  0  0  0  0
    0.8610    8.1630   -0.2110 H   0  0  0  0  0  0  0  0  0  0  0  0
   -2.6958   10.6171   -0.1168 H   0  0  0  0  0  0  0  0  0  0  0  0
   -2.2890   11.4325   -1.6648 H   0  0  0  0  0  0  0  0  0  0  0  0
   -3.3503    9.9832   -1.6648 H   0  0  0  0  0  0  0  0  0  0  0  0
   -1.9223    7.5682   -1.9394 H   0  0  0  0  0  0  0  0  0  0  0  0
   -2.4175    8.8895   -3.0510 H   0  0  0  0  0  0  0  0  0  0  0  0
   -0.7190    8.3050   -3.0510 H   0  0  0  0  0  0  0  0  0  0  0  0
    3.3003   11.2466    0.3286 H   0  0  0  0  0  0  0  0  0  0  0  0
    2.9915   10.3783   -1.2133 H   0  0  0  0  0  0  0  0  0  0  0  0
    3.9574   11.8928   -1.2133 H   0  0  0  0  0  0  0  0  0  0  0  0
    1.5195   13.0895    1.0105 H   0  0  0  0  0  0  0  0  0  0  0  0
    2.9583   13.7184    0.0265 H   0  0  0  0  0  0  0  0  0  0  0  0
    0.0439   14.5041   -0.2517 H   0  0  0  0  0  0  0  0  0  0  0  0
    1.4374   15.5155    0.2978 H   0  0  0  0  0  0  0  0  0  0  0  0
    3.3675   15.5187   -0.9045 H   0  0  0  0  0  0  0  0  0  0  0  0
    3.4603   14.6195   -2.4567 H   0  0  0  0  0  0  0  0  0  0  0  0
    3.0730   16.3735   -2.4567 H   0  0  0  0  0  0  0  0  0  0  0  0
  1  2  1  0
  2  3  1  0
  3  4  1  0
  4  5  1  0
  5  6  1  0
  6  7  1  0
  7  8  1  0
  7  9  1  0
  2 10  1  0
 10 11  1  0
 11 12  1  0
 12 13  1  0
 13 14  1  1
 13 15  1  0
 15 16  1  0
 16 17  1  0
 17 18  2  0
 18 19  1  0
 19 20  1  0
 20 21  1  0
 21 22  1  0
 22 23  1  0
 22 24  1  0
 24 25  1  0
 24 26  1  0
 19 27  1  0
 27 28  1  6
 27 29  1  0
 29 30  1  0
 30 31  1  0
 31 32  1  1
  7  5  1  0
 31 10  1  0
 31 13  1  0
 27 15  1  0
 24 18  1  0
  1 33  1  0
  1 34  1  0
  1 35  1  0
  2 36  1  6
  3 37  1  0
  3 38  1  0
  4 39  1  0
  4 40  1  0
  5 41  1  1
  8 42  1  0
  8 43  1  0
  8 44  1  0
  9 45  1  0
  9 46  1  0
  9 47  1  0
 10 48  1  1
 11 49  1  0
 11 50  1  0
 12 51  1  0
 12 52  1  0
 14 53  1  0
 14 54  1  0
 14 55  1  0
 15 56  1  6
 16 57  1  0
 16 58  1  0
 17 59  1  0
 19 60  1  1
 20 61  1  0
 20 62  1  0
 21 63  1  0
 21 64  1  0
 22 65  1  1
 23 66  1  0
 25 67  1  0
 25 68  1  0
 25 69  1  0
 26 70  1  0
 26 71  1  0
 26 72  1  0
 28 73  1  0
 28 74  1  0
 28 75  1  0
 29 76  1  0
 29 77  1  0
 30 78  1  0
 30 79  1  0
 32 80  1  0
 32 81  1  0
 32 82  1  0
M  END
>  <meeko>  (3) 
{"is_sidechain": [false], "intermolecular_energy": 2.731, "internal_energy": -0.839}

$$$$
EPH_relaxed_0001_pdb2pqr_Repair_46_r2_0001_out
     RDKit          3D

 82 86  0  0  0  0  0  0  0  0999 V2000
    0.3940   18.4120   -0.0370 C   0  0  0  0  0  0  0  0  0  0  0  0
    1.4860   17.3610   -0.2590 C   0  0  2  0  0  0  0  0  0  0  0  0
    2.6930   17.9320   -1.0300 C   0  0  0  0  0  0  0  0  0  0  0  0
    3.9270   18.1700   -0.1540 C   0  0  0  0  0  0  0  0  0  0  0  0
    3.5500   18.6390    1.2180 C   0  0  2  0  0  0  0  0  0  0  0  0
    3.7990   20.0290    1.4650 O   0  0  0  0  0  0  0  0  0  0  0  0
    4.5610   19.0990    2.2520 C   0  0  0  0  0  0  0  0  0  0  0  0
    6.0280   19.1100    1.9570 C   0  0  0  0  0  0  0  0  0  0  0  0
    4.1700   19.0700    3.6970 C   0  0  0  0  0  0  0  0  0  0  0  0
    0.9110   16.1630   -1.0050 C   0  0  1  0  0  0  0  0  0  0  0  0
    0.7790   16.4170   -2.5310 C   0  0  0  0  0  0  0  0  0  0  0  0
    1.0670   15.0660   -3.2350 C   0  0  0  0  0  0  0  0  0  0  0  0
    1.0270   14.0170   -2.0990 C   0  0  1  0  0  0  0  0  0  0  0  0
   -0.4900   13.7230   -1.8790 C   0  0  0  0  0  0  0  0  0  0  0  0
    1.8410   12.7040   -2.3420 C   0  0  2  0  0  0  0  0  0  0  0  0
    1.3690   11.8550   -3.5340 C   0  0  0  0  0  0  0  0  0  0  0  0
    0.3380   10.8240   -3.2150 C   0  0  0  0  0  0  0  0  0  0  0  0
    0.0180   10.3940   -1.9800 C   0  0  0  0  0  0  0  0  0  0  0  0
    0.7920   10.8860   -0.7500 C   0  0  1  0  0  0  0  0  0  0  0  0
    1.1490    9.6780    0.1550 C   0  0  0  0  0  0  0  0  0  0  0  0
   -0.0730    8.8450    0.5290 C   0  0  0  0  0  0  0  0  0  0  0  0
   -0.7810    8.3250   -0.7190 C   0  0  2  0  0  0  0  0  0  0  0  0
    0.0750    7.3870   -1.3780 O   0  0  0  0  0  0  0  0  0  0  0  0
   -1.1820    9.4530   -1.7110 C   0  0  0  0  0  0  0  0  0  0  0  0
   -2.3330   10.2940   -1.1050 C   0  0  0  0  0  0  0  0  0  0  0  0
   -1.7590    8.7830   -2.9870 C   0  0  0  0  0  0  0  0  0  0  0  0
    2.0440   11.8190   -1.0460 C   0  0  1  0  0  0  0  0  0  0  0  0
    3.3110   10.9450   -1.2980 C   0  0  0  0  0  0  0  0  0  0  0  0
    2.3510   12.6880    0.2310 C   0  0  0  0  0  0  0  0  0  0  0  0
    1.6040   14.0300    0.3540 C   0  0  0  0  0  0  0  0  0  0  0  0
    1.7100   14.8370   -0.9440 C   0  0  2  0  0  0  0  0  0  0  0  0
    3.2230   15.1670   -1.1800 C   0  0  0  0  0  0  0  0  0  0  0  0
    0.2409   18.5593    1.0423 H   0  0  0  0  0  0  0  0  0  0  0  0
    0.7013   19.3628   -0.4969 H   0  0  0  0  0  0  0  0  0  0  0  0
   -0.5444   18.0686   -0.4969 H   0  0  0  0  0  0  0  0  0  0  0  0
    1.8462   17.0442    0.7309 H   0  0  0  0  0  0  0  0  0  0  0  0
    2.9638   17.2226   -1.8259 H   0  0  0  0  0  0  0  0  0  0  0  0
    2.3868   18.9112   -1.4267 H   0  0  0  0  0  0  0  0  0  0  0  0
    4.4894   17.2287   -0.0670 H   0  0  0  0  0  0  0  0  0  0  0  0
    4.5385   18.9520   -0.6279 H   0  0  0  0  0  0  0  0  0  0  0  0
    2.7246   17.9133    1.2650 H   0  0  0  0  0  0  0  0  0  0  0  0
    6.5919   19.1142    2.9015 H   0  0  0  0  0  0  0  0  0  0  0  0
    6.2920   18.2138    1.3763 H   0  0  0  0  0  0  0  0  0  0  0  0
    6.2785   20.0100    1.3763 H   0  0  0  0  0  0  0  0  0  0  0  0
    5.0724   19.1369    4.3224 H   0  0  0  0  0  0  0  0  0  0  0  0
    3.5087   19.9216    3.9151 H   0  0  0  0  0  0  0  0  0  0  0  0
    3.6416   18.1302    3.9151 H   0  0  0  0  0  0  0  0  0  0  0  0
   -0.0431   16.0522   -0.4689 H   0  0  0  0  0  0  0  0  0  0  0  0
   -0.2380   16.7604   -2.7714 H   0  0  0  0  0  0  0  0  0  0  0  0
    1.4821   17.1944   -2.8646 H   0  0  0  0  0  0  0  0  0  0  0  0
    0.2970   14.8499   -3.9903 H   0  0  0  0  0  0  0  0  0  0  0  0
    2.0306   15.0694   -3.7655 H   0  0  0  0  0  0  0  0  0  0  0  0
   -0.7029   13.6817   -0.8006 H   0  0  0  0  0  0  0  0  0  0  0  0
   -1.0890   14.5218   -2.3407 H   0  0  0  0  0  0  0  0  0  0  0  0
   -0.7472   12.7583   -2.3407 H   0  0  0  0  0  0  0  0  0  0  0  0
    2.8319   13.0892   -2.6243 H   0  0  0  0  0  0  0  0  0  0  0  0
    0.9475   12.5346   -4.2893 H   0  0  0  0  0  0  0  0  0  0  0  0
    2.2538   11.3022   -3.8827 H   0  0  0  0  0  0  0  0  0  0  0  0
   -0.2064   10.3778   -4.0603 H   0  0  0  0  0  0  0  0  0  0  0  0
    0.1119   11.5646   -0.2143 H   0  0  0  0  0  0  0  0  0  0  0  0
    1.8632    9.0353   -0.3806 H   0  0  0  0  0  0  0  0  0  0  0  0
    1.5800   10.0746    1.0861 H   0  0  0  0  0  0  0  0  0  0  0  0
    0.2479    7.9907    1.1432 H   0  0  0  0  0  0  0  0  0  0  0  0
   -0.7731    9.4810    1.0907 H   0  0  0  0  0  0  0  0  0  0  0  0
   -1.7165    7.8474   -0.3923 H   0  0  0  0  0  0  0  0  0  0  0  0
    0.3620    7.7880   -2.2150 H   0  0  0  0  0  0  0  0  0  0  0  0
   -2.2779   10.2537   -0.0071 H   0  0  0  0  0  0  0  0  0  0  0  0
   -2.2394   11.3380   -1.4388 H   0  0  0  0  0  0  0  0  0  0  0  0
   -3.2991    9.8876   -1.4388 H   0  0  0  0  0  0  0  0  0  0  0  0
   -2.4515    7.9788   -2.6977 H   0  0  0  0  0  0  0  0  0  0  0  0
   -2.2977    9.5338   -3.5837 H   0  0  0  0  0  0  0  0  0  0  0  0
   -0.9366    8.3616   -3.5837 H   0  0  0  0  0  0  0  0  0  0  0  0
    3.7468   10.6444   -0.3338 H   0  0  0  0  0  0  0  0  0  0  0  0
    3.0299   10.0478   -1.8690 H   0  0  0  0  0  0  0  0  0  0  0  0
    4.0499   11.5264   -1.8690 H   0  0  0  0  0  0  0  0  0  0  0  0
    2.0966   12.0834    1.1140 H   0  0  0  0  0  0  0  0  0  0  0  0
    3.4143   12.9570    0.1473 H   0  0  0  0  0  0  0  0  0  0  0  0
    0.5435   13.8332    0.5699 H   0  0  0  0  0  0  0  0  0  0  0  0
    2.0606   14.6125    1.1677 H   0  0  0  0  0  0  0  0  0  0  0  0
    3.7298   15.2775   -0.2100 H   0  0  0  0  0  0  0  0  0  0  0  0
    3.6922   14.3501   -1.7479 H   0  0  0  0  0  0  0  0  0  0  0  0
    3.3094   16.1051   -1.7479 H   0  0  0  0  0  0  0  0  0  0  0  0
  1  2  1  0
  2  3  1  0
  3  4  1  0
  4  5  1  0
  5  6  1  0
  6  7  1  0
  7  8  1  0
  7  9  1  0
  2 10  1  0
 10 11  1  0
 11 12  1  0
 12 13  1  0
 13 14  1  1
 13 15  1  0
 15 16  1  0
 16 17  1  0
 17 18  2  0
 18 19  1  0
 19 20  1  0
 20 21  1  0
 21 22  1  0
 22 23  1  0
 22 24  1  0
 24 25  1  0
 24 26  1  0
 19 27  1  0
 27 28  1  6
 27 29  1  0
 29 30  1  0
 30 31  1  0
 31 32  1  6
  7  5  1  0
 31 10  1  0
 31 13  1  0
 27 15  1  0
 24 18  1  0
  1 33  1  0
  1 34  1  0
  1 35  1  0
  2 36  1  1
  3 37  1  0
  3 38  1  0
  4 39  1  0
  4 40  1  0
  5 41  1  1
  8 42  1  0
  8 43  1  0
  8 44  1  0
  9 45  1  0
  9 46  1  0
  9 47  1  0
 10 48  1  1
 11 49  1  0
 11 50  1  0
 12 51  1  0
 12 52  1  0
 14 53  1  0
 14 54  1  0
 14 55  1  0
 15 56  1  6
 16 57  1  0
 16 58  1  0
 17 59  1  0
 19 60  1  1
 20 61  1  0
 20 62  1  0
 21 63  1  0
 21 64  1  0
 22 65  1  1
 23 66  1  0
 25 67  1  0
 25 68  1  0
 25 69  1  0
 26 70  1  0
 26 71  1  0
 26 72  1  0
 28 73  1  0
 28 74  1  0
 28 75  1  0
 29 76  1  0
 29 77  1  0
 30 78  1  0
 30 79  1  0
 32 80  1  0
 32 81  1  0
 32 82  1  0
M  END
>  <meeko>  (4) 
{"is_sidechain": [false], "intermolecular_energy": 2.731, "internal_energy": -0.839}

$$$$
EPH_relaxed_0001_pdb2pqr_Repair_46_r2_0001_out
     RDKit          3D

 82 86  0  0  0  0  0  0  0  0999 V2000
    2.2410   17.9750   -2.5190 C   0  0  0  0  0  0  0  0  0  0  0  0
    0.7190   17.8400   -2.6200 C   0  0  2  0  0  0  0  0  0  0  0  0
    0.0060   18.3210   -1.3400 C   0  0  0  0  0  0  0  0  0  0  0  0
    0.7220   17.9160   -0.0480 C   0  0  0  0  0  0  0  0  0  0  0  0
    1.2650   19.1080    0.6810 C   0  0  2  0  0  0  0  0  0  0  0  0
    2.1590   19.9240   -0.0880 O   0  0  0  0  0  0  0  0  0  0  0  0
    2.7280   19.2640    1.0550 C   0  0  0  0  0  0  0  0  0  0  0  0
    3.7380   18.2150    0.7110 C   0  0  0  0  0  0  0  0  0  0  0  0
    3.0840   20.1940    2.1720 C   0  0  0  0  0  0  0  0  0  0  0  0
    0.3440   16.3920   -2.9120 C   0  0  1  0  0  0  0  0  0  0  0  0
    0.4190   16.0480   -4.4240 C   0  0  0  0  0  0  0  0  0  0  0  0
    0.9010   14.5780   -4.5250 C   0  0  0  0  0  0  0  0  0  0  0  0
    0.7680   14.0240   -3.0870 C   0  0  1  0  0  0  0  0  0  0  0  0
   -0.7400   13.6520   -2.9380 C   0  0  0  0  0  0  0  0  0  0  0  0
    1.6980   12.8220   -2.7210 C   0  0  2  0  0  0  0  0  0  0  0  0
    1.4660   11.5430   -3.5440 C   0  0  0  0  0  0  0  0  0  0  0  0
    0.4740   10.5870   -2.9710 C   0  0  0  0  0  0  0  0  0  0  0  0
    0.0080   10.6070   -1.7080 C   0  0  0  0  0  0  0  0  0  0  0  0
    0.5570   11.6060   -0.6820 C   0  0  1  0  0  0  0  0  0  0  0  0
    0.8610   10.8670    0.6480 C   0  0  0  0  0  0  0  0  0  0  0  0
   -0.3410   10.0910    1.1750 C   0  0  0  0  0  0  0  0  0  0  0  0
   -0.8220    9.0670    0.1490 C   0  0  2  0  0  0  0  0  0  0  0  0
    0.1850    8.0620   -0.0050 O   0  0  0  0  0  0  0  0  0  0  0  0
   -1.1500    9.6940   -1.2340 C   0  0  0  0  0  0  0  0  0  0  0  0
   -2.4330   10.5540   -1.1240 C   0  0  0  0  0  0  0  0  0  0  0  0
   -1.4860    8.5380   -2.2150 C   0  0  0  0  0  0  0  0  0  0  0  0
    1.7710   12.5070   -1.1720 C   0  0  1  0  0  0  0  0  0  0  0  0
    3.1180   11.7600   -0.9320 C   0  0  0  0  0  0  0  0  0  0  0  0
    1.8260   13.8150   -0.2970 C   0  0  0  0  0  0  0  0  0  0  0  0
    0.9780   15.0080   -0.7770 C   0  0  0  0  0  0  0  0  0  0  0  0
    1.2150   15.2870   -2.2640 C   0  0  2  0  0  0  0  0  0  0  0  0
    2.7200   15.6860   -2.4410 C   0  0  0  0  0  0  0  0  0  0  0  0
    2.5373   18.0013   -1.4600 H   0  0  0  0  0  0  0  0  0  0  0  0
    2.7189   17.1157   -3.0122 H   0  0  0  0  0  0  0  0  0  0  0  0
    2.5602   18.9050   -3.0122 H   0  0  0  0  0  0  0  0  0  0  0  0
    0.3843   18.4849   -3.4459 H   0  0  0  0  0  0  0  0  0  0  0  0
   -0.0605   19.4186   -1.3709 H   0  0  0  0  0  0  0  0  0  0  0  0
   -0.9837   17.8412   -1.3234 H   0  0  0  0  0  0  0  0  0  0  0  0
    0.0090   17.3924    0.6058 H   0  0  0  0  0  0  0  0  0  0  0  0
    1.5659   17.2623   -0.3136 H   0  0  0  0  0  0  0  0  0  0  0  0
    0.3392   19.2013    1.2677 H   0  0  0  0  0  0  0  0  0  0  0  0
    4.1509   17.7862    1.6360 H   0  0  0  0  0  0  0  0  0  0  0  0
    3.2558   17.4209    0.1220 H   0  0  0  0  0  0  0  0  0  0  0  0
    4.5498   18.6668    0.1220 H   0  0  0  0  0  0  0  0  0  0  0  0
    2.8945   19.6989    3.1358 H   0  0  0  0  0  0  0  0  0  0  0  0
    4.1484   20.4623    2.1006 H   0  0  0  0  0  0  0  0  0  0  0  0
    2.4708   21.1044    2.1006 H   0  0  0  0  0  0  0  0  0  0  0  0
   -0.6683   16.3740   -2.4819 H   0  0  0  0  0  0  0  0  0  0  0  0
   -0.5736   16.1538   -4.8862 H   0  0  0  0  0  0  0  0  0  0  0  0
    1.1072   16.7263   -4.9496 H   0  0  0  0  0  0  0  0  0  0  0  0
    0.2672   14.0085   -5.2207 H   0  0  0  0  0  0  0  0  0  0  0  0
    1.9293   14.5016   -4.9080 H   0  0  0  0  0  0  0  0  0  0  0  0
   -0.9982   13.5883   -1.8706 H   0  0  0  0  0  0  0  0  0  0  0  0
   -1.3576   14.4247   -3.4192 H   0  0  0  0  0  0  0  0  0  0  0  0
   -0.9273   12.6807   -3.4192 H   0  0  0  0  0  0  0  0  0  0  0  0
    2.6900   13.1927   -3.0185 H   0  0  0  0  0  0  0  0  0  0  0  0
    1.1134   11.8407   -4.5425 H   0  0  0  0  0  0  0  0  0  0  0  0
    2.4287   11.0109   -3.5569 H   0  0  0  0  0  0  0  0  0  0  0  0
    0.0911    9.7994   -3.6366 H   0  0  0  0  0  0  0  0  0  0  0  0
   -0.2394   12.3480   -0.5230 H   0  0  0  0  0  0  0  0  0  0  0  0
    1.6885   10.1624    0.4785 H   0  0  0  0  0  0  0  0  0  0  0  0
    1.1228   11.6267    1.3992 H   0  0  0  0  0  0  0  0  0  0  0  0
   -0.0546    9.5675    2.0991 H   0  0  0  0  0  0  0  0  0  0  0  0
   -1.1580   10.8006    1.3724 H   0  0  0  0  0  0  0  0  0  0  0  0
   -1.7601    8.6351    0.5278 H   0  0  0  0  0  0  0  0  0  0  0  0
    0.3450    7.6690    0.8700 H   0  0  0  0  0  0  0  0  0  0  0  0
   -2.6756   10.7166   -0.0635 H   0  0  0  0  0  0  0  0  0  0  0  0
   -2.2673   11.5242   -1.6152 H   0  0  0  0  0  0  0  0  0  0  0  0
   -3.2675   10.0321   -1.6152 H   0  0  0  0  0  0  0  0  0  0  0  0
   -1.7482    7.6360   -1.6427 H   0  0  0  0  0  0  0  0  0  0  0  0
   -2.3364    8.8303   -2.8486 H   0  0  0  0  0  0  0  0  0  0  0  0
   -0.6115    8.3289   -2.8486 H   0  0  0  0  0  0  0  0  0  0  0  0
    3.2952   11.6617    0.1492 H   0  0  0  0  0  0  0  0  0  0  0  0
    3.0691   10.7601   -1.3879 H   0  0  0  0  0  0  0  0  0  0  0  0
    3.9402   12.3310   -1.3879 H   0  0  0  0  0  0  0  0  0  0  0  0
    1.4873   13.5522    0.7160 H   0  0  0  0  0  0  0  0  0  0  0  0
    2.8688   14.1595   -0.3596 H   0  0  0  0  0  0  0  0  0  0  0  0
   -0.0863   14.7794   -0.6191 H   0  0  0  0  0  0  0  0  0  0  0  0
    1.2702   15.8993   -0.2024 H   0  0  0  0  0  0  0  0  0  0  0  0
    3.1854   15.8094   -1.4520 H   0  0  0  0  0  0  0  0  0  0  0  0
    3.2457   14.8962   -2.9976 H   0  0  0  0  0  0  0  0  0  0  0  0
    2.7854   16.6325   -2.9976 H   0  0  0  0  0  0  0  0  0  0  0  0
  1  2  1  0
  2  3  1  0
  3  4  1  0
  4  5  1  0
  5  6  1  0
  6  7  1  0
  7  8  1  0
  7  9  1  0
  2 10  1  0
 10 11  1  0
 11 12  1  0
 12 13  1  0
 13 14  1  1
 13 15  1  0
 15 16  1  0
 16 17  1  0
 17 18  2  0
 18 19  1  0
 19 20  1  0
 20 21  1  0
 21 22  1  0
 22 23  1  0
 22 24  1  0
 24 25  1  0
 24 26  1  0
 19 27  1  0
 27 28  1  6
 27 29  1  0
 29 30  1  0
 30 31  1  0
 31 32  1  1
  7  5  1  0
 31 10  1  0
 31 13  1  0
 27 15  1  0
 24 18  1  0
  1 33  1  0
  1 34  1  0
  1 35  1  0
  2 36  1  6
  3 37  1  0
  3 38  1  0
  4 39  1  0
  4 40  1  0
  5 41  1  1
  8 42  1  0
  8 43  1  0
  8 44  1  0
  9 45  1  0
  9 46  1  0
  9 47  1  0
 10 48  1  1
 11 49  1  0
 11 50  1  0
 12 51  1  0
 12 52  1  0
 14 53  1  0
 14 54  1  0
 14 55  1  0
 15 56  1  6
 16 57  1  0
 16 58  1  0
 17 59  1  0
 19 60  1  1
 20 61  1  0
 20 62  1  0
 21 63  1  0
 21 64  1  0
 22 65  1  1
 23 66  1  0
 25 67  1  0
 25 68  1  0
 25 69  1  0
 26 70  1  0
 26 71  1  0
 26 72  1  0
 28 73  1  0
 28 74  1  0
 28 75  1  0
 29 76  1  0
 29 77  1  0
 30 78  1  0
 30 79  1  0
 32 80  1  0
 32 81  1  0
 32 82  1  0
M  END
>  <meeko>  (5) 
{"is_sidechain": [false], "intermolecular_energy": 2.731, "internal_energy": -0.839}

$$$$
EPH_relaxed_0001_pdb2pqr_Repair_46_r2_0001_out
     RDKit          3D

 82 86  0  0  0  0  0  0  0  0999 V2000
   -0.2210   10.4490   -3.7850 C   0  0  0  0  0  0  0  0  0  0  0  0
    0.9300   10.2630   -2.7920 C   0  0  2  0  0  0  0  0  0  0  0  0
    0.7810    8.9690   -1.9660 C   0  0  0  0  0  0  0  0  0  0  0  0
    0.2070    9.1960   -0.5650 C   0  0  0  0  0  0  0  0  0  0  0  0
   -1.2180    8.7410   -0.4710 C   0  0  2  0  0  0  0  0  0  0  0  0
   -1.9520    8.8110   -1.7000 O   0  0  0  0  0  0  0  0  0  0  0  0
   -2.4060    9.6700   -0.6420 C   0  0  0  0  0  0  0  0  0  0  0  0
   -2.2210   11.1290   -0.9220 C   0  0  0  0  0  0  0  0  0  0  0  0
   -3.7230    9.2630   -0.0580 C   0  0  0  0  0  0  0  0  0  0  0  0
    1.0140   11.4680   -1.8620 C   0  0  1  0  0  0  0  0  0  0  0  0
    2.0840   11.2920   -0.7520 C   0  0  0  0  0  0  0  0  0  0  0  0
    2.6960   12.6930   -0.4950 C   0  0  0  0  0  0  0  0  0  0  0  0
    1.7420   13.6740   -1.2150 C   0  0  1  0  0  0  0  0  0  0  0  0
    0.5510   13.8740   -0.2250 C   0  0  0  0  0  0  0  0  0  0  0  0
    2.3600   15.0400   -1.6570 C   0  0  2  0  0  0  0  0  0  0  0  0
    2.8720   15.9270   -0.5090 C   0  0  0  0  0  0  0  0  0  0  0  0
    1.8720   16.8820    0.0540 C   0  0  0  0  0  0  0  0  0  0  0  0
    0.7060   17.2250   -0.5250 C   0  0  0  0  0  0  0  0  0  0  0  0
    0.3380   16.7080   -1.9220 C   0  0  1  0  0  0  0  0  0  0  0  0
   -0.1930   17.8830   -2.7850 C   0  0  0  0  0  0  0  0  0  0  0  0
   -1.3450   18.6270   -2.1160 C   0  0  0  0  0  0  0  0  0  0  0  0
   -0.9220   19.1750   -0.7560 C   0  0  2  0  0  0  0  0  0  0  0  0
    0.0630   20.1940   -0.9550 O   0  0  0  0  0  0  0  0  0  0  0  0
   -0.3610   18.0840    0.1980 C   0  0  0  0  0  0  0  0  0  0  0  0
   -1.5090   17.1500    0.6540 C   0  0  0  0  0  0  0  0  0  0  0  0
    0.1590   18.7910    1.4790 C   0  0  0  0  0  0  0  0  0  0  0  0
    1.4590   15.8620   -2.6660 C   0  0  1  0  0  0  0  0  0  0  0  0
    2.4180   16.8160   -3.4430 C   0  0  0  0  0  0  0  0  0  0  0  0
    0.7770   14.9420   -3.7460 C   0  0  0  0  0  0  0  0  0  0  0  0
    0.2950   13.5570   -3.2740 C   0  0  0  0  0  0  0  0  0  0  0  0
    1.3950   12.8300   -2.4950 C   0  0  2  0  0  0  0  0  0  0  0  0
    2.5970   12.5950   -3.4710 C   0  0  0  0  0  0  0  0  0  0  0  0
   -1.1604   10.6008   -3.2332 H   0  0  0  0  0  0  0  0  0  0  0  0
   -0.0214   11.3265   -4.4175 H   0  0  0  0  0  0  0  0  0  0  0  0
   -0.3079    9.5533   -4.4175 H   0  0  0  0  0  0  0  0  0  0  0  0
    1.8592   10.1776   -3.3745 H   0  0  0  0  0  0  0  0  0  0  0  0
    0.1117    8.2855   -2.5090 H   0  0  0  0  0  0  0  0  0  0  0  0
    1.7907    8.5524   -1.8361 H   0  0  0  0  0  0  0  0  0  0  0  0
    0.8099    8.6334    0.1630 H   0  0  0  0  0  0  0  0  0  0  0  0
    0.2380   10.2747   -0.3516 H   0  0  0  0  0  0  0  0  0  0  0  0
   -0.9577    8.0116    0.3102 H   0  0  0  0  0  0  0  0  0  0  0  0
   -2.1513   11.6788    0.0282 H   0  0  0  0  0  0  0  0  0  0  0  0
   -1.2969   11.2771   -1.5000 H   0  0  0  0  0  0  0  0  0  0  0  0
   -3.0789   11.5031   -1.5000 H   0  0  0  0  0  0  0  0  0  0  0  0
   -3.6590    9.2828    1.0400 H   0  0  0  0  0  0  0  0  0  0  0  0
   -4.5040    9.9617   -0.3924 H   0  0  0  0  0  0  0  0  0  0  0  0
   -3.9736    8.2455   -0.3924 H   0  0  0  0  0  0  0  0  0  0  0  0
   -0.0256   11.4974   -1.5039 H   0  0  0  0  0  0  0  0  0  0  0  0
    1.6169   10.9082    0.1670 H   0  0  0  0  0  0  0  0  0  0  0  0
    2.8578   10.5732   -1.0596 H   0  0  0  0  0  0  0  0  0  0  0  0
    2.7333   12.9086    0.5830 H   0  0  0  0  0  0  0  0  0  0  0  0
    3.7296   12.7705   -0.8635 H   0  0  0  0  0  0  0  0  0  0  0  0
    0.9198   13.8121    0.8095 H   0  0  0  0  0  0  0  0  0  0  0  0
    0.0959   14.8611   -0.3936 H   0  0  0  0  0  0  0  0  0  0  0  0
   -0.2016   13.0897   -0.3936 H   0  0  0  0  0  0  0  0  0  0  0  0
    3.2559   14.7253   -2.2122 H   0  0  0  0  0  0  0  0  0  0  0  0
    3.2088   15.2684    0.3051 H   0  0  0  0  0  0  0  0  0  0  0  0
    3.6753   16.5448   -0.9369 H   0  0  0  0  0  0  0  0  0  0  0  0
    2.1078   17.3444    1.0238 H   0  0  0  0  0  0  0  0  0  0  0  0
   -0.4591   15.9651   -1.7714 H   0  0  0  0  0  0  0  0  0  0  0  0
    0.6299   18.5917   -2.9602 H   0  0  0  0  0  0  0  0  0  0  0  0
   -0.5713   17.4604   -3.7275 H   0  0  0  0  0  0  0  0  0  0  0  0
   -1.6565   19.4626   -2.7600 H   0  0  0  0  0  0  0  0  0  0  0  0
   -2.1786   17.9246   -1.9683 H   0  0  0  0  0  0  0  0  0  0  0  0
   -1.8216   19.5818   -0.2709 H   0  0  0  0  0  0  0  0  0  0  0  0
   -0.3710   21.0530   -0.8220 H   0  0  0  0  0  0  0  0  0  0  0  0
   -1.5439   17.1216    1.7531 H   0  0  0  0  0  0  0  0  0  0  0  0
   -2.4661   17.5292    0.2664 H   0  0  0  0  0  0  0  0  0  0  0  0
   -1.3324   16.1358    0.2664 H   0  0  0  0  0  0  0  0  0  0  0  0
   -0.2251   18.2687    2.3676 H   0  0  0  0  0  0  0  0  0  0  0  0
    1.2588   18.7704    1.4884 H   0  0  0  0  0  0  0  0  0  0  0  0
   -0.1883   19.8347    1.4884 H   0  0  0  0  0  0  0  0  0  0  0  0
    3.0096   17.4045   -2.7263 H   0  0  0  0  0  0  0  0  0  0  0  0
    3.0937   16.2213   -4.0753 H   0  0  0  0  0  0  0  0  0  0  0  0
    1.8269   17.4948   -4.0753 H   0  0  0  0  0  0  0  0  0  0  0  0
   -0.0967   15.4822   -4.1395 H   0  0  0  0  0  0  0  0  0  0  0  0
    1.5636   14.7360   -4.4869 H   0  0  0  0  0  0  0  0  0  0  0  0
   -0.5828   13.6840   -2.6234 H   0  0  0  0  0  0  0  0  0  0  0  0
    0.0354   12.9559   -4.1579 H   0  0  0  0  0  0  0  0  0  0  0  0
    3.5127   12.4160   -2.8884 H   0  0  0  0  0  0  0  0  0  0  0  0
    2.3889   11.7205   -4.1050 H   0  0  0  0  0  0  0  0  0  0  0  0
    2.7336   13.4834   -4.1050 H   0  0  0  0  0  0  0  0  0  0  0  0
  1  2  1  0
  2  3  1  0
  3  4  1  0
  4  5  1  0
  5  6  1  0
  6  7  1  0
  7  8  1  0
  7  9  1  0
  2 10  1  0
 10 11  1  0
 11 12  1  0
 12 13  1  0
 13 14  1  1
 13 15  1  0
 15 16  1  0
 16 17  1  0
 17 18  2  0
 18 19  1  0
 19 20  1  0
 20 21  1  0
 21 22  1  0
 22 23  1  0
 22 24  1  0
 24 25  1  0
 24 26  1  0
 19 27  1  0
 27 28  1  6
 27 29  1  0
 29 30  1  0
 30 31  1  0
 31 32  1  6
  7  5  1  0
 31 10  1  0
 31 13  1  0
 27 15  1  0
 24 18  1  0
  1 33  1  0
  1 34  1  0
  1 35  1  0
  2 36  1  6
  3 37  1  0
  3 38  1  0
  4 39  1  0
  4 40  1  0
  5 41  1  1
  8 42  1  0
  8 43  1  0
  8 44  1  0
  9 45  1  0
  9 46  1  0
  9 47  1  0
 10 48  1  1
 11 49  1  0
 11 50  1  0
 12 51  1  0
 12 52  1  0
 14 53  1  0
 14 54  1  0
 14 55  1  0
 15 56  1  6
 16 57  1  0
 16 58  1  0
 17 59  1  0
 19 60  1  1
 20 61  1  0
 20 62  1  0
 21 63  1  0
 21 64  1  0
 22 65  1  1
 23 66  1  0
 25 67  1  0
 25 68  1  0
 25 69  1  0
 26 70  1  0
 26 71  1  0
 26 72  1  0
 28 73  1  0
 28 74  1  0
 28 75  1  0
 29 76  1  0
 29 77  1  0
 30 78  1  0
 30 79  1  0
 32 80  1  0
 32 81  1  0
 32 82  1  0
M  END
>  <meeko>  (6) 
{"is_sidechain": [false], "intermolecular_energy": 2.731, "internal_energy": -0.839}

$$$$
EPH_relaxed_0001_pdb2pqr_Repair_46_r2_0001_out
     RDKit          3D

 82 86  0  0  0  0  0  0  0  0999 V2000
    3.6120   17.6270    0.6900 C   0  0  0  0  0  0  0  0  0  0  0  0
    2.8020   17.5420   -0.6060 C   0  0  2  0  0  0  0  0  0  0  0  0
    2.1370   18.8860   -0.9650 C   0  0  0  0  0  0  0  0  0  0  0  0
    1.9640   19.8260    0.2310 C   0  0  0  0  0  0  0  0  0  0  0  0
    0.5780   19.7540    0.7960 C   0  0  2  0  0  0  0  0  0  0  0  0
   -0.1390   18.5550    0.4740 O   0  0  0  0  0  0  0  0  0  0  0  0
   -0.6760   19.7770   -0.0580 C   0  0  0  0  0  0  0  0  0  0  0  0
   -0.6030   19.8750   -1.5490 C   0  0  0  0  0  0  0  0  0  0  0  0
   -1.9670   20.1940    0.5770 C   0  0  0  0  0  0  0  0  0  0  0  0
    1.7430   16.4520   -0.4870 C   0  0  1  0  0  0  0  0  0  0  0  0
    0.3050   16.9890   -0.7190 C   0  0  0  0  0  0  0  0  0  0  0  0
   -0.4830   15.8610   -1.4330 C   0  0  0  0  0  0  0  0  0  0  0  0
    0.4130   14.6090   -1.2920 C   0  0  1  0  0  0  0  0  0  0  0  0
    0.1270   14.0700    0.1450 C   0  0  0  0  0  0  0  0  0  0  0  0
    0.2220   13.4960   -2.3740 C   0  0  2  0  0  0  0  0  0  0  0  0
   -1.1740   12.8490   -2.4040 C   0  0  0  0  0  0  0  0  0  0  0  0
   -1.3370   11.6430   -1.5390 C   0  0  0  0  0  0  0  0  0  0  0  0
   -0.3340   10.9330   -0.9910 C   0  0  0  0  0  0  0  0  0  0  0  0
    1.1300   11.2670   -1.3030 C   0  0  1  0  0  0  0  0  0  0  0  0
    1.9010    9.9610   -1.6290 C   0  0  0  0  0  0  0  0  0  0  0  0
    1.7640    8.9110   -0.5310 C   0  0  0  0  0  0  0  0  0  0  0  0
    0.2970    8.5620   -0.2910 C   0  0  2  0  0  0  0  0  0  0  0  0
   -0.2160    7.9030   -1.4520 O   0  0  0  0  0  0  0  0  0  0  0  0
   -0.5810    9.8020    0.0380 C   0  0  0  0  0  0  0  0  0  0  0  0
   -0.2200   10.3370    1.4450 C   0  0  0  0  0  0  0  0  0  0  0  0
   -2.0590    9.3320    0.1180 C   0  0  0  0  0  0  0  0  0  0  0  0
    1.3660   12.4030   -2.3890 C   0  0  1  0  0  0  0  0  0  0  0  0
    1.3670   11.7800   -3.8180 C   0  0  0  0  0  0  0  0  0  0  0  0
    2.7950   13.0290   -2.1760 C   0  0  0  0  0  0  0  0  0  0  0  0
    2.8980   14.2040   -1.1840 C   0  0  0  0  0  0  0  0  0  0  0  0
    1.8310   15.2630   -1.4760 C   0  0  2  0  0  0  0  0  0  0  0  0
    2.1060   15.8390   -2.9070 C   0  0  0  0  0  0  0  0  0  0  0  0
    2.9327   17.5557    1.5523 H   0  0  0  0  0  0  0  0  0  0  0  0
    4.3364   16.7999    0.7245 H   0  0  0  0  0  0  0  0  0  0  0  0
    4.1489   18.5864    0.7245 H   0  0  0  0  0  0  0  0  0  0  0  0
    3.5018   17.2932   -1.4174 H   0  0  0  0  0  0  0  0  0  0  0  0
    2.7603   19.3919   -1.7170 H   0  0  0  0  0  0  0  0  0  0  0  0
    1.1293   18.6557   -1.3412 H   0  0  0  0  0  0  0  0  0  0  0  0
    2.6833   19.5432    1.0137 H   0  0  0  0  0  0  0  0  0  0  0  0
    2.1411   20.8556   -0.1134 H   0  0  0  0  0  0  0  0  0  0  0  0
    0.8818   20.3388    1.6768 H   0  0  0  0  0  0  0  0  0  0  0  0
    0.0324   20.7279   -1.8297 H   0  0  0  0  0  0  0  0  0  0  0  0
   -0.1736   18.9480   -1.9568 H   0  0  0  0  0  0  0  0  0  0  0  0
   -1.6141   20.0211   -1.9568 H   0  0  0  0  0  0  0  0  0  0  0  0
   -1.8647   20.1609    1.6717 H   0  0  0  0  0  0  0  0  0  0  0  0
   -2.2161   21.2183    0.2628 H   0  0  0  0  0  0  0  0  0  0  0  0
   -2.7683   19.5090    0.2628 H   0  0  0  0  0  0  0  0  0  0  0  0
    1.9495   16.1053    0.5363 H   0  0  0  0  0  0  0  0  0  0  0  0
   -0.1689   17.2315    0.2436 H   0  0  0  0  0  0  0  0  0  0  0  0
    0.3188   17.9065   -1.3256 H   0  0  0  0  0  0  0  0  0  0  0  0
   -1.4559   15.6989   -0.9461 H   0  0  0  0  0  0  0  0  0  0  0  0
   -0.6980   16.1036   -2.4842 H   0  0  0  0  0  0  0  0  0  0  0  0
    0.5073   14.7867    0.8878 H   0  0  0  0  0  0  0  0  0  0  0  0
   -0.9573   13.9428    0.2798 H   0  0  0  0  0  0  0  0  0  0  0  0
    0.6295   13.1008    0.2798 H   0  0  0  0  0  0  0  0  0  0  0  0
    0.3098   14.0620   -3.3131 H   0  0  0  0  0  0  0  0  0  0  0  0
   -1.9051   13.6030   -2.0771 H   0  0  0  0  0  0  0  0  0  0  0  0
   -1.3277   12.5051   -3.4375 H   0  0  0  0  0  0  0  0  0  0  0  0
   -2.3637   11.3066   -1.3323 H   0  0  0  0  0  0  0  0  0  0  0  0
    1.5391   11.7235   -0.3896 H   0  0  0  0  0  0  0  0  0  0  0  0
    1.5066    9.5436   -2.5672 H   0  0  0  0  0  0  0  0  0  0  0  0
    2.9675   10.2159   -1.7159 H   0  0  0  0  0  0  0  0  0  0  0  0
    2.3058    8.0023   -0.8320 H   0  0  0  0  0  0  0  0  0  0  0  0
    2.1851    9.3187    0.3998 H   0  0  0  0  0  0  0  0  0  0  0  0
    0.2537    7.9044    0.5898 H   0  0  0  0  0  0  0  0  0  0  0  0
    0.1330    6.9950   -1.4540 H   0  0  0  0  0  0  0  0  0  0  0  0
   -0.6618    9.6823    2.2107 H   0  0  0  0  0  0  0  0  0  0  0  0
    0.8736   10.3521    1.5621 H   0  0  0  0  0  0  0  0  0  0  0  0
   -0.6154   11.3568    1.5621 H   0  0  0  0  0  0  0  0  0  0  0  0
   -2.3570    9.2372    1.1726 H   0  0  0  0  0  0  0  0  0  0  0  0
   -2.7056   10.0688   -0.3810 H   0  0  0  0  0  0  0  0  0  0  0  0
   -2.1612    8.3570   -0.3810 H   0  0  0  0  0  0  0  0  0  0  0  0
    1.3688   10.6828   -3.7396 H   0  0  0  0  0  0  0  0  0  0  0  0
    0.4683   12.1074   -4.3613 H   0  0  0  0  0  0  0  0  0  0  0  0
    2.2646   12.1102   -4.3613 H   0  0  0  0  0  0  0  0  0  0  0  0
    3.4582   12.2293   -1.8146 H   0  0  0  0  0  0  0  0  0  0  0  0
    3.0726   13.4518   -3.1528 H   0  0  0  0  0  0  0  0  0  0  0  0
    2.7580   13.8246   -0.1610 H   0  0  0  0  0  0  0  0  0  0  0  0
    3.8901   14.6670   -1.2905 H   0  0  0  0  0  0  0  0  0  0  0  0
    2.5784   16.8285   -2.8194 H   0  0  0  0  0  0  0  0  0  0  0  0
    2.7768   15.1595   -3.4531 H   0  0  0  0  0  0  0  0  0  0  0  0
    1.1558   15.9334   -3.4531 H   0  0  0  0  0  0  0  0  0  0  0  0
  1  2  1  0
  2  3  1  0
  3  4  1  0
  4  5  1  0
  5  6  1  0
  6  7  1  0
  7  8  1  0
  7  9  1  0
  2 10  1  0
 10 11  1  0
 11 12  1  0
 12 13  1  0
 13 14  1  1
 13 15  1  0
 15 16  1  0
 16 17  1  0
 17 18  2  0
 18 19  1  0
 19 20  1  0
 20 21  1  0
 21 22  1  0
 22 23  1  0
 22 24  1  0
 24 25  1  0
 24 26  1  0
 19 27  1  0
 27 28  1  6
 27 29  1  0
 29 30  1  0
 30 31  1  0
 31 32  1  6
  7  5  1  0
 31 10  1  0
 31 13  1  0
 27 15  1  0
 24 18  1  0
  1 33  1  0
  1 34  1  0
  1 35  1  0
  2 36  1  6
  3 37  1  0
  3 38  1  0
  4 39  1  0
  4 40  1  0
  5 41  1  1
  8 42  1  0
  8 43  1  0
  8 44  1  0
  9 45  1  0
  9 46  1  0
  9 47  1  0
 10 48  1  1
 11 49  1  0
 11 50  1  0
 12 51  1  0
 12 52  1  0
 14 53  1  0
 14 54  1  0
 14 55  1  0
 15 56  1  6
 16 57  1  0
 16 58  1  0
 17 59  1  0
 19 60  1  1
 20 61  1  0
 20 62  1  0
 21 63  1  0
 21 64  1  0
 22 65  1  1
 23 66  1  0
 25 67  1  0
 25 68  1  0
 25 69  1  0
 26 70  1  0
 26 71  1  0
 26 72  1  0
 28 73  1  0
 28 74  1  0
 28 75  1  0
 29 76  1  0
 29 77  1  0
 30 78  1  0
 30 79  1  0
 32 80  1  0
 32 81  1  0
 32 82  1  0
M  END
>  <meeko>  (7) 
{"is_sidechain": [false], "intermolecular_energy": 2.731, "internal_energy": -0.839}

$$$$
EPH_relaxed_0001_pdb2pqr_Repair_46_r2_0001_out
     RDKit          3D

 82 86  0  0  0  0  0  0  0  0999 V2000
    0.4170    8.8210   -2.3730 C   0  0  0  0  0  0  0  0  0  0  0  0
    1.1600    9.9640   -3.0700 C   0  0  2  0  0  0  0  0  0  0  0  0
    2.6610    9.9810   -2.7180 C   0  0  0  0  0  0  0  0  0  0  0  0
    3.5440   10.5850   -3.8140 C   0  0  0  0  0  0  0  0  0  0  0  0
    4.9420   10.8230   -3.3310 C   0  0  2  0  0  0  0  0  0  0  0  0
    5.5380   12.0400   -3.8000 O   0  0  0  0  0  0  0  0  0  0  0  0
    6.1540   10.8200   -4.2440 C   0  0  0  0  0  0  0  0  0  0  0  0
    6.0230   10.5730   -5.7140 C   0  0  0  0  0  0  0  0  0  0  0  0
    7.5020   10.5720   -3.6430 C   0  0  0  0  0  0  0  0  0  0  0  0
    0.5230   11.2990   -2.7010 C   0  0  1  0  0  0  0  0  0  0  0  0
   -0.8450   11.1320   -1.9890 C   0  0  0  0  0  0  0  0  0  0  0  0
   -0.9510   12.2750   -0.9480 C   0  0  0  0  0  0  0  0  0  0  0  0
    0.1930   13.2470   -1.3190 C   0  0  1  0  0  0  0  0  0  0  0  0
   -0.3700   14.0990   -2.4990 C   0  0  0  0  0  0  0  0  0  0  0  0
    0.7360   14.1500   -0.1630 C   0  0  2  0  0  0  0  0  0  0  0  0
   -0.2900   15.1280    0.4370 C   0  0  0  0  0  0  0  0  0  0  0  0
   -0.3420   16.4720   -0.2100 C   0  0  0  0  0  0  0  0  0  0  0  0
    0.5900   16.9790   -1.0380 C   0  0  0  0  0  0  0  0  0  0  0  0
    1.8890   16.2150   -1.3240 C   0  0  1  0  0  0  0  0  0  0  0  0
    3.0950   17.1840   -1.2110 C   0  0  0  0  0  0  0  0  0  0  0  0
    2.9380   18.4180   -2.0940 C   0  0  0  0  0  0  0  0  0  0  0  0
    1.6650   19.1830   -1.7410 C   0  0  2  0  0  0  0  0  0  0  0  0
    1.8050   19.7280   -0.4250 O   0  0  0  0  0  0  0  0  0  0  0  0
    0.3840   18.3060   -1.8100 C   0  0  0  0  0  0  0  0  0  0  0  0
    0.0660   17.9650   -3.2870 C   0  0  0  0  0  0  0  0  0  0  0  0
   -0.8070   19.1580   -1.2960 C   0  0  0  0  0  0  0  0  0  0  0  0
    2.1020   14.8760   -0.4940 C   0  0  1  0  0  0  0  0  0  0  0  0
    2.7770   15.1990    0.8740 C   0  0  0  0  0  0  0  0  0  0  0  0
    3.1020   13.9420   -1.2730 C   0  0  0  0  0  0  0  0  0  0  0  0
    2.4920   12.9880   -2.3180 C   0  0  0  0  0  0  0  0  0  0  0  0
    1.3070   12.2160   -1.7300 C   0  0  2  0  0  0  0  0  0  0  0  0
    1.8480   11.3330   -0.5540 C   0  0  0  0  0  0  0  0  0  0  0  0
    0.4964    8.9431   -1.2827 H   0  0  0  0  0  0  0  0  0  0  0  0
   -0.6426    8.8389   -2.6678 H   0  0  0  0  0  0  0  0  0  0  0  0
    0.8634    7.8599   -2.6678 H   0  0  0  0  0  0  0  0  0  0  0  0
    1.0775    9.7997   -4.1545 H   0  0  0  0  0  0  0  0  0  0  0  0
    2.7955   10.5709   -1.7993 H   0  0  0  0  0  0  0  0  0  0  0  0
    2.9738    8.9337   -2.5941 H   0  0  0  0  0  0  0  0  0  0  0  0
    3.5750    9.8930   -4.6685 H   0  0  0  0  0  0  0  0  0  0  0  0
    3.1128   11.5537   -4.1067 H   0  0  0  0  0  0  0  0  0  0  0  0
    4.7294   10.3030   -2.3852 H   0  0  0  0  0  0  0  0  0  0  0  0
    5.5135    9.6124   -5.8804 H   0  0  0  0  0  0  0  0  0  0  0  0
    5.4361   11.3833   -6.1711 H   0  0  0  0  0  0  0  0  0  0  0  0
    7.0230   10.5417   -6.1711 H   0  0  0  0  0  0  0  0  0  0  0  0
    7.4227   10.5866   -2.5460 H   0  0  0  0  0  0  0  0  0  0  0  0
    7.8746    9.5902   -3.9707 H   0  0  0  0  0  0  0  0  0  0  0  0
    8.1996   11.3569   -3.9707 H   0  0  0  0  0  0  0  0  0  0  0  0
    0.4732   11.7612   -3.6980 H   0  0  0  0  0  0  0  0  0  0  0  0
   -1.6638   11.2081   -2.7196 H   0  0  0  0  0  0  0  0  0  0  0  0
   -0.9194   10.1479   -1.5032 H   0  0  0  0  0  0  0  0  0  0  0  0
   -1.9267   12.7776   -1.0210 H   0  0  0  0  0  0  0  0  0  0  0  0
   -0.8677   11.9074    0.0854 H   0  0  0  0  0  0  0  0  0  0  0  0
   -0.9346   14.9534   -2.0976 H   0  0  0  0  0  0  0  0  0  0  0  0
    0.4632   14.4672   -3.1156 H   0  0  0  0  0  0  0  0  0  0  0  0
   -1.0354   13.4769   -3.1156 H   0  0  0  0  0  0  0  0  0  0  0  0
    0.9490   13.4169    0.6289 H   0  0  0  0  0  0  0  0  0  0  0  0
   -1.2866   14.6704    0.3512 H   0  0  0  0  0  0  0  0  0  0  0  0
    0.0262   15.3020    1.4761 H   0  0  0  0  0  0  0  0  0  0  0  0
   -1.2168   17.1020    0.0086 H   0  0  0  0  0  0  0  0  0  0  0  0
    1.8037   15.8445   -2.3562 H   0  0  0  0  0  0  0  0  0  0  0  0
    3.1895   17.5089   -0.1643 H   0  0  0  0  0  0  0  0  0  0  0  0
    3.9911   16.6430   -1.5492 H   0  0  0  0  0  0  0  0  0  0  0  0
    3.8063   19.0775   -1.9487 H   0  0  0  0  0  0  0  0  0  0  0  0
    2.8730   18.0932   -3.1429 H   0  0  0  0  0  0  0  0  0  0  0  0
    1.5401   19.9792   -2.4897 H   0  0  0  0  0  0  0  0  0  0  0  0
    2.7190   19.5680   -0.1360 H   0  0  0  0  0  0  0  0  0  0  0  0
   -0.6838   17.1610   -3.3244 H   0  0  0  0  0  0  0  0  0  0  0  0
   -0.3289   18.8585   -3.7928 H   0  0  0  0  0  0  0  0  0  0  0  0
    0.9848   17.6334   -3.7928 H   0  0  0  0  0  0  0  0  0  0  0  0
   -0.8090   19.1595   -0.1960 H   0  0  0  0  0  0  0  0  0  0  0  0
   -0.7055   20.1897   -1.6638 H   0  0  0  0  0  0  0  0  0  0  0  0
   -1.7506   18.7287   -1.6638 H   0  0  0  0  0  0  0  0  0  0  0  0
    2.1150   14.8822    1.6934 H   0  0  0  0  0  0  0  0  0  0  0  0
    3.7338   14.6612    0.9468 H   0  0  0  0  0  0  0  0  0  0  0  0
    2.9584   16.2815    0.9468 H   0  0  0  0  0  0  0  0  0  0  0  0
    3.8237   14.5884   -1.7939 H   0  0  0  0  0  0  0  0  0  0  0  0
    3.5397   13.2862   -0.5059 H   0  0  0  0  0  0  0  0  0  0  0  0
    2.1463   13.5744   -3.1821 H   0  0  0  0  0  0  0  0  0  0  0  0
    3.2627   12.2661   -2.6260 H   0  0  0  0  0  0  0  0  0  0  0  0
    1.5680   11.7901    0.4066 H   0  0  0  0  0  0  0  0  0  0  0  0
    1.4121   10.3253   -0.6215 H   0  0  0  0  0  0  0  0  0  0  0  0
    2.9437   11.2638   -0.6215 H   0  0  0  0  0  0  0  0  0  0  0  0
  1  2  1  0
  2  3  1  0
  3  4  1  0
  4  5  1  0
  5  6  1  0
  6  7  1  0
  7  8  1  0
  7  9  1  0
  2 10  1  0
 10 11  1  0
 11 12  1  0
 12 13  1  0
 13 14  1  6
 13 15  1  0
 15 16  1  0
 16 17  1  0
 17 18  2  0
 18 19  1  0
 19 20  1  0
 20 21  1  0
 21 22  1  0
 22 23  1  0
 22 24  1  0
 24 25  1  0
 24 26  1  0
 19 27  1  0
 27 28  1  1
 27 29  1  0
 29 30  1  0
 30 31  1  0
 31 32  1  1
  7  5  1  0
 31 10  1  0
 31 13  1  0
 27 15  1  0
 24 18  1  0
  1 33  1  0
  1 34  1  0
  1 35  1  0
  2 36  1  6
  3 37  1  0
  3 38  1  0
  4 39  1  0
  4 40  1  0
  5 41  1  1
  8 42  1  0
  8 43  1  0
  8 44  1  0
  9 45  1  0
  9 46  1  0
  9 47  1  0
 10 48  1  6
 11 49  1  0
 11 50  1  0
 12 51  1  0
 12 52  1  0
 14 53  1  0
 14 54  1  0
 14 55  1  0
 15 56  1  1
 16 57  1  0
 16 58  1  0
 17 59  1  0
 19 60  1  6
 20 61  1  0
 20 62  1  0
 21 63  1  0
 21 64  1  0
 22 65  1  6
 23 66  1  0
 25 67  1  0
 25 68  1  0
 25 69  1  0
 26 70  1  0
 26 71  1  0
 26 72  1  0
 28 73  1  0
 28 74  1  0
 28 75  1  0
 29 76  1  0
 29 77  1  0
 30 78  1  0
 30 79  1  0
 32 80  1  0
 32 81  1  0
 32 82  1  0
M  END
>  <meeko>  (8) 
{"is_sidechain": [false], "intermolecular_energy": 2.731, "internal_energy": -0.839}

$$$$
EPH_relaxed_0001_pdb2pqr_Repair_46_r2_0001_out
     RDKit          3D

 82 86  0  0  0  0  0  0  0  0999 V2000
    3.4960   18.5140   -2.4880 C   0  0  0  0  0  0  0  0  0  0  0  0
    2.2170   17.7030   -2.7160 C   0  0  2  0  0  0  0  0  0  0  0  0
    0.9530   18.4830   -2.3030 C   0  0  0  0  0  0  0  0  0  0  0  0
    1.1690   19.4150   -1.1070 C   0  0  0  0  0  0  0  0  0  0  0  0
   -0.1080   20.0730   -0.6800 C   0  0  2  0  0  0  0  0  0  0  0  0
   -0.2730   20.1940    0.7390 O   0  0  0  0  0  0  0  0  0  0  0  0
   -1.2160   19.3480    0.0610 C   0  0  0  0  0  0  0  0  0  0  0  0
   -1.0980   17.8990    0.4170 C   0  0  0  0  0  0  0  0  0  0  0  0
   -2.6010   19.9120    0.0060 C   0  0  0  0  0  0  0  0  0  0  0  0
    2.2920   16.3880   -1.9490 C   0  0  1  0  0  0  0  0  0  0  0  0
    2.6260   16.5910   -0.4470 C   0  0  0  0  0  0  0  0  0  0  0  0
    1.8520   15.4990    0.3350 C   0  0  0  0  0  0  0  0  0  0  0  0
    1.3700   14.5090   -0.7510 C   0  0  1  0  0  0  0  0  0  0  0  0
    2.6050   13.6020   -1.0440 C   0  0  0  0  0  0  0  0  0  0  0  0
    0.1020   13.6640   -0.4010 C   0  0  2  0  0  0  0  0  0  0  0  0
    0.2610   12.7170    0.8010 C   0  0  0  0  0  0  0  0  0  0  0  0
    0.7420   11.3420    0.4710 C   0  0  0  0  0  0  0  0  0  0  0  0
    0.7630   10.7950   -0.7590 C   0  0  0  0  0  0  0  0  0  0  0  0
    0.1800   11.5440   -1.9640 C   0  0  1  0  0  0  0  0  0  0  0  0
   -0.7130   10.5810   -2.7890 C   0  0  0  0  0  0  0  0  0  0  0  0
    0.0200    9.3050   -3.1930 C   0  0  0  0  0  0  0  0  0  0  0  0
    0.5340    8.5590   -1.9650 C   0  0  2  0  0  0  0  0  0  0  0  0
   -0.5860    8.0790   -1.2150 O   0  0  0  0  0  0  0  0  0  0  0  0
    1.4390    9.4330   -1.0510 C   0  0  0  0  0  0  0  0  0  0  0  0
    2.7890    9.7020   -1.7610 C   0  0  0  0  0  0  0  0  0  0  0  0
    1.7730    8.6070    0.2200 C   0  0  0  0  0  0  0  0  0  0  0  0
   -0.5440   12.9210   -1.6400 C   0  0  1  0  0  0  0  0  0  0  0  0
   -2.0380   12.6640   -1.2760 C   0  0  0  0  0  0  0  0  0  0  0  0
   -0.5510   13.8150   -2.9370 C   0  0  0  0  0  0  0  0  0  0  0  0
    0.6760   14.7180   -3.1650 C   0  0  0  0  0  0  0  0  0  0  0  0
    1.0110   15.5180   -1.9020 C   0  0  2  0  0  0  0  0  0  0  0  0
   -0.2050   16.4570   -1.5950 C   0  0  0  0  0  0  0  0  0  0  0  0
    3.6718   18.6255   -1.4079 H   0  0  0  0  0  0  0  0  0  0  0  0
    4.3484   17.9910   -2.9462 H   0  0  0  0  0  0  0  0  0  0  0  0
    3.3864   19.5080   -2.9462 H   0  0  0  0  0  0  0  0  0  0  0  0
    2.1415   17.5005   -3.7946 H   0  0  0  0  0  0  0  0  0  0  0  0
    0.6228   19.0884   -3.1600 H   0  0  0  0  0  0  0  0  0  0  0  0
    0.2008   17.7397   -2.0001 H   0  0  0  0  0  0  0  0  0  0  0  0
    1.5669   18.8289   -0.2655 H   0  0  0  0  0  0  0  0  0  0  0  0
    1.8763   20.2017   -1.4084 H   0  0  0  0  0  0  0  0  0  0  0  0
   -0.1131   20.7024   -1.5821 H   0  0  0  0  0  0  0  0  0  0  0  0
   -1.0891   17.7899    1.5115 H   0  0  0  0  0  0  0  0  0  0  0  0
   -1.9543   17.3482    0.0005 H   0  0  0  0  0  0  0  0  0  0  0  0
   -0.1639   17.4940    0.0005 H   0  0  0  0  0  0  0  0  0  0  0  0
   -2.9757   20.0646    1.0289 H   0  0  0  0  0  0  0  0  0  0  0  0
   -2.5840   20.8748   -0.5257 H   0  0  0  0  0  0  0  0  0  0  0  0
   -3.2614   19.2112   -0.5257 H   0  0  0  0  0  0  0  0  0  0  0  0
    3.0722   15.8781   -2.5332 H   0  0  0  0  0  0  0  0  0  0  0  0
    3.7078   16.4806   -0.2813 H   0  0  0  0  0  0  0  0  0  0  0  0
    2.3366   17.5975   -0.1107 H   0  0  0  0  0  0  0  0  0  0  0  0
    2.5134   14.9943    1.0546 H   0  0  0  0  0  0  0  0  0  0  0  0
    1.0182   15.9160    0.9189 H   0  0  0  0  0  0  0  0  0  0  0  0
    3.0523   13.2735   -0.0942 H   0  0  0  0  0  0  0  0  0  0  0  0
    2.2851   12.7226   -1.6222 H   0  0  0  0  0  0  0  0  0  0  0  0
    3.3484   14.1704   -1.6222 H   0  0  0  0  0  0  0  0  0  0  0  0
   -0.6147   14.4350   -0.0818 H   0  0  0  0  0  0  0  0  0  0  0  0
    0.9808   13.1707    1.4982 H   0  0  0  0  0  0  0  0  0  0  0  0
   -0.7460   12.5932    1.2260 H   0  0  0  0  0  0  0  0  0  0  0  0
    1.1102   10.7241    1.3032 H   0  0  0  0  0  0  0  0  0  0  0  0
    1.0410   11.8648   -2.5688 H   0  0  0  0  0  0  0  0  0  0  0  0
   -1.5897   10.3074   -2.1836 H   0  0  0  0  0  0  0  0  0  0  0  0
   -1.0053   11.1044   -3.7113 H   0  0  0  0  0  0  0  0  0  0  0  0
   -0.6712    8.6529   -3.7471 H   0  0  0  0  0  0  0  0  0  0  0  0
    0.8794    9.5783   -3.8229 H   0  0  0  0  0  0  0  0  0  0  0  0
    1.1590    7.7273   -2.3221 H   0  0  0  0  0  0  0  0  0  0  0  0
   -1.0770    8.8530   -0.8910 H   0  0  0  0  0  0  0  0  0  0  0  0
    3.5748    9.8586   -1.0074 H   0  0  0  0  0  0  0  0  0  0  0  0
    3.0510    8.8384   -2.3899 H   0  0  0  0  0  0  0  0  0  0  0  0
    2.7000   10.6001   -2.3899 H   0  0  0  0  0  0  0  0  0  0  0  0
    1.5336    9.1992    1.1155 H   0  0  0  0  0  0  0  0  0  0  0  0
    1.1784    7.6815    0.2226 H   0  0  0  0  0  0  0  0  0  0  0  0
    2.8437    8.3549    0.2226 H   0  0  0  0  0  0  0  0  0  0  0  0
   -2.1507   12.6446   -0.1820 H   0  0  0  0  0  0  0  0  0  0  0  0
   -2.6610   13.4682   -1.6946 H   0  0  0  0  0  0  0  0  0  0  0  0
   -2.3564   11.6979   -1.6946 H   0  0  0  0  0  0  0  0  0  0  0  0
   -0.6353   13.1431   -3.8038 H   0  0  0  0  0  0  0  0  0  0  0  0
   -1.3965   14.5062   -2.8055 H   0  0  0  0  0  0  0  0  0  0  0  0
    1.5392   14.0911   -3.4333 H   0  0  0  0  0  0  0  0  0  0  0  0
    0.4457   15.4241   -3.9764 H   0  0  0  0  0  0  0  0  0  0  0  0
   -0.3287   16.5526   -0.5062 H   0  0  0  0  0  0  0  0  0  0  0  0
   -0.0211   17.4497   -2.0316 H   0  0  0  0  0  0  0  0  0  0  0  0
   -1.1189   16.0280   -2.0316 H   0  0  0  0  0  0  0  0  0  0  0  0
  1  2  1  0
  2  3  1  0
  3  4  1  0
  4  5  1  0
  5  6  1  0
  6  7  1  0
  7  8  1  0
  7  9  1  0
  2 10  1  0
 10 11  1  0
 11 12  1  0
 12 13  1  0
 13 14  1  6
 13 15  1  0
 15 16  1  0
 16 17  1  0
 17 18  2  0
 18 19  1  0
 19 20  1  0
 20 21  1  0
 21 22  1  0
 22 23  1  0
 22 24  1  0
 24 25  1  0
 24 26  1  0
 19 27  1  0
 27 28  1  1
 27 29  1  0
 29 30  1  0
 30 31  1  0
 31 32  1  1
  7  5  1  0
 31 10  1  0
 31 13  1  0
 27 15  1  0
 24 18  1  0
  1 33  1  0
  1 34  1  0
  1 35  1  0
  2 36  1  6
  3 37  1  0
  3 38  1  0
  4 39  1  0
  4 40  1  0
  5 41  1  6
  8 42  1  0
  8 43  1  0
  8 44  1  0
  9 45  1  0
  9 46  1  0
  9 47  1  0
 10 48  1  6
 11 49  1  0
 11 50  1  0
 12 51  1  0
 12 52  1  0
 14 53  1  0
 14 54  1  0
 14 55  1  0
 15 56  1  1
 16 57  1  0
 16 58  1  0
 17 59  1  0
 19 60  1  6
 20 61  1  0
 20 62  1  0
 21 63  1  0
 21 64  1  0
 22 65  1  6
 23 66  1  0
 25 67  1  0
 25 68  1  0
 25 69  1  0
 26 70  1  0
 26 71  1  0
 26 72  1  0
 28 73  1  0
 28 74  1  0
 28 75  1  0
 29 76  1  0
 29 77  1  0
 30 78  1  0
 30 79  1  0
 32 80  1  0
 32 81  1  0
 32 82  1  0
M  END
>  <meeko>  (9) 
{"is_sidechain": [false], "intermolecular_energy": 2.731, "internal_energy": -0.839}

$$$$
EPH_relaxed_0001_pdb2pqr_Repair_46_r2_0001_out
     RDKit          3D

 82 86  0  0  0  0  0  0  0  0999 V2000
   -0.5810   18.6850   -2.2640 C   0  0  0  0  0  0  0  0  0  0  0  0
    0.5080   18.1620   -1.3240 C   0  0  2  0  0  0  0  0  0  0  0  0
    1.7520   19.0730   -1.3120 C   0  0  0  0  0  0  0  0  0  0  0  0
    1.9740   19.7950    0.0190 C   0  0  0  0  0  0  0  0  0  0  0  0
    3.3690   19.6000    0.5300 C   0  0  2  0  0  0  0  0  0  0  0  0
    3.5300   18.4880    1.4210 O   0  0  0  0  0  0  0  0  0  0  0  0
    3.7620   19.7900    1.9830 C   0  0  0  0  0  0  0  0  0  0  0  0
    2.7580   20.1940    3.0170 C   0  0  0  0  0  0  0  0  0  0  0  0
    5.1990   20.0600    2.3060 C   0  0  0  0  0  0  0  0  0  0  0  0
    0.9040   16.7450   -1.7240 C   0  0  1  0  0  0  0  0  0  0  0  0
    2.3480   16.6650   -2.2890 C   0  0  0  0  0  0  0  0  0  0  0  0
    2.9310   15.3030   -1.8330 C   0  0  0  0  0  0  0  0  0  0  0  0
    1.7100   14.5100   -1.3130 C   0  0  1  0  0  0  0  0  0  0  0  0
    1.0310   13.9330   -2.5950 C   0  0  0  0  0  0  0  0  0  0  0  0
    2.0090   13.3890   -0.2650 C   0  0  2  0  0  0  0  0  0  0  0  0
    2.9020   12.2430   -0.7710 C   0  0  0  0  0  0  0  0  0  0  0  0
    2.1760   11.0900   -1.3800 C   0  0  0  0  0  0  0  0  0  0  0  0
    0.8570   10.8450   -1.2600 C   0  0  0  0  0  0  0  0  0  0  0  0
   -0.0300   11.7230   -0.3690 C   0  0  1  0  0  0  0  0  0  0  0  0
   -0.9370   10.8220    0.5080 C   0  0  0  0  0  0  0  0  0  0  0  0
   -1.7450    9.8260   -0.3180 C   0  0  0  0  0  0  0  0  0  0  0  0
   -0.8260    8.9310   -1.1460 C   0  0  2  0  0  0  0  0  0  0  0  0
   -0.0730    8.0980   -0.2600 O   0  0  0  0  0  0  0  0  0  0  0  0
    0.1420    9.7300   -2.0630 C   0  0  0  0  0  0  0  0  0  0  0  0
   -0.6570   10.3940   -3.2110 C   0  0  0  0  0  0  0  0  0  0  0  0
    1.1070    8.7170   -2.7350 C   0  0  0  0  0  0  0  0  0  0  0  0
    0.7250   12.8370    0.4780 C   0  0  1  0  0  0  0  0  0  0  0  0
    1.2170   12.2350    1.8290 C   0  0  0  0  0  0  0  0  0  0  0  0
   -0.2920   13.9810    0.8460 C   0  0  0  0  0  0  0  0  0  0  0  0
   -0.4550   15.1210   -0.1780 C   0  0  0  0  0  0  0  0  0  0  0  0
    0.9090   15.6670   -0.6120 C   0  0  2  0  0  0  0  0  0  0  0  0
    1.6060   16.2740    0.6530 C   0  0  0  0  0  0  0  0  0  0  0  0
   -1.4160   19.0860   -1.6707 H   0  0  0  0  0  0  0  0  0  0  0  0
   -0.1660   19.4820   -2.8984 H   0  0  0  0  0  0  0  0  0  0  0  0
   -0.9436   17.8628   -2.8984 H   0  0  0  0  0  0  0  0  0  0  0  0
    0.0918   18.1583   -0.3058 H   0  0  0  0  0  0  0  0  0  0  0  0
    2.6370   18.4548   -1.5234 H   0  0  0  0  0  0  0  0  0  0  0  0
    1.5893   19.8487   -2.0748 H   0  0  0  0  0  0  0  0  0  0  0  0
    1.7942   20.8706   -0.1247 H   0  0  0  0  0  0  0  0  0  0  0  0
    1.2764   19.3737    0.7579 H   0  0  0  0  0  0  0  0  0  0  0  0
    3.7922   19.9932   -0.4061 H   0  0  0  0  0  0  0  0  0  0  0  0
    3.1767   20.0255    4.0201 H   0  0  0  0  0  0  0  0  0  0  0  0
    2.5150   21.2599    2.8954 H   0  0  0  0  0  0  0  0  0  0  0  0
    1.8445   19.5935    2.8954 H   0  0  0  0  0  0  0  0  0  0  0  0
    5.3310   20.0848    3.3978 H   0  0  0  0  0  0  0  0  0  0  0  0
    5.8267   19.2641    1.8788 H   0  0  0  0  0  0  0  0  0  0  0  0
    5.4950   21.0295    1.8788 H   0  0  0  0  0  0  0  0  0  0  0  0
    0.1082   16.5302   -2.4524 H   0  0  0  0  0  0  0  0  0  0  0  0
    2.3287   16.7202   -3.3874 H   0  0  0  0  0  0  0  0  0  0  0  0
    2.9626   17.5006   -1.9228 H   0  0  0  0  0  0  0  0  0  0  0  0
    3.4024   14.7800   -2.6781 H   0  0  0  0  0  0  0  0  0  0  0  0
    3.7104   15.4191   -1.0655 H   0  0  0  0  0  0  0  0  0  0  0  0
    0.2226   13.2460   -2.3042 H   0  0  0  0  0  0  0  0  0  0  0  0
    0.6144   14.7576   -3.1920 H   0  0  0  0  0  0  0  0  0  0  0  0
    1.7776   13.3888   -3.1920 H   0  0  0  0  0  0  0  0  0  0  0  0
    2.6079   13.9236    0.4870 H   0  0  0  0  0  0  0  0  0  0  0  0
    3.5847   12.6537   -1.5295 H   0  0  0  0  0  0  0  0  0  0  0  0
    3.4168   11.8443    0.1156 H   0  0  0  0  0  0  0  0  0  0  0  0
    2.7679   10.3806   -1.9771 H   0  0  0  0  0  0  0  0  0  0  0  0
   -0.6491   12.3221   -1.0530 H   0  0  0  0  0  0  0  0  0  0  0  0
   -0.3036   10.2637    1.2131 H   0  0  0  0  0  0  0  0  0  0  0  0
   -1.6489   11.4753    1.0338 H   0  0  0  0  0  0  0  0  0  0  0  0
   -2.3437    9.1989    0.3590 H   0  0  0  0  0  0  0  0  0  0  0  0
   -2.3989   10.3864   -1.0023 H   0  0  0  0  0  0  0  0  0  0  0  0
   -1.4625    8.3288   -1.8110 H   0  0  0  0  0  0  0  0  0  0  0  0
   -0.5480    7.2540   -0.1740 H   0  0  0  0  0  0  0  0  0  0  0  0
   -1.4376   11.0427   -2.7870 H   0  0  0  0  0  0  0  0  0  0  0  0
    0.0235   10.9963   -3.8308 H   0  0  0  0  0  0  0  0  0  0  0  0
   -1.1246    9.6148   -3.8308 H   0  0  0  0  0  0  0  0  0  0  0  0
    1.6447    8.1526   -1.9589 H   0  0  0  0  0  0  0  0  0  0  0  0
    0.5298    8.0208   -3.3612 H   0  0  0  0  0  0  0  0  0  0  0  0
    1.8304    9.2597   -3.3612 H   0  0  0  0  0  0  0  0  0  0  0  0
    0.7639   12.7894    2.6641 H   0  0  0  0  0  0  0  0  0  0  0  0
    0.9217   11.1770    1.8882 H   0  0  0  0  0  0  0  0  0  0  0  0
    2.3126   12.3138    1.8882 H   0  0  0  0  0  0  0  0  0  0  0  0
   -1.2791   13.5163    0.9867 H   0  0  0  0  0  0  0  0  0  0  0  0
    0.1247   14.4587    1.7450 H   0  0  0  0  0  0  0  0  0  0  0  0
   -0.9870   14.7380   -1.0613 H   0  0  0  0  0  0  0  0  0  0  0  0
   -1.0257   15.9356    0.2917 H   0  0  0  0  0  0  0  0  0  0  0  0
    1.1376   15.8661    1.5609 H   0  0  0  0  0  0  0  0  0  0  0  0
    2.6747   16.0137    0.6431 H   0  0  0  0  0  0  0  0  0  0  0  0
    1.4950   17.3683    0.6431 H   0  0  0  0  0  0  0  0  0  0  0  0
  1  2  1  0
  2  3  1  0
  3  4  1  0
  4  5  1  0
  5  6  1  0
  6  7  1  0
  7  8  1  0
  7  9  1  0
  2 10  1  0
 10 11  1  0
 11 12  1  0
 12 13  1  0
 13 14  1  6
 13 15  1  0
 15 16  1  0
 16 17  1  0
 17 18  2  0
 18 19  1  0
 19 20  1  0
 20 21  1  0
 21 22  1  0
 22 23  1  0
 22 24  1  0
 24 25  1  0
 24 26  1  0
 19 27  1  0
 27 28  1  1
 27 29  1  0
 29 30  1  0
 30 31  1  0
 31 32  1  1
  7  5  1  0
 31 10  1  0
 31 13  1  0
 27 15  1  0
 24 18  1  0
  1 33  1  0
  1 34  1  0
  1 35  1  0
  2 36  1  1
  3 37  1  0
  3 38  1  0
  4 39  1  0
  4 40  1  0
  5 41  1  6
  8 42  1  0
  8 43  1  0
  8 44  1  0
  9 45  1  0
  9 46  1  0
  9 47  1  0
 10 48  1  6
 11 49  1  0
 11 50  1  0
 12 51  1  0
 12 52  1  0
 14 53  1  0
 14 54  1  0
 14 55  1  0
 15 56  1  1
 16 57  1  0
 16 58  1  0
 17 59  1  0
 19 60  1  6
 20 61  1  0
 20 62  1  0
 21 63  1  0
 21 64  1  0
 22 65  1  6
 23 66  1  0
 25 67  1  0
 25 68  1  0
 25 69  1  0
 26 70  1  0
 26 71  1  0
 26 72  1  0
 28 73  1  0
 28 74  1  0
 28 75  1  0
 29 76  1  0
 29 77  1  0
 30 78  1  0
 30 79  1  0
 32 80  1  0
 32 81  1  0
 32 82  1  0
M  END
>  <meeko>  (10) 
{"is_sidechain": [false], "intermolecular_energy": 2.731, "internal_energy": -0.839}

$$$$
EPH_relaxed_0001_pdb2pqr_Repair_46_r2_0001_out
     RDKit          3D

 82 86  0  0  0  0  0  0  0  0999 V2000
   -0.8780   16.3560   -5.8510 C   0  0  0  0  0  0  0  0  0  0  0  0
    0.2180   15.6620   -6.6650 C   0  0  2  0  0  0  0  0  0  0  0  0
   -0.1800   15.4870   -8.1440 C   0  0  0  0  0  0  0  0  0  0  0  0
    0.4710   16.5070   -9.0810 C   0  0  0  0  0  0  0  0  0  0  0  0
    1.8720   16.1140   -9.4420 C   0  0  2  0  0  0  0  0  0  0  0  0
    2.3530   16.6730  -10.6710 O   0  0  0  0  0  0  0  0  0  0  0  0
    2.2150   15.2430  -10.6360 C   0  0  0  0  0  0  0  0  0  0  0  0
    1.1520   14.7120  -11.5460 C   0  0  0  0  0  0  0  0  0  0  0  0
    3.5210   14.5110  -10.6360 C   0  0  0  0  0  0  0  0  0  0  0  0
    0.5430   14.3060   -6.0490 C   0  0  1  0  0  0  0  0  0  0  0  0
    1.8070   13.6550   -6.6700 C   0  0  0  0  0  0  0  0  0  0  0  0
    2.5210   12.8850   -5.5290 C   0  0  0  0  0  0  0  0  0  0  0  0
    1.4840   12.8400   -4.3820 C   0  0  1  0  0  0  0  0  0  0  0  0
    0.5300   11.6610   -4.7500 C   0  0  0  0  0  0  0  0  0  0  0  0
    2.0600   12.6870   -2.9360 C   0  0  2  0  0  0  0  0  0  0  0  0
    2.8340   11.3820   -2.6770 C   0  0  0  0  0  0  0  0  0  0  0  0
    2.0130   10.2440   -2.1680 C   0  0  0  0  0  0  0  0  0  0  0  0
    0.7710   10.3420   -1.6600 C   0  0  0  0  0  0  0  0  0  0  0  0
    0.1040   11.7100   -1.4670 C   0  0  1  0  0  0  0  0  0  0  0  0
   -0.5390   11.7790   -0.0570 C   0  0  0  0  0  0  0  0  0  0  0  0
   -1.4960   10.6200    0.2070 C   0  0  0  0  0  0  0  0  0  0  0  0
   -0.7820    9.2790    0.0630 C   0  0  2  0  0  0  0  0  0  0  0  0
    0.1870    9.1580    1.1090 O   0  0  0  0  0  0  0  0  0  0  0  0
   -0.0880    9.0990   -1.3160 C   0  0  0  0  0  0  0  0  0  0  0  0
   -1.1600    8.9290   -2.4200 C   0  0  0  0  0  0  0  0  0  0  0  0
    0.7120    7.7690   -1.2780 C   0  0  0  0  0  0  0  0  0  0  0  0
    1.0110   12.9740   -1.7870 C   0  0  1  0  0  0  0  0  0  0  0  0
    1.8340   13.3720   -0.5230 C   0  0  0  0  0  0  0  0  0  0  0  0
    0.0840   14.2030   -2.1170 C   0  0  0  0  0  0  0  0  0  0  0  0
   -0.3540   14.3680   -3.5850 C   0  0  0  0  0  0  0  0  0  0  0  0
    0.8470   14.2700   -4.5300 C   0  0  2  0  0  0  0  0  0  0  0  0
    1.8150   15.4560   -4.1980 C   0  0  0  0  0  0  0  0  0  0  0  0
   -0.6747   16.2273   -4.7776 H   0  0  0  0  0  0  0  0  0  0  0  0
   -0.8928   17.4284   -6.0953 H   0  0  0  0  0  0  0  0  0  0  0  0
   -1.8537   15.9108   -6.0953 H   0  0  0  0  0  0  0  0  0  0  0  0
    1.1092   16.3063   -6.6371 H   0  0  0  0  0  0  0  0  0  0  0  0
    0.1184   14.4787   -8.4670 H   0  0  0  0  0  0  0  0  0  0  0  0
   -1.2672   15.6425   -8.2049 H   0  0  0  0  0  0  0  0  0  0  0  0
   -0.1275   16.5783  -10.0012 H   0  0  0  0  0  0  0  0  0  0  0  0
    0.5101   17.4749   -8.5598 H   0  0  0  0  0  0  0  0  0  0  0  0
    2.1540   16.0549   -8.3804 H   0  0  0  0  0  0  0  0  0  0  0  0
    0.3275   14.3001  -10.9456 H   0  0  0  0  0  0  0  0  0  0  0  0
    0.7723   15.5263  -12.1806 H   0  0  0  0  0  0  0  0  0  0  0  0
    1.5750   13.9193  -12.1806 H   0  0  0  0  0  0  0  0  0  0  0  0
    3.8408   14.3317   -9.5989 H   0  0  0  0  0  0  0  0  0  0  0  0
    3.4017   13.5483  -11.1545 H   0  0  0  0  0  0  0  0  0  0  0  0
    4.2800   15.1152  -11.1545 H   0  0  0  0  0  0  0  0  0  0  0  0
   -0.3995   13.7782   -6.2569 H   0  0  0  0  0  0  0  0  0  0  0  0
    1.5195   12.9607   -7.4733 H   0  0  0  0  0  0  0  0  0  0  0  0
    2.4694   14.4170   -7.1066 H   0  0  0  0  0  0  0  0  0  0  0  0
    2.7861   11.8679   -5.8532 H   0  0  0  0  0  0  0  0  0  0  0  0
    3.4609   13.3680   -5.2236 H   0  0  0  0  0  0  0  0  0  0  0  0
    0.1520   11.1939   -3.8286 H   0  0  0  0  0  0  0  0  0  0  0  0
   -0.3154   12.0440   -5.3404 H   0  0  0  0  0  0  0  0  0  0  0  0
    1.0810   10.9141   -5.3404 H   0  0  0  0  0  0  0  0  0  0  0  0
    2.8083   13.4921   -2.8935 H   0  0  0  0  0  0  0  0  0  0  0  0
    3.2990   11.0690   -3.6235 H   0  0  0  0  0  0  0  0  0  0  0  0
    3.5608   11.6116   -1.8838 H   0  0  0  0  0  0  0  0  0  0  0  0
    2.4613    9.2405   -2.2119 H   0  0  0  0  0  0  0  0  0  0  0  0
   -0.6787   11.7781   -2.2369 H   0  0  0  0  0  0  0  0  0  0  0  0
    0.2614   11.7542    0.6972 H   0  0  0  0  0  0  0  0  0  0  0  0
   -1.1200   12.7113   -0.0002 H   0  0  0  0  0  0  0  0  0  0  0  0
   -1.8944   10.7078    1.2286 H   0  0  0  0  0  0  0  0  0  0  0  0
   -2.3120   10.6640   -0.5294 H   0  0  0  0  0  0  0  0  0  0  0  0
   -1.5449    8.4898    0.1350 H   0  0  0  0  0  0  0  0  0  0  0  0
    0.5990   10.0300    1.2310 H   0  0  0  0  0  0  0  0  0  0  0  0
   -2.1443    8.7729   -1.9544 H   0  0  0  0  0  0  0  0  0  0  0  0
   -1.1894    9.8337   -3.0450 H   0  0  0  0  0  0  0  0  0  0  0  0
   -0.9080    8.0596   -3.0450 H   0  0  0  0  0  0  0  0  0  0  0  0
    0.8879    7.4766   -0.2322 H   0  0  0  0  0  0  0  0  0  0  0  0
    0.1378    6.9811   -1.7874 H   0  0  0  0  0  0  0  0  0  0  0  0
    1.6771    7.9070   -1.7874 H   0  0  0  0  0  0  0  0  0  0  0  0
    1.2709   13.0997    0.3819 H   0  0  0  0  0  0  0  0  0  0  0  0
    2.7967   12.8399   -0.5298 H   0  0  0  0  0  0  0  0  0  0  0  0
    2.0147   14.4570   -0.5298 H   0  0  0  0  0  0  0  0  0  0  0  0
   -0.8262   14.1066   -1.5069 H   0  0  0  0  0  0  0  0  0  0  0  0
    0.6943   15.0913   -1.8970 H   0  0  0  0  0  0  0  0  0  0  0  0
   -1.0752   13.5764   -3.8364 H   0  0  0  0  0  0  0  0  0  0  0  0
   -0.8139   15.3601   -3.7043 H   0  0  0  0  0  0  0  0  0  0  0  0
    1.9026   15.5633   -3.1068 H   0  0  0  0  0  0  0  0  0  0  0  0
    2.8069   15.2508   -4.6271 H   0  0  0  0  0  0  0  0  0  0  0  0
    1.4153   16.3867   -4.6271 H   0  0  0  0  0  0  0  0  0  0  0  0
  1  2  1  0
  2  3  1  0
  3  4  1  0
  4  5  1  0
  5  6  1  0
  6  7  1  0
  7  8  1  0
  7  9  1  0
  2 10  1  0
 10 11  1  0
 11 12  1  0
 12 13  1  0
 13 14  1  6
 13 15  1  0
 15 16  1  0
 16 17  1  0
 17 18  2  0
 18 19  1  0
 19 20  1  0
 20 21  1  0
 21 22  1  0
 22 23  1  0
 22 24  1  0
 24 25  1  0
 24 26  1  0
 19 27  1  0
 27 28  1  1
 27 29  1  0
 29 30  1  0
 30 31  1  0
 31 32  1  1
  7  5  1  0
 31 10  1  0
 31 13  1  0
 27 15  1  0
 24 18  1  0
  1 33  1  0
  1 34  1  0
  1 35  1  0
  2 36  1  6
  3 37  1  0
  3 38  1  0
  4 39  1  0
  4 40  1  0
  5 41  1  1
  8 42  1  0
  8 43  1  0
  8 44  1  0
  9 45  1  0
  9 46  1  0
  9 47  1  0
 10 48  1  1
 11 49  1  0
 11 50  1  0
 12 51  1  0
 12 52  1  0
 14 53  1  0
 14 54  1  0
 14 55  1  0
 15 56  1  6
 16 57  1  0
 16 58  1  0
 17 59  1  0
 19 60  1  6
 20 61  1  0
 20 62  1  0
 21 63  1  0
 21 64  1  0
 22 65  1  1
 23 66  1  0
 25 67  1  0
 25 68  1  0
 25 69  1  0
 26 70  1  0
 26 71  1  0
 26 72  1  0
 28 73  1  0
 28 74  1  0
 28 75  1  0
 29 76  1  0
 29 77  1  0
 30 78  1  0
 30 79  1  0
 32 80  1  0
 32 81  1  0
 32 82  1  0
M  END
>  <meeko>  (11) 
{"is_sidechain": [false], "intermolecular_energy": 2.731, "internal_energy": -0.839}

$$$$
EPH_relaxed_0001_pdb2pqr_Repair_46_r2_0001_out
     RDKit          3D

 82 86  0  0  0  0  0  0  0  0999 V2000
    2.8320   11.3560   -5.3900 C   0  0  0  0  0  0  0  0  0  0  0  0
    1.8390   11.0490   -4.2670 C   0  0  2  0  0  0  0  0  0  0  0  0
    0.7190   10.0940   -4.7270 C   0  0  0  0  0  0  0  0  0  0  0  0
   -0.3470    9.8350   -3.6580 C   0  0  0  0  0  0  0  0  0  0  0  0
    0.1990    9.0380   -2.5120 C   0  0  2  0  0  0  0  0  0  0  0  0
   -0.6250    7.9400   -2.1000 O   0  0  0  0  0  0  0  0  0  0  0  0
   -0.4470    8.9950   -1.1400 C   0  0  0  0  0  0  0  0  0  0  0  0
   -1.6960    9.7630   -0.8420 C   0  0  0  0  0  0  0  0  0  0  0  0
    0.3940    8.6040    0.0350 C   0  0  0  0  0  0  0  0  0  0  0  0
    1.2340   12.3450   -3.7390 C   0  0  1  0  0  0  0  0  0  0  0  0
   -0.3060   12.2570   -3.5630 C   0  0  0  0  0  0  0  0  0  0  0  0
   -0.6630   13.1110   -2.3190 C   0  0  0  0  0  0  0  0  0  0  0  0
    0.6200   13.9210   -2.0200 C   0  0  1  0  0  0  0  0  0  0  0  0
    0.5750   15.1240   -3.0140 C   0  0  0  0  0  0  0  0  0  0  0  0
    0.8070   14.3990   -0.5440 C   0  0  2  0  0  0  0  0  0  0  0  0
   -0.2720   15.3690   -0.0300 C   0  0  0  0  0  0  0  0  0  0  0  0
    0.0200   16.8170   -0.2400 C   0  0  0  0  0  0  0  0  0  0  0  0
    1.2220   17.3350   -0.5570 C   0  0  0  0  0  0  0  0  0  0  0  0
    2.4670   16.4430   -0.6390 C   0  0  1  0  0  0  0  0  0  0  0  0
    3.6410   17.1210    0.1150 C   0  0  0  0  0  0  0  0  0  0  0  0
    3.9070   18.5420   -0.3730 C   0  0  0  0  0  0  0  0  0  0  0  0
    2.6630   19.4130   -0.2210 C   0  0  2  0  0  0  0  0  0  0  0  0
    2.3880   19.5840    1.1730 O   0  0  0  0  0  0  0  0  0  0  0  0
    1.4130   18.8250   -0.9330 C   0  0  0  0  0  0  0  0  0  0  0  0
    1.5950   18.9200   -2.4680 C   0  0  0  0  0  0  0  0  0  0  0  0
    0.1970   19.7260   -0.5830 C   0  0  0  0  0  0  0  0  0  0  0  0
    2.2620   14.9260   -0.2120 C   0  0  1  0  0  0  0  0  0  0  0  0
    2.4500   14.7770    1.3280 C   0  0  0  0  0  0  0  0  0  0  0  0
    3.3840   14.0470   -0.8830 C   0  0  0  0  0  0  0  0  0  0  0  0
    3.0900   13.5050   -2.2950 C   0  0  0  0  0  0  0  0  0  0  0  0
    1.7120   12.8390   -2.3510 C   0  0  2  0  0  0  0  0  0  0  0  0
    1.7340   11.6120   -1.3770 C   0  0  0  0  0  0  0  0  0  0  0  0
    3.7971   11.6544   -4.9546 H   0  0  0  0  0  0  0  0  0  0  0  0
    2.9717   10.4591   -6.0113 H   0  0  0  0  0  0  0  0  0  0  0  0
    2.4411   12.1752   -6.0113 H   0  0  0  0  0  0  0  0  0  0  0  0
    2.3946   10.5435   -3.4634 H   0  0  0  0  0  0  0  0  0  0  0  0
    0.2280   10.5334   -5.6078 H   0  0  0  0  0  0  0  0  0  0  0  0
    1.1928    9.1265   -4.9496 H   0  0  0  0  0  0  0  0  0  0  0  0
   -0.7131   10.8004   -3.2784 H   0  0  0  0  0  0  0  0  0  0  0  0
   -1.1620    9.2580   -4.1193 H   0  0  0  0  0  0  0  0  0  0  0  0
    1.2315    9.2367   -2.8352 H   0  0  0  0  0  0  0  0  0  0  0  0
   -1.8261    9.8430    0.2473 H   0  0  0  0  0  0  0  0  0  0  0  0
   -1.6196   10.7704   -1.2771 H   0  0  0  0  0  0  0  0  0  0  0  0
   -2.5605    9.2402   -1.2771 H   0  0  0  0  0  0  0  0  0  0  0  0
   -0.1382    8.8514    0.9654 H   0  0  0  0  0  0  0  0  0  0  0  0
    0.5904    7.5222    0.0015 H   0  0  0  0  0  0  0  0  0  0  0  0
    1.3477    9.1511    0.0015 H   0  0  0  0  0  0  0  0  0  0  0  0
    1.5724   13.0392   -4.5223 H   0  0  0  0  0  0  0  0  0  0  0  0
   -0.8126   12.6556   -4.4543 H   0  0  0  0  0  0  0  0  0  0  0  0
   -0.6299   11.2139   -3.4325 H   0  0  0  0  0  0  0  0  0  0  0  0
   -1.5047   13.7842   -2.5388 H   0  0  0  0  0  0  0  0  0  0  0  0
   -0.9744   12.4927   -1.4642 H   0  0  0  0  0  0  0  0  0  0  0  0
    0.5397   16.0664   -2.4477 H   0  0  0  0  0  0  0  0  0  0  0  0
    1.4743   15.1102   -3.6473 H   0  0  0  0  0  0  0  0  0  0  0  0
   -0.3207   15.0430   -3.6473 H   0  0  0  0  0  0  0  0  0  0  0  0
    0.6672   13.4675    0.0241 H   0  0  0  0  0  0  0  0  0  0  0  0
   -1.2142   15.1339   -0.5467 H   0  0  0  0  0  0  0  0  0  0  0  0
   -0.3183   15.2229    1.0593 H   0  0  0  0  0  0  0  0  0  0  0  0
   -0.8175   17.5211   -0.1263 H   0  0  0  0  0  0  0  0  0  0  0  0
    2.7104   16.3582   -1.7084 H   0  0  0  0  0  0  0  0  0  0  0  0
    3.3980   17.1561    1.1872 H   0  0  0  0  0  0  0  0  0  0  0  0
    4.5473   16.5274   -0.0755 H   0  0  0  0  0  0  0  0  0  0  0  0
    4.7261   18.9780    0.2177 H   0  0  0  0  0  0  0  0  0  0  0  0
    4.1796   18.5021   -1.4379 H   0  0  0  0  0  0  0  0  0  0  0  0
    2.8740   20.3779   -0.7052 H   0  0  0  0  0  0  0  0  0  0  0  0
    2.7910   18.8370    1.6460 H   0  0  0  0  0  0  0  0  0  0  0  0
    2.5494   19.4181   -2.6939 H   0  0  0  0  0  0  0  0  0  0  0  0
    1.5981   17.9085   -2.9002 H   0  0  0  0  0  0  0  0  0  0  0  0
    0.7669   19.5009   -2.9002 H   0  0  0  0  0  0  0  0  0  0  0  0
    0.0977   19.7996    0.5100 H   0  0  0  0  0  0  0  0  0  0  0  0
    0.3508   20.7299   -1.0056 H   0  0  0  0  0  0  0  0  0  0  0  0
   -0.7186   19.2866   -1.0056 H   0  0  0  0  0  0  0  0  0  0  0  0
    1.6911   15.3784    1.8499 H   0  0  0  0  0  0  0  0  0  0  0  0
    2.3379   13.7198    1.6105 H   0  0  0  0  0  0  0  0  0  0  0  0
    3.4536   15.1276    1.6105 H   0  0  0  0  0  0  0  0  0  0  0  0
    4.2949   14.6605   -0.9450 H   0  0  0  0  0  0  0  0  0  0  0  0
    3.4715   13.1554   -0.2448 H   0  0  0  0  0  0  0  0  0  0  0  0
    3.1164   14.3381   -3.0129 H   0  0  0  0  0  0  0  0  0  0  0  0
    3.8529   12.7540   -2.5481 H   0  0  0  0  0  0  0  0  0  0  0  0
    1.7276   11.9695   -0.3367 H   0  0  0  0  0  0  0  0  0  0  0  0
    0.8469   10.9864   -1.5552 H   0  0  0  0  0  0  0  0  0  0  0  0
    2.6429   11.0186   -1.5552 H   0  0  0  0  0  0  0  0  0  0  0  0
  1  2  1  0
  2  3  1  0
  3  4  1  0
  4  5  1  0
  5  6  1  0
  6  7  1  0
  7  8  1  0
  7  9  1  0
  2 10  1  0
 10 11  1  0
 11 12  1  0
 12 13  1  0
 13 14  1  6
 13 15  1  0
 15 16  1  0
 16 17  1  0
 17 18  2  0
 18 19  1  0
 19 20  1  0
 20 21  1  0
 21 22  1  0
 22 23  1  0
 22 24  1  0
 24 25  1  0
 24 26  1  0
 19 27  1  0
 27 28  1  1
 27 29  1  0
 29 30  1  0
 30 31  1  0
 31 32  1  1
  7  5  1  0
 31 10  1  0
 31 13  1  0
 27 15  1  0
 24 18  1  0
  1 33  1  0
  1 34  1  0
  1 35  1  0
  2 36  1  1
  3 37  1  0
  3 38  1  0
  4 39  1  0
  4 40  1  0
  5 41  1  1
  8 42  1  0
  8 43  1  0
  8 44  1  0
  9 45  1  0
  9 46  1  0
  9 47  1  0
 10 48  1  6
 11 49  1  0
 11 50  1  0
 12 51  1  0
 12 52  1  0
 14 53  1  0
 14 54  1  0
 14 55  1  0
 15 56  1  1
 16 57  1  0
 16 58  1  0
 17 59  1  0
 19 60  1  6
 20 61  1  0
 20 62  1  0
 21 63  1  0
 21 64  1  0
 22 65  1  6
 23 66  1  0
 25 67  1  0
 25 68  1  0
 25 69  1  0
 26 70  1  0
 26 71  1  0
 26 72  1  0
 28 73  1  0
 28 74  1  0
 28 75  1  0
 29 76  1  0
 29 77  1  0
 30 78  1  0
 30 79  1  0
 32 80  1  0
 32 81  1  0
 32 82  1  0
M  END
>  <meeko>  (12) 
{"is_sidechain": [false], "intermolecular_energy": 2.731, "internal_energy": -0.839}

$$$$
EPH_relaxed_0001_pdb2pqr_Repair_46_r2_0001_out
     RDKit          3D

 82 86  0  0  0  0  0  0  0  0999 V2000
   -4.9390    7.3150   -2.9780 C   0  0  0  0  0  0  0  0  0  0  0  0
   -4.5550    7.3820   -1.4970 C   0  0  2  0  0  0  0  0  0  0  0  0
   -5.7840    7.2680   -0.5730 C   0  0  0  0  0  0  0  0  0  0  0  0
   -7.0840    7.7610   -1.2140 C   0  0  0  0  0  0  0  0  0  0  0  0
   -8.2590    7.5700   -0.3030 C   0  0  2  0  0  0  0  0  0  0  0  0
   -8.8480    6.2640   -0.3520 O   0  0  0  0  0  0  0  0  0  0  0  0
   -9.6760    7.3500   -0.8000 C   0  0  0  0  0  0  0  0  0  0  0  0
   -9.9930    7.3110   -2.2620 C   0  0  0  0  0  0  0  0  0  0  0  0
  -10.8140    7.6610    0.1220 C   0  0  0  0  0  0  0  0  0  0  0  0
   -3.8080    8.6800   -1.2120 C   0  0  1  0  0  0  0  0  0  0  0  0
   -4.2650    9.3540    0.1090 C   0  0  0  0  0  0  0  0  0  0  0  0
   -3.0090   10.0200    0.7290 C   0  0  0  0  0  0  0  0  0  0  0  0
   -1.9550    9.9950   -0.4040 C   0  0  1  0  0  0  0  0  0  0  0  0
   -2.3100   11.2160   -1.3090 C   0  0  0  0  0  0  0  0  0  0  0  0
   -0.4580   10.0250    0.0450 C   0  0  2  0  0  0  0  0  0  0  0  0
   -0.0310   11.2910    0.8080 C   0  0  0  0  0  0  0  0  0  0  0  0
    0.4940   12.4010   -0.0420 C   0  0  0  0  0  0  0  0  0  0  0  0
    0.8840   12.2860   -1.3250 C   0  0  0  0  0  0  0  0  0  0  0  0
    0.9090   10.9200   -2.0210 C   0  0  1  0  0  0  0  0  0  0  0  0
    2.2490   10.7530   -2.7850 C   0  0  0  0  0  0  0  0  0  0  0  0
    2.5200   11.9040   -3.7490 C   0  0  0  0  0  0  0  0  0  0  0  0
    2.5440   13.2400   -3.0100 C   0  0  2  0  0  0  0  0  0  0  0  0
    3.6760   13.2620   -2.1350 O   0  0  0  0  0  0  0  0  0  0  0  0
    1.2490   13.5130   -2.1960 C   0  0  0  0  0  0  0  0  0  0  0  0
    0.0730   13.7890   -3.1660 C   0  0  0  0  0  0  0  0  0  0  0  0
    1.4610   14.8220   -1.3880 C   0  0  0  0  0  0  0  0  0  0  0  0
    0.5700    9.6670   -1.1030 C   0  0  1  0  0  0  0  0  0  0  0  0
    1.8650    9.1580   -0.3990 C   0  0  0  0  0  0  0  0  0  0  0  0
    0.0640    8.4850   -2.0130 C   0  0  0  0  0  0  0  0  0  0  0  0
   -1.4440    8.4430   -2.3220 C   0  0  0  0  0  0  0  0  0  0  0  0
   -2.2710    8.5930   -1.0410 C   0  0  2  0  0  0  0  0  0  0  0  0
   -1.9510    7.3660   -0.1200 C   0  0  0  0  0  0  0  0  0  0  0  0
   -6.0189    7.1266   -3.0686 H   0  0  0  0  0  0  0  0  0  0  0  0
   -4.6913    8.2699   -3.4646 H   0  0  0  0  0  0  0  0  0  0  0  0
   -4.3826    6.5004   -3.4646 H   0  0  0  0  0  0  0  0  0  0  0  0
   -3.9017    6.5227   -1.2852 H   0  0  0  0  0  0  0  0  0  0  0  0
   -5.9127    6.2115   -0.2952 H   0  0  0  0  0  0  0  0  0  0  0  0
   -5.5915    7.9109    0.2986 H   0  0  0  0  0  0  0  0  0  0  0  0
   -6.9833    8.8315   -1.4461 H   0  0  0  0  0  0  0  0  0  0  0  0
   -7.2597    7.1741   -2.1276 H   0  0  0  0  0  0  0  0  0  0  0  0
   -7.8350    8.2721    0.4300 H   0  0  0  0  0  0  0  0  0  0  0  0
  -11.0763    7.1777   -2.3989 H   0  0  0  0  0  0  0  0  0  0  0  0
   -9.6775    8.2547   -2.7309 H   0  0  0  0  0  0  0  0  0  0  0  0
   -9.4582    6.4719   -2.7309 H   0  0  0  0  0  0  0  0  0  0  0  0
  -10.4766    7.5688    1.1649 H   0  0  0  0  0  0  0  0  0  0  0  0
  -11.1639    8.6877   -0.0608 H   0  0  0  0  0  0  0  0  0  0  0  0
  -11.6375    6.9550   -0.0608 H   0  0  0  0  0  0  0  0  0  0  0  0
   -4.0534    9.2390   -2.1270 H   0  0  0  0  0  0  0  0  0  0  0  0
   -5.0329   10.1136   -0.0992 H   0  0  0  0  0  0  0  0  0  0  0  0
   -4.7020    8.6165    0.7982 H   0  0  0  0  0  0  0  0  0  0  0  0
   -3.2279   11.0542    1.0331 H   0  0  0  0  0  0  0  0  0  0  0  0
   -2.6627    9.4973    1.6328 H   0  0  0  0  0  0  0  0  0  0  0  0
   -2.5613   12.0803   -0.6767 H   0  0  0  0  0  0  0  0  0  0  0  0
   -1.4470   11.4649   -1.9441 H   0  0  0  0  0  0  0  0  0  0  0  0
   -3.1719   10.9634   -1.9441 H   0  0  0  0  0  0  0  0  0  0  0  0
   -0.4150    9.2061    0.7782 H   0  0  0  0  0  0  0  0  0  0  0  0
   -0.9061   11.6682    1.3574 H   0  0  0  0  0  0  0  0  0  0  0  0
    0.8011   10.9873    1.4603 H   0  0  0  0  0  0  0  0  0  0  0  0
    0.5682   13.3967    0.4195 H   0  0  0  0  0  0  0  0  0  0  0  0
    0.0708   10.9264   -2.7333 H   0  0  0  0  0  0  0  0  0  0  0  0
    3.0687   10.7056   -2.0530 H   0  0  0  0  0  0  0  0  0  0  0  0
    2.1823    9.8291   -3.3783 H   0  0  0  0  0  0  0  0  0  0  0  0
    3.4934   11.7443   -4.2359 H   0  0  0  0  0  0  0  0  0  0  0  0
    1.7152   11.9315   -4.4984 H   0  0  0  0  0  0  0  0  0  0  0  0
    2.6115   14.0350   -3.7673 H   0  0  0  0  0  0  0  0  0  0  0  0
    3.7080   14.1390   -1.7160 H   0  0  0  0  0  0  0  0  0  0  0  0
   -0.8375   14.0027   -2.5869 H   0  0  0  0  0  0  0  0  0  0  0  0
    0.3160   14.6545   -3.7999 H   0  0  0  0  0  0  0  0  0  0  0  0
   -0.0945   12.9058   -3.7999 H   0  0  0  0  0  0  0  0  0  0  0  0
    1.4248   14.5984   -0.3116 H   0  0  0  0  0  0  0  0  0  0  0  0
    2.4408   15.2539   -1.6400 H   0  0  0  0  0  0  0  0  0  0  0  0
    0.6676   15.5410   -1.6400 H   0  0  0  0  0  0  0  0  0  0  0  0
    1.7337    9.2096    0.6919 H   0  0  0  0  0  0  0  0  0  0  0  0
    2.0588    8.1168   -0.6962 H   0  0  0  0  0  0  0  0  0  0  0  0
    2.7159    9.7886   -0.6962 H   0  0  0  0  0  0  0  0  0  0  0  0
    0.5985    8.5512   -2.9721 H   0  0  0  0  0  0  0  0  0  0  0  0
    0.2650    7.5707   -1.4353 H   0  0  0  0  0  0  0  0  0  0  0  0
   -1.6934    9.2646   -3.0095 H   0  0  0  0  0  0  0  0  0  0  0  0
   -1.6810    7.4716   -2.7806 H   0  0  0  0  0  0  0  0  0  0  0  0
   -2.0299    7.6687    0.9346 H   0  0  0  0  0  0  0  0  0  0  0  0
   -2.6683    6.5574   -0.3241 H   0  0  0  0  0  0  0  0  0  0  0  0
   -0.9302    7.0107   -0.3241 H   0  0  0  0  0  0  0  0  0  0  0  0
  1  2  1  0
  2  3  1  0
  3  4  1  0
  4  5  1  0
  5  6  1  0
  6  7  1  0
  7  8  1  0
  7  9  1  0
  2 10  1  0
 10 11  1  0
 11 12  1  0
 12 13  1  0
 13 14  1  6
 13 15  1  0
 15 16  1  0
 16 17  1  0
 17 18  2  0
 18 19  1  0
 19 20  1  0
 20 21  1  0
 21 22  1  0
 22 23  1  0
 22 24  1  0
 24 25  1  0
 24 26  1  0
 19 27  1  0
 27 28  1  1
 27 29  1  0
 29 30  1  0
 30 31  1  0
 31 32  1  1
  7  5  1  0
 31 10  1  0
 31 13  1  0
 27 15  1  0
 24 18  1  0
  1 33  1  0
  1 34  1  0
  1 35  1  0
  2 36  1  1
  3 37  1  0
  3 38  1  0
  4 39  1  0
  4 40  1  0
  5 41  1  1
  8 42  1  0
  8 43  1  0
  8 44  1  0
  9 45  1  0
  9 46  1  0
  9 47  1  0
 10 48  1  6
 11 49  1  0
 11 50  1  0
 12 51  1  0
 12 52  1  0
 14 53  1  0
 14 54  1  0
 14 55  1  0
 15 56  1  1
 16 57  1  0
 16 58  1  0
 17 59  1  0
 19 60  1  6
 20 61  1  0
 20 62  1  0
 21 63  1  0
 21 64  1  0
 22 65  1  6
 23 66  1  0
 25 67  1  0
 25 68  1  0
 25 69  1  0
 26 70  1  0
 26 71  1  0
 26 72  1  0
 28 73  1  0
 28 74  1  0
 28 75  1  0
 29 76  1  0
 29 77  1  0
 30 78  1  0
 30 79  1  0
 32 80  1  0
 32 81  1  0
 32 82  1  0
M  END
>  <meeko>  (13) 
{"is_sidechain": [false], "intermolecular_energy": 2.731, "internal_energy": -0.839}

$$$$
EPH_relaxed_0001_pdb2pqr_Repair_46_r2_0001_out
     RDKit          3D

 82 86  0  0  0  0  0  0  0  0999 V2000
   -2.3140    7.8240   -2.1490 C   0  0  0  0  0  0  0  0  0  0  0  0
   -2.4410    8.4920   -0.7770 C   0  0  2  0  0  0  0  0  0  0  0  0
   -3.9020    8.5320   -0.2840 C   0  0  0  0  0  0  0  0  0  0  0  0
   -4.7570    7.3720   -0.8000 C   0  0  0  0  0  0  0  0  0  0  0  0
   -5.7570    7.8310   -1.8190 C   0  0  2  0  0  0  0  0  0  0  0  0
   -6.4370    9.0470   -1.4840 O   0  0  0  0  0  0  0  0  0  0  0  0
   -7.2520    7.8670   -1.5660 C   0  0  0  0  0  0  0  0  0  0  0  0
   -7.8330    7.4360   -0.2560 C   0  0  0  0  0  0  0  0  0  0  0  0
   -8.1770    7.8540   -2.7430 C   0  0  0  0  0  0  0  0  0  0  0  0
   -1.8720    9.9050   -0.8320 C   0  0  1  0  0  0  0  0  0  0  0  0
   -1.4300   10.4260    0.5610 C   0  0  0  0  0  0  0  0  0  0  0  0
   -0.1800   11.3130    0.3320 C   0  0  0  0  0  0  0  0  0  0  0  0
   -0.1400   11.5430   -1.1970 C   0  0  1  0  0  0  0  0  0  0  0  0
   -1.1610   12.6960   -1.4560 C   0  0  0  0  0  0  0  0  0  0  0  0
    1.2610   11.8640   -1.8120 C   0  0  2  0  0  0  0  0  0  0  0  0
    1.9120   13.1640   -1.3090 C   0  0  0  0  0  0  0  0  0  0  0  0
    1.5950   14.3860   -2.1050 C   0  0  0  0  0  0  0  0  0  0  0  0
    1.0540   14.3980   -3.3380 C   0  0  0  0  0  0  0  0  0  0  0  0
    0.7960   13.0910   -4.0970 C   0  0  1  0  0  0  0  0  0  0  0  0
    1.3080   13.2280   -5.5550 C   0  0  0  0  0  0  0  0  0  0  0  0
    0.7230   14.4430   -6.2680 C   0  0  0  0  0  0  0  0  0  0  0  0
    1.0500   15.7290   -5.5140 C   0  0  2  0  0  0  0  0  0  0  0  0
    2.4620   15.9530   -5.5760 O   0  0  0  0  0  0  0  0  0  0  0  0
    0.5900   15.7030   -4.0300 C   0  0  0  0  0  0  0  0  0  0  0  0
   -0.9560   15.7650   -3.9630 C   0  0  0  0  0  0  0  0  0  0  0  0
    1.1050   16.9990   -3.3470 C   0  0  0  0  0  0  0  0  0  0  0  0
    1.3140   11.7650   -3.3910 C   0  0  1  0  0  0  0  0  0  0  0  0
    2.8050   11.5080   -3.7700 C   0  0  0  0  0  0  0  0  0  0  0  0
    0.4980   10.5360   -3.9410 C   0  0  0  0  0  0  0  0  0  0  0  0
   -0.8190   10.1960   -3.2160 C   0  0  0  0  0  0  0  0  0  0  0  0
   -0.6080   10.1290   -1.7000 C   0  0  2  0  0  0  0  0  0  0  0  0
    0.3970    8.9630   -1.4080 C   0  0  0  0  0  0  0  0  0  0  0  0
   -2.1100    6.7512   -2.0170 H   0  0  0  0  0  0  0  0  0  0  0  0
   -3.2527    7.9527   -2.7078 H   0  0  0  0  0  0  0  0  0  0  0  0
   -1.4880    8.2882   -2.7078 H   0  0  0  0  0  0  0  0  0  0  0  0
   -1.8663    7.8872   -0.0601 H   0  0  0  0  0  0  0  0  0  0  0  0
   -3.8986    8.4988    0.8155 H   0  0  0  0  0  0  0  0  0  0  0  0
   -4.3479    9.4587   -0.6743 H   0  0  0  0  0  0  0  0  0  0  0  0
   -4.0983    6.6207   -1.2601 H   0  0  0  0  0  0  0  0  0  0  0  0
   -5.3065    6.9453    0.0520 H   0  0  0  0  0  0  0  0  0  0  0  0
   -5.1571    7.4029   -2.6356 H   0  0  0  0  0  0  0  0  0  0  0  0
   -7.2462    7.8713    0.5663 H   0  0  0  0  0  0  0  0  0  0  0  0
   -8.8750    7.7813   -0.1857 H   0  0  0  0  0  0  0  0  0  0  0  0
   -7.8048    6.3386   -0.1857 H   0  0  0  0  0  0  0  0  0  0  0  0
   -9.2189    7.8394   -2.3904 H   0  0  0  0  0  0  0  0  0  0  0  0
   -8.0085    8.7546   -3.3517 H   0  0  0  0  0  0  0  0  0  0  0  0
   -7.9833    6.9585   -3.3517 H   0  0  0  0  0  0  0  0  0  0  0  0
   -2.7306   10.4323   -1.2733 H   0  0  0  0  0  0  0  0  0  0  0  0
   -2.2366   11.0190    1.0168 H   0  0  0  0  0  0  0  0  0  0  0  0
   -1.2023    9.5913    1.2403 H   0  0  0  0  0  0  0  0  0  0  0  0
   -0.2793   12.2695    0.8662 H   0  0  0  0  0  0  0  0  0  0  0  0
    0.7404   10.8419    0.7073 H   0  0  0  0  0  0  0  0  0  0  0  0
   -1.5147   13.0955   -0.4941 H   0  0  0  0  0  0  0  0  0  0  0  0
   -0.6713   13.4978   -2.0282 H   0  0  0  0  0  0  0  0  0  0  0  0
   -2.0161   12.3069   -2.0282 H   0  0  0  0  0  0  0  0  0  0  0  0
    1.8836   11.0465   -1.4194 H   0  0  0  0  0  0  0  0  0  0  0  0
    1.5755   13.3348   -0.2758 H   0  0  0  0  0  0  0  0  0  0  0  0
    2.9981   13.0151   -1.4001 H   0  0  0  0  0  0  0  0  0  0  0  0
    1.8226   15.3592   -1.6456 H   0  0  0  0  0  0  0  0  0  0  0  0
   -0.2950   12.9503   -4.0963 H   0  0  0  0  0  0  0  0  0  0  0  0
    2.4037   13.3235   -5.5366 H   0  0  0  0  0  0  0  0  0  0  0  0
    0.9893   12.3313   -6.1067 H   0  0  0  0  0  0  0  0  0  0  0  0
    1.1453   14.5031   -7.2819 H   0  0  0  0  0  0  0  0  0  0  0  0
   -0.3704   14.3308   -6.3122 H   0  0  0  0  0  0  0  0  0  0  0  0
    0.4962   16.5460   -5.9995 H   0  0  0  0  0  0  0  0  0  0  0  0
    2.7430   15.8070   -6.4950 H   0  0  0  0  0  0  0  0  0  0  0  0
   -1.2772   15.7779   -2.9110 H   0  0  0  0  0  0  0  0  0  0  0  0
   -1.3085   16.6780   -4.4652 H   0  0  0  0  0  0  0  0  0  0  0  0
   -1.3804   14.8832   -4.4652 H   0  0  0  0  0  0  0  0  0  0  0  0
    1.0582   16.8811   -2.2543 H   0  0  0  0  0  0  0  0  0  0  0  0
    2.1455   17.1853   -3.6514 H   0  0  0  0  0  0  0  0  0  0  0  0
    0.4762   17.8486   -3.6514 H   0  0  0  0  0  0  0  0  0  0  0  0
    3.4038   11.4048   -2.8531 H   0  0  0  0  0  0  0  0  0  0  0  0
    2.8788   10.5839   -4.3621 H   0  0  0  0  0  0  0  0  0  0  0  0
    3.1839   12.3541   -4.3621 H   0  0  0  0  0  0  0  0  0  0  0  0
    0.2547   10.7423   -4.9937 H   0  0  0  0  0  0  0  0  0  0  0  0
    1.1485    9.6635   -3.7807 H   0  0  0  0  0  0  0  0  0  0  0  0
   -1.5649   10.9723   -3.4417 H   0  0  0  0  0  0  0  0  0  0  0  0
   -1.1686    9.2134   -3.5656 H   0  0  0  0  0  0  0  0  0  0  0  0
    0.5060    8.8365   -0.3207 H   0  0  0  0  0  0  0  0  0  0  0  0
    0.0150    8.0305   -1.8491 H   0  0  0  0  0  0  0  0  0  0  0  0
    1.3756    9.2033   -1.8491 H   0  0  0  0  0  0  0  0  0  0  0  0
  1  2  1  0
  2  3  1  0
  3  4  1  0
  4  5  1  0
  5  6  1  0
  6  7  1  0
  7  8  1  0
  7  9  1  0
  2 10  1  0
 10 11  1  0
 11 12  1  0
 12 13  1  0
 13 14  1  1
 13 15  1  0
 15 16  1  0
 16 17  1  0
 17 18  2  0
 18 19  1  0
 19 20  1  0
 20 21  1  0
 21 22  1  0
 22 23  1  0
 22 24  1  0
 24 25  1  0
 24 26  1  0
 19 27  1  0
 27 28  1  1
 27 29  1  0
 29 30  1  0
 30 31  1  0
 31 32  1  6
  7  5  1  0
 31 10  1  0
 31 13  1  0
 27 15  1  0
 24 18  1  0
  1 33  1  0
  1 34  1  0
  1 35  1  0
  2 36  1  1
  3 37  1  0
  3 38  1  0
  4 39  1  0
  4 40  1  0
  5 41  1  6
  8 42  1  0
  8 43  1  0
  8 44  1  0
  9 45  1  0
  9 46  1  0
  9 47  1  0
 10 48  1  6
 11 49  1  0
 11 50  1  0
 12 51  1  0
 12 52  1  0
 14 53  1  0
 14 54  1  0
 14 55  1  0
 15 56  1  1
 16 57  1  0
 16 58  1  0
 17 59  1  0
 19 60  1  6
 20 61  1  0
 20 62  1  0
 21 63  1  0
 21 64  1  0
 22 65  1  6
 23 66  1  0
 25 67  1  0
 25 68  1  0
 25 69  1  0
 26 70  1  0
 26 71  1  0
 26 72  1  0
 28 73  1  0
 28 74  1  0
 28 75  1  0
 29 76  1  0
 29 77  1  0
 30 78  1  0
 30 79  1  0
 32 80  1  0
 32 81  1  0
 32 82  1  0
M  END
>  <meeko>  (14) 
{"is_sidechain": [false], "intermolecular_energy": 2.731, "internal_energy": -0.839}

$$$$
EPH_relaxed_0001_pdb2pqr_Repair_46_r2_0001_out
     RDKit          3D

 82 86  0  0  0  0  0  0  0  0999 V2000
    0.9320   14.8350   -2.6550 C   0  0  0  0  0  0  0  0  0  0  0  0
    1.1930   14.1500   -3.9990 C   0  0  2  0  0  0  0  0  0  0  0  0
    0.4910   14.8740   -5.1660 C   0  0  0  0  0  0  0  0  0  0  0  0
    1.1160   14.5860   -6.5340 C   0  0  0  0  0  0  0  0  0  0  0  0
    0.8730   15.7050   -7.5010 C   0  0  2  0  0  0  0  0  0  0  0  0
    0.3980   15.2900   -8.7890 O   0  0  0  0  0  0  0  0  0  0  0  0
    1.6920   15.9140   -8.7610 C   0  0  0  0  0  0  0  0  0  0  0  0
    2.8180   14.9970   -9.1210 C   0  0  0  0  0  0  0  0  0  0  0  0
    1.7170   17.2770   -9.3790 C   0  0  0  0  0  0  0  0  0  0  0  0
    0.7380   12.6970   -3.9390 C   0  0  1  0  0  0  0  0  0  0  0  0
    1.8710   11.7000   -4.3030 C   0  0  0  0  0  0  0  0  0  0  0  0
    1.6590   10.4420   -3.4220 C   0  0  0  0  0  0  0  0  0  0  0  0
    0.2400   10.6130   -2.8310 C   0  0  1  0  0  0  0  0  0  0  0  0
   -0.7260   10.1390   -3.9620 C   0  0  0  0  0  0  0  0  0  0  0  0
   -0.0410    9.8730   -1.4830 C   0  0  2  0  0  0  0  0  0  0  0  0
    0.0600    8.3390   -1.5480 C   0  0  0  0  0  0  0  0  0  0  0  0
   -1.2110    7.6290   -1.8790 C   0  0  0  0  0  0  0  0  0  0  0  0
   -2.4430    8.1700   -1.8350 C   0  0  0  0  0  0  0  0  0  0  0  0
   -2.6570    9.6020   -1.3270 C   0  0  1  0  0  0  0  0  0  0  0  0
   -3.8470    9.6260   -0.3320 C   0  0  0  0  0  0  0  0  0  0  0  0
   -5.1160    9.0200   -0.9230 C   0  0  0  0  0  0  0  0  0  0  0  0
   -4.8790    7.5780   -1.3630 C   0  0  2  0  0  0  0  0  0  0  0  0
   -4.6350    6.7760   -0.2040 O   0  0  0  0  0  0  0  0  0  0  0  0
   -3.6960    7.4280   -2.3610 C   0  0  0  0  0  0  0  0  0  0  0  0
   -4.0870    8.0430   -3.7280 C   0  0  0  0  0  0  0  0  0  0  0  0
   -3.4740    5.9130   -2.6140 C   0  0  0  0  0  0  0  0  0  0  0  0
   -1.3680   10.3340   -0.7540 C   0  0  1  0  0  0  0  0  0  0  0  0
   -1.1880    9.9920    0.7560 C   0  0  0  0  0  0  0  0  0  0  0  0
   -1.5840   11.8920   -0.8340 C   0  0  0  0  0  0  0  0  0  0  0  0
   -1.1750   12.5830   -2.1490 C   0  0  0  0  0  0  0  0  0  0  0  0
    0.2360   12.1640   -2.5740 C   0  0  2  0  0  0  0  0  0  0  0  0
    1.2320   12.6480   -1.4660 C   0  0  0  0  0  0  0  0  0  0  0  0
    1.1937   14.1483   -1.8365 H   0  0  0  0  0  0  0  0  0  0  0  0
    1.5467   15.7443   -2.5814 H   0  0  0  0  0  0  0  0  0  0  0  0
   -0.1319   15.1047   -2.5814 H   0  0  0  0  0  0  0  0  0  0  0  0
    2.2759   14.1930   -4.1872 H   0  0  0  0  0  0  0  0  0  0  0  0
   -0.5612   14.5541   -5.1906 H   0  0  0  0  0  0  0  0  0  0  0  0
    0.5971   15.9538   -4.9849 H   0  0  0  0  0  0  0  0  0  0  0  0
    2.2006   14.4518   -6.4093 H   0  0  0  0  0  0  0  0  0  0  0  0
    0.6502   13.6755   -6.9390 H   0  0  0  0  0  0  0  0  0  0  0  0
    0.5928   16.3839   -6.6821 H   0  0  0  0  0  0  0  0  0  0  0  0
    3.2875   14.6147   -8.2026 H   0  0  0  0  0  0  0  0  0  0  0  0
    2.4301   14.1546   -9.7125 H   0  0  0  0  0  0  0  0  0  0  0  0
    3.5644   15.5475   -9.7125 H   0  0  0  0  0  0  0  0  0  0  0  0
    1.7310   18.0390   -8.5858 H   0  0  0  0  0  0  0  0  0  0  0  0
    2.6172   17.3804  -10.0027 H   0  0  0  0  0  0  0  0  0  0  0  0
    0.8212   17.4133  -10.0027 H   0  0  0  0  0  0  0  0  0  0  0  0
   -0.0945   12.7357   -4.6569 H   0  0  0  0  0  0  0  0  0  0  0  0
    1.8115   11.4312   -5.3680 H   0  0  0  0  0  0  0  0  0  0  0  0
    2.8612   12.1448   -4.1250 H   0  0  0  0  0  0  0  0  0  0  0  0
    1.7185    9.5275   -4.0304 H   0  0  0  0  0  0  0  0  0  0  0  0
    2.4272   10.3462   -2.6405 H   0  0  0  0  0  0  0  0  0  0  0  0
   -1.6274    9.6967   -3.5128 H   0  0  0  0  0  0  0  0  0  0  0  0
   -1.0113   10.9995   -4.5851 H   0  0  0  0  0  0  0  0  0  0  0  0
   -0.2200    9.3869   -4.5851 H   0  0  0  0  0  0  0  0  0  0  0  0
    0.7993   10.2021   -0.8540 H   0  0  0  0  0  0  0  0  0  0  0  0
    0.8039    8.0797   -2.3157 H   0  0  0  0  0  0  0  0  0  0  0  0
    0.3376    8.0095   -0.5359 H   0  0  0  0  0  0  0  0  0  0  0  0
   -1.1343    6.5751   -2.1846 H   0  0  0  0  0  0  0  0  0  0  0  0
   -2.8995   10.2062   -2.2136 H   0  0  0  0  0  0  0  0  0  0  0  0
   -3.5680    9.0542    0.5653 H   0  0  0  0  0  0  0  0  0  0  0  0
   -4.0600   10.6781   -0.0916 H   0  0  0  0  0  0  0  0  0  0  0  0
   -5.9112    9.0383   -0.1632 H   0  0  0  0  0  0  0  0  0  0  0  0
   -5.4103    9.6113   -1.8026 H   0  0  0  0  0  0  0  0  0  0  0  0
   -5.7820    7.2432   -1.8945 H   0  0  0  0  0  0  0  0  0  0  0  0
   -4.0620    7.2880    0.3920 H   0  0  0  0  0  0  0  0  0  0  0  0
   -4.6705    8.9609   -3.5637 H   0  0  0  0  0  0  0  0  0  0  0  0
   -3.1761    8.2843   -4.2955 H   0  0  0  0  0  0  0  0  0  0  0  0
   -4.6920    7.3205   -4.2955 H   0  0  0  0  0  0  0  0  0  0  0  0
   -3.3970    5.3878   -1.6506 H   0  0  0  0  0  0  0  0  0  0  0  0
   -4.3225    5.5085   -3.1854 H   0  0  0  0  0  0  0  0  0  0  0  0
   -2.5452    5.7689   -3.1854 H   0  0  0  0  0  0  0  0  0  0  0  0
   -1.6136   10.8006    1.3684 H   0  0  0  0  0  0  0  0  0  0  0  0
   -1.7065    9.0487    0.9826 H   0  0  0  0  0  0  0  0  0  0  0  0
   -0.1169    9.8853    0.9826 H   0  0  0  0  0  0  0  0  0  0  0  0
   -2.6544   12.0883   -0.6738 H   0  0  0  0  0  0  0  0  0  0  0  0
   -0.9182   12.3148   -0.0672 H   0  0  0  0  0  0  0  0  0  0  0  0
   -1.8869   12.3024   -2.9393 H   0  0  0  0  0  0  0  0  0  0  0  0
   -1.1844   13.6715   -1.9904 H   0  0  0  0  0  0  0  0  0  0  0  0
    0.8054   12.4407   -0.4735 H   0  0  0  0  0  0  0  0  0  0  0  0
    2.1876   12.1138   -1.5732 H   0  0  0  0  0  0  0  0  0  0  0  0
    1.4025   13.7294   -1.5732 H   0  0  0  0  0  0  0  0  0  0  0  0
  1  2  1  0
  2  3  1  0
  3  4  1  0
  4  5  1  0
  5  6  1  0
  6  7  1  0
  7  8  1  0
  7  9  1  0
  2 10  1  0
 10 11  1  0
 11 12  1  0
 12 13  1  0
 13 14  1  6
 13 15  1  0
 15 16  1  0
 16 17  1  0
 17 18  2  0
 18 19  1  0
 19 20  1  0
 20 21  1  0
 21 22  1  0
 22 23  1  0
 22 24  1  0
 24 25  1  0
 24 26  1  0
 19 27  1  0
 27 28  1  1
 27 29  1  0
 29 30  1  0
 30 31  1  0
 31 32  1  1
  7  5  1  0
 31 10  1  0
 31 13  1  0
 27 15  1  0
 24 18  1  0
  1 33  1  0
  1 34  1  0
  1 35  1  0
  2 36  1  6
  3 37  1  0
  3 38  1  0
  4 39  1  0
  4 40  1  0
  5 41  1  1
  8 42  1  0
  8 43  1  0
  8 44  1  0
  9 45  1  0
  9 46  1  0
  9 47  1  0
 10 48  1  6
 11 49  1  0
 11 50  1  0
 12 51  1  0
 12 52  1  0
 14 53  1  0
 14 54  1  0
 14 55  1  0
 15 56  1  1
 16 57  1  0
 16 58  1  0
 17 59  1  0
 19 60  1  6
 20 61  1  0
 20 62  1  0
 21 63  1  0
 21 64  1  0
 22 65  1  6
 23 66  1  0
 25 67  1  0
 25 68  1  0
 25 69  1  0
 26 70  1  0
 26 71  1  0
 26 72  1  0
 28 73  1  0
 28 74  1  0
 28 75  1  0
 29 76  1  0
 29 77  1  0
 30 78  1  0
 30 79  1  0
 32 80  1  0
 32 81  1  0
 32 82  1  0
M  END
>  <meeko>  (15) 
{"is_sidechain": [false], "intermolecular_energy": 2.731, "internal_energy": -0.839}

$$$$
EPH_relaxed_0001_pdb2pqr_Repair_46_r2_0001_out
     RDKit          3D

 82 86  0  0  0  0  0  0  0  0999 V2000
   -1.4450    6.9030   -3.0840 C   0  0  0  0  0  0  0  0  0  0  0  0
   -2.6390    7.3700   -2.2470 C   0  0  2  0  0  0  0  0  0  0  0  0
   -3.9520    7.3670   -3.0570 C   0  0  0  0  0  0  0  0  0  0  0  0
   -5.1700    6.9050   -2.2520 C   0  0  0  0  0  0  0  0  0  0  0  0
   -6.4380    7.5160   -2.7670 C   0  0  2  0  0  0  0  0  0  0  0  0
   -6.7330    8.8160   -2.2390 O   0  0  0  0  0  0  0  0  0  0  0  0
   -7.6570    7.7690   -1.8990 C   0  0  0  0  0  0  0  0  0  0  0  0
   -7.6660    7.4150   -0.4450 C   0  0  0  0  0  0  0  0  0  0  0  0
   -8.9920    7.9040   -2.5620 C   0  0  0  0  0  0  0  0  0  0  0  0
   -2.3720    8.7650   -1.6940 C   0  0  1  0  0  0  0  0  0  0  0  0
   -3.2290    9.0840   -0.4400 C   0  0  0  0  0  0  0  0  0  0  0  0
   -2.3540    9.9680    0.4860 C   0  0  0  0  0  0  0  0  0  0  0  0
   -1.1620   10.4000   -0.3990 C   0  0  1  0  0  0  0  0  0  0  0  0
   -1.7020   11.5980   -1.2410 C   0  0  0  0  0  0  0  0  0  0  0  0
    0.1580   10.7710    0.3520 C   0  0  2  0  0  0  0  0  0  0  0  0
    0.0520   11.9770    1.3010 C   0  0  0  0  0  0  0  0  0  0  0  0
    0.3610   13.3020    0.6860 C   0  0  0  0  0  0  0  0  0  0  0  0
    0.9820   13.4910   -0.4930 C   0  0  0  0  0  0  0  0  0  0  0  0
    1.5320   12.3030   -1.2920 C   0  0  1  0  0  0  0  0  0  0  0  0
    2.9720   12.6250   -1.7730 C   0  0  0  0  0  0  0  0  0  0  0  0
    3.0500   13.9370   -2.5480 C   0  0  0  0  0  0  0  0  0  0  0  0
    2.5490   15.1020   -1.6990 C   0  0  2  0  0  0  0  0  0  0  0  0
    3.4550   15.3020   -0.6100 O   0  0  0  0  0  0  0  0  0  0  0  0
    1.1110   14.8870   -1.1510 C   0  0  0  0  0  0  0  0  0  0  0  0
    0.0920   14.9720   -2.3140 C   0  0  0  0  0  0  0  0  0  0  0  0
    0.7820   16.0680   -0.1980 C   0  0  0  0  0  0  0  0  0  0  0  0
    1.4280   10.8840   -0.5850 C   0  0  1  0  0  0  0  0  0  0  0  0
    2.6740   10.6480    0.3220 C   0  0  0  0  0  0  0  0  0  0  0  0
    1.4610    9.7580   -1.6860 C   0  0  0  0  0  0  0  0  0  0  0  0
    0.1100    9.3520   -2.3050 C   0  0  0  0  0  0  0  0  0  0  0  0
   -0.9320    9.0770   -1.2160 C   0  0  2  0  0  0  0  0  0  0  0  0
   -0.4260    7.8610   -0.3660 C   0  0  0  0  0  0  0  0  0  0  0  0
   -0.6311    6.5847   -2.4160 H   0  0  0  0  0  0  0  0  0  0  0  0
   -1.7502    6.0580   -3.7186 H   0  0  0  0  0  0  0  0  0  0  0  0
   -1.0959    7.7309   -3.7186 H   0  0  0  0  0  0  0  0  0  0  0  0
   -2.7606    6.6581   -1.4173 H   0  0  0  0  0  0  0  0  0  0  0  0
   -4.1407    8.3893   -3.4166 H   0  0  0  0  0  0  0  0  0  0  0  0
   -3.8201    6.6503   -3.8810 H   0  0  0  0  0  0  0  0  0  0  0  0
   -5.2483    5.8099   -2.3205 H   0  0  0  0  0  0  0  0  0  0  0  0
   -5.0336    7.2255   -1.2086 H   0  0  0  0  0  0  0  0  0  0  0  0
   -6.3149    7.0128   -3.7374 H   0  0  0  0  0  0  0  0  0  0  0  0
   -7.6426    8.3356    0.1567 H   0  0  0  0  0  0  0  0  0  0  0  0
   -8.5789    6.8474   -0.2114 H   0  0  0  0  0  0  0  0  0  0  0  0
   -6.7832    6.8018   -0.2114 H   0  0  0  0  0  0  0  0  0  0  0  0
   -9.7761    7.9833   -1.7946 H   0  0  0  0  0  0  0  0  0  0  0  0
   -9.0002    8.8076   -3.1893 H   0  0  0  0  0  0  0  0  0  0  0  0
   -9.1809    7.0204   -3.1893 H   0  0  0  0  0  0  0  0  0  0  0  0
   -2.6109    9.3653   -2.5842 H   0  0  0  0  0  0  0  0  0  0  0  0
   -4.1401    9.6269   -0.7318 H   0  0  0  0  0  0  0  0  0  0  0  0
   -3.5389    8.1611    0.0721 H   0  0  0  0  0  0  0  0  0  0  0  0
   -2.9191   10.8461    0.8319 H   0  0  0  0  0  0  0  0  0  0  0  0
   -2.0295    9.4315    1.3898 H   0  0  0  0  0  0  0  0  0  0  0  0
   -2.0588   12.3895   -0.5656 H   0  0  0  0  0  0  0  0  0  0  0  0
   -0.8951   11.9935   -1.8754 H   0  0  0  0  0  0  0  0  0  0  0  0
   -2.5327   11.2553   -1.8754 H   0  0  0  0  0  0  0  0  0  0  0  0
    0.3148    9.8946    0.9980 H   0  0  0  0  0  0  0  0  0  0  0  0
   -0.9764   12.0143    1.6896 H   0  0  0  0  0  0  0  0  0  0  0  0
    0.8121   11.8186    2.0802 H   0  0  0  0  0  0  0  0  0  0  0  0
    0.0553   14.1995    1.2436 H   0  0  0  0  0  0  0  0  0  0  0  0
    0.8659   12.1854   -2.1594 H   0  0  0  0  0  0  0  0  0  0  0  0
    3.6300   12.6948   -0.8943 H   0  0  0  0  0  0  0  0  0  0  0  0
    3.2862   11.8175   -2.4507 H   0  0  0  0  0  0  0  0  0  0  0  0
    4.0953   14.1240   -2.8351 H   0  0  0  0  0  0  0  0  0  0  0  0
    2.4146   13.8552   -3.4422 H   0  0  0  0  0  0  0  0  0  0  0  0
    2.5070   15.9891   -2.3481 H   0  0  0  0  0  0  0  0  0  0  0  0
    3.5200   16.2590   -0.4530 H   0  0  0  0  0  0  0  0  0  0  0  0
   -0.9254   15.0569   -1.9046 H   0  0  0  0  0  0  0  0  0  0  0  0
    0.3135   15.8548   -2.9318 H   0  0  0  0  0  0  0  0  0  0  0  0
    0.1641   14.0647   -2.9318 H   0  0  0  0  0  0  0  0  0  0  0  0
    0.8751   15.7337    0.8458 H   0  0  0  0  0  0  0  0  0  0  0  0
    1.4841   16.8945   -0.3824 H   0  0  0  0  0  0  0  0  0  0  0  0
   -0.2463   16.4124   -0.3824 H   0  0  0  0  0  0  0  0  0  0  0  0
    2.3742   10.7048    1.3788 H   0  0  0  0  0  0  0  0  0  0  0  0
    3.0963    9.6539    0.1135 H   0  0  0  0  0  0  0  0  0  0  0  0
    3.4306   11.4188    0.1135 H   0  0  0  0  0  0  0  0  0  0  0  0
    2.1088   10.1098   -2.5024 H   0  0  0  0  0  0  0  0  0  0  0  0
    1.8217    8.8580   -1.1665 H   0  0  0  0  0  0  0  0  0  0  0  0
   -0.2499   10.1674   -2.9497 H   0  0  0  0  0  0  0  0  0  0  0  0
    0.2552    8.4328   -2.8915 H   0  0  0  0  0  0  0  0  0  0  0  0
   -0.5237    8.0958    0.7042 H   0  0  0  0  0  0  0  0  0  0  0  0
   -1.0288    6.9719   -0.6029 H   0  0  0  0  0  0  0  0  0  0  0  0
    0.6296    7.6620   -0.6029 H   0  0  0  0  0  0  0  0  0  0  0  0
  1  2  1  0
  2  3  1  0
  3  4  1  0
  4  5  1  0
  5  6  1  0
  6  7  1  0
  7  8  1  0
  7  9  1  0
  2 10  1  0
 10 11  1  0
 11 12  1  0
 12 13  1  0
 13 14  1  6
 13 15  1  0
 15 16  1  0
 16 17  1  0
 17 18  2  0
 18 19  1  0
 19 20  1  0
 20 21  1  0
 21 22  1  0
 22 23  1  0
 22 24  1  0
 24 25  1  0
 24 26  1  0
 19 27  1  0
 27 28  1  1
 27 29  1  0
 29 30  1  0
 30 31  1  0
 31 32  1  1
  7  5  1  0
 31 10  1  0
 31 13  1  0
 27 15  1  0
 24 18  1  0
  1 33  1  0
  1 34  1  0
  1 35  1  0
  2 36  1  1
  3 37  1  0
  3 38  1  0
  4 39  1  0
  4 40  1  0
  5 41  1  6
  8 42  1  0
  8 43  1  0
  8 44  1  0
  9 45  1  0
  9 46  1  0
  9 47  1  0
 10 48  1  6
 11 49  1  0
 11 50  1  0
 12 51  1  0
 12 52  1  0
 14 53  1  0
 14 54  1  0
 14 55  1  0
 15 56  1  1
 16 57  1  0
 16 58  1  0
 17 59  1  0
 19 60  1  6
 20 61  1  0
 20 62  1  0
 21 63  1  0
 21 64  1  0
 22 65  1  6
 23 66  1  0
 25 67  1  0
 25 68  1  0
 25 69  1  0
 26 70  1  0
 26 71  1  0
 26 72  1  0
 28 73  1  0
 28 74  1  0
 28 75  1  0
 29 76  1  0
 29 77  1  0
 30 78  1  0
 30 79  1  0
 32 80  1  0
 32 81  1  0
 32 82  1  0
M  END
>  <meeko>  (16) 
{"is_sidechain": [false], "intermolecular_energy": 2.731, "internal_energy": -0.839}

$$$$
EPH_relaxed_0001_pdb2pqr_Repair_46_r2_0001_out
     RDKit          3D

 82 86  0  0  0  0  0  0  0  0999 V2000
   -0.0220    9.2890   -4.1020 C   0  0  0  0  0  0  0  0  0  0  0  0
    0.0740    9.4940   -2.5880 C   0  0  2  0  0  0  0  0  0  0  0  0
   -0.7780    8.4710   -1.8090 C   0  0  0  0  0  0  0  0  0  0  0  0
   -2.2740    8.5480   -2.1250 C   0  0  0  0  0  0  0  0  0  0  0  0
   -2.7750    7.2790   -2.7450 C   0  0  2  0  0  0  0  0  0  0  0  0
   -3.8250    7.4560   -3.7050 O   0  0  0  0  0  0  0  0  0  0  0  0
   -4.1700    6.7290   -2.5150 C   0  0  0  0  0  0  0  0  0  0  0  0
   -5.1520    7.4360   -1.6330 C   0  0  0  0  0  0  0  0  0  0  0  0
   -4.4120    5.2710   -2.7480 C   0  0  0  0  0  0  0  0  0  0  0  0
   -0.3550   10.9110   -2.2270 C   0  0  1  0  0  0  0  0  0  0  0  0
   -1.5650   10.9410   -1.2560 C   0  0  0  0  0  0  0  0  0  0  0  0
   -1.3590   12.1600   -0.3210 C   0  0  0  0  0  0  0  0  0  0  0  0
   -0.2280   12.9770   -0.9890 C   0  0  1  0  0  0  0  0  0  0  0  0
   -0.9360   13.7980   -2.1130 C   0  0  0  0  0  0  0  0  0  0  0  0
    0.6110   13.8970   -0.0440 C   0  0  2  0  0  0  0  0  0  0  0  0
   -0.1830   15.0180    0.6490 C   0  0  0  0  0  0  0  0  0  0  0  0
   -0.2420   16.3110   -0.0950 C   0  0  0  0  0  0  0  0  0  0  0  0
    0.5490   16.6560   -1.1280 C   0  0  0  0  0  0  0  0  0  0  0  0
    1.6920   15.7410   -1.5850 C   0  0  1  0  0  0  0  0  0  0  0  0
    2.9780   16.5830   -1.7920 C   0  0  0  0  0  0  0  0  0  0  0  0
    2.7610   17.7600   -2.7370 C   0  0  0  0  0  0  0  0  0  0  0  0
    1.6570   18.6790   -2.2190 C   0  0  2  0  0  0  0  0  0  0  0  0
    2.1030   19.2980   -1.0080 O   0  0  0  0  0  0  0  0  0  0  0  0
    0.3140   17.9390   -1.9630 C   0  0  0  0  0  0  0  0  0  0  0  0
   -0.3200   17.5290   -3.3160 C   0  0  0  0  0  0  0  0  0  0  0  0
   -0.6700   18.9470   -1.3110 C   0  0  0  0  0  0  0  0  0  0  0  0
    1.9440   14.4500   -0.6930 C   0  0  1  0  0  0  0  0  0  0  0  0
    2.9030   14.7960    0.4860 C   0  0  0  0  0  0  0  0  0  0  0  0
    2.6820   13.3620   -1.5610 C   0  0  0  0  0  0  0  0  0  0  0  0
    1.7940   12.4060   -2.3790 C   0  0  0  0  0  0  0  0  0  0  0  0
    0.6850   11.8080   -1.5090 C   0  0  2  0  0  0  0  0  0  0  0  0
    1.3660   10.9580   -0.3830 C   0  0  0  0  0  0  0  0  0  0  0  0
   -0.4800    8.3110   -4.3113 H   0  0  0  0  0  0  0  0  0  0  0  0
   -0.6409   10.0852   -4.5413 H   0  0  0  0  0  0  0  0  0  0  0  0
    0.9859    9.3234   -4.5413 H   0  0  0  0  0  0  0  0  0  0  0  0
    1.1238    9.3386   -2.2987 H   0  0  0  0  0  0  0  0  0  0  0  0
   -0.4219    7.4607   -2.0588 H   0  0  0  0  0  0  0  0  0  0  0  0
   -0.6629    8.7044   -0.7402 H   0  0  0  0  0  0  0  0  0  0  0  0
   -2.8266    8.7313   -1.1917 H   0  0  0  0  0  0  0  0  0  0  0  0
   -2.4314    9.3662   -2.8432 H   0  0  0  0  0  0  0  0  0  0  0  0
   -1.7787    6.8195   -2.6662 H   0  0  0  0  0  0  0  0  0  0  0  0
   -4.8967    7.2522   -0.5789 H   0  0  0  0  0  0  0  0  0  0  0  0
   -5.1156    8.5165   -1.8361 H   0  0  0  0  0  0  0  0  0  0  0  0
   -6.1651    7.0587   -1.8361 H   0  0  0  0  0  0  0  0  0  0  0  0
   -4.4978    4.7544   -1.7807 H   0  0  0  0  0  0  0  0  0  0  0  0
   -5.3441    5.1404   -3.3173 H   0  0  0  0  0  0  0  0  0  0  0  0
   -3.5721    4.8463   -3.3173 H   0  0  0  0  0  0  0  0  0  0  0  0
   -0.5593   11.3031   -3.2342 H   0  0  0  0  0  0  0  0  0  0  0  0
   -2.5018   11.0518   -1.8217 H   0  0  0  0  0  0  0  0  0  0  0  0
   -1.6306   10.0072   -0.6783 H   0  0  0  0  0  0  0  0  0  0  0  0
   -2.2805   12.7567   -0.2521 H   0  0  0  0  0  0  0  0  0  0  0  0
   -1.1059   11.8597    0.7065 H   0  0  0  0  0  0  0  0  0  0  0  0
   -1.5897   14.5561   -1.6569 H   0  0  0  0  0  0  0  0  0  0  0  0
   -0.1783   14.2947   -2.7369 H   0  0  0  0  0  0  0  0  0  0  0  0
   -1.5387   13.1216   -2.7369 H   0  0  0  0  0  0  0  0  0  0  0  0
    0.9092   13.2032    0.7558 H   0  0  0  0  0  0  0  0  0  0  0  0
   -1.2138   14.6633    0.7965 H   0  0  0  0  0  0  0  0  0  0  0  0
    0.3480   15.2313    1.5884 H   0  0  0  0  0  0  0  0  0  0  0  0
   -0.9958   17.0439    0.2284 H   0  0  0  0  0  0  0  0  0  0  0  0
    1.3715   15.3086   -2.5443 H   0  0  0  0  0  0  0  0  0  0  0  0
    3.3067   16.9702   -0.8163 H   0  0  0  0  0  0  0  0  0  0  0  0
    3.7369   15.9275   -2.2442 H   0  0  0  0  0  0  0  0  0  0  0  0
    3.6966   18.3325   -2.8199 H   0  0  0  0  0  0  0  0  0  0  0  0
    2.4605   17.3699   -3.7206 H   0  0  0  0  0  0  0  0  0  0  0  0
    1.4587   19.4287   -2.9991 H   0  0  0  0  0  0  0  0  0  0  0  0
    2.5260   20.1400   -1.2470 H   0  0  0  0  0  0  0  0  0  0  0  0
   -1.2305   16.9402   -3.1308 H   0  0  0  0  0  0  0  0  0  0  0  0
   -0.5775   18.4320   -3.8889 H   0  0  0  0  0  0  0  0  0  0  0  0
    0.3979   16.9237   -3.8889 H   0  0  0  0  0  0  0  0  0  0  0  0
   -0.5981   18.8734   -0.2158 H   0  0  0  0  0  0  0  0  0  0  0  0
   -0.4119   19.9684   -1.6276 H   0  0  0  0  0  0  0  0  0  0  0  0
   -1.6973   18.7136   -1.6276 H   0  0  0  0  0  0  0  0  0  0  0  0
    2.3907   14.6112    1.4417 H   0  0  0  0  0  0  0  0  0  0  0  0
    3.8024   14.1657    0.4242 H   0  0  0  0  0  0  0  0  0  0  0  0
    3.1927   15.8554    0.4242 H   0  0  0  0  0  0  0  0  0  0  0  0
    3.3405   13.8898   -2.2665 H   0  0  0  0  0  0  0  0  0  0  0  0
    3.2032   12.7202   -0.8354 H   0  0  0  0  0  0  0  0  0  0  0  0
    1.3379   12.9622   -3.2112 H   0  0  0  0  0  0  0  0  0  0  0  0
    2.4203   11.5863   -2.7609 H   0  0  0  0  0  0  0  0  0  0  0  0
    1.0593   11.3408    0.6016 H   0  0  0  0  0  0  0  0  0  0  0  0
    1.0575    9.9066   -0.4800 H   0  0  0  0  0  0  0  0  0  0  0  0
    2.4594   11.0297   -0.4800 H   0  0  0  0  0  0  0  0  0  0  0  0
  1  2  1  0
  2  3  1  0
  3  4  1  0
  4  5  1  0
  5  6  1  0
  6  7  1  0
  7  8  1  0
  7  9  1  0
  2 10  1  0
 10 11  1  0
 11 12  1  0
 12 13  1  0
 13 14  1  6
 13 15  1  0
 15 16  1  0
 16 17  1  0
 17 18  2  0
 18 19  1  0
 19 20  1  0
 20 21  1  0
 21 22  1  0
 22 23  1  0
 22 24  1  0
 24 25  1  0
 24 26  1  0
 19 27  1  0
 27 28  1  1
 27 29  1  0
 29 30  1  0
 30 31  1  0
 31 32  1  1
  7  5  1  0
 31 10  1  0
 31 13  1  0
 27 15  1  0
 24 18  1  0
  1 33  1  0
  1 34  1  0
  1 35  1  0
  2 36  1  1
  3 37  1  0
  3 38  1  0
  4 39  1  0
  4 40  1  0
  5 41  1  6
  8 42  1  0
  8 43  1  0
  8 44  1  0
  9 45  1  0
  9 46  1  0
  9 47  1  0
 10 48  1  6
 11 49  1  0
 11 50  1  0
 12 51  1  0
 12 52  1  0
 14 53  1  0
 14 54  1  0
 14 55  1  0
 15 56  1  1
 16 57  1  0
 16 58  1  0
 17 59  1  0
 19 60  1  6
 20 61  1  0
 20 62  1  0
 21 63  1  0
 21 64  1  0
 22 65  1  6
 23 66  1  0
 25 67  1  0
 25 68  1  0
 25 69  1  0
 26 70  1  0
 26 71  1  0
 26 72  1  0
 28 73  1  0
 28 74  1  0
 28 75  1  0
 29 76  1  0
 29 77  1  0
 30 78  1  0
 30 79  1  0
 32 80  1  0
 32 81  1  0
 32 82  1  0
M  END
>  <meeko>  (17) 
{"is_sidechain": [false], "intermolecular_energy": 2.731, "internal_energy": -0.839}

$$$$
EPH_relaxed_0001_pdb2pqr_Repair_46_r2_0001_out
     RDKit          3D

 82 86  0  0  0  0  0  0  0  0999 V2000
   -2.8950   10.6110   -0.6990 C   0  0  0  0  0  0  0  0  0  0  0  0
   -1.3790   10.5170   -0.8940 C   0  0  2  0  0  0  0  0  0  0  0  0
   -0.7820    9.2730   -0.2060 C   0  0  0  0  0  0  0  0  0  0  0  0
    0.0620    8.3990   -1.1380 C   0  0  0  0  0  0  0  0  0  0  0  0
    0.8710    9.2260   -2.0910 C   0  0  2  0  0  0  0  0  0  0  0  0
    2.0540    8.5850   -2.5840 O   0  0  0  0  0  0  0  0  0  0  0  0
    2.2580    9.7530   -1.7720 C   0  0  0  0  0  0  0  0  0  0  0  0
    2.9150    9.4730   -0.4570 C   0  0  0  0  0  0  0  0  0  0  0  0
    2.7660   10.9360   -2.5350 C   0  0  0  0  0  0  0  0  0  0  0  0
   -0.7080   11.7780   -0.3630 C   0  0  1  0  0  0  0  0  0  0  0  0
    0.4540   11.4690    0.6180 C   0  0  0  0  0  0  0  0  0  0  0  0
    1.5340   12.5580    0.3900 C   0  0  0  0  0  0  0  0  0  0  0  0
    0.8260   13.6360   -0.4630 C   0  0  1  0  0  0  0  0  0  0  0  0
    0.0060   14.4840    0.5600 C   0  0  0  0  0  0  0  0  0  0  0  0
    1.7510   14.5350   -1.3470 C   0  0  2  0  0  0  0  0  0  0  0  0
    2.7580   15.4000   -0.5690 C   0  0  0  0  0  0  0  0  0  0  0  0
    2.2720   16.7590   -0.1900 C   0  0  0  0  0  0  0  0  0  0  0  0
    1.1900   17.3740   -0.7020 C   0  0  0  0  0  0  0  0  0  0  0  0
    0.3850   16.7330   -1.8400 C   0  0  1  0  0  0  0  0  0  0  0  0
    0.1000   17.7950   -2.9340 C   0  0  0  0  0  0  0  0  0  0  0  0
   -0.5730   19.0450   -2.3760 C   0  0  0  0  0  0  0  0  0  0  0  0
    0.2850   19.6860   -1.2880 C   0  0  2  0  0  0  0  0  0  0  0  0
    1.4850   20.1890   -1.8850 O   0  0  0  0  0  0  0  0  0  0  0  0
    0.6450   18.7080   -0.1350 C   0  0  0  0  0  0  0  0  0  0  0  0
   -0.6230   18.4000    0.7000 C   0  0  0  0  0  0  0  0  0  0  0  0
    1.6270   19.4380    0.8200 C   0  0  0  0  0  0  0  0  0  0  0  0
    0.9790   15.3860   -2.4360 C   0  0  1  0  0  0  0  0  0  0  0  0
    2.0110   15.7110   -3.5600 C   0  0  0  0  0  0  0  0  0  0  0  0
   -0.1810   14.5700   -3.1210 C   0  0  0  0  0  0  0  0  0  0  0  0
   -0.9810   13.6100   -2.2190 C   0  0  0  0  0  0  0  0  0  0  0  0
   -0.0430   12.7190   -1.3990 C   0  0  2  0  0  0  0  0  0  0  0  0
    0.7790   11.8390   -2.4010 C   0  0  0  0  0  0  0  0  0  0  0  0
   -3.1262   10.6253    0.3763 H   0  0  0  0  0  0  0  0  0  0  0  0
   -3.2683   11.5340   -1.1666 H   0  0  0  0  0  0  0  0  0  0  0  0
   -3.3795    9.7412   -1.1666 H   0  0  0  0  0  0  0  0  0  0  0  0
   -1.1889   10.4210   -1.9732 H   0  0  0  0  0  0  0  0  0  0  0  0
   -0.1456    9.6084    0.6262 H   0  0  0  0  0  0  0  0  0  0  0  0
   -1.6276    8.6569    0.1337 H   0  0  0  0  0  0  0  0  0  0  0  0
    0.7438    7.7853   -0.5309 H   0  0  0  0  0  0  0  0  0  0  0  0
   -0.6195    7.7665   -1.7258 H   0  0  0  0  0  0  0  0  0  0  0  0
   -0.0362    9.7189   -2.4706 H   0  0  0  0  0  0  0  0  0  0  0  0
    2.2376    9.7617    0.3602 H   0  0  0  0  0  0  0  0  0  0  0  0
    3.1431    8.3995   -0.3823 H   0  0  0  0  0  0  0  0  0  0  0  0
    3.8473   10.0520   -0.3823 H   0  0  0  0  0  0  0  0  0  0  0  0
    3.0991   11.7117   -1.8298 H   0  0  0  0  0  0  0  0  0  0  0  0
    3.6114   10.6285   -3.1680 H   0  0  0  0  0  0  0  0  0  0  0  0
    1.9609   11.3373   -3.1680 H   0  0  0  0  0  0  0  0  0  0  0  0
   -1.5789   12.2730    0.0914 H   0  0  0  0  0  0  0  0  0  0  0  0
    0.0928   11.5053    1.6564 H   0  0  0  0  0  0  0  0  0  0  0  0
    0.8635   10.4636    0.4407 H   0  0  0  0  0  0  0  0  0  0  0  0
    1.8689   12.9797    1.3491 H   0  0  0  0  0  0  0  0  0  0  0  0
    2.4320   12.1583   -0.1038 H   0  0  0  0  0  0  0  0  0  0  0  0
    0.2858   14.1947    1.5837 H   0  0  0  0  0  0  0  0  0  0  0  0
    0.2229   15.5517    0.4085 H   0  0  0  0  0  0  0  0  0  0  0  0
   -1.0684   14.3030    0.4085 H   0  0  0  0  0  0  0  0  0  0  0  0
    2.3529   13.7913   -1.8898 H   0  0  0  0  0  0  0  0  0  0  0  0
    3.0240   14.8645    0.3543 H   0  0  0  0  0  0  0  0  0  0  0  0
    3.6095   15.5595   -1.2468 H   0  0  0  0  0  0  0  0  0  0  0  0
    2.8470   17.3045    0.5727 H   0  0  0  0  0  0  0  0  0  0  0  0
   -0.5613   16.3963   -1.3915 H   0  0  0  0  0  0  0  0  0  0  0  0
    1.0532   18.0860   -3.3995 H   0  0  0  0  0  0  0  0  0  0  0  0
   -0.5873   17.3444   -3.6651 H   0  0  0  0  0  0  0  0  0  0  0  0
   -0.7209   19.7687   -3.1911 H   0  0  0  0  0  0  0  0  0  0  0  0
   -1.5399   18.7575   -1.9373 H   0  0  0  0  0  0  0  0  0  0  0  0
   -0.3054   20.4972   -0.8371 H   0  0  0  0  0  0  0  0  0  0  0  0
    2.0750   20.4730   -1.1650 H   0  0  0  0  0  0  0  0  0  0  0  0
   -0.3799   18.4590    1.7712 H   0  0  0  0  0  0  0  0  0  0  0  0
   -1.4067   19.1339    0.4609 H   0  0  0  0  0  0  0  0  0  0  0  0
   -0.9827   17.3884    0.4609 H   0  0  0  0  0  0  0  0  0  0  0  0
    1.3469   19.2298    1.8632 H   0  0  0  0  0  0  0  0  0  0  0  0
    2.6509   19.0800    0.6368 H   0  0  0  0  0  0  0  0  0  0  0  0
    1.5792   20.5216    0.6368 H   0  0  0  0  0  0  0  0  0  0  0  0
    2.9662   16.0118   -3.1049 H   0  0  0  0  0  0  0  0  0  0  0  0
    2.1670   14.8185   -4.1838 H   0  0  0  0  0  0  0  0  0  0  0  0
    1.6274   16.5318   -4.1838 H   0  0  0  0  0  0  0  0  0  0  0  0
   -0.8903   15.2942   -3.5481 H   0  0  0  0  0  0  0  0  0  0  0  0
    0.3178   13.9240   -3.8585 H   0  0  0  0  0  0  0  0  0  0  0  0
   -1.6083   14.1989   -1.5337 H   0  0  0  0  0  0  0  0  0  0  0  0
   -1.6059   12.9679   -2.8572 H   0  0  0  0  0  0  0  0  0  0  0  0
    1.4242   11.1483   -1.8383 H   0  0  0  0  0  0  0  0  0  0  0  0
    0.0886   11.2623   -3.0341 H   0  0  0  0  0  0  0  0  0  0  0  0
    1.4013   12.4885   -3.0341 H   0  0  0  0  0  0  0  0  0  0  0  0
  1  2  1  0
  2  3  1  0
  3  4  1  0
  4  5  1  0
  5  6  1  0
  6  7  1  0
  7  8  1  0
  7  9  1  0
  2 10  1  0
 10 11  1  0
 11 12  1  0
 12 13  1  0
 13 14  1  1
 13 15  1  0
 15 16  1  0
 16 17  1  0
 17 18  2  0
 18 19  1  0
 19 20  1  0
 20 21  1  0
 21 22  1  0
 22 23  1  0
 22 24  1  0
 24 25  1  0
 24 26  1  0
 19 27  1  0
 27 28  1  6
 27 29  1  0
 29 30  1  0
 30 31  1  0
 31 32  1  6
  7  5  1  0
 31 10  1  0
 31 13  1  0
 27 15  1  0
 24 18  1  0
  1 33  1  0
  1 34  1  0
  1 35  1  0
  2 36  1  6
  3 37  1  0
  3 38  1  0
  4 39  1  0
  4 40  1  0
  5 41  1  6
  8 42  1  0
  8 43  1  0
  8 44  1  0
  9 45  1  0
  9 46  1  0
  9 47  1  0
 10 48  1  1
 11 49  1  0
 11 50  1  0
 12 51  1  0
 12 52  1  0
 14 53  1  0
 14 54  1  0
 14 55  1  0
 15 56  1  6
 16 57  1  0
 16 58  1  0
 17 59  1  0
 19 60  1  1
 20 61  1  0
 20 62  1  0
 21 63  1  0
 21 64  1  0
 22 65  1  1
 23 66  1  0
 25 67  1  0
 25 68  1  0
 25 69  1  0
 26 70  1  0
 26 71  1  0
 26 72  1  0
 28 73  1  0
 28 74  1  0
 28 75  1  0
 29 76  1  0
 29 77  1  0
 30 78  1  0
 30 79  1  0
 32 80  1  0
 32 81  1  0
 32 82  1  0
M  END
>  <meeko>  (18) 
{"is_sidechain": [false], "intermolecular_energy": 2.731, "internal_energy": -0.839}

$$$$
EPH_relaxed_0001_pdb2pqr_Repair_46_r2_0001_out
     RDKit          3D

 82 86  0  0  0  0  0  0  0  0999 V2000
   -5.1930    6.9110   -0.3360 C   0  0  0  0  0  0  0  0  0  0  0  0
   -5.2600    8.0600   -1.3460 C   0  0  2  0  0  0  0  0  0  0  0  0
   -4.8120    9.4010   -0.7310 C   0  0  0  0  0  0  0  0  0  0  0  0
   -3.4500    9.3330   -0.0340 C   0  0  0  0  0  0  0  0  0  0  0  0
   -2.3600    8.9410   -0.9840 C   0  0  2  0  0  0  0  0  0  0  0  0
   -1.1160    8.5970   -0.3590 O   0  0  0  0  0  0  0  0  0  0  0  0
   -1.1020    9.7620   -1.2000 C   0  0  0  0  0  0  0  0  0  0  0  0
   -0.8710   11.0430   -0.4620 C   0  0  0  0  0  0  0  0  0  0  0  0
   -0.3370    9.5780   -2.4740 C   0  0  0  0  0  0  0  0  0  0  0  0
   -6.6760    8.1870   -1.8960 C   0  0  1  0  0  0  0  0  0  0  0  0
   -6.8400    7.5150   -3.2850 C   0  0  0  0  0  0  0  0  0  0  0  0
   -8.2720    6.9240   -3.3300 C   0  0  0  0  0  0  0  0  0  0  0  0
   -8.9930    7.5540   -2.1160 C   0  0  1  0  0  0  0  0  0  0  0  0
   -9.4270    8.9730   -2.5990 C   0  0  0  0  0  0  0  0  0  0  0  0
  -10.1990    6.7480   -1.5330 C   0  0  2  0  0  0  0  0  0  0  0  0
  -11.3810    6.5530   -2.4990 C   0  0  0  0  0  0  0  0  0  0  0  0
  -12.4280    7.6160   -2.4480 C   0  0  0  0  0  0  0  0  0  0  0  0
  -12.5690    8.5290   -1.4690 C   0  0  0  0  0  0  0  0  0  0  0  0
  -11.6790    8.4890   -0.2210 C   0  0  1  0  0  0  0  0  0  0  0  0
  -12.5560    8.6610    1.0470 C   0  0  0  0  0  0  0  0  0  0  0  0
  -13.4260    9.9130    0.9910 C   0  0  0  0  0  0  0  0  0  0  0  0
  -14.3390    9.8880   -0.2330 C   0  0  2  0  0  0  0  0  0  0  0  0
  -15.2870    8.8280   -0.0790 O   0  0  0  0  0  0  0  0  0  0  0  0
  -13.5670    9.7090   -1.5700 C   0  0  0  0  0  0  0  0  0  0  0  0
  -12.7660   10.9970   -1.8850 C   0  0  0  0  0  0  0  0  0  0  0  0
  -14.6120    9.5580   -2.7080 C   0  0  0  0  0  0  0  0  0  0  0  0
  -10.6890    7.2500   -0.1140 C   0  0  1  0  0  0  0  0  0  0  0  0
  -11.4160    6.0450    0.5570 C   0  0  0  0  0  0  0  0  0  0  0  0
   -9.4900    7.6300    0.8330 C   0  0  0  0  0  0  0  0  0  0  0  0
   -8.2770    8.3160    0.1770 C   0  0  0  0  0  0  0  0  0  0  0  0
   -7.8200    7.5500   -1.0680 C   0  0  2  0  0  0  0  0  0  0  0  0
   -7.3560    6.1250   -0.6100 C   0  0  0  0  0  0  0  0  0  0  0  0
   -5.2168    7.3188    0.6854 H   0  0  0  0  0  0  0  0  0  0  0  0
   -6.0537    6.2421   -0.4839 H   0  0  0  0  0  0  0  0  0  0  0  0
   -4.2604    6.3467   -0.4839 H   0  0  0  0  0  0  0  0  0  0  0  0
   -4.5633    7.8225   -2.1634 H   0  0  0  0  0  0  0  0  0  0  0  0
   -4.7540   10.1497   -1.5348 H   0  0  0  0  0  0  0  0  0  0  0  0
   -5.5536    9.6668    0.0367 H   0  0  0  0  0  0  0  0  0  0  0  0
   -3.2161   10.3213    0.3886 H   0  0  0  0  0  0  0  0  0  0  0  0
   -3.5070    8.5697    0.7561 H   0  0  0  0  0  0  0  0  0  0  0  0
   -3.0926    8.5154   -1.6855 H   0  0  0  0  0  0  0  0  0  0  0  0
   -0.9052   10.8535    0.6210 H   0  0  0  0  0  0  0  0  0  0  0  0
    0.1149   11.4492   -0.7322 H   0  0  0  0  0  0  0  0  0  0  0  0
   -1.6529   11.7680   -0.7322 H   0  0  0  0  0  0  0  0  0  0  0  0
    0.7082    9.3266   -2.2410 H   0  0  0  0  0  0  0  0  0  0  0  0
   -0.7887    8.7629   -3.0584 H   0  0  0  0  0  0  0  0  0  0  0  0
   -0.3686   10.5094   -3.0584 H   0  0  0  0  0  0  0  0  0  0  0  0
   -6.7761    9.2824   -1.8961 H   0  0  0  0  0  0  0  0  0  0  0  0
   -6.7127    8.2605   -4.0838 H   0  0  0  0  0  0  0  0  0  0  0  0
   -6.0841    6.7302   -3.4356 H   0  0  0  0  0  0  0  0  0  0  0  0
   -8.7767    7.2003   -4.2675 H   0  0  0  0  0  0  0  0  0  0  0  0
   -8.2708    5.8247   -3.2897 H   0  0  0  0  0  0  0  0  0  0  0  0
   -9.6229    9.6134   -1.7263 H   0  0  0  0  0  0  0  0  0  0  0  0
   -8.6232    9.4156   -3.2056 H   0  0  0  0  0  0  0  0  0  0  0  0
  -10.3409    8.8903   -3.2056 H   0  0  0  0  0  0  0  0  0  0  0  0
   -9.7653    5.7479   -1.3854 H   0  0  0  0  0  0  0  0  0  0  0  0
  -10.9810    6.5187   -3.5231 H   0  0  0  0  0  0  0  0  0  0  0  0
  -11.8773    5.6217   -2.1886 H   0  0  0  0  0  0  0  0  0  0  0  0
  -13.1451    7.6566   -3.2812 H   0  0  0  0  0  0  0  0  0  0  0  0
  -10.9871    9.3390   -0.3147 H   0  0  0  0  0  0  0  0  0  0  0  0
  -13.2094    7.7816    1.1458 H   0  0  0  0  0  0  0  0  0  0  0  0
  -11.8804    8.7621    1.9091 H   0  0  0  0  0  0  0  0  0  0  0  0
  -14.0435    9.9634    1.8999 H   0  0  0  0  0  0  0  0  0  0  0  0
  -12.7705   10.7937    0.9225 H   0  0  0  0  0  0  0  0  0  0  0  0
  -14.8413   10.8650   -0.2899 H   0  0  0  0  0  0  0  0  0  0  0  0
  -16.1610    9.1770   -0.3230 H   0  0  0  0  0  0  0  0  0  0  0  0
  -12.4650   11.4809   -0.9441 H   0  0  0  0  0  0  0  0  0  0  0  0
  -11.8694   10.7380   -2.4673 H   0  0  0  0  0  0  0  0  0  0  0  0
  -13.3948   11.6866   -2.4673 H   0  0  0  0  0  0  0  0  0  0  0  0
  -15.6113    9.4136   -2.2714 H   0  0  0  0  0  0  0  0  0  0  0  0
  -14.6111   10.4656   -3.3295 H   0  0  0  0  0  0  0  0  0  0  0  0
  -14.3542    8.6878   -3.3295 H   0  0  0  0  0  0  0  0  0  0  0  0
  -11.3564    6.1438    1.6509 H   0  0  0  0  0  0  0  0  0  0  0  0
  -12.4713    6.0345    0.2467 H   0  0  0  0  0  0  0  0  0  0  0  0
  -10.9332    5.1066    0.2467 H   0  0  0  0  0  0  0  0  0  0  0  0
   -9.8788    8.3094    1.6058 H   0  0  0  0  0  0  0  0  0  0  0  0
   -9.1077    6.6708    1.2122 H   0  0  0  0  0  0  0  0  0  0  0  0
   -8.5560    9.3398   -0.1128 H   0  0  0  0  0  0  0  0  0  0  0  0
   -7.4496    8.3325    0.9016 H   0  0  0  0  0  0  0  0  0  0  0  0
   -7.3413    6.0798    0.4890 H   0  0  0  0  0  0  0  0  0  0  0  0
   -8.0545    5.3694   -0.9987 H   0  0  0  0  0  0  0  0  0  0  0  0
   -6.3465    5.9255   -0.9987 H   0  0  0  0  0  0  0  0  0  0  0  0
  1  2  1  0
  2  3  1  0
  3  4  1  0
  4  5  1  0
  5  6  1  0
  6  7  1  0
  7  8  1  0
  7  9  1  0
  2 10  1  0
 10 11  1  0
 11 12  1  0
 12 13  1  0
 13 14  1  6
 13 15  1  0
 15 16  1  0
 16 17  1  0
 17 18  2  0
 18 19  1  0
 19 20  1  0
 20 21  1  0
 21 22  1  0
 22 23  1  0
 22 24  1  0
 24 25  1  0
 24 26  1  0
 19 27  1  0
 27 28  1  1
 27 29  1  0
 29 30  1  0
 30 31  1  0
 31 32  1  1
  7  5  1  0
 31 10  1  0
 31 13  1  0
 27 15  1  0
 24 18  1  0
  1 33  1  0
  1 34  1  0
  1 35  1  0
  2 36  1  6
  3 37  1  0
  3 38  1  0
  4 39  1  0
  4 40  1  0
  5 41  1  6
  8 42  1  0
  8 43  1  0
  8 44  1  0
  9 45  1  0
  9 46  1  0
  9 47  1  0
 10 48  1  6
 11 49  1  0
 11 50  1  0
 12 51  1  0
 12 52  1  0
 14 53  1  0
 14 54  1  0
 14 55  1  0
 15 56  1  1
 16 57  1  0
 16 58  1  0
 17 59  1  0
 19 60  1  6
 20 61  1  0
 20 62  1  0
 21 63  1  0
 21 64  1  0
 22 65  1  6
 23 66  1  0
 25 67  1  0
 25 68  1  0
 25 69  1  0
 26 70  1  0
 26 71  1  0
 26 72  1  0
 28 73  1  0
 28 74  1  0
 28 75  1  0
 29 76  1  0
 29 77  1  0
 30 78  1  0
 30 79  1  0
 32 80  1  0
 32 81  1  0
 32 82  1  0
M  END
>  <meeko>  (19) 
{"is_sidechain": [false], "intermolecular_energy": 2.731, "internal_energy": -0.839}

$$$$
