EPH_relaxed_0001_pdb2pqr_Repair_169_r2_0001_out
     RDKit          3D

 82 86  0  0  0  0  0  0  0  0999 V2000
    3.8060   17.9530    0.7220 C   0  0  0  0  0  0  0  0  0  0  0  0
    2.9510   18.3350   -0.4900 C   0  0  2  0  0  0  0  0  0  0  0  0
    2.2070   19.6690   -0.2790 C   0  0  0  0  0  0  0  0  0  0  0  0
    1.1540   19.6180    0.8310 C   0  0  0  0  0  0  0  0  0  0  0  0
   -0.1620   20.1680    0.3710 C   0  0  2  0  0  0  0  0  0  0  0  0
   -1.1840   20.1940    1.3770 O   0  0  0  0  0  0  0  0  0  0  0  0
   -1.4230   19.3320    0.2520 C   0  0  0  0  0  0  0  0  0  0  0  0
   -1.4270   17.8750    0.5930 C   0  0  0  0  0  0  0  0  0  0  0  0
   -2.5150   19.8100   -0.6520 C   0  0  0  0  0  0  0  0  0  0  0  0
    1.9520   17.2240   -0.7910 C   0  0  1  0  0  0  0  0  0  0  0  0
    0.8320   17.6760   -1.7660 C   0  0  0  0  0  0  0  0  0  0  0  0
    0.4820   16.4480   -2.6460 C   0  0  0  0  0  0  0  0  0  0  0  0
    1.1640   15.2540   -1.9370 C   0  0  1  0  0  0  0  0  0  0  0  0
    0.1890   14.8620   -0.7830 C   0  0  0  0  0  0  0  0  0  0  0  0
    1.5150   14.0250   -2.8380 C   0  0  2  0  0  0  0  0  0  0  0  0
    0.3080   13.3240   -3.4850 C   0  0  0  0  0  0  0  0  0  0  0  0
   -0.2880   12.2130   -2.6870 C   0  0  0  0  0  0  0  0  0  0  0  0
    0.2930   11.6050   -1.6360 C   0  0  0  0  0  0  0  0  0  0  0  0
    1.7250   11.9610   -1.2140 C   0  0  1  0  0  0  0  0  0  0  0  0
    2.5300   10.6590   -0.9640 C   0  0  0  0  0  0  0  0  0  0  0  0
    1.8430    9.7280    0.0300 C   0  0  0  0  0  0  0  0  0  0  0  0
    0.4450    9.3500   -0.4530 C   0  0  2  0  0  0  0  0  0  0  0  0
    0.5660    8.5500   -1.6340 O   0  0  0  0  0  0  0  0  0  0  0  0
   -0.4560   10.5820   -0.7470 C   0  0  0  0  0  0  0  0  0  0  0  0
   -0.8340   11.2790    0.5830 C   0  0  0  0  0  0  0  0  0  0  0  0
   -1.7860   10.0660   -1.3600 C   0  0  0  0  0  0  0  0  0  0  0  0
    2.4930   12.9820   -2.1590 C   0  0  1  0  0  0  0  0  0  0  0  0
    3.1940   12.2100   -3.3180 C   0  0  0  0  0  0  0  0  0  0  0  0
    3.6380   13.6830   -1.3360 C   0  0  0  0  0  0  0  0  0  0  0  0
    3.2560   14.9600   -0.5640 C   0  0  0  0  0  0  0  0  0  0  0  0
    2.4970   15.9400   -1.4640 C   0  0  2  0  0  0  0  0  0  0  0  0
    3.4610   16.3680   -2.6230 C   0  0  0  0  0  0  0  0  0  0  0  0
    3.2614   18.1963    1.6462 H   0  0  0  0  0  0  0  0  0  0  0  0
    4.0190   16.8741    0.6951 H   0  0  0  0  0  0  0  0  0  0  0  0
    4.7517   18.5142    0.6951 H   0  0  0  0  0  0  0  0  0  0  0  0
    3.6297   18.4675   -1.3454 H   0  0  0  0  0  0  0  0  0  0  0  0
    2.9462   20.4418   -0.0211 H   0  0  0  0  0  0  0  0  0  0  0  0
    1.6756   19.8922   -1.2159 H   0  0  0  0  0  0  0  0  0  0  0  0
    1.0143   18.5723    1.1423 H   0  0  0  0  0  0  0  0  0  0  0  0
    1.5093   20.2344    1.6699 H   0  0  0  0  0  0  0  0  0  0  0  0
    0.3410   20.8482   -0.3320 H   0  0  0  0  0  0  0  0  0  0  0  0
   -1.4273   17.7543    1.6864 H   0  0  0  0  0  0  0  0  0  0  0  0
   -2.3264   17.4023    0.1717 H   0  0  0  0  0  0  0  0  0  0  0  0
   -0.5302   17.3973    0.1717 H   0  0  0  0  0  0  0  0  0  0  0  0
   -3.3567   20.1784   -0.0472 H   0  0  0  0  0  0  0  0  0  0  0  0
   -2.1354   20.6243   -1.2867 H   0  0  0  0  0  0  0  0  0  0  0  0
   -2.8557   18.9787   -1.2867 H   0  0  0  0  0  0  0  0  0  0  0  0
    1.6143   16.9982    0.2312 H   0  0  0  0  0  0  0  0  0  0  0  0
   -0.0537   18.0016   -1.2007 H   0  0  0  0  0  0  0  0  0  0  0  0
    1.1647   18.5228   -2.3842 H   0  0  0  0  0  0  0  0  0  0  0  0
   -0.6072   16.3014   -2.6929 H   0  0  0  0  0  0  0  0  0  0  0  0
    0.8239   16.5676   -3.6847 H   0  0  0  0  0  0  0  0  0  0  0  0
    0.6714   15.0560    0.1864 H   0  0  0  0  0  0  0  0  0  0  0  0
   -0.7308   15.4602   -0.8610 H   0  0  0  0  0  0  0  0  0  0  0  0
   -0.0607   13.7936   -0.8610 H   0  0  0  0  0  0  0  0  0  0  0  0
    2.0692   14.4907   -3.6663 H   0  0  0  0  0  0  0  0  0  0  0  0
   -0.4739   14.0794   -3.6525 H   0  0  0  0  0  0  0  0  0  0  0  0
    0.6837   12.8651   -4.4114 H   0  0  0  0  0  0  0  0  0  0  0  0
   -1.2873   11.8608   -2.9828 H   0  0  0  0  0  0  0  0  0  0  0  0
    1.6334   12.5287   -0.2763 H   0  0  0  0  0  0  0  0  0  0  0  0
    2.6482   10.1284   -1.9203 H   0  0  0  0  0  0  0  0  0  0  0  0
    3.5024   10.9447   -0.5365 H   0  0  0  0  0  0  0  0  0  0  0  0
    2.4446    8.8139    0.1420 H   0  0  0  0  0  0  0  0  0  0  0  0
    1.7523   10.2493    0.9944 H   0  0  0  0  0  0  0  0  0  0  0  0
   -0.0439    8.7904    0.3581 H   0  0  0  0  0  0  0  0  0  0  0  0
    1.4950    8.2740   -1.7080 H   0  0  0  0  0  0  0  0  0  0  0  0
   -0.4988   10.6610    1.4290 H   0  0  0  0  0  0  0  0  0  0  0  0
   -0.3463   12.2638    0.6324 H   0  0  0  0  0  0  0  0  0  0  0  0
   -1.9254   11.4074    0.6324 H   0  0  0  0  0  0  0  0  0  0  0  0
   -2.4818    9.7961   -0.5519 H   0  0  0  0  0  0  0  0  0  0  0  0
   -2.2341   10.8555   -1.9812 H   0  0  0  0  0  0  0  0  0  0  0  0
   -1.5844    9.1809   -1.9812 H   0  0  0  0  0  0  0  0  0  0  0  0
    3.8771   11.4577   -2.8969 H   0  0  0  0  0  0  0  0  0  0  0  0
    2.4348   11.7101   -3.9374 H   0  0  0  0  0  0  0  0  0  0  0  0
    3.7646   12.9176   -3.9374 H   0  0  0  0  0  0  0  0  0  0  0  0
    4.0174   12.9534   -0.6054 H   0  0  0  0  0  0  0  0  0  0  0  0
    4.3735   14.0091   -2.0861 H   0  0  0  0  0  0  0  0  0  0  0  0
    2.6176   14.6870    0.2892 H   0  0  0  0  0  0  0  0  0  0  0  0
    4.1784   15.4474   -0.2151 H   0  0  0  0  0  0  0  0  0  0  0  0
    4.3876   16.7794   -2.1962 H   0  0  0  0  0  0  0  0  0  0  0  0
    3.7005   15.4916   -3.2432 H   0  0  0  0  0  0  0  0  0  0  0  0
    2.9716   17.1334   -3.2432 H   0  0  0  0  0  0  0  0  0  0  0  0
  1  2  1  0
  2  3  1  0
  3  4  1  0
  4  5  1  0
  5  6  1  0
  6  7  1  0
  7  8  1  0
  7  9  1  0
  2 10  1  0
 10 11  1  0
 11 12  1  0
 12 13  1  0
 13 14  1  1
 13 15  1  0
 15 16  1  0
 16 17  1  0
 17 18  2  0
 18 19  1  0
 19 20  1  0
 20 21  1  0
 21 22  1  0
 22 23  1  0
 22 24  1  0
 24 25  1  0
 24 26  1  0
 19 27  1  0
 27 28  1  6
 27 29  1  0
 29 30  1  0
 30 31  1  0
 31 32  1  6
  7  5  1  0
 31 10  1  0
 31 13  1  0
 27 15  1  0
 24 18  1  0
  1 33  1  0
  1 34  1  0
  1 35  1  0
  2 36  1  6
  3 37  1  0
  3 38  1  0
  4 39  1  0
  4 40  1  0
  5 41  1  6
  8 42  1  0
  8 43  1  0
  8 44  1  0
  9 45  1  0
  9 46  1  0
  9 47  1  0
 10 48  1  1
 11 49  1  0
 11 50  1  0
 12 51  1  0
 12 52  1  0
 14 53  1  0
 14 54  1  0
 14 55  1  0
 15 56  1  6
 16 57  1  0
 16 58  1  0
 17 59  1  0
 19 60  1  1
 20 61  1  0
 20 62  1  0
 21 63  1  0
 21 64  1  0
 22 65  1  1
 23 66  1  0
 25 67  1  0
 25 68  1  0
 25 69  1  0
 26 70  1  0
 26 71  1  0
 26 72  1  0
 28 73  1  0
 28 74  1  0
 28 75  1  0
 29 76  1  0
 29 77  1  0
 30 78  1  0
 30 79  1  0
 32 80  1  0
 32 81  1  0
 32 82  1  0
M  END
>  <meeko>  (1) 
{"is_sidechain": [false], "intermolecular_energy": 2.731, "internal_energy": -0.839}

$$$$
EPH_relaxed_0001_pdb2pqr_Repair_169_r2_0001_out
     RDKit          3D

 82 86  0  0  0  0  0  0  0  0999 V2000
    4.1870   17.7490    0.4450 C   0  0  0  0  0  0  0  0  0  0  0  0
    2.8540   18.3510   -0.0100 C   0  0  2  0  0  0  0  0  0  0  0  0
    2.2950   19.3620    1.0110 C   0  0  0  0  0  0  0  0  0  0  0  0
    3.3780   20.1400    1.7630 C   0  0  0  0  0  0  0  0  0  0  0  0
    3.8900   19.3750    2.9460 C   0  0  2  0  0  0  0  0  0  0  0  0
    4.3370   20.1900    4.0380 O   0  0  0  0  0  0  0  0  0  0  0  0
    5.3410   19.3930    3.3890 C   0  0  0  0  0  0  0  0  0  0  0  0
    6.3720   20.1920    2.6550 C   0  0  0  0  0  0  0  0  0  0  0  0
    5.8460   18.2600    4.2280 C   0  0  0  0  0  0  0  0  0  0  0  0
    1.8390   17.2410   -0.2540 C   0  0  1  0  0  0  0  0  0  0  0  0
    0.5470   17.7540   -0.9440 C   0  0  0  0  0  0  0  0  0  0  0  0
    0.0630   16.6220   -1.8860 C   0  0  0  0  0  0  0  0  0  0  0  0
    0.8890   15.3840   -1.4660 C   0  0  1  0  0  0  0  0  0  0  0  0
    0.1570   14.8220   -0.2070 C   0  0  0  0  0  0  0  0  0  0  0  0
    1.0890   14.2840   -2.5580 C   0  0  2  0  0  0  0  0  0  0  0  0
   -0.2040   13.6120   -3.0510 C   0  0  0  0  0  0  0  0  0  0  0  0
   -0.6170   12.3910   -2.2970 C   0  0  0  0  0  0  0  0  0  0  0  0
    0.1640   11.6920   -1.4530 C   0  0  0  0  0  0  0  0  0  0  0  0
    1.6420   12.0570   -1.2620 C   0  0  1  0  0  0  0  0  0  0  0  0
    2.5060   10.7700   -1.3250 C   0  0  0  0  0  0  0  0  0  0  0  0
    2.0370    9.7020   -0.3420 C   0  0  0  0  0  0  0  0  0  0  0  0
    0.5810    9.3240   -0.6010 C   0  0  2  0  0  0  0  0  0  0  0  0
    0.4930    8.6710   -1.8710 O   0  0  0  0  0  0  0  0  0  0  0  0
   -0.3830   10.5420   -0.5720 C   0  0  0  0  0  0  0  0  0  0  0  0
   -0.5180   11.0650    0.8800 C   0  0  0  0  0  0  0  0  0  0  0  0
   -1.7940   10.0450   -0.9870 C   0  0  0  0  0  0  0  0  0  0  0  0
    2.1980   13.2120   -2.2020 C   0  0  1  0  0  0  0  0  0  0  0  0
    2.6840   12.6080   -3.5550 C   0  0  0  0  0  0  0  0  0  0  0  0
    3.4630   13.8610   -1.5260 C   0  0  0  0  0  0  0  0  0  0  0  0
    3.2080   15.0230   -0.5470 C   0  0  0  0  0  0  0  0  0  0  0  0
    2.2740   16.0670   -1.1670 C   0  0  2  0  0  0  0  0  0  0  0  0
    2.9930   16.6670   -2.4230 C   0  0  0  0  0  0  0  0  0  0  0  0
    4.2253   17.7317    1.5442 H   0  0  0  0  0  0  0  0  0  0  0  0
    4.2768   16.7230    0.0588 H   0  0  0  0  0  0  0  0  0  0  0  0
    5.0161   18.3600    0.0588 H   0  0  0  0  0  0  0  0  0  0  0  0
    3.0397   18.8969   -0.9467 H   0  0  0  0  0  0  0  0  0  0  0  0
    1.6594   20.0819    0.4745 H   0  0  0  0  0  0  0  0  0  0  0  0
    1.7345   18.7848    1.7611 H   0  0  0  0  0  0  0  0  0  0  0  0
    4.2151   20.3387    1.0776 H   0  0  0  0  0  0  0  0  0  0  0  0
    2.9353   21.0788    2.1273 H   0  0  0  0  0  0  0  0  0  0  0  0
    3.1896   18.5506    2.7463 H   0  0  0  0  0  0  0  0  0  0  0  0
    7.0266   20.6993    3.3790 H   0  0  0  0  0  0  0  0  0  0  0  0
    6.9737   19.5221    2.0233 H   0  0  0  0  0  0  0  0  0  0  0  0
    5.8734   20.9419    2.0233 H   0  0  0  0  0  0  0  0  0  0  0  0
    5.7331   18.5133    5.2925 H   0  0  0  0  0  0  0  0  0  0  0  0
    5.2676   17.3516    4.0039 H   0  0  0  0  0  0  0  0  0  0  0  0
    6.9083   18.0829    4.0039 H   0  0  0  0  0  0  0  0  0  0  0  0
    1.7039   16.8850    0.7780 H   0  0  0  0  0  0  0  0  0  0  0  0
   -0.2230   17.9745   -0.1901 H   0  0  0  0  0  0  0  0  0  0  0  0
    0.7404   18.6796   -1.5060 H   0  0  0  0  0  0  0  0  0  0  0  0
   -1.0124   16.4359   -1.7487 H   0  0  0  0  0  0  0  0  0  0  0  0
    0.2018   16.8751   -2.9474 H   0  0  0  0  0  0  0  0  0  0  0  0
    0.6485   15.1994    0.7018 H   0  0  0  0  0  0  0  0  0  0  0  0
   -0.8936   15.1477   -0.2178 H   0  0  0  0  0  0  0  0  0  0  0  0
    0.2003   13.7229   -0.2178 H   0  0  0  0  0  0  0  0  0  0  0  0
    1.4683   14.8647   -3.4118 H   0  0  0  0  0  0  0  0  0  0  0  0
   -1.0184   14.3479   -2.9782 H   0  0  0  0  0  0  0  0  0  0  0  0
   -0.0005   13.2796   -4.0796 H   0  0  0  0  0  0  0  0  0  0  0  0
   -1.6466   12.0327   -2.4439 H   0  0  0  0  0  0  0  0  0  0  0  0
    1.7168   12.5079   -0.2614 H   0  0  0  0  0  0  0  0  0  0  0  0
    2.4528   10.3591   -2.3440 H   0  0  0  0  0  0  0  0  0  0  0  0
    3.5356   11.0454   -1.0528 H   0  0  0  0  0  0  0  0  0  0  0  0
    2.6668    8.8072   -0.4550 H   0  0  0  0  0  0  0  0  0  0  0  0
    2.1192   10.1038    0.6787 H   0  0  0  0  0  0  0  0  0  0  0  0
    0.2647    8.6547    0.2126 H   0  0  0  0  0  0  0  0  0  0  0  0
   -0.2490    9.0700   -2.3560 H   0  0  0  0  0  0  0  0  0  0  0  0
   -0.3070   10.2476    1.5852 H   0  0  0  0  0  0  0  0  0  0  0  0
    0.1982   11.8838    1.0429 H   0  0  0  0  0  0  0  0  0  0  0  0
   -1.5411   11.4349    1.0429 H   0  0  0  0  0  0  0  0  0  0  0  0
   -2.3887    9.8355   -0.0857 H   0  0  0  0  0  0  0  0  0  0  0  0
   -2.2949   10.8208   -1.5847 H   0  0  0  0  0  0  0  0  0  0  0  0
   -1.6981    9.1265   -1.5847 H   0  0  0  0  0  0  0  0  0  0  0  0
    3.3624   11.7649   -3.3575 H   0  0  0  0  0  0  0  0  0  0  0  0
    1.8165   12.2535   -4.1309 H   0  0  0  0  0  0  0  0  0  0  0  0
    3.2160   13.3796   -4.1309 H   0  0  0  0  0  0  0  0  0  0  0  0
    3.9879   13.0685   -0.9724 H   0  0  0  0  0  0  0  0  0  0  0  0
    4.0371   14.3027   -2.3538 H   0  0  0  0  0  0  0  0  0  0  0  0
    2.7468   14.6267    0.3696 H   0  0  0  0  0  0  0  0  0  0  0  0
    4.1695   15.5051   -0.3167 H   0  0  0  0  0  0  0  0  0  0  0  0
    3.7996   17.3401   -2.0970 H   0  0  0  0  0  0  0  0  0  0  0  0
    3.4175   15.8515   -3.0269 H   0  0  0  0  0  0  0  0  0  0  0  0
    2.2666   17.2307   -3.0269 H   0  0  0  0  0  0  0  0  0  0  0  0
  1  2  1  0
  2  3  1  0
  3  4  1  0
  4  5  1  0
  5  6  1  0
  6  7  1  0
  7  8  1  0
  7  9  1  0
  2 10  1  0
 10 11  1  0
 11 12  1  0
 12 13  1  0
 13 14  1  1
 13 15  1  0
 15 16  1  0
 16 17  1  0
 17 18  2  0
 18 19  1  0
 19 20  1  0
 20 21  1  0
 21 22  1  0
 22 23  1  0
 22 24  1  0
 24 25  1  0
 24 26  1  0
 19 27  1  0
 27 28  1  6
 27 29  1  0
 29 30  1  0
 30 31  1  0
 31 32  1  6
  7  5  1  0
 31 10  1  0
 31 13  1  0
 27 15  1  0
 24 18  1  0
  1 33  1  0
  1 34  1  0
  1 35  1  0
  2 36  1  6
  3 37  1  0
  3 38  1  0
  4 39  1  0
  4 40  1  0
  5 41  1  1
  8 42  1  0
  8 43  1  0
  8 44  1  0
  9 45  1  0
  9 46  1  0
  9 47  1  0
 10 48  1  1
 11 49  1  0
 11 50  1  0
 12 51  1  0
 12 52  1  0
 14 53  1  0
 14 54  1  0
 14 55  1  0
 15 56  1  6
 16 57  1  0
 16 58  1  0
 17 59  1  0
 19 60  1  1
 20 61  1  0
 20 62  1  0
 21 63  1  0
 21 64  1  0
 22 65  1  1
 23 66  1  0
 25 67  1  0
 25 68  1  0
 25 69  1  0
 26 70  1  0
 26 71  1  0
 26 72  1  0
 28 73  1  0
 28 74  1  0
 28 75  1  0
 29 76  1  0
 29 77  1  0
 30 78  1  0
 30 79  1  0
 32 80  1  0
 32 81  1  0
 32 82  1  0
M  END
>  <meeko>  (2) 
{"is_sidechain": [false], "intermolecular_energy": 2.731, "internal_energy": -0.839}

$$$$
EPH_relaxed_0001_pdb2pqr_Repair_169_r2_0001_out
     RDKit          3D

 82 86  0  0  0  0  0  0  0  0999 V2000
    3.0660   17.1630    0.4590 C   0  0  0  0  0  0  0  0  0  0  0  0
    2.5630   17.3710   -0.9720 C   0  0  2  0  0  0  0  0  0  0  0  0
    1.8640   18.7340   -1.1490 C   0  0  0  0  0  0  0  0  0  0  0  0
    1.4090   19.3680    0.1680 C   0  0  0  0  0  0  0  0  0  0  0  0
    0.1040   20.0900    0.0140 C   0  0  2  0  0  0  0  0  0  0  0  0
   -0.6720   20.1880    1.2150 O   0  0  0  0  0  0  0  0  0  0  0  0
   -1.2470   19.4140    0.1500 C   0  0  0  0  0  0  0  0  0  0  0  0
   -1.3620   17.9530    0.4520 C   0  0  0  0  0  0  0  0  0  0  0  0
   -2.4380   20.0590   -0.4880 C   0  0  0  0  0  0  0  0  0  0  0  0
    1.6120   16.2440   -1.3570 C   0  0  1  0  0  0  0  0  0  0  0  0
    0.8050   16.5570   -2.6450 C   0  0  0  0  0  0  0  0  0  0  0  0
    0.6220   15.2130   -3.3970 C   0  0  0  0  0  0  0  0  0  0  0  0
    1.0320   14.1330   -2.3690 C   0  0  1  0  0  0  0  0  0  0  0  0
   -0.2250   13.9420   -1.4640 C   0  0  0  0  0  0  0  0  0  0  0  0
    1.5310   12.7730   -2.9580 C   0  0  2  0  0  0  0  0  0  0  0  0
    0.4910   12.0010   -3.7880 C   0  0  0  0  0  0  0  0  0  0  0  0
   -0.3510   11.0370   -3.0190 C   0  0  0  0  0  0  0  0  0  0  0  0
   -0.0910   10.5910   -1.7760 C   0  0  0  0  0  0  0  0  0  0  0  0
    1.2030   10.9840   -1.0520 C   0  0  1  0  0  0  0  0  0  0  0  0
    1.8430    9.7230   -0.4140 C   0  0  0  0  0  0  0  0  0  0  0  0
    0.8740    8.9690    0.4910 C   0  0  0  0  0  0  0  0  0  0  0  0
   -0.3740    8.5450   -0.2790 C   0  0  2  0  0  0  0  0  0  0  0  0
   -0.0020    7.5690   -1.2570 O   0  0  0  0  0  0  0  0  0  0  0  0
   -1.0990    9.7310   -0.9730 C   0  0  0  0  0  0  0  0  0  0  0  0
   -1.7630   10.6330    0.0960 C   0  0  0  0  0  0  0  0  0  0  0  0
   -2.2560    9.1490   -1.8300 C   0  0  0  0  0  0  0  0  0  0  0  0
    2.2430   11.8320   -1.9030 C   0  0  1  0  0  0  0  0  0  0  0  0
    3.1720   10.8770   -2.7140 C   0  0  0  0  0  0  0  0  0  0  0  0
    3.1780   12.6330   -0.9220 C   0  0  0  0  0  0  0  0  0  0  0  0
    2.6850   14.0210   -0.4700 C   0  0  0  0  0  0  0  0  0  0  0  0
    2.2380   14.8610   -1.6710 C   0  0  2  0  0  0  0  0  0  0  0  0
    3.4870   15.0880   -2.5880 C   0  0  0  0  0  0  0  0  0  0  0  0
    2.2907   17.4836    1.1704 H   0  0  0  0  0  0  0  0  0  0  0  0
    3.2911   16.0980    0.6174 H   0  0  0  0  0  0  0  0  0  0  0  0
    3.9776   17.7580    0.6174 H   0  0  0  0  0  0  0  0  0  0  0  0
    3.4398   17.3609   -1.6362 H   0  0  0  0  0  0  0  0  0  0  0  0
    2.5659   19.4228   -1.6417 H   0  0  0  0  0  0  0  0  0  0  0  0
    0.9596   18.5559   -1.7493 H   0  0  0  0  0  0  0  0  0  0  0  0
    1.2916   18.5765    0.9229 H   0  0  0  0  0  0  0  0  0  0  0  0
    2.1706   20.0986    0.4781 H   0  0  0  0  0  0  0  0  0  0  0  0
    0.5289   20.7396   -0.7654 H   0  0  0  0  0  0  0  0  0  0  0  0
   -1.3738   17.8037    1.5418 H   0  0  0  0  0  0  0  0  0  0  0  0
   -2.2938   17.5611    0.0181 H   0  0  0  0  0  0  0  0  0  0  0  0
   -0.5030   17.4202    0.0181 H   0  0  0  0  0  0  0  0  0  0  0  0
   -3.1183   20.4274    0.2940 H   0  0  0  0  0  0  0  0  0  0  0  0
   -2.1077   20.9015   -1.1134 H   0  0  0  0  0  0  0  0  0  0  0  0
   -2.9631   19.3220   -1.1134 H   0  0  0  0  0  0  0  0  0  0  0  0
    1.0127   16.1861   -0.4364 H   0  0  0  0  0  0  0  0  0  0  0  0
   -0.1757   16.9813   -2.3837 H   0  0  0  0  0  0  0  0  0  0  0  0
    1.3317   17.2915   -3.2720 H   0  0  0  0  0  0  0  0  0  0  0  0
   -0.4258   15.0792   -3.7041 H   0  0  0  0  0  0  0  0  0  0  0  0
    1.2235   15.1638   -4.3166 H   0  0  0  0  0  0  0  0  0  0  0  0
    0.0743   13.9875   -0.4065 H   0  0  0  0  0  0  0  0  0  0  0  0
   -0.9525   14.7399   -1.6738 H   0  0  0  0  0  0  0  0  0  0  0  0
   -0.6827   12.9640   -1.6738 H   0  0  0  0  0  0  0  0  0  0  0  0
    2.3039   13.0942   -3.6718 H   0  0  0  0  0  0  0  0  0  0  0  0
   -0.1783   12.7344   -4.2613 H   0  0  0  0  0  0  0  0  0  0  0  0
    1.0635   11.3978   -4.5080 H   0  0  0  0  0  0  0  0  0  0  0  0
   -1.2603   10.6596   -3.5097 H   0  0  0  0  0  0  0  0  0  0  0  0
    0.9075   11.6919   -0.2636 H   0  0  0  0  0  0  0  0  0  0  0  0
    2.1711    9.0486   -1.2187 H   0  0  0  0  0  0  0  0  0  0  0  0
    2.6887   10.0553    0.2060 H   0  0  0  0  0  0  0  0  0  0  0  0
    1.3744    8.0730    0.8870 H   0  0  0  0  0  0  0  0  0  0  0  0
    0.5705    9.6347    1.3124 H   0  0  0  0  0  0  0  0  0  0  0  0
   -1.0848    8.1272    0.4491 H   0  0  0  0  0  0  0  0  0  0  0  0
    0.3290    8.0460   -2.0370 H   0  0  0  0  0  0  0  0  0  0  0  0
   -1.4958   10.2700    1.0994 H   0  0  0  0  0  0  0  0  0  0  0  0
   -1.4092   11.6674   -0.0260 H   0  0  0  0  0  0  0  0  0  0  0  0
   -2.8558   10.6025   -0.0260 H   0  0  0  0  0  0  0  0  0  0  0  0
   -3.0404    8.7544   -1.1675 H   0  0  0  0  0  0  0  0  0  0  0  0
   -2.6771    9.9425   -2.4648 H   0  0  0  0  0  0  0  0  0  0  0  0
   -1.8699    8.3378   -2.4648 H   0  0  0  0  0  0  0  0  0  0  0  0
    3.7664   10.2660   -2.0188 H   0  0  0  0  0  0  0  0  0  0  0  0
    2.5586   10.2195   -3.3476 H   0  0  0  0  0  0  0  0  0  0  0  0
    3.8462   11.4720   -3.3476 H   0  0  0  0  0  0  0  0  0  0  0  0
    3.3172   12.0193   -0.0198 H   0  0  0  0  0  0  0  0  0  0  0  0
    4.0971   12.8266   -1.4945 H   0  0  0  0  0  0  0  0  0  0  0  0
    1.8355   13.8951    0.2174 H   0  0  0  0  0  0  0  0  0  0  0  0
    3.5133   14.5411    0.0335 H   0  0  0  0  0  0  0  0  0  0  0  0
    4.3769   15.2497   -1.9620 H   0  0  0  0  0  0  0  0  0  0  0  0
    3.6413   14.2032   -3.2231 H   0  0  0  0  0  0  0  0  0  0  0  0
    3.3201   15.9705   -3.2231 H   0  0  0  0  0  0  0  0  0  0  0  0
  1  2  1  0
  2  3  1  0
  3  4  1  0
  4  5  1  0
  5  6  1  0
  6  7  1  0
  7  8  1  0
  7  9  1  0
  2 10  1  0
 10 11  1  0
 11 12  1  0
 12 13  1  0
 13 14  1  1
 13 15  1  0
 15 16  1  0
 16 17  1  0
 17 18  2  0
 18 19  1  0
 19 20  1  0
 20 21  1  0
 21 22  1  0
 22 23  1  0
 22 24  1  0
 24 25  1  0
 24 26  1  0
 19 27  1  0
 27 28  1  6
 27 29  1  0
 29 30  1  0
 30 31  1  0
 31 32  1  6
  7  5  1  0
 31 10  1  0
 31 13  1  0
 27 15  1  0
 24 18  1  0
  1 33  1  0
  1 34  1  0
  1 35  1  0
  2 36  1  6
  3 37  1  0
  3 38  1  0
  4 39  1  0
  4 40  1  0
  5 41  1  6
  8 42  1  0
  8 43  1  0
  8 44  1  0
  9 45  1  0
  9 46  1  0
  9 47  1  0
 10 48  1  1
 11 49  1  0
 11 50  1  0
 12 51  1  0
 12 52  1  0
 14 53  1  0
 14 54  1  0
 14 55  1  0
 15 56  1  6
 16 57  1  0
 16 58  1  0
 17 59  1  0
 19 60  1  1
 20 61  1  0
 20 62  1  0
 21 63  1  0
 21 64  1  0
 22 65  1  1
 23 66  1  0
 25 67  1  0
 25 68  1  0
 25 69  1  0
 26 70  1  0
 26 71  1  0
 26 72  1  0
 28 73  1  0
 28 74  1  0
 28 75  1  0
 29 76  1  0
 29 77  1  0
 30 78  1  0
 30 79  1  0
 32 80  1  0
 32 81  1  0
 32 82  1  0
M  END
>  <meeko>  (3) 
{"is_sidechain": [false], "intermolecular_energy": 2.731, "internal_energy": -0.839}

$$$$
EPH_relaxed_0001_pdb2pqr_Repair_169_r2_0001_out
     RDKit          3D

 82 86  0  0  0  0  0  0  0  0999 V2000
    1.7160   18.6080   -1.5320 C   0  0  0  0  0  0  0  0  0  0  0  0
    1.6540   17.4560   -0.5240 C   0  0  2  0  0  0  0  0  0  0  0  0
    3.0550   17.0390   -0.0330 C   0  0  0  0  0  0  0  0  0  0  0  0
    3.9590   18.2210    0.3270 C   0  0  0  0  0  0  0  0  0  0  0  0
    3.7090   18.7030    1.7240 C   0  0  2  0  0  0  0  0  0  0  0  0
    4.0240   20.0840    1.9460 O   0  0  0  0  0  0  0  0  0  0  0  0
    4.8150   19.1300    2.6720 C   0  0  0  0  0  0  0  0  0  0  0  0
    6.2530   19.0930    2.2600 C   0  0  0  0  0  0  0  0  0  0  0  0
    4.5410   19.1150    4.1440 C   0  0  0  0  0  0  0  0  0  0  0  0
    0.9420   16.2600   -1.1450 C   0  0  1  0  0  0  0  0  0  0  0  0
    0.4480   16.5420   -2.5880 C   0  0  0  0  0  0  0  0  0  0  0  0
    0.5870   15.2140   -3.3760 C   0  0  0  0  0  0  0  0  0  0  0  0
    0.8370   14.1410   -2.2910 C   0  0  1  0  0  0  0  0  0  0  0  0
   -0.5790   13.8040   -1.7260 C   0  0  0  0  0  0  0  0  0  0  0  0
    1.5950   12.8540   -2.7530 C   0  0  2  0  0  0  0  0  0  0  0  0
    0.8700   12.0180   -3.8220 C   0  0  0  0  0  0  0  0  0  0  0  0
   -0.0360   10.9560   -3.2950 C   0  0  0  0  0  0  0  0  0  0  0  0
   -0.0460   10.4920   -2.0310 C   0  0  0  0  0  0  0  0  0  0  0  0
    0.9870   10.9780   -1.0060 C   0  0  1  0  0  0  0  0  0  0  0  0
    1.5720    9.7600   -0.2440 C   0  0  0  0  0  0  0  0  0  0  0  0
    0.4890    8.8890    0.3870 C   0  0  0  0  0  0  0  0  0  0  0  0
   -0.4840    8.3780   -0.6720 C   0  0  2  0  0  0  0  0  0  0  0  0
    0.2090    7.4750   -1.5390 O   0  0  0  0  0  0  0  0  0  0  0  0
   -1.1300    9.5160   -1.5110 C   0  0  0  0  0  0  0  0  0  0  0  0
   -2.1210   10.3160   -0.6290 C   0  0  0  0  0  0  0  0  0  0  0  0
   -1.9790    8.8600   -2.6330 C   0  0  0  0  0  0  0  0  0  0  0  0
    2.1160   11.9470   -1.5650 C   0  0  1  0  0  0  0  0  0  0  0  0
    3.3030   11.1100   -2.1320 C   0  0  0  0  0  0  0  0  0  0  0  0
    2.7000   12.7970   -0.3750 C   0  0  0  0  0  0  0  0  0  0  0  0
    1.9780   14.1170   -0.0440 C   0  0  0  0  0  0  0  0  0  0  0  0
    1.7570   14.9530   -1.3090 C   0  0  2  0  0  0  0  0  0  0  0  0
    3.1650   15.3260   -1.8870 C   0  0  0  0  0  0  0  0  0  0  0  0
    1.7675   19.5651   -0.9923 H   0  0  0  0  0  0  0  0  0  0  0  0
    2.6094   18.4948   -2.1637 H   0  0  0  0  0  0  0  0  0  0  0  0
    0.8157   18.5913   -2.1637 H   0  0  0  0  0  0  0  0  0  0  0  0
    1.0896   17.8111    0.3509 H   0  0  0  0  0  0  0  0  0  0  0  0
    2.9362   16.4082    0.8603 H   0  0  0  0  0  0  0  0  0  0  0  0
    3.5403   16.5048   -0.8631 H   0  0  0  0  0  0  0  0  0  0  0  0
    5.0094   17.9059    0.2409 H   0  0  0  0  0  0  0  0  0  0  0  0
    3.7377   19.0462   -0.3659 H   0  0  0  0  0  0  0  0  0  0  0  0
    2.8663   18.0055    1.8394 H   0  0  0  0  0  0  0  0  0  0  0  0
    6.8908   19.0766    3.1560 H   0  0  0  0  0  0  0  0  0  0  0  0
    6.4395   18.1898    1.6605 H   0  0  0  0  0  0  0  0  0  0  0  0
    6.4857   19.9855    1.6605 H   0  0  0  0  0  0  0  0  0  0  0  0
    5.4919   19.1671    4.6945 H   0  0  0  0  0  0  0  0  0  0  0  0
    3.9158   19.9803    4.4094 H   0  0  0  0  0  0  0  0  0  0  0  0
    4.0140   18.1867    4.4094 H   0  0  0  0  0  0  0  0  0  0  0  0
    0.1442   16.1149   -0.4017 H   0  0  0  0  0  0  0  0  0  0  0  0
   -0.6035   16.8647   -2.5721 H   0  0  0  0  0  0  0  0  0  0  0  0
    1.0373   17.3434   -3.0576 H   0  0  0  0  0  0  0  0  0  0  0  0
   -0.3356   14.9949   -3.9335 H   0  0  0  0  0  0  0  0  0  0  0  0
    1.3972   15.2526   -4.1190 H   0  0  0  0  0  0  0  0  0  0  0  0
   -0.5464   13.8117   -0.6265 H   0  0  0  0  0  0  0  0  0  0  0  0
   -1.3020   14.5552   -2.0767 H   0  0  0  0  0  0  0  0  0  0  0  0
   -0.8861   12.8077   -2.0767 H   0  0  0  0  0  0  0  0  0  0  0  0
    2.4835   13.2696   -3.2509 H   0  0  0  0  0  0  0  0  0  0  0  0
    0.2688   12.7024   -4.4385 H   0  0  0  0  0  0  0  0  0  0  0  0
    1.6573   11.4946   -4.3843 H   0  0  0  0  0  0  0  0  0  0  0  0
   -0.7570   10.5147   -3.9989 H   0  0  0  0  0  0  0  0  0  0  0  0
    0.4398   11.6283   -0.3077 H   0  0  0  0  0  0  0  0  0  0  0  0
    2.1505    9.1467   -0.9506 H   0  0  0  0  0  0  0  0  0  0  0  0
    2.2046   10.1470    0.5684 H   0  0  0  0  0  0  0  0  0  0  0  0
    0.9624    8.0303    0.8855 H   0  0  0  0  0  0  0  0  0  0  0  0
   -0.0701    9.4953    1.1149 H   0  0  0  0  0  0  0  0  0  0  0  0
   -1.3062    7.8707   -0.1460 H   0  0  0  0  0  0  0  0  0  0  0  0
    1.0110    7.9270   -1.8530 H   0  0  0  0  0  0  0  0  0  0  0  0
   -1.8961   10.1345    0.4324 H   0  0  0  0  0  0  0  0  0  0  0  0
   -2.0211   11.3896   -0.8465 H   0  0  0  0  0  0  0  0  0  0  0  0
   -3.1494    9.9919   -0.8465 H   0  0  0  0  0  0  0  0  0  0  0  0
   -2.7726    8.2468   -2.1812 H   0  0  0  0  0  0  0  0  0  0  0  0
   -2.4321    9.6449   -3.2564 H   0  0  0  0  0  0  0  0  0  0  0  0
   -1.3338    8.2235   -3.2564 H   0  0  0  0  0  0  0  0  0  0  0  0
    3.8904   10.6958   -1.2993 H   0  0  0  0  0  0  0  0  0  0  0  0
    2.9105   10.2878   -2.7484 H   0  0  0  0  0  0  0  0  0  0  0  0
    3.9456   11.7558   -2.7484 H   0  0  0  0  0  0  0  0  0  0  0  0
    2.6740   12.1682    0.5272 H   0  0  0  0  0  0  0  0  0  0  0  0
    3.7077   13.0942   -0.7011 H   0  0  0  0  0  0  0  0  0  0  0  0
    1.0031   13.8895    0.4119 H   0  0  0  0  0  0  0  0  0  0  0  0
    2.6036   14.6939    0.6530 H   0  0  0  0  0  0  0  0  0  0  0  0
    3.8642   15.5112   -1.0583 H   0  0  0  0  0  0  0  0  0  0  0  0
    3.5396   14.4961   -2.5042 H   0  0  0  0  0  0  0  0  0  0  0  0
    3.0796   16.2325   -2.5042 H   0  0  0  0  0  0  0  0  0  0  0  0
  1  2  1  0
  2  3  1  0
  3  4  1  0
  4  5  1  0
  5  6  1  0
  6  7  1  0
  7  8  1  0
  7  9  1  0
  2 10  1  0
 10 11  1  0
 11 12  1  0
 12 13  1  0
 13 14  1  1
 13 15  1  0
 15 16  1  0
 16 17  1  0
 17 18  2  0
 18 19  1  0
 19 20  1  0
 20 21  1  0
 21 22  1  0
 22 23  1  0
 22 24  1  0
 24 25  1  0
 24 26  1  0
 19 27  1  0
 27 28  1  6
 27 29  1  0
 29 30  1  0
 30 31  1  0
 31 32  1  6
  7  5  1  0
 31 10  1  0
 31 13  1  0
 27 15  1  0
 24 18  1  0
  1 33  1  0
  1 34  1  0
  1 35  1  0
  2 36  1  1
  3 37  1  0
  3 38  1  0
  4 39  1  0
  4 40  1  0
  5 41  1  1
  8 42  1  0
  8 43  1  0
  8 44  1  0
  9 45  1  0
  9 46  1  0
  9 47  1  0
 10 48  1  1
 11 49  1  0
 11 50  1  0
 12 51  1  0
 12 52  1  0
 14 53  1  0
 14 54  1  0
 14 55  1  0
 15 56  1  6
 16 57  1  0
 16 58  1  0
 17 59  1  0
 19 60  1  1
 20 61  1  0
 20 62  1  0
 21 63  1  0
 21 64  1  0
 22 65  1  1
 23 66  1  0
 25 67  1  0
 25 68  1  0
 25 69  1  0
 26 70  1  0
 26 71  1  0
 26 72  1  0
 28 73  1  0
 28 74  1  0
 28 75  1  0
 29 76  1  0
 29 77  1  0
 30 78  1  0
 30 79  1  0
 32 80  1  0
 32 81  1  0
 32 82  1  0
M  END
>  <meeko>  (4) 
{"is_sidechain": [false], "intermolecular_energy": 2.731, "internal_energy": -0.839}

$$$$
EPH_relaxed_0001_pdb2pqr_Repair_169_r2_0001_out
     RDKit          3D

 82 86  0  0  0  0  0  0  0  0999 V2000
   -1.6450    8.6010   -1.9290 C   0  0  0  0  0  0  0  0  0  0  0  0
   -2.0410    9.0580   -0.5220 C   0  0  2  0  0  0  0  0  0  0  0  0
   -3.5470    9.3690   -0.4150 C   0  0  0  0  0  0  0  0  0  0  0  0
   -4.4290    8.1200   -0.3370 C   0  0  0  0  0  0  0  0  0  0  0  0
   -5.1490    7.8680   -1.6270 C   0  0  2  0  0  0  0  0  0  0  0  0
   -6.3250    8.6650   -1.8220 O   0  0  0  0  0  0  0  0  0  0  0  0
   -6.5310    7.2480   -1.7070 C   0  0  0  0  0  0  0  0  0  0  0  0
   -7.2750    6.8390   -0.4750 C   0  0  0  0  0  0  0  0  0  0  0  0
   -6.9490    6.5930   -2.9870 C   0  0  0  0  0  0  0  0  0  0  0  0
   -1.2260   10.2840   -0.1260 C   0  0  1  0  0  0  0  0  0  0  0  0
   -0.2430    9.9960    1.0400 C   0  0  0  0  0  0  0  0  0  0  0  0
    1.0230   10.8540    0.7790 C   0  0  0  0  0  0  0  0  0  0  0  0
    0.6000   11.8450   -0.3300 C   0  0  1  0  0  0  0  0  0  0  0  0
   -0.1690   12.9800    0.4180 C   0  0  0  0  0  0  0  0  0  0  0  0
    1.7500   12.4180   -1.2210 C   0  0  2  0  0  0  0  0  0  0  0  0
    2.8010   13.2550   -0.4710 C   0  0  0  0  0  0  0  0  0  0  0  0
    2.5140   14.7180   -0.3940 C   0  0  0  0  0  0  0  0  0  0  0  0
    1.6100   15.3780   -1.1420 C   0  0  0  0  0  0  0  0  0  0  0  0
    0.8330   14.6610   -2.2530 C   0  0  1  0  0  0  0  0  0  0  0  0
    0.8470   15.5300   -3.5380 C   0  0  0  0  0  0  0  0  0  0  0  0
    0.3400   16.9470   -3.2920 C   0  0  0  0  0  0  0  0  0  0  0  0
    1.1740   17.6470   -2.2230 C   0  0  2  0  0  0  0  0  0  0  0  0
    2.4970   17.8480   -2.7290 O   0  0  0  0  0  0  0  0  0  0  0  0
    1.2400   16.8600   -0.8850 C   0  0  0  0  0  0  0  0  0  0  0  0
   -0.1410   16.9020   -0.1870 C   0  0  0  0  0  0  0  0  0  0  0  0
    2.2260   17.6030    0.0580 C   0  0  0  0  0  0  0  0  0  0  0  0
    1.2520   13.1530   -2.5300 C   0  0  1  0  0  0  0  0  0  0  0  0
    2.4350   13.1080   -3.5450 C   0  0  0  0  0  0  0  0  0  0  0  0
    0.0500   12.4040   -3.2170 C   0  0  0  0  0  0  0  0  0  0  0  0
   -0.9910   11.7570   -2.2830 C   0  0  0  0  0  0  0  0  0  0  0  0
   -0.3080   10.9070   -1.2060 C   0  0  2  0  0  0  0  0  0  0  0  0
    0.4550    9.7440   -1.9280 C   0  0  0  0  0  0  0  0  0  0  0  0
   -0.9262    7.7715   -1.8564 H   0  0  0  0  0  0  0  0  0  0  0  0
   -2.5409    8.2635   -2.4706 H   0  0  0  0  0  0  0  0  0  0  0  0
   -1.1834    9.4398   -2.4706 H   0  0  0  0  0  0  0  0  0  0  0  0
   -1.8257    8.2293    0.1686 H   0  0  0  0  0  0  0  0  0  0  0  0
   -3.7141    9.9694    0.4914 H   0  0  0  0  0  0  0  0  0  0  0  0
   -3.8304    9.9061   -1.3322 H   0  0  0  0  0  0  0  0  0  0  0  0
   -3.7960    7.2505   -0.1064 H   0  0  0  0  0  0  0  0  0  0  0  0
   -5.1810    8.2800    0.4497 H   0  0  0  0  0  0  0  0  0  0  0  0
   -4.2030    7.6296   -2.1353 H   0  0  0  0  0  0  0  0  0  0  0  0
   -6.7090    7.1502    0.4154 H   0  0  0  0  0  0  0  0  0  0  0  0
   -8.2642    7.3201   -0.4673 H   0  0  0  0  0  0  0  0  0  0  0  0
   -7.3988    5.7460   -0.4673 H   0  0  0  0  0  0  0  0  0  0  0  0
   -7.5283    5.6853   -2.7623 H   0  0  0  0  0  0  0  0  0  0  0  0
   -7.5700    7.2894   -3.5695 H   0  0  0  0  0  0  0  0  0  0  0  0
   -6.0558    6.3231   -3.5695 H   0  0  0  0  0  0  0  0  0  0  0  0
   -2.0436   10.9784    0.1175 H   0  0  0  0  0  0  0  0  0  0  0  0
   -0.7006   10.2778    1.9998 H   0  0  0  0  0  0  0  0  0  0  0  0
    0.0079    8.9262    1.0905 H   0  0  0  0  0  0  0  0  0  0  0  0
    1.3206   11.3942    1.6898 H   0  0  0  0  0  0  0  0  0  0  0  0
    1.8883   10.2422    0.4842 H   0  0  0  0  0  0  0  0  0  0  0  0
   -0.0709   12.8353    1.5040 H   0  0  0  0  0  0  0  0  0  0  0  0
    0.2547   13.9559    0.1384 H   0  0  0  0  0  0  0  0  0  0  0  0
   -1.2324   12.9483    0.1384 H   0  0  0  0  0  0  0  0  0  0  0  0
    2.2716   11.5061   -1.5471 H   0  0  0  0  0  0  0  0  0  0  0  0
    2.8737   12.8683    0.5562 H   0  0  0  0  0  0  0  0  0  0  0  0
    3.7341   13.1576   -1.0453 H   0  0  0  0  0  0  0  0  0  0  0  0
    3.0898   15.3064    0.3355 H   0  0  0  0  0  0  0  0  0  0  0  0
   -0.1983   14.5566   -1.8848 H   0  0  0  0  0  0  0  0  0  0  0  0
    1.8789   15.5853   -3.9149 H   0  0  0  0  0  0  0  0  0  0  0  0
    0.1738   15.0569   -4.2680 H   0  0  0  0  0  0  0  0  0  0  0  0
    0.4024   17.5194   -4.2293 H   0  0  0  0  0  0  0  0  0  0  0  0
   -0.7019   16.8914   -2.9437 H   0  0  0  0  0  0  0  0  0  0  0  0
    0.6847   18.6063   -1.9984 H   0  0  0  0  0  0  0  0  0  0  0  0
    2.4450   18.5180   -3.4320 H   0  0  0  0  0  0  0  0  0  0  0  0
   -0.0007   16.8977    0.9040 H   0  0  0  0  0  0  0  0  0  0  0  0
   -0.6745   17.8168   -0.4845 H   0  0  0  0  0  0  0  0  0  0  0  0
   -0.7291   16.0213   -0.4845 H   0  0  0  0  0  0  0  0  0  0  0  0
    1.9560   17.3995    1.1047 H   0  0  0  0  0  0  0  0  0  0  0  0
    3.2506   17.2505   -0.1315 H   0  0  0  0  0  0  0  0  0  0  0  0
    2.1696   18.6851   -0.1315 H   0  0  0  0  0  0  0  0  0  0  0  0
    3.3877   13.0718   -2.9963 H   0  0  0  0  0  0  0  0  0  0  0  0
    2.3418   12.2128   -4.1773 H   0  0  0  0  0  0  0  0  0  0  0  0
    2.4100   14.0077   -4.1773 H   0  0  0  0  0  0  0  0  0  0  0  0
   -0.4780   13.1326   -3.8498 H   0  0  0  0  0  0  0  0  0  0  0  0
    0.5075   11.5655   -3.7625 H   0  0  0  0  0  0  0  0  0  0  0  0
   -1.5797   12.5489   -1.7968 H   0  0  0  0  0  0  0  0  0  0  0  0
   -1.6435   11.1054   -2.8827 H   0  0  0  0  0  0  0  0  0  0  0  0
    0.8956    9.0724   -1.1764 H   0  0  0  0  0  0  0  0  0  0  0  0
   -0.2485    9.1790   -2.5572 H   0  0  0  0  0  0  0  0  0  0  0  0
    1.2534   10.1643   -2.5572 H   0  0  0  0  0  0  0  0  0  0  0  0
  1  2  1  0
  2  3  1  0
  3  4  1  0
  4  5  1  0
  5  6  1  0
  6  7  1  0
  7  8  1  0
  7  9  1  0
  2 10  1  0
 10 11  1  0
 11 12  1  0
 12 13  1  0
 13 14  1  1
 13 15  1  0
 15 16  1  0
 16 17  1  0
 17 18  2  0
 18 19  1  0
 19 20  1  0
 20 21  1  0
 21 22  1  0
 22 23  1  0
 22 24  1  0
 24 25  1  0
 24 26  1  0
 19 27  1  0
 27 28  1  6
 27 29  1  0
 29 30  1  0
 30 31  1  0
 31 32  1  6
  7  5  1  0
 31 10  1  0
 31 13  1  0
 27 15  1  0
 24 18  1  0
  1 33  1  0
  1 34  1  0
  1 35  1  0
  2 36  1  1
  3 37  1  0
  3 38  1  0
  4 39  1  0
  4 40  1  0
  5 41  1  6
  8 42  1  0
  8 43  1  0
  8 44  1  0
  9 45  1  0
  9 46  1  0
  9 47  1  0
 10 48  1  1
 11 49  1  0
 11 50  1  0
 12 51  1  0
 12 52  1  0
 14 53  1  0
 14 54  1  0
 14 55  1  0
 15 56  1  6
 16 57  1  0
 16 58  1  0
 17 59  1  0
 19 60  1  1
 20 61  1  0
 20 62  1  0
 21 63  1  0
 21 64  1  0
 22 65  1  1
 23 66  1  0
 25 67  1  0
 25 68  1  0
 25 69  1  0
 26 70  1  0
 26 71  1  0
 26 72  1  0
 28 73  1  0
 28 74  1  0
 28 75  1  0
 29 76  1  0
 29 77  1  0
 30 78  1  0
 30 79  1  0
 32 80  1  0
 32 81  1  0
 32 82  1  0
M  END
>  <meeko>  (5) 
{"is_sidechain": [false], "intermolecular_energy": 2.731, "internal_energy": -0.839}

$$$$
EPH_relaxed_0001_pdb2pqr_Repair_169_r2_0001_out
     RDKit          3D

 82 86  0  0  0  0  0  0  0  0999 V2000
    3.4650   17.8750   -0.8530 C   0  0  0  0  0  0  0  0  0  0  0  0
    2.4860   17.5050   -1.9710 C   0  0  2  0  0  0  0  0  0  0  0  0
    1.0510   17.9800   -1.6670 C   0  0  0  0  0  0  0  0  0  0  0  0
    0.9520   18.8910   -0.4390 C   0  0  0  0  0  0  0  0  0  0  0  0
   -0.2940   19.7240   -0.4670 C   0  0  2  0  0  0  0  0  0  0  0  0
   -0.7490   20.1620    0.8200 O   0  0  0  0  0  0  0  0  0  0  0  0
   -1.6190   19.2650    0.1120 C   0  0  0  0  0  0  0  0  0  0  0  0
   -1.7670   17.9230    0.7580 C   0  0  0  0  0  0  0  0  0  0  0  0
   -2.8770   19.9100   -0.3820 C   0  0  0  0  0  0  0  0  0  0  0  0
    2.4990   15.9980   -2.1960 C   0  0  1  0  0  0  0  0  0  0  0  0
    3.9140   15.4550   -2.5310 C   0  0  0  0  0  0  0  0  0  0  0  0
    4.0170   14.0480   -1.8880 C   0  0  0  0  0  0  0  0  0  0  0  0
    2.5650   13.6910   -1.4950 C   0  0  1  0  0  0  0  0  0  0  0  0
    1.9070   13.1780   -2.8140 C   0  0  0  0  0  0  0  0  0  0  0  0
    2.3970   12.6630   -0.3290 C   0  0  2  0  0  0  0  0  0  0  0  0
    2.9730   11.2630   -0.6050 C   0  0  0  0  0  0  0  0  0  0  0  0
    2.0220   10.2930   -1.2220 C   0  0  0  0  0  0  0  0  0  0  0  0
    0.6850   10.4380   -1.2820 C   0  0  0  0  0  0  0  0  0  0  0  0
   -0.0090   11.6270   -0.6050 C   0  0  1  0  0  0  0  0  0  0  0  0
   -1.2390   11.1210    0.1950 C   0  0  0  0  0  0  0  0  0  0  0  0
   -2.1950   10.2970   -0.6610 C   0  0  0  0  0  0  0  0  0  0  0  0
   -1.4830    9.0930   -1.2700 C   0  0  2  0  0  0  0  0  0  0  0  0
   -1.1160    8.1940   -0.2190 O   0  0  0  0  0  0  0  0  0  0  0  0
   -0.2210    9.4780   -2.0920 C   0  0  0  0  0  0  0  0  0  0  0  0
   -0.6490   10.1980   -3.3950 C   0  0  0  0  0  0  0  0  0  0  0  0
    0.4820    8.1660   -2.5320 C   0  0  0  0  0  0  0  0  0  0  0  0
    0.9290   12.5790    0.2550 C   0  0  1  0  0  0  0  0  0  0  0  0
    1.0580   12.0280    1.7080 C   0  0  0  0  0  0  0  0  0  0  0  0
    0.2510   13.9950    0.3760 C   0  0  0  0  0  0  0  0  0  0  0  0
    0.5510   15.0070   -0.7460 C   0  0  0  0  0  0  0  0  0  0  0  0
    2.0560   15.0990   -1.0140 C   0  0  2  0  0  0  0  0  0  0  0  0
    2.7420   15.6330    0.2890 C   0  0  0  0  0  0  0  0  0  0  0  0
    2.9912   17.6959    0.1234 H   0  0  0  0  0  0  0  0  0  0  0  0
    4.3710   17.2573   -0.9397 H   0  0  0  0  0  0  0  0  0  0  0  0
    3.7360   18.9376   -0.9397 H   0  0  0  0  0  0  0  0  0  0  0  0
    2.8176   18.0199   -2.8847 H   0  0  0  0  0  0  0  0  0  0  0  0
    0.6755   18.5327   -2.5408 H   0  0  0  0  0  0  0  0  0  0  0  0
    0.4537   17.0820   -1.4506 H   0  0  0  0  0  0  0  0  0  0  0  0
    0.9443   18.2681    0.4676 H   0  0  0  0  0  0  0  0  0  0  0  0
    1.8184   19.5688   -0.4435 H   0  0  0  0  0  0  0  0  0  0  0  0
   -0.0223   20.1416   -1.4477 H   0  0  0  0  0  0  0  0  0  0  0  0
   -1.7542   18.0392    1.8518 H   0  0  0  0  0  0  0  0  0  0  0  0
   -2.7205   17.4702    0.4485 H   0  0  0  0  0  0  0  0  0  0  0  0
   -0.9351   17.2733    0.4485 H   0  0  0  0  0  0  0  0  0  0  0  0
   -3.4894   20.2240    0.4761 H   0  0  0  0  0  0  0  0  0  0  0  0
   -2.6230   20.7891   -0.9925 H   0  0  0  0  0  0  0  0  0  0  0  0
   -3.4426   19.1907   -0.9925 H   0  0  0  0  0  0  0  0  0  0  0  0
    1.7698   15.9282   -3.0166 H   0  0  0  0  0  0  0  0  0  0  0  0
    4.0442   15.3838   -3.6210 H   0  0  0  0  0  0  0  0  0  0  0  0
    4.6959   16.1246   -2.1434 H   0  0  0  0  0  0  0  0  0  0  0  0
    4.4141   13.3193   -2.6100 H   0  0  0  0  0  0  0  0  0  0  0  0
    4.6983   14.0330   -1.0245 H   0  0  0  0  0  0  0  0  0  0  0  0
    1.0612   12.5186   -2.5695 H   0  0  0  0  0  0  0  0  0  0  0  0
    1.5458   14.0352   -3.4011 H   0  0  0  0  0  0  0  0  0  0  0  0
    2.6502   12.6186   -3.4011 H   0  0  0  0  0  0  0  0  0  0  0  0
    3.0298   13.0962    0.4596 H   0  0  0  0  0  0  0  0  0  0  0  0
    3.8311   11.3763   -1.2838 H   0  0  0  0  0  0  0  0  0  0  0  0
    3.2401   10.8448    0.3767 H   0  0  0  0  0  0  0  0  0  0  0  0
    2.4497    9.3818   -1.6656 H   0  0  0  0  0  0  0  0  0  0  0  0
   -0.3394   12.2903   -1.4180 H   0  0  0  0  0  0  0  0  0  0  0  0
   -0.8849   10.4967    1.0286 H   0  0  0  0  0  0  0  0  0  0  0  0
   -1.7890   12.0031    0.5548 H   0  0  0  0  0  0  0  0  0  0  0  0
   -3.0265    9.9438   -0.0334 H   0  0  0  0  0  0  0  0  0  0  0  0
   -2.5710   10.9317   -1.4769 H   0  0  0  0  0  0  0  0  0  0  0  0
   -2.1826    8.6179   -1.9734 H   0  0  0  0  0  0  0  0  0  0  0  0
   -0.1450    8.1470   -0.1980 H   0  0  0  0  0  0  0  0  0  0  0  0
   -1.1961   11.1183   -3.1426 H   0  0  0  0  0  0  0  0  0  0  0  0
    0.2446   10.4524   -3.9838 H   0  0  0  0  0  0  0  0  0  0  0  0
   -1.2995    9.5345   -3.9838 H   0  0  0  0  0  0  0  0  0  0  0  0
    0.7869    7.5969   -1.6414 H   0  0  0  0  0  0  0  0  0  0  0  0
   -0.2130    7.5614   -3.1332 H   0  0  0  0  0  0  0  0  0  0  0  0
    1.3703    8.4098   -3.1332 H   0  0  0  0  0  0  0  0  0  0  0  0
    0.8680   12.8394    2.4260 H   0  0  0  0  0  0  0  0  0  0  0  0
    0.3240   11.2232    1.8615 H   0  0  0  0  0  0  0  0  0  0  0  0
    2.0730   11.6327    1.8615 H   0  0  0  0  0  0  0  0  0  0  0  0
   -0.8379   13.8413    0.4031 H   0  0  0  0  0  0  0  0  0  0  0  0
    0.6765   14.4409    1.2871 H   0  0  0  0  0  0  0  0  0  0  0  0
    0.0407   14.6858   -1.6660 H   0  0  0  0  0  0  0  0  0  0  0  0
    0.1900   15.9971   -0.4307 H   0  0  0  0  0  0  0  0  0  0  0  0
    2.2218   15.2281    1.1696 H   0  0  0  0  0  0  0  0  0  0  0  0
    3.7947   15.3142    0.3062 H   0  0  0  0  0  0  0  0  0  0  0  0
    2.6913   16.7317    0.3062 H   0  0  0  0  0  0  0  0  0  0  0  0
  1  2  1  0
  2  3  1  0
  3  4  1  0
  4  5  1  0
  5  6  1  0
  6  7  1  0
  7  8  1  0
  7  9  1  0
  2 10  1  0
 10 11  1  0
 11 12  1  0
 12 13  1  0
 13 14  1  6
 13 15  1  0
 15 16  1  0
 16 17  1  0
 17 18  2  0
 18 19  1  0
 19 20  1  0
 20 21  1  0
 21 22  1  0
 22 23  1  0
 22 24  1  0
 24 25  1  0
 24 26  1  0
 19 27  1  0
 27 28  1  1
 27 29  1  0
 29 30  1  0
 30 31  1  0
 31 32  1  1
  7  5  1  0
 31 10  1  0
 31 13  1  0
 27 15  1  0
 24 18  1  0
  1 33  1  0
  1 34  1  0
  1 35  1  0
  2 36  1  6
  3 37  1  0
  3 38  1  0
  4 39  1  0
  4 40  1  0
  5 41  1  6
  8 42  1  0
  8 43  1  0
  8 44  1  0
  9 45  1  0
  9 46  1  0
  9 47  1  0
 10 48  1  6
 11 49  1  0
 11 50  1  0
 12 51  1  0
 12 52  1  0
 14 53  1  0
 14 54  1  0
 14 55  1  0
 15 56  1  1
 16 57  1  0
 16 58  1  0
 17 59  1  0
 19 60  1  6
 20 61  1  0
 20 62  1  0
 21 63  1  0
 21 64  1  0
 22 65  1  6
 23 66  1  0
 25 67  1  0
 25 68  1  0
 25 69  1  0
 26 70  1  0
 26 71  1  0
 26 72  1  0
 28 73  1  0
 28 74  1  0
 28 75  1  0
 29 76  1  0
 29 77  1  0
 30 78  1  0
 30 79  1  0
 32 80  1  0
 32 81  1  0
 32 82  1  0
M  END
>  <meeko>  (6) 
{"is_sidechain": [false], "intermolecular_energy": 2.731, "internal_energy": -0.839}

$$$$
EPH_relaxed_0001_pdb2pqr_Repair_169_r2_0001_out
     RDKit          3D

 82 86  0  0  0  0  0  0  0  0999 V2000
   -2.5320    7.5840   -3.0830 C   0  0  0  0  0  0  0  0  0  0  0  0
   -2.8530    7.8510   -1.6100 C   0  0  2  0  0  0  0  0  0  0  0  0
   -4.3690    7.8040   -1.3290 C   0  0  0  0  0  0  0  0  0  0  0  0
   -5.0860    6.6390   -2.0150 C   0  0  0  0  0  0  0  0  0  0  0  0
   -6.3090    7.0970   -2.7500 C   0  0  2  0  0  0  0  0  0  0  0  0
   -6.8580    8.3370   -2.2860 O   0  0  0  0  0  0  0  0  0  0  0  0
   -7.6860    7.1750   -2.1170 C   0  0  0  0  0  0  0  0  0  0  0  0
   -7.9110    6.7890   -0.6890 C   0  0  0  0  0  0  0  0  0  0  0  0
   -8.8870    7.1550   -3.0110 C   0  0  0  0  0  0  0  0  0  0  0  0
   -2.2870    9.2030   -1.1910 C   0  0  1  0  0  0  0  0  0  0  0  0
   -2.8290    9.6770    0.1840 C   0  0  0  0  0  0  0  0  0  0  0  0
   -1.6730   10.4400    0.8810 C   0  0  0  0  0  0  0  0  0  0  0  0
   -0.6270   10.6680   -0.2350 C   0  0  1  0  0  0  0  0  0  0  0  0
   -1.1440   11.9130   -1.0210 C   0  0  0  0  0  0  0  0  0  0  0  0
    0.8530   10.8540    0.2320 C   0  0  2  0  0  0  0  0  0  0  0  0
    1.1070   12.0850    1.1200 C   0  0  0  0  0  0  0  0  0  0  0  0
    1.4770   13.3330    0.3890 C   0  0  0  0  0  0  0  0  0  0  0  0
    1.8770   13.3980   -0.8940 C   0  0  0  0  0  0  0  0  0  0  0  0
    2.0850   12.1230   -1.7210 C   0  0  1  0  0  0  0  0  0  0  0  0
    3.4340   12.2130   -2.4810 C   0  0  0  0  0  0  0  0  0  0  0  0
    3.5470   13.4790   -3.3250 C   0  0  0  0  0  0  0  0  0  0  0  0
    3.3930   14.7270   -2.4590 C   0  0  2  0  0  0  0  0  0  0  0  0
    4.5120   14.8140   -1.5720 O   0  0  0  0  0  0  0  0  0  0  0  0
    2.0730   14.7430   -1.6370 C   0  0  0  0  0  0  0  0  0  0  0  0
    0.8700   14.9520   -2.5890 C   0  0  0  0  0  0  0  0  0  0  0  0
    2.1080   15.9820   -0.7030 C   0  0  0  0  0  0  0  0  0  0  0  0
    1.9190   10.7520   -0.9330 C   0  0  1  0  0  0  0  0  0  0  0  0
    3.2710   10.3540   -0.2670 C   0  0  0  0  0  0  0  0  0  0  0  0
    1.5760    9.6080   -1.9600 C   0  0  0  0  0  0  0  0  0  0  0  0
    0.0860    9.3950   -2.2900 C   0  0  0  0  0  0  0  0  0  0  0  0
   -0.7520    9.3060   -1.0110 C   0  0  2  0  0  0  0  0  0  0  0  0
   -0.2690    8.0490   -0.2090 C   0  0  0  0  0  0  0  0  0  0  0  0
   -1.6880    6.8820   -3.1529 H   0  0  0  0  0  0  0  0  0  0  0  0
   -3.4130    7.1486   -3.5772 H   0  0  0  0  0  0  0  0  0  0  0  0
   -2.2643    8.5296   -3.5772 H   0  0  0  0  0  0  0  0  0  0  0  0
   -2.3823    7.0520   -1.0183 H   0  0  0  0  0  0  0  0  0  0  0  0
   -4.5182    7.7125   -0.2430 H   0  0  0  0  0  0  0  0  0  0  0  0
   -4.8001    8.7308   -1.7353 H   0  0  0  0  0  0  0  0  0  0  0  0
   -4.3961    6.1671   -2.7301 H   0  0  0  0  0  0  0  0  0  0  0  0
   -5.3992    5.9245   -1.2395 H   0  0  0  0  0  0  0  0  0  0  0  0
   -5.9502    6.6348   -3.6815 H   0  0  0  0  0  0  0  0  0  0  0  0
   -7.4677    7.5495   -0.0294 H   0  0  0  0  0  0  0  0  0  0  0  0
   -8.9913    6.7192   -0.4939 H   0  0  0  0  0  0  0  0  0  0  0  0
   -7.4394    5.8146   -0.4939 H   0  0  0  0  0  0  0  0  0  0  0  0
   -9.8002    7.1398   -2.3980 H   0  0  0  0  0  0  0  0  0  0  0  0
   -8.8865    8.0533   -3.6459 H   0  0  0  0  0  0  0  0  0  0  0  0
   -8.8566    6.2572   -3.6459 H   0  0  0  0  0  0  0  0  0  0  0  0
   -2.6065    9.8113   -2.0500 H   0  0  0  0  0  0  0  0  0  0  0  0
   -3.6918   10.3443    0.0416 H   0  0  0  0  0  0  0  0  0  0  0  0
   -3.1628    8.8237    0.7926 H   0  0  0  0  0  0  0  0  0  0  0  0
   -2.0282   11.4006    1.2824 H   0  0  0  0  0  0  0  0  0  0  0  0
   -1.2586    9.8813    1.7331 H   0  0  0  0  0  0  0  0  0  0  0  0
   -1.4658   12.6880   -0.3098 H   0  0  0  0  0  0  0  0  0  0  0  0
   -0.3358   12.3088   -1.6537 H   0  0  0  0  0  0  0  0  0  0  0  0
   -1.9948   11.6199   -1.6537 H   0  0  0  0  0  0  0  0  0  0  0  0
    1.0064    9.9797    0.8816 H   0  0  0  0  0  0  0  0  0  0  0  0
    0.1897   12.2859    1.6930 H   0  0  0  0  0  0  0  0  0  0  0  0
    1.9732   11.8328    1.7494 H   0  0  0  0  0  0  0  0  0  0  0  0
    1.4176   14.2794    0.9464 H   0  0  0  0  0  0  0  0  0  0  0  0
    1.2535   12.0874   -2.4402 H   0  0  0  0  0  0  0  0  0  0  0  0
    4.2534   12.2042   -1.7471 H   0  0  0  0  0  0  0  0  0  0  0  0
    3.4913   11.3514   -3.1624 H   0  0  0  0  0  0  0  0  0  0  0  0
    4.5322   13.4992   -3.8138 H   0  0  0  0  0  0  0  0  0  0  0  0
    2.7447   13.4723   -4.0775 H   0  0  0  0  0  0  0  0  0  0  0  0
    3.3532   15.5942   -3.1346 H   0  0  0  0  0  0  0  0  0  0  0  0
    4.2140   15.2640   -0.7640 H   0  0  0  0  0  0  0  0  0  0  0  0
   -0.0432   15.1106   -1.9966 H   0  0  0  0  0  0  0  0  0  0  0  0
    1.0530   15.8318   -3.2234 H   0  0  0  0  0  0  0  0  0  0  0  0
    0.7455   14.0620   -3.2234 H   0  0  0  0  0  0  0  0  0  0  0  0
    2.0986   15.6508    0.3459 H   0  0  0  0  0  0  0  0  0  0  0  0
    3.0229   16.5613   -0.8965 H   0  0  0  0  0  0  0  0  0  0  0  0
    1.2273   16.6120   -0.8965 H   0  0  0  0  0  0  0  0  0  0  0  0
    3.1640   10.3855    0.8273 H   0  0  0  0  0  0  0  0  0  0  0  0
    3.5479    9.3362   -0.5792 H   0  0  0  0  0  0  0  0  0  0  0  0
    4.0552   11.0594   -0.5792 H   0  0  0  0  0  0  0  0  0  0  0  0
    2.0957    9.8391   -2.9015 H   0  0  0  0  0  0  0  0  0  0  0  0
    1.8990    8.6765   -1.4721 H   0  0  0  0  0  0  0  0  0  0  0  0
   -0.2724   10.2396   -2.8969 H   0  0  0  0  0  0  0  0  0  0  0  0
   -0.0188    8.4506   -2.8441 H   0  0  0  0  0  0  0  0  0  0  0  0
   -0.3464    8.2503    0.8697 H   0  0  0  0  0  0  0  0  0  0  0  0
   -0.8992    7.1851   -0.4669 H   0  0  0  0  0  0  0  0  0  0  0  0
    0.7775    7.8294   -0.4669 H   0  0  0  0  0  0  0  0  0  0  0  0
  1  2  1  0
  2  3  1  0
  3  4  1  0
  4  5  1  0
  5  6  1  0
  6  7  1  0
  7  8  1  0
  7  9  1  0
  2 10  1  0
 10 11  1  0
 11 12  1  0
 12 13  1  0
 13 14  1  6
 13 15  1  0
 15 16  1  0
 16 17  1  0
 17 18  2  0
 18 19  1  0
 19 20  1  0
 20 21  1  0
 21 22  1  0
 22 23  1  0
 22 24  1  0
 24 25  1  0
 24 26  1  0
 19 27  1  0
 27 28  1  1
 27 29  1  0
 29 30  1  0
 30 31  1  0
 31 32  1  1
  7  5  1  0
 31 10  1  0
 31 13  1  0
 27 15  1  0
 24 18  1  0
  1 33  1  0
  1 34  1  0
  1 35  1  0
  2 36  1  1
  3 37  1  0
  3 38  1  0
  4 39  1  0
  4 40  1  0
  5 41  1  6
  8 42  1  0
  8 43  1  0
  8 44  1  0
  9 45  1  0
  9 46  1  0
  9 47  1  0
 10 48  1  6
 11 49  1  0
 11 50  1  0
 12 51  1  0
 12 52  1  0
 14 53  1  0
 14 54  1  0
 14 55  1  0
 15 56  1  1
 16 57  1  0
 16 58  1  0
 17 59  1  0
 19 60  1  6
 20 61  1  0
 20 62  1  0
 21 63  1  0
 21 64  1  0
 22 65  1  6
 23 66  1  0
 25 67  1  0
 25 68  1  0
 25 69  1  0
 26 70  1  0
 26 71  1  0
 26 72  1  0
 28 73  1  0
 28 74  1  0
 28 75  1  0
 29 76  1  0
 29 77  1  0
 30 78  1  0
 30 79  1  0
 32 80  1  0
 32 81  1  0
 32 82  1  0
M  END
>  <meeko>  (7) 
{"is_sidechain": [false], "intermolecular_energy": 2.731, "internal_energy": -0.839}

$$$$
EPH_relaxed_0001_pdb2pqr_Repair_169_r2_0001_out
     RDKit          3D

 82 86  0  0  0  0  0  0  0  0999 V2000
   -0.6660    9.9090   -2.3200 C   0  0  0  0  0  0  0  0  0  0  0  0
   -0.8860    9.9430   -0.8050 C   0  0  2  0  0  0  0  0  0  0  0  0
   -2.3690    9.7520   -0.4300 C   0  0  0  0  0  0  0  0  0  0  0  0
   -2.9820    8.4600   -0.9790 C   0  0  0  0  0  0  0  0  0  0  0  0
   -4.4660    8.4210   -0.7760 C   0  0  2  0  0  0  0  0  0  0  0  0
   -4.9590    7.2050   -0.1970 O   0  0  0  0  0  0  0  0  0  0  0  0
   -5.3900    7.4890   -1.5380 C   0  0  0  0  0  0  0  0  0  0  0  0
   -4.8630    6.5320   -2.5610 C   0  0  0  0  0  0  0  0  0  0  0  0
   -6.8400    7.8460   -1.6420 C   0  0  0  0  0  0  0  0  0  0  0  0
   -0.3700   11.2580   -0.2340 C   0  0  1  0  0  0  0  0  0  0  0  0
    0.5950   11.0510    0.9640 C   0  0  0  0  0  0  0  0  0  0  0  0
    1.6620   12.1740    0.8780 C   0  0  0  0  0  0  0  0  0  0  0  0
    1.0930   13.1740   -0.1550 C   0  0  1  0  0  0  0  0  0  0  0  0
    0.0660   14.0370    0.6450 C   0  0  0  0  0  0  0  0  0  0  0  0
    2.1380   14.0660   -0.9020 C   0  0  2  0  0  0  0  0  0  0  0  0
    2.9500   15.0120   -0.0010 C   0  0  0  0  0  0  0  0  0  0  0  0
    2.3560   16.3670    0.1990 C   0  0  0  0  0  0  0  0  0  0  0  0
    1.3710   16.9070   -0.5420 C   0  0  0  0  0  0  0  0  0  0  0  0
    0.8170   16.1730   -1.7700 C   0  0  1  0  0  0  0  0  0  0  0  0
    0.7100   17.1630   -2.9600 C   0  0  0  0  0  0  0  0  0  0  0  0
   -0.0980   18.4100   -2.6120 C   0  0  0  0  0  0  0  0  0  0  0  0
    0.5170   19.1440   -1.4230 C   0  0  2  0  0  0  0  0  0  0  0  0
    1.7910   19.6670   -1.8120 O   0  0  0  0  0  0  0  0  0  0  0  0
    0.6840   18.2430   -0.1670 C   0  0  0  0  0  0  0  0  0  0  0  0
   -0.7080   17.9230    0.4330 C   0  0  0  0  0  0  0  0  0  0  0  0
    1.4430   19.0630    0.9110 C   0  0  0  0  0  0  0  0  0  0  0  0
    1.5590   14.8240   -2.1640 C   0  0  1  0  0  0  0  0  0  0  0  0
    2.7720   15.1350   -3.0920 C   0  0  0  0  0  0  0  0  0  0  0  0
    0.5770   13.9240   -3.0040 C   0  0  0  0  0  0  0  0  0  0  0  0
   -0.3470   12.9780   -2.2140 C   0  0  0  0  0  0  0  0  0  0  0  0
    0.4470   12.1730   -1.1810 C   0  0  2  0  0  0  0  0  0  0  0  0
    1.4730   11.2790   -1.9580 C   0  0  0  0  0  0  0  0  0  0  0  0
    0.4007    9.7441   -2.5320 H   0  0  0  0  0  0  0  0  0  0  0  0
   -1.2575    9.0916   -2.7582 H   0  0  0  0  0  0  0  0  0  0  0  0
   -0.9832   10.8668   -2.7582 H   0  0  0  0  0  0  0  0  0  0  0  0
   -0.3242    9.1033   -0.3700 H   0  0  0  0  0  0  0  0  0  0  0  0
   -2.4505    9.7362    0.6669 H   0  0  0  0  0  0  0  0  0  0  0  0
   -2.9245   10.5878   -0.8804 H   0  0  0  0  0  0  0  0  0  0  0  0
   -2.7676    8.3932   -2.0558 H   0  0  0  0  0  0  0  0  0  0  0  0
   -2.5391    7.6123   -0.4356 H   0  0  0  0  0  0  0  0  0  0  0  0
   -4.4946    9.5063   -0.5992 H   0  0  0  0  0  0  0  0  0  0  0  0
   -4.3920    5.6766   -2.0546 H   0  0  0  0  0  0  0  0  0  0  0  0
   -5.6916    6.1748   -3.1901 H   0  0  0  0  0  0  0  0  0  0  0  0
   -4.1181    7.0413   -3.1901 H   0  0  0  0  0  0  0  0  0  0  0  0
   -7.2651    7.9507   -0.6329 H   0  0  0  0  0  0  0  0  0  0  0  0
   -6.9455    8.7969   -2.1848 H   0  0  0  0  0  0  0  0  0  0  0  0
   -7.3749    7.0527   -2.1848 H   0  0  0  0  0  0  0  0  0  0  0  0
   -1.3271   11.7376    0.0188 H   0  0  0  0  0  0  0  0  0  0  0  0
    0.0428   11.1249    1.9125 H   0  0  0  0  0  0  0  0  0  0  0  0
    1.0640   10.0567    0.9264 H   0  0  0  0  0  0  0  0  0  0  0  0
    1.7947   12.6594    1.8562 H   0  0  0  0  0  0  0  0  0  0  0  0
    2.6502   11.7892    0.5857 H   0  0  0  0  0  0  0  0  0  0  0  0
    0.2316   13.8979    1.7235 H   0  0  0  0  0  0  0  0  0  0  0  0
    0.1994   15.0981    0.3874 H   0  0  0  0  0  0  0  0  0  0  0  0
   -0.9562   13.7229    0.3874 H   0  0  0  0  0  0  0  0  0  0  0  0
    2.8563   13.3230   -1.2788 H   0  0  0  0  0  0  0  0  0  0  0  0
    3.0529   14.5368    0.9857 H   0  0  0  0  0  0  0  0  0  0  0  0
    3.9095   15.1727   -0.5143 H   0  0  0  0  0  0  0  0  0  0  0  0
    2.7578   16.9759    1.0223 H   0  0  0  0  0  0  0  0  0  0  0  0
   -0.1855   15.8196   -1.4868 H   0  0  0  0  0  0  0  0  0  0  0  0
    1.7240   17.4707   -3.2552 H   0  0  0  0  0  0  0  0  0  0  0  0
    0.1897   16.6456   -3.7795 H   0  0  0  0  0  0  0  0  0  0  0  0
   -0.1137   19.0832   -3.4818 H   0  0  0  0  0  0  0  0  0  0  0  0
   -1.1200   18.1031   -2.3449 H   0  0  0  0  0  0  0  0  0  0  0  0
   -0.1744   19.9517   -1.1408 H   0  0  0  0  0  0  0  0  0  0  0  0
    2.3500   18.9160   -2.0730 H   0  0  0  0  0  0  0  0  0  0  0  0
   -0.6460   17.9373    1.5312 H   0  0  0  0  0  0  0  0  0  0  0  0
   -1.4344   18.6776    0.0969 H   0  0  0  0  0  0  0  0  0  0  0  0
   -1.0320   16.9270    0.0969 H   0  0  0  0  0  0  0  0  0  0  0  0
    1.1331   18.7282    1.9119 H   0  0  0  0  0  0  0  0  0  0  0  0
    2.5259   18.9108    0.7924 H   0  0  0  0  0  0  0  0  0  0  0  0
    1.2077   20.1310    0.7924 H   0  0  0  0  0  0  0  0  0  0  0  0
    3.6555   15.3615   -2.4771 H   0  0  0  0  0  0  0  0  0  0  0  0
    2.9814   14.2615   -3.7269 H   0  0  0  0  0  0  0  0  0  0  0  0
    2.5352   16.0015   -3.7269 H   0  0  0  0  0  0  0  0  0  0  0  0
   -0.0622   14.5938   -3.5980 H   0  0  0  0  0  0  0  0  0  0  0  0
    1.2277   13.2628   -3.5951 H   0  0  0  0  0  0  0  0  0  0  0  0
   -1.1128   13.5733   -1.6951 H   0  0  0  0  0  0  0  0  0  0  0  0
   -0.8171   12.2768   -2.9193 H   0  0  0  0  0  0  0  0  0  0  0  0
    2.1008   10.7320   -1.2392 H   0  0  0  0  0  0  0  0  0  0  0  0
    0.9292   10.5616   -2.5901 H   0  0  0  0  0  0  0  0  0  0  0  0
    2.1093   11.9159   -2.5901 H   0  0  0  0  0  0  0  0  0  0  0  0
  1  2  1  0
  2  3  1  0
  3  4  1  0
  4  5  1  0
  5  6  1  0
  6  7  1  0
  7  8  1  0
  7  9  1  0
  2 10  1  0
 10 11  1  0
 11 12  1  0
 12 13  1  0
 13 14  1  1
 13 15  1  0
 15 16  1  0
 16 17  1  0
 17 18  2  0
 18 19  1  0
 19 20  1  0
 20 21  1  0
 21 22  1  0
 22 23  1  0
 22 24  1  0
 24 25  1  0
 24 26  1  0
 19 27  1  0
 27 28  1  6
 27 29  1  0
 29 30  1  0
 30 31  1  0
 31 32  1  6
  7  5  1  0
 31 10  1  0
 31 13  1  0
 27 15  1  0
 24 18  1  0
  1 33  1  0
  1 34  1  0
  1 35  1  0
  2 36  1  1
  3 37  1  0
  3 38  1  0
  4 39  1  0
  4 40  1  0
  5 41  1  1
  8 42  1  0
  8 43  1  0
  8 44  1  0
  9 45  1  0
  9 46  1  0
  9 47  1  0
 10 48  1  1
 11 49  1  0
 11 50  1  0
 12 51  1  0
 12 52  1  0
 14 53  1  0
 14 54  1  0
 14 55  1  0
 15 56  1  6
 16 57  1  0
 16 58  1  0
 17 59  1  0
 19 60  1  1
 20 61  1  0
 20 62  1  0
 21 63  1  0
 21 64  1  0
 22 65  1  1
 23 66  1  0
 25 67  1  0
 25 68  1  0
 25 69  1  0
 26 70  1  0
 26 71  1  0
 26 72  1  0
 28 73  1  0
 28 74  1  0
 28 75  1  0
 29 76  1  0
 29 77  1  0
 30 78  1  0
 30 79  1  0
 32 80  1  0
 32 81  1  0
 32 82  1  0
M  END
>  <meeko>  (8) 
{"is_sidechain": [false], "intermolecular_energy": 2.731, "internal_energy": -0.839}

$$$$
EPH_relaxed_0001_pdb2pqr_Repair_169_r2_0001_out
     RDKit          3D

 82 86  0  0  0  0  0  0  0  0999 V2000
    3.9890   17.5230   -0.3450 C   0  0  0  0  0  0  0  0  0  0  0  0
    2.5200   17.9210   -0.5120 C   0  0  2  0  0  0  0  0  0  0  0  0
    2.0940   19.0060    0.4970 C   0  0  0  0  0  0  0  0  0  0  0  0
    1.3260   20.1690   -0.1380 C   0  0  0  0  0  0  0  0  0  0  0  0
   -0.1200   20.1580    0.2560 C   0  0  2  0  0  0  0  0  0  0  0  0
   -0.7070   18.8530    0.3450 O   0  0  0  0  0  0  0  0  0  0  0  0
   -1.2370   19.7180   -0.6730 C   0  0  0  0  0  0  0  0  0  0  0  0
   -0.9550   19.2580   -2.0690 C   0  0  0  0  0  0  0  0  0  0  0  0
   -2.6280   20.1940   -0.3950 C   0  0  0  0  0  0  0  0  0  0  0  0
    1.6290   16.6930   -0.3630 C   0  0  1  0  0  0  0  0  0  0  0  0
    0.1300   17.0590   -0.1960 C   0  0  0  0  0  0  0  0  0  0  0  0
   -0.6840   15.9520   -0.9130 C   0  0  0  0  0  0  0  0  0  0  0  0
    0.3400   14.8250   -1.1790 C   0  0  1  0  0  0  0  0  0  0  0  0
    0.4430   14.0490    0.1720 C   0  0  0  0  0  0  0  0  0  0  0  0
    0.0190   13.8660   -2.3720 C   0  0  2  0  0  0  0  0  0  0  0  0
   -1.2760   13.0490   -2.2220 C   0  0  0  0  0  0  0  0  0  0  0  0
   -1.1180   11.7190   -1.5620 C   0  0  0  0  0  0  0  0  0  0  0  0
    0.0490   11.0780   -1.3650 C   0  0  0  0  0  0  0  0  0  0  0  0
    1.3640   11.6480   -1.9120 C   0  0  1  0  0  0  0  0  0  0  0  0
    2.1660   10.5190   -2.6110 C   0  0  0  0  0  0  0  0  0  0  0  0
    2.3860    9.3100   -1.7060 C   0  0  0  0  0  0  0  0  0  0  0  0
    1.0540    8.7370   -1.2290 C   0  0  2  0  0  0  0  0  0  0  0  0
    0.3580    8.1910   -2.3540 O   0  0  0  0  0  0  0  0  0  0  0  0
    0.1550    9.7860   -0.5170 C   0  0  0  0  0  0  0  0  0  0  0  0
    0.7710   10.1540    0.8550 C   0  0  0  0  0  0  0  0  0  0  0  0
   -1.2120    9.1150   -0.2140 C   0  0  0  0  0  0  0  0  0  0  0  0
    1.2330   12.9510   -2.8120 C   0  0  1  0  0  0  0  0  0  0  0  0
    0.9710   12.5490   -4.2960 C   0  0  0  0  0  0  0  0  0  0  0  0
    2.6030   13.7260   -2.7970 C   0  0  0  0  0  0  0  0  0  0  0  0
    2.8120   14.7460   -1.6620 C   0  0  0  0  0  0  0  0  0  0  0  0
    1.6070   15.6840   -1.5380 C   0  0  2  0  0  0  0  0  0  0  0  0
    1.4920   16.4930   -2.8750 C   0  0  0  0  0  0  0  0  0  0  0  0
    4.2316   17.4573    0.7259 H   0  0  0  0  0  0  0  0  0  0  0  0
    4.1605   16.5460   -0.8205 H   0  0  0  0  0  0  0  0  0  0  0  0
    4.6303   18.2798   -0.8205 H   0  0  0  0  0  0  0  0  0  0  0  0
    2.4045   18.3445   -1.5206 H   0  0  0  0  0  0  0  0  0  0  0  0
    1.4511   18.5395    1.2580 H   0  0  0  0  0  0  0  0  0  0  0  0
    3.0157   19.4255    0.9265 H   0  0  0  0  0  0  0  0  0  0  0  0
    1.7780   21.1165    0.1905 H   0  0  0  0  0  0  0  0  0  0  0  0
    1.3848   20.0630   -1.2313 H   0  0  0  0  0  0  0  0  0  0  0  0
    0.0165   21.0600    0.8707 H   0  0  0  0  0  0  0  0  0  0  0  0
   -0.3803   18.3206   -2.0371 H   0  0  0  0  0  0  0  0  0  0  0  0
   -1.9044   19.0882   -2.5980 H   0  0  0  0  0  0  0  0  0  0  0  0
   -0.3730   20.0271   -2.5980 H   0  0  0  0  0  0  0  0  0  0  0  0
   -2.7866   20.2483    0.6922 H   0  0  0  0  0  0  0  0  0  0  0  0
   -2.7692   21.1916   -0.8364 H   0  0  0  0  0  0  0  0  0  0  0  0
   -3.3508   19.4921   -0.8364 H   0  0  0  0  0  0  0  0  0  0  0  0
    2.0957   16.2329    0.5204 H   0  0  0  0  0  0  0  0  0  0  0  0
   -0.1349   17.0928    0.8711 H   0  0  0  0  0  0  0  0  0  0  0  0
   -0.0850   18.0483   -0.6263 H   0  0  0  0  0  0  0  0  0  0  0  0
   -1.4998   15.5914   -0.2693 H   0  0  0  0  0  0  0  0  0  0  0  0
   -1.1554   16.3142   -1.8386 H   0  0  0  0  0  0  0  0  0  0  0  0
    0.3491   14.7563    1.0092 H   0  0  0  0  0  0  0  0  0  0  0  0
   -0.3641   13.3038    0.2293 H   0  0  0  0  0  0  0  0  0  0  0  0
    1.4166   13.5402    0.2293 H   0  0  0  0  0  0  0  0  0  0  0  0
   -0.1662   14.5691   -3.1974 H   0  0  0  0  0  0  0  0  0  0  0  0
   -1.9850   13.6422   -1.6259 H   0  0  0  0  0  0  0  0  0  0  0  0
   -1.6254   12.8419   -3.2443 H   0  0  0  0  0  0  0  0  0  0  0  0
   -2.0323   11.2211   -1.2069 H   0  0  0  0  0  0  0  0  0  0  0  0
    1.9226   12.0172   -1.0392 H   0  0  0  0  0  0  0  0  0  0  0  0
    1.6123   10.1945   -3.5044 H   0  0  0  0  0  0  0  0  0  0  0  0
    3.1546   10.9246   -2.8721 H   0  0  0  0  0  0  0  0  0  0  0  0
    2.9314    8.5358   -2.2656 H   0  0  0  0  0  0  0  0  0  0  0  0
    2.9659    9.6295   -0.8275 H   0  0  0  0  0  0  0  0  0  0  0  0
    1.2775    7.9591   -0.4841 H   0  0  0  0  0  0  0  0  0  0  0  0
    0.6880    7.2870   -2.4940 H   0  0  0  0  0  0  0  0  0  0  0  0
    0.1279    9.7698    1.6605 H   0  0  0  0  0  0  0  0  0  0  0  0
    1.7720    9.7058    0.9396 H   0  0  0  0  0  0  0  0  0  0  0  0
    0.8507   11.2478    0.9396 H   0  0  0  0  0  0  0  0  0  0  0  0
   -1.3531    9.0457    0.8747 H   0  0  0  0  0  0  0  0  0  0  0  0
   -2.0214    9.7182   -0.6510 H   0  0  0  0  0  0  0  0  0  0  0  0
   -1.2299    8.1057   -0.6510 H   0  0  0  0  0  0  0  0  0  0  0  0
    0.3706   11.6278   -4.3258 H   0  0  0  0  0  0  0  0  0  0  0  0
    0.4264   13.3582   -4.8044 H   0  0  0  0  0  0  0  0  0  0  0  0
    1.9312   12.3774   -4.8044 H   0  0  0  0  0  0  0  0  0  0  0  0
    3.4071   12.9789   -2.7251 H   0  0  0  0  0  0  0  0  0  0  0  0
    2.6072   14.3206   -3.7224 H   0  0  0  0  0  0  0  0  0  0  0  0
    2.9465   14.2059   -0.7132 H   0  0  0  0  0  0  0  0  0  0  0  0
    3.7030   15.3486   -1.8921 H   0  0  0  0  0  0  0  0  0  0  0  0
    1.3406   17.5584   -2.6470 H   0  0  0  0  0  0  0  0  0  0  0  0
    2.4166   16.3707   -3.4583 H   0  0  0  0  0  0  0  0  0  0  0  0
    0.6382   16.1179   -3.4583 H   0  0  0  0  0  0  0  0  0  0  0  0
  1  2  1  0
  2  3  1  0
  3  4  1  0
  4  5  1  0
  5  6  1  0
  6  7  1  0
  7  8  1  0
  7  9  1  0
  2 10  1  0
 10 11  1  0
 11 12  1  0
 12 13  1  0
 13 14  1  1
 13 15  1  0
 15 16  1  0
 16 17  1  0
 17 18  2  0
 18 19  1  0
 19 20  1  0
 20 21  1  0
 21 22  1  0
 22 23  1  0
 22 24  1  0
 24 25  1  0
 24 26  1  0
 19 27  1  0
 27 28  1  6
 27 29  1  0
 29 30  1  0
 30 31  1  0
 31 32  1  6
  7  5  1  0
 31 10  1  0
 31 13  1  0
 27 15  1  0
 24 18  1  0
  1 33  1  0
  1 34  1  0
  1 35  1  0
  2 36  1  6
  3 37  1  0
  3 38  1  0
  4 39  1  0
  4 40  1  0
  5 41  1  1
  8 42  1  0
  8 43  1  0
  8 44  1  0
  9 45  1  0
  9 46  1  0
  9 47  1  0
 10 48  1  1
 11 49  1  0
 11 50  1  0
 12 51  1  0
 12 52  1  0
 14 53  1  0
 14 54  1  0
 14 55  1  0
 15 56  1  6
 16 57  1  0
 16 58  1  0
 17 59  1  0
 19 60  1  1
 20 61  1  0
 20 62  1  0
 21 63  1  0
 21 64  1  0
 22 65  1  1
 23 66  1  0
 25 67  1  0
 25 68  1  0
 25 69  1  0
 26 70  1  0
 26 71  1  0
 26 72  1  0
 28 73  1  0
 28 74  1  0
 28 75  1  0
 29 76  1  0
 29 77  1  0
 30 78  1  0
 30 79  1  0
 32 80  1  0
 32 81  1  0
 32 82  1  0
M  END
>  <meeko>  (9) 
{"is_sidechain": [false], "intermolecular_energy": 2.731, "internal_energy": -0.839}

$$$$
EPH_relaxed_0001_pdb2pqr_Repair_169_r2_0001_out
     RDKit          3D

 82 86  0  0  0  0  0  0  0  0999 V2000
   -5.2060    5.7870   -1.5720 C   0  0  0  0  0  0  0  0  0  0  0  0
   -5.4530    7.2890   -1.7440 C   0  0  2  0  0  0  0  0  0  0  0  0
   -5.1930    8.0730   -0.4430 C   0  0  0  0  0  0  0  0  0  0  0  0
   -4.1690    9.2010   -0.5970 C   0  0  0  0  0  0  0  0  0  0  0  0
   -2.8000    8.6690   -0.8960 C   0  0  2  0  0  0  0  0  0  0  0  0
   -1.8130    8.9620    0.1020 O   0  0  0  0  0  0  0  0  0  0  0  0
   -1.6040    9.5550   -1.1900 C   0  0  0  0  0  0  0  0  0  0  0  0
   -1.7220   11.0470   -1.2020 C   0  0  0  0  0  0  0  0  0  0  0  0
   -0.4480    8.9700   -1.9420 C   0  0  0  0  0  0  0  0  0  0  0  0
   -6.8800    7.5290   -2.2220 C   0  0  1  0  0  0  0  0  0  0  0  0
   -7.1790    6.8420   -3.5810 C   0  0  0  0  0  0  0  0  0  0  0  0
   -8.6590    6.3810   -3.5330 C   0  0  0  0  0  0  0  0  0  0  0  0
   -9.2520    7.1020   -2.3000 C   0  0  1  0  0  0  0  0  0  0  0  0
   -9.5860    8.5430   -2.8010 C   0  0  0  0  0  0  0  0  0  0  0  0
  -10.4910    6.4220   -1.6320 C   0  0  2  0  0  0  0  0  0  0  0  0
  -11.7370    6.3110   -2.5280 C   0  0  0  0  0  0  0  0  0  0  0  0
  -12.6820    7.4640   -2.4520 C   0  0  0  0  0  0  0  0  0  0  0  0
  -12.6870    8.4100   -1.4930 C   0  0  0  0  0  0  0  0  0  0  0  0
  -11.7360    8.3200   -0.2930 C   0  0  1  0  0  0  0  0  0  0  0  0
  -12.5230    8.6000    1.0140 C   0  0  0  0  0  0  0  0  0  0  0  0
  -13.2810    9.9240    0.9670 C   0  0  0  0  0  0  0  0  0  0  0  0
  -14.2590    9.9520   -0.2050 C   0  0  2  0  0  0  0  0  0  0  0  0
  -15.2870    8.9850    0.0300 O   0  0  0  0  0  0  0  0  0  0  0  0
  -13.5810    9.6720   -1.5750 C   0  0  0  0  0  0  0  0  0  0  0  0
  -12.6880   10.8750   -1.9690 C   0  0  0  0  0  0  0  0  0  0  0  0
  -14.6960    9.5890   -2.6520 C   0  0  0  0  0  0  0  0  0  0  0  0
  -10.8560    7.0000   -0.2040 C   0  0  1  0  0  0  0  0  0  0  0  0
  -11.6480    5.8810    0.5400 C   0  0  0  0  0  0  0  0  0  0  0  0
   -9.5770    7.2930    0.6670 C   0  0  0  0  0  0  0  0  0  0  0  0
   -8.3460    7.8510   -0.0720 C   0  0  0  0  0  0  0  0  0  0  0  0
   -8.0290    7.0180   -1.3170 C   0  0  2  0  0  0  0  0  0  0  0  0
   -7.6670    5.5690   -0.8430 C   0  0  0  0  0  0  0  0  0  0  0  0
   -5.1658    5.5424   -0.5003 H   0  0  0  0  0  0  0  0  0  0  0  0
   -6.0237    5.2243   -2.0461 H   0  0  0  0  0  0  0  0  0  0  0  0
   -4.2512    5.5158   -2.0461 H   0  0  0  0  0  0  0  0  0  0  0  0
   -4.7418    7.6576   -2.4979 H   0  0  0  0  0  0  0  0  0  0  0  0
   -6.1440    8.5112   -0.1059 H   0  0  0  0  0  0  0  0  0  0  0  0
   -4.7778    7.3596    0.2841 H   0  0  0  0  0  0  0  0  0  0  0  0
   -4.4839    9.8585   -1.4208 H   0  0  0  0  0  0  0  0  0  0  0  0
   -4.1224    9.7542    0.3526 H   0  0  0  0  0  0  0  0  0  0  0  0
   -3.2259    7.8046   -1.4265 H   0  0  0  0  0  0  0  0  0  0  0  0
   -1.7516   11.4208   -0.1679 H   0  0  0  0  0  0  0  0  0  0  0  0
   -0.8552   11.4792   -1.7235 H   0  0  0  0  0  0  0  0  0  0  0  0
   -2.6459   11.3376   -1.7235 H   0  0  0  0  0  0  0  0  0  0  0  0
    0.2995    8.5917   -1.2291 H   0  0  0  0  0  0  0  0  0  0  0  0
   -0.8028    8.1430   -2.5745 H   0  0  0  0  0  0  0  0  0  0  0  0
    0.0082    9.7457   -2.5745 H   0  0  0  0  0  0  0  0  0  0  0  0
   -6.8825    8.6287   -2.2481 H   0  0  0  0  0  0  0  0  0  0  0  0
   -7.0306    7.5540   -4.4062 H   0  0  0  0  0  0  0  0  0  0  0  0
   -6.5049    5.9892   -3.7493 H   0  0  0  0  0  0  0  0  0  0  0  0
   -9.1888    6.6797   -4.4496 H   0  0  0  0  0  0  0  0  0  0  0  0
   -8.7533    5.2873   -3.4623 H   0  0  0  0  0  0  0  0  0  0  0  0
   -9.7395    9.2054   -1.9363 H   0  0  0  0  0  0  0  0  0  0  0  0
   -8.7519    8.9221   -3.4098 H   0  0  0  0  0  0  0  0  0  0  0  0
  -10.5018    8.5165   -3.4098 H   0  0  0  0  0  0  0  0  0  0  0  0
  -10.1400    5.3907   -1.4795 H   0  0  0  0  0  0  0  0  0  0  0  0
  -11.3987    6.2170   -3.5705 H   0  0  0  0  0  0  0  0  0  0  0  0
  -12.2955    5.4355   -2.1653 H   0  0  0  0  0  0  0  0  0  0  0  0
  -13.4383    7.5483   -3.2463 H   0  0  0  0  0  0  0  0  0  0  0  0
  -10.9778    9.1020   -0.4467 H   0  0  0  0  0  0  0  0  0  0  0  0
  -13.2451    7.7854    1.1725 H   0  0  0  0  0  0  0  0  0  0  0  0
  -11.7950    8.6604    1.8364 H   0  0  0  0  0  0  0  0  0  0  0  0
  -13.8402   10.0521    1.9055 H   0  0  0  0  0  0  0  0  0  0  0  0
  -12.5546   10.7398    0.8374 H   0  0  0  0  0  0  0  0  0  0  0  0
  -14.6756   10.9684   -0.2635 H   0  0  0  0  0  0  0  0  0  0  0  0
  -15.5120    9.0170    0.9750 H   0  0  0  0  0  0  0  0  0  0  0  0
  -12.3194   11.3715   -1.0593 H   0  0  0  0  0  0  0  0  0  0  0  0
  -11.8341   10.5185   -2.5637 H   0  0  0  0  0  0  0  0  0  0  0  0
  -13.2764   11.5892   -2.5637 H   0  0  0  0  0  0  0  0  0  0  0  0
  -15.6768    9.5160   -2.1594 H   0  0  0  0  0  0  0  0  0  0  0  0
  -14.6673   10.4918   -3.2798 H   0  0  0  0  0  0  0  0  0  0  0  0
  -14.5339    8.7004   -3.2798 H   0  0  0  0  0  0  0  0  0  0  0  0
  -11.5484    6.0217    1.6264 H   0  0  0  0  0  0  0  0  0  0  0  0
  -12.7102    5.9349    0.2591 H   0  0  0  0  0  0  0  0  0  0  0  0
  -11.2440    4.8972    0.2591 H   0  0  0  0  0  0  0  0  0  0  0  0
   -9.8606    8.0230    1.4394 H   0  0  0  0  0  0  0  0  0  0  0  0
   -9.2609    6.3126    1.0529 H   0  0  0  0  0  0  0  0  0  0  0  0
   -8.5485    8.8887   -0.3755 H   0  0  0  0  0  0  0  0  0  0  0  0
   -7.4814    7.8097    0.6067 H   0  0  0  0  0  0  0  0  0  0  0  0
   -7.6583    5.5343    0.2564 H   0  0  0  0  0  0  0  0  0  0  0  0
   -8.4156    4.8601   -1.2263 H   0  0  0  0  0  0  0  0  0  0  0  0
   -6.6729    5.2954   -1.2263 H   0  0  0  0  0  0  0  0  0  0  0  0
  1  2  1  0
  2  3  1  0
  3  4  1  0
  4  5  1  0
  5  6  1  0
  6  7  1  0
  7  8  1  0
  7  9  1  0
  2 10  1  0
 10 11  1  0
 11 12  1  0
 12 13  1  0
 13 14  1  6
 13 15  1  0
 15 16  1  0
 16 17  1  0
 17 18  2  0
 18 19  1  0
 19 20  1  0
 20 21  1  0
 21 22  1  0
 22 23  1  0
 22 24  1  0
 24 25  1  0
 24 26  1  0
 19 27  1  0
 27 28  1  1
 27 29  1  0
 29 30  1  0
 30 31  1  0
 31 32  1  1
  7  5  1  0
 31 10  1  0
 31 13  1  0
 27 15  1  0
 24 18  1  0
  1 33  1  0
  1 34  1  0
  1 35  1  0
  2 36  1  6
  3 37  1  0
  3 38  1  0
  4 39  1  0
  4 40  1  0
  5 41  1  6
  8 42  1  0
  8 43  1  0
  8 44  1  0
  9 45  1  0
  9 46  1  0
  9 47  1  0
 10 48  1  6
 11 49  1  0
 11 50  1  0
 12 51  1  0
 12 52  1  0
 14 53  1  0
 14 54  1  0
 14 55  1  0
 15 56  1  1
 16 57  1  0
 16 58  1  0
 17 59  1  0
 19 60  1  6
 20 61  1  0
 20 62  1  0
 21 63  1  0
 21 64  1  0
 22 65  1  6
 23 66  1  0
 25 67  1  0
 25 68  1  0
 25 69  1  0
 26 70  1  0
 26 71  1  0
 26 72  1  0
 28 73  1  0
 28 74  1  0
 28 75  1  0
 29 76  1  0
 29 77  1  0
 30 78  1  0
 30 79  1  0
 32 80  1  0
 32 81  1  0
 32 82  1  0
M  END
>  <meeko>  (10) 
{"is_sidechain": [false], "intermolecular_energy": 2.731, "internal_energy": -0.839}

$$$$
EPH_relaxed_0001_pdb2pqr_Repair_169_r2_0001_out
     RDKit          3D

 82 86  0  0  0  0  0  0  0  0999 V2000
    2.4790    9.9930   -3.6910 C   0  0  0  0  0  0  0  0  0  0  0  0
    2.3680   11.2310   -4.5850 C   0  0  2  0  0  0  0  0  0  0  0  0
    3.7480   11.8240   -4.9310 C   0  0  0  0  0  0  0  0  0  0  0  0
    4.6510   10.8660   -5.7140 C   0  0  0  0  0  0  0  0  0  0  0  0
    5.7230   10.2800   -4.8470 C   0  0  2  0  0  0  0  0  0  0  0  0
    5.4580   10.3480   -3.4390 O   0  0  0  0  0  0  0  0  0  0  0  0
    6.5850   11.1050   -3.9090 C   0  0  0  0  0  0  0  0  0  0  0  0
    6.4130   12.5870   -3.7920 C   0  0  0  0  0  0  0  0  0  0  0  0
    7.9060   10.5510   -3.4780 C   0  0  0  0  0  0  0  0  0  0  0  0
    1.5030   12.2860   -3.9060 C   0  0  1  0  0  0  0  0  0  0  0  0
    0.1190   11.7350   -3.4710 C   0  0  0  0  0  0  0  0  0  0  0  0
   -0.2530   12.4530   -2.1480 C   0  0  0  0  0  0  0  0  0  0  0  0
    0.7560   13.6200   -2.0410 C   0  0  1  0  0  0  0  0  0  0  0  0
    0.1740   14.7400   -2.9590 C   0  0  0  0  0  0  0  0  0  0  0  0
    1.0490   14.1500   -0.5990 C   0  0  2  0  0  0  0  0  0  0  0  0
   -0.1640   14.7500    0.1340 C   0  0  0  0  0  0  0  0  0  0  0  0
   -0.3660   16.2160   -0.0610 C   0  0  0  0  0  0  0  0  0  0  0  0
    0.5460   17.0720   -0.5570 C   0  0  0  0  0  0  0  0  0  0  0  0
    1.9680   16.6020   -0.8920 C   0  0  1  0  0  0  0  0  0  0  0  0
    2.9950   17.6150   -0.3230 C   0  0  0  0  0  0  0  0  0  0  0  0
    2.7280   19.0430   -0.7880 C   0  0  0  0  0  0  0  0  0  0  0  0
    1.3270   19.4950   -0.3860 C   0  0  2  0  0  0  0  0  0  0  0  0
    1.2640   19.5900    1.0400 O   0  0  0  0  0  0  0  0  0  0  0  0
    0.2070   18.5450   -0.8960 C   0  0  0  0  0  0  0  0  0  0  0  0
    0.0770   18.6720   -2.4340 C   0  0  0  0  0  0  0  0  0  0  0  0
   -1.1420   19.0350   -0.3040 C   0  0  0  0  0  0  0  0  0  0  0  0
    2.3110   15.1000   -0.5020 C   0  0  1  0  0  0  0  0  0  0  0  0
    2.8050   15.0340    0.9760 C   0  0  0  0  0  0  0  0  0  0  0  0
    3.5080   14.5980   -1.3930 C   0  0  0  0  0  0  0  0  0  0  0  0
    3.1460   13.9750   -2.7550 C   0  0  0  0  0  0  0  0  0  0  0  0
    2.0470   12.9190   -2.6010 C   0  0  2  0  0  0  0  0  0  0  0  0
    2.6120   11.7690   -1.6990 C   0  0  0  0  0  0  0  0  0  0  0  0
    2.4515   10.2997   -2.6350 H   0  0  0  0  0  0  0  0  0  0  0  0
    1.6381    9.3147   -3.8979 H   0  0  0  0  0  0  0  0  0  0  0  0
    3.4272    9.4752   -3.8979 H   0  0  0  0  0  0  0  0  0  0  0  0
    1.8988   10.9163   -5.5288 H   0  0  0  0  0  0  0  0  0  0  0  0
    3.5950   12.7297   -5.5362 H   0  0  0  0  0  0  0  0  0  0  0  0
    4.2546   12.0367   -3.9781 H   0  0  0  0  0  0  0  0  0  0  0  0
    4.0363   10.0497   -6.1212 H   0  0  0  0  0  0  0  0  0  0  0  0
    5.1361   11.4351   -6.5207 H   0  0  0  0  0  0  0  0  0  0  0  0
    5.9743    9.5375   -5.6188 H   0  0  0  0  0  0  0  0  0  0  0  0
    6.3802   12.8696   -2.7294 H   0  0  0  0  0  0  0  0  0  0  0  0
    7.2583   13.0939   -4.2803 H   0  0  0  0  0  0  0  0  0  0  0  0
    5.4740   12.8868   -4.2803 H   0  0  0  0  0  0  0  0  0  0  0  0
    7.9542   10.5308   -2.3792 H   0  0  0  0  0  0  0  0  0  0  0  0
    8.0202    9.5292   -3.8689 H   0  0  0  0  0  0  0  0  0  0  0  0
    8.7149   11.1857   -3.8689 H   0  0  0  0  0  0  0  0  0  0  0  0
    1.4711   13.0405   -4.7059 H   0  0  0  0  0  0  0  0  0  0  0  0
   -0.6341   11.9501   -4.2434 H   0  0  0  0  0  0  0  0  0  0  0  0
    0.1542   10.6444   -3.3320 H   0  0  0  0  0  0  0  0  0  0  0  0
   -1.2842   12.8337   -2.1893 H   0  0  0  0  0  0  0  0  0  0  0  0
   -0.2054   11.7792   -1.2798 H   0  0  0  0  0  0  0  0  0  0  0  0
   -0.2440   15.5444   -2.3359 H   0  0  0  0  0  0  0  0  0  0  0  0
    0.9749   15.1466   -3.5940 H   0  0  0  0  0  0  0  0  0  0  0  0
   -0.6191   14.3183   -3.5940 H   0  0  0  0  0  0  0  0  0  0  0  0
    1.3011   13.2279   -0.0547 H   0  0  0  0  0  0  0  0  0  0  0  0
   -1.0667   14.2322   -0.2224 H   0  0  0  0  0  0  0  0  0  0  0  0
    0.0295   14.6098    1.2077 H   0  0  0  0  0  0  0  0  0  0  0  0
   -1.3434   16.6319    0.2251 H   0  0  0  0  0  0  0  0  0  0  0  0
    2.0321   16.5829   -1.9900 H   0  0  0  0  0  0  0  0  0  0  0  0
    2.9462   17.5870    0.7756 H   0  0  0  0  0  0  0  0  0  0  0  0
    3.9898   17.3245   -0.6918 H   0  0  0  0  0  0  0  0  0  0  0  0
    3.4684   19.7151   -0.3297 H   0  0  0  0  0  0  0  0  0  0  0  0
    2.8059   19.0752   -1.8848 H   0  0  0  0  0  0  0  0  0  0  0  0
    1.1484   20.4727   -0.8573 H   0  0  0  0  0  0  0  0  0  0  0  0
    1.5320   18.7290    1.4050 H   0  0  0  0  0  0  0  0  0  0  0  0
   -0.6905   19.4218   -2.6764 H   0  0  0  0  0  0  0  0  0  0  0  0
    1.0422   18.9847   -2.8590 H   0  0  0  0  0  0  0  0  0  0  0  0
   -0.2131   17.6998   -2.8590 H   0  0  0  0  0  0  0  0  0  0  0  0
   -1.0889   19.0157    0.7945 H   0  0  0  0  0  0  0  0  0  0  0  0
   -1.3398   20.0624   -0.6436 H   0  0  0  0  0  0  0  0  0  0  0  0
   -1.9531   18.3741   -0.6436 H   0  0  0  0  0  0  0  0  0  0  0  0
    1.9471   15.1486    1.6548 H   0  0  0  0  0  0  0  0  0  0  0  0
    3.2892   14.0632    1.1578 H   0  0  0  0  0  0  0  0  0  0  0  0
    3.5271   15.8437    1.1578 H   0  0  0  0  0  0  0  0  0  0  0  0
    4.1643   15.4596   -1.5850 H   0  0  0  0  0  0  0  0  0  0  0  0
    3.9732   13.7836   -0.8182 H   0  0  0  0  0  0  0  0  0  0  0  0
    2.7912   14.7676   -3.4302 H   0  0  0  0  0  0  0  0  0  0  0  0
    4.0428   13.4899   -3.1679 H   0  0  0  0  0  0  0  0  0  0  0  0
    2.4810   12.0357   -0.6399 H   0  0  0  0  0  0  0  0  0  0  0  0
    2.0697   10.8359   -1.9119 H   0  0  0  0  0  0  0  0  0  0  0  0
    3.6819   11.6280   -1.9119 H   0  0  0  0  0  0  0  0  0  0  0  0
  1  2  1  0
  2  3  1  0
  3  4  1  0
  4  5  1  0
  5  6  1  0
  6  7  1  0
  7  8  1  0
  7  9  1  0
  2 10  1  0
 10 11  1  0
 11 12  1  0
 12 13  1  0
 13 14  1  6
 13 15  1  0
 15 16  1  0
 16 17  1  0
 17 18  2  0
 18 19  1  0
 19 20  1  0
 20 21  1  0
 21 22  1  0
 22 23  1  0
 22 24  1  0
 24 25  1  0
 24 26  1  0
 19 27  1  0
 27 28  1  1
 27 29  1  0
 29 30  1  0
 30 31  1  0
 31 32  1  1
  7  5  1  0
 31 10  1  0
 31 13  1  0
 27 15  1  0
 24 18  1  0
  1 33  1  0
  1 34  1  0
  1 35  1  0
  2 36  1  6
  3 37  1  0
  3 38  1  0
  4 39  1  0
  4 40  1  0
  5 41  1  6
  8 42  1  0
  8 43  1  0
  8 44  1  0
  9 45  1  0
  9 46  1  0
  9 47  1  0
 10 48  1  6
 11 49  1  0
 11 50  1  0
 12 51  1  0
 12 52  1  0
 14 53  1  0
 14 54  1  0
 14 55  1  0
 15 56  1  1
 16 57  1  0
 16 58  1  0
 17 59  1  0
 19 60  1  6
 20 61  1  0
 20 62  1  0
 21 63  1  0
 21 64  1  0
 22 65  1  6
 23 66  1  0
 25 67  1  0
 25 68  1  0
 25 69  1  0
 26 70  1  0
 26 71  1  0
 26 72  1  0
 28 73  1  0
 28 74  1  0
 28 75  1  0
 29 76  1  0
 29 77  1  0
 30 78  1  0
 30 79  1  0
 32 80  1  0
 32 81  1  0
 32 82  1  0
M  END
>  <meeko>  (11) 
{"is_sidechain": [false], "intermolecular_energy": 2.731, "internal_energy": -0.839}

$$$$
EPH_relaxed_0001_pdb2pqr_Repair_169_r2_0001_out
     RDKit          3D

 82 86  0  0  0  0  0  0  0  0999 V2000
    3.2490   17.8120   -2.7970 C   0  0  0  0  0  0  0  0  0  0  0  0
    2.5780   17.0620   -1.6430 C   0  0  2  0  0  0  0  0  0  0  0  0
    3.3040   17.2910   -0.3020 C   0  0  0  0  0  0  0  0  0  0  0  0
    3.3620   18.7600    0.1250 C   0  0  0  0  0  0  0  0  0  0  0  0
    3.3660   18.9050    1.6160 C   0  0  2  0  0  0  0  0  0  0  0  0
    3.7730   20.1940    2.0920 O   0  0  0  0  0  0  0  0  0  0  0  0
    4.6300   19.0930    2.4350 C   0  0  0  0  0  0  0  0  0  0  0  0
    5.9780   19.1450    1.7880 C   0  0  0  0  0  0  0  0  0  0  0  0
    4.6000   18.7360    3.8890 C   0  0  0  0  0  0  0  0  0  0  0  0
    2.5190   15.5720   -1.9560 C   0  0  1  0  0  0  0  0  0  0  0  0
    3.8950   14.9970   -2.3850 C   0  0  0  0  0  0  0  0  0  0  0  0
    3.9670   13.5500   -1.8310 C   0  0  0  0  0  0  0  0  0  0  0  0
    2.5190   13.2260   -1.3960 C   0  0  1  0  0  0  0  0  0  0  0  0
    1.7860   12.8200   -2.7130 C   0  0  0  0  0  0  0  0  0  0  0  0
    2.3580   12.1370   -0.2870 C   0  0  2  0  0  0  0  0  0  0  0  0
    2.8640   10.7350   -0.6700 C   0  0  0  0  0  0  0  0  0  0  0  0
    1.8480    9.8410   -1.3010 C   0  0  0  0  0  0  0  0  0  0  0  0
    0.5170   10.0420   -1.2930 C   0  0  0  0  0  0  0  0  0  0  0  0
   -0.0990   11.2130   -0.5160 C   0  0  1  0  0  0  0  0  0  0  0  0
   -1.3130   10.7080    0.3060 C   0  0  0  0  0  0  0  0  0  0  0  0
   -2.3380    9.9760   -0.5550 C   0  0  0  0  0  0  0  0  0  0  0  0
   -1.7020    8.7830   -1.2650 C   0  0  2  0  0  0  0  0  0  0  0  0
   -1.3290    7.8090   -0.2850 O   0  0  0  0  0  0  0  0  0  0  0  0
   -0.4610    9.1690   -2.1170 C   0  0  0  0  0  0  0  0  0  0  0  0
   -0.9130    9.9820   -3.3560 C   0  0  0  0  0  0  0  0  0  0  0  0
    0.1680    7.8590   -2.6640 C   0  0  0  0  0  0  0  0  0  0  0  0
    0.9130   12.0740    0.3560 C   0  0  1  0  0  0  0  0  0  0  0  0
    1.0800   11.4320    1.7660 C   0  0  0  0  0  0  0  0  0  0  0  0
    0.3000   13.5060    0.5900 C   0  0  0  0  0  0  0  0  0  0  0  0
    0.5940   14.5720   -0.4830 C   0  0  0  0  0  0  0  0  0  0  0  0
    2.0890   14.6210   -0.8110 C   0  0  2  0  0  0  0  0  0  0  0  0
    2.8510   15.0490    0.4900 C   0  0  0  0  0  0  0  0  0  0  0  0
    3.9308   18.5741   -2.3917 H   0  0  0  0  0  0  0  0  0  0  0  0
    3.8185   17.1015   -3.4142 H   0  0  0  0  0  0  0  0  0  0  0  0
    2.4797   18.2992   -3.4142 H   0  0  0  0  0  0  0  0  0  0  0  0
    1.5579   17.4600   -1.5381 H   0  0  0  0  0  0  0  0  0  0  0  0
    2.7774   16.7231    0.4791 H   0  0  0  0  0  0  0  0  0  0  0  0
    4.3426   16.9552   -0.4380 H   0  0  0  0  0  0  0  0  0  0  0  0
    4.2794   19.2126   -0.2794 H   0  0  0  0  0  0  0  0  0  0  0  0
    2.4668   19.2658   -0.2658 H   0  0  0  0  0  0  0  0  0  0  0  0
    2.5233   18.2042    1.7095 H   0  0  0  0  0  0  0  0  0  0  0  0
    6.7565   19.1750    2.5645 H   0  0  0  0  0  0  0  0  0  0  0  0
    6.1189   18.2516    1.1619 H   0  0  0  0  0  0  0  0  0  0  0  0
    6.0497   20.0466    1.1619 H   0  0  0  0  0  0  0  0  0  0  0  0
    4.6770   19.6520    4.4931 H   0  0  0  0  0  0  0  0  0  0  0  0
    3.6555   18.2221    4.1210 H   0  0  0  0  0  0  0  0  0  0  0  0
    5.4455   18.0717    4.1210 H   0  0  0  0  0  0  0  0  0  0  0  0
    1.7532   15.5796   -2.7456 H   0  0  0  0  0  0  0  0  0  0  0  0
    3.9762   14.9872   -3.4820 H   0  0  0  0  0  0  0  0  0  0  0  0
    4.7194   15.6114   -1.9939 H   0  0  0  0  0  0  0  0  0  0  0  0
    4.3034   12.8517   -2.6115 H   0  0  0  0  0  0  0  0  0  0  0  0
    4.6826   13.4564   -1.0009 H   0  0  0  0  0  0  0  0  0  0  0  0
    0.8484   12.3007   -2.4656 H   0  0  0  0  0  0  0  0  0  0  0  0
    1.5614   13.7223   -3.3007 H   0  0  0  0  0  0  0  0  0  0  0  0
    2.4317   12.1509   -3.3007 H   0  0  0  0  0  0  0  0  0  0  0  0
    3.0406   12.4973    0.4967 H   0  0  0  0  0  0  0  0  0  0  0  0
    3.6970   10.8559   -1.3781 H   0  0  0  0  0  0  0  0  0  0  0  0
    3.1545   10.2481    0.2726 H   0  0  0  0  0  0  0  0  0  0  0  0
    2.2185    8.9423   -1.8158 H   0  0  0  0  0  0  0  0  0  0  0  0
   -0.4366   11.9364   -1.2728 H   0  0  0  0  0  0  0  0  0  0  0  0
   -0.9505   10.0203    1.0842 H   0  0  0  0  0  0  0  0  0  0  0  0
   -1.8099   11.5870    0.7424 H   0  0  0  0  0  0  0  0  0  0  0  0
   -3.1571    9.6185    0.0862 H   0  0  0  0  0  0  0  0  0  0  0  0
   -2.7206   10.6735   -1.3147 H   0  0  0  0  0  0  0  0  0  0  0  0
   -2.4486    8.3775   -1.9637 H   0  0  0  0  0  0  0  0  0  0  0  0
   -1.7700    8.0460    0.5480 H   0  0  0  0  0  0  0  0  0  0  0  0
   -1.4230   10.8993   -3.0266 H   0  0  0  0  0  0  0  0  0  0  0  0
   -0.0335   10.2484   -3.9606 H   0  0  0  0  0  0  0  0  0  0  0  0
   -1.6035    9.3755   -3.9606 H   0  0  0  0  0  0  0  0  0  0  0  0
    0.4747    7.2203   -1.8226 H   0  0  0  0  0  0  0  0  0  0  0  0
   -0.5722    7.3256   -3.2785 H   0  0  0  0  0  0  0  0  0  0  0  0
    1.0471    8.1031   -3.2785 H   0  0  0  0  0  0  0  0  0  0  0  0
    0.8831   12.1891    2.5393 H   0  0  0  0  0  0  0  0  0  0  0  0
    0.3682   10.6007    1.8770 H   0  0  0  0  0  0  0  0  0  0  0  0
    2.1066   11.0529    1.8770 H   0  0  0  0  0  0  0  0  0  0  0  0
   -0.7922   13.3935    0.6567 H   0  0  0  0  0  0  0  0  0  0  0  0
    0.7821   13.8791    1.5057 H   0  0  0  0  0  0  0  0  0  0  0  0
    0.0328   14.3272   -1.3969 H   0  0  0  0  0  0  0  0  0  0  0  0
    0.2875   15.5545   -0.0949 H   0  0  0  0  0  0  0  0  0  0  0  0
    2.2787   14.7275    1.3727 H   0  0  0  0  0  0  0  0  0  0  0  0
    3.8444   14.5768    0.5052 H   0  0  0  0  0  0  0  0  0  0  0  0
    2.9647   16.1430    0.5052 H   0  0  0  0  0  0  0  0  0  0  0  0
  1  2  1  0
  2  3  1  0
  3  4  1  0
  4  5  1  0
  5  6  1  0
  6  7  1  0
  7  8  1  0
  7  9  1  0
  2 10  1  0
 10 11  1  0
 11 12  1  0
 12 13  1  0
 13 14  1  6
 13 15  1  0
 15 16  1  0
 16 17  1  0
 17 18  2  0
 18 19  1  0
 19 20  1  0
 20 21  1  0
 21 22  1  0
 22 23  1  0
 22 24  1  0
 24 25  1  0
 24 26  1  0
 19 27  1  0
 27 28  1  1
 27 29  1  0
 29 30  1  0
 30 31  1  0
 31 32  1  1
  7  5  1  0
 31 10  1  0
 31 13  1  0
 27 15  1  0
 24 18  1  0
  1 33  1  0
  1 34  1  0
  1 35  1  0
  2 36  1  1
  3 37  1  0
  3 38  1  0
  4 39  1  0
  4 40  1  0
  5 41  1  1
  8 42  1  0
  8 43  1  0
  8 44  1  0
  9 45  1  0
  9 46  1  0
  9 47  1  0
 10 48  1  6
 11 49  1  0
 11 50  1  0
 12 51  1  0
 12 52  1  0
 14 53  1  0
 14 54  1  0
 14 55  1  0
 15 56  1  1
 16 57  1  0
 16 58  1  0
 17 59  1  0
 19 60  1  6
 20 61  1  0
 20 62  1  0
 21 63  1  0
 21 64  1  0
 22 65  1  6
 23 66  1  0
 25 67  1  0
 25 68  1  0
 25 69  1  0
 26 70  1  0
 26 71  1  0
 26 72  1  0
 28 73  1  0
 28 74  1  0
 28 75  1  0
 29 76  1  0
 29 77  1  0
 30 78  1  0
 30 79  1  0
 32 80  1  0
 32 81  1  0
 32 82  1  0
M  END
>  <meeko>  (12) 
{"is_sidechain": [false], "intermolecular_energy": 2.731, "internal_energy": -0.839}

$$$$
EPH_relaxed_0001_pdb2pqr_Repair_169_r2_0001_out
     RDKit          3D

 82 86  0  0  0  0  0  0  0  0999 V2000
   -0.0090   10.1250   -2.2120 C   0  0  0  0  0  0  0  0  0  0  0  0
    0.9110   10.1060   -0.9880 C   0  0  2  0  0  0  0  0  0  0  0  0
    0.1230    9.9650    0.3290 C   0  0  0  0  0  0  0  0  0  0  0  0
    0.8290   10.5860    1.5380 C   0  0  0  0  0  0  0  0  0  0  0  0
   -0.0250   11.6210    2.2060 C   0  0  2  0  0  0  0  0  0  0  0  0
    0.4600   12.9650    2.0870 O   0  0  0  0  0  0  0  0  0  0  0  0
    0.4220   12.4200    3.4160 C   0  0  0  0  0  0  0  0  0  0  0  0
    1.7720   12.2180    4.0300 C   0  0  0  0  0  0  0  0  0  0  0  0
   -0.6230   13.0380    4.2920 C   0  0  0  0  0  0  0  0  0  0  0  0
    1.7580   11.3730   -0.9560 C   0  0  1  0  0  0  0  0  0  0  0  0
    3.1280   11.1940   -1.6630 C   0  0  0  0  0  0  0  0  0  0  0  0
    3.4630   12.5480   -2.3380 C   0  0  0  0  0  0  0  0  0  0  0  0
    2.4540   13.5490   -1.7280 C   0  0  1  0  0  0  0  0  0  0  0  0
    3.0650   13.9420   -0.3470 C   0  0  0  0  0  0  0  0  0  0  0  0
    2.1210   14.8080   -2.5920 C   0  0  2  0  0  0  0  0  0  0  0  0
    3.3130   15.7390   -2.8750 C   0  0  0  0  0  0  0  0  0  0  0  0
    3.5240   16.8280   -1.8760 C   0  0  0  0  0  0  0  0  0  0  0  0
    2.6280   17.2270   -0.9540 C   0  0  0  0  0  0  0  0  0  0  0  0
    1.2160   16.6290   -0.9170 C   0  0  1  0  0  0  0  0  0  0  0  0
    0.1750   17.7690   -0.7720 C   0  0  0  0  0  0  0  0  0  0  0  0
    0.4580   18.6720    0.4250 C   0  0  0  0  0  0  0  0  0  0  0  0
    1.8480   19.2930    0.3230 C   0  0  2  0  0  0  0  0  0  0  0  0
    1.8700   20.1940   -0.7880 O   0  0  0  0  0  0  0  0  0  0  0  0
    2.9800   18.2400    0.1640 C   0  0  0  0  0  0  0  0  0  0  0  0
    3.1550   17.4590    1.4900 C   0  0  0  0  0  0  0  0  0  0  0  0
    4.3120   19.0020   -0.0700 C   0  0  0  0  0  0  0  0  0  0  0  0
    0.8590   15.6220   -2.0930 C   0  0  1  0  0  0  0  0  0  0  0  0
    0.3220   16.4120   -3.3250 C   0  0  0  0  0  0  0  0  0  0  0  0
   -0.3130   14.6800   -1.6250 C   0  0  0  0  0  0  0  0  0  0  0  0
    0.0860   13.3910   -0.8810 C   0  0  0  0  0  0  0  0  0  0  0  0
    1.1780   12.6340   -1.6430 C   0  0  2  0  0  0  0  0  0  0  0  0
    0.5850   12.2060   -3.0280 C   0  0  0  0  0  0  0  0  0  0  0  0
   -1.0581   10.1467   -1.8819 H   0  0  0  0  0  0  0  0  0  0  0  0
    0.2036   11.0189   -2.8167 H   0  0  0  0  0  0  0  0  0  0  0  0
    0.1666    9.2230   -2.8167 H   0  0  0  0  0  0  0  0  0  0  0  0
    1.5631    9.2246   -1.0773 H   0  0  0  0  0  0  0  0  0  0  0  0
   -0.8521   10.4586    0.2049 H   0  0  0  0  0  0  0  0  0  0  0  0
    0.0254    8.8882    0.5317 H   0  0  0  0  0  0  0  0  0  0  0  0
    1.0596    9.7917    2.2632 H   0  0  0  0  0  0  0  0  0  0  0  0
    1.7485   11.0755    1.1846 H   0  0  0  0  0  0  0  0  0  0  0  0
   -0.9342   11.0362    2.0028 H   0  0  0  0  0  0  0  0  0  0  0  0
    1.6820   12.2315    5.1262 H   0  0  0  0  0  0  0  0  0  0  0  0
    2.1802   11.2488    3.7075 H   0  0  0  0  0  0  0  0  0  0  0  0
    2.4460   13.0253    3.7075 H   0  0  0  0  0  0  0  0  0  0  0  0
   -0.3566   12.8805    5.3476 H   0  0  0  0  0  0  0  0  0  0  0  0
   -0.6829   14.1169    4.0860 H   0  0  0  0  0  0  0  0  0  0  0  0
   -1.5973   12.5707    4.0860 H   0  0  0  0  0  0  0  0  0  0  0  0
    1.8140   11.5293    0.1314 H   0  0  0  0  0  0  0  0  0  0  0  0
    3.9033   10.9357   -0.9267 H   0  0  0  0  0  0  0  0  0  0  0  0
    3.0868   10.3825   -2.4045 H   0  0  0  0  0  0  0  0  0  0  0  0
    4.4958   12.8504   -2.1101 H   0  0  0  0  0  0  0  0  0  0  0  0
    3.3886   12.4970   -3.4343 H   0  0  0  0  0  0  0  0  0  0  0  0
    2.4366   13.5378    0.4603 H   0  0  0  0  0  0  0  0  0  0  0  0
    4.0804   13.5272   -0.2639 H   0  0  0  0  0  0  0  0  0  0  0  0
    3.1087   15.0380   -0.2639 H   0  0  0  0  0  0  0  0  0  0  0  0
    1.8515   14.3634   -3.5614 H   0  0  0  0  0  0  0  0  0  0  0  0
    4.2246   15.1242   -2.9049 H   0  0  0  0  0  0  0  0  0  0  0  0
    3.0875   16.2403   -3.8278 H   0  0  0  0  0  0  0  0  0  0  0  0
    4.4931   17.3481   -1.8949 H   0  0  0  0  0  0  0  0  0  0  0  0
    1.1836   15.9793   -0.0300 H   0  0  0  0  0  0  0  0  0  0  0  0
    0.1919   18.3802   -1.6864 H   0  0  0  0  0  0  0  0  0  0  0  0
   -0.8092   17.3039   -0.6137 H   0  0  0  0  0  0  0  0  0  0  0  0
   -0.2935   19.4747    0.4561 H   0  0  0  0  0  0  0  0  0  0  0  0
    0.4109   18.0653    1.3414 H   0  0  0  0  0  0  0  0  0  0  0  0
    2.0426   19.8220    1.2676 H   0  0  0  0  0  0  0  0  0  0  0  0
    2.7570   20.1530   -1.1830 H   0  0  0  0  0  0  0  0  0  0  0  0
    3.0023   18.1405    2.3398 H   0  0  0  0  0  0  0  0  0  0  0  0
    2.4171   16.6445    1.5360 H   0  0  0  0  0  0  0  0  0  0  0  0
    4.1699   17.0373    1.5360 H   0  0  0  0  0  0  0  0  0  0  0  0
    4.7623   19.2596    0.9000 H   0  0  0  0  0  0  0  0  0  0  0  0
    5.0048   18.3636   -0.6379 H   0  0  0  0  0  0  0  0  0  0  0  0
    4.1128   19.9228   -0.6379 H   0  0  0  0  0  0  0  0  0  0  0  0
   -0.2651   17.2756   -2.9793 H   0  0  0  0  0  0  0  0  0  0  0  0
    1.1689   16.7638   -3.9325 H   0  0  0  0  0  0  0  0  0  0  0  0
   -0.3167   15.7540   -3.9325 H   0  0  0  0  0  0  0  0  0  0  0  0
   -0.9616   15.2636   -0.9551 H   0  0  0  0  0  0  0  0  0  0  0  0
   -0.7958   14.3389   -2.5527 H   0  0  0  0  0  0  0  0  0  0  0  0
    0.4614   13.6542    0.1189 H   0  0  0  0  0  0  0  0  0  0  0  0
   -0.7996   12.7434   -0.8016 H   0  0  0  0  0  0  0  0  0  0  0  0
   -0.2975   11.5691   -2.8680 H   0  0  0  0  0  0  0  0  0  0  0  0
    0.2924   13.1024   -3.5944 H   0  0  0  0  0  0  0  0  0  0  0  0
    1.3436   11.6459   -3.5944 H   0  0  0  0  0  0  0  0  0  0  0  0
  1  2  1  0
  2  3  1  0
  3  4  1  0
  4  5  1  0
  5  6  1  0
  6  7  1  0
  7  8  1  0
  7  9  1  0
  2 10  1  0
 10 11  1  0
 11 12  1  0
 12 13  1  0
 13 14  1  1
 13 15  1  0
 15 16  1  0
 16 17  1  0
 17 18  2  0
 18 19  1  0
 19 20  1  0
 20 21  1  0
 21 22  1  0
 22 23  1  0
 22 24  1  0
 24 25  1  0
 24 26  1  0
 19 27  1  0
 27 28  1  6
 27 29  1  0
 29 30  1  0
 30 31  1  0
 31 32  1  6
  7  5  1  0
 31 10  1  0
 31 13  1  0
 27 15  1  0
 24 18  1  0
  1 33  1  0
  1 34  1  0
  1 35  1  0
  2 36  1  6
  3 37  1  0
  3 38  1  0
  4 39  1  0
  4 40  1  0
  5 41  1  1
  8 42  1  0
  8 43  1  0
  8 44  1  0
  9 45  1  0
  9 46  1  0
  9 47  1  0
 10 48  1  1
 11 49  1  0
 11 50  1  0
 12 51  1  0
 12 52  1  0
 14 53  1  0
 14 54  1  0
 14 55  1  0
 15 56  1  6
 16 57  1  0
 16 58  1  0
 17 59  1  0
 19 60  1  1
 20 61  1  0
 20 62  1  0
 21 63  1  0
 21 64  1  0
 22 65  1  1
 23 66  1  0
 25 67  1  0
 25 68  1  0
 25 69  1  0
 26 70  1  0
 26 71  1  0
 26 72  1  0
 28 73  1  0
 28 74  1  0
 28 75  1  0
 29 76  1  0
 29 77  1  0
 30 78  1  0
 30 79  1  0
 32 80  1  0
 32 81  1  0
 32 82  1  0
M  END
>  <meeko>  (13) 
{"is_sidechain": [false], "intermolecular_energy": 2.731, "internal_energy": -0.839}

$$$$
EPH_relaxed_0001_pdb2pqr_Repair_169_r2_0001_out
     RDKit          3D

 82 86  0  0  0  0  0  0  0  0999 V2000
   -1.3040   10.4640    1.6180 C   0  0  0  0  0  0  0  0  0  0  0  0
   -1.9480   10.1650    0.2610 C   0  0  2  0  0  0  0  0  0  0  0  0
   -2.7710    8.8610    0.2830 C   0  0  0  0  0  0  0  0  0  0  0  0
   -4.0760    8.9440   -0.5130 C   0  0  0  0  0  0  0  0  0  0  0  0
   -4.5880    7.5840   -0.8810 C   0  0  2  0  0  0  0  0  0  0  0  0
   -4.8030    7.3860   -2.2850 O   0  0  0  0  0  0  0  0  0  0  0  0
   -5.9720    7.3370   -1.4510 C   0  0  0  0  0  0  0  0  0  0  0  0
   -6.9320    8.4610   -1.6830 C   0  0  0  0  0  0  0  0  0  0  0  0
   -6.5650    5.9680   -1.3220 C   0  0  0  0  0  0  0  0  0  0  0  0
   -0.8740   10.0840   -0.8180 C   0  0  1  0  0  0  0  0  0  0  0  0
   -1.3090    9.2190   -2.0300 C   0  0  0  0  0  0  0  0  0  0  0  0
   -0.6850    9.8690   -3.2910 C   0  0  0  0  0  0  0  0  0  0  0  0
    0.3480   10.8790   -2.7380 C   0  0  1  0  0  0  0  0  0  0  0  0
    1.6090   10.0210   -2.4040 C   0  0  0  0  0  0  0  0  0  0  0  0
    0.7020   12.0850   -3.6680 C   0  0  2  0  0  0  0  0  0  0  0  0
    1.3580   11.7060   -5.0080 C   0  0  0  0  0  0  0  0  0  0  0  0
    2.8490   11.6430   -4.9920 C   0  0  0  0  0  0  0  0  0  0  0  0
    3.6440   12.1540   -4.0330 C   0  0  0  0  0  0  0  0  0  0  0  0
    3.0540   12.9620   -2.8700 C   0  0  1  0  0  0  0  0  0  0  0  0
    3.8880   14.2540   -2.6610 C   0  0  0  0  0  0  0  0  0  0  0  0
    5.3750   13.9660   -2.4780 C   0  0  0  0  0  0  0  0  0  0  0  0
    5.9380   13.2130   -3.6800 C   0  0  2  0  0  0  0  0  0  0  0  0
    5.9020   14.0740   -4.8220 O   0  0  0  0  0  0  0  0  0  0  0  0
    5.1700   11.8980   -3.9930 C   0  0  0  0  0  0  0  0  0  0  0  0
    5.4590   10.8510   -2.8880 C   0  0  0  0  0  0  0  0  0  0  0  0
    5.7470   11.3100   -5.3090 C   0  0  0  0  0  0  0  0  0  0  0  0
    1.4930   13.2500   -2.9470 C   0  0  1  0  0  0  0  0  0  0  0  0
    1.2310   14.5460   -3.7740 C   0  0  0  0  0  0  0  0  0  0  0  0
    0.9500   13.5320   -1.4960 C   0  0  0  0  0  0  0  0  0  0  0  0
    0.5050   12.3100   -0.6700 C   0  0  0  0  0  0  0  0  0  0  0  0
   -0.4330   11.4120   -1.4830 C   0  0  2  0  0  0  0  0  0  0  0  0
   -1.7200   12.2420   -1.8150 C   0  0  0  0  0  0  0  0  0  0  0  0
   -1.9833   10.1486    2.4237 H   0  0  0  0  0  0  0  0  0  0  0  0
   -0.3549    9.9144    1.7025 H   0  0  0  0  0  0  0  0  0  0  0  0
   -1.1113   11.5437    1.7025 H   0  0  0  0  0  0  0  0  0  0  0  0
   -2.6407   10.9892    0.0354 H   0  0  0  0  0  0  0  0  0  0  0  0
   -2.1555    8.0545   -0.1422 H   0  0  0  0  0  0  0  0  0  0  0  0
   -3.0451    8.6713    1.3313 H   0  0  0  0  0  0  0  0  0  0  0  0
   -4.8338    9.4572    0.0972 H   0  0  0  0  0  0  0  0  0  0  0  0
   -3.8766    9.4984   -1.4419 H   0  0  0  0  0  0  0  0  0  0  0  0
   -4.0432    7.1256   -0.0425 H   0  0  0  0  0  0  0  0  0  0  0  0
   -7.2717    8.8587   -0.7153 H   0  0  0  0  0  0  0  0  0  0  0  0
   -6.4321    9.2586   -2.2521 H   0  0  0  0  0  0  0  0  0  0  0  0
   -7.7980    8.0920   -2.2521 H   0  0  0  0  0  0  0  0  0  0  0  0
   -6.6747    5.7148   -0.2572 H   0  0  0  0  0  0  0  0  0  0  0  0
   -7.5521    5.9488   -1.8070 H   0  0  0  0  0  0  0  0  0  0  0  0
   -5.9038    5.2348   -1.8070 H   0  0  0  0  0  0  0  0  0  0  0  0
   -0.0470    9.6675   -0.2242 H   0  0  0  0  0  0  0  0  0  0  0  0
   -0.9397    8.1895   -1.9125 H   0  0  0  0  0  0  0  0  0  0  0  0
   -2.4052    9.1747   -2.1102 H   0  0  0  0  0  0  0  0  0  0  0  0
   -0.1905    9.1100   -3.9150 H   0  0  0  0  0  0  0  0  0  0  0  0
   -1.4401   10.3514   -3.9290 H   0  0  0  0  0  0  0  0  0  0  0  0
    1.7217    9.9443   -1.3125 H   0  0  0  0  0  0  0  0  0  0  0  0
    1.4916    9.0145   -2.8321 H   0  0  0  0  0  0  0  0  0  0  0  0
    2.5021   10.4997   -2.8321 H   0  0  0  0  0  0  0  0  0  0  0  0
   -0.2908   12.4839   -3.9235 H   0  0  0  0  0  0  0  0  0  0  0  0
    0.9791   10.7167   -5.3043 H   0  0  0  0  0  0  0  0  0  0  0  0
    1.0946   12.5078   -5.7135 H   0  0  0  0  0  0  0  0  0  0  0  0
    3.3403   11.1359   -5.8355 H   0  0  0  0  0  0  0  0  0  0  0  0
    3.1337   12.3181   -1.9817 H   0  0  0  0  0  0  0  0  0  0  0  0
    3.7598   14.9027   -3.5401 H   0  0  0  0  0  0  0  0  0  0  0  0
    3.5263   14.7406   -1.7432 H   0  0  0  0  0  0  0  0  0  0  0  0
    5.9145   14.9179   -2.3649 H   0  0  0  0  0  0  0  0  0  0  0  0
    5.5034   13.3415   -1.5816 H   0  0  0  0  0  0  0  0  0  0  0  0
    6.9701   12.9231   -3.4337 H   0  0  0  0  0  0  0  0  0  0  0  0
    5.2150   13.7390   -5.4220 H   0  0  0  0  0  0  0  0  0  0  0  0
    5.3306   11.3162   -1.8995 H   0  0  0  0  0  0  0  0  0  0  0  0
    4.7600   10.0078   -2.9900 H   0  0  0  0  0  0  0  0  0  0  0  0
    6.4916   10.4857   -2.9900 H   0  0  0  0  0  0  0  0  0  0  0  0
    6.4990   10.5437   -5.0695 H   0  0  0  0  0  0  0  0  0  0  0  0
    4.9344   10.8558   -5.8949 H   0  0  0  0  0  0  0  0  0  0  0  0
    6.2165   12.1139   -5.8949 H   0  0  0  0  0  0  0  0  0  0  0  0
    1.0604   15.3897   -3.0892 H   0  0  0  0  0  0  0  0  0  0  0  0
    2.1042   14.7592   -4.4081 H   0  0  0  0  0  0  0  0  0  0  0  0
    0.3436   14.4032   -4.4081 H   0  0  0  0  0  0  0  0  0  0  0  0
    1.7484   14.0398   -0.9350 H   0  0  0  0  0  0  0  0  0  0  0  0
    0.0372   14.1282   -1.6416 H   0  0  0  0  0  0  0  0  0  0  0  0
    1.3931   11.7310   -0.3766 H   0  0  0  0  0  0  0  0  0  0  0  0
   -0.0338   12.6655    0.2207 H   0  0  0  0  0  0  0  0  0  0  0  0
   -2.2058   12.5553   -0.8791 H   0  0  0  0  0  0  0  0  0  0  0  0
   -1.4420   13.1315   -2.3995 H   0  0  0  0  0  0  0  0  0  0  0  0
   -2.4156   11.6219   -2.3995 H   0  0  0  0  0  0  0  0  0  0  0  0
  1  2  1  0
  2  3  1  0
  3  4  1  0
  4  5  1  0
  5  6  1  0
  6  7  1  0
  7  8  1  0
  7  9  1  0
  2 10  1  0
 10 11  1  0
 11 12  1  0
 12 13  1  0
 13 14  1  1
 13 15  1  0
 15 16  1  0
 16 17  1  0
 17 18  2  0
 18 19  1  0
 19 20  1  0
 20 21  1  0
 21 22  1  0
 22 23  1  0
 22 24  1  0
 24 25  1  0
 24 26  1  0
 19 27  1  0
 27 28  1  6
 27 29  1  0
 29 30  1  0
 30 31  1  0
 31 32  1  6
  7  5  1  0
 31 10  1  0
 31 13  1  0
 27 15  1  0
 24 18  1  0
  1 33  1  0
  1 34  1  0
  1 35  1  0
  2 36  1  6
  3 37  1  0
  3 38  1  0
  4 39  1  0
  4 40  1  0
  5 41  1  1
  8 42  1  0
  8 43  1  0
  8 44  1  0
  9 45  1  0
  9 46  1  0
  9 47  1  0
 10 48  1  1
 11 49  1  0
 11 50  1  0
 12 51  1  0
 12 52  1  0
 14 53  1  0
 14 54  1  0
 14 55  1  0
 15 56  1  6
 16 57  1  0
 16 58  1  0
 17 59  1  0
 19 60  1  1
 20 61  1  0
 20 62  1  0
 21 63  1  0
 21 64  1  0
 22 65  1  1
 23 66  1  0
 25 67  1  0
 25 68  1  0
 25 69  1  0
 26 70  1  0
 26 71  1  0
 26 72  1  0
 28 73  1  0
 28 74  1  0
 28 75  1  0
 29 76  1  0
 29 77  1  0
 30 78  1  0
 30 79  1  0
 32 80  1  0
 32 81  1  0
 32 82  1  0
M  END
>  <meeko>  (14) 
{"is_sidechain": [false], "intermolecular_energy": 2.731, "internal_energy": -0.839}

$$$$
EPH_relaxed_0001_pdb2pqr_Repair_169_r2_0001_out
     RDKit          3D

 82 86  0  0  0  0  0  0  0  0999 V2000
    0.9510   10.2320   -2.7350 C   0  0  0  0  0  0  0  0  0  0  0  0
    2.1570   10.1950   -1.7920 C   0  0  2  0  0  0  0  0  0  0  0  0
    1.7940    9.6250   -0.4060 C   0  0  0  0  0  0  0  0  0  0  0  0
    0.5990   10.3210    0.2520 C   0  0  0  0  0  0  0  0  0  0  0  0
   -0.6430    9.4860    0.1710 C   0  0  2  0  0  0  0  0  0  0  0  0
   -0.9670    9.0210   -1.1460 O   0  0  0  0  0  0  0  0  0  0  0  0
   -1.9040    9.9300   -0.5460 C   0  0  0  0  0  0  0  0  0  0  0  0
   -1.9860   11.2590   -1.2300 C   0  0  0  0  0  0  0  0  0  0  0  0
   -3.2040    9.2920   -0.1680 C   0  0  0  0  0  0  0  0  0  0  0  0
    2.7430   11.5940   -1.6420 C   0  0  1  0  0  0  0  0  0  0  0  0
    4.0780   11.7690   -2.4130 C   0  0  0  0  0  0  0  0  0  0  0  0
    4.1050   13.2270   -2.9380 C   0  0  0  0  0  0  0  0  0  0  0  0
    2.9570   13.9350   -2.1810 C   0  0  1  0  0  0  0  0  0  0  0  0
    3.5580   14.2930   -0.7850 C   0  0  0  0  0  0  0  0  0  0  0  0
    2.3370   15.1880   -2.8810 C   0  0  2  0  0  0  0  0  0  0  0  0
    3.3070   16.3630   -3.0960 C   0  0  0  0  0  0  0  0  0  0  0  0
    3.3590   17.3580   -1.9840 C   0  0  0  0  0  0  0  0  0  0  0  0
    2.4570   17.4700   -0.9920 C   0  0  0  0  0  0  0  0  0  0  0  0
    1.1930   16.6020   -0.9750 C   0  0  1  0  0  0  0  0  0  0  0  0
   -0.0410   17.4900   -0.6630 C   0  0  0  0  0  0  0  0  0  0  0  0
    0.1300   18.2980    0.6210 C   0  0  0  0  0  0  0  0  0  0  0  0
    1.3650   19.1910    0.5420 C   0  0  2  0  0  0  0  0  0  0  0  0
    1.1470   20.1920   -0.4570 O   0  0  0  0  0  0  0  0  0  0  0  0
    2.6690   18.4080    0.2230 C   0  0  0  0  0  0  0  0  0  0  0  0
    3.0680   17.5410    1.4420 C   0  0  0  0  0  0  0  0  0  0  0  0
    3.8120   19.4410    0.0320 C   0  0  0  0  0  0  0  0  0  0  0  0
    0.9710   15.6750   -2.2470 C   0  0  1  0  0  0  0  0  0  0  0  0
    0.2220   16.4700   -3.3600 C   0  0  0  0  0  0  0  0  0  0  0  0
    0.0330   14.4740   -1.8500 C   0  0  0  0  0  0  0  0  0  0  0  0
    0.7170   13.2190   -1.2750 C   0  0  0  0  0  0  0  0  0  0  0  0
    1.8900   12.7810   -2.1580 C   0  0  2  0  0  0  0  0  0  0  0  0
    1.3130   12.3930   -3.5620 C   0  0  0  0  0  0  0  0  0  0  0  0
    0.0239   10.2604   -2.1437 H   0  0  0  0  0  0  0  0  0  0  0  0
    1.0089   11.1288   -3.3694 H   0  0  0  0  0  0  0  0  0  0  0  0
    0.9539    9.3333   -3.3694 H   0  0  0  0  0  0  0  0  0  0  0  0
    2.9053    9.5241   -2.2391 H   0  0  0  0  0  0  0  0  0  0  0  0
    1.5539    8.5577   -0.5214 H   0  0  0  0  0  0  0  0  0  0  0  0
    2.6629    9.7914    0.2477 H   0  0  0  0  0  0  0  0  0  0  0  0
    0.8341   10.5084    1.3101 H   0  0  0  0  0  0  0  0  0  0  0  0
    0.4138   11.2636   -0.2839 H   0  0  0  0  0  0  0  0  0  0  0  0
   -0.4702    9.0887    1.1821 H   0  0  0  0  0  0  0  0  0  0  0  0
   -2.0353   12.0575   -0.4750 H   0  0  0  0  0  0  0  0  0  0  0  0
   -1.0951   11.4034   -1.8588 H   0  0  0  0  0  0  0  0  0  0  0  0
   -2.8879   11.2927   -1.8588 H   0  0  0  0  0  0  0  0  0  0  0  0
   -3.2873    9.2511    0.9281 H   0  0  0  0  0  0  0  0  0  0  0  0
   -4.0358    9.8843   -0.5771 H   0  0  0  0  0  0  0  0  0  0  0  0
   -3.2444    8.2717   -0.5771 H   0  0  0  0  0  0  0  0  0  0  0  0
    2.8307   11.6404   -0.5465 H   0  0  0  0  0  0  0  0  0  0  0  0
    4.9299   11.5933   -1.7396 H   0  0  0  0  0  0  0  0  0  0  0  0
    4.1518   11.0499   -3.2421 H   0  0  0  0  0  0  0  0  0  0  0  0
    5.0706   13.7032   -2.7126 H   0  0  0  0  0  0  0  0  0  0  0  0
    3.9801   13.2799   -4.0296 H   0  0  0  0  0  0  0  0  0  0  0  0
    2.9025   13.9026    0.0074 H   0  0  0  0  0  0  0  0  0  0  0  0
    4.5571   13.8427   -0.6895 H   0  0  0  0  0  0  0  0  0  0  0  0
    3.6378   15.3859   -0.6895 H   0  0  0  0  0  0  0  0  0  0  0  0
    2.1046   14.8053   -3.8858 H   0  0  0  0  0  0  0  0  0  0  0  0
    4.3175   15.9496   -3.2298 H   0  0  0  0  0  0  0  0  0  0  0  0
    2.9344   16.9085   -3.9756 H   0  0  0  0  0  0  0  0  0  0  0  0
    4.2067   18.0590   -1.9750 H   0  0  0  0  0  0  0  0  0  0  0  0
    1.3390   15.8684   -0.1684 H   0  0  0  0  0  0  0  0  0  0  0  0
   -0.1951   18.1866   -1.5003 H   0  0  0  0  0  0  0  0  0  0  0  0
   -0.9060   16.8243   -0.5264 H   0  0  0  0  0  0  0  0  0  0  0  0
   -0.7599   18.9266    0.7722 H   0  0  0  0  0  0  0  0  0  0  0  0
    0.2544   17.5997    1.4618 H   0  0  0  0  0  0  0  0  0  0  0  0
    1.5077   19.6446    1.5339 H   0  0  0  0  0  0  0  0  0  0  0  0
    1.6630   20.9760   -0.2050 H   0  0  0  0  0  0  0  0  0  0  0  0
    2.8211   18.0775    2.3700 H   0  0  0  0  0  0  0  0  0  0  0  0
    2.5173   16.5893    1.4110 H   0  0  0  0  0  0  0  0  0  0  0  0
    4.1491   17.3402    1.4110 H   0  0  0  0  0  0  0  0  0  0  0  0
    4.1766   19.7705    1.0161 H   0  0  0  0  0  0  0  0  0  0  0  0
    4.6368   18.9759   -0.5277 H   0  0  0  0  0  0  0  0  0  0  0  0
    3.4324   20.3085   -0.5277 H   0  0  0  0  0  0  0  0  0  0  0  0
   -0.4617   17.1957   -2.8953 H   0  0  0  0  0  0  0  0  0  0  0  0
    0.9534   17.0034   -3.9849 H   0  0  0  0  0  0  0  0  0  0  0  0
   -0.3540   15.7717   -3.9849 H   0  0  0  0  0  0  0  0  0  0  0  0
   -0.6768   14.8418   -1.0944 H   0  0  0  0  0  0  0  0  0  0  0  0
   -0.4273   14.1443   -2.7931 H   0  0  0  0  0  0  0  0  0  0  0  0
    1.0909   13.4436   -0.2652 H   0  0  0  0  0  0  0  0  0  0  0  0
   -0.0197   12.4028   -1.2399 H   0  0  0  0  0  0  0  0  0  0  0  0
    0.4068   11.7836   -3.4303 H   0  0  0  0  0  0  0  0  0  0  0  0
    1.0624   13.3068   -4.1207 H   0  0  0  0  0  0  0  0  0  0  0  0
    2.0647   11.8162   -4.1207 H   0  0  0  0  0  0  0  0  0  0  0  0
  1  2  1  0
  2  3  1  0
  3  4  1  0
  4  5  1  0
  5  6  1  0
  6  7  1  0
  7  8  1  0
  7  9  1  0
  2 10  1  0
 10 11  1  0
 11 12  1  0
 12 13  1  0
 13 14  1  1
 13 15  1  0
 15 16  1  0
 16 17  1  0
 17 18  2  0
 18 19  1  0
 19 20  1  0
 20 21  1  0
 21 22  1  0
 22 23  1  0
 22 24  1  0
 24 25  1  0
 24 26  1  0
 19 27  1  0
 27 28  1  6
 27 29  1  0
 29 30  1  0
 30 31  1  0
 31 32  1  6
  7  5  1  0
 31 10  1  0
 31 13  1  0
 27 15  1  0
 24 18  1  0
  1 33  1  0
  1 34  1  0
  1 35  1  0
  2 36  1  6
  3 37  1  0
  3 38  1  0
  4 39  1  0
  4 40  1  0
  5 41  1  1
  8 42  1  0
  8 43  1  0
  8 44  1  0
  9 45  1  0
  9 46  1  0
  9 47  1  0
 10 48  1  1
 11 49  1  0
 11 50  1  0
 12 51  1  0
 12 52  1  0
 14 53  1  0
 14 54  1  0
 14 55  1  0
 15 56  1  6
 16 57  1  0
 16 58  1  0
 17 59  1  0
 19 60  1  1
 20 61  1  0
 20 62  1  0
 21 63  1  0
 21 64  1  0
 22 65  1  1
 23 66  1  0
 25 67  1  0
 25 68  1  0
 25 69  1  0
 26 70  1  0
 26 71  1  0
 26 72  1  0
 28 73  1  0
 28 74  1  0
 28 75  1  0
 29 76  1  0
 29 77  1  0
 30 78  1  0
 30 79  1  0
 32 80  1  0
 32 81  1  0
 32 82  1  0
M  END
>  <meeko>  (15) 
{"is_sidechain": [false], "intermolecular_energy": 2.731, "internal_energy": -0.839}

$$$$
EPH_relaxed_0001_pdb2pqr_Repair_169_r2_0001_out
     RDKit          3D

 82 86  0  0  0  0  0  0  0  0999 V2000
    0.1630    9.2020   -2.0810 C   0  0  0  0  0  0  0  0  0  0  0  0
    1.1510   10.2460   -2.6100 C   0  0  2  0  0  0  0  0  0  0  0  0
    2.5770    9.6780   -2.7500 C   0  0  0  0  0  0  0  0  0  0  0  0
    3.4300   10.4050   -3.7930 C   0  0  0  0  0  0  0  0  0  0  0  0
    4.8210   10.6550   -3.2960 C   0  0  2  0  0  0  0  0  0  0  0  0
    5.4020   11.8890   -3.7370 O   0  0  0  0  0  0  0  0  0  0  0  0
    6.0400   10.6870   -4.1990 C   0  0  0  0  0  0  0  0  0  0  0  0
    5.9230   10.4650   -5.6740 C   0  0  0  0  0  0  0  0  0  0  0  0
    7.3870   10.4480   -3.5920 C   0  0  0  0  0  0  0  0  0  0  0  0
    1.1630   11.4620   -1.6910 C   0  0  1  0  0  0  0  0  0  0  0  0
    2.1510   11.3050   -0.5040 C   0  0  0  0  0  0  0  0  0  0  0  0
    2.7370   12.7120   -0.2210 C   0  0  0  0  0  0  0  0  0  0  0  0
    1.8320   13.6800   -1.0200 C   0  0  1  0  0  0  0  0  0  0  0  0
    0.5730   13.8850   -0.1210 C   0  0  0  0  0  0  0  0  0  0  0  0
    2.4750   15.0440   -1.4340 C   0  0  2  0  0  0  0  0  0  0  0  0
    2.8990   15.9470   -0.2630 C   0  0  0  0  0  0  0  0  0  0  0  0
    1.8570   16.9040    0.2150 C   0  0  0  0  0  0  0  0  0  0  0  0
    0.7350   17.2340   -0.4510 C   0  0  0  0  0  0  0  0  0  0  0  0
    0.4700   16.6980   -1.8640 C   0  0  1  0  0  0  0  0  0  0  0  0
   -0.0020   17.8600   -2.7780 C   0  0  0  0  0  0  0  0  0  0  0  0
   -1.2030   18.6050   -2.2020 C   0  0  0  0  0  0  0  0  0  0  0  0
   -0.8820   19.1730   -0.8220 C   0  0  2  0  0  0  0  0  0  0  0  0
    0.1110   20.1930   -0.9620 O   0  0  0  0  0  0  0  0  0  0  0  0
   -0.3850   18.0960    0.1830 C   0  0  0  0  0  0  0  0  0  0  0  0
   -1.5590   17.1610    0.5670 C   0  0  0  0  0  0  0  0  0  0  0  0
    0.0370   18.8200    1.4890 C   0  0  0  0  0  0  0  0  0  0  0  0
    1.6450   15.8490   -2.5150 C   0  0  1  0  0  0  0  0  0  0  0  0
    2.6530   16.7980   -3.2320 C   0  0  0  0  0  0  0  0  0  0  0  0
    1.0470   14.9130   -3.6300 C   0  0  0  0  0  0  0  0  0  0  0  0
    0.5380   13.5310   -3.1770 C   0  0  0  0  0  0  0  0  0  0  0  0
    1.5820   12.8190   -2.3110 C   0  0  2  0  0  0  0  0  0  0  0  0
    2.8520   12.5780   -3.1960 C   0  0  0  0  0  0  0  0  0  0  0  0
    0.1727    9.2122   -0.9811 H   0  0  0  0  0  0  0  0  0  0  0  0
   -0.8490    9.4393   -2.4410 H   0  0  0  0  0  0  0  0  0  0  0  0
    0.4557    8.2046   -2.4410 H   0  0  0  0  0  0  0  0  0  0  0  0
    0.8137   10.5416   -3.6144 H   0  0  0  0  0  0  0  0  0  0  0  0
    3.0794    9.7568   -1.7746 H   0  0  0  0  0  0  0  0  0  0  0  0
    2.4760    8.6359   -3.0875 H   0  0  0  0  0  0  0  0  0  0  0  0
    3.4821    9.7889   -4.7028 H   0  0  0  0  0  0  0  0  0  0  0  0
    2.9608   11.3778   -4.0013 H   0  0  0  0  0  0  0  0  0  0  0  0
    4.6090   10.1140   -2.3620 H   0  0  0  0  0  0  0  0  0  0  0  0
    5.4176    9.5061   -5.8615 H   0  0  0  0  0  0  0  0  0  0  0  0
    5.3381   11.2816   -6.1224 H   0  0  0  0  0  0  0  0  0  0  0  0
    6.9272   10.4441   -6.1224 H   0  0  0  0  0  0  0  0  0  0  0  0
    7.3029   10.4629   -2.4953 H   0  0  0  0  0  0  0  0  0  0  0  0
    7.7672    9.4684   -3.9173 H   0  0  0  0  0  0  0  0  0  0  0  0
    8.0810   11.2370   -3.9173 H   0  0  0  0  0  0  0  0  0  0  0  0
    0.1001   11.4895   -1.4092 H   0  0  0  0  0  0  0  0  0  0  0  0
    1.6203   10.9301    0.3836 H   0  0  0  0  0  0  0  0  0  0  0  0
    2.9480   10.5865   -0.7458 H   0  0  0  0  0  0  0  0  0  0  0  0
    2.6961   12.9406    0.8542 H   0  0  0  0  0  0  0  0  0  0  0  0
    3.7940   12.7905   -0.5154 H   0  0  0  0  0  0  0  0  0  0  0  0
    0.8669   13.8372    0.9379 H   0  0  0  0  0  0  0  0  0  0  0  0
    0.1267   14.8676   -0.3336 H   0  0  0  0  0  0  0  0  0  0  0  0
   -0.1620   13.0947   -0.3336 H   0  0  0  0  0  0  0  0  0  0  0  0
    3.4098   14.7277   -1.9199 H   0  0  0  0  0  0  0  0  0  0  0  0
    3.1787   15.2997    0.5812 H   0  0  0  0  0  0  0  0  0  0  0  0
    3.7284   16.5637   -0.6394 H   0  0  0  0  0  0  0  0  0  0  0  0
    2.0202   17.3791    1.1936 H   0  0  0  0  0  0  0  0  0  0  0  0
   -0.3330   15.9533   -1.7614 H   0  0  0  0  0  0  0  0  0  0  0  0
    0.8281   18.5711   -2.9018 H   0  0  0  0  0  0  0  0  0  0  0  0
   -0.3085   17.4250   -3.7407 H   0  0  0  0  0  0  0  0  0  0  0  0
   -1.4723   19.4305   -2.8773 H   0  0  0  0  0  0  0  0  0  0  0  0
   -2.0407   17.8987   -2.1048 H   0  0  0  0  0  0  0  0  0  0  0  0
   -1.8159   19.5818   -0.4089 H   0  0  0  0  0  0  0  0  0  0  0  0
    0.9290   19.7680   -1.2730 H   0  0  0  0  0  0  0  0  0  0  0  0
   -1.6358   17.0999    1.6626 H   0  0  0  0  0  0  0  0  0  0  0  0
   -2.4969   17.5622    0.1555 H   0  0  0  0  0  0  0  0  0  0  0  0
   -1.3779   16.1571    0.1555 H   0  0  0  0  0  0  0  0  0  0  0  0
   -0.3028   18.2370    2.3577 H   0  0  0  0  0  0  0  0  0  0  0  0
    1.1324   18.9158    1.5176 H   0  0  0  0  0  0  0  0  0  0  0  0
   -0.4195   19.8204    1.5176 H   0  0  0  0  0  0  0  0  0  0  0  0
    3.2373   17.3481   -2.4797 H   0  0  0  0  0  0  0  0  0  0  0  0
    3.3321   16.2038   -3.8611 H   0  0  0  0  0  0  0  0  0  0  0  0
    2.1008   17.5117   -3.8611 H   0  0  0  0  0  0  0  0  0  0  0  0
    0.2017   15.4439   -4.0922 H   0  0  0  0  0  0  0  0  0  0  0  0
    1.8859   14.7024   -4.3096 H   0  0  0  0  0  0  0  0  0  0  0  0
   -0.3853   13.6611   -2.5934 H   0  0  0  0  0  0  0  0  0  0  0  0
    0.3460   12.9180   -4.0699 H   0  0  0  0  0  0  0  0  0  0  0  0
    3.7248   12.4124   -2.5474 H   0  0  0  0  0  0  0  0  0  0  0  0
    2.6940   11.6938   -3.8310 H   0  0  0  0  0  0  0  0  0  0  0  0
    3.0289   13.4586   -3.8310 H   0  0  0  0  0  0  0  0  0  0  0  0
  1  2  1  0
  2  3  1  0
  3  4  1  0
  4  5  1  0
  5  6  1  0
  6  7  1  0
  7  8  1  0
  7  9  1  0
  2 10  1  0
 10 11  1  0
 11 12  1  0
 12 13  1  0
 13 14  1  1
 13 15  1  0
 15 16  1  0
 16 17  1  0
 17 18  2  0
 18 19  1  0
 19 20  1  0
 20 21  1  0
 21 22  1  0
 22 23  1  0
 22 24  1  0
 24 25  1  0
 24 26  1  0
 19 27  1  0
 27 28  1  6
 27 29  1  0
 29 30  1  0
 30 31  1  0
 31 32  1  6
  7  5  1  0
 31 10  1  0
 31 13  1  0
 27 15  1  0
 24 18  1  0
  1 33  1  0
  1 34  1  0
  1 35  1  0
  2 36  1  6
  3 37  1  0
  3 38  1  0
  4 39  1  0
  4 40  1  0
  5 41  1  1
  8 42  1  0
  8 43  1  0
  8 44  1  0
  9 45  1  0
  9 46  1  0
  9 47  1  0
 10 48  1  1
 11 49  1  0
 11 50  1  0
 12 51  1  0
 12 52  1  0
 14 53  1  0
 14 54  1  0
 14 55  1  0
 15 56  1  6
 16 57  1  0
 16 58  1  0
 17 59  1  0
 19 60  1  1
 20 61  1  0
 20 62  1  0
 21 63  1  0
 21 64  1  0
 22 65  1  1
 23 66  1  0
 25 67  1  0
 25 68  1  0
 25 69  1  0
 26 70  1  0
 26 71  1  0
 26 72  1  0
 28 73  1  0
 28 74  1  0
 28 75  1  0
 29 76  1  0
 29 77  1  0
 30 78  1  0
 30 79  1  0
 32 80  1  0
 32 81  1  0
 32 82  1  0
M  END
>  <meeko>  (16) 
{"is_sidechain": [false], "intermolecular_energy": 2.731, "internal_energy": -0.839}

$$$$
EPH_relaxed_0001_pdb2pqr_Repair_169_r2_0001_out
     RDKit          3D

 82 86  0  0  0  0  0  0  0  0999 V2000
    4.3780   16.8120   -1.4280 C   0  0  0  0  0  0  0  0  0  0  0  0
    4.4940   15.2870   -1.5100 C   0  0  2  0  0  0  0  0  0  0  0  0
    4.8760   14.8090   -2.9250 C   0  0  0  0  0  0  0  0  0  0  0  0
    5.8440   13.6230   -2.9330 C   0  0  0  0  0  0  0  0  0  0  0  0
    5.4770   12.6150   -3.9800 C   0  0  2  0  0  0  0  0  0  0  0  0
    5.0290   11.3540   -3.4650 O   0  0  0  0  0  0  0  0  0  0  0  0
    6.2530   11.3330   -4.2160 C   0  0  0  0  0  0  0  0  0  0  0  0
    7.4610   10.9910   -3.4010 C   0  0  0  0  0  0  0  0  0  0  0  0
    6.1330   10.6580   -5.5470 C   0  0  0  0  0  0  0  0  0  0  0  0
    3.1820   14.6420   -1.0780 C   0  0  1  0  0  0  0  0  0  0  0  0
    2.1590   15.6750   -0.5350 C   0  0  0  0  0  0  0  0  0  0  0  0
    0.7540   15.1800   -0.9630 C   0  0  0  0  0  0  0  0  0  0  0  0
    0.9810   13.7280   -1.4430 C   0  0  1  0  0  0  0  0  0  0  0  0
    1.0210   12.8750   -0.1360 C   0  0  0  0  0  0  0  0  0  0  0  0
   -0.0600   13.1670   -2.4660 C   0  0  2  0  0  0  0  0  0  0  0  0
   -1.5040   13.0750   -1.9440 C   0  0  0  0  0  0  0  0  0  0  0  0
   -1.8660   11.7810   -1.2940 C   0  0  0  0  0  0  0  0  0  0  0  0
   -1.1640   10.6360   -1.3860 C   0  0  0  0  0  0  0  0  0  0  0  0
    0.0750   10.5420   -2.2860 C   0  0  1  0  0  0  0  0  0  0  0  0
    0.0080    9.2390   -3.1250 C   0  0  0  0  0  0  0  0  0  0  0  0
   -0.1810    7.9960   -2.2610 C   0  0  0  0  0  0  0  0  0  0  0  0
   -1.4530    8.1020   -1.4240 C   0  0  2  0  0  0  0  0  0  0  0  0
   -2.5840    8.0760   -2.2990 O   0  0  0  0  0  0  0  0  0  0  0  0
   -1.5030    9.3820   -0.5440 C   0  0  0  0  0  0  0  0  0  0  0  0
   -0.4640    9.2690    0.5990 C   0  0  0  0  0  0  0  0  0  0  0  0
   -2.8960    9.4380    0.1400 C   0  0  0  0  0  0  0  0  0  0  0  0
    0.3860   11.8240   -3.1740 C   0  0  1  0  0  0  0  0  0  0  0  0
   -0.4030   11.7450   -4.5170 C   0  0  0  0  0  0  0  0  0  0  0  0
    1.9130   11.8260   -3.5560 C   0  0  0  0  0  0  0  0  0  0  0  0
    2.8770   12.5010   -2.5610 C   0  0  0  0  0  0  0  0  0  0  0  0
    2.3700   13.8900   -2.1620 C   0  0  2  0  0  0  0  0  0  0  0  0
    2.3400   14.7770   -3.4530 C   0  0  0  0  0  0  0  0  0  0  0  0
    4.3544   17.1217   -0.3728 H   0  0  0  0  0  0  0  0  0  0  0  0
    5.2437   17.2729   -1.9262 H   0  0  0  0  0  0  0  0  0  0  0  0
    3.4526   17.1366   -1.9262 H   0  0  0  0  0  0  0  0  0  0  0  0
    5.3012   14.9793   -0.8290 H   0  0  0  0  0  0  0  0  0  0  0  0
    3.9570   14.5108   -3.4508 H   0  0  0  0  0  0  0  0  0  0  0  0
    5.3894   15.6466   -3.4198 H   0  0  0  0  0  0  0  0  0  0  0  0
    6.8599   13.9933   -3.1352 H   0  0  0  0  0  0  0  0  0  0  0  0
    5.7920   13.1313   -1.9504 H   0  0  0  0  0  0  0  0  0  0  0  0
    5.1414   13.4103   -4.6619 H   0  0  0  0  0  0  0  0  0  0  0  0
    7.2136   11.0610   -2.3315 H   0  0  0  0  0  0  0  0  0  0  0  0
    7.7839    9.9661   -3.6363 H   0  0  0  0  0  0  0  0  0  0  0  0
    8.2732   11.6945   -3.6363 H   0  0  0  0  0  0  0  0  0  0  0  0
    5.9422    9.5850   -5.3981 H   0  0  0  0  0  0  0  0  0  0  0  0
    5.3000   11.1038   -6.1104 H   0  0  0  0  0  0  0  0  0  0  0  0
    7.0686   10.7894   -6.1104 H   0  0  0  0  0  0  0  0  0  0  0  0
    3.5628   13.9301   -0.3308 H   0  0  0  0  0  0  0  0  0  0  0  0
    2.2231   15.7311    0.5617 H   0  0  0  0  0  0  0  0  0  0  0  0
    2.3624   16.6797   -0.9340 H   0  0  0  0  0  0  0  0  0  0  0  0
    0.0582   15.2031   -0.1114 H   0  0  0  0  0  0  0  0  0  0  0  0
    0.3093   15.8130   -1.7450 H   0  0  0  0  0  0  0  0  0  0  0  0
    0.9897   13.5419    0.7382 H   0  0  0  0  0  0  0  0  0  0  0  0
    0.1536   12.1990   -0.1127 H   0  0  0  0  0  0  0  0  0  0  0  0
    1.9479   12.2831   -0.1127 H   0  0  0  0  0  0  0  0  0  0  0  0
   -0.0726   13.9473   -3.2412 H   0  0  0  0  0  0  0  0  0  0  0  0
   -1.6508   13.8783   -1.2070 H   0  0  0  0  0  0  0  0  0  0  0  0
   -2.1531   13.1636   -2.8276 H   0  0  0  0  0  0  0  0  0  0  0  0
   -2.7842   11.7613   -0.6885 H   0  0  0  0  0  0  0  0  0  0  0  0
    0.9408   10.5057   -1.6085 H   0  0  0  0  0  0  0  0  0  0  0  0
   -0.8371    9.3135   -3.8252 H   0  0  0  0  0  0  0  0  0  0  0  0
    0.9657    9.1341   -3.6559 H   0  0  0  0  0  0  0  0  0  0  0  0
   -0.2511    7.1122   -2.9121 H   0  0  0  0  0  0  0  0  0  0  0  0
    0.6797    7.9061   -1.5820 H   0  0  0  0  0  0  0  0  0  0  0  0
   -1.4651    7.2460   -0.7332 H   0  0  0  0  0  0  0  0  0  0  0  0
   -3.3550    7.7970   -1.7760 H   0  0  0  0  0  0  0  0  0  0  0  0
   -0.9789    9.3250    1.5694 H   0  0  0  0  0  0  0  0  0  0  0  0
    0.0653    8.3080    0.5197 H   0  0  0  0  0  0  0  0  0  0  0  0
    0.2595   10.0938    0.5197 H   0  0  0  0  0  0  0  0  0  0  0  0
   -2.7685    9.4329    1.2326 H   0  0  0  0  0  0  0  0  0  0  0  0
   -3.4171   10.3578   -0.1640 H   0  0  0  0  0  0  0  0  0  0  0  0
   -3.4892    8.5630   -0.1640 H   0  0  0  0  0  0  0  0  0  0  0  0
   -1.4771   11.6375   -4.3055 H   0  0  0  0  0  0  0  0  0  0  0  0
   -0.2337   12.6646   -5.0964 H   0  0  0  0  0  0  0  0  0  0  0  0
   -0.0547   10.8772   -5.0964 H   0  0  0  0  0  0  0  0  0  0  0  0
    2.2296   10.7785   -3.6675 H   0  0  0  0  0  0  0  0  0  0  0  0
    1.9793   12.4277   -4.4744 H   0  0  0  0  0  0  0  0  0  0  0  0
    2.9597   11.8757   -1.6598 H   0  0  0  0  0  0  0  0  0  0  0  0
    3.8588   12.6119   -3.0446 H   0  0  0  0  0  0  0  0  0  0  0  0
    2.3041   15.8387   -3.1676 H   0  0  0  0  0  0  0  0  0  0  0  0
    3.2451   14.5879   -4.0489 H   0  0  0  0  0  0  0  0  0  0  0  0
    1.4498   14.5272   -4.0489 H   0  0  0  0  0  0  0  0  0  0  0  0
  1  2  1  0
  2  3  1  0
  3  4  1  0
  4  5  1  0
  5  6  1  0
  6  7  1  0
  7  8  1  0
  7  9  1  0
  2 10  1  0
 10 11  1  0
 11 12  1  0
 12 13  1  0
 13 14  1  1
 13 15  1  0
 15 16  1  0
 16 17  1  0
 17 18  2  0
 18 19  1  0
 19 20  1  0
 20 21  1  0
 21 22  1  0
 22 23  1  0
 22 24  1  0
 24 25  1  0
 24 26  1  0
 19 27  1  0
 27 28  1  6
 27 29  1  0
 29 30  1  0
 30 31  1  0
 31 32  1  6
  7  5  1  0
 31 10  1  0
 31 13  1  0
 27 15  1  0
 24 18  1  0
  1 33  1  0
  1 34  1  0
  1 35  1  0
  2 36  1  1
  3 37  1  0
  3 38  1  0
  4 39  1  0
  4 40  1  0
  5 41  1  6
  8 42  1  0
  8 43  1  0
  8 44  1  0
  9 45  1  0
  9 46  1  0
  9 47  1  0
 10 48  1  1
 11 49  1  0
 11 50  1  0
 12 51  1  0
 12 52  1  0
 14 53  1  0
 14 54  1  0
 14 55  1  0
 15 56  1  6
 16 57  1  0
 16 58  1  0
 17 59  1  0
 19 60  1  1
 20 61  1  0
 20 62  1  0
 21 63  1  0
 21 64  1  0
 22 65  1  1
 23 66  1  0
 25 67  1  0
 25 68  1  0
 25 69  1  0
 26 70  1  0
 26 71  1  0
 26 72  1  0
 28 73  1  0
 28 74  1  0
 28 75  1  0
 29 76  1  0
 29 77  1  0
 30 78  1  0
 30 79  1  0
 32 80  1  0
 32 81  1  0
 32 82  1  0
M  END
>  <meeko>  (17) 
{"is_sidechain": [false], "intermolecular_energy": 2.731, "internal_energy": -0.839}

$$$$
