EPH_relaxed_0001_pdb2pqr_Repair_199_r2_0001_out
     RDKit          3D

 82 86  0  0  0  0  0  0  0  0999 V2000
   -5.1760    5.8320   -1.7340 C   0  0  0  0  0  0  0  0  0  0  0  0
   -5.4680    7.3340   -1.7880 C   0  0  2  0  0  0  0  0  0  0  0  0
   -5.2370    8.0200   -0.4270 C   0  0  0  0  0  0  0  0  0  0  0  0
   -4.1940    9.1400   -0.4720 C   0  0  0  0  0  0  0  0  0  0  0  0
   -2.8280    8.6130   -0.7920 C   0  0  2  0  0  0  0  0  0  0  0  0
   -1.8220    8.9290    0.1790 O   0  0  0  0  0  0  0  0  0  0  0  0
   -1.6450    9.5030   -1.1260 C   0  0  0  0  0  0  0  0  0  0  0  0
   -1.7740   10.9940   -1.1580 C   0  0  0  0  0  0  0  0  0  0  0  0
   -0.5020    8.9160   -1.8930 C   0  0  0  0  0  0  0  0  0  0  0  0
   -6.9010    7.5680   -2.2520 C   0  0  1  0  0  0  0  0  0  0  0  0
   -7.2130    6.8710   -3.6030 C   0  0  0  0  0  0  0  0  0  0  0  0
   -8.6910    6.4070   -3.5370 C   0  0  0  0  0  0  0  0  0  0  0  0
   -9.2730    7.1350   -2.3030 C   0  0  1  0  0  0  0  0  0  0  0  0
   -9.6150    8.5710   -2.8090 C   0  0  0  0  0  0  0  0  0  0  0  0
  -10.5030    6.4560   -1.6160 C   0  0  2  0  0  0  0  0  0  0  0  0
  -11.7580    6.3360   -2.4980 C   0  0  0  0  0  0  0  0  0  0  0  0
  -12.7050    7.4880   -2.4200 C   0  0  0  0  0  0  0  0  0  0  0  0
  -12.7030    8.4390   -1.4680 C   0  0  0  0  0  0  0  0  0  0  0  0
  -11.7390    8.3600   -0.2780 C   0  0  1  0  0  0  0  0  0  0  0  0
  -12.5120    8.6470    1.0360 C   0  0  0  0  0  0  0  0  0  0  0  0
  -13.2740    9.9680    0.9890 C   0  0  0  0  0  0  0  0  0  0  0  0
  -14.2640    9.9860   -0.1730 C   0  0  2  0  0  0  0  0  0  0  0  0
  -15.2870    9.0180    0.0790 O   0  0  0  0  0  0  0  0  0  0  0  0
  -13.6000    9.6990   -1.5480 C   0  0  0  0  0  0  0  0  0  0  0  0
  -12.7140   10.9010   -1.9600 C   0  0  0  0  0  0  0  0  0  0  0  0
  -14.7270    9.6060   -2.6120 C   0  0  0  0  0  0  0  0  0  0  0  0
  -10.8540    7.0420   -0.1890 C   0  0  1  0  0  0  0  0  0  0  0  0
  -11.6350    5.9270    0.5710 C   0  0  0  0  0  0  0  0  0  0  0  0
   -9.5670    7.3440    0.6670 C   0  0  0  0  0  0  0  0  0  0  0  0
   -8.3450    7.9010   -0.0890 C   0  0  0  0  0  0  0  0  0  0  0  0
   -8.0390    7.0600   -1.3320 C   0  0  2  0  0  0  0  0  0  0  0  0
   -7.6690    5.6150   -0.8520 C   0  0  0  0  0  0  0  0  0  0  0  0
   -5.1131    5.5082   -0.6846 H   0  0  0  0  0  0  0  0  0  0  0  0
   -5.9842    5.2829   -2.2393 H   0  0  0  0  0  0  0  0  0  0  0  0
   -4.2209    5.6257   -2.2393 H   0  0  0  0  0  0  0  0  0  0  0  0
   -4.7660    7.7819   -2.5067 H   0  0  0  0  0  0  0  0  0  0  0  0
   -6.1917    8.4478   -0.0872 H   0  0  0  0  0  0  0  0  0  0  0  0
   -4.8538    7.2510    0.2599 H   0  0  0  0  0  0  0  0  0  0  0  0
   -4.4852    9.8675   -1.2439 H   0  0  0  0  0  0  0  0  0  0  0  0
   -4.1553    9.6126    0.5206 H   0  0  0  0  0  0  0  0  0  0  0  0
   -3.2588    7.7371   -1.2992 H   0  0  0  0  0  0  0  0  0  0  0  0
   -1.8075   11.3813   -0.1290 H   0  0  0  0  0  0  0  0  0  0  0  0
   -0.9098   11.4256   -1.6843 H   0  0  0  0  0  0  0  0  0  0  0  0
   -2.6994   11.2708   -1.6843 H   0  0  0  0  0  0  0  0  0  0  0  0
    0.2509    8.5293   -1.1904 H   0  0  0  0  0  0  0  0  0  0  0  0
   -0.8687    8.0946   -2.5262 H   0  0  0  0  0  0  0  0  0  0  0  0
   -0.0481    9.6925   -2.5262 H   0  0  0  0  0  0  0  0  0  0  0  0
   -6.9062    8.6675   -2.2848 H   0  0  0  0  0  0  0  0  0  0  0  0
   -7.0748    7.5777   -4.4345 H   0  0  0  0  0  0  0  0  0  0  0  0
   -6.5389    6.0184   -3.7721 H   0  0  0  0  0  0  0  0  0  0  0  0
   -9.2307    6.6983   -4.4502 H   0  0  0  0  0  0  0  0  0  0  0  0
   -8.7821    5.3136   -3.4580 H   0  0  0  0  0  0  0  0  0  0  0  0
   -9.7733    9.2356   -1.9468 H   0  0  0  0  0  0  0  0  0  0  0  0
   -8.7827    8.9529   -3.4184 H   0  0  0  0  0  0  0  0  0  0  0  0
  -10.5301    8.5368   -3.4184 H   0  0  0  0  0  0  0  0  0  0  0  0
  -10.1474    5.4269   -1.4594 H   0  0  0  0  0  0  0  0  0  0  0  0
  -11.4305    6.2354   -3.5433 H   0  0  0  0  0  0  0  0  0  0  0  0
  -12.3107    5.4618   -2.1234 H   0  0  0  0  0  0  0  0  0  0  0  0
  -13.4690    7.5658   -3.2076 H   0  0  0  0  0  0  0  0  0  0  0  0
  -10.9850    9.1431   -0.4459 H   0  0  0  0  0  0  0  0  0  0  0  0
  -13.2299    7.8316    1.2082 H   0  0  0  0  0  0  0  0  0  0  0  0
  -11.7747    8.7152    1.8494 H   0  0  0  0  0  0  0  0  0  0  0  0
  -13.8239   10.1001    1.9325 H   0  0  0  0  0  0  0  0  0  0  0  0
  -12.5514   10.7852    0.8472 H   0  0  0  0  0  0  0  0  0  0  0  0
  -14.6835   11.0010   -0.2338 H   0  0  0  0  0  0  0  0  0  0  0  0
  -14.9760    8.4410    0.7960 H   0  0  0  0  0  0  0  0  0  0  0  0
  -12.3406   11.4076   -1.0578 H   0  0  0  0  0  0  0  0  0  0  0  0
  -11.8631   10.5416   -2.5574 H   0  0  0  0  0  0  0  0  0  0  0  0
  -13.3091   11.6074   -2.5574 H   0  0  0  0  0  0  0  0  0  0  0  0
  -15.7014    9.5256   -2.1079 H   0  0  0  0  0  0  0  0  0  0  0  0
  -14.7129   10.5084   -3.2409 H   0  0  0  0  0  0  0  0  0  0  0  0
  -14.5651    8.7182   -3.2409 H   0  0  0  0  0  0  0  0  0  0  0  0
  -11.5286    6.0788    1.6553 H   0  0  0  0  0  0  0  0  0  0  0  0
  -12.6993    5.9730    0.2970 H   0  0  0  0  0  0  0  0  0  0  0  0
  -11.2281    4.9425    0.2970 H   0  0  0  0  0  0  0  0  0  0  0  0
   -9.8446    8.0781    1.4377 H   0  0  0  0  0  0  0  0  0  0  0  0
   -9.2442    6.3671    1.0561 H   0  0  0  0  0  0  0  0  0  0  0  0
   -8.5538    8.9361   -0.3973 H   0  0  0  0  0  0  0  0  0  0  0  0
   -7.4730    7.8671    0.5807 H   0  0  0  0  0  0  0  0  0  0  0  0
   -7.6612    5.5846    0.2476 H   0  0  0  0  0  0  0  0  0  0  0  0
   -8.4131    4.9002   -1.2333 H   0  0  0  0  0  0  0  0  0  0  0  0
   -6.6729    5.3458   -1.2333 H   0  0  0  0  0  0  0  0  0  0  0  0
  1  2  1  0
  2  3  1  0
  3  4  1  0
  4  5  1  0
  5  6  1  0
  6  7  1  0
  7  8  1  0
  7  9  1  0
  2 10  1  0
 10 11  1  0
 11 12  1  0
 12 13  1  0
 13 14  1  6
 13 15  1  0
 15 16  1  0
 16 17  1  0
 17 18  2  0
 18 19  1  0
 19 20  1  0
 20 21  1  0
 21 22  1  0
 22 23  1  0
 22 24  1  0
 24 25  1  0
 24 26  1  0
 19 27  1  0
 27 28  1  1
 27 29  1  0
 29 30  1  0
 30 31  1  0
 31 32  1  1
  7  5  1  0
 31 10  1  0
 31 13  1  0
 27 15  1  0
 24 18  1  0
  1 33  1  0
  1 34  1  0
  1 35  1  0
  2 36  1  6
  3 37  1  0
  3 38  1  0
  4 39  1  0
  4 40  1  0
  5 41  1  6
  8 42  1  0
  8 43  1  0
  8 44  1  0
  9 45  1  0
  9 46  1  0
  9 47  1  0
 10 48  1  6
 11 49  1  0
 11 50  1  0
 12 51  1  0
 12 52  1  0
 14 53  1  0
 14 54  1  0
 14 55  1  0
 15 56  1  1
 16 57  1  0
 16 58  1  0
 17 59  1  0
 19 60  1  6
 20 61  1  0
 20 62  1  0
 21 63  1  0
 21 64  1  0
 22 65  1  6
 23 66  1  0
 25 67  1  0
 25 68  1  0
 25 69  1  0
 26 70  1  0
 26 71  1  0
 26 72  1  0
 28 73  1  0
 28 74  1  0
 28 75  1  0
 29 76  1  0
 29 77  1  0
 30 78  1  0
 30 79  1  0
 32 80  1  0
 32 81  1  0
 32 82  1  0
M  END
>  <meeko>  (1) 
{"is_sidechain": [false], "intermolecular_energy": 2.731, "internal_energy": -0.839}

$$$$
EPH_relaxed_0001_pdb2pqr_Repair_199_r2_0001_out
     RDKit          3D

 82 86  0  0  0  0  0  0  0  0999 V2000
   -5.0240    8.5190   -0.4850 C   0  0  0  0  0  0  0  0  0  0  0  0
   -5.3530    7.4420   -1.5230 C   0  0  2  0  0  0  0  0  0  0  0  0
   -4.3480    7.4350   -2.6920 C   0  0  0  0  0  0  0  0  0  0  0  0
   -2.9110    7.1220   -2.2650 C   0  0  0  0  0  0  0  0  0  0  0  0
   -1.9590    8.1980   -2.6930 C   0  0  2  0  0  0  0  0  0  0  0  0
   -0.5950    7.9780   -2.3090 O   0  0  0  0  0  0  0  0  0  0  0  0
   -1.2440    9.1170   -1.7210 C   0  0  0  0  0  0  0  0  0  0  0  0
   -1.4520    9.0040   -0.2430 C   0  0  0  0  0  0  0  0  0  0  0  0
   -0.7300   10.4300   -2.2240 C   0  0  0  0  0  0  0  0  0  0  0  0
   -6.7670    7.6470   -2.0530 C   0  0  1  0  0  0  0  0  0  0  0  0
   -6.9970    6.9550   -3.4230 C   0  0  0  0  0  0  0  0  0  0  0  0
   -8.4650    6.4560   -3.4310 C   0  0  0  0  0  0  0  0  0  0  0  0
   -9.1230    7.1600   -2.2210 C   0  0  1  0  0  0  0  0  0  0  0  0
   -9.4740    8.5920   -2.7320 C   0  0  0  0  0  0  0  0  0  0  0  0
  -10.3680    6.4470   -1.6000 C   0  0  2  0  0  0  0  0  0  0  0  0
  -11.5770    6.3060   -2.5420 C   0  0  0  0  0  0  0  0  0  0  0  0
  -12.5530    7.4350   -2.5010 C   0  0  0  0  0  0  0  0  0  0  0  0
  -12.6180    8.3770   -1.5430 C   0  0  0  0  0  0  0  0  0  0  0  0
  -11.7110    8.3100   -0.3080 C   0  0  1  0  0  0  0  0  0  0  0  0
  -12.5530    8.5680    0.9690 C   0  0  0  0  0  0  0  0  0  0  0  0
  -13.3430    9.8720    0.8950 C   0  0  0  0  0  0  0  0  0  0  0  0
  -14.2760    9.8770   -0.3130 C   0  0  2  0  0  0  0  0  0  0  0  0
  -15.2870    8.8830   -0.1180 O   0  0  0  0  0  0  0  0  0  0  0  0
  -13.5400    9.6170   -1.6570 C   0  0  0  0  0  0  0  0  0  0  0  0
  -12.6640   10.8420   -2.0160 C   0  0  0  0  0  0  0  0  0  0  0  0
  -14.6120    9.5070   -2.7750 C   0  0  0  0  0  0  0  0  0  0  0  0
  -10.8010    7.0130   -0.1870 C   0  0  1  0  0  0  0  0  0  0  0  0
  -11.5910    5.8730    0.5260 C   0  0  0  0  0  0  0  0  0  0  0  0
   -9.5640    7.3360    0.7320 C   0  0  0  0  0  0  0  0  0  0  0  0
   -8.3210    7.9280    0.0410 C   0  0  0  0  0  0  0  0  0  0  0  0
   -7.9350    7.1050   -1.1920 C   0  0  2  0  0  0  0  0  0  0  0  0
   -7.5550    5.6650   -0.7070 C   0  0  0  0  0  0  0  0  0  0  0  0
   -5.1506    8.1046    0.5261 H   0  0  0  0  0  0  0  0  0  0  0  0
   -3.9836    8.8506   -0.6178 H   0  0  0  0  0  0  0  0  0  0  0  0
   -5.7015    9.3754   -0.6178 H   0  0  0  0  0  0  0  0  0  0  0  0
   -5.2814    6.4658   -1.0211 H   0  0  0  0  0  0  0  0  0  0  0  0
   -4.6674    6.6751   -3.4203 H   0  0  0  0  0  0  0  0  0  0  0  0
   -4.3435    8.4488   -3.1188 H   0  0  0  0  0  0  0  0  0  0  0  0
   -2.8765    7.0305   -1.1694 H   0  0  0  0  0  0  0  0  0  0  0  0
   -2.6064    6.1821   -2.7486 H   0  0  0  0  0  0  0  0  0  0  0  0
   -2.5545    8.3986   -3.5959 H   0  0  0  0  0  0  0  0  0  0  0  0
   -0.6031    9.4652    0.2831 H   0  0  0  0  0  0  0  0  0  0  0  0
   -2.3816    9.5211    0.0371 H   0  0  0  0  0  0  0  0  0  0  0  0
   -1.5241    7.9427    0.0371 H   0  0  0  0  0  0  0  0  0  0  0  0
   -0.4771   11.0761   -1.3704 H   0  0  0  0  0  0  0  0  0  0  0  0
    0.1687   10.2619   -2.8356 H   0  0  0  0  0  0  0  0  0  0  0  0
   -1.5040   10.9168   -2.8356 H   0  0  0  0  0  0  0  0  0  0  0  0
   -6.7973    8.7463   -2.0777 H   0  0  0  0  0  0  0  0  0  0  0  0
   -6.8362    7.6722   -4.2414 H   0  0  0  0  0  0  0  0  0  0  0  0
   -6.2952    6.1202   -3.5667 H   0  0  0  0  0  0  0  0  0  0  0  0
   -8.9673    6.7420   -4.3669 H   0  0  0  0  0  0  0  0  0  0  0  0
   -8.5335    5.3602   -3.3640 H   0  0  0  0  0  0  0  0  0  0  0  0
   -9.6373    9.2583   -1.8722 H   0  0  0  0  0  0  0  0  0  0  0  0
   -8.6437    8.9774   -3.3420 H   0  0  0  0  0  0  0  0  0  0  0  0
  -10.3884    8.5497   -3.3420 H   0  0  0  0  0  0  0  0  0  0  0  0
   -9.9961    5.4250   -1.4353 H   0  0  0  0  0  0  0  0  0  0  0  0
  -11.1979    6.2218   -3.5712 H   0  0  0  0  0  0  0  0  0  0  0  0
  -12.1265    5.4164   -2.2005 H   0  0  0  0  0  0  0  0  0  0  0  0
  -13.2803    7.5022   -3.3235 H   0  0  0  0  0  0  0  0  0  0  0  0
  -10.9683    9.1118   -0.4325 H   0  0  0  0  0  0  0  0  0  0  0  0
  -13.2591    7.7348    1.1002 H   0  0  0  0  0  0  0  0  0  0  0  0
  -11.8575    8.6464    1.8176 H   0  0  0  0  0  0  0  0  0  0  0  0
  -13.9406    9.9834    1.8118 H   0  0  0  0  0  0  0  0  0  0  0  0
  -12.6338   10.7068    0.7942 H   0  0  0  0  0  0  0  0  0  0  0  0
  -14.7158   10.8826   -0.3862 H   0  0  0  0  0  0  0  0  0  0  0  0
  -15.0550    8.1150   -0.6670 H   0  0  0  0  0  0  0  0  0  0  0  0
  -12.3166   11.3277   -1.0922 H   0  0  0  0  0  0  0  0  0  0  0  0
  -11.7959   10.5119   -2.6054 H   0  0  0  0  0  0  0  0  0  0  0  0
  -13.2570   11.5567   -2.6054 H   0  0  0  0  0  0  0  0  0  0  0  0
  -15.6079    9.4048   -2.3193 H   0  0  0  0  0  0  0  0  0  0  0  0
  -14.5854   10.4126   -3.3989 H   0  0  0  0  0  0  0  0  0  0  0  0
  -14.4021    8.6257   -3.3989 H   0  0  0  0  0  0  0  0  0  0  0  0
  -11.5067    5.9947    1.6160 H   0  0  0  0  0  0  0  0  0  0  0  0
  -12.6500    5.9217    0.2325 H   0  0  0  0  0  0  0  0  0  0  0  0
  -11.1736    4.8985    0.2325 H   0  0  0  0  0  0  0  0  0  0  0  0
   -9.8952    8.0560    1.4949 H   0  0  0  0  0  0  0  0  0  0  0  0
   -9.2374    6.3629    1.1274 H   0  0  0  0  0  0  0  0  0  0  0  0
   -8.5393    8.9605   -0.2694 H   0  0  0  0  0  0  0  0  0  0  0  0
   -7.4820    7.9090    0.7521 H   0  0  0  0  0  0  0  0  0  0  0  0
   -7.5480    5.6384    0.3927 H   0  0  0  0  0  0  0  0  0  0  0  0
   -8.2935    4.9435   -1.0865 H   0  0  0  0  0  0  0  0  0  0  0  0
   -6.5567    5.4018   -1.0865 H   0  0  0  0  0  0  0  0  0  0  0  0
  1  2  1  0
  2  3  1  0
  3  4  1  0
  4  5  1  0
  5  6  1  0
  6  7  1  0
  7  8  1  0
  7  9  1  0
  2 10  1  0
 10 11  1  0
 11 12  1  0
 12 13  1  0
 13 14  1  6
 13 15  1  0
 15 16  1  0
 16 17  1  0
 17 18  2  0
 18 19  1  0
 19 20  1  0
 20 21  1  0
 21 22  1  0
 22 23  1  0
 22 24  1  0
 24 25  1  0
 24 26  1  0
 19 27  1  0
 27 28  1  1
 27 29  1  0
 29 30  1  0
 30 31  1  0
 31 32  1  1
  7  5  1  0
 31 10  1  0
 31 13  1  0
 27 15  1  0
 24 18  1  0
  1 33  1  0
  1 34  1  0
  1 35  1  0
  2 36  1  1
  3 37  1  0
  3 38  1  0
  4 39  1  0
  4 40  1  0
  5 41  1  6
  8 42  1  0
  8 43  1  0
  8 44  1  0
  9 45  1  0
  9 46  1  0
  9 47  1  0
 10 48  1  6
 11 49  1  0
 11 50  1  0
 12 51  1  0
 12 52  1  0
 14 53  1  0
 14 54  1  0
 14 55  1  0
 15 56  1  1
 16 57  1  0
 16 58  1  0
 17 59  1  0
 19 60  1  6
 20 61  1  0
 20 62  1  0
 21 63  1  0
 21 64  1  0
 22 65  1  6
 23 66  1  0
 25 67  1  0
 25 68  1  0
 25 69  1  0
 26 70  1  0
 26 71  1  0
 26 72  1  0
 28 73  1  0
 28 74  1  0
 28 75  1  0
 29 76  1  0
 29 77  1  0
 30 78  1  0
 30 79  1  0
 32 80  1  0
 32 81  1  0
 32 82  1  0
M  END
>  <meeko>  (2) 
{"is_sidechain": [false], "intermolecular_energy": 2.731, "internal_energy": -0.839}

$$$$
EPH_relaxed_0001_pdb2pqr_Repair_199_r2_0001_out
     RDKit          3D

 82 86  0  0  0  0  0  0  0  0999 V2000
    4.1980   17.3330   -0.0540 C   0  0  0  0  0  0  0  0  0  0  0  0
    2.8180   17.9810    0.0810 C   0  0  2  0  0  0  0  0  0  0  0  0
    2.6420   18.6980    1.4350 C   0  0  0  0  0  0  0  0  0  0  0  0
    3.8200   19.6010    1.8100 C   0  0  0  0  0  0  0  0  0  0  0  0
    4.4430   19.1890    3.1090 C   0  0  2  0  0  0  0  0  0  0  0  0
    5.2610   20.1920    3.7260 O   0  0  0  0  0  0  0  0  0  0  0  0
    5.9370   18.9990    3.2980 C   0  0  0  0  0  0  0  0  0  0  0  0
    6.8990   19.2150    2.1720 C   0  0  0  0  0  0  0  0  0  0  0  0
    6.4110   18.1370    4.4260 C   0  0  0  0  0  0  0  0  0  0  0  0
    1.7290   16.9290   -0.0960 C   0  0  1  0  0  0  0  0  0  0  0  0
    0.3400   17.5510   -0.3960 C   0  0  0  0  0  0  0  0  0  0  0  0
   -0.3840   16.5830   -1.3670 C   0  0  0  0  0  0  0  0  0  0  0  0
    0.4640   15.2900   -1.3320 C   0  0  1  0  0  0  0  0  0  0  0  0
    0.0020   14.5420   -0.0420 C   0  0  0  0  0  0  0  0  0  0  0  0
    0.3760   14.3710   -2.5940 C   0  0  2  0  0  0  0  0  0  0  0  0
   -1.0200   13.7920   -2.8840 C   0  0  0  0  0  0  0  0  0  0  0  0
   -1.3070   12.4720   -2.2490 C   0  0  0  0  0  0  0  0  0  0  0  0
   -0.3890   11.6450   -1.7150 C   0  0  0  0  0  0  0  0  0  0  0  0
    1.1080   11.9670   -1.8040 C   0  0  1  0  0  0  0  0  0  0  0  0
    1.8850   10.7000   -2.2500 C   0  0  0  0  0  0  0  0  0  0  0  0
    1.5990    9.4950   -1.3590 C   0  0  0  0  0  0  0  0  0  0  0  0
    0.1080    9.1700   -1.3430 C   0  0  2  0  0  0  0  0  0  0  0  0
   -0.2810    8.7240   -2.6460 O   0  0  0  0  0  0  0  0  0  0  0  0
   -0.7770   10.3750   -0.9170 C   0  0  0  0  0  0  0  0  0  0  0  0
   -0.5710   10.6660    0.5900 C   0  0  0  0  0  0  0  0  0  0  0  0
   -2.2630    9.9570   -1.0790 C   0  0  0  0  0  0  0  0  0  0  0  0
    1.4920   13.2500   -2.6590 C   0  0  1  0  0  0  0  0  0  0  0  0
    1.6460   12.8620   -4.1610 C   0  0  0  0  0  0  0  0  0  0  0  0
    2.8990   13.7790   -2.1900 C   0  0  0  0  0  0  0  0  0  0  0  0
    2.9110   14.7760   -1.0160 C   0  0  0  0  0  0  0  0  0  0  0  0
    1.9070   15.9090   -1.2490 C   0  0  2  0  0  0  0  0  0  0  0  0
    2.3580   16.6930   -2.5280 C   0  0  0  0  0  0  0  0  0  0  0  0
    4.6114   17.1389    0.9467 H   0  0  0  0  0  0  0  0  0  0  0  0
    4.1055   16.3842   -0.6029 H   0  0  0  0  0  0  0  0  0  0  0  0
    4.8690   18.0102   -0.6029 H   0  0  0  0  0  0  0  0  0  0  0  0
    2.7322   18.7416   -0.7090 H   0  0  0  0  0  0  0  0  0  0  0  0
    1.7329   19.3154    1.3856 H   0  0  0  0  0  0  0  0  0  0  0  0
    2.5769   17.9168    2.2067 H   0  0  0  0  0  0  0  0  0  0  0  0
    4.5796   19.5439    1.0164 H   0  0  0  0  0  0  0  0  0  0  0  0
    3.4426   20.6282    1.9214 H   0  0  0  0  0  0  0  0  0  0  0  0
    3.5817   18.5468    3.3450 H   0  0  0  0  0  0  0  0  0  0  0  0
    7.8960   19.4389    2.5793 H   0  0  0  0  0  0  0  0  0  0  0  0
    6.9508   18.3061    1.5545 H   0  0  0  0  0  0  0  0  0  0  0  0
    6.5573   20.0588    1.5545 H   0  0  0  0  0  0  0  0  0  0  0  0
    6.1505   18.6107    5.3840 H   0  0  0  0  0  0  0  0  0  0  0  0
    5.9284   17.1506    4.3615 H   0  0  0  0  0  0  0  0  0  0  0  0
    7.5024   18.0161    4.3615 H   0  0  0  0  0  0  0  0  0  0  0  0
    1.8073   16.4174    0.8747 H   0  0  0  0  0  0  0  0  0  0  0  0
   -0.2370   17.6557    0.5346 H   0  0  0  0  0  0  0  0  0  0  0  0
    0.4434   18.5518   -0.8406 H   0  0  0  0  0  0  0  0  0  0  0  0
   -1.4100   16.3841   -1.0239 H   0  0  0  0  0  0  0  0  0  0  0  0
   -0.4711   16.9977   -2.3821 H   0  0  0  0  0  0  0  0  0  0  0  0
    0.3438   15.0954    0.8451 H   0  0  0  0  0  0  0  0  0  0  0  0
   -1.0958   14.4737   -0.0310 H   0  0  0  0  0  0  0  0  0  0  0  0
    0.4325   13.5298   -0.0310 H   0  0  0  0  0  0  0  0  0  0  0  0
    0.5830   15.0753   -3.4132 H   0  0  0  0  0  0  0  0  0  0  0  0
   -1.7686   14.5127   -2.5232 H   0  0  0  0  0  0  0  0  0  0  0  0
   -1.0596   13.6224   -3.9701 H   0  0  0  0  0  0  0  0  0  0  0  0
   -2.3575   12.1476   -2.2145 H   0  0  0  0  0  0  0  0  0  0  0  0
    1.4170   12.2566   -0.7888 H   0  0  0  0  0  0  0  0  0  0  0  0
    1.5941   10.4528   -3.2816 H   0  0  0  0  0  0  0  0  0  0  0  0
    2.9595   10.9234   -2.1751 H   0  0  0  0  0  0  0  0  0  0  0  0
    2.1530    8.6250   -1.7414 H   0  0  0  0  0  0  0  0  0  0  0  0
    1.9174    9.7333   -0.3334 H   0  0  0  0  0  0  0  0  0  0  0  0
   -0.0501    8.3833   -0.5906 H   0  0  0  0  0  0  0  0  0  0  0  0
   -0.9030    9.3780   -3.0070 H   0  0  0  0  0  0  0  0  0  0  0  0
   -1.1053    9.9112    1.1856 H   0  0  0  0  0  0  0  0  0  0  0  0
    0.5024   10.6278    0.8274 H   0  0  0  0  0  0  0  0  0  0  0  0
   -0.9637   11.6657    0.8274 H   0  0  0  0  0  0  0  0  0  0  0  0
   -2.7182    9.8289   -0.0858 H   0  0  0  0  0  0  0  0  0  0  0  0
   -2.8051   10.7375   -1.6330 H   0  0  0  0  0  0  0  0  0  0  0  0
   -2.3187    9.0083   -1.6330 H   0  0  0  0  0  0  0  0  0  0  0  0
    2.0508   11.8420   -4.2366 H   0  0  0  0  0  0  0  0  0  0  0  0
    0.6631   12.9038   -4.6531 H   0  0  0  0  0  0  0  0  0  0  0  0
    2.3327   13.5664   -4.6531 H   0  0  0  0  0  0  0  0  0  0  0  0
    3.4997   12.9070   -1.8920 H   0  0  0  0  0  0  0  0  0  0  0  0
    3.2955   14.3410   -3.0484 H   0  0  0  0  0  0  0  0  0  0  0  0
    2.6457   14.2448   -0.0900 H   0  0  0  0  0  0  0  0  0  0  0  0
    3.9182   15.2108   -0.9352 H   0  0  0  0  0  0  0  0  0  0  0  0
    2.8858   17.6105   -2.2286 H   0  0  0  0  0  0  0  0  0  0  0  0
    3.0310   16.0617   -3.1268 H   0  0  0  0  0  0  0  0  0  0  0  0
    1.4739   16.9574   -3.1268 H   0  0  0  0  0  0  0  0  0  0  0  0
  1  2  1  0
  2  3  1  0
  3  4  1  0
  4  5  1  0
  5  6  1  0
  6  7  1  0
  7  8  1  0
  7  9  1  0
  2 10  1  0
 10 11  1  0
 11 12  1  0
 12 13  1  0
 13 14  1  1
 13 15  1  0
 15 16  1  0
 16 17  1  0
 17 18  2  0
 18 19  1  0
 19 20  1  0
 20 21  1  0
 21 22  1  0
 22 23  1  0
 22 24  1  0
 24 25  1  0
 24 26  1  0
 19 27  1  0
 27 28  1  6
 27 29  1  0
 29 30  1  0
 30 31  1  0
 31 32  1  6
  7  5  1  0
 31 10  1  0
 31 13  1  0
 27 15  1  0
 24 18  1  0
  1 33  1  0
  1 34  1  0
  1 35  1  0
  2 36  1  6
  3 37  1  0
  3 38  1  0
  4 39  1  0
  4 40  1  0
  5 41  1  1
  8 42  1  0
  8 43  1  0
  8 44  1  0
  9 45  1  0
  9 46  1  0
  9 47  1  0
 10 48  1  1
 11 49  1  0
 11 50  1  0
 12 51  1  0
 12 52  1  0
 14 53  1  0
 14 54  1  0
 14 55  1  0
 15 56  1  6
 16 57  1  0
 16 58  1  0
 17 59  1  0
 19 60  1  1
 20 61  1  0
 20 62  1  0
 21 63  1  0
 21 64  1  0
 22 65  1  1
 23 66  1  0
 25 67  1  0
 25 68  1  0
 25 69  1  0
 26 70  1  0
 26 71  1  0
 26 72  1  0
 28 73  1  0
 28 74  1  0
 28 75  1  0
 29 76  1  0
 29 77  1  0
 30 78  1  0
 30 79  1  0
 32 80  1  0
 32 81  1  0
 32 82  1  0
M  END
>  <meeko>  (3) 
{"is_sidechain": [false], "intermolecular_energy": 2.731, "internal_energy": -0.839}

$$$$
EPH_relaxed_0001_pdb2pqr_Repair_199_r2_0001_out
     RDKit          3D

 82 86  0  0  0  0  0  0  0  0999 V2000
    2.2670   20.0530   -1.6340 C   0  0  0  0  0  0  0  0  0  0  0  0
    1.9520   19.5600   -0.2190 C   0  0  2  0  0  0  0  0  0  0  0  0
    3.0360   19.9770    0.7960 C   0  0  0  0  0  0  0  0  0  0  0  0
    3.8760   18.8070    1.3140 C   0  0  0  0  0  0  0  0  0  0  0  0
    4.1760   18.9450    2.7760 C   0  0  2  0  0  0  0  0  0  0  0  0
    4.7750   20.1920    3.1500 O   0  0  0  0  0  0  0  0  0  0  0  0
    5.5830   19.0190    3.3380 C   0  0  0  0  0  0  0  0  0  0  0  0
    6.7840   18.9570    2.4470 C   0  0  0  0  0  0  0  0  0  0  0  0
    5.7990   18.6610    4.7760 C   0  0  0  0  0  0  0  0  0  0  0  0
    1.7950   18.0440   -0.2200 C   0  0  1  0  0  0  0  0  0  0  0  0
    0.9620   17.5290    0.9840 C   0  0  0  0  0  0  0  0  0  0  0  0
    0.1510   16.3080    0.4780 C   0  0  0  0  0  0  0  0  0  0  0  0
    0.7860   15.9580   -0.8890 C   0  0  1  0  0  0  0  0  0  0  0  0
    2.0590   15.1260   -0.5380 C   0  0  0  0  0  0  0  0  0  0  0  0
   -0.1340   15.2060   -1.9050 C   0  0  2  0  0  0  0  0  0  0  0  0
   -0.6140   13.8180   -1.4470 C   0  0  0  0  0  0  0  0  0  0  0  0
    0.2690   12.6780   -1.8320 C   0  0  0  0  0  0  0  0  0  0  0  0
    1.2480   12.7240   -2.7560 C   0  0  0  0  0  0  0  0  0  0  0  0
    1.4820   13.9880   -3.5930 C   0  0  1  0  0  0  0  0  0  0  0  0
    1.6470   13.5980   -5.0850 C   0  0  0  0  0  0  0  0  0  0  0  0
    2.7330   12.5480   -5.2980 C   0  0  0  0  0  0  0  0  0  0  0  0
    2.4350   11.2840   -4.4950 C   0  0  2  0  0  0  0  0  0  0  0  0
    1.2610   10.6650   -5.0290 O   0  0  0  0  0  0  0  0  0  0  0  0
    2.2390   11.5550   -2.9770 C   0  0  0  0  0  0  0  0  0  0  0  0
    3.5950   11.9400   -2.3370 C   0  0  0  0  0  0  0  0  0  0  0  0
    1.8050   10.2230   -2.3070 C   0  0  0  0  0  0  0  0  0  0  0  0
    0.4320   15.1630   -3.3820 C   0  0  1  0  0  0  0  0  0  0  0  0
   -0.7940   14.9570   -4.3230 C   0  0  0  0  0  0  0  0  0  0  0  0
    1.0950   16.5270   -3.8090 C   0  0  0  0  0  0  0  0  0  0  0  0
    1.8900   17.2810   -2.7270 C   0  0  0  0  0  0  0  0  0  0  0  0
    1.0780   17.4040   -1.4340 C   0  0  2  0  0  0  0  0  0  0  0  0
   -0.1990   18.2550   -1.7510 C   0  0  0  0  0  0  0  0  0  0  0  0
    2.8585   20.9787   -1.5766 H   0  0  0  0  0  0  0  0  0  0  0  0
    2.8413   19.2837   -2.1710 H   0  0  0  0  0  0  0  0  0  0  0  0
    1.3276   20.2508   -2.1710 H   0  0  0  0  0  0  0  0  0  0  0  0
    1.0085   20.0313    0.0935 H   0  0  0  0  0  0  0  0  0  0  0  0
    3.7085   20.6987    0.3092 H   0  0  0  0  0  0  0  0  0  0  0  0
    2.5153   20.4081    1.6638 H   0  0  0  0  0  0  0  0  0  0  0  0
    3.3224   17.8706    1.1504 H   0  0  0  0  0  0  0  0  0  0  0  0
    4.8303   18.8011    0.7670 H   0  0  0  0  0  0  0  0  0  0  0  0
    3.3094   18.3194    3.0362 H   0  0  0  0  0  0  0  0  0  0  0  0
    7.6948   18.9100    3.0620 H   0  0  0  0  0  0  0  0  0  0  0  0
    6.7236   18.0608    1.8121 H   0  0  0  0  0  0  0  0  0  0  0  0
    6.8162   19.8547    1.8121 H   0  0  0  0  0  0  0  0  0  0  0  0
    5.3374   19.4260    5.4176 H   0  0  0  0  0  0  0  0  0  0  0  0
    5.3401   17.6830    4.9833 H   0  0  0  0  0  0  0  0  0  0  0  0
    6.8781   18.6110    4.9833 H   0  0  0  0  0  0  0  0  0  0  0  0
    2.8547   17.7492   -0.2110 H   0  0  0  0  0  0  0  0  0  0  0  0
    1.6293   17.2267    1.8045 H   0  0  0  0  0  0  0  0  0  0  0  0
    0.2945   18.3149    1.3672 H   0  0  0  0  0  0  0  0  0  0  0  0
    0.2435   15.4636    1.1769 H   0  0  0  0  0  0  0  0  0  0  0  0
   -0.9240   16.5261    0.3953 H   0  0  0  0  0  0  0  0  0  0  0  0
    2.1628   15.0581    0.5550 H   0  0  0  0  0  0  0  0  0  0  0  0
    1.9643   14.1149   -0.9608 H   0  0  0  0  0  0  0  0  0  0  0  0
    2.9470   15.6186   -0.9608 H   0  0  0  0  0  0  0  0  0  0  0  0
   -1.0320   15.8410   -1.9250 H   0  0  0  0  0  0  0  0  0  0  0  0
   -0.6932   13.8309   -0.3499 H   0  0  0  0  0  0  0  0  0  0  0  0
   -1.5734   13.6448   -1.9565 H   0  0  0  0  0  0  0  0  0  0  0  0
    0.1066   11.7193   -1.3177 H   0  0  0  0  0  0  0  0  0  0  0  0
    2.4157   14.4326   -3.2182 H   0  0  0  0  0  0  0  0  0  0  0  0
    0.6911   13.1963   -5.4524 H   0  0  0  0  0  0  0  0  0  0  0  0
    1.9442   14.5025   -5.6359 H   0  0  0  0  0  0  0  0  0  0  0  0
    2.7819   12.2924   -6.3668 H   0  0  0  0  0  0  0  0  0  0  0  0
    3.6934   12.9621   -4.9572 H   0  0  0  0  0  0  0  0  0  0  0  0
    3.3088   10.6219   -4.5850 H   0  0  0  0  0  0  0  0  0  0  0  0
    0.7940   10.2350   -4.2930 H   0  0  0  0  0  0  0  0  0  0  0  0
    3.5037   11.9141   -1.2411 H   0  0  0  0  0  0  0  0  0  0  0  0
    4.3677   11.2257   -2.6576 H   0  0  0  0  0  0  0  0  0  0  0  0
    3.8771   12.9537   -2.6576 H   0  0  0  0  0  0  0  0  0  0  0  0
    1.8411   10.3339   -1.2132 H   0  0  0  0  0  0  0  0  0  0  0  0
    0.7793    9.9740   -2.6166 H   0  0  0  0  0  0  0  0  0  0  0  0
    2.4872    9.4175   -2.6166 H   0  0  0  0  0  0  0  0  0  0  0  0
   -1.6996   14.8048   -3.7174 H   0  0  0  0  0  0  0  0  0  0  0  0
   -0.9225   15.8461   -4.9578 H   0  0  0  0  0  0  0  0  0  0  0  0
   -0.6249   14.0747   -4.9578 H   0  0  0  0  0  0  0  0  0  0  0  0
    1.7827   16.3166   -4.6413 H   0  0  0  0  0  0  0  0  0  0  0  0
    0.2539   17.1892   -4.0622 H   0  0  0  0  0  0  0  0  0  0  0  0
    2.8202   16.7328   -2.5167 H   0  0  0  0  0  0  0  0  0  0  0  0
    2.1136   18.2923   -3.0976 H   0  0  0  0  0  0  0  0  0  0  0  0
   -0.6724   18.5705   -0.8095 H   0  0  0  0  0  0  0  0  0  0  0  0
    0.0875   19.1433   -2.3330 H   0  0  0  0  0  0  0  0  0  0  0  0
   -0.9086   17.6486   -2.3330 H   0  0  0  0  0  0  0  0  0  0  0  0
  1  2  1  0
  2  3  1  0
  3  4  1  0
  4  5  1  0
  5  6  1  0
  6  7  1  0
  7  8  1  0
  7  9  1  0
  2 10  1  0
 10 11  1  0
 11 12  1  0
 12 13  1  0
 13 14  1  1
 13 15  1  0
 15 16  1  0
 16 17  1  0
 17 18  2  0
 18 19  1  0
 19 20  1  0
 20 21  1  0
 21 22  1  0
 22 23  1  0
 22 24  1  0
 24 25  1  0
 24 26  1  0
 19 27  1  0
 27 28  1  6
 27 29  1  0
 29 30  1  0
 30 31  1  0
 31 32  1  6
  7  5  1  0
 31 10  1  0
 31 13  1  0
 27 15  1  0
 24 18  1  0
  1 33  1  0
  1 34  1  0
  1 35  1  0
  2 36  1  1
  3 37  1  0
  3 38  1  0
  4 39  1  0
  4 40  1  0
  5 41  1  1
  8 42  1  0
  8 43  1  0
  8 44  1  0
  9 45  1  0
  9 46  1  0
  9 47  1  0
 10 48  1  1
 11 49  1  0
 11 50  1  0
 12 51  1  0
 12 52  1  0
 14 53  1  0
 14 54  1  0
 14 55  1  0
 15 56  1  6
 16 57  1  0
 16 58  1  0
 17 59  1  0
 19 60  1  1
 20 61  1  0
 20 62  1  0
 21 63  1  0
 21 64  1  0
 22 65  1  1
 23 66  1  0
 25 67  1  0
 25 68  1  0
 25 69  1  0
 26 70  1  0
 26 71  1  0
 26 72  1  0
 28 73  1  0
 28 74  1  0
 28 75  1  0
 29 76  1  0
 29 77  1  0
 30 78  1  0
 30 79  1  0
 32 80  1  0
 32 81  1  0
 32 82  1  0
M  END
>  <meeko>  (4) 
{"is_sidechain": [false], "intermolecular_energy": 2.731, "internal_energy": -0.839}

$$$$
EPH_relaxed_0001_pdb2pqr_Repair_199_r2_0001_out
     RDKit          3D

 82 86  0  0  0  0  0  0  0  0999 V2000
    3.8640   17.2810    0.0340 C   0  0  0  0  0  0  0  0  0  0  0  0
    2.8810   17.4990   -1.1200 C   0  0  2  0  0  0  0  0  0  0  0  0
    2.2940   18.9250   -1.1220 C   0  0  0  0  0  0  0  0  0  0  0  0
    1.8000   19.3880    0.2510 C   0  0  0  0  0  0  0  0  0  0  0  0
    0.3990   19.9160    0.1870 C   0  0  2  0  0  0  0  0  0  0  0  0
   -0.1950   20.1940    1.4620 O   0  0  0  0  0  0  0  0  0  0  0  0
   -0.8080   19.1470    0.6920 C   0  0  0  0  0  0  0  0  0  0  0  0
   -0.6690   17.7850    1.2970 C   0  0  0  0  0  0  0  0  0  0  0  0
   -2.1600   19.5050    0.1570 C   0  0  0  0  0  0  0  0  0  0  0  0
    1.7570   16.4730   -1.0470 C   0  0  1  0  0  0  0  0  0  0  0  0
    0.3810   17.0620   -1.4580 C   0  0  0  0  0  0  0  0  0  0  0  0
   -0.3920   15.9310   -2.1820 C   0  0  0  0  0  0  0  0  0  0  0  0
    0.4150   14.6480   -1.8750 C   0  0  1  0  0  0  0  0  0  0  0  0
   -0.0430   14.2180   -0.4450 C   0  0  0  0  0  0  0  0  0  0  0  0
    0.2720   13.4780   -2.9020 C   0  0  2  0  0  0  0  0  0  0  0  0
   -1.1470   12.9000   -3.0390 C   0  0  0  0  0  0  0  0  0  0  0  0
   -1.4630   11.7620   -2.1260 C   0  0  0  0  0  0  0  0  0  0  0  0
   -0.5600   11.0400   -1.4350 C   0  0  0  0  0  0  0  0  0  0  0  0
    0.9440   11.2820   -1.6130 C   0  0  1  0  0  0  0  0  0  0  0  0
    1.6710    9.9210   -1.7800 C   0  0  0  0  0  0  0  0  0  0  0  0
    1.3660    8.9520   -0.6420 C   0  0  0  0  0  0  0  0  0  0  0  0
   -0.1340    8.6920   -0.5340 C   0  0  2  0  0  0  0  0  0  0  0  0
   -0.5640    7.9840   -1.7010 O   0  0  0  0  0  0  0  0  0  0  0  0
   -0.9710    9.9910   -0.3720 C   0  0  0  0  0  0  0  0  0  0  0  0
   -0.7250   10.5980    1.0310 C   0  0  0  0  0  0  0  0  0  0  0  0
   -2.4730    9.6000   -0.4180 C   0  0  0  0  0  0  0  0  0  0  0  0
    1.3500   12.3320   -2.7340 C   0  0  1  0  0  0  0  0  0  0  0  0
    1.4600   11.6190   -4.1160 C   0  0  0  0  0  0  0  0  0  0  0  0
    2.7820   12.9000   -2.4120 C   0  0  0  0  0  0  0  0  0  0  0  0
    2.8500   14.1300   -1.4860 C   0  0  0  0  0  0  0  0  0  0  0  0
    1.8780   15.2190   -1.9490 C   0  0  2  0  0  0  0  0  0  0  0  0
    2.3270   15.6870   -3.3750 C   0  0  0  0  0  0  0  0  0  0  0  0
    3.3364   17.3980    0.9921 H   0  0  0  0  0  0  0  0  0  0  0  0
    4.2863   16.2674   -0.0306 H   0  0  0  0  0  0  0  0  0  0  0  0
    4.6753   18.0211   -0.0306 H   0  0  0  0  0  0  0  0  0  0  0  0
    3.4400   17.3712   -2.0587 H   0  0  0  0  0  0  0  0  0  0  0  0
    3.0740   19.6214   -1.4636 H   0  0  0  0  0  0  0  0  0  0  0  0
    1.4208   18.9127   -1.7909 H   0  0  0  0  0  0  0  0  0  0  0  0
    1.8284   18.5359    0.9460 H   0  0  0  0  0  0  0  0  0  0  0  0
    2.4570   20.2001    0.5958 H   0  0  0  0  0  0  0  0  0  0  0  0
    0.6067   20.4188   -0.7691 H   0  0  0  0  0  0  0  0  0  0  0  0
   -0.6775   17.8684    2.3938 H   0  0  0  0  0  0  0  0  0  0  0  0
   -1.5072   17.1517    0.9709 H   0  0  0  0  0  0  0  0  0  0  0  0
    0.2798   17.3340    0.9709 H   0  0  0  0  0  0  0  0  0  0  0  0
   -2.8492   19.6875    0.9946 H   0  0  0  0  0  0  0  0  0  0  0  0
   -2.0821   20.4135   -0.4583 H   0  0  0  0  0  0  0  0  0  0  0  0
   -2.5419   18.6770   -0.4583 H   0  0  0  0  0  0  0  0  0  0  0  0
    1.8406   16.1850    0.0113 H   0  0  0  0  0  0  0  0  0  0  0  0
   -0.1731   17.3882   -0.5655 H   0  0  0  0  0  0  0  0  0  0  0  0
    0.5059   17.9367   -2.1132 H   0  0  0  0  0  0  0  0  0  0  0  0
   -1.4165   15.8484   -1.7901 H   0  0  0  0  0  0  0  0  0  0  0  0
   -0.4864   16.1158   -3.2623 H   0  0  0  0  0  0  0  0  0  0  0  0
    0.5417   14.7670    0.3078 H   0  0  0  0  0  0  0  0  0  0  0  0
   -1.1114   14.4469   -0.3179 H   0  0  0  0  0  0  0  0  0  0  0  0
    0.1181   13.1373   -0.3179 H   0  0  0  0  0  0  0  0  0  0  0  0
    0.4845   13.9772   -3.8589 H   0  0  0  0  0  0  0  0  0  0  0  0
   -1.8645   13.7085   -2.8352 H   0  0  0  0  0  0  0  0  0  0  0  0
   -1.2145   12.4981   -4.0607 H   0  0  0  0  0  0  0  0  0  0  0  0
   -2.5223   11.4903   -2.0076 H   0  0  0  0  0  0  0  0  0  0  0  0
    1.2835   11.7764   -0.6909 H   0  0  0  0  0  0  0  0  0  0  0  0
    1.3506    9.4639   -2.7279 H   0  0  0  0  0  0  0  0  0  0  0  0
    2.7534   10.1170   -1.7709 H   0  0  0  0  0  0  0  0  0  0  0  0
    1.8836    8.0000   -0.8313 H   0  0  0  0  0  0  0  0  0  0  0  0
    1.7138    9.3980    0.3015 H   0  0  0  0  0  0  0  0  0  0  0  0
   -0.3012    8.0967    0.3758 H   0  0  0  0  0  0  0  0  0  0  0  0
   -1.5260    7.8620   -1.6330 H   0  0  0  0  0  0  0  0  0  0  0  0
   -1.0197    9.8708    1.8019 H   0  0  0  0  0  0  0  0  0  0  0  0
    0.3421   10.8399    1.1439 H   0  0  0  0  0  0  0  0  0  0  0  0
   -1.3226   11.5146    1.1439 H   0  0  0  0  0  0  0  0  0  0  0  0
   -2.8574    9.4999    0.6078 H   0  0  0  0  0  0  0  0  0  0  0  0
   -3.0391   10.3807   -0.9472 H   0  0  0  0  0  0  0  0  0  0  0  0
   -2.5866    8.6424   -0.9472 H   0  0  0  0  0  0  0  0  0  0  0  0
    1.6261   10.5427   -3.9611 H   0  0  0  0  0  0  0  0  0  0  0  0
    0.5281   11.7687   -4.6810 H   0  0  0  0  0  0  0  0  0  0  0  0
    2.3034   12.0426   -4.6810 H   0  0  0  0  0  0  0  0  0  0  0  0
    3.3607   12.0939   -1.9374 H   0  0  0  0  0  0  0  0  0  0  0  0
    3.1785   13.2451   -3.3783 H   0  0  0  0  0  0  0  0  0  0  0  0
    2.5873   13.8247   -0.4624 H   0  0  0  0  0  0  0  0  0  0  0  0
    3.8719   14.5359   -1.5165 H   0  0  0  0  0  0  0  0  0  0  0  0
    3.0857   16.4778   -3.2794 H   0  0  0  0  0  0  0  0  0  0  0  0
    2.7534   14.8341   -3.9234 H   0  0  0  0  0  0  0  0  0  0  0  0
    1.4572   16.0777   -3.9234 H   0  0  0  0  0  0  0  0  0  0  0  0
  1  2  1  0
  2  3  1  0
  3  4  1  0
  4  5  1  0
  5  6  1  0
  6  7  1  0
  7  8  1  0
  7  9  1  0
  2 10  1  0
 10 11  1  0
 11 12  1  0
 12 13  1  0
 13 14  1  1
 13 15  1  0
 15 16  1  0
 16 17  1  0
 17 18  2  0
 18 19  1  0
 19 20  1  0
 20 21  1  0
 21 22  1  0
 22 23  1  0
 22 24  1  0
 24 25  1  0
 24 26  1  0
 19 27  1  0
 27 28  1  6
 27 29  1  0
 29 30  1  0
 30 31  1  0
 31 32  1  6
  7  5  1  0
 31 10  1  0
 31 13  1  0
 27 15  1  0
 24 18  1  0
  1 33  1  0
  1 34  1  0
  1 35  1  0
  2 36  1  6
  3 37  1  0
  3 38  1  0
  4 39  1  0
  4 40  1  0
  5 41  1  6
  8 42  1  0
  8 43  1  0
  8 44  1  0
  9 45  1  0
  9 46  1  0
  9 47  1  0
 10 48  1  1
 11 49  1  0
 11 50  1  0
 12 51  1  0
 12 52  1  0
 14 53  1  0
 14 54  1  0
 14 55  1  0
 15 56  1  6
 16 57  1  0
 16 58  1  0
 17 59  1  0
 19 60  1  1
 20 61  1  0
 20 62  1  0
 21 63  1  0
 21 64  1  0
 22 65  1  1
 23 66  1  0
 25 67  1  0
 25 68  1  0
 25 69  1  0
 26 70  1  0
 26 71  1  0
 26 72  1  0
 28 73  1  0
 28 74  1  0
 28 75  1  0
 29 76  1  0
 29 77  1  0
 30 78  1  0
 30 79  1  0
 32 80  1  0
 32 81  1  0
 32 82  1  0
M  END
>  <meeko>  (5) 
{"is_sidechain": [false], "intermolecular_energy": 2.731, "internal_energy": -0.839}

$$$$
EPH_relaxed_0001_pdb2pqr_Repair_199_r2_0001_out
     RDKit          3D

 82 86  0  0  0  0  0  0  0  0999 V2000
    0.7150   12.0670   -5.4660 C   0  0  0  0  0  0  0  0  0  0  0  0
    0.9230   11.2240   -4.2050 C   0  0  2  0  0  0  0  0  0  0  0  0
   -0.2540   10.2620   -3.9490 C   0  0  0  0  0  0  0  0  0  0  0  0
   -0.1910    9.5610   -2.5900 C   0  0  0  0  0  0  0  0  0  0  0  0
   -1.5250    9.5530   -1.9070 C   0  0  2  0  0  0  0  0  0  0  0  0
   -1.9420   10.8260   -1.3950 O   0  0  0  0  0  0  0  0  0  0  0  0
   -1.7060    9.7970   -0.4200 C   0  0  0  0  0  0  0  0  0  0  0  0
   -0.5360   10.0640    0.4740 C   0  0  0  0  0  0  0  0  0  0  0  0
   -2.9510    9.2950    0.2410 C   0  0  0  0  0  0  0  0  0  0  0  0
    1.1240   12.1340   -2.9990 C   0  0  1  0  0  0  0  0  0  0  0  0
    2.3680   11.7440   -2.1570 C   0  0  0  0  0  0  0  0  0  0  0  0
    2.9720   13.0650   -1.6140 C   0  0  0  0  0  0  0  0  0  0  0  0
    1.8820   14.1300   -1.8780 C   0  0  1  0  0  0  0  0  0  0  0  0
    0.8670   13.9650   -0.7050 C   0  0  0  0  0  0  0  0  0  0  0  0
    2.3780   15.6070   -2.0090 C   0  0  2  0  0  0  0  0  0  0  0  0
    3.0460   16.1860   -0.7500 C   0  0  0  0  0  0  0  0  0  0  0  0
    2.1250   16.8750    0.2010 C   0  0  0  0  0  0  0  0  0  0  0  0
    0.8700   17.2740   -0.0760 C   0  0  0  0  0  0  0  0  0  0  0  0
    0.2910   17.1300   -1.4890 C   0  0  1  0  0  0  0  0  0  0  0  0
   -0.4100   18.4510   -1.9000 C   0  0  0  0  0  0  0  0  0  0  0  0
   -1.4570   18.8980   -0.8840 C   0  0  0  0  0  0  0  0  0  0  0  0
   -0.8320   19.0870    0.4960 C   0  0  2  0  0  0  0  0  0  0  0  0
    0.0760   20.1920    0.4430 O   0  0  0  0  0  0  0  0  0  0  0  0
   -0.0880   17.8230    1.0100 C   0  0  0  0  0  0  0  0  0  0  0  0
   -1.1170   16.7180    1.3550 C   0  0  0  0  0  0  0  0  0  0  0  0
    0.6150   18.1930    2.3450 C   0  0  0  0  0  0  0  0  0  0  0  0
    1.2990   16.6030   -2.6000 C   0  0  1  0  0  0  0  0  0  0  0  0
    2.0860   17.8000   -3.2150 C   0  0  0  0  0  0  0  0  0  0  0  0
    0.4750   15.9620   -3.7790 C   0  0  0  0  0  0  0  0  0  0  0  0
    0.1190   14.4680   -3.6460 C   0  0  0  0  0  0  0  0  0  0  0  0
    1.3540   13.6410   -3.2760 C   0  0  2  0  0  0  0  0  0  0  0  0
    2.3850   13.7700   -4.4480 C   0  0  0  0  0  0  0  0  0  0  0  0
    0.4606   13.0982   -5.1798 H   0  0  0  0  0  0  0  0  0  0  0  0
    1.6395   12.0694   -6.0621 H   0  0  0  0  0  0  0  0  0  0  0  0
   -0.1045   11.6391   -6.0621 H   0  0  0  0  0  0  0  0  0  0  0  0
    1.8224   10.6104   -4.3617 H   0  0  0  0  0  0  0  0  0  0  0  0
   -1.1902   10.8373   -4.0000 H   0  0  0  0  0  0  0  0  0  0  0  0
   -0.2012    9.4775   -4.7182 H   0  0  0  0  0  0  0  0  0  0  0  0
    0.1388    8.5224   -2.7398 H   0  0  0  0  0  0  0  0  0  0  0  0
    0.5166   10.1118   -1.9530 H   0  0  0  0  0  0  0  0  0  0  0  0
   -1.8879    8.7564   -2.5731 H   0  0  0  0  0  0  0  0  0  0  0  0
   -0.8534    9.9916    1.5247 H   0  0  0  0  0  0  0  0  0  0  0  0
    0.2525    9.3227    0.2772 H   0  0  0  0  0  0  0  0  0  0  0  0
   -0.1471   11.0740    0.2772 H   0  0  0  0  0  0  0  0  0  0  0  0
   -2.8312    9.3433    1.3334 H   0  0  0  0  0  0  0  0  0  0  0  0
   -3.8044    9.9193   -0.0622 H   0  0  0  0  0  0  0  0  0  0  0  0
   -3.1327    8.2533   -0.0622 H   0  0  0  0  0  0  0  0  0  0  0  0
    0.1578   11.9872   -2.4941 H   0  0  0  0  0  0  0  0  0  0  0  0
    2.0713   11.0918   -1.3224 H   0  0  0  0  0  0  0  0  0  0  0  0
    3.1013   11.1952   -2.7662 H   0  0  0  0  0  0  0  0  0  0  0  0
    3.1815   12.9824   -0.5373 H   0  0  0  0  0  0  0  0  0  0  0  0
    3.9272   13.3169   -2.0980 H   0  0  0  0  0  0  0  0  0  0  0  0
    1.3982   14.0513    0.2544 H   0  0  0  0  0  0  0  0  0  0  0  0
    0.0994   14.7502   -0.7711 H   0  0  0  0  0  0  0  0  0  0  0  0
    0.3877   12.9771   -0.7711 H   0  0  0  0  0  0  0  0  0  0  0  0
    3.1784   15.5206   -2.7586 H   0  0  0  0  0  0  0  0  0  0  0  0
    3.5328   15.3588   -0.2126 H   0  0  0  0  0  0  0  0  0  0  0  0
    3.7482   16.9550   -1.1045 H   0  0  0  0  0  0  0  0  0  0  0  0
    2.5042   17.0735    1.2143 H   0  0  0  0  0  0  0  0  0  0  0  0
   -0.4488   16.3179   -1.4328 H   0  0  0  0  0  0  0  0  0  0  0  0
    0.3509   19.2400   -1.9927 H   0  0  0  0  0  0  0  0  0  0  0  0
   -0.9260   18.2723   -2.8549 H   0  0  0  0  0  0  0  0  0  0  0  0
   -1.8953   19.8513   -1.2144 H   0  0  0  0  0  0  0  0  0  0  0  0
   -2.2331   18.1215   -0.8147 H   0  0  0  0  0  0  0  0  0  0  0  0
   -1.6503   19.2789    1.2056 H   0  0  0  0  0  0  0  0  0  0  0  0
   -0.4530   21.0040    0.3750 H   0  0  0  0  0  0  0  0  0  0  0  0
   -1.2032   16.6255    2.4477 H   0  0  0  0  0  0  0  0  0  0  0  0
   -2.0966   16.9840    0.9312 H   0  0  0  0  0  0  0  0  0  0  0  0
   -0.7820   15.7598    0.9312 H   0  0  0  0  0  0  0  0  0  0  0  0
   -0.0077   17.8652    3.1904 H   0  0  0  0  0  0  0  0  0  0  0  0
    1.5936   17.6931    2.3949 H   0  0  0  0  0  0  0  0  0  0  0  0
    0.7570   19.2827    2.3949 H   0  0  0  0  0  0  0  0  0  0  0  0
    2.4959   18.4234   -2.4067 H   0  0  0  0  0  0  0  0  0  0  0  0
    2.9092   17.4172   -3.8361 H   0  0  0  0  0  0  0  0  0  0  0  0
    1.4083   18.4040   -3.8361 H   0  0  0  0  0  0  0  0  0  0  0  0
   -0.4675   16.5220   -3.8693 H   0  0  0  0  0  0  0  0  0  0  0  0
    1.1338   16.0239   -4.6577 H   0  0  0  0  0  0  0  0  0  0  0  0
   -0.6427   14.3480   -2.8615 H   0  0  0  0  0  0  0  0  0  0  0  0
   -0.2650   14.1115   -4.6132 H   0  0  0  0  0  0  0  0  0  0  0  0
    3.3964   13.8965   -4.0344 H   0  0  0  0  0  0  0  0  0  0  0  0
    2.3529   12.8608   -5.0664 H   0  0  0  0  0  0  0  0  0  0  0  0
    2.1298   14.6432   -5.0664 H   0  0  0  0  0  0  0  0  0  0  0  0
  1  2  1  0
  2  3  1  0
  3  4  1  0
  4  5  1  0
  5  6  1  0
  6  7  1  0
  7  8  1  0
  7  9  1  0
  2 10  1  0
 10 11  1  0
 11 12  1  0
 12 13  1  0
 13 14  1  1
 13 15  1  0
 15 16  1  0
 16 17  1  0
 17 18  2  0
 18 19  1  0
 19 20  1  0
 20 21  1  0
 21 22  1  0
 22 23  1  0
 22 24  1  0
 24 25  1  0
 24 26  1  0
 19 27  1  0
 27 28  1  6
 27 29  1  0
 29 30  1  0
 30 31  1  0
 31 32  1  6
  7  5  1  0
 31 10  1  0
 31 13  1  0
 27 15  1  0
 24 18  1  0
  1 33  1  0
  1 34  1  0
  1 35  1  0
  2 36  1  6
  3 37  1  0
  3 38  1  0
  4 39  1  0
  4 40  1  0
  5 41  1  6
  8 42  1  0
  8 43  1  0
  8 44  1  0
  9 45  1  0
  9 46  1  0
  9 47  1  0
 10 48  1  1
 11 49  1  0
 11 50  1  0
 12 51  1  0
 12 52  1  0
 14 53  1  0
 14 54  1  0
 14 55  1  0
 15 56  1  6
 16 57  1  0
 16 58  1  0
 17 59  1  0
 19 60  1  1
 20 61  1  0
 20 62  1  0
 21 63  1  0
 21 64  1  0
 22 65  1  1
 23 66  1  0
 25 67  1  0
 25 68  1  0
 25 69  1  0
 26 70  1  0
 26 71  1  0
 26 72  1  0
 28 73  1  0
 28 74  1  0
 28 75  1  0
 29 76  1  0
 29 77  1  0
 30 78  1  0
 30 79  1  0
 32 80  1  0
 32 81  1  0
 32 82  1  0
M  END
>  <meeko>  (6) 
{"is_sidechain": [false], "intermolecular_energy": 2.731, "internal_energy": -0.839}

$$$$
EPH_relaxed_0001_pdb2pqr_Repair_199_r2_0001_out
     RDKit          3D

 82 86  0  0  0  0  0  0  0  0999 V2000
    2.2870   16.9640   -1.3820 C   0  0  0  0  0  0  0  0  0  0  0  0
    1.4540   17.0520   -2.6640 C   0  0  2  0  0  0  0  0  0  0  0  0
    0.4860   18.2520   -2.6460 C   0  0  0  0  0  0  0  0  0  0  0  0
    0.3140   18.8840   -1.2630 C   0  0  0  0  0  0  0  0  0  0  0  0
   -0.7740   18.2150   -0.4790 C   0  0  2  0  0  0  0  0  0  0  0  0
   -1.2540   18.9680    0.6420 O   0  0  0  0  0  0  0  0  0  0  0  0
   -0.5990   17.7270    0.9470 C   0  0  0  0  0  0  0  0  0  0  0  0
    0.7000   17.8860    1.6730 C   0  0  0  0  0  0  0  0  0  0  0  0
   -1.5240   16.6670    1.4590 C   0  0  0  0  0  0  0  0  0  0  0  0
    0.6760   15.7570   -2.8670 C   0  0  1  0  0  0  0  0  0  0  0  0
   -0.0650   15.7140   -4.2310 C   0  0  0  0  0  0  0  0  0  0  0  0
   -0.0300   14.2400   -4.7120 C   0  0  0  0  0  0  0  0  0  0  0  0
    0.4280   13.4360   -3.4730 C   0  0  1  0  0  0  0  0  0  0  0  0
   -0.8620   13.2560   -2.6120 C   0  0  0  0  0  0  0  0  0  0  0  0
    1.1280   12.0670   -3.7570 C   0  0  2  0  0  0  0  0  0  0  0  0
    0.2520   11.0220   -4.4700 C   0  0  0  0  0  0  0  0  0  0  0  0
   -0.5250   10.1190   -3.5700 C   0  0  0  0  0  0  0  0  0  0  0  0
   -0.3070    9.9530   -2.2520 C   0  0  0  0  0  0  0  0  0  0  0  0
    0.8730   10.6420   -1.5560 C   0  0  1  0  0  0  0  0  0  0  0  0
    1.6090    9.6190   -0.6510 C   0  0  0  0  0  0  0  0  0  0  0  0
    0.6720    8.9290    0.3350 C   0  0  0  0  0  0  0  0  0  0  0  0
   -0.4560    8.2070   -0.3980 C   0  0  2  0  0  0  0  0  0  0  0  0
    0.1020    7.1220   -1.1460 O   0  0  0  0  0  0  0  0  0  0  0  0
   -1.2620    9.1360   -1.3480 C   0  0  0  0  0  0  0  0  0  0  0  0
   -2.1070   10.1280   -0.5110 C   0  0  0  0  0  0  0  0  0  0  0  0
   -2.2750    8.2560   -2.1300 C   0  0  0  0  0  0  0  0  0  0  0  0
    1.8660   11.4430   -2.5040 C   0  0  1  0  0  0  0  0  0  0  0  0
    2.9590   10.4830   -3.0630 C   0  0  0  0  0  0  0  0  0  0  0  0
    2.6230   12.5310   -1.6530 C   0  0  0  0  0  0  0  0  0  0  0  0
    1.9360   13.9020   -1.5090 C   0  0  0  0  0  0  0  0  0  0  0  0
    1.4830   14.4350   -2.8710 C   0  0  2  0  0  0  0  0  0  0  0  0
    2.7620   14.6470   -3.7520 C   0  0  0  0  0  0  0  0  0  0  0  0
    1.6231   17.0341   -0.5078 H   0  0  0  0  0  0  0  0  0  0  0  0
    2.8238   16.0042   -1.3587 H   0  0  0  0  0  0  0  0  0  0  0  0
    3.0125   17.7905   -1.3587 H   0  0  0  0  0  0  0  0  0  0  0  0
    2.1501   17.2028   -3.5023 H   0  0  0  0  0  0  0  0  0  0  0  0
    0.8719   19.0196   -3.3329 H   0  0  0  0  0  0  0  0  0  0  0  0
   -0.5007   17.8732   -2.9509 H   0  0  0  0  0  0  0  0  0  0  0  0
    1.2601   18.7928   -0.7093 H   0  0  0  0  0  0  0  0  0  0  0  0
    0.0378   19.9398   -1.4006 H   0  0  0  0  0  0  0  0  0  0  0  0
   -1.1569   17.7234   -1.3855 H   0  0  0  0  0  0  0  0  0  0  0  0
    0.5189   17.8638    2.7578 H   0  0  0  0  0  0  0  0  0  0  0  0
    1.3771   17.0640    1.3974 H   0  0  0  0  0  0  0  0  0  0  0  0
    1.1588   18.8470    1.3974 H   0  0  0  0  0  0  0  0  0  0  0  0
   -1.5173   16.6746    2.5590 H   0  0  0  0  0  0  0  0  0  0  0  0
   -2.5439   16.8643    1.0971 H   0  0  0  0  0  0  0  0  0  0  0  0
   -1.1904   15.6832    1.0971 H   0  0  0  0  0  0  0  0  0  0  0  0
    0.0214   15.7944   -1.9838 H   0  0  0  0  0  0  0  0  0  0  0  0
   -1.1059   16.0477   -4.1075 H   0  0  0  0  0  0  0  0  0  0  0  0
    0.4152   16.3801   -4.9629 H   0  0  0  0  0  0  0  0  0  0  0  0
   -1.0286   13.9144   -5.0388 H   0  0  0  0  0  0  0  0  0  0  0  0
    0.6402   14.0979   -5.5726 H   0  0  0  0  0  0  0  0  0  0  0  0
   -0.5985   13.2928   -1.5447 H   0  0  0  0  0  0  0  0  0  0  0  0
   -1.5723   14.0637   -2.8424 H   0  0  0  0  0  0  0  0  0  0  0  0
   -1.3240   12.2847   -2.8424 H   0  0  0  0  0  0  0  0  0  0  0  0
    1.9083   12.3475   -4.4799 H   0  0  0  0  0  0  0  0  0  0  0  0
   -0.4622   11.5585   -5.1119 H   0  0  0  0  0  0  0  0  0  0  0  0
    0.9446   10.3737   -5.0267 H   0  0  0  0  0  0  0  0  0  0  0  0
   -1.3444    9.5408   -4.0219 H   0  0  0  0  0  0  0  0  0  0  0  0
    0.4373   11.4414   -0.9386 H   0  0  0  0  0  0  0  0  0  0  0  0
    2.0740    8.8537   -1.2899 H   0  0  0  0  0  0  0  0  0  0  0  0
    2.3605   10.1705   -0.0669 H   0  0  0  0  0  0  0  0  0  0  0  0
    1.2446    8.1975    0.9241 H   0  0  0  0  0  0  0  0  0  0  0  0
    0.2310    9.6922    0.9930 H   0  0  0  0  0  0  0  0  0  0  0  0
   -1.1644    7.8441    0.3612 H   0  0  0  0  0  0  0  0  0  0  0  0
    0.8060    6.7240   -0.6070 H   0  0  0  0  0  0  0  0  0  0  0  0
   -1.9436    9.9362    0.5598 H   0  0  0  0  0  0  0  0  0  0  0  0
   -1.8051   11.1586   -0.7491 H   0  0  0  0  0  0  0  0  0  0  0  0
   -3.1725    9.9938   -0.7491 H   0  0  0  0  0  0  0  0  0  0  0  0
   -2.9084    7.7058   -1.4186 H   0  0  0  0  0  0  0  0  0  0  0  0
   -2.9061    8.8975   -2.7626 H   0  0  0  0  0  0  0  0  0  0  0  0
   -1.7280    7.5414   -2.7626 H   0  0  0  0  0  0  0  0  0  0  0  0
    3.4957   10.0116   -2.2264 H   0  0  0  0  0  0  0  0  0  0  0  0
    2.4837    9.7051   -3.6786 H   0  0  0  0  0  0  0  0  0  0  0  0
    3.6691   11.0547   -3.6786 H   0  0  0  0  0  0  0  0  0  0  0  0
    2.7657   12.1224   -0.6417 H   0  0  0  0  0  0  0  0  0  0  0  0
    3.5533   12.7318   -2.2046 H   0  0  0  0  0  0  0  0  0  0  0  0
    1.0586   13.7976   -0.8538 H   0  0  0  0  0  0  0  0  0  0  0  0
    2.6573   14.6116   -1.0775 H   0  0  0  0  0  0  0  0  0  0  0  0
    3.6362   14.7919   -3.1003 H   0  0  0  0  0  0  0  0  0  0  0  0
    2.9205   13.7629   -4.3870 H   0  0  0  0  0  0  0  0  0  0  0  0
    2.6268   15.5350   -4.3870 H   0  0  0  0  0  0  0  0  0  0  0  0
  1  2  1  0
  2  3  1  0
  3  4  1  0
  4  5  1  0
  5  6  1  0
  6  7  1  0
  7  8  1  0
  7  9  1  0
  2 10  1  0
 10 11  1  0
 11 12  1  0
 12 13  1  0
 13 14  1  1
 13 15  1  0
 15 16  1  0
 16 17  1  0
 17 18  2  0
 18 19  1  0
 19 20  1  0
 20 21  1  0
 21 22  1  0
 22 23  1  0
 22 24  1  0
 24 25  1  0
 24 26  1  0
 19 27  1  0
 27 28  1  6
 27 29  1  0
 29 30  1  0
 30 31  1  0
 31 32  1  6
  7  5  1  0
 31 10  1  0
 31 13  1  0
 27 15  1  0
 24 18  1  0
  1 33  1  0
  1 34  1  0
  1 35  1  0
  2 36  1  6
  3 37  1  0
  3 38  1  0
  4 39  1  0
  4 40  1  0
  5 41  1  6
  8 42  1  0
  8 43  1  0
  8 44  1  0
  9 45  1  0
  9 46  1  0
  9 47  1  0
 10 48  1  1
 11 49  1  0
 11 50  1  0
 12 51  1  0
 12 52  1  0
 14 53  1  0
 14 54  1  0
 14 55  1  0
 15 56  1  6
 16 57  1  0
 16 58  1  0
 17 59  1  0
 19 60  1  1
 20 61  1  0
 20 62  1  0
 21 63  1  0
 21 64  1  0
 22 65  1  1
 23 66  1  0
 25 67  1  0
 25 68  1  0
 25 69  1  0
 26 70  1  0
 26 71  1  0
 26 72  1  0
 28 73  1  0
 28 74  1  0
 28 75  1  0
 29 76  1  0
 29 77  1  0
 30 78  1  0
 30 79  1  0
 32 80  1  0
 32 81  1  0
 32 82  1  0
M  END
>  <meeko>  (7) 
{"is_sidechain": [false], "intermolecular_energy": 2.731, "internal_energy": -0.839}

$$$$
EPH_relaxed_0001_pdb2pqr_Repair_199_r2_0001_out
     RDKit          3D

 82 86  0  0  0  0  0  0  0  0999 V2000
   -0.3990   15.8720   -4.8810 C   0  0  0  0  0  0  0  0  0  0  0  0
    0.5830   15.0370   -4.0560 C   0  0  2  0  0  0  0  0  0  0  0  0
   -0.1390   14.0530   -3.1140 C   0  0  0  0  0  0  0  0  0  0  0  0
    0.7590   12.9270   -2.5940 C   0  0  0  0  0  0  0  0  0  0  0  0
   -0.0330   11.7050   -2.2390 C   0  0  2  0  0  0  0  0  0  0  0  0
    0.3080   11.1150   -0.9780 O   0  0  0  0  0  0  0  0  0  0  0  0
    0.5690   10.3160   -2.1430 C   0  0  0  0  0  0  0  0  0  0  0  0
    2.0240   10.0770   -2.4040 C   0  0  0  0  0  0  0  0  0  0  0  0
   -0.3370    9.1320   -2.2770 C   0  0  0  0  0  0  0  0  0  0  0  0
    1.4960   15.9540   -3.2500 C   0  0  1  0  0  0  0  0  0  0  0  0
    2.2930   16.9400   -4.1450 C   0  0  0  0  0  0  0  0  0  0  0  0
    2.4260   18.2620   -3.3460 C   0  0  0  0  0  0  0  0  0  0  0  0
    2.0010   17.8910   -1.9060 C   0  0  1  0  0  0  0  0  0  0  0  0
    3.2650   17.2320   -1.2710 C   0  0  0  0  0  0  0  0  0  0  0  0
    1.4550   19.0610   -1.0240 C   0  0  2  0  0  0  0  0  0  0  0  0
    2.4610   20.1920   -0.7450 C   0  0  0  0  0  0  0  0  0  0  0  0
    3.2860   20.0210    0.4880 C   0  0  0  0  0  0  0  0  0  0  0  0
    3.0320   19.1550    1.4860 C   0  0  0  0  0  0  0  0  0  0  0  0
    1.7600   18.2970    1.4790 C   0  0  1  0  0  0  0  0  0  0  0  0
    1.0940   18.3480    2.8790 C   0  0  0  0  0  0  0  0  0  0  0  0
    2.0540   17.9590    3.9990 C   0  0  0  0  0  0  0  0  0  0  0  0
    3.2780   18.8710    4.0090 C   0  0  2  0  0  0  0  0  0  0  0  0
    2.8640   20.1930    4.3670 O   0  0  0  0  0  0  0  0  0  0  0  0
    4.0260   18.9080    2.6470 C   0  0  0  0  0  0  0  0  0  0  0  0
    4.7310   17.5510    2.4030 C   0  0  0  0  0  0  0  0  0  0  0  0
    5.1530   19.9710    2.7500 C   0  0  0  0  0  0  0  0  0  0  0  0
    0.7320   18.5900    0.3030 C   0  0  1  0  0  0  0  0  0  0  0  0
   -0.2350   19.7410    0.7160 C   0  0  0  0  0  0  0  0  0  0  0  0
   -0.1650   17.3160    0.0750 C   0  0  0  0  0  0  0  0  0  0  0  0
    0.3730   16.2520   -0.8990 C   0  0  0  0  0  0  0  0  0  0  0  0
    0.8270   16.8920   -2.2150 C   0  0  2  0  0  0  0  0  0  0  0  0
   -0.4290   17.5440   -2.8870 C   0  0  0  0  0  0  0  0  0  0  0  0
   -1.0602   16.4342   -4.2052 H   0  0  0  0  0  0  0  0  0  0  0  0
    0.1605   16.5752   -5.5154 H   0  0  0  0  0  0  0  0  0  0  0  0
   -1.0031   15.2068   -5.5154 H   0  0  0  0  0  0  0  0  0  0  0  0
    1.1820   14.4406   -4.7599 H   0  0  0  0  0  0  0  0  0  0  0  0
   -0.5235   14.6169   -2.2514 H   0  0  0  0  0  0  0  0  0  0  0  0
   -0.9421   13.5798   -3.6980 H   0  0  0  0  0  0  0  0  0  0  0  0
    1.4891   12.6645   -3.3738 H   0  0  0  0  0  0  0  0  0  0  0  0
    1.2645   13.2840   -1.6846 H   0  0  0  0  0  0  0  0  0  0  0  0
   -0.9130   12.0924   -2.7733 H   0  0  0  0  0  0  0  0  0  0  0  0
    2.5586    9.9892   -1.4467 H   0  0  0  0  0  0  0  0  0  0  0  0
    2.1455    9.1469   -2.9785 H   0  0  0  0  0  0  0  0  0  0  0  0
    2.4367   10.9194   -2.9785 H   0  0  0  0  0  0  0  0  0  0  0  0
   -0.6153    8.7682   -1.2769 H   0  0  0  0  0  0  0  0  0  0  0  0
   -1.2440    9.4246   -2.8263 H   0  0  0  0  0  0  0  0  0  0  0  0
    0.1826    8.3330   -2.8263 H   0  0  0  0  0  0  0  0  0  0  0  0
    2.1069   15.1988   -2.7338 H   0  0  0  0  0  0  0  0  0  0  0  0
    3.2892   16.5296   -4.3668 H   0  0  0  0  0  0  0  0  0  0  0  0
    1.7789   17.1076   -5.1029 H   0  0  0  0  0  0  0  0  0  0  0  0
    3.4647   18.6236   -3.3635 H   0  0  0  0  0  0  0  0  0  0  0  0
    1.8093   19.0690   -3.7685 H   0  0  0  0  0  0  0  0  0  0  0  0
    3.1878   17.2723   -0.1745 H   0  0  0  0  0  0  0  0  0  0  0  0
    3.3339   16.1832   -1.5955 H   0  0  0  0  0  0  0  0  0  0  0  0
    4.1643   17.7760   -1.5955 H   0  0  0  0  0  0  0  0  0  0  0  0
    0.6811   19.5018   -1.6696 H   0  0  0  0  0  0  0  0  0  0  0  0
    3.1441   20.2592   -1.6046 H   0  0  0  0  0  0  0  0  0  0  0  0
    1.8617   21.1008   -0.5870 H   0  0  0  0  0  0  0  0  0  0  0  0
    4.1775   20.6574    0.5890 H   0  0  0  0  0  0  0  0  0  0  0  0
    2.0869   17.2702    1.2580 H   0  0  0  0  0  0  0  0  0  0  0  0
    0.7356   19.3718    3.0617 H   0  0  0  0  0  0  0  0  0  0  0  0
    0.2671   17.6226    2.8816 H   0  0  0  0  0  0  0  0  0  0  0  0
    1.5340   18.0437    4.9646 H   0  0  0  0  0  0  0  0  0  0  0  0
    2.3881   16.9244    3.8318 H   0  0  0  0  0  0  0  0  0  0  0  0
    3.9873   18.4637    4.7446 H   0  0  0  0  0  0  0  0  0  0  0  0
    1.9650   20.1320    4.7300 H   0  0  0  0  0  0  0  0  0  0  0  0
    4.9733   17.0847    3.3694 H   0  0  0  0  0  0  0  0  0  0  0  0
    4.0633   16.8881    1.8332 H   0  0  0  0  0  0  0  0  0  0  0  0
    5.6573   17.7163    1.8332 H   0  0  0  0  0  0  0  0  0  0  0  0
    5.3691   20.1748    3.8091 H   0  0  0  0  0  0  0  0  0  0  0  0
    6.0604   19.5923    2.2569 H   0  0  0  0  0  0  0  0  0  0  0  0
    4.8279   20.8990    2.2569 H   0  0  0  0  0  0  0  0  0  0  0  0
   -0.2857   19.8013    1.8132 H   0  0  0  0  0  0  0  0  0  0  0  0
    0.1369   20.6946    0.3131 H   0  0  0  0  0  0  0  0  0  0  0  0
   -1.2385   19.5392    0.3131 H   0  0  0  0  0  0  0  0  0  0  0  0
   -0.3079   16.8308    1.0518 H   0  0  0  0  0  0  0  0  0  0  0  0
   -1.0866   17.6934   -0.3922 H   0  0  0  0  0  0  0  0  0  0  0  0
    1.2281   15.7388   -0.4347 H   0  0  0  0  0  0  0  0  0  0  0  0
   -0.4336   15.5366   -1.1171 H   0  0  0  0  0  0  0  0  0  0  0  0
   -1.1178   17.9016   -2.1075 H   0  0  0  0  0  0  0  0  0  0  0  0
   -0.1118   18.3913   -3.5127 H   0  0  0  0  0  0  0  0  0  0  0  0
   -0.9394   16.7970   -3.5127 H   0  0  0  0  0  0  0  0  0  0  0  0
  1  2  1  0
  2  3  1  0
  3  4  1  0
  4  5  1  0
  5  6  1  0
  6  7  1  0
  7  8  1  0
  7  9  1  0
  2 10  1  0
 10 11  1  0
 11 12  1  0
 12 13  1  0
 13 14  1  1
 13 15  1  0
 15 16  1  0
 16 17  1  0
 17 18  2  0
 18 19  1  0
 19 20  1  0
 20 21  1  0
 21 22  1  0
 22 23  1  0
 22 24  1  0
 24 25  1  0
 24 26  1  0
 19 27  1  0
 27 28  1  1
 27 29  1  0
 29 30  1  0
 30 31  1  0
 31 32  1  6
  7  5  1  0
 31 10  1  0
 31 13  1  0
 27 15  1  0
 24 18  1  0
  1 33  1  0
  1 34  1  0
  1 35  1  0
  2 36  1  6
  3 37  1  0
  3 38  1  0
  4 39  1  0
  4 40  1  0
  5 41  1  1
  8 42  1  0
  8 43  1  0
  8 44  1  0
  9 45  1  0
  9 46  1  0
  9 47  1  0
 10 48  1  1
 11 49  1  0
 11 50  1  0
 12 51  1  0
 12 52  1  0
 14 53  1  0
 14 54  1  0
 14 55  1  0
 15 56  1  6
 16 57  1  0
 16 58  1  0
 17 59  1  0
 19 60  1  6
 20 61  1  0
 20 62  1  0
 21 63  1  0
 21 64  1  0
 22 65  1  1
 23 66  1  0
 25 67  1  0
 25 68  1  0
 25 69  1  0
 26 70  1  0
 26 71  1  0
 26 72  1  0
 28 73  1  0
 28 74  1  0
 28 75  1  0
 29 76  1  0
 29 77  1  0
 30 78  1  0
 30 79  1  0
 32 80  1  0
 32 81  1  0
 32 82  1  0
M  END
>  <meeko>  (8) 
{"is_sidechain": [false], "intermolecular_energy": 2.731, "internal_energy": -0.839}

$$$$
EPH_relaxed_0001_pdb2pqr_Repair_199_r2_0001_out
     RDKit          3D

 82 86  0  0  0  0  0  0  0  0999 V2000
    2.2720   17.5930   -3.1960 C   0  0  0  0  0  0  0  0  0  0  0  0
    0.9150   17.4590   -2.4980 C   0  0  2  0  0  0  0  0  0  0  0  0
    1.0260   17.6450   -0.9720 C   0  0  0  0  0  0  0  0  0  0  0  0
    1.3660   19.0770   -0.5500 C   0  0  0  0  0  0  0  0  0  0  0  0
    2.7160   19.1590    0.0960 C   0  0  2  0  0  0  0  0  0  0  0  0
    3.1510   17.9490    0.7300 O   0  0  0  0  0  0  0  0  0  0  0  0
    2.9330   19.0750    1.5950 C   0  0  0  0  0  0  0  0  0  0  0  0
    1.7860   18.9020    2.5410 C   0  0  0  0  0  0  0  0  0  0  0  0
    4.1920   19.6460    2.1690 C   0  0  0  0  0  0  0  0  0  0  0  0
    0.3010   16.1000   -2.8140 C   0  0  1  0  0  0  0  0  0  0  0  0
   -0.2960   16.0320   -4.2450 C   0  0  0  0  0  0  0  0  0  0  0  0
   -0.0600   14.5890   -4.7610 C   0  0  0  0  0  0  0  0  0  0  0  0
    0.3590   13.7900   -3.5050 C   0  0  1  0  0  0  0  0  0  0  0  0
   -0.9810   13.4470   -2.7820 C   0  0  0  0  0  0  0  0  0  0  0  0
    1.2230   12.5120   -3.7560 C   0  0  2  0  0  0  0  0  0  0  0  0
    0.5350   11.4110   -4.5810 C   0  0  0  0  0  0  0  0  0  0  0  0
   -0.2250   10.3990   -3.7880 C   0  0  0  0  0  0  0  0  0  0  0  0
   -0.1190   10.2070   -2.4600 C   0  0  0  0  0  0  0  0  0  0  0  0
    0.9100   10.9860   -1.6310 C   0  0  1  0  0  0  0  0  0  0  0  0
    1.6600   10.0100   -0.6860 C   0  0  0  0  0  0  0  0  0  0  0  0
    0.7100    9.1910    0.1820 C   0  0  0  0  0  0  0  0  0  0  0  0
   -0.2590    8.3860   -0.6790 C   0  0  2  0  0  0  0  0  0  0  0  0
    0.4790    7.3920   -1.3970 O   0  0  0  0  0  0  0  0  0  0  0  0
   -1.0650    9.2620   -1.6780 C   0  0  0  0  0  0  0  0  0  0  0  0
   -2.0860   10.1310   -0.9030 C   0  0  0  0  0  0  0  0  0  0  0  0
   -1.8990    8.3140   -2.5810 C   0  0  0  0  0  0  0  0  0  0  0  0
    1.8990   11.9200   -2.4530 C   0  0  1  0  0  0  0  0  0  0  0  0
    3.1370   11.0980   -2.9270 C   0  0  0  0  0  0  0  0  0  0  0  0
    2.4520   13.0460   -1.5020 C   0  0  0  0  0  0  0  0  0  0  0  0
    1.6140   14.3340   -1.3880 C   0  0  0  0  0  0  0  0  0  0  0  0
    1.2400   14.8680   -2.7740 C   0  0  2  0  0  0  0  0  0  0  0  0
    2.5680   15.2430   -3.5170 C   0  0  0  0  0  0  0  0  0  0  0  0
    3.0671   17.6715   -2.4399 H   0  0  0  0  0  0  0  0  0  0  0  0
    2.4499   16.7081   -3.8247 H   0  0  0  0  0  0  0  0  0  0  0  0
    2.2734   18.4957   -3.8247 H   0  0  0  0  0  0  0  0  0  0  0  0
    0.2649   18.2594   -2.8811 H   0  0  0  0  0  0  0  0  0  0  0  0
    0.0633   17.3682   -0.5174 H   0  0  0  0  0  0  0  0  0  0  0  0
    1.8516   17.0040   -0.6291 H   0  0  0  0  0  0  0  0  0  0  0  0
    1.3572   19.7227   -1.4405 H   0  0  0  0  0  0  0  0  0  0  0  0
    0.6146   19.4060    0.1830 H   0  0  0  0  0  0  0  0  0  0  0  0
    3.0595   19.8806   -0.6598 H   0  0  0  0  0  0  0  0  0  0  0  0
    2.1531   18.9574    3.5764 H   0  0  0  0  0  0  0  0  0  0  0  0
    1.0470   19.6988    2.3709 H   0  0  0  0  0  0  0  0  0  0  0  0
    1.3149   17.9226    2.3709 H   0  0  0  0  0  0  0  0  0  0  0  0
    4.1382   19.6216    3.2674 H   0  0  0  0  0  0  0  0  0  0  0  0
    5.0525   19.0500    1.8307 H   0  0  0  0  0  0  0  0  0  0  0  0
    4.3105   20.6860    1.8307 H   0  0  0  0  0  0  0  0  0  0  0  0
   -0.4364   16.0378   -2.0001 H   0  0  0  0  0  0  0  0  0  0  0  0
   -1.3733   16.2526   -4.2167 H   0  0  0  0  0  0  0  0  0  0  0  0
    0.1802   16.7705   -4.9067 H   0  0  0  0  0  0  0  0  0  0  0  0
   -0.9827   14.1757   -5.1944 H   0  0  0  0  0  0  0  0  0  0  0  0
    0.7008   14.5486   -5.5545 H   0  0  0  0  0  0  0  0  0  0  0  0
   -0.8304   13.4856   -1.6930 H   0  0  0  0  0  0  0  0  0  0  0  0
   -1.7512   14.1769   -3.0717 H   0  0  0  0  0  0  0  0  0  0  0  0
   -1.3058   12.4368   -3.0717 H   0  0  0  0  0  0  0  0  0  0  0  0
    2.0349   12.8976   -4.3901 H   0  0  0  0  0  0  0  0  0  0  0  0
   -0.1672   11.8955   -5.2754 H   0  0  0  0  0  0  0  0  0  0  0  0
    1.3425   10.8588   -5.0840 H   0  0  0  0  0  0  0  0  0  0  0  0
   -0.9306    9.7566   -4.3352 H   0  0  0  0  0  0  0  0  0  0  0  0
    0.3351   11.7122   -1.0377 H   0  0  0  0  0  0  0  0  0  0  0  0
    2.2624    9.3212   -1.2964 H   0  0  0  0  0  0  0  0  0  0  0  0
    2.2899   10.6125   -0.0151 H   0  0  0  0  0  0  0  0  0  0  0  0
    1.2970    8.5002    0.8051 H   0  0  0  0  0  0  0  0  0  0  0  0
    0.1294    9.8799    0.8132 H   0  0  0  0  0  0  0  0  0  0  0  0
   -0.9945    7.9244   -0.0038 H   0  0  0  0  0  0  0  0  0  0  0  0
   -0.0860    6.6050   -1.4740 H   0  0  0  0  0  0  0  0  0  0  0  0
   -1.9325   10.0004    0.1784 H   0  0  0  0  0  0  0  0  0  0  0  0
   -1.9432   11.1889   -1.1684 H   0  0  0  0  0  0  0  0  0  0  0  0
   -3.1075    9.8210   -1.1684 H   0  0  0  0  0  0  0  0  0  0  0  0
   -2.4945    7.6371   -1.9507 H   0  0  0  0  0  0  0  0  0  0  0  0
   -2.5711    8.9098   -3.2161 H   0  0  0  0  0  0  0  0  0  0  0  0
   -1.2224    7.7233   -3.2161 H   0  0  0  0  0  0  0  0  0  0  0  0
    3.6906   10.7304   -2.0504 H   0  0  0  0  0  0  0  0  0  0  0  0
    2.7999   10.2437   -3.5324 H   0  0  0  0  0  0  0  0  0  0  0  0
    3.7936   11.7402   -3.5324 H   0  0  0  0  0  0  0  0  0  0  0  0
    2.5398   12.6160   -0.4934 H   0  0  0  0  0  0  0  0  0  0  0  0
    3.4040   13.3616   -1.9537 H   0  0  0  0  0  0  0  0  0  0  0  0
    0.6940   14.1163   -0.8257 H   0  0  0  0  0  0  0  0  0  0  0  0
    2.2115   15.0968   -0.8673 H   0  0  0  0  0  0  0  0  0  0  0  0
    3.3519   15.4643   -2.7777 H   0  0  0  0  0  0  0  0  0  0  0  0
    2.8862   14.3996   -4.1474 H   0  0  0  0  0  0  0  0  0  0  0  0
    2.3980   16.1283   -4.1474 H   0  0  0  0  0  0  0  0  0  0  0  0
  1  2  1  0
  2  3  1  0
  3  4  1  0
  4  5  1  0
  5  6  1  0
  6  7  1  0
  7  8  1  0
  7  9  1  0
  2 10  1  0
 10 11  1  0
 11 12  1  0
 12 13  1  0
 13 14  1  1
 13 15  1  0
 15 16  1  0
 16 17  1  0
 17 18  2  0
 18 19  1  0
 19 20  1  0
 20 21  1  0
 21 22  1  0
 22 23  1  0
 22 24  1  0
 24 25  1  0
 24 26  1  0
 19 27  1  0
 27 28  1  6
 27 29  1  0
 29 30  1  0
 30 31  1  0
 31 32  1  6
  7  5  1  0
 31 10  1  0
 31 13  1  0
 27 15  1  0
 24 18  1  0
  1 33  1  0
  1 34  1  0
  1 35  1  0
  2 36  1  6
  3 37  1  0
  3 38  1  0
  4 39  1  0
  4 40  1  0
  5 41  1  6
  8 42  1  0
  8 43  1  0
  8 44  1  0
  9 45  1  0
  9 46  1  0
  9 47  1  0
 10 48  1  1
 11 49  1  0
 11 50  1  0
 12 51  1  0
 12 52  1  0
 14 53  1  0
 14 54  1  0
 14 55  1  0
 15 56  1  6
 16 57  1  0
 16 58  1  0
 17 59  1  0
 19 60  1  1
 20 61  1  0
 20 62  1  0
 21 63  1  0
 21 64  1  0
 22 65  1  1
 23 66  1  0
 25 67  1  0
 25 68  1  0
 25 69  1  0
 26 70  1  0
 26 71  1  0
 26 72  1  0
 28 73  1  0
 28 74  1  0
 28 75  1  0
 29 76  1  0
 29 77  1  0
 30 78  1  0
 30 79  1  0
 32 80  1  0
 32 81  1  0
 32 82  1  0
M  END
>  <meeko>  (9) 
{"is_sidechain": [false], "intermolecular_energy": 2.731, "internal_energy": -0.839}

$$$$
EPH_relaxed_0001_pdb2pqr_Repair_199_r2_0001_out
     RDKit          3D

 82 86  0  0  0  0  0  0  0  0999 V2000
   -0.7920   11.6940   -2.3740 C   0  0  0  0  0  0  0  0  0  0  0  0
    0.5410   11.8480   -3.1100 C   0  0  2  0  0  0  0  0  0  0  0  0
    1.5550   10.7560   -2.7100 C   0  0  0  0  0  0  0  0  0  0  0  0
    2.6510   10.5230   -3.7530 C   0  0  0  0  0  0  0  0  0  0  0  0
    3.9430   11.1670   -3.3540 C   0  0  2  0  0  0  0  0  0  0  0  0
    4.4020   12.1920   -4.2450 O   0  0  0  0  0  0  0  0  0  0  0  0
    5.2300   11.0220   -4.1430 C   0  0  0  0  0  0  0  0  0  0  0  0
    5.2890   10.2060   -5.3970 C   0  0  0  0  0  0  0  0  0  0  0  0
    6.5310   11.2630   -3.4430 C   0  0  0  0  0  0  0  0  0  0  0  0
    1.1280   13.2280   -2.8390 C   0  0  1  0  0  0  0  0  0  0  0  0
    1.4620   14.0020   -4.1420 C   0  0  0  0  0  0  0  0  0  0  0  0
    1.1790   15.4990   -3.8580 C   0  0  0  0  0  0  0  0  0  0  0  0
    1.0140   15.5810   -2.3230 C   0  0  1  0  0  0  0  0  0  0  0  0
    2.4710   15.6200   -1.7640 C   0  0  0  0  0  0  0  0  0  0  0  0
    0.1570   16.7710   -1.7820 C   0  0  2  0  0  0  0  0  0  0  0  0
    0.7180   18.1710   -2.0860 C   0  0  0  0  0  0  0  0  0  0  0  0
    1.6360   18.7290   -1.0490 C   0  0  0  0  0  0  0  0  0  0  0  0
    1.7740   18.2620    0.2060 C   0  0  0  0  0  0  0  0  0  0  0  0
    0.8880   17.1220    0.7250 C   0  0  1  0  0  0  0  0  0  0  0  0
    0.3470   17.4870    2.1320 C   0  0  0  0  0  0  0  0  0  0  0  0
    1.4600   17.8510    3.1100 C   0  0  0  0  0  0  0  0  0  0  0  0
    2.2830   19.0260    2.5860 C   0  0  2  0  0  0  0  0  0  0  0  0
    1.4570   20.1950    2.5670 O   0  0  0  0  0  0  0  0  0  0  0  0
    2.8710   18.7780    1.1690 C   0  0  0  0  0  0  0  0  0  0  0  0
    3.9890   17.7090    1.2490 C   0  0  0  0  0  0  0  0  0  0  0  0
    3.5580   20.0900    0.7010 C   0  0  0  0  0  0  0  0  0  0  0  0
   -0.2590   16.6320   -0.2610 C   0  0  1  0  0  0  0  0  0  0  0  0
   -1.5370   17.5040   -0.0670 C   0  0  0  0  0  0  0  0  0  0  0  0
   -0.6650   15.1580    0.1160 C   0  0  0  0  0  0  0  0  0  0  0  0
    0.1430   14.0240   -0.5430 C   0  0  0  0  0  0  0  0  0  0  0  0
    0.2480   14.2340   -2.0570 C   0  0  2  0  0  0  0  0  0  0  0  0
   -1.2020   14.1770   -2.6490 C   0  0  0  0  0  0  0  0  0  0  0  0
   -0.6159   11.7143   -1.2884 H   0  0  0  0  0  0  0  0  0  0  0  0
   -1.4622   12.5207   -2.6523 H   0  0  0  0  0  0  0  0  0  0  0  0
   -1.2560   10.7363   -2.6523 H   0  0  0  0  0  0  0  0  0  0  0  0
    0.3402   11.7341   -4.1855 H   0  0  0  0  0  0  0  0  0  0  0  0
    2.0325   11.0547   -1.7651 H   0  0  0  0  0  0  0  0  0  0  0  0
    0.9939    9.8144   -2.6171 H   0  0  0  0  0  0  0  0  0  0  0  0
    2.8121    9.4406   -3.8648 H   0  0  0  0  0  0  0  0  0  0  0  0
    2.3225   10.9733   -4.7013 H   0  0  0  0  0  0  0  0  0  0  0  0
    3.7113   11.0237   -2.2883 H   0  0  0  0  0  0  0  0  0  0  0  0
    5.3661    9.1399   -5.1374 H   0  0  0  0  0  0  0  0  0  0  0  0
    4.3763   10.3746   -5.9874 H   0  0  0  0  0  0  0  0  0  0  0  0
    6.1679   10.5041   -5.9874 H   0  0  0  0  0  0  0  0  0  0  0  0
    6.3728   11.2337   -2.3548 H   0  0  0  0  0  0  0  0  0  0  0  0
    7.2517   10.4831   -3.7299 H   0  0  0  0  0  0  0  0  0  0  0  0
    6.9245   12.2493   -3.7299 H   0  0  0  0  0  0  0  0  0  0  0  0
    2.0003   12.9410   -2.2335 H   0  0  0  0  0  0  0  0  0  0  0  0
    2.5203   13.8601   -4.4062 H   0  0  0  0  0  0  0  0  0  0  0  0
    0.8549   13.6382   -4.9841 H   0  0  0  0  0  0  0  0  0  0  0  0
    2.0208   16.1234   -4.1919 H   0  0  0  0  0  0  0  0  0  0  0  0
    0.2898   15.8640   -4.3930 H   0  0  0  0  0  0  0  0  0  0  0  0
    2.4420   15.6192   -0.6644 H   0  0  0  0  0  0  0  0  0  0  0  0
    3.0229   14.7363   -2.1169 H   0  0  0  0  0  0  0  0  0  0  0  0
    2.9748   16.5320   -2.1169 H   0  0  0  0  0  0  0  0  0  0  0  0
   -0.7659   16.6847   -2.3742 H   0  0  0  0  0  0  0  0  0  0  0  0
    1.2706   18.1169   -3.0356 H   0  0  0  0  0  0  0  0  0  0  0  0
   -0.1499   18.8461   -2.1193 H   0  0  0  0  0  0  0  0  0  0  0  0
    2.2515   19.5948   -1.3347 H   0  0  0  0  0  0  0  0  0  0  0  0
    1.5384   16.2374    0.7927 H   0  0  0  0  0  0  0  0  0  0  0  0
   -0.3333   18.3461    2.0363 H   0  0  0  0  0  0  0  0  0  0  0  0
   -0.1716   16.6025    2.5303 H   0  0  0  0  0  0  0  0  0  0  0  0
    1.0139   18.1265    4.0770 H   0  0  0  0  0  0  0  0  0  0  0  0
    2.1235   16.9815    3.2269 H   0  0  0  0  0  0  0  0  0  0  0  0
    3.1404   19.1566    3.2626 H   0  0  0  0  0  0  0  0  0  0  0  0
    2.0270   20.9540    2.3580 H   0  0  0  0  0  0  0  0  0  0  0  0
    4.2149   17.4930    2.3036 H   0  0  0  0  0  0  0  0  0  0  0  0
    3.6523   16.7883    0.7501 H   0  0  0  0  0  0  0  0  0  0  0  0
    4.8937   18.0866    0.7501 H   0  0  0  0  0  0  0  0  0  0  0  0
    3.8651   20.6766    1.5794 H   0  0  0  0  0  0  0  0  0  0  0  0
    4.4434   19.8447    0.0961 H   0  0  0  0  0  0  0  0  0  0  0  0
    2.8520   20.6779    0.0961 H   0  0  0  0  0  0  0  0  0  0  0  0
   -1.7309   17.6363    1.0077 H   0  0  0  0  0  0  0  0  0  0  0  0
   -1.3846   18.4873   -0.5359 H   0  0  0  0  0  0  0  0  0  0  0  0
   -2.3970   17.0035   -0.5359 H   0  0  0  0  0  0  0  0  0  0  0  0
   -0.5589   15.0522    1.2057 H   0  0  0  0  0  0  0  0  0  0  0  0
   -1.6910   15.0369   -0.2617 H   0  0  0  0  0  0  0  0  0  0  0  0
    1.1546   14.0050   -0.1113 H   0  0  0  0  0  0  0  0  0  0  0  0
   -0.3733   13.0709   -0.3560 H   0  0  0  0  0  0  0  0  0  0  0  0
   -1.9327   14.1483   -1.8272 H   0  0  0  0  0  0  0  0  0  0  0  0
   -1.3808   15.0688   -3.2676 H   0  0  0  0  0  0  0  0  0  0  0  0
   -1.3102   13.2739   -3.2676 H   0  0  0  0  0  0  0  0  0  0  0  0
  1  2  1  0
  2  3  1  0
  3  4  1  0
  4  5  1  0
  5  6  1  0
  6  7  1  0
  7  8  1  0
  7  9  1  0
  2 10  1  0
 10 11  1  0
 11 12  1  0
 12 13  1  0
 13 14  1  1
 13 15  1  0
 15 16  1  0
 16 17  1  0
 17 18  2  0
 18 19  1  0
 19 20  1  0
 20 21  1  0
 21 22  1  0
 22 23  1  0
 22 24  1  0
 24 25  1  0
 24 26  1  0
 19 27  1  0
 27 28  1  6
 27 29  1  0
 29 30  1  0
 30 31  1  0
 31 32  1  6
  7  5  1  0
 31 10  1  0
 31 13  1  0
 27 15  1  0
 24 18  1  0
  1 33  1  0
  1 34  1  0
  1 35  1  0
  2 36  1  6
  3 37  1  0
  3 38  1  0
  4 39  1  0
  4 40  1  0
  5 41  1  1
  8 42  1  0
  8 43  1  0
  8 44  1  0
  9 45  1  0
  9 46  1  0
  9 47  1  0
 10 48  1  1
 11 49  1  0
 11 50  1  0
 12 51  1  0
 12 52  1  0
 14 53  1  0
 14 54  1  0
 14 55  1  0
 15 56  1  6
 16 57  1  0
 16 58  1  0
 17 59  1  0
 19 60  1  1
 20 61  1  0
 20 62  1  0
 21 63  1  0
 21 64  1  0
 22 65  1  1
 23 66  1  0
 25 67  1  0
 25 68  1  0
 25 69  1  0
 26 70  1  0
 26 71  1  0
 26 72  1  0
 28 73  1  0
 28 74  1  0
 28 75  1  0
 29 76  1  0
 29 77  1  0
 30 78  1  0
 30 79  1  0
 32 80  1  0
 32 81  1  0
 32 82  1  0
M  END
>  <meeko>  (10) 
{"is_sidechain": [false], "intermolecular_energy": 2.731, "internal_energy": -0.839}

$$$$
EPH_relaxed_0001_pdb2pqr_Repair_199_r2_0001_out
     RDKit          3D

 82 86  0  0  0  0  0  0  0  0999 V2000
  -14.4050    5.4280    0.4170 C   0  0  0  0  0  0  0  0  0  0  0  0
  -13.8620    6.8520    0.2730 C   0  0  2  0  0  0  0  0  0  0  0  0
  -14.9760    7.8690   -0.0470 C   0  0  0  0  0  0  0  0  0  0  0  0
  -14.5670    9.3250    0.1900 C   0  0  0  0  0  0  0  0  0  0  0  0
  -15.2860   10.2600   -0.7350 C   0  0  2  0  0  0  0  0  0  0  0  0
  -15.2180    9.9020   -2.1210 O   0  0  0  0  0  0  0  0  0  0  0  0
  -14.5810   11.1360   -1.7540 C   0  0  0  0  0  0  0  0  0  0  0  0
  -13.0920   11.1180   -1.9000 C   0  0  0  0  0  0  0  0  0  0  0  0
  -15.2870   12.3540   -2.2620 C   0  0  0  0  0  0  0  0  0  0  0  0
  -12.7920    6.8930   -0.8130 C   0  0  1  0  0  0  0  0  0  0  0  0
  -13.1580    7.8530   -1.9760 C   0  0  0  0  0  0  0  0  0  0  0  0
  -11.8310    8.4860   -2.4670 C   0  0  0  0  0  0  0  0  0  0  0  0
  -10.7230    7.6330   -1.8050 C   0  0  1  0  0  0  0  0  0  0  0  0
  -10.5990    6.3670   -2.7090 C   0  0  0  0  0  0  0  0  0  0  0  0
   -9.3410    8.3340   -1.6010 C   0  0  2  0  0  0  0  0  0  0  0  0
   -8.6330    8.7710   -2.8960 C   0  0  0  0  0  0  0  0  0  0  0  0
   -7.7140    7.7580   -3.4930 C   0  0  0  0  0  0  0  0  0  0  0  0
   -7.2470    6.6610   -2.8690 C   0  0  0  0  0  0  0  0  0  0  0  0
   -7.5630    6.4020   -1.3900 C   0  0  1  0  0  0  0  0  0  0  0  0
   -6.2640    5.9900   -0.6480 C   0  0  0  0  0  0  0  0  0  0  0  0
   -5.5610    4.8090   -1.3100 C   0  0  0  0  0  0  0  0  0  0  0  0
   -5.2120    5.1260   -2.7620 C   0  0  2  0  0  0  0  0  0  0  0  0
   -4.2220    6.1590   -2.7830 O   0  0  0  0  0  0  0  0  0  0  0  0
   -6.4420    5.5630   -3.6070 C   0  0  0  0  0  0  0  0  0  0  0  0
   -7.3740    4.3480   -3.8360 C   0  0  0  0  0  0  0  0  0  0  0  0
   -5.9300    5.9890   -5.0090 C   0  0  0  0  0  0  0  0  0  0  0  0
   -8.3550    7.5560   -0.6380 C   0  0  1  0  0  0  0  0  0  0  0  0
   -7.3540    8.6120   -0.0780 C   0  0  0  0  0  0  0  0  0  0  0  0
   -9.0970    6.9420    0.6080 C   0  0  0  0  0  0  0  0  0  0  0  0
  -10.5080    6.3740    0.3660 C   0  0  0  0  0  0  0  0  0  0  0  0
  -11.3790    7.3740   -0.4000 C   0  0  2  0  0  0  0  0  0  0  0  0
  -11.5400    8.6510    0.4940 C   0  0  0  0  0  0  0  0  0  0  0  0
  -14.5003    5.1781    1.4840 H   0  0  0  0  0  0  0  0  0  0  0  0
  -15.3916    5.3613   -0.0648 H   0  0  0  0  0  0  0  0  0  0  0  0
  -13.7132    4.7213   -0.0648 H   0  0  0  0  0  0  0  0  0  0  0  0
  -13.4221    7.1376    1.2399 H   0  0  0  0  0  0  0  0  0  0  0  0
  -15.2570    7.7550   -1.1044 H   0  0  0  0  0  0  0  0  0  0  0  0
  -15.8121    7.6550    0.6350 H   0  0  0  0  0  0  0  0  0  0  0  0
  -14.8053    9.5977    1.2287 H   0  0  0  0  0  0  0  0  0  0  0  0
  -13.4877    9.4140   -0.0030 H   0  0  0  0  0  0  0  0  0  0  0  0
  -16.0361   10.4841    0.0377 H   0  0  0  0  0  0  0  0  0  0  0  0
  -12.6259   11.1124   -0.9036 H   0  0  0  0  0  0  0  0  0  0  0  0
  -12.7886   10.2161   -2.4518 H   0  0  0  0  0  0  0  0  0  0  0  0
  -12.7668   12.0123   -2.4518 H   0  0  0  0  0  0  0  0  0  0  0  0
  -15.6365   12.9569   -1.4109 H   0  0  0  0  0  0  0  0  0  0  0  0
  -14.5947   12.9505   -2.8742 H   0  0  0  0  0  0  0  0  0  0  0  0
  -16.1487   12.0497   -2.8742 H   0  0  0  0  0  0  0  0  0  0  0  0
  -12.7624    5.8273   -1.0838 H   0  0  0  0  0  0  0  0  0  0  0  0
  -13.6359    7.2931   -2.7934 H   0  0  0  0  0  0  0  0  0  0  0  0
  -13.8651    8.6266   -1.6422 H   0  0  0  0  0  0  0  0  0  0  0  0
  -11.7582    8.4339   -3.5634 H   0  0  0  0  0  0  0  0  0  0  0  0
  -11.7530    9.5504   -2.2006 H   0  0  0  0  0  0  0  0  0  0  0  0
  -10.5113    5.4716   -2.0760 H   0  0  0  0  0  0  0  0  0  0  0  0
  -11.4930    6.2809   -3.3441 H   0  0  0  0  0  0  0  0  0  0  0  0
   -9.7053    6.4560   -3.3441 H   0  0  0  0  0  0  0  0  0  0  0  0
   -9.6228    9.2642   -1.0859 H   0  0  0  0  0  0  0  0  0  0  0  0
   -9.4055    9.0103   -3.6416 H   0  0  0  0  0  0  0  0  0  0  0  0
   -8.0028    9.6303   -2.6232 H   0  0  0  0  0  0  0  0  0  0  0  0
   -7.3908    7.9220   -4.5316 H   0  0  0  0  0  0  0  0  0  0  0  0
   -8.2826    5.5702   -1.3736 H   0  0  0  0  0  0  0  0  0  0  0  0
   -5.5766    6.8487   -0.6375 H   0  0  0  0  0  0  0  0  0  0  0  0
   -6.5445    5.6831    0.3704 H   0  0  0  0  0  0  0  0  0  0  0  0
   -4.6362    4.5851   -0.7581 H   0  0  0  0  0  0  0  0  0  0  0  0
   -6.2385    3.9425   -1.2928 H   0  0  0  0  0  0  0  0  0  0  0  0
   -4.8307    4.2010   -3.2191 H   0  0  0  0  0  0  0  0  0  0  0  0
   -4.5650    6.8830   -3.3330 H   0  0  0  0  0  0  0  0  0  0  0  0
   -7.6881    3.9386   -2.8645 H   0  0  0  0  0  0  0  0  0  0  0  0
   -8.2607    4.6678   -4.4031 H   0  0  0  0  0  0  0  0  0  0  0  0
   -6.8354    3.5745   -4.4031 H   0  0  0  0  0  0  0  0  0  0  0  0
   -5.0890    6.6888   -4.8952 H   0  0  0  0  0  0  0  0  0  0  0  0
   -5.5947    5.0996   -5.5627 H   0  0  0  0  0  0  0  0  0  0  0  0
   -6.7435    6.4805   -5.5627 H   0  0  0  0  0  0  0  0  0  0  0  0
   -7.3749    8.5900    1.0216 H   0  0  0  0  0  0  0  0  0  0  0  0
   -6.3386    8.3776   -0.4302 H   0  0  0  0  0  0  0  0  0  0  0  0
   -7.6423    9.6134   -0.4302 H   0  0  0  0  0  0  0  0  0  0  0  0
   -8.4720    6.1253    0.9982 H   0  0  0  0  0  0  0  0  0  0  0  0
   -9.2408    7.7841    1.3009 H   0  0  0  0  0  0  0  0  0  0  0  0
  -10.4266    5.4460   -0.2190 H   0  0  0  0  0  0  0  0  0  0  0  0
  -10.9775    6.1755    1.3408 H   0  0  0  0  0  0  0  0  0  0  0  0
  -11.5037    8.3628    1.5550 H   0  0  0  0  0  0  0  0  0  0  0  0
  -10.7236    9.3556    0.2773 H   0  0  0  0  0  0  0  0  0  0  0  0
  -12.5058    9.1309    0.2773 H   0  0  0  0  0  0  0  0  0  0  0  0
  1  2  1  0
  2  3  1  0
  3  4  1  0
  4  5  1  0
  5  6  1  0
  6  7  1  0
  7  8  1  0
  7  9  1  0
  2 10  1  0
 10 11  1  0
 11 12  1  0
 12 13  1  0
 13 14  1  6
 13 15  1  0
 15 16  1  0
 16 17  1  0
 17 18  2  0
 18 19  1  0
 19 20  1  0
 20 21  1  0
 21 22  1  0
 22 23  1  0
 22 24  1  0
 24 25  1  0
 24 26  1  0
 19 27  1  0
 27 28  1  1
 27 29  1  0
 29 30  1  0
 30 31  1  0
 31 32  1  1
  7  5  1  0
 31 10  1  0
 31 13  1  0
 27 15  1  0
 24 18  1  0
  1 33  1  0
  1 34  1  0
  1 35  1  0
  2 36  1  1
  3 37  1  0
  3 38  1  0
  4 39  1  0
  4 40  1  0
  5 41  1  1
  8 42  1  0
  8 43  1  0
  8 44  1  0
  9 45  1  0
  9 46  1  0
  9 47  1  0
 10 48  1  6
 11 49  1  0
 11 50  1  0
 12 51  1  0
 12 52  1  0
 14 53  1  0
 14 54  1  0
 14 55  1  0
 15 56  1  1
 16 57  1  0
 16 58  1  0
 17 59  1  0
 19 60  1  6
 20 61  1  0
 20 62  1  0
 21 63  1  0
 21 64  1  0
 22 65  1  6
 23 66  1  0
 25 67  1  0
 25 68  1  0
 25 69  1  0
 26 70  1  0
 26 71  1  0
 26 72  1  0
 28 73  1  0
 28 74  1  0
 28 75  1  0
 29 76  1  0
 29 77  1  0
 30 78  1  0
 30 79  1  0
 32 80  1  0
 32 81  1  0
 32 82  1  0
M  END
>  <meeko>  (11) 
{"is_sidechain": [false], "intermolecular_energy": 2.731, "internal_energy": -0.839}

$$$$
EPH_relaxed_0001_pdb2pqr_Repair_199_r2_0001_out
     RDKit          3D

 82 86  0  0  0  0  0  0  0  0999 V2000
   -1.9200    8.0280   -2.5070 C   0  0  0  0  0  0  0  0  0  0  0  0
   -2.1050    8.5290   -1.0720 C   0  0  2  0  0  0  0  0  0  0  0  0
   -3.5370    9.0390   -0.8150 C   0  0  0  0  0  0  0  0  0  0  0  0
   -4.5560    7.9220   -0.5770 C   0  0  0  0  0  0  0  0  0  0  0  0
   -5.3560    7.6290   -1.8100 C   0  0  2  0  0  0  0  0  0  0  0  0
   -6.4160    8.5580   -2.0700 O   0  0  0  0  0  0  0  0  0  0  0  0
   -6.8140    7.2080   -1.7810 C   0  0  0  0  0  0  0  0  0  0  0  0
   -7.5560    7.0560   -0.4900 C   0  0  0  0  0  0  0  0  0  0  0  0
   -7.3710    6.4770   -2.9620 C   0  0  0  0  0  0  0  0  0  0  0  0
   -1.0970    9.6320   -0.7720 C   0  0  1  0  0  0  0  0  0  0  0  0
    0.1480    9.1120   -0.0060 C   0  0  0  0  0  0  0  0  0  0  0  0
    1.3610    9.9340   -0.5120 C   0  0  0  0  0  0  0  0  0  0  0  0
    0.7340   11.1110   -1.2960 C   0  0  1  0  0  0  0  0  0  0  0  0
    0.3270   12.1490   -0.2040 C   0  0  0  0  0  0  0  0  0  0  0  0
    1.6290   11.7580   -2.4020 C   0  0  2  0  0  0  0  0  0  0  0  0
    2.9270   12.4100   -1.8930 C   0  0  0  0  0  0  0  0  0  0  0  0
    2.8160   13.8540   -1.5320 C   0  0  0  0  0  0  0  0  0  0  0  0
    1.8040   14.6710   -1.8780 C   0  0  0  0  0  0  0  0  0  0  0  0
    0.6740   14.1820   -2.7930 C   0  0  1  0  0  0  0  0  0  0  0  0
    0.4010   15.2430   -3.8910 C   0  0  0  0  0  0  0  0  0  0  0  0
    0.1250   16.6270   -3.3120 C   0  0  0  0  0  0  0  0  0  0  0  0
    1.2950   17.1040   -2.4550 C   0  0  2  0  0  0  0  0  0  0  0  0
    2.4300   17.3150   -3.3020 O   0  0  0  0  0  0  0  0  0  0  0  0
    1.6680   16.1100   -1.3200 C   0  0  0  0  0  0  0  0  0  0  0  0
    0.5560   16.1100   -0.2420 C   0  0  0  0  0  0  0  0  0  0  0  0
    2.9490   16.6410   -0.6230 C   0  0  0  0  0  0  0  0  0  0  0  0
    0.8480   12.7190   -3.3880 C   0  0  1  0  0  0  0  0  0  0  0  0
    1.6800   12.7760   -4.7060 C   0  0  0  0  0  0  0  0  0  0  0  0
   -0.5670   12.1510   -3.7800 C   0  0  0  0  0  0  0  0  0  0  0  0
   -1.3520   11.4170   -2.6760 C   0  0  0  0  0  0  0  0  0  0  0  0
   -0.4730   10.3730   -1.9810 C   0  0  2  0  0  0  0  0  0  0  0  0
   -0.0660    9.3030   -3.0510 C   0  0  0  0  0  0  0  0  0  0  0  0
   -1.5390    6.9962   -2.4889 H   0  0  0  0  0  0  0  0  0  0  0  0
   -2.8866    8.0528   -3.0315 H   0  0  0  0  0  0  0  0  0  0  0  0
   -1.2015    8.6750   -3.0315 H   0  0  0  0  0  0  0  0  0  0  0  0
   -1.9330    7.6759   -0.3992 H   0  0  0  0  0  0  0  0  0  0  0  0
   -3.5200    9.6882    0.0728 H   0  0  0  0  0  0  0  0  0  0  0  0
   -3.8543    9.5749   -1.7217 H   0  0  0  0  0  0  0  0  0  0  0  0
   -4.0208    7.0099   -0.2743 H   0  0  0  0  0  0  0  0  0  0  0  0
   -5.2490    8.2524    0.2107 H   0  0  0  0  0  0  0  0  0  0  0  0
   -4.4743    7.2009   -2.3093 H   0  0  0  0  0  0  0  0  0  0  0  0
   -6.8615    7.1983    0.3510 H   0  0  0  0  0  0  0  0  0  0  0  0
   -8.3562    7.8089   -0.4361 H   0  0  0  0  0  0  0  0  0  0  0  0
   -7.9957    6.0491   -0.4361 H   0  0  0  0  0  0  0  0  0  0  0  0
   -8.0035    5.6469   -2.6145 H   0  0  0  0  0  0  0  0  0  0  0  0
   -7.9738    7.1677   -3.5698 H   0  0  0  0  0  0  0  0  0  0  0  0
   -6.5451    6.0791   -3.5698 H   0  0  0  0  0  0  0  0  0  0  0  0
   -1.7396   10.3180   -0.2007 H   0  0  0  0  0  0  0  0  0  0  0  0
    0.0157    9.2593    1.0760 H   0  0  0  0  0  0  0  0  0  0  0  0
    0.2989    8.0367   -0.1820 H   0  0  0  0  0  0  0  0  0  0  0  0
    1.9587   10.3051    0.3336 H   0  0  0  0  0  0  0  0  0  0  0  0
    2.0418    9.3340   -1.1336 H   0  0  0  0  0  0  0  0  0  0  0  0
    0.4963   11.7173    0.7935 H   0  0  0  0  0  0  0  0  0  0  0  0
    0.9351   13.0585   -0.3179 H   0  0  0  0  0  0  0  0  0  0  0  0
   -0.7372   12.4028   -0.3179 H   0  0  0  0  0  0  0  0  0  0  0  0
    1.9446   10.8840   -2.9907 H   0  0  0  0  0  0  0  0  0  0  0  0
    3.2554   11.8603   -0.9986 H   0  0  0  0  0  0  0  0  0  0  0  0
    3.6410   12.3591   -2.7282 H   0  0  0  0  0  0  0  0  0  0  0  0
    3.6302   14.2871   -0.9324 H   0  0  0  0  0  0  0  0  0  0  0  0
   -0.2122   14.0735   -2.1504 H   0  0  0  0  0  0  0  0  0  0  0  0
    1.2810   15.3048   -4.5480 H   0  0  0  0  0  0  0  0  0  0  0  0
   -0.4961   14.9277   -4.4440 H   0  0  0  0  0  0  0  0  0  0  0  0
   -0.0301   17.3378   -4.1370 H   0  0  0  0  0  0  0  0  0  0  0  0
   -0.7729   16.5698   -2.6792 H   0  0  0  0  0  0  0  0  0  0  0  0
    0.9857   18.0386   -1.9642 H   0  0  0  0  0  0  0  0  0  0  0  0
    2.1010   17.4520   -4.2060 H   0  0  0  0  0  0  0  0  0  0  0  0
    0.2927   15.0729    0.0132 H   0  0  0  0  0  0  0  0  0  0  0  0
    0.9179   16.6285    0.6581 H   0  0  0  0  0  0  0  0  0  0  0  0
   -0.3324   16.6285   -0.6316 H   0  0  0  0  0  0  0  0  0  0  0  0
    2.8214   16.5881    0.4683 H   0  0  0  0  0  0  0  0  0  0  0  0
    3.8107   16.0259   -0.9216 H   0  0  0  0  0  0  0  0  0  0  0  0
    3.1228   17.6853   -0.9216 H   0  0  0  0  0  0  0  0  0  0  0  0
    2.7499   12.8493   -4.4613 H   0  0  0  0  0  0  0  0  0  0  0  0
    1.4998   11.8634   -5.2931 H   0  0  0  0  0  0  0  0  0  0  0  0
    1.3770   13.6555   -5.2931 H   0  0  0  0  0  0  0  0  0  0  0  0
   -1.1826   12.9970   -4.1195 H   0  0  0  0  0  0  0  0  0  0  0  0
   -0.3681   11.3880   -4.5470 H   0  0  0  0  0  0  0  0  0  0  0  0
   -1.6972   12.1499   -1.9318 H   0  0  0  0  0  0  0  0  0  0  0  0
   -2.2089   10.9038   -3.1367 H   0  0  0  0  0  0  0  0  0  0  0  0
    0.2810    8.3907   -2.5437 H   0  0  0  0  0  0  0  0  0  0  0  0
   -0.9361    9.0643   -3.6802 H   0  0  0  0  0  0  0  0  0  0  0  0
    0.7428    9.7029   -3.6802 H   0  0  0  0  0  0  0  0  0  0  0  0
  1  2  1  0
  2  3  1  0
  3  4  1  0
  4  5  1  0
  5  6  1  0
  6  7  1  0
  7  8  1  0
  7  9  1  0
  2 10  1  0
 10 11  1  0
 11 12  1  0
 12 13  1  0
 13 14  1  1
 13 15  1  0
 15 16  1  0
 16 17  1  0
 17 18  2  0
 18 19  1  0
 19 20  1  0
 20 21  1  0
 21 22  1  0
 22 23  1  0
 22 24  1  0
 24 25  1  0
 24 26  1  0
 19 27  1  0
 27 28  1  6
 27 29  1  0
 29 30  1  0
 30 31  1  0
 31 32  1  6
  7  5  1  0
 31 10  1  0
 31 13  1  0
 27 15  1  0
 24 18  1  0
  1 33  1  0
  1 34  1  0
  1 35  1  0
  2 36  1  1
  3 37  1  0
  3 38  1  0
  4 39  1  0
  4 40  1  0
  5 41  1  6
  8 42  1  0
  8 43  1  0
  8 44  1  0
  9 45  1  0
  9 46  1  0
  9 47  1  0
 10 48  1  1
 11 49  1  0
 11 50  1  0
 12 51  1  0
 12 52  1  0
 14 53  1  0
 14 54  1  0
 14 55  1  0
 15 56  1  6
 16 57  1  0
 16 58  1  0
 17 59  1  0
 19 60  1  1
 20 61  1  0
 20 62  1  0
 21 63  1  0
 21 64  1  0
 22 65  1  1
 23 66  1  0
 25 67  1  0
 25 68  1  0
 25 69  1  0
 26 70  1  0
 26 71  1  0
 26 72  1  0
 28 73  1  0
 28 74  1  0
 28 75  1  0
 29 76  1  0
 29 77  1  0
 30 78  1  0
 30 79  1  0
 32 80  1  0
 32 81  1  0
 32 82  1  0
M  END
>  <meeko>  (12) 
{"is_sidechain": [false], "intermolecular_energy": 2.731, "internal_energy": -0.839}

$$$$
EPH_relaxed_0001_pdb2pqr_Repair_199_r2_0001_out
     RDKit          3D

 82 86  0  0  0  0  0  0  0  0999 V2000
    0.8540   14.8850   -2.9010 C   0  0  0  0  0  0  0  0  0  0  0  0
    1.1300   14.1660   -4.2240 C   0  0  2  0  0  0  0  0  0  0  0  0
    0.4340   14.8550   -5.4150 C   0  0  0  0  0  0  0  0  0  0  0  0
    1.1530   14.6500   -6.7510 C   0  0  0  0  0  0  0  0  0  0  0  0
    0.9340   15.8040   -7.6820 C   0  0  2  0  0  0  0  0  0  0  0  0
    0.4310   15.4430   -8.9750 O   0  0  0  0  0  0  0  0  0  0  0  0
    1.7450   16.0250   -8.9450 C   0  0  0  0  0  0  0  0  0  0  0  0
    2.8370   15.0840   -9.3470 C   0  0  0  0  0  0  0  0  0  0  0  0
    1.8060   17.4050   -9.5230 C   0  0  0  0  0  0  0  0  0  0  0  0
    0.6830   12.7120   -4.1290 C   0  0  1  0  0  0  0  0  0  0  0  0
    1.8070   11.7150   -4.5190 C   0  0  0  0  0  0  0  0  0  0  0  0
    1.6310   10.4680   -3.6150 C   0  0  0  0  0  0  0  0  0  0  0  0
    0.2320   10.6420   -2.9770 C   0  0  1  0  0  0  0  0  0  0  0  0
   -0.7700   10.1500   -4.0670 C   0  0  0  0  0  0  0  0  0  0  0  0
    0.0010    9.9190   -1.6110 C   0  0  2  0  0  0  0  0  0  0  0  0
    0.1060    8.3840   -1.6590 C   0  0  0  0  0  0  0  0  0  0  0  0
   -1.1730    7.6660   -1.9360 C   0  0  0  0  0  0  0  0  0  0  0  0
   -2.4050    8.2030   -1.8570 C   0  0  0  0  0  0  0  0  0  0  0  0
   -2.6070    9.6410   -1.3600 C   0  0  1  0  0  0  0  0  0  0  0  0
   -3.7620    9.6740   -0.3250 C   0  0  0  0  0  0  0  0  0  0  0  0
   -5.0490    9.0560   -0.8640 C   0  0  0  0  0  0  0  0  0  0  0  0
   -4.8210    7.6090   -1.2930 C   0  0  2  0  0  0  0  0  0  0  0  0
   -4.5340    6.8240   -0.1320 O   0  0  0  0  0  0  0  0  0  0  0  0
   -3.6730    7.4500   -2.3290 C   0  0  0  0  0  0  0  0  0  0  0  0
   -4.1130    8.0450   -3.6890 C   0  0  0  0  0  0  0  0  0  0  0  0
   -3.4540    5.9320   -2.5700 C   0  0  0  0  0  0  0  0  0  0  0  0
   -1.3020   10.3850   -0.8430 C   0  0  1  0  0  0  0  0  0  0  0  0
   -1.0690   10.0640    0.6650 C   0  0  0  0  0  0  0  0  0  0  0  0
   -1.5260   11.9410   -0.9360 C   0  0  0  0  0  0  0  0  0  0  0  0
   -1.1660   12.6160   -2.2730 C   0  0  0  0  0  0  0  0  0  0  0  0
    0.2310   12.1970   -2.7400 C   0  0  2  0  0  0  0  0  0  0  0  0
    1.2630   12.6980   -1.6740 C   0  0  0  0  0  0  0  0  0  0  0  0
    1.1091   14.2205   -2.0624 H   0  0  0  0  0  0  0  0  0  0  0  0
    1.4658   15.7975   -2.8450 H   0  0  0  0  0  0  0  0  0  0  0  0
   -0.2112   15.1537   -2.8450 H   0  0  0  0  0  0  0  0  0  0  0  0
    2.2142   14.2099   -4.4047 H   0  0  0  0  0  0  0  0  0  0  0  0
   -0.5849   14.4500   -5.5033 H   0  0  0  0  0  0  0  0  0  0  0  0
    0.4400   15.9356   -5.2094 H   0  0  0  0  0  0  0  0  0  0  0  0
    2.2315   14.5438   -6.5626 H   0  0  0  0  0  0  0  0  0  0  0  0
    0.7443   13.7453   -7.2247 H   0  0  0  0  0  0  0  0  0  0  0  0
    0.6846   16.4666   -6.8401 H   0  0  0  0  0  0  0  0  0  0  0  0
    3.3156   14.6716   -8.4465 H   0  0  0  0  0  0  0  0  0  0  0  0
    2.4127   14.2640   -9.9450 H   0  0  0  0  0  0  0  0  0  0  0  0
    3.5853   15.6248   -9.9450 H   0  0  0  0  0  0  0  0  0  0  0  0
    1.8386   18.1428   -8.7078 H   0  0  0  0  0  0  0  0  0  0  0  0
    2.7094   17.5033  -10.1429 H   0  0  0  0  0  0  0  0  0  0  0  0
    0.9148   17.5826  -10.1429 H   0  0  0  0  0  0  0  0  0  0  0  0
   -0.1741   12.7366   -4.8180 H   0  0  0  0  0  0  0  0  0  0  0  0
    1.7120   11.4320   -5.5777 H   0  0  0  0  0  0  0  0  0  0  0  0
    2.8008   12.1660   -4.3813 H   0  0  0  0  0  0  0  0  0  0  0  0
    1.6729    9.5458   -4.2132 H   0  0  0  0  0  0  0  0  0  0  0  0
    2.4263   10.3850   -2.8596 H   0  0  0  0  0  0  0  0  0  0  0  0
   -1.6559    9.7150   -3.5811 H   0  0  0  0  0  0  0  0  0  0  0  0
   -1.0762   11.0002   -4.6942 H   0  0  0  0  0  0  0  0  0  0  0  0
   -0.2844    9.3878   -4.6942 H   0  0  0  0  0  0  0  0  0  0  0  0
    0.8613   10.2591   -1.0159 H   0  0  0  0  0  0  0  0  0  0  0  0
    0.8237    8.1169   -2.4487 H   0  0  0  0  0  0  0  0  0  0  0  0
    0.4204    8.0688   -0.6531 H   0  0  0  0  0  0  0  0  0  0  0  0
   -1.1029    6.6082   -2.2296 H   0  0  0  0  0  0  0  0  0  0  0  0
   -2.8829   10.2330   -2.2451 H   0  0  0  0  0  0  0  0  0  0  0  0
   -3.4500    9.1148    0.5694 H   0  0  0  0  0  0  0  0  0  0  0  0
   -3.9705   10.7284   -0.0911 H   0  0  0  0  0  0  0  0  0  0  0  0
   -5.8176    9.0815   -0.0775 H   0  0  0  0  0  0  0  0  0  0  0  0
   -5.3763    9.6347   -1.7403 H   0  0  0  0  0  0  0  0  0  0  0  0
   -5.7400    7.2634   -1.7889 H   0  0  0  0  0  0  0  0  0  0  0  0
   -5.3580    6.3850    0.1380 H   0  0  0  0  0  0  0  0  0  0  0  0
   -4.7588    8.9184   -3.5154 H   0  0  0  0  0  0  0  0  0  0  0  0
   -3.2242    8.3537   -4.2589 H   0  0  0  0  0  0  0  0  0  0  0  0
   -4.6685    7.2857   -4.2589 H   0  0  0  0  0  0  0  0  0  0  0  0
   -3.3793    5.4142   -1.6024 H   0  0  0  0  0  0  0  0  0  0  0  0
   -4.3027    5.5249   -3.1392 H   0  0  0  0  0  0  0  0  0  0  0  0
   -2.5248    5.7814   -3.1392 H   0  0  0  0  0  0  0  0  0  0  0  0
   -1.6034   10.8002    1.2834 H   0  0  0  0  0  0  0  0  0  0  0  0
   -1.4465    9.0551    0.8877 H   0  0  0  0  0  0  0  0  0  0  0  0
    0.0072   10.1103    0.8877 H   0  0  0  0  0  0  0  0  0  0  0  0
   -2.5908   12.1361   -0.7408 H   0  0  0  0  0  0  0  0  0  0  0  0
   -0.8349   12.3758   -0.1989 H   0  0  0  0  0  0  0  0  0  0  0  0
   -1.9032   12.3219   -3.0346 H   0  0  0  0  0  0  0  0  0  0  0  0
   -1.1752   13.7065   -2.1290 H   0  0  0  0  0  0  0  0  0  0  0  0
    0.8696   12.5070   -0.6647 H   0  0  0  0  0  0  0  0  0  0  0  0
    2.2144   12.1615   -1.8043 H   0  0  0  0  0  0  0  0  0  0  0  0
    1.4299   13.7774   -1.8043 H   0  0  0  0  0  0  0  0  0  0  0  0
  1  2  1  0
  2  3  1  0
  3  4  1  0
  4  5  1  0
  5  6  1  0
  6  7  1  0
  7  8  1  0
  7  9  1  0
  2 10  1  0
 10 11  1  0
 11 12  1  0
 12 13  1  0
 13 14  1  6
 13 15  1  0
 15 16  1  0
 16 17  1  0
 17 18  2  0
 18 19  1  0
 19 20  1  0
 20 21  1  0
 21 22  1  0
 22 23  1  0
 22 24  1  0
 24 25  1  0
 24 26  1  0
 19 27  1  0
 27 28  1  1
 27 29  1  0
 29 30  1  0
 30 31  1  0
 31 32  1  1
  7  5  1  0
 31 10  1  0
 31 13  1  0
 27 15  1  0
 24 18  1  0
  1 33  1  0
  1 34  1  0
  1 35  1  0
  2 36  1  6
  3 37  1  0
  3 38  1  0
  4 39  1  0
  4 40  1  0
  5 41  1  1
  8 42  1  0
  8 43  1  0
  8 44  1  0
  9 45  1  0
  9 46  1  0
  9 47  1  0
 10 48  1  6
 11 49  1  0
 11 50  1  0
 12 51  1  0
 12 52  1  0
 14 53  1  0
 14 54  1  0
 14 55  1  0
 15 56  1  1
 16 57  1  0
 16 58  1  0
 17 59  1  0
 19 60  1  6
 20 61  1  0
 20 62  1  0
 21 63  1  0
 21 64  1  0
 22 65  1  6
 23 66  1  0
 25 67  1  0
 25 68  1  0
 25 69  1  0
 26 70  1  0
 26 71  1  0
 26 72  1  0
 28 73  1  0
 28 74  1  0
 28 75  1  0
 29 76  1  0
 29 77  1  0
 30 78  1  0
 30 79  1  0
 32 80  1  0
 32 81  1  0
 32 82  1  0
M  END
>  <meeko>  (13) 
{"is_sidechain": [false], "intermolecular_energy": 2.731, "internal_energy": -0.839}

$$$$
EPH_relaxed_0001_pdb2pqr_Repair_199_r2_0001_out
     RDKit          3D

 82 86  0  0  0  0  0  0  0  0999 V2000
    2.1140   11.9870   -5.5970 C   0  0  0  0  0  0  0  0  0  0  0  0
    0.7860   12.6370   -5.2000 C   0  0  2  0  0  0  0  0  0  0  0  0
    0.3590   13.7390   -6.1900 C   0  0  0  0  0  0  0  0  0  0  0  0
    1.4560   14.1330   -7.1830 C   0  0  0  0  0  0  0  0  0  0  0  0
    1.2190   15.4960   -7.7590 C   0  0  2  0  0  0  0  0  0  0  0  0
    0.2970   15.5300   -8.8560 O   0  0  0  0  0  0  0  0  0  0  0  0
    1.6530   15.9010   -9.1560 C   0  0  0  0  0  0  0  0  0  0  0  0
    2.3600   14.9420  -10.0620 C   0  0  0  0  0  0  0  0  0  0  0  0
    1.8270   17.3570   -9.4570 C   0  0  0  0  0  0  0  0  0  0  0  0
    0.8910   13.2140   -3.7930 C   0  0  1  0  0  0  0  0  0  0  0  0
    2.0560   12.5930   -2.9770 C   0  0  0  0  0  0  0  0  0  0  0  0
    2.6220   13.7200   -2.0760 C   0  0  0  0  0  0  0  0  0  0  0  0
    1.5660   14.8480   -2.1530 C   0  0  1  0  0  0  0  0  0  0  0  0
    0.4540   14.4260   -1.1420 C   0  0  0  0  0  0  0  0  0  0  0  0
    2.0810   16.2970   -1.8710 C   0  0  2  0  0  0  0  0  0  0  0  0
    2.6450   16.5260   -0.4580 C   0  0  0  0  0  0  0  0  0  0  0  0
    1.6520   16.9840    0.5580 C   0  0  0  0  0  0  0  0  0  0  0  0
    0.4280   17.4750    0.2900 C   0  0  0  0  0  0  0  0  0  0  0  0
   -0.0300   17.7010   -1.1570 C   0  0  1  0  0  0  0  0  0  0  0  0
   -0.6850   19.1020   -1.2790 C   0  0  0  0  0  0  0  0  0  0  0  0
   -1.8110   19.3120   -0.2710 C   0  0  0  0  0  0  0  0  0  0  0  0
   -1.3030   19.1360    1.1580 C   0  0  2  0  0  0  0  0  0  0  0  0
   -0.3860   20.1930    1.4550 O   0  0  0  0  0  0  0  0  0  0  0  0
   -0.6140   17.7630    1.3990 C   0  0  0  0  0  0  0  0  0  0  0  0
   -1.6760   16.6360    1.3730 C   0  0  0  0  0  0  0  0  0  0  0  0
   -0.0240   17.7710    2.8340 C   0  0  0  0  0  0  0  0  0  0  0  0
    1.0630   17.4380   -2.2790 C   0  0  1  0  0  0  0  0  0  0  0  0
    1.9090   18.7270   -2.5110 C   0  0  0  0  0  0  0  0  0  0  0  0
    0.3370   17.1320   -3.6430 C   0  0  0  0  0  0  0  0  0  0  0  0
   -0.0400   15.6630   -3.9150 C   0  0  0  0  0  0  0  0  0  0  0  0
    1.1540   14.7360   -3.6650 C   0  0  2  0  0  0  0  0  0  0  0  0
    2.2810   15.1220   -4.6830 C   0  0  0  0  0  0  0  0  0  0  0  0
    2.6736   11.7131   -4.6905 H   0  0  0  0  0  0  0  0  0  0  0  0
    1.9164   11.0837   -6.1929 H   0  0  0  0  0  0  0  0  0  0  0  0
    2.7061   12.6971   -6.1929 H   0  0  0  0  0  0  0  0  0  0  0  0
    0.0139   11.8539   -5.2252 H   0  0  0  0  0  0  0  0  0  0  0  0
   -0.5104   13.3772   -6.7585 H   0  0  0  0  0  0  0  0  0  0  0  0
    0.1279   14.6344   -5.5943 H   0  0  0  0  0  0  0  0  0  0  0  0
    2.4254   14.1293   -6.6632 H   0  0  0  0  0  0  0  0  0  0  0  0
    1.4485   13.4059   -8.0084 H   0  0  0  0  0  0  0  0  0  0  0  0
    1.3696   15.9641   -6.7750 H   0  0  0  0  0  0  0  0  0  0  0  0
    2.9057   14.2018   -9.4584 H   0  0  0  0  0  0  0  0  0  0  0  0
    1.6240   14.4268  -10.6967 H   0  0  0  0  0  0  0  0  0  0  0  0
    3.0699   15.4927  -10.6967 H   0  0  0  0  0  0  0  0  0  0  0  0
    1.8944   17.9207   -8.5148 H   0  0  0  0  0  0  0  0  0  0  0  0
    2.7490   17.5035  -10.0387 H   0  0  0  0  0  0  0  0  0  0  0  0
    0.9654   17.7167  -10.0387 H   0  0  0  0  0  0  0  0  0  0  0  0
   -0.1158   12.9735   -3.4209 H   0  0  0  0  0  0  0  0  0  0  0  0
    1.6844   11.7635   -2.3575 H   0  0  0  0  0  0  0  0  0  0  0  0
    2.8342   12.1915   -3.6427 H   0  0  0  0  0  0  0  0  0  0  0  0
    2.7391   13.3676   -1.0406 H   0  0  0  0  0  0  0  0  0  0  0  0
    3.6167   14.0564   -2.4038 H   0  0  0  0  0  0  0  0  0  0  0  0
    0.8208   14.5652   -0.1143 H   0  0  0  0  0  0  0  0  0  0  0  0
   -0.4399   15.0474   -1.2996 H   0  0  0  0  0  0  0  0  0  0  0  0
    0.1975   13.3680   -1.2996 H   0  0  0  0  0  0  0  0  0  0  0  0
    2.9408   16.3779   -2.5523 H   0  0  0  0  0  0  0  0  0  0  0  0
    3.0778   15.5776   -0.1069 H   0  0  0  0  0  0  0  0  0  0  0  0
    3.3811   17.3380   -0.5519 H   0  0  0  0  0  0  0  0  0  0  0  0
    1.9457   16.9142    1.6158 H   0  0  0  0  0  0  0  0  0  0  0  0
   -0.7764   16.9205   -1.3659 H   0  0  0  0  0  0  0  0  0  0  0  0
    0.0865   19.8677   -1.1102 H   0  0  0  0  0  0  0  0  0  0  0  0
   -1.1201   19.1803   -2.2863 H   0  0  0  0  0  0  0  0  0  0  0  0
   -2.2135   20.3291   -0.3874 H   0  0  0  0  0  0  0  0  0  0  0  0
   -2.5955   18.5643   -0.4596 H   0  0  0  0  0  0  0  0  0  0  0  0
   -2.1771   19.1695    1.8250 H   0  0  0  0  0  0  0  0  0  0  0  0
    0.3760   19.8010    1.9140 H   0  0  0  0  0  0  0  0  0  0  0  0
   -1.9394   16.3565    2.4038 H   0  0  0  0  0  0  0  0  0  0  0  0
   -2.5751   16.9915    0.8484 H   0  0  0  0  0  0  0  0  0  0  0  0
   -1.2678   15.7596    0.8484 H   0  0  0  0  0  0  0  0  0  0  0  0
   -0.8437   17.7599    3.5675 H   0  0  0  0  0  0  0  0  0  0  0  0
    0.6071   16.8813    2.9759 H   0  0  0  0  0  0  0  0  0  0  0  0
    0.5828   18.6775    2.9759 H   0  0  0  0  0  0  0  0  0  0  0  0
    2.1926   19.1591   -1.5400 H   0  0  0  0  0  0  0  0  0  0  0  0
    2.8165   18.4728   -3.0783 H   0  0  0  0  0  0  0  0  0  0  0  0
    1.3147   19.4584   -3.0783 H   0  0  0  0  0  0  0  0  0  0  0  0
   -0.5902   17.7234   -3.6665 H   0  0  0  0  0  0  0  0  0  0  0  0
    1.0685   17.3906   -4.4228 H   0  0  0  0  0  0  0  0  0  0  0  0
   -0.8659   15.3739   -3.2484 H   0  0  0  0  0  0  0  0  0  0  0  0
   -0.3441   15.5677   -4.9678 H   0  0  0  0  0  0  0  0  0  0  0  0
    3.1821   15.4306   -4.1328 H   0  0  0  0  0  0  0  0  0  0  0  0
    2.5170   14.2535   -5.3154 H   0  0  0  0  0  0  0  0  0  0  0  0
    1.9350   15.9529   -5.3154 H   0  0  0  0  0  0  0  0  0  0  0  0
  1  2  1  0
  2  3  1  0
  3  4  1  0
  4  5  1  0
  5  6  1  0
  6  7  1  0
  7  8  1  0
  7  9  1  0
  2 10  1  0
 10 11  1  0
 11 12  1  0
 12 13  1  0
 13 14  1  1
 13 15  1  0
 15 16  1  0
 16 17  1  0
 17 18  2  0
 18 19  1  0
 19 20  1  0
 20 21  1  0
 21 22  1  0
 22 23  1  0
 22 24  1  0
 24 25  1  0
 24 26  1  0
 19 27  1  0
 27 28  1  6
 27 29  1  0
 29 30  1  0
 30 31  1  0
 31 32  1  6
  7  5  1  0
 31 10  1  0
 31 13  1  0
 27 15  1  0
 24 18  1  0
  1 33  1  0
  1 34  1  0
  1 35  1  0
  2 36  1  1
  3 37  1  0
  3 38  1  0
  4 39  1  0
  4 40  1  0
  5 41  1  1
  8 42  1  0
  8 43  1  0
  8 44  1  0
  9 45  1  0
  9 46  1  0
  9 47  1  0
 10 48  1  1
 11 49  1  0
 11 50  1  0
 12 51  1  0
 12 52  1  0
 14 53  1  0
 14 54  1  0
 14 55  1  0
 15 56  1  6
 16 57  1  0
 16 58  1  0
 17 59  1  0
 19 60  1  6
 20 61  1  0
 20 62  1  0
 21 63  1  0
 21 64  1  0
 22 65  1  1
 23 66  1  0
 25 67  1  0
 25 68  1  0
 25 69  1  0
 26 70  1  0
 26 71  1  0
 26 72  1  0
 28 73  1  0
 28 74  1  0
 28 75  1  0
 29 76  1  0
 29 77  1  0
 30 78  1  0
 30 79  1  0
 32 80  1  0
 32 81  1  0
 32 82  1  0
M  END
>  <meeko>  (14) 
{"is_sidechain": [false], "intermolecular_energy": 2.731, "internal_energy": -0.839}

$$$$
EPH_relaxed_0001_pdb2pqr_Repair_199_r2_0001_out
     RDKit          3D

 82 86  0  0  0  0  0  0  0  0999 V2000
   -0.3060   15.0180   -8.1440 C   0  0  0  0  0  0  0  0  0  0  0  0
    0.9590   15.1590   -7.2930 C   0  0  2  0  0  0  0  0  0  0  0  0
    2.2160   15.3910   -8.1550 C   0  0  0  0  0  0  0  0  0  0  0  0
    2.1690   16.6830   -8.9760 C   0  0  0  0  0  0  0  0  0  0  0  0
    1.8550   16.4120  -10.4160 C   0  0  2  0  0  0  0  0  0  0  0  0
    1.1640   15.1800  -10.6570 O   0  0  0  0  0  0  0  0  0  0  0  0
    2.4850   15.2850  -11.2130 C   0  0  0  0  0  0  0  0  0  0  0  0
    3.4810   14.3550  -10.5950 C   0  0  0  0  0  0  0  0  0  0  0  0
    2.5040   15.3880  -12.7060 C   0  0  0  0  0  0  0  0  0  0  0  0
    1.1440   13.9190   -6.4260 C   0  0  1  0  0  0  0  0  0  0  0  0
    2.5920   13.3630   -6.4780 C   0  0  0  0  0  0  0  0  0  0  0  0
    2.9060   12.8000   -5.0680 C   0  0  0  0  0  0  0  0  0  0  0  0
    1.5350   12.7460   -4.3550 C   0  0  1  0  0  0  0  0  0  0  0  0
    0.8670   11.4320   -4.8690 C   0  0  0  0  0  0  0  0  0  0  0  0
    1.5650   12.8050   -2.7930 C   0  0  2  0  0  0  0  0  0  0  0  0
    2.2920   11.6340   -2.1100 C   0  0  0  0  0  0  0  0  0  0  0  0
    1.4320   10.4620   -1.7690 C   0  0  0  0  0  0  0  0  0  0  0  0
    0.0860   10.4620   -1.7390 C   0  0  0  0  0  0  0  0  0  0  0  0
   -0.7070   11.7540   -1.9750 C   0  0  1  0  0  0  0  0  0  0  0  0
   -1.8150   11.8850   -0.8970 C   0  0  0  0  0  0  0  0  0  0  0  0
   -2.7130   10.6540   -0.8270 C   0  0  0  0  0  0  0  0  0  0  0  0
   -1.8950    9.3980   -0.5340 C   0  0  2  0  0  0  0  0  0  0  0  0
   -1.3580    9.4970    0.7890 O   0  0  0  0  0  0  0  0  0  0  0  0
   -0.7420    9.1670   -1.5500 C   0  0  0  0  0  0  0  0  0  0  0  0
   -1.3320    8.7620   -2.9240 C   0  0  0  0  0  0  0  0  0  0  0  0
    0.0900    7.9510   -1.0600 C   0  0  0  0  0  0  0  0  0  0  0  0
    0.1560   13.0790   -2.1280 C   0  0  1  0  0  0  0  0  0  0  0  0
    0.4400   13.6950   -0.7230 C   0  0  0  0  0  0  0  0  0  0  0  0
   -0.6820   14.1510   -2.9200 C   0  0  0  0  0  0  0  0  0  0  0  0
   -0.5770   14.1170   -4.4570 C   0  0  0  0  0  0  0  0  0  0  0  0
    0.8870   14.0690   -4.9060 C   0  0  2  0  0  0  0  0  0  0  0  0
    1.5790   15.3880   -4.4220 C   0  0  0  0  0  0  0  0  0  0  0  0
   -1.1818   14.9204   -7.4856 H   0  0  0  0  0  0  0  0  0  0  0  0
   -0.4220   15.9088   -8.7789 H   0  0  0  0  0  0  0  0  0  0  0  0
   -0.2230   14.1235   -8.7789 H   0  0  0  0  0  0  0  0  0  0  0  0
    0.8295   16.0441   -6.6528 H   0  0  0  0  0  0  0  0  0  0  0  0
    3.0906   15.4341   -7.4893 H   0  0  0  0  0  0  0  0  0  0  0  0
    2.2739   14.5573   -8.8702 H   0  0  0  0  0  0  0  0  0  0  0  0
    1.3931   17.3422   -8.5596 H   0  0  0  0  0  0  0  0  0  0  0  0
    3.1592   17.1591   -8.9241 H   0  0  0  0  0  0  0  0  0  0  0  0
    1.7471   17.4878  -10.6184 H   0  0  0  0  0  0  0  0  0  0  0  0
    3.4120   14.4194   -9.4991 H   0  0  0  0  0  0  0  0  0  0  0  0
    3.2687   13.3245  -10.9158 H   0  0  0  0  0  0  0  0  0  0  0  0
    4.4946   14.6374  -10.9158 H   0  0  0  0  0  0  0  0  0  0  0  0
    2.6963   16.4306  -12.9992 H   0  0  0  0  0  0  0  0  0  0  0  0
    3.2981   14.7416  -13.1081 H   0  0  0  0  0  0  0  0  0  0  0  0
    1.5316   15.0675  -13.1081 H   0  0  0  0  0  0  0  0  0  0  0  0
    0.3805   13.2662   -6.8742 H   0  0  0  0  0  0  0  0  0  0  0  0
    2.6639   12.5633   -7.2298 H   0  0  0  0  0  0  0  0  0  0  0  0
    3.3076   14.1504   -6.7572 H   0  0  0  0  0  0  0  0  0  0  0  0
    3.3458   11.7944   -5.1406 H   0  0  0  0  0  0  0  0  0  0  0  0
    3.6346   13.4194   -4.5244 H   0  0  0  0  0  0  0  0  0  0  0  0
    0.5554   10.8190   -4.0105 H   0  0  0  0  0  0  0  0  0  0  0  0
   -0.0132   11.6826   -5.4794 H   0  0  0  0  0  0  0  0  0  0  0  0
    1.5881   10.8685   -5.4794 H   0  0  0  0  0  0  0  0  0  0  0  0
    2.1854   13.6930   -2.6018 H   0  0  0  0  0  0  0  0  0  0  0  0
    3.0874   11.2869   -2.7859 H   0  0  0  0  0  0  0  0  0  0  0  0
    2.6673   12.0251   -1.1529 H   0  0  0  0  0  0  0  0  0  0  0  0
    1.9412    9.5189   -1.5214 H   0  0  0  0  0  0  0  0  0  0  0  0
   -1.1646   11.6530   -2.9702 H   0  0  0  0  0  0  0  0  0  0  0  0
   -1.3375   12.0291    0.0834 H   0  0  0  0  0  0  0  0  0  0  0  0
   -2.4464   12.7432   -1.1705 H   0  0  0  0  0  0  0  0  0  0  0  0
   -3.4553   10.7948   -0.0276 H   0  0  0  0  0  0  0  0  0  0  0  0
   -3.2134   10.5286   -1.7985 H   0  0  0  0  0  0  0  0  0  0  0  0
   -2.5707    8.5348   -0.6255 H   0  0  0  0  0  0  0  0  0  0  0  0
   -1.6840    8.7340    1.2960 H   0  0  0  0  0  0  0  0  0  0  0  0
   -2.2300    8.1456   -2.7701 H   0  0  0  0  0  0  0  0  0  0  0  0
   -1.6008    9.6669   -3.4887 H   0  0  0  0  0  0  0  0  0  0  0  0
   -0.5842    8.1859   -3.4887 H   0  0  0  0  0  0  0  0  0  0  0  0
    0.1017    7.9340    0.0398 H   0  0  0  0  0  0  0  0  0  0  0  0
   -0.3624    7.0216   -1.4363 H   0  0  0  0  0  0  0  0  0  0  0  0
    1.1201    8.0360   -1.4363 H   0  0  0  0  0  0  0  0  0  0  0  0
    0.1157   12.9916    0.0581 H   0  0  0  0  0  0  0  0  0  0  0  0
    1.5179   13.8878   -0.6182 H   0  0  0  0  0  0  0  0  0  0  0  0
   -0.1134   14.6399   -0.6182 H   0  0  0  0  0  0  0  0  0  0  0  0
   -1.7401   14.0083   -2.6554 H   0  0  0  0  0  0  0  0  0  0  0  0
   -0.2601   15.1228   -2.6238 H   0  0  0  0  0  0  0  0  0  0  0  0
   -1.0983   13.2245   -4.8336 H   0  0  0  0  0  0  0  0  0  0  0  0
   -1.0376   15.0309   -4.8602 H   0  0  0  0  0  0  0  0  0  0  0  0
    1.5921   15.4130   -3.3224 H   0  0  0  0  0  0  0  0  0  0  0  0
    2.6108   15.4214   -4.8018 H   0  0  0  0  0  0  0  0  0  0  0  0
    1.0201   16.2560   -4.8018 H   0  0  0  0  0  0  0  0  0  0  0  0
  1  2  1  0
  2  3  1  0
  3  4  1  0
  4  5  1  0
  5  6  1  0
  6  7  1  0
  7  8  1  0
  7  9  1  0
  2 10  1  0
 10 11  1  0
 11 12  1  0
 12 13  1  0
 13 14  1  1
 13 15  1  0
 15 16  1  0
 16 17  1  0
 17 18  2  0
 18 19  1  0
 19 20  1  0
 20 21  1  0
 21 22  1  0
 22 23  1  0
 22 24  1  0
 24 25  1  0
 24 26  1  0
 19 27  1  0
 27 28  1  1
 27 29  1  0
 29 30  1  0
 30 31  1  0
 31 32  1  1
  7  5  1  0
 31 10  1  0
 31 13  1  0
 27 15  1  0
 24 18  1  0
  1 33  1  0
  1 34  1  0
  1 35  1  0
  2 36  1  1
  3 37  1  0
  3 38  1  0
  4 39  1  0
  4 40  1  0
  5 41  1  6
  8 42  1  0
  8 43  1  0
  8 44  1  0
  9 45  1  0
  9 46  1  0
  9 47  1  0
 10 48  1  6
 11 49  1  0
 11 50  1  0
 12 51  1  0
 12 52  1  0
 14 53  1  0
 14 54  1  0
 14 55  1  0
 15 56  1  6
 16 57  1  0
 16 58  1  0
 17 59  1  0
 19 60  1  6
 20 61  1  0
 20 62  1  0
 21 63  1  0
 21 64  1  0
 22 65  1  1
 23 66  1  0
 25 67  1  0
 25 68  1  0
 25 69  1  0
 26 70  1  0
 26 71  1  0
 26 72  1  0
 28 73  1  0
 28 74  1  0
 28 75  1  0
 29 76  1  0
 29 77  1  0
 30 78  1  0
 30 79  1  0
 32 80  1  0
 32 81  1  0
 32 82  1  0
M  END
>  <meeko>  (15) 
{"is_sidechain": [false], "intermolecular_energy": 2.731, "internal_energy": -0.839}

$$$$
EPH_relaxed_0001_pdb2pqr_Repair_199_r2_0001_out
     RDKit          3D

 82 86  0  0  0  0  0  0  0  0999 V2000
   -2.4140    7.6830   -2.6760 C   0  0  0  0  0  0  0  0  0  0  0  0
   -2.3320    8.2420   -1.2530 C   0  0  2  0  0  0  0  0  0  0  0  0
   -3.6890    8.1750   -0.5240 C   0  0  0  0  0  0  0  0  0  0  0  0
   -4.8750    7.9110   -1.4550 C   0  0  0  0  0  0  0  0  0  0  0  0
   -5.9850    7.1930   -0.7480 C   0  0  2  0  0  0  0  0  0  0  0  0
   -6.4890    6.0420   -1.4380 O   0  0  0  0  0  0  0  0  0  0  0  0
   -7.4090    7.1330   -1.2700 C   0  0  0  0  0  0  0  0  0  0  0  0
   -7.7990    7.8030   -2.5500 C   0  0  0  0  0  0  0  0  0  0  0  0
   -8.5140    6.8460   -0.3020 C   0  0  0  0  0  0  0  0  0  0  0  0
   -1.8300    9.6810   -1.2880 C   0  0  1  0  0  0  0  0  0  0  0  0
   -1.4620   10.2200    0.1200 C   0  0  0  0  0  0  0  0  0  0  0  0
   -0.2490   11.1670   -0.0660 C   0  0  0  0  0  0  0  0  0  0  0  0
   -0.1690   11.4020   -1.5930 C   0  0  1  0  0  0  0  0  0  0  0  0
   -1.2340   12.5040   -1.8860 C   0  0  0  0  0  0  0  0  0  0  0  0
    1.2360   11.7920   -2.1590 C   0  0  2  0  0  0  0  0  0  0  0  0
    1.8050   13.1210   -1.6320 C   0  0  0  0  0  0  0  0  0  0  0  0
    1.4570   14.3280   -2.4380 C   0  0  0  0  0  0  0  0  0  0  0  0
    0.9590   14.3160   -3.6890 C   0  0  0  0  0  0  0  0  0  0  0  0
    0.7910   12.9990   -4.4580 C   0  0  1  0  0  0  0  0  0  0  0  0
    1.3460   13.1650   -5.8970 C   0  0  0  0  0  0  0  0  0  0  0  0
    0.7270   14.3510   -6.6300 C   0  0  0  0  0  0  0  0  0  0  0  0
    0.9660   15.6500   -5.8640 C   0  0  2  0  0  0  0  0  0  0  0  0
    2.3670   15.9420   -5.8770 O   0  0  0  0  0  0  0  0  0  0  0  0
    0.4560   15.5990   -4.3970 C   0  0  0  0  0  0  0  0  0  0  0  0
   -1.0920   15.5850   -4.3830 C   0  0  0  0  0  0  0  0  0  0  0  0
    0.8850   16.9160   -3.6960 C   0  0  0  0  0  0  0  0  0  0  0  0
    1.3480   11.6980   -3.7340 C   0  0  1  0  0  0  0  0  0  0  0  0
    2.8620   11.5140   -4.0620 C   0  0  0  0  0  0  0  0  0  0  0  0
    0.6120   10.4330   -4.3130 C   0  0  0  0  0  0  0  0  0  0  0  0
   -0.7110   10.0280   -3.6340 C   0  0  0  0  0  0  0  0  0  0  0  0
   -0.5500    9.9680   -2.1120 C   0  0  2  0  0  0  0  0  0  0  0  0
    0.5000    8.8520   -1.7850 C   0  0  0  0  0  0  0  0  0  0  0  0
   -2.5735    6.5954   -2.6341 H   0  0  0  0  0  0  0  0  0  0  0  0
   -3.2523    8.1563   -3.2081 H   0  0  0  0  0  0  0  0  0  0  0  0
   -1.4751    7.8956   -3.2081 H   0  0  0  0  0  0  0  0  0  0  0  0
   -1.6241    7.6149   -0.6912 H   0  0  0  0  0  0  0  0  0  0  0  0
   -3.6442    7.3656    0.2195 H   0  0  0  0  0  0  0  0  0  0  0  0
   -3.8552    9.1597   -0.0628 H   0  0  0  0  0  0  0  0  0  0  0  0
   -5.2546    8.8727   -1.8304 H   0  0  0  0  0  0  0  0  0  0  0  0
   -4.5270    7.2749   -2.2822 H   0  0  0  0  0  0  0  0  0  0  0  0
   -5.5696    7.4679    0.2327 H   0  0  0  0  0  0  0  0  0  0  0  0
   -8.3408    8.7338   -2.3264 H   0  0  0  0  0  0  0  0  0  0  0  0
   -6.8952    8.0357   -3.1323 H   0  0  0  0  0  0  0  0  0  0  0  0
   -8.4476    7.1320   -3.1323 H   0  0  0  0  0  0  0  0  0  0  0  0
   -8.1355    6.9443    0.7262 H   0  0  0  0  0  0  0  0  0  0  0  0
   -9.3351    7.5607   -0.4604 H   0  0  0  0  0  0  0  0  0  0  0  0
   -8.8835    5.8221   -0.4604 H   0  0  0  0  0  0  0  0  0  0  0  0
   -2.6974   10.1670   -1.7586 H   0  0  0  0  0  0  0  0  0  0  0  0
   -2.3115   10.7724    0.5480 H   0  0  0  0  0  0  0  0  0  0  0  0
   -1.2179    9.3961    0.8067 H   0  0  0  0  0  0  0  0  0  0  0  0
   -0.4123   12.1163    0.4651 H   0  0  0  0  0  0  0  0  0  0  0  0
    0.6800   10.7402    0.3399 H   0  0  0  0  0  0  0  0  0  0  0  0
   -1.6196   12.9030   -0.9362 H   0  0  0  0  0  0  0  0  0  0  0  0
   -0.7708   13.3171   -2.4642 H   0  0  0  0  0  0  0  0  0  0  0  0
   -2.0624   12.0688   -2.4642 H   0  0  0  0  0  0  0  0  0  0  0  0
    1.8847   11.0055   -1.7460 H   0  0  0  0  0  0  0  0  0  0  0  0
    1.4243   13.2727   -0.6112 H   0  0  0  0  0  0  0  0  0  0  0  0
    2.8996   13.0254   -1.6845 H   0  0  0  0  0  0  0  0  0  0  0  0
    1.6212   15.3102   -1.9707 H   0  0  0  0  0  0  0  0  0  0  0  0
   -0.2910   12.8045   -4.4964 H   0  0  0  0  0  0  0  0  0  0  0  0
    2.4343   13.3148   -5.8400 H   0  0  0  0  0  0  0  0  0  0  0  0
    1.0913   12.2549   -6.4599 H   0  0  0  0  0  0  0  0  0  0  0  0
    1.1802   14.4334   -7.6289 H   0  0  0  0  0  0  0  0  0  0  0  0
   -0.3574   14.1861   -6.7125 H   0  0  0  0  0  0  0  0  0  0  0  0
    0.3910   16.4407   -6.3681 H   0  0  0  0  0  0  0  0  0  0  0  0
    2.6550   15.9570   -6.8050 H   0  0  0  0  0  0  0  0  0  0  0  0
   -1.4493   15.5818   -3.3426 H   0  0  0  0  0  0  0  0  0  0  0  0
   -1.4715   16.4798   -4.8982 H   0  0  0  0  0  0  0  0  0  0  0  0
   -1.4552   14.6835   -4.8982 H   0  0  0  0  0  0  0  0  0  0  0  0
    0.8413   16.7818   -2.6051 H   0  0  0  0  0  0  0  0  0  0  0  0
    1.9128   17.1715   -3.9931 H   0  0  0  0  0  0  0  0  0  0  0  0
    0.2049   17.7279   -3.9931 H   0  0  0  0  0  0  0  0  0  0  0  0
    3.4343   11.4444   -3.1252 H   0  0  0  0  0  0  0  0  0  0  0  0
    3.0013   10.5923   -4.6460 H   0  0  0  0  0  0  0  0  0  0  0  0
    3.2180   12.3755   -4.6460 H   0  0  0  0  0  0  0  0  0  0  0  0
    0.3953   10.6302   -5.3732 H   0  0  0  0  0  0  0  0  0  0  0  0
    1.2980    9.5925   -4.1316 H   0  0  0  0  0  0  0  0  0  0  0  0
   -1.4855   10.7677   -3.8851 H   0  0  0  0  0  0  0  0  0  0  0  0
   -0.9999    9.0302   -3.9958 H   0  0  0  0  0  0  0  0  0  0  0  0
    0.5974    8.7485   -0.6942 H   0  0  0  0  0  0  0  0  0  0  0  0
    0.1658    7.8966   -2.2156 H   0  0  0  0  0  0  0  0  0  0  0  0
    1.4740    9.1275   -2.2156 H   0  0  0  0  0  0  0  0  0  0  0  0
  1  2  1  0
  2  3  1  0
  3  4  1  0
  4  5  1  0
  5  6  1  0
  6  7  1  0
  7  8  1  0
  7  9  1  0
  2 10  1  0
 10 11  1  0
 11 12  1  0
 12 13  1  0
 13 14  1  6
 13 15  1  0
 15 16  1  0
 16 17  1  0
 17 18  2  0
 18 19  1  0
 19 20  1  0
 20 21  1  0
 21 22  1  0
 22 23  1  0
 22 24  1  0
 24 25  1  0
 24 26  1  0
 19 27  1  0
 27 28  1  1
 27 29  1  0
 29 30  1  0
 30 31  1  0
 31 32  1  6
  7  5  1  0
 31 10  1  0
 31 13  1  0
 27 15  1  0
 24 18  1  0
  1 33  1  0
  1 34  1  0
  1 35  1  0
  2 36  1  1
  3 37  1  0
  3 38  1  0
  4 39  1  0
  4 40  1  0
  5 41  1  1
  8 42  1  0
  8 43  1  0
  8 44  1  0
  9 45  1  0
  9 46  1  0
  9 47  1  0
 10 48  1  6
 11 49  1  0
 11 50  1  0
 12 51  1  0
 12 52  1  0
 14 53  1  0
 14 54  1  0
 14 55  1  0
 15 56  1  1
 16 57  1  0
 16 58  1  0
 17 59  1  0
 19 60  1  6
 20 61  1  0
 20 62  1  0
 21 63  1  0
 21 64  1  0
 22 65  1  6
 23 66  1  0
 25 67  1  0
 25 68  1  0
 25 69  1  0
 26 70  1  0
 26 71  1  0
 26 72  1  0
 28 73  1  0
 28 74  1  0
 28 75  1  0
 29 76  1  0
 29 77  1  0
 30 78  1  0
 30 79  1  0
 32 80  1  0
 32 81  1  0
 32 82  1  0
M  END
>  <meeko>  (16) 
{"is_sidechain": [false], "intermolecular_energy": 2.731, "internal_energy": -0.839}

$$$$
EPH_relaxed_0001_pdb2pqr_Repair_199_r2_0001_out
     RDKit          3D

 82 86  0  0  0  0  0  0  0  0999 V2000
  -15.2450    8.6080    0.3870 C   0  0  0  0  0  0  0  0  0  0  0  0
  -14.3540    8.9650   -0.8060 C   0  0  2  0  0  0  0  0  0  0  0  0
  -14.6160    8.0530   -2.0210 C   0  0  0  0  0  0  0  0  0  0  0  0
  -14.6660    8.8030   -3.3540 C   0  0  0  0  0  0  0  0  0  0  0  0
  -15.2840   10.1600   -3.2040 C   0  0  2  0  0  0  0  0  0  0  0  0
  -14.9250   11.0980   -4.2270 O   0  0  0  0  0  0  0  0  0  0  0  0
  -14.4870   11.4130   -2.8950 C   0  0  0  0  0  0  0  0  0  0  0  0
  -13.0020   11.3690   -2.7170 C   0  0  0  0  0  0  0  0  0  0  0  0
  -15.1980   12.5820   -2.2880 C   0  0  0  0  0  0  0  0  0  0  0  0
  -12.8870    8.8830   -0.4000 C   0  0  1  0  0  0  0  0  0  0  0  0
  -12.6860    8.9690    1.1360 C   0  0  0  0  0  0  0  0  0  0  0  0
  -11.4840    8.0530    1.4820 C   0  0  0  0  0  0  0  0  0  0  0  0
  -10.8300    7.7360    0.1170 C   0  0  1  0  0  0  0  0  0  0  0  0
   -9.9480    8.9830   -0.2050 C   0  0  0  0  0  0  0  0  0  0  0  0
  -10.0050    6.4100    0.0370 C   0  0  2  0  0  0  0  0  0  0  0  0
   -8.7790    6.3470    0.9650 C   0  0  0  0  0  0  0  0  0  0  0  0
   -7.5040    6.8460    0.3720 C   0  0  0  0  0  0  0  0  0  0  0  0
   -7.2820    7.0600   -0.9390 C   0  0  0  0  0  0  0  0  0  0  0  0
   -8.3430    6.7000   -1.9860 C   0  0  1  0  0  0  0  0  0  0  0  0
   -7.6750    5.9350   -3.1590 C   0  0  0  0  0  0  0  0  0  0  0  0
   -6.4980    6.6970   -3.7590 C   0  0  0  0  0  0  0  0  0  0  0  0
   -5.4370    6.9850   -2.7000 C   0  0  2  0  0  0  0  0  0  0  0  0
   -4.8560    5.7470   -2.2810 O   0  0  0  0  0  0  0  0  0  0  0  0
   -5.9960    7.7450   -1.4640 C   0  0  0  0  0  0  0  0  0  0  0  0
   -6.3490    9.1990   -1.8630 C   0  0  0  0  0  0  0  0  0  0  0  0
   -4.8590    7.8470   -0.4120 C   0  0  0  0  0  0  0  0  0  0  0  0
   -9.6390    5.9620   -1.4350 C   0  0  1  0  0  0  0  0  0  0  0  0
   -9.3930    4.4230   -1.3840 C   0  0  0  0  0  0  0  0  0  0  0  0
  -10.8270    6.1890   -2.4430 C   0  0  0  0  0  0  0  0  0  0  0  0
  -11.6790    7.4560   -2.2390 C   0  0  0  0  0  0  0  0  0  0  0  0
  -12.1150    7.5940   -0.7770 C   0  0  2  0  0  0  0  0  0  0  0  0
  -13.0220    6.3640   -0.4310 C   0  0  0  0  0  0  0  0  0  0  0  0
  -14.7083    8.8230    1.3228 H   0  0  0  0  0  0  0  0  0  0  0  0
  -16.1674    9.2060    0.3476 H   0  0  0  0  0  0  0  0  0  0  0  0
  -15.4993    7.5385    0.3476 H   0  0  0  0  0  0  0  0  0  0  0  0
  -14.6005    9.9938   -1.1074 H   0  0  0  0  0  0  0  0  0  0  0  0
  -13.8113    7.3048   -2.0735 H   0  0  0  0  0  0  0  0  0  0  0  0
  -15.6053    7.5958   -1.8722 H   0  0  0  0  0  0  0  0  0  0  0  0
  -13.6412    8.9184   -3.7367 H   0  0  0  0  0  0  0  0  0  0  0  0
  -15.2844    8.2200   -4.0523 H   0  0  0  0  0  0  0  0  0  0  0  0
  -16.1829    9.7251   -2.7426 H   0  0  0  0  0  0  0  0  0  0  0  0
  -12.7614   11.3619   -1.6437 H   0  0  0  0  0  0  0  0  0  0  0  0
  -12.6030   10.4586   -3.1882 H   0  0  0  0  0  0  0  0  0  0  0  0
  -12.5498   12.2541   -3.1882 H   0  0  0  0  0  0  0  0  0  0  0  0
  -15.1536   12.5090   -1.1913 H   0  0  0  0  0  0  0  0  0  0  0  0
  -14.7141   13.5147   -2.6133 H   0  0  0  0  0  0  0  0  0  0  0  0
  -16.2488   12.5813   -2.6133 H   0  0  0  0  0  0  0  0  0  0  0  0
  -12.4915    9.7379   -0.9680 H   0  0  0  0  0  0  0  0  0  0  0  0
  -12.4695   10.0060    1.4322 H   0  0  0  0  0  0  0  0  0  0  0  0
  -13.5925    8.6500    1.6713 H   0  0  0  0  0  0  0  0  0  0  0  0
  -10.7745    8.5754    2.1406 H   0  0  0  0  0  0  0  0  0  0  0  0
  -11.7932    7.1435    2.0179 H   0  0  0  0  0  0  0  0  0  0  0  0
   -9.6173    9.4506    0.7342 H   0  0  0  0  0  0  0  0  0  0  0  0
   -9.0693    8.6700   -0.7880 H   0  0  0  0  0  0  0  0  0  0  0  0
  -10.5359    9.7072   -0.7880 H   0  0  0  0  0  0  0  0  0  0  0  0
  -10.7150    5.6670    0.4293 H   0  0  0  0  0  0  0  0  0  0  0  0
   -8.9975    6.9507    1.8582 H   0  0  0  0  0  0  0  0  0  0  0  0
   -8.6166    5.2810    1.1824 H   0  0  0  0  0  0  0  0  0  0  0  0
   -6.6754    7.0569    1.0640 H   0  0  0  0  0  0  0  0  0  0  0  0
   -8.7496    7.6560   -2.3477 H   0  0  0  0  0  0  0  0  0  0  0  0
   -7.3142    4.9647   -2.7872 H   0  0  0  0  0  0  0  0  0  0  0  0
   -8.4299    5.8103   -3.9493 H   0  0  0  0  0  0  0  0  0  0  0  0
   -6.0503    6.0933   -4.5622 H   0  0  0  0  0  0  0  0  0  0  0  0
   -6.8659    7.6544   -4.1566 H   0  0  0  0  0  0  0  0  0  0  0  0
   -4.6833    7.6423   -3.1581 H   0  0  0  0  0  0  0  0  0  0  0  0
   -4.0280    5.6280   -2.7760 H   0  0  0  0  0  0  0  0  0  0  0  0
   -6.4956    9.8030   -0.9554 H   0  0  0  0  0  0  0  0  0  0  0  0
   -5.5283    9.6253   -2.4585 H   0  0  0  0  0  0  0  0  0  0  0  0
   -7.2739    9.2016   -2.4585 H   0  0  0  0  0  0  0  0  0  0  0  0
   -5.2904    7.8083    0.5991 H   0  0  0  0  0  0  0  0  0  0  0  0
   -4.1602    7.0079   -0.5448 H   0  0  0  0  0  0  0  0  0  0  0  0
   -4.3207    8.7970   -0.5448 H   0  0  0  0  0  0  0  0  0  0  0  0
   -9.3405    4.0946   -0.3355 H   0  0  0  0  0  0  0  0  0  0  0  0
  -10.2194    3.9026   -1.8903 H   0  0  0  0  0  0  0  0  0  0  0  0
   -8.4456    4.1861   -1.8903 H   0  0  0  0  0  0  0  0  0  0  0  0
  -10.3999    6.2347   -3.4557 H   0  0  0  0  0  0  0  0  0  0  0  0
  -11.5154    5.3486   -2.2703 H   0  0  0  0  0  0  0  0  0  0  0  0
  -11.0859    8.3380   -2.5224 H   0  0  0  0  0  0  0  0  0  0  0  0
  -12.5785    7.3788   -2.8675 H   0  0  0  0  0  0  0  0  0  0  0  0
  -13.0983    6.2605    0.6615 H   0  0  0  0  0  0  0  0  0  0  0  0
  -14.0251    6.5171   -0.8558 H   0  0  0  0  0  0  0  0  0  0  0  0
  -12.5793    5.4510   -0.8558 H   0  0  0  0  0  0  0  0  0  0  0  0
  1  2  1  0
  2  3  1  0
  3  4  1  0
  4  5  1  0
  5  6  1  0
  6  7  1  0
  7  8  1  0
  7  9  1  0
  2 10  1  0
 10 11  1  0
 11 12  1  0
 12 13  1  0
 13 14  1  6
 13 15  1  0
 15 16  1  0
 16 17  1  0
 17 18  2  0
 18 19  1  0
 19 20  1  0
 20 21  1  0
 21 22  1  0
 22 23  1  0
 22 24  1  0
 24 25  1  0
 24 26  1  0
 19 27  1  0
 27 28  1  1
 27 29  1  0
 29 30  1  0
 30 31  1  0
 31 32  1  1
  7  5  1  0
 31 10  1  0
 31 13  1  0
 27 15  1  0
 24 18  1  0
  1 33  1  0
  1 34  1  0
  1 35  1  0
  2 36  1  6
  3 37  1  0
  3 38  1  0
  4 39  1  0
  4 40  1  0
  5 41  1  1
  8 42  1  0
  8 43  1  0
  8 44  1  0
  9 45  1  0
  9 46  1  0
  9 47  1  0
 10 48  1  6
 11 49  1  0
 11 50  1  0
 12 51  1  0
 12 52  1  0
 14 53  1  0
 14 54  1  0
 14 55  1  0
 15 56  1  1
 16 57  1  0
 16 58  1  0
 17 59  1  0
 19 60  1  6
 20 61  1  0
 20 62  1  0
 21 63  1  0
 21 64  1  0
 22 65  1  6
 23 66  1  0
 25 67  1  0
 25 68  1  0
 25 69  1  0
 26 70  1  0
 26 71  1  0
 26 72  1  0
 28 73  1  0
 28 74  1  0
 28 75  1  0
 29 76  1  0
 29 77  1  0
 30 78  1  0
 30 79  1  0
 32 80  1  0
 32 81  1  0
 32 82  1  0
M  END
>  <meeko>  (17) 
{"is_sidechain": [false], "intermolecular_energy": 2.731, "internal_energy": -0.839}

$$$$
EPH_relaxed_0001_pdb2pqr_Repair_199_r2_0001_out
     RDKit          3D

 82 86  0  0  0  0  0  0  0  0999 V2000
    1.1990   14.7070   -5.4460 C   0  0  0  0  0  0  0  0  0  0  0  0
    0.5670   14.3720   -4.0920 C   0  0  2  0  0  0  0  0  0  0  0  0
    1.4850   14.7500   -2.9130 C   0  0  0  0  0  0  0  0  0  0  0  0
    1.2520   16.1660   -2.3800 C   0  0  0  0  0  0  0  0  0  0  0  0
    1.9950   16.4060   -1.1000 C   0  0  2  0  0  0  0  0  0  0  0  0
    1.2280   17.0510   -0.0750 O   0  0  0  0  0  0  0  0  0  0  0  0
    2.3500   17.7890   -0.5860 C   0  0  0  0  0  0  0  0  0  0  0  0
    1.9730   19.0240   -1.3430 C   0  0  0  0  0  0  0  0  0  0  0  0
    3.4780   17.9210    0.3890 C   0  0  0  0  0  0  0  0  0  0  0  0
    0.2240   12.8880   -4.0310 C   0  0  1  0  0  0  0  0  0  0  0  0
    1.4130   11.9830   -4.4500 C   0  0  0  0  0  0  0  0  0  0  0  0
    1.3310   10.7050   -3.5760 C   0  0  0  0  0  0  0  0  0  0  0  0
   -0.0720   10.7650   -2.9280 C   0  0  1  0  0  0  0  0  0  0  0  0
   -1.0440   10.2290   -4.0250 C   0  0  0  0  0  0  0  0  0  0  0  0
   -0.2440    9.9930   -1.5790 C   0  0  2  0  0  0  0  0  0  0  0  0
   -0.0310    8.4720   -1.6650 C   0  0  0  0  0  0  0  0  0  0  0  0
   -1.2580    7.6720   -1.9540 C   0  0  0  0  0  0  0  0  0  0  0  0
   -2.5240    8.1190   -1.8560 C   0  0  0  0  0  0  0  0  0  0  0  0
   -2.8240    9.5260   -1.3240 C   0  0  1  0  0  0  0  0  0  0  0  0
   -3.9720    9.4520   -0.2830 C   0  0  0  0  0  0  0  0  0  0  0  0
   -5.2150    8.7580   -0.8310 C   0  0  0  0  0  0  0  0  0  0  0  0
   -4.8890    7.3420   -1.2970 C   0  0  2  0  0  0  0  0  0  0  0  0
   -4.5390    6.5510   -0.1560 O   0  0  0  0  0  0  0  0  0  0  0  0
   -3.7390    7.2890   -2.3410 C   0  0  0  0  0  0  0  0  0  0  0  0
   -4.2280    7.8840   -3.6840 C   0  0  0  0  0  0  0  0  0  0  0  0
   -3.4150    5.7970   -2.6200 C   0  0  0  0  0  0  0  0  0  0  0  0
   -1.5710   10.3480   -0.7940 C   0  0  1  0  0  0  0  0  0  0  0  0
   -1.3070   10.0070    0.7050 C   0  0  0  0  0  0  0  0  0  0  0  0
   -1.9060   11.8860   -0.8470 C   0  0  0  0  0  0  0  0  0  0  0  0
   -1.6030   12.6170   -2.1690 C   0  0  0  0  0  0  0  0  0  0  0  0
   -0.1820   12.3090   -2.6530 C   0  0  2  0  0  0  0  0  0  0  0  0
    0.8180   12.8560   -1.5790 C   0  0  0  0  0  0  0  0  0  0  0  0
    2.1605   15.2167   -5.2858 H   0  0  0  0  0  0  0  0  0  0  0  0
    1.3659   13.7789   -6.0124 H   0  0  0  0  0  0  0  0  0  0  0  0
    0.5246   15.3660   -6.0124 H   0  0  0  0  0  0  0  0  0  0  0  0
   -0.3518   14.9697   -3.9990 H   0  0  0  0  0  0  0  0  0  0  0  0
    1.3090   14.0374   -2.0937 H   0  0  0  0  0  0  0  0  0  0  0  0
    2.5190   14.7136   -3.2866 H   0  0  0  0  0  0  0  0  0  0  0  0
    1.5950   16.8911   -3.1327 H   0  0  0  0  0  0  0  0  0  0  0  0
    0.1769   16.2844   -2.1798 H   0  0  0  0  0  0  0  0  0  0  0  0
    2.5972   15.4980   -1.2512 H   0  0  0  0  0  0  0  0  0  0  0  0
    1.7275   19.8282   -0.6338 H   0  0  0  0  0  0  0  0  0  0  0  0
    2.8162   19.3379   -1.9758 H   0  0  0  0  0  0  0  0  0  0  0  0
    1.0982   18.8135   -1.9758 H   0  0  0  0  0  0  0  0  0  0  0  0
    3.0833   17.8748    1.4147 H   0  0  0  0  0  0  0  0  0  0  0  0
    4.1942   17.1005    0.2344 H   0  0  0  0  0  0  0  0  0  0  0  0
    3.9854   18.8847    0.2344 H   0  0  0  0  0  0  0  0  0  0  0  0
   -0.6369   12.8685   -4.7155 H   0  0  0  0  0  0  0  0  0  0  0  0
    1.3319   11.7196   -5.5149 H   0  0  0  0  0  0  0  0  0  0  0  0
    2.3732   12.4998   -4.3054 H   0  0  0  0  0  0  0  0  0  0  0  0
    1.4338    9.8027   -4.1968 H   0  0  0  0  0  0  0  0  0  0  0  0
    2.1350   10.6597   -2.8267 H   0  0  0  0  0  0  0  0  0  0  0  0
   -1.9107    9.7510   -3.5451 H   0  0  0  0  0  0  0  0  0  0  0  0
   -1.3869   11.0656   -4.6516 H   0  0  0  0  0  0  0  0  0  0  0  0
   -0.5195    9.4926   -4.6516 H   0  0  0  0  0  0  0  0  0  0  0  0
    0.5941   10.3774   -0.9792 H   0  0  0  0  0  0  0  0  0  0  0  0
    0.6990    8.2756   -2.4641 H   0  0  0  0  0  0  0  0  0  0  0  0
    0.3111    8.1556   -0.6686 H   0  0  0  0  0  0  0  0  0  0  0  0
   -1.1155    6.6293   -2.2740 H   0  0  0  0  0  0  0  0  0  0  0  0
   -3.1464   10.1180   -2.1932 H   0  0  0  0  0  0  0  0  0  0  0  0
   -3.6156    8.8947    0.5959 H   0  0  0  0  0  0  0  0  0  0  0  0
   -4.2530   10.4830   -0.0221 H   0  0  0  0  0  0  0  0  0  0  0  0
   -5.9783    8.7099   -0.0404 H   0  0  0  0  0  0  0  0  0  0  0  0
   -5.5875    9.3334   -1.6913 H   0  0  0  0  0  0  0  0  0  0  0  0
   -5.7847    6.9453   -1.7973 H   0  0  0  0  0  0  0  0  0  0  0  0
   -5.0350    5.7160   -0.2140 H   0  0  0  0  0  0  0  0  0  0  0  0
   -4.9150    8.7200   -3.4862 H   0  0  0  0  0  0  0  0  0  0  0  0
   -3.3643    8.2477   -4.2600 H   0  0  0  0  0  0  0  0  0  0  0  0
   -4.7521    7.1071   -4.2600 H   0  0  0  0  0  0  0  0  0  0  0  0
   -3.2989    5.2623   -1.6657 H   0  0  0  0  0  0  0  0  0  0  0  0
   -4.2359    5.3450   -3.1960 H   0  0  0  0  0  0  0  0  0  0  0  0
   -2.4805    5.7262   -3.1960 H   0  0  0  0  0  0  0  0  0  0  0  0
   -1.8551   10.7149    1.3441 H   0  0  0  0  0  0  0  0  0  0  0  0
   -1.6501    8.9830    0.9140 H   0  0  0  0  0  0  0  0  0  0  0  0
   -0.2297   10.0826    0.9140 H   0  0  0  0  0  0  0  0  0  0  0  0
   -2.9808   11.9999   -0.6423 H   0  0  0  0  0  0  0  0  0  0  0  0
   -1.2435   12.3511   -0.1021 H   0  0  0  0  0  0  0  0  0  0  0  0
   -2.3225   12.2900   -2.9341 H   0  0  0  0  0  0  0  0  0  0  0  0
   -1.6882   13.7003   -1.9982 H   0  0  0  0  0  0  0  0  0  0  0  0
    0.4282   12.6428   -0.5727 H   0  0  0  0  0  0  0  0  0  0  0  0
    1.7951   12.3668   -1.7049 H   0  0  0  0  0  0  0  0  0  0  0  0
    0.9331   13.9427   -1.7049 H   0  0  0  0  0  0  0  0  0  0  0  0
  1  2  1  0
  2  3  1  0
  3  4  1  0
  4  5  1  0
  5  6  1  0
  6  7  1  0
  7  8  1  0
  7  9  1  0
  2 10  1  0
 10 11  1  0
 11 12  1  0
 12 13  1  0
 13 14  1  6
 13 15  1  0
 15 16  1  0
 16 17  1  0
 17 18  2  0
 18 19  1  0
 19 20  1  0
 20 21  1  0
 21 22  1  0
 22 23  1  0
 22 24  1  0
 24 25  1  0
 24 26  1  0
 19 27  1  0
 27 28  1  1
 27 29  1  0
 29 30  1  0
 30 31  1  0
 31 32  1  1
  7  5  1  0
 31 10  1  0
 31 13  1  0
 27 15  1  0
 24 18  1  0
  1 33  1  0
  1 34  1  0
  1 35  1  0
  2 36  1  1
  3 37  1  0
  3 38  1  0
  4 39  1  0
  4 40  1  0
  5 41  1  1
  8 42  1  0
  8 43  1  0
  8 44  1  0
  9 45  1  0
  9 46  1  0
  9 47  1  0
 10 48  1  6
 11 49  1  0
 11 50  1  0
 12 51  1  0
 12 52  1  0
 14 53  1  0
 14 54  1  0
 14 55  1  0
 15 56  1  1
 16 57  1  0
 16 58  1  0
 17 59  1  0
 19 60  1  6
 20 61  1  0
 20 62  1  0
 21 63  1  0
 21 64  1  0
 22 65  1  6
 23 66  1  0
 25 67  1  0
 25 68  1  0
 25 69  1  0
 26 70  1  0
 26 71  1  0
 26 72  1  0
 28 73  1  0
 28 74  1  0
 28 75  1  0
 29 76  1  0
 29 77  1  0
 30 78  1  0
 30 79  1  0
 32 80  1  0
 32 81  1  0
 32 82  1  0
M  END
>  <meeko>  (18) 
{"is_sidechain": [false], "intermolecular_energy": 2.731, "internal_energy": -0.839}

$$$$
