EPH_relaxed_0001_pdb2pqr_Repair_291_r2_0001_out
     RDKit          3D

 82 86  0  0  0  0  0  0  0  0999 V2000
   -1.5430    8.5700   -1.7580 C   0  0  0  0  0  0  0  0  0  0  0  0
   -1.9670    9.2040   -0.4310 C   0  0  2  0  0  0  0  0  0  0  0  0
   -3.4620    9.5830   -0.4190 C   0  0  0  0  0  0  0  0  0  0  0  0
   -4.4000    8.3790   -0.2980 C   0  0  0  0  0  0  0  0  0  0  0  0
   -5.0390    8.0390   -1.6100 C   0  0  2  0  0  0  0  0  0  0  0  0
   -6.3250    8.6370   -1.8230 O   0  0  0  0  0  0  0  0  0  0  0  0
   -6.2990    7.2030   -1.7360 C   0  0  0  0  0  0  0  0  0  0  0  0
   -6.9950    6.6540   -0.5300 C   0  0  0  0  0  0  0  0  0  0  0  0
   -6.5740    6.5150   -3.0360 C   0  0  0  0  0  0  0  0  0  0  0  0
   -1.1160   10.4370   -0.1490 C   0  0  1  0  0  0  0  0  0  0  0  0
   -0.0590   10.1910    0.9610 C   0  0  0  0  0  0  0  0  0  0  0  0
    1.1940   11.0190    0.5760 C   0  0  0  0  0  0  0  0  0  0  0  0
    0.7080   11.9630   -0.5480 C   0  0  1  0  0  0  0  0  0  0  0  0
    0.0030   13.1410    0.1940 C   0  0  0  0  0  0  0  0  0  0  0  0
    1.8020   12.4770   -1.5400 C   0  0  2  0  0  0  0  0  0  0  0  0
    2.9090   13.3350   -0.9020 C   0  0  0  0  0  0  0  0  0  0  0  0
    2.6420   14.8040   -0.8760 C   0  0  0  0  0  0  0  0  0  0  0  0
    1.6980   15.4400   -1.5930 C   0  0  0  0  0  0  0  0  0  0  0  0
    0.8400   14.6820   -2.6150 C   0  0  1  0  0  0  0  0  0  0  0  0
    0.7770   15.4880   -3.9380 C   0  0  0  0  0  0  0  0  0  0  0  0
    0.3020   16.9220   -3.7270 C   0  0  0  0  0  0  0  0  0  0  0  0
    1.2130   17.6610   -2.7500 C   0  0  2  0  0  0  0  0  0  0  0  0
    2.5010   17.8210   -3.3520 O   0  0  0  0  0  0  0  0  0  0  0  0
    1.3610   16.9370   -1.3830 C   0  0  0  0  0  0  0  0  0  0  0  0
    0.0290   17.0300   -0.5980 C   0  0  0  0  0  0  0  0  0  0  0  0
    2.4140   17.7100   -0.5450 C   0  0  0  0  0  0  0  0  0  0  0  0
    1.2250   13.1570   -2.8470 C   0  0  1  0  0  0  0  0  0  0  0  0
    2.3370   13.0480   -3.9340 C   0  0  0  0  0  0  0  0  0  0  0  0
   -0.0280   12.3920   -3.4150 C   0  0  0  0  0  0  0  0  0  0  0  0
   -1.0100   11.8030   -2.3840 C   0  0  0  0  0  0  0  0  0  0  0  0
   -0.2650   10.9960   -1.3160 C   0  0  2  0  0  0  0  0  0  0  0  0
    0.4360    9.7910   -2.0300 C   0  0  0  0  0  0  0  0  0  0  0  0
   -0.9416    7.6707   -1.5591 H   0  0  0  0  0  0  0  0  0  0  0  0
   -2.4379    8.2925   -2.3343 H   0  0  0  0  0  0  0  0  0  0  0  0
   -0.9448    9.2911   -2.3343 H   0  0  0  0  0  0  0  0  0  0  0  0
   -1.8100    8.4543    0.3585 H   0  0  0  0  0  0  0  0  0  0  0  0
   -3.6439   10.2524    0.4347 H   0  0  0  0  0  0  0  0  0  0  0  0
   -3.6797   10.0651   -1.3835 H   0  0  0  0  0  0  0  0  0  0  0  0
   -3.8222    7.5110    0.0525 H   0  0  0  0  0  0  0  0  0  0  0  0
   -5.1973    8.6363    0.4148 H   0  0  0  0  0  0  0  0  0  0  0  0
   -4.0552    7.9687   -2.0971 H   0  0  0  0  0  0  0  0  0  0  0  0
   -6.5094    7.0370    0.3797 H   0  0  0  0  0  0  0  0  0  0  0  0
   -8.0498    6.9659   -0.5417 H   0  0  0  0  0  0  0  0  0  0  0  0
   -6.9373    5.5556   -0.5417 H   0  0  0  0  0  0  0  0  0  0  0  0
   -6.9758    5.5097   -2.8410 H   0  0  0  0  0  0  0  0  0  0  0  0
   -7.3082    7.0981   -3.6113 H   0  0  0  0  0  0  0  0  0  0  0  0
   -5.6402    6.4314   -3.6113 H   0  0  0  0  0  0  0  0  0  0  0  0
   -1.9090   11.1523    0.1146 H   0  0  0  0  0  0  0  0  0  0  0  0
   -0.4480   10.5230    1.9349 H   0  0  0  0  0  0  0  0  0  0  0  0
    0.1844    9.1216    1.0449 H   0  0  0  0  0  0  0  0  0  0  0  0
    1.5574   11.5971    1.4384 H   0  0  0  0  0  0  0  0  0  0  0  0
    2.0312   10.3827    0.2532 H   0  0  0  0  0  0  0  0  0  0  0  0
    0.0906   12.9947    1.2807 H   0  0  0  0  0  0  0  0  0  0  0  0
    0.4814   14.0906   -0.0878 H   0  0  0  0  0  0  0  0  0  0  0  0
   -1.0599   13.1681   -0.0878 H   0  0  0  0  0  0  0  0  0  0  0  0
    2.2910   11.5437   -1.8559 H   0  0  0  0  0  0  0  0  0  0  0  0
    3.0464   12.9961    0.1354 H   0  0  0  0  0  0  0  0  0  0  0  0
    3.8006   13.1988   -1.5316 H   0  0  0  0  0  0  0  0  0  0  0  0
    3.2706   15.4182   -0.2144 H   0  0  0  0  0  0  0  0  0  0  0  0
   -0.1654   14.6099   -2.1745 H   0  0  0  0  0  0  0  0  0  0  0  0
    1.7819   15.5115   -4.3848 H   0  0  0  0  0  0  0  0  0  0  0  0
    0.0520   14.9898   -4.5984 H   0  0  0  0  0  0  0  0  0  0  0  0
    0.3074   17.4487   -4.6927 H   0  0  0  0  0  0  0  0  0  0  0  0
   -0.7148   16.8967   -3.3080 H   0  0  0  0  0  0  0  0  0  0  0  0
    0.7492   18.6359   -2.5394 H   0  0  0  0  0  0  0  0  0  0  0  0
    2.3820   17.7850   -4.3160 H   0  0  0  0  0  0  0  0  0  0  0  0
    0.2380   17.0154    0.4819 H   0  0  0  0  0  0  0  0  0  0  0  0
   -0.4859   17.9663   -0.8592 H   0  0  0  0  0  0  0  0  0  0  0  0
   -0.6110   16.1744   -0.8592 H   0  0  0  0  0  0  0  0  0  0  0  0
    2.2114   17.5612    0.5259 H   0  0  0  0  0  0  0  0  0  0  0  0
    3.4200   17.3343   -0.7835 H   0  0  0  0  0  0  0  0  0  0  0  0
    2.3570   18.7823   -0.7835 H   0  0  0  0  0  0  0  0  0  0  0  0
    3.3183   12.9518   -3.4463 H   0  0  0  0  0  0  0  0  0  0  0  0
    2.1511   12.1638   -4.5614 H   0  0  0  0  0  0  0  0  0  0  0  0
    2.3263   13.9515   -4.5614 H   0  0  0  0  0  0  0  0  0  0  0  0
   -0.5904   13.0968   -4.0451 H   0  0  0  0  0  0  0  0  0  0  0  0
    0.3837   11.5228   -3.9488 H   0  0  0  0  0  0  0  0  0  0  0  0
   -1.5570   12.6243   -1.8980 H   0  0  0  0  0  0  0  0  0  0  0  0
   -1.7075   11.1324   -2.9073 H   0  0  0  0  0  0  0  0  0  0  0  0
    0.8378    9.1003   -1.2741 H   0  0  0  0  0  0  0  0  0  0  0  0
   -0.2951    9.2616   -2.6587 H   0  0  0  0  0  0  0  0  0  0  0  0
    1.2576   10.1649   -2.6587 H   0  0  0  0  0  0  0  0  0  0  0  0
  1  2  1  0
  2  3  1  0
  3  4  1  0
  4  5  1  0
  5  6  1  0
  6  7  1  0
  7  8  1  0
  7  9  1  0
  2 10  1  0
 10 11  1  0
 11 12  1  0
 12 13  1  0
 13 14  1  1
 13 15  1  0
 15 16  1  0
 16 17  1  0
 17 18  2  0
 18 19  1  0
 19 20  1  0
 20 21  1  0
 21 22  1  0
 22 23  1  0
 22 24  1  0
 24 25  1  0
 24 26  1  0
 19 27  1  0
 27 28  1  6
 27 29  1  0
 29 30  1  0
 30 31  1  0
 31 32  1  6
  7  5  1  0
 31 10  1  0
 31 13  1  0
 27 15  1  0
 24 18  1  0
  1 33  1  0
  1 34  1  0
  1 35  1  0
  2 36  1  1
  3 37  1  0
  3 38  1  0
  4 39  1  0
  4 40  1  0
  5 41  1  6
  8 42  1  0
  8 43  1  0
  8 44  1  0
  9 45  1  0
  9 46  1  0
  9 47  1  0
 10 48  1  1
 11 49  1  0
 11 50  1  0
 12 51  1  0
 12 52  1  0
 14 53  1  0
 14 54  1  0
 14 55  1  0
 15 56  1  6
 16 57  1  0
 16 58  1  0
 17 59  1  0
 19 60  1  1
 20 61  1  0
 20 62  1  0
 21 63  1  0
 21 64  1  0
 22 65  1  1
 23 66  1  0
 25 67  1  0
 25 68  1  0
 25 69  1  0
 26 70  1  0
 26 71  1  0
 26 72  1  0
 28 73  1  0
 28 74  1  0
 28 75  1  0
 29 76  1  0
 29 77  1  0
 30 78  1  0
 30 79  1  0
 32 80  1  0
 32 81  1  0
 32 82  1  0
M  END
>  <meeko>  (1) 
{"is_sidechain": [false], "intermolecular_energy": 2.731, "internal_energy": -0.839}

$$$$
EPH_relaxed_0001_pdb2pqr_Repair_291_r2_0001_out
     RDKit          3D

 82 86  0  0  0  0  0  0  0  0999 V2000
   -0.9180   19.0270   -3.2790 C   0  0  0  0  0  0  0  0  0  0  0  0
    0.3970   18.2470   -3.1910 C   0  0  2  0  0  0  0  0  0  0  0  0
    1.4260   18.7250   -4.2350 C   0  0  0  0  0  0  0  0  0  0  0  0
    0.8140   19.0420   -5.6020 C   0  0  0  0  0  0  0  0  0  0  0  0
    1.6520   18.5060   -6.7230 C   0  0  2  0  0  0  0  0  0  0  0  0
    1.3740   19.0810   -8.0070 O   0  0  0  0  0  0  0  0  0  0  0  0
    1.0920   17.6790   -7.8650 C   0  0  0  0  0  0  0  0  0  0  0  0
   -0.3630   17.3400   -7.9430 C   0  0  0  0  0  0  0  0  0  0  0  0
    2.0250   16.7960   -8.6340 C   0  0  0  0  0  0  0  0  0  0  0  0
    0.1300   16.7570   -3.3670 C   0  0  1  0  0  0  0  0  0  0  0  0
    0.2320   16.3020   -4.8470 C   0  0  0  0  0  0  0  0  0  0  0  0
    0.8200   14.8680   -4.8350 C   0  0  0  0  0  0  0  0  0  0  0  0
    0.7270   14.4210   -3.3570 C   0  0  1  0  0  0  0  0  0  0  0  0
   -0.7500   13.9520   -3.1730 C   0  0  0  0  0  0  0  0  0  0  0  0
    1.7430   13.3220   -2.9020 C   0  0  2  0  0  0  0  0  0  0  0  0
    1.6060   11.9690   -3.6220 C   0  0  0  0  0  0  0  0  0  0  0  0
    0.6860   10.9900   -2.9700 C   0  0  0  0  0  0  0  0  0  0  0  0
    0.2180   11.0750   -1.7110 C   0  0  0  0  0  0  0  0  0  0  0  0
    0.6910   12.1900   -0.7690 C   0  0  1  0  0  0  0  0  0  0  0  0
    1.0480   11.5820    0.6140 C   0  0  0  0  0  0  0  0  0  0  0  0
   -0.0950   10.7630    1.2060 C   0  0  0  0  0  0  0  0  0  0  0  0
   -0.4980    9.6300    0.2660 C   0  0  2  0  0  0  0  0  0  0  0  0
    0.5800    8.6920    0.1860 O   0  0  0  0  0  0  0  0  0  0  0  0
   -0.8700   10.1200   -1.1620 C   0  0  0  0  0  0  0  0  0  0  0  0
   -2.2130   10.8900   -1.1130 C   0  0  0  0  0  0  0  0  0  0  0  0
   -1.1190    8.8690   -2.0470 C   0  0  0  0  0  0  0  0  0  0  0  0
    1.8360   13.1360   -1.3340 C   0  0  1  0  0  0  0  0  0  0  0  0
    3.2350   12.5110   -1.0420 C   0  0  0  0  0  0  0  0  0  0  0  0
    1.7940   14.5090   -0.5640 C   0  0  0  0  0  0  0  0  0  0  0  0
    0.8610   15.5960   -1.1320 C   0  0  0  0  0  0  0  0  0  0  0  0
    1.0790   15.7730   -2.6380 C   0  0  2  0  0  0  0  0  0  0  0  0
    2.5510   16.2660   -2.8530 C   0  0  0  0  0  0  0  0  0  0  0  0
   -1.2841   19.2442   -2.2647 H   0  0  0  0  0  0  0  0  0  0  0  0
   -0.7490   19.9710   -3.8178 H   0  0  0  0  0  0  0  0  0  0  0  0
   -1.6654   18.4261   -3.8178 H   0  0  0  0  0  0  0  0  0  0  0  0
    0.8262   18.4325   -2.1953 H   0  0  0  0  0  0  0  0  0  0  0  0
    1.9117   19.6348   -3.8526 H   0  0  0  0  0  0  0  0  0  0  0  0
    2.1384   17.9004   -4.3852 H   0  0  0  0  0  0  0  0  0  0  0  0
   -0.1872   18.5897   -5.6577 H   0  0  0  0  0  0  0  0  0  0  0  0
    0.7594   20.1356   -5.7077 H   0  0  0  0  0  0  0  0  0  0  0  0
    2.5008   18.3445   -6.0422 H   0  0  0  0  0  0  0  0  0  0  0  0
   -0.7723   17.2446   -6.9264 H   0  0  0  0  0  0  0  0  0  0  0  0
   -0.8971   18.1378   -8.4800 H   0  0  0  0  0  0  0  0  0  0  0  0
   -0.4895   16.3883   -8.4800 H   0  0  0  0  0  0  0  0  0  0  0  0
    2.6404   16.2136   -7.9325 H   0  0  0  0  0  0  0  0  0  0  0  0
    1.4427   16.1105   -9.2673 H   0  0  0  0  0  0  0  0  0  0  0  0
    2.6774   17.4151   -9.2673 H   0  0  0  0  0  0  0  0  0  0  0  0
   -0.8788   16.6986   -2.9323 H   0  0  0  0  0  0  0  0  0  0  0  0
   -0.7650   16.2986   -5.3117 H   0  0  0  0  0  0  0  0  0  0  0  0
    0.8697   16.9853   -5.4270 H   0  0  0  0  0  0  0  0  0  0  0  0
    0.2299   14.2008   -5.4804 H   0  0  0  0  0  0  0  0  0  0  0  0
    1.8513   14.8366   -5.2164 H   0  0  0  0  0  0  0  0  0  0  0  0
   -0.9805   13.8788   -2.0999 H   0  0  0  0  0  0  0  0  0  0  0  0
   -1.4271   14.6793   -3.6447 H   0  0  0  0  0  0  0  0  0  0  0  0
   -0.8835   12.9673   -3.6447 H   0  0  0  0  0  0  0  0  0  0  0  0
    2.7061   13.7390   -3.2315 H   0  0  0  0  0  0  0  0  0  0  0  0
    1.2327   12.1612   -4.6387 H   0  0  0  0  0  0  0  0  0  0  0  0
    2.6052   11.5095   -3.5992 H   0  0  0  0  0  0  0  0  0  0  0  0
    0.3634   10.1261   -3.5696 H   0  0  0  0  0  0  0  0  0  0  0  0
   -0.1581   12.8815   -0.6651 H   0  0  0  0  0  0  0  0  0  0  0  0
    1.9254   10.9291    0.4962 H   0  0  0  0  0  0  0  0  0  0  0  0
    1.2528   12.4154    1.3021 H   0  0  0  0  0  0  0  0  0  0  0  0
    0.2281   10.3359    2.1668 H   0  0  0  0  0  0  0  0  0  0  0  0
   -0.9622   11.4240    1.3512 H   0  0  0  0  0  0  0  0  0  0  0  0
   -1.4024    9.1626    0.6827 H   0  0  0  0  0  0  0  0  0  0  0  0
    0.1970    7.8190   -0.0020 H   0  0  0  0  0  0  0  0  0  0  0  0
   -2.5025   11.0560   -0.0648 H   0  0  0  0  0  0  0  0  0  0  0  0
   -2.0984   11.8596   -1.6197 H   0  0  0  0  0  0  0  0  0  0  0  0
   -2.9919   10.3013   -1.6197 H   0  0  0  0  0  0  0  0  0  0  0  0
   -1.2932    7.9937   -1.4039 H   0  0  0  0  0  0  0  0  0  0  0  0
   -2.0010    9.0388   -2.6821 H   0  0  0  0  0  0  0  0  0  0  0  0
   -0.2392    8.6881   -2.6821 H   0  0  0  0  0  0  0  0  0  0  0  0
    3.3866   12.4433    0.0454 H   0  0  0  0  0  0  0  0  0  0  0  0
    3.2861   11.5045   -1.4827 H   0  0  0  0  0  0  0  0  0  0  0  0
    4.0188   13.1445   -1.4827 H   0  0  0  0  0  0  0  0  0  0  0  0
    1.4743   14.3021    0.4680 H   0  0  0  0  0  0  0  0  0  0  0  0
    2.8088   14.9229   -0.6581 H   0  0  0  0  0  0  0  0  0  0  0  0
   -0.1840   15.3036   -0.9515 H   0  0  0  0  0  0  0  0  0  0  0  0
    1.0862   16.5488   -0.6305 H   0  0  0  0  0  0  0  0  0  0  0  0
    3.0303   16.4265   -1.8760 H   0  0  0  0  0  0  0  0  0  0  0  0
    3.1132   15.5071   -3.4169 H   0  0  0  0  0  0  0  0  0  0  0  0
    2.5427   17.2104   -3.4169 H   0  0  0  0  0  0  0  0  0  0  0  0
  1  2  1  0
  2  3  1  0
  3  4  1  0
  4  5  1  0
  5  6  1  0
  6  7  1  0
  7  8  1  0
  7  9  1  0
  2 10  1  0
 10 11  1  0
 11 12  1  0
 12 13  1  0
 13 14  1  1
 13 15  1  0
 15 16  1  0
 16 17  1  0
 17 18  2  0
 18 19  1  0
 19 20  1  0
 20 21  1  0
 21 22  1  0
 22 23  1  0
 22 24  1  0
 24 25  1  0
 24 26  1  0
 19 27  1  0
 27 28  1  6
 27 29  1  0
 29 30  1  0
 30 31  1  0
 31 32  1  1
  7  5  1  0
 31 10  1  0
 31 13  1  0
 27 15  1  0
 24 18  1  0
  1 33  1  0
  1 34  1  0
  1 35  1  0
  2 36  1  1
  3 37  1  0
  3 38  1  0
  4 39  1  0
  4 40  1  0
  5 41  1  1
  8 42  1  0
  8 43  1  0
  8 44  1  0
  9 45  1  0
  9 46  1  0
  9 47  1  0
 10 48  1  1
 11 49  1  0
 11 50  1  0
 12 51  1  0
 12 52  1  0
 14 53  1  0
 14 54  1  0
 14 55  1  0
 15 56  1  6
 16 57  1  0
 16 58  1  0
 17 59  1  0
 19 60  1  1
 20 61  1  0
 20 62  1  0
 21 63  1  0
 21 64  1  0
 22 65  1  1
 23 66  1  0
 25 67  1  0
 25 68  1  0
 25 69  1  0
 26 70  1  0
 26 71  1  0
 26 72  1  0
 28 73  1  0
 28 74  1  0
 28 75  1  0
 29 76  1  0
 29 77  1  0
 30 78  1  0
 30 79  1  0
 32 80  1  0
 32 81  1  0
 32 82  1  0
M  END
>  <meeko>  (2) 
{"is_sidechain": [false], "intermolecular_energy": 2.731, "internal_energy": -0.839}

$$$$
EPH_relaxed_0001_pdb2pqr_Repair_291_r2_0001_out
     RDKit          3D

 82 86  0  0  0  0  0  0  0  0999 V2000
    0.4360   19.1850   -4.1310 C   0  0  0  0  0  0  0  0  0  0  0  0
    0.3250   18.4190   -2.8090 C   0  0  2  0  0  0  0  0  0  0  0  0
    1.5740   18.6030   -1.9240 C   0  0  0  0  0  0  0  0  0  0  0  0
    1.2610   19.1230   -0.5190 C   0  0  0  0  0  0  0  0  0  0  0  0
   -0.0260   19.8920   -0.4860 C   0  0  2  0  0  0  0  0  0  0  0  0
   -0.5080   20.1940    0.8300 O   0  0  0  0  0  0  0  0  0  0  0  0
   -1.3290   19.3190    0.0400 C   0  0  0  0  0  0  0  0  0  0  0  0
   -1.4100   17.9200    0.5670 C   0  0  0  0  0  0  0  0  0  0  0  0
   -2.6150   19.9390   -0.4080 C   0  0  0  0  0  0  0  0  0  0  0  0
    0.0960   16.9380   -3.0850 C   0  0  1  0  0  0  0  0  0  0  0  0
    0.1830   16.5910   -4.5960 C   0  0  0  0  0  0  0  0  0  0  0  0
    0.8110   15.1770   -4.6950 C   0  0  0  0  0  0  0  0  0  0  0  0
    0.7580   14.6250   -3.2510 C   0  0  1  0  0  0  0  0  0  0  0  0
   -0.7020   14.1010   -3.0750 C   0  0  0  0  0  0  0  0  0  0  0  0
    1.8120   13.5270   -2.8920 C   0  0  2  0  0  0  0  0  0  0  0  0
    1.7000   12.2250   -3.7040 C   0  0  0  0  0  0  0  0  0  0  0  0
    0.8200   11.1760   -3.1070 C   0  0  0  0  0  0  0  0  0  0  0  0
    0.3740   11.1590   -1.8370 C   0  0  0  0  0  0  0  0  0  0  0  0
    0.8340   12.2170   -0.8270 C   0  0  1  0  0  0  0  0  0  0  0  0
    1.2330   11.5250    0.5030 C   0  0  0  0  0  0  0  0  0  0  0  0
    0.1250   10.6340    1.0550 C   0  0  0  0  0  0  0  0  0  0  0  0
   -0.2640    9.5580    0.0440 C   0  0  2  0  0  0  0  0  0  0  0  0
    0.8380    8.6600   -0.1200 O   0  0  0  0  0  0  0  0  0  0  0  0
   -0.6760   10.1360   -1.3380 C   0  0  0  0  0  0  0  0  0  0  0  0
   -2.0390   10.8620   -1.2130 C   0  0  0  0  0  0  0  0  0  0  0  0
   -0.9070    8.9440   -2.3050 C   0  0  0  0  0  0  0  0  0  0  0  0
    1.9410   13.2340   -1.3430 C   0  0  1  0  0  0  0  0  0  0  0  0
    3.3620   12.6310   -1.1200 C   0  0  0  0  0  0  0  0  0  0  0  0
    1.8760   14.5480   -0.4780 C   0  0  0  0  0  0  0  0  0  0  0  0
    0.9020   15.6440   -0.9510 C   0  0  0  0  0  0  0  0  0  0  0  0
    1.0860   15.9330   -2.4440 C   0  0  2  0  0  0  0  0  0  0  0  0
    2.5390   16.4830   -2.6490 C   0  0  0  0  0  0  0  0  0  0  0  0
    0.5909   20.2541   -3.9234 H   0  0  0  0  0  0  0  0  0  0  0  0
    1.2873   18.7967   -4.7094 H   0  0  0  0  0  0  0  0  0  0  0  0
   -0.4905   19.0543   -4.7094 H   0  0  0  0  0  0  0  0  0  0  0  0
   -0.5329   18.8320   -2.2582 H   0  0  0  0  0  0  0  0  0  0  0  0
    2.0793   17.6305   -1.8298 H   0  0  0  0  0  0  0  0  0  0  0  0
    2.2062   19.3587   -2.4131 H   0  0  0  0  0  0  0  0  0  0  0  0
    1.1830   18.2678    0.1684 H   0  0  0  0  0  0  0  0  0  0  0  0
    2.0729   19.8002   -0.2153 H   0  0  0  0  0  0  0  0  0  0  0  0
    0.2284   20.4056   -1.4249 H   0  0  0  0  0  0  0  0  0  0  0  0
   -1.4087   17.9418    1.6668 H   0  0  0  0  0  0  0  0  0  0  0  0
   -2.3370   17.4471    0.2107 H   0  0  0  0  0  0  0  0  0  0  0  0
   -0.5437   17.3432    0.2107 H   0  0  0  0  0  0  0  0  0  0  0  0
   -3.2098   20.2258    0.4717 H   0  0  0  0  0  0  0  0  0  0  0  0
   -2.4002   20.8325   -1.0125 H   0  0  0  0  0  0  0  0  0  0  0  0
   -3.1803   19.2145   -1.0125 H   0  0  0  0  0  0  0  0  0  0  0  0
   -0.9022   16.8201   -2.6382 H   0  0  0  0  0  0  0  0  0  0  0  0
   -0.8220   16.5912   -5.0431 H   0  0  0  0  0  0  0  0  0  0  0  0
    0.7904   17.3316   -5.1369 H   0  0  0  0  0  0  0  0  0  0  0  0
    0.2278   14.5398   -5.3760 H   0  0  0  0  0  0  0  0  0  0  0  0
    1.8355   15.2024   -5.0947 H   0  0  0  0  0  0  0  0  0  0  0  0
   -0.9349   14.0174   -2.0032 H   0  0  0  0  0  0  0  0  0  0  0  0
   -1.4033   14.8035   -3.5489 H   0  0  0  0  0  0  0  0  0  0  0  0
   -0.7965   13.1128   -3.5489 H   0  0  0  0  0  0  0  0  0  0  0  0
    2.7565   13.9946   -3.2071 H   0  0  0  0  0  0  0  0  0  0  0  0
    1.3023   12.4772   -4.6981 H   0  0  0  0  0  0  0  0  0  0  0  0
    2.7120   11.7947   -3.7313 H   0  0  0  0  0  0  0  0  0  0  0  0
    0.5102   10.3472   -3.7605 H   0  0  0  0  0  0  0  0  0  0  0  0
   -0.0320   12.8743   -0.6599 H   0  0  0  0  0  0  0  0  0  0  0  0
    2.1259   10.9077    0.3251 H   0  0  0  0  0  0  0  0  0  0  0  0
    1.4270   12.3141    1.2444 H   0  0  0  0  0  0  0  0  0  0  0  0
    0.4780   10.1503    1.9777 H   0  0  0  0  0  0  0  0  0  0  0  0
   -0.7573   11.2577    1.2612 H   0  0  0  0  0  0  0  0  0  0  0  0
   -1.1469    9.0359    0.4414 H   0  0  0  0  0  0  0  0  0  0  0  0
    0.4820    7.7550   -0.1290 H   0  0  0  0  0  0  0  0  0  0  0  0
   -2.2877   10.9945   -0.1497 H   0  0  0  0  0  0  0  0  0  0  0  0
   -1.9763   11.8462   -1.7003 H   0  0  0  0  0  0  0  0  0  0  0  0
   -2.8207   10.2608   -1.7003 H   0  0  0  0  0  0  0  0  0  0  0  0
   -1.0845    8.0281   -1.7222 H   0  0  0  0  0  0  0  0  0  0  0  0
   -1.7818    9.1504   -2.9391 H   0  0  0  0  0  0  0  0  0  0  0  0
   -0.0184    8.8087   -2.9391 H   0  0  0  0  0  0  0  0  0  0  0  0
    3.5596   12.5472   -0.0411 H   0  0  0  0  0  0  0  0  0  0  0  0
    3.4135   11.6335   -1.5808 H   0  0  0  0  0  0  0  0  0  0  0  0
    4.1152   13.2871   -1.5808 H   0  0  0  0  0  0  0  0  0  0  0  0
    1.5830   14.2604    0.5425 H   0  0  0  0  0  0  0  0  0  0  0  0
    2.8767   14.9970   -0.5613 H   0  0  0  0  0  0  0  0  0  0  0  0
   -0.1306   15.3088   -0.7738 H   0  0  0  0  0  0  0  0  0  0  0  0
    1.1095   16.5653   -0.3870 H   0  0  0  0  0  0  0  0  0  0  0  0
    3.0059   16.6597   -1.6688 H   0  0  0  0  0  0  0  0  0  0  0  0
    3.1335   15.7477   -3.2111 H   0  0  0  0  0  0  0  0  0  0  0  0
    2.4976   17.4277   -3.2111 H   0  0  0  0  0  0  0  0  0  0  0  0
  1  2  1  0
  2  3  1  0
  3  4  1  0
  4  5  1  0
  5  6  1  0
  6  7  1  0
  7  8  1  0
  7  9  1  0
  2 10  1  0
 10 11  1  0
 11 12  1  0
 12 13  1  0
 13 14  1  1
 13 15  1  0
 15 16  1  0
 16 17  1  0
 17 18  2  0
 18 19  1  0
 19 20  1  0
 20 21  1  0
 21 22  1  0
 22 23  1  0
 22 24  1  0
 24 25  1  0
 24 26  1  0
 19 27  1  0
 27 28  1  6
 27 29  1  0
 29 30  1  0
 30 31  1  0
 31 32  1  1
  7  5  1  0
 31 10  1  0
 31 13  1  0
 27 15  1  0
 24 18  1  0
  1 33  1  0
  1 34  1  0
  1 35  1  0
  2 36  1  1
  3 37  1  0
  3 38  1  0
  4 39  1  0
  4 40  1  0
  5 41  1  6
  8 42  1  0
  8 43  1  0
  8 44  1  0
  9 45  1  0
  9 46  1  0
  9 47  1  0
 10 48  1  1
 11 49  1  0
 11 50  1  0
 12 51  1  0
 12 52  1  0
 14 53  1  0
 14 54  1  0
 14 55  1  0
 15 56  1  6
 16 57  1  0
 16 58  1  0
 17 59  1  0
 19 60  1  1
 20 61  1  0
 20 62  1  0
 21 63  1  0
 21 64  1  0
 22 65  1  1
 23 66  1  0
 25 67  1  0
 25 68  1  0
 25 69  1  0
 26 70  1  0
 26 71  1  0
 26 72  1  0
 28 73  1  0
 28 74  1  0
 28 75  1  0
 29 76  1  0
 29 77  1  0
 30 78  1  0
 30 79  1  0
 32 80  1  0
 32 81  1  0
 32 82  1  0
M  END
>  <meeko>  (3) 
{"is_sidechain": [false], "intermolecular_energy": 2.731, "internal_energy": -0.839}

$$$$
EPH_relaxed_0001_pdb2pqr_Repair_291_r2_0001_out
     RDKit          3D

 82 86  0  0  0  0  0  0  0  0999 V2000
    1.2680   18.8250   -4.1220 C   0  0  0  0  0  0  0  0  0  0  0  0
    0.0840   18.3220   -3.2910 C   0  0  2  0  0  0  0  0  0  0  0  0
    0.2320   18.6720   -1.7970 C   0  0  0  0  0  0  0  0  0  0  0  0
    1.2080   19.8200   -1.5270 C   0  0  0  0  0  0  0  0  0  0  0  0
    2.2850   19.4180   -0.5650 C   0  0  2  0  0  0  0  0  0  0  0  0
    1.9390   18.3280    0.3000 O   0  0  0  0  0  0  0  0  0  0  0  0
    2.1720   19.5940    0.9380 C   0  0  0  0  0  0  0  0  0  0  0  0
    0.9520   20.1940    1.5640 C   0  0  0  0  0  0  0  0  0  0  0  0
    3.4290   19.6380    1.7500 C   0  0  0  0  0  0  0  0  0  0  0  0
   -0.0670   16.8150   -3.4610 C   0  0  1  0  0  0  0  0  0  0  0  0
    0.0710   16.3640   -4.9400 C   0  0  0  0  0  0  0  0  0  0  0  0
    0.7680   14.9800   -4.9220 C   0  0  0  0  0  0  0  0  0  0  0  0
    0.7090   14.5320   -3.4430 C   0  0  1  0  0  0  0  0  0  0  0  0
   -0.7270   13.9510   -3.2570 C   0  0  0  0  0  0  0  0  0  0  0  0
    1.8070   13.5180   -2.9830 C   0  0  2  0  0  0  0  0  0  0  0  0
    1.7760   12.1550   -3.6980 C   0  0  0  0  0  0  0  0  0  0  0  0
    0.9340   11.1110   -3.0430 C   0  0  0  0  0  0  0  0  0  0  0  0
    0.4610   11.1640   -1.7840 C   0  0  0  0  0  0  0  0  0  0  0  0
    0.8450   12.3150   -0.8460 C   0  0  1  0  0  0  0  0  0  0  0  0
    1.2470   11.7420    0.5390 C   0  0  0  0  0  0  0  0  0  0  0  0
    0.1710   10.8400    1.1340 C   0  0  0  0  0  0  0  0  0  0  0  0
   -0.1420    9.6750    0.1980 C   0  0  2  0  0  0  0  0  0  0  0  0
    1.0050    8.8230    0.1220 O   0  0  0  0  0  0  0  0  0  0  0  0
   -0.5510   10.1300   -1.2310 C   0  0  0  0  0  0  0  0  0  0  0  0
   -1.9490   10.7930   -1.1860 C   0  0  0  0  0  0  0  0  0  0  0  0
   -0.7010    8.8600   -2.1110 C   0  0  0  0  0  0  0  0  0  0  0  0
    1.9140   13.3450   -1.4140 C   0  0  1  0  0  0  0  0  0  0  0  0
    3.3560   12.8310   -1.1200 C   0  0  0  0  0  0  0  0  0  0  0  0
    1.7650   14.7140   -0.6500 C   0  0  0  0  0  0  0  0  0  0  0  0
    0.7510   15.7220   -1.2220 C   0  0  0  0  0  0  0  0  0  0  0  0
    0.9560   15.9110   -2.7290 C   0  0  2  0  0  0  0  0  0  0  0  0
    2.3850   16.5160   -2.9450 C   0  0  0  0  0  0  0  0  0  0  0  0
    2.0694   19.1655   -3.4498 H   0  0  0  0  0  0  0  0  0  0  0  0
    1.6437   18.0088   -4.7565 H   0  0  0  0  0  0  0  0  0  0  0  0
    0.9413   19.6621   -4.7565 H   0  0  0  0  0  0  0  0  0  0  0  0
   -0.8190   18.8301   -3.6604 H   0  0  0  0  0  0  0  0  0  0  0  0
   -0.7564   18.9578   -1.4078 H   0  0  0  0  0  0  0  0  0  0  0  0
    0.6385   17.7805   -1.2970 H   0  0  0  0  0  0  0  0  0  0  0  0
    1.6733   20.1230   -2.4766 H   0  0  0  0  0  0  0  0  0  0  0  0
    0.6434   20.6521   -1.0812 H   0  0  0  0  0  0  0  0  0  0  0  0
    3.0669   19.7023   -1.2846 H   0  0  0  0  0  0  0  0  0  0  0  0
    1.0424   20.1496    2.6594 H   0  0  0  0  0  0  0  0  0  0  0  0
    0.8549   21.2426    1.2463 H   0  0  0  0  0  0  0  0  0  0  0  0
    0.0621   19.6307    1.2463 H   0  0  0  0  0  0  0  0  0  0  0  0
    3.1747   19.6291    2.8202 H   0  0  0  0  0  0  0  0  0  0  0  0
    4.0494   18.7610    1.5132 H   0  0  0  0  0  0  0  0  0  0  0  0
    3.9865   20.5562    1.5132 H   0  0  0  0  0  0  0  0  0  0  0  0
   -1.0682   16.6796   -3.0260 H   0  0  0  0  0  0  0  0  0  0  0  0
   -0.9224   16.2819   -5.4053 H   0  0  0  0  0  0  0  0  0  0  0  0
    0.6542   17.0925   -5.5224 H   0  0  0  0  0  0  0  0  0  0  0  0
    0.2318   14.2669   -5.5653 H   0  0  0  0  0  0  0  0  0  0  0  0
    1.7990   15.0275   -5.3024 H   0  0  0  0  0  0  0  0  0  0  0  0
   -0.9499   13.8608   -2.1836 H   0  0  0  0  0  0  0  0  0  0  0  0
   -1.4586   14.6239   -3.7281 H   0  0  0  0  0  0  0  0  0  0  0  0
   -0.7849   12.9587   -3.7281 H   0  0  0  0  0  0  0  0  0  0  0  0
    2.7345   14.0086   -3.3132 H   0  0  0  0  0  0  0  0  0  0  0  0
    1.3902   12.3137   -4.7158 H   0  0  0  0  0  0  0  0  0  0  0  0
    2.8077   11.7743   -3.6726 H   0  0  0  0  0  0  0  0  0  0  0  0
    0.6784   10.2230   -3.6398 H   0  0  0  0  0  0  0  0  0  0  0  0
   -0.0555   12.9386   -0.7449 H   0  0  0  0  0  0  0  0  0  0  0  0
    2.1722   11.1583    0.4239 H   0  0  0  0  0  0  0  0  0  0  0  0
    1.3864   12.5915    1.2238 H   0  0  0  0  0  0  0  0  0  0  0  0
    0.5255   10.4433    2.0968 H   0  0  0  0  0  0  0  0  0  0  0  0
   -0.7449   11.4323    1.2764 H   0  0  0  0  0  0  0  0  0  0  0  0
   -1.0071    9.1395    0.6161 H   0  0  0  0  0  0  0  0  0  0  0  0
    1.2560    8.5860    1.0310 H   0  0  0  0  0  0  0  0  0  0  0  0
   -2.2529   10.9371   -0.1387 H   0  0  0  0  0  0  0  0  0  0  0  0
   -1.9089   11.7680   -1.6937 H   0  0  0  0  0  0  0  0  0  0  0  0
   -2.6786   10.1450   -1.6937 H   0  0  0  0  0  0  0  0  0  0  0  0
   -0.8054    7.9762   -1.4645 H   0  0  0  0  0  0  0  0  0  0  0  0
   -1.5939    8.9573   -2.7460 H   0  0  0  0  0  0  0  0  0  0  0  0
    0.1900    8.7466   -2.7460 H   0  0  0  0  0  0  0  0  0  0  0  0
    3.5109   12.7758   -0.0324 H   0  0  0  0  0  0  0  0  0  0  0  0
    3.4857   11.8313   -1.5601 H   0  0  0  0  0  0  0  0  0  0  0  0
    4.0889   13.5233   -1.5601 H   0  0  0  0  0  0  0  0  0  0  0  0
    1.4623   14.4873    0.3829 H   0  0  0  0  0  0  0  0  0  0  0  0
    2.7445   15.2052   -0.7463 H   0  0  0  0  0  0  0  0  0  0  0  0
   -0.2680   15.3492   -1.0414 H   0  0  0  0  0  0  0  0  0  0  0  0
    0.9004   16.6911   -0.7234 H   0  0  0  0  0  0  0  0  0  0  0  0
    2.8511   16.7133   -1.9684 H   0  0  0  0  0  0  0  0  0  0  0  0
    3.0038   15.8026   -3.5091 H   0  0  0  0  0  0  0  0  0  0  0  0
    2.3034   17.4568   -3.5091 H   0  0  0  0  0  0  0  0  0  0  0  0
  1  2  1  0
  2  3  1  0
  3  4  1  0
  4  5  1  0
  5  6  1  0
  6  7  1  0
  7  8  1  0
  7  9  1  0
  2 10  1  0
 10 11  1  0
 11 12  1  0
 12 13  1  0
 13 14  1  1
 13 15  1  0
 15 16  1  0
 16 17  1  0
 17 18  2  0
 18 19  1  0
 19 20  1  0
 20 21  1  0
 21 22  1  0
 22 23  1  0
 22 24  1  0
 24 25  1  0
 24 26  1  0
 19 27  1  0
 27 28  1  6
 27 29  1  0
 29 30  1  0
 30 31  1  0
 31 32  1  1
  7  5  1  0
 31 10  1  0
 31 13  1  0
 27 15  1  0
 24 18  1  0
  1 33  1  0
  1 34  1  0
  1 35  1  0
  2 36  1  6
  3 37  1  0
  3 38  1  0
  4 39  1  0
  4 40  1  0
  5 41  1  6
  8 42  1  0
  8 43  1  0
  8 44  1  0
  9 45  1  0
  9 46  1  0
  9 47  1  0
 10 48  1  1
 11 49  1  0
 11 50  1  0
 12 51  1  0
 12 52  1  0
 14 53  1  0
 14 54  1  0
 14 55  1  0
 15 56  1  6
 16 57  1  0
 16 58  1  0
 17 59  1  0
 19 60  1  1
 20 61  1  0
 20 62  1  0
 21 63  1  0
 21 64  1  0
 22 65  1  1
 23 66  1  0
 25 67  1  0
 25 68  1  0
 25 69  1  0
 26 70  1  0
 26 71  1  0
 26 72  1  0
 28 73  1  0
 28 74  1  0
 28 75  1  0
 29 76  1  0
 29 77  1  0
 30 78  1  0
 30 79  1  0
 32 80  1  0
 32 81  1  0
 32 82  1  0
M  END
>  <meeko>  (4) 
{"is_sidechain": [false], "intermolecular_energy": 2.731, "internal_energy": -0.839}

$$$$
EPH_relaxed_0001_pdb2pqr_Repair_291_r2_0001_out
     RDKit          3D

 82 86  0  0  0  0  0  0  0  0999 V2000
    1.3880   19.6490   -1.9980 C   0  0  0  0  0  0  0  0  0  0  0  0
    2.0070   18.6880   -3.0170 C   0  0  2  0  0  0  0  0  0  0  0  0
    1.0640   18.4170   -4.2070 C   0  0  0  0  0  0  0  0  0  0  0  0
    1.7950   18.0400   -5.4980 C   0  0  0  0  0  0  0  0  0  0  0  0
    0.8510   17.9210   -6.6560 C   0  0  2  0  0  0  0  0  0  0  0  0
   -0.3720   17.2330   -6.3630 O   0  0  0  0  0  0  0  0  0  0  0  0
    0.4980   16.6020   -7.3160 C   0  0  0  0  0  0  0  0  0  0  0  0
    1.0860   15.3100   -6.8420 C   0  0  0  0  0  0  0  0  0  0  0  0
   -0.0280   16.6220   -8.7180 C   0  0  0  0  0  0  0  0  0  0  0  0
    2.3760   17.3760   -2.3360 C   0  0  1  0  0  0  0  0  0  0  0  0
    3.0100   17.5870   -0.9350 C   0  0  0  0  0  0  0  0  0  0  0  0
    2.5370   16.4080   -0.0470 C   0  0  0  0  0  0  0  0  0  0  0  0
    1.9270   15.3920   -1.0410 C   0  0  1  0  0  0  0  0  0  0  0  0
    3.1510   14.6220   -1.6290 C   0  0  0  0  0  0  0  0  0  0  0  0
    0.8560   14.4130   -0.4580 C   0  0  2  0  0  0  0  0  0  0  0  0
    1.3660   13.4680    0.6440 C   0  0  0  0  0  0  0  0  0  0  0  0
    1.8950   12.1570    0.1650 C   0  0  0  0  0  0  0  0  0  0  0  0
    1.7000   11.6360   -1.0600 C   0  0  0  0  0  0  0  0  0  0  0  0
    0.7960   12.3390   -2.0810 C   0  0  1  0  0  0  0  0  0  0  0  0
   -0.1580   11.3020   -2.7300 C   0  0  0  0  0  0  0  0  0  0  0  0
    0.5900   10.1160   -3.3320 C   0  0  0  0  0  0  0  0  0  0  0  0
    1.4310    9.4080   -2.2740 C   0  0  2  0  0  0  0  0  0  0  0  0
    0.5550    8.8010   -1.3190 O   0  0  0  0  0  0  0  0  0  0  0  0
    2.4240   10.3560   -1.5450 C   0  0  0  0  0  0  0  0  0  0  0  0
    3.5530   10.7750   -2.5190 C   0  0  0  0  0  0  0  0  0  0  0  0
    3.1080    9.5480   -0.4090 C   0  0  0  0  0  0  0  0  0  0  0  0
    0.0290   13.6280   -1.5560 C   0  0  1  0  0  0  0  0  0  0  0  0
   -1.3160   13.2120   -0.8870 C   0  0  0  0  0  0  0  0  0  0  0  0
   -0.3490   14.5380   -2.7840 C   0  0  0  0  0  0  0  0  0  0  0  0
    0.7050   15.5670   -3.2370 C   0  0  0  0  0  0  0  0  0  0  0  0
    1.2280   16.3770   -2.0470 C   0  0  2  0  0  0  0  0  0  0  0  0
    0.0230   17.1790   -1.4480 C   0  0  0  0  0  0  0  0  0  0  0  0
    1.6135   19.2989   -0.9799 H   0  0  0  0  0  0  0  0  0  0  0  0
    1.8080   20.6555   -2.1411 H   0  0  0  0  0  0  0  0  0  0  0  0
    0.2979   19.6828   -2.1411 H   0  0  0  0  0  0  0  0  0  0  0  0
    2.9130   19.1674   -3.4162 H   0  0  0  0  0  0  0  0  0  0  0  0
    0.3906   17.5908   -3.9353 H   0  0  0  0  0  0  0  0  0  0  0  0
    0.5211   19.3527   -4.4065 H   0  0  0  0  0  0  0  0  0  0  0  0
    2.5410   18.8160   -5.7247 H   0  0  0  0  0  0  0  0  0  0  0  0
    2.2760   17.0624   -5.3463 H   0  0  0  0  0  0  0  0  0  0  0  0
    1.1959   18.8818   -7.0658 H   0  0  0  0  0  0  0  0  0  0  0  0
    1.0940   15.2924   -5.7422 H   0  0  0  0  0  0  0  0  0  0  0  0
    0.4806   14.4719   -7.2177 H   0  0  0  0  0  0  0  0  0  0  0  0
    2.1156   15.2160   -7.2177 H   0  0  0  0  0  0  0  0  0  0  0  0
   -1.1270   16.6638   -8.6967 H   0  0  0  0  0  0  0  0  0  0  0  0
    0.3624   17.5059   -9.2435 H   0  0  0  0  0  0  0  0  0  0  0  0
    0.2942   15.7110   -9.2435 H   0  0  0  0  0  0  0  0  0  0  0  0
    3.0552   16.9600   -3.0947 H   0  0  0  0  0  0  0  0  0  0  0  0
    4.1073   17.5866   -1.0120 H   0  0  0  0  0  0  0  0  0  0  0  0
    2.7045   18.5522   -0.5049 H   0  0  0  0  0  0  0  0  0  0  0  0
    3.3862   15.9624    0.4917 H   0  0  0  0  0  0  0  0  0  0  0  0
    1.8155   16.7263    0.7199 H   0  0  0  0  0  0  0  0  0  0  0  0
    3.7692   14.2331   -0.8064 H   0  0  0  0  0  0  0  0  0  0  0  0
    2.7949   13.7849   -2.2475 H   0  0  0  0  0  0  0  0  0  0  0  0
    3.7514   15.3054   -2.2475 H   0  0  0  0  0  0  0  0  0  0  0  0
    0.1551   15.0998    0.0390 H   0  0  0  0  0  0  0  0  0  0  0  0
    2.1730   13.9825    1.1863 H   0  0  0  0  0  0  0  0  0  0  0  0
    0.4935   13.2332    1.2714 H   0  0  0  0  0  0  0  0  0  0  0  0
    2.4950   11.5670    0.8734 H   0  0  0  0  0  0  0  0  0  0  0  0
    1.4685   12.7564   -2.8449 H   0  0  0  0  0  0  0  0  0  0  0  0
   -0.8496   10.9289   -1.9603 H   0  0  0  0  0  0  0  0  0  0  0  0
   -0.6953   11.8072   -3.5461 H   0  0  0  0  0  0  0  0  0  0  0  0
   -0.1385    9.4046   -3.7482 H   0  0  0  0  0  0  0  0  0  0  0  0
    1.2594   10.4873   -4.1220 H   0  0  0  0  0  0  0  0  0  0  0  0
    2.0414    8.6519   -2.7894 H   0  0  0  0  0  0  0  0  0  0  0  0
    1.1000    8.2620   -0.7210 H   0  0  0  0  0  0  0  0  0  0  0  0
    4.4317   11.1011   -1.9432 H   0  0  0  0  0  0  0  0  0  0  0  0
    3.8271    9.9187   -3.1528 H   0  0  0  0  0  0  0  0  0  0  0  0
    3.2021   11.6028   -3.1528 H   0  0  0  0  0  0  0  0  0  0  0  0
    2.7793    9.9363    0.5663 H   0  0  0  0  0  0  0  0  0  0  0  0
    2.8291    8.4874   -0.4943 H   0  0  0  0  0  0  0  0  0  0  0  0
    4.2001    9.6480   -0.4943 H   0  0  0  0  0  0  0  0  0  0  0  0
   -1.2071   13.2457    0.2071 H   0  0  0  0  0  0  0  0  0  0  0  0
   -2.1104   13.9064   -1.1980 H   0  0  0  0  0  0  0  0  0  0  0  0
   -1.5796   12.1903   -1.1980 H   0  0  0  0  0  0  0  0  0  0  0  0
   -0.5559   13.8758   -3.6376 H   0  0  0  0  0  0  0  0  0  0  0  0
   -1.2080   15.1359   -2.4454 H   0  0  0  0  0  0  0  0  0  0  0  0
    1.5456   15.0371   -3.7087 H   0  0  0  0  0  0  0  0  0  0  0  0
    0.2352   16.2583   -3.9522 H   0  0  0  0  0  0  0  0  0  0  0  0
    0.0711   17.1470   -0.3495 H   0  0  0  0  0  0  0  0  0  0  0  0
    0.0735   18.2243   -1.7869 H   0  0  0  0  0  0  0  0  0  0  0  0
   -0.9217   16.7289   -1.7869 H   0  0  0  0  0  0  0  0  0  0  0  0
  1  2  1  0
  2  3  1  0
  3  4  1  0
  4  5  1  0
  5  6  1  0
  6  7  1  0
  7  8  1  0
  7  9  1  0
  2 10  1  0
 10 11  1  0
 11 12  1  0
 12 13  1  0
 13 14  1  6
 13 15  1  0
 15 16  1  0
 16 17  1  0
 17 18  2  0
 18 19  1  0
 19 20  1  0
 20 21  1  0
 21 22  1  0
 22 23  1  0
 22 24  1  0
 24 25  1  0
 24 26  1  0
 19 27  1  0
 27 28  1  1
 27 29  1  0
 29 30  1  0
 30 31  1  0
 31 32  1  1
  7  5  1  0
 31 10  1  0
 31 13  1  0
 27 15  1  0
 24 18  1  0
  1 33  1  0
  1 34  1  0
  1 35  1  0
  2 36  1  6
  3 37  1  0
  3 38  1  0
  4 39  1  0
  4 40  1  0
  5 41  1  6
  8 42  1  0
  8 43  1  0
  8 44  1  0
  9 45  1  0
  9 46  1  0
  9 47  1  0
 10 48  1  6
 11 49  1  0
 11 50  1  0
 12 51  1  0
 12 52  1  0
 14 53  1  0
 14 54  1  0
 14 55  1  0
 15 56  1  1
 16 57  1  0
 16 58  1  0
 17 59  1  0
 19 60  1  6
 20 61  1  0
 20 62  1  0
 21 63  1  0
 21 64  1  0
 22 65  1  6
 23 66  1  0
 25 67  1  0
 25 68  1  0
 25 69  1  0
 26 70  1  0
 26 71  1  0
 26 72  1  0
 28 73  1  0
 28 74  1  0
 28 75  1  0
 29 76  1  0
 29 77  1  0
 30 78  1  0
 30 79  1  0
 32 80  1  0
 32 81  1  0
 32 82  1  0
M  END
>  <meeko>  (5) 
{"is_sidechain": [false], "intermolecular_energy": 2.731, "internal_energy": -0.839}

$$$$
EPH_relaxed_0001_pdb2pqr_Repair_291_r2_0001_out
     RDKit          3D

 82 86  0  0  0  0  0  0  0  0999 V2000
    3.8490   17.5550    0.4040 C   0  0  0  0  0  0  0  0  0  0  0  0
    2.6390   17.8530   -0.4860 C   0  0  2  0  0  0  0  0  0  0  0  0
    1.9690   19.1940   -0.1240 C   0  0  0  0  0  0  0  0  0  0  0  0
    1.7790   20.1300   -1.3210 C   0  0  0  0  0  0  0  0  0  0  0  0
    1.4370   19.3720   -2.5680 C   0  0  2  0  0  0  0  0  0  0  0  0
    1.1500   20.1940   -3.7070 O   0  0  0  0  0  0  0  0  0  0  0  0
    0.0620   19.3960   -3.2110 C   0  0  0  0  0  0  0  0  0  0  0  0
   -1.0600   20.1940   -2.6240 C   0  0  0  0  0  0  0  0  0  0  0  0
   -0.3220   18.2700   -4.1180 C   0  0  0  0  0  0  0  0  0  0  0  0
    1.6260   16.7190   -0.3830 C   0  0  1  0  0  0  0  0  0  0  0  0
    0.1630   17.2070   -0.5640 C   0  0  0  0  0  0  0  0  0  0  0  0
   -0.5970   16.0750   -1.3020 C   0  0  0  0  0  0  0  0  0  0  0  0
    0.3500   14.8540   -1.2250 C   0  0  1  0  0  0  0  0  0  0  0  0
    0.1180   14.2550    0.1980 C   0  0  0  0  0  0  0  0  0  0  0  0
    0.1770   13.7740   -2.3410 C   0  0  2  0  0  0  0  0  0  0  0  0
   -1.1940   13.0740   -2.3650 C   0  0  0  0  0  0  0  0  0  0  0  0
   -1.2900   11.8330   -1.5410 C   0  0  0  0  0  0  0  0  0  0  0  0
   -0.2480   11.1440   -1.0400 C   0  0  0  0  0  0  0  0  0  0  0  0
    1.1950   11.5460   -1.3710 C   0  0  1  0  0  0  0  0  0  0  0  0
    2.0080   10.2840   -1.7610 C   0  0  0  0  0  0  0  0  0  0  0  0
    1.9360    9.1910   -0.6990 C   0  0  0  0  0  0  0  0  0  0  0  0
    0.4900    8.7770   -0.4400 C   0  0  2  0  0  0  0  0  0  0  0  0
   -0.0250    8.1390   -1.6130 O   0  0  0  0  0  0  0  0  0  0  0  0
   -0.4280    9.9680   -0.0480 C   0  0  0  0  0  0  0  0  0  0  0  0
   -0.0560   10.4680    1.3700 C   0  0  0  0  0  0  0  0  0  0  0  0
   -1.8840    9.4380    0.0470 C   0  0  0  0  0  0  0  0  0  0  0  0
    1.3610   12.7280   -2.4210 C   0  0  1  0  0  0  0  0  0  0  0  0
    1.3540   12.1560   -3.8710 C   0  0  0  0  0  0  0  0  0  0  0  0
    2.7690   13.4020   -2.2160 C   0  0  0  0  0  0  0  0  0  0  0  0
    2.8500   14.5440   -1.1850 C   0  0  0  0  0  0  0  0  0  0  0  0
    1.7370   15.5700   -1.4150 C   0  0  2  0  0  0  0  0  0  0  0  0
    1.9570   16.2060   -2.8300 C   0  0  0  0  0  0  0  0  0  0  0  0
    3.5535   17.6278    1.4611 H   0  0  0  0  0  0  0  0  0  0  0  0
    4.2166   16.5395    0.1951 H   0  0  0  0  0  0  0  0  0  0  0  0
    4.6461   18.2837    0.1951 H   0  0  0  0  0  0  0  0  0  0  0  0
    3.0011   17.9340   -1.5215 H   0  0  0  0  0  0  0  0  0  0  0  0
    0.9813   18.9823    0.3116 H   0  0  0  0  0  0  0  0  0  0  0  0
    2.6379   19.7072    0.5825 H   0  0  0  0  0  0  0  0  0  0  0  0
    0.9643   20.8343   -1.0971 H   0  0  0  0  0  0  0  0  0  0  0  0
    2.7253   20.6639   -1.4927 H   0  0  0  0  0  0  0  0  0  0  0  0
    2.1004   18.5445   -2.2762 H   0  0  0  0  0  0  0  0  0  0  0  0
   -1.0034   20.1538   -1.5262 H   0  0  0  0  0  0  0  0  0  0  0  0
   -0.9800   21.2393   -2.9572 H   0  0  0  0  0  0  0  0  0  0  0  0
   -2.0211   19.7755   -2.9572 H   0  0  0  0  0  0  0  0  0  0  0  0
   -0.6191   17.3989   -3.5156 H   0  0  0  0  0  0  0  0  0  0  0  0
   -1.1647   18.5815   -4.7527 H   0  0  0  0  0  0  0  0  0  0  0  0
    0.5354   18.0017   -4.7527 H   0  0  0  0  0  0  0  0  0  0  0  0
    1.8693   16.3451    0.6225 H   0  0  0  0  0  0  0  0  0  0  0  0
   -0.2976   17.3958    0.4169 H   0  0  0  0  0  0  0  0  0  0  0  0
    0.1273   18.1456   -1.1364 H   0  0  0  0  0  0  0  0  0  0  0  0
   -1.5520   15.8579   -0.8011 H   0  0  0  0  0  0  0  0  0  0  0  0
   -0.8445   16.3461   -2.3390 H   0  0  0  0  0  0  0  0  0  0  0  0
    0.4049   14.9958    0.9589 H   0  0  0  0  0  0  0  0  0  0  0  0
   -0.9447   13.9980    0.3188 H   0  0  0  0  0  0  0  0  0  0  0  0
    0.7303   13.3492    0.3188 H   0  0  0  0  0  0  0  0  0  0  0  0
    0.2215   14.3765   -3.2602 H   0  0  0  0  0  0  0  0  0  0  0  0
   -1.9461   13.7866   -1.9955 H   0  0  0  0  0  0  0  0  0  0  0  0
   -1.3583   12.7614   -3.4068 H   0  0  0  0  0  0  0  0  0  0  0  0
   -2.2979   11.4490   -1.3249 H   0  0  0  0  0  0  0  0  0  0  0  0
    1.6075   11.9851   -0.4507 H   0  0  0  0  0  0  0  0  0  0  0  0
    1.6088    9.8852   -2.7052 H   0  0  0  0  0  0  0  0  0  0  0  0
    3.0617   10.5833   -1.8615 H   0  0  0  0  0  0  0  0  0  0  0  0
    2.5049    8.3152   -1.0445 H   0  0  0  0  0  0  0  0  0  0  0  0
    2.3624    9.5818    0.2367 H   0  0  0  0  0  0  0  0  0  0  0  0
    0.4937    8.0883    0.4177 H   0  0  0  0  0  0  0  0  0  0  0  0
    0.6530    8.2090   -2.3070 H   0  0  0  0  0  0  0  0  0  0  0  0
   -0.5347    9.8246    2.1229 H   0  0  0  0  0  0  0  0  0  0  0  0
    1.0360   10.4311    1.4970 H   0  0  0  0  0  0  0  0  0  0  0  0
   -0.4052   11.5034    1.4970 H   0  0  0  0  0  0  0  0  0  0  0  0
   -2.1683    9.3345    1.1046 H   0  0  0  0  0  0  0  0  0  0  0  0
   -2.5649   10.1459   -0.4481 H   0  0  0  0  0  0  0  0  0  0  0  0
   -1.9505    8.4580   -0.4481 H   0  0  0  0  0  0  0  0  0  0  0  0
    1.3405   11.0568   -3.8315 H   0  0  0  0  0  0  0  0  0  0  0  0
    0.4602   12.5148   -4.4024 H   0  0  0  0  0  0  0  0  0  0  0  0
    2.2563   12.4928   -4.4024 H   0  0  0  0  0  0  0  0  0  0  0  0
    3.4706   12.6166   -1.8982 H   0  0  0  0  0  0  0  0  0  0  0  0
    3.0071   13.8700   -3.1826 H   0  0  0  0  0  0  0  0  0  0  0  0
    2.7484   14.1236   -0.1736 H   0  0  0  0  0  0  0  0  0  0  0  0
    3.8209   15.0489   -1.2964 H   0  0  0  0  0  0  0  0  0  0  0  0
    2.3147   17.2399   -2.7157 H   0  0  0  0  0  0  0  0  0  0  0  0
    2.7042   15.6187   -3.3838 H   0  0  0  0  0  0  0  0  0  0  0  0
    1.0066   16.2059   -3.3838 H   0  0  0  0  0  0  0  0  0  0  0  0
  1  2  1  0
  2  3  1  0
  3  4  1  0
  4  5  1  0
  5  6  1  0
  6  7  1  0
  7  8  1  0
  7  9  1  0
  2 10  1  0
 10 11  1  0
 11 12  1  0
 12 13  1  0
 13 14  1  1
 13 15  1  0
 15 16  1  0
 16 17  1  0
 17 18  2  0
 18 19  1  0
 19 20  1  0
 20 21  1  0
 21 22  1  0
 22 23  1  0
 22 24  1  0
 24 25  1  0
 24 26  1  0
 19 27  1  0
 27 28  1  6
 27 29  1  0
 29 30  1  0
 30 31  1  0
 31 32  1  6
  7  5  1  0
 31 10  1  0
 31 13  1  0
 27 15  1  0
 24 18  1  0
  1 33  1  0
  1 34  1  0
  1 35  1  0
  2 36  1  6
  3 37  1  0
  3 38  1  0
  4 39  1  0
  4 40  1  0
  5 41  1  6
  8 42  1  0
  8 43  1  0
  8 44  1  0
  9 45  1  0
  9 46  1  0
  9 47  1  0
 10 48  1  1
 11 49  1  0
 11 50  1  0
 12 51  1  0
 12 52  1  0
 14 53  1  0
 14 54  1  0
 14 55  1  0
 15 56  1  6
 16 57  1  0
 16 58  1  0
 17 59  1  0
 19 60  1  1
 20 61  1  0
 20 62  1  0
 21 63  1  0
 21 64  1  0
 22 65  1  1
 23 66  1  0
 25 67  1  0
 25 68  1  0
 25 69  1  0
 26 70  1  0
 26 71  1  0
 26 72  1  0
 28 73  1  0
 28 74  1  0
 28 75  1  0
 29 76  1  0
 29 77  1  0
 30 78  1  0
 30 79  1  0
 32 80  1  0
 32 81  1  0
 32 82  1  0
M  END
>  <meeko>  (6) 
{"is_sidechain": [false], "intermolecular_energy": 2.731, "internal_energy": -0.839}

$$$$
EPH_relaxed_0001_pdb2pqr_Repair_291_r2_0001_out
     RDKit          3D

 82 86  0  0  0  0  0  0  0  0999 V2000
   -1.1330   19.0690   -0.5270 C   0  0  0  0  0  0  0  0  0  0  0  0
   -0.0670   19.4210   -1.5680 C   0  0  2  0  0  0  0  0  0  0  0  0
   -0.6780   20.0650   -2.8290 C   0  0  0  0  0  0  0  0  0  0  0  0
    0.1300   19.8080   -4.1040 C   0  0  0  0  0  0  0  0  0  0  0  0
   -0.5190   18.7730   -4.9730 C   0  0  2  0  0  0  0  0  0  0  0  0
   -0.1460   17.4220   -4.6750 O   0  0  0  0  0  0  0  0  0  0  0  0
    0.2430   17.9170   -5.9670 C   0  0  0  0  0  0  0  0  0  0  0  0
    1.7230   18.0570   -6.1440 C   0  0  0  0  0  0  0  0  0  0  0  0
   -0.5090   17.2970   -7.1020 C   0  0  0  0  0  0  0  0  0  0  0  0
    0.7190   18.1720   -1.9500 C   0  0  1  0  0  0  0  0  0  0  0  0
    2.2440   18.4370   -2.0640 C   0  0  0  0  0  0  0  0  0  0  0  0
    2.9590   17.1530   -1.5710 C   0  0  0  0  0  0  0  0  0  0  0  0
    1.8430   16.0850   -1.5060 C   0  0  1  0  0  0  0  0  0  0  0  0
    1.6820   15.5830   -2.9750 C   0  0  0  0  0  0  0  0  0  0  0  0
    2.0770   14.9000   -0.5130 C   0  0  2  0  0  0  0  0  0  0  0  0
    3.3000   14.0200   -0.8250 C   0  0  0  0  0  0  0  0  0  0  0  0
    3.0350   12.8520   -1.7160 C   0  0  0  0  0  0  0  0  0  0  0  0
    1.8200   12.3570   -2.0160 C   0  0  0  0  0  0  0  0  0  0  0  0
    0.5540   12.9230   -1.3580 C   0  0  1  0  0  0  0  0  0  0  0  0
   -0.3430   11.7550   -0.8700 C   0  0  0  0  0  0  0  0  0  0  0  0
   -0.6580   10.7570   -1.9790 C   0  0  0  0  0  0  0  0  0  0  0  0
    0.6230   10.1720   -2.5680 C   0  0  2  0  0  0  0  0  0  0  0  0
    1.2660    9.3730   -1.5710 O   0  0  0  0  0  0  0  0  0  0  0  0
    1.6100   11.2560   -3.0850 C   0  0  0  0  0  0  0  0  0  0  0  0
    1.0330   11.9210   -4.3590 C   0  0  0  0  0  0  0  0  0  0  0  0
    2.9170   10.5420   -3.5220 C   0  0  0  0  0  0  0  0  0  0  0  0
    0.7900   14.0230   -0.2350 C   0  0  1  0  0  0  0  0  0  0  0  0
    1.0100   13.3340    1.1460 C   0  0  0  0  0  0  0  0  0  0  0  0
   -0.5110   14.8980   -0.0930 C   0  0  0  0  0  0  0  0  0  0  0  0
   -0.6290   16.1240   -1.0190 C   0  0  0  0  0  0  0  0  0  0  0  0
    0.6510   16.9650   -0.9810 C   0  0  2  0  0  0  0  0  0  0  0  0
    0.8270   17.5020    0.4810 C   0  0  0  0  0  0  0  0  0  0  0  0
   -0.7187   19.2058    0.4828 H   0  0  0  0  0  0  0  0  0  0  0  0
   -2.0047   19.7270   -0.6579 H   0  0  0  0  0  0  0  0  0  0  0  0
   -1.4415   18.0213   -0.6579 H   0  0  0  0  0  0  0  0  0  0  0  0
    0.6084   20.1606   -1.1133 H   0  0  0  0  0  0  0  0  0  0  0  0
   -1.6900   19.6581   -2.9712 H   0  0  0  0  0  0  0  0  0  0  0  0
   -0.6824   21.1527   -2.6647 H   0  0  0  0  0  0  0  0  0  0  0  0
    0.2118   20.7479   -4.6696 H   0  0  0  0  0  0  0  0  0  0  0  0
    1.1230   19.4361   -3.8114 H   0  0  0  0  0  0  0  0  0  0  0  0
   -1.4235   19.3909   -5.0732 H   0  0  0  0  0  0  0  0  0  0  0  0
    2.2075   18.1028   -5.1575 H   0  0  0  0  0  0  0  0  0  0  0  0
    2.1090   17.1914   -6.7023 H   0  0  0  0  0  0  0  0  0  0  0  0
    1.9399   18.9797   -6.7023 H   0  0  0  0  0  0  0  0  0  0  0  0
   -1.3004   16.6445   -6.7045 H   0  0  0  0  0  0  0  0  0  0  0  0
   -0.9611   18.0883   -7.7180 H   0  0  0  0  0  0  0  0  0  0  0  0
    0.1816   16.7023   -7.7180 H   0  0  0  0  0  0  0  0  0  0  0  0
    0.2194   17.9228   -2.8978 H   0  0  0  0  0  0  0  0  0  0  0  0
    2.5154   18.6440   -3.1097 H   0  0  0  0  0  0  0  0  0  0  0  0
    2.5394   19.3093   -1.4625 H   0  0  0  0  0  0  0  0  0  0  0  0
    3.7452   16.8505   -2.2784 H   0  0  0  0  0  0  0  0  0  0  0  0
    3.4541   17.2983   -0.5995 H   0  0  0  0  0  0  0  0  0  0  0  0
    1.3461   14.5356   -2.9698 H   0  0  0  0  0  0  0  0  0  0  0  0
    0.9380   16.2041   -3.4953 H   0  0  0  0  0  0  0  0  0  0  0  0
    2.6485   15.6555   -3.4953 H   0  0  0  0  0  0  0  0  0  0  0  0
    2.3155   15.4222    0.4253 H   0  0  0  0  0  0  0  0  0  0  0  0
    4.0586   14.6520   -1.3098 H   0  0  0  0  0  0  0  0  0  0  0  0
    3.6261   13.6001    0.1380 H   0  0  0  0  0  0  0  0  0  0  0  0
    3.9066   12.3537   -2.1654 H   0  0  0  0  0  0  0  0  0  0  0  0
    0.0314   13.4913   -2.1415 H   0  0  0  0  0  0  0  0  0  0  0  0
    0.1772   11.2266   -0.0574 H   0  0  0  0  0  0  0  0  0  0  0  0
   -1.2956   12.1859   -0.5281 H   0  0  0  0  0  0  0  0  0  0  0  0
   -1.2694    9.9412   -1.5659 H   0  0  0  0  0  0  0  0  0  0  0  0
   -1.2037   11.2809   -2.7776 H   0  0  0  0  0  0  0  0  0  0  0  0
    0.3379    9.5653   -3.4401 H   0  0  0  0  0  0  0  0  0  0  0  0
    1.7470    9.9730   -0.9770 H   0  0  0  0  0  0  0  0  0  0  0  0
    0.3372   12.7229   -4.0710 H   0  0  0  0  0  0  0  0  0  0  0  0
    1.8543   12.3449   -4.9555 H   0  0  0  0  0  0  0  0  0  0  0  0
    0.4976   11.1676   -4.9555 H   0  0  0  0  0  0  0  0  0  0  0  0
    3.4820   10.2333   -2.6301 H   0  0  0  0  0  0  0  0  0  0  0  0
    2.6671    9.6551   -4.1228 H   0  0  0  0  0  0  0  0  0  0  0  0
    3.5282   11.2315   -4.1228 H   0  0  0  0  0  0  0  0  0  0  0  0
    0.7823   14.0471    1.9520 H   0  0  0  0  0  0  0  0  0  0  0  0
    0.3459   12.4612    1.2302 H   0  0  0  0  0  0  0  0  0  0  0  0
    2.0571   13.0075    1.2302 H   0  0  0  0  0  0  0  0  0  0  0  0
   -1.3740   14.2458   -0.2929 H   0  0  0  0  0  0  0  0  0  0  0  0
   -0.4705   15.3102    0.9261 H   0  0  0  0  0  0  0  0  0  0  0  0
   -0.8039   15.7811   -2.0495 H   0  0  0  0  0  0  0  0  0  0  0  0
   -1.4677   16.7458   -0.6726 H   0  0  0  0  0  0  0  0  0  0  0  0
    0.5669   16.7084    1.1969 H   0  0  0  0  0  0  0  0  0  0  0  0
    1.8723   17.8075    0.6361 H   0  0  0  0  0  0  0  0  0  0  0  0
    0.1653   18.3670    0.6361 H   0  0  0  0  0  0  0  0  0  0  0  0
  1  2  1  0
  2  3  1  0
  3  4  1  0
  4  5  1  0
  5  6  1  0
  6  7  1  0
  7  8  1  0
  7  9  1  0
  2 10  1  0
 10 11  1  0
 11 12  1  0
 12 13  1  0
 13 14  1  6
 13 15  1  0
 15 16  1  0
 16 17  1  0
 17 18  2  0
 18 19  1  0
 19 20  1  0
 20 21  1  0
 21 22  1  0
 22 23  1  0
 22 24  1  0
 24 25  1  0
 24 26  1  0
 19 27  1  0
 27 28  1  1
 27 29  1  0
 29 30  1  0
 30 31  1  0
 31 32  1  1
  7  5  1  0
 31 10  1  0
 31 13  1  0
 27 15  1  0
 24 18  1  0
  1 33  1  0
  1 34  1  0
  1 35  1  0
  2 36  1  1
  3 37  1  0
  3 38  1  0
  4 39  1  0
  4 40  1  0
  5 41  1  6
  8 42  1  0
  8 43  1  0
  8 44  1  0
  9 45  1  0
  9 46  1  0
  9 47  1  0
 10 48  1  6
 11 49  1  0
 11 50  1  0
 12 51  1  0
 12 52  1  0
 14 53  1  0
 14 54  1  0
 14 55  1  0
 15 56  1  1
 16 57  1  0
 16 58  1  0
 17 59  1  0
 19 60  1  6
 20 61  1  0
 20 62  1  0
 21 63  1  0
 21 64  1  0
 22 65  1  6
 23 66  1  0
 25 67  1  0
 25 68  1  0
 25 69  1  0
 26 70  1  0
 26 71  1  0
 26 72  1  0
 28 73  1  0
 28 74  1  0
 28 75  1  0
 29 76  1  0
 29 77  1  0
 30 78  1  0
 30 79  1  0
 32 80  1  0
 32 81  1  0
 32 82  1  0
M  END
>  <meeko>  (7) 
{"is_sidechain": [false], "intermolecular_energy": 2.731, "internal_energy": -0.839}

$$$$
EPH_relaxed_0001_pdb2pqr_Repair_291_r2_0001_out
     RDKit          3D

 82 86  0  0  0  0  0  0  0  0999 V2000
    2.0260   18.4100   -6.7350 C   0  0  0  0  0  0  0  0  0  0  0  0
    1.3690   17.0360   -6.8960 C   0  0  2  0  0  0  0  0  0  0  0  0
    0.1040   17.0970   -7.7750 C   0  0  0  0  0  0  0  0  0  0  0  0
    0.2460   16.3600   -9.1100 C   0  0  0  0  0  0  0  0  0  0  0  0
    1.6770   16.0320   -9.4120 C   0  0  2  0  0  0  0  0  0  0  0  0
    2.2110   16.6900  -10.5690 O   0  0  0  0  0  0  0  0  0  0  0  0
    2.1160   15.2580  -10.6410 C   0  0  0  0  0  0  0  0  0  0  0  0
    1.1250   14.7640  -11.6480 C   0  0  0  0  0  0  0  0  0  0  0  0
    3.4420   14.5640  -10.6140 C   0  0  0  0  0  0  0  0  0  0  0  0
    1.0240   16.4610   -5.5270 C   0  0  1  0  0  0  0  0  0  0  0  0
   -0.3520   16.9500   -5.0030 C   0  0  0  0  0  0  0  0  0  0  0  0
   -0.9730   15.7720   -4.2090 C   0  0  0  0  0  0  0  0  0  0  0  0
    0.1920   14.7730   -4.0200 C   0  0  1  0  0  0  0  0  0  0  0  0
    1.0040   15.3270   -2.8080 C   0  0  0  0  0  0  0  0  0  0  0  0
   -0.2090   13.2760   -3.8100 C   0  0  2  0  0  0  0  0  0  0  0  0
   -1.0390   12.9940   -2.5460 C   0  0  0  0  0  0  0  0  0  0  0  0
   -0.2470   12.6610   -1.3250 C   0  0  0  0  0  0  0  0  0  0  0  0
    1.0530   12.3110   -1.3070 C   0  0  0  0  0  0  0  0  0  0  0  0
    1.8370   12.1290   -2.6120 C   0  0  1  0  0  0  0  0  0  0  0  0
    2.6540   10.8110   -2.5460 C   0  0  0  0  0  0  0  0  0  0  0  0
    3.5480   10.7390   -1.3120 C   0  0  0  0  0  0  0  0  0  0  0  0
    2.7250   10.8660   -0.0330 C   0  0  2  0  0  0  0  0  0  0  0  0
    1.8870    9.7120    0.0920 O   0  0  0  0  0  0  0  0  0  0  0  0
    1.8530   12.1520    0.0090 C   0  0  0  0  0  0  0  0  0  0  0  0
    2.7640   13.3930    0.1780 C   0  0  0  0  0  0  0  0  0  0  0  0
    0.9680   12.0870    1.2830 C   0  0  0  0  0  0  0  0  0  0  0  0
    0.9930   12.2570   -3.9520 C   0  0  1  0  0  0  0  0  0  0  0  0
    0.3660   10.8770   -4.3200 C   0  0  0  0  0  0  0  0  0  0  0  0
    1.9600   12.6340   -5.1360 C   0  0  0  0  0  0  0  0  0  0  0  0
    2.2230   14.1340   -5.3670 C   0  0  0  0  0  0  0  0  0  0  0  0
    0.9090   14.9200   -5.4110 C   0  0  2  0  0  0  0  0  0  0  0  0
    0.0810   14.4000   -6.6350 C   0  0  0  0  0  0  0  0  0  0  0  0
    2.1363   18.6406   -5.6651 H   0  0  0  0  0  0  0  0  0  0  0  0
    3.0171   18.4007   -7.2121 H   0  0  0  0  0  0  0  0  0  0  0  0
    1.3965   19.1756   -7.2121 H   0  0  0  0  0  0  0  0  0  0  0  0
    2.0926   16.3808   -7.4031 H   0  0  0  0  0  0  0  0  0  0  0  0
   -0.7293   16.6460   -7.2162 H   0  0  0  0  0  0  0  0  0  0  0  0
   -0.0734   18.1568   -8.0101 H   0  0  0  0  0  0  0  0  0  0  0  0
   -0.3322   15.4253   -9.0646 H   0  0  0  0  0  0  0  0  0  0  0  0
   -0.1308   17.0179   -9.9070 H   0  0  0  0  0  0  0  0  0  0  0  0
    1.8986   15.9053   -8.3420 H   0  0  0  0  0  0  0  0  0  0  0  0
    0.2578   14.3317  -11.1274 H   0  0  0  0  0  0  0  0  0  0  0  0
    0.7938   15.6024  -12.2783 H   0  0  0  0  0  0  0  0  0  0  0  0
    1.5951   13.9948  -12.2783 H   0  0  0  0  0  0  0  0  0  0  0  0
    3.7502   14.4027   -9.5705 H   0  0  0  0  0  0  0  0  0  0  0  0
    3.3586   13.5939  -11.1258 H   0  0  0  0  0  0  0  0  0  0  0  0
    4.1916   15.1854  -11.1258 H   0  0  0  0  0  0  0  0  0  0  0  0
    1.8921   16.8179   -4.9534 H   0  0  0  0  0  0  0  0  0  0  0  0
   -0.2188   17.8216   -4.3453 H   0  0  0  0  0  0  0  0  0  0  0  0
   -1.0055   17.2541   -5.8339 H   0  0  0  0  0  0  0  0  0  0  0  0
   -1.3512   16.1165   -3.2352 H   0  0  0  0  0  0  0  0  0  0  0  0
   -1.8289   15.3210   -4.7324 H   0  0  0  0  0  0  0  0  0  0  0  0
    0.5294   15.0032   -1.8699 H   0  0  0  0  0  0  0  0  0  0  0  0
    2.0337   14.9422   -2.8499 H   0  0  0  0  0  0  0  0  0  0  0  0
    1.0213   16.4261   -2.8499 H   0  0  0  0  0  0  0  0  0  0  0  0
   -0.8850   13.0918   -4.6580 H   0  0  0  0  0  0  0  0  0  0  0  0
   -1.6405   13.8887   -2.3276 H   0  0  0  0  0  0  0  0  0  0  0  0
   -1.6423   12.1020   -2.7704 H   0  0  0  0  0  0  0  0  0  0  0  0
   -0.7698   12.7054   -0.3582 H   0  0  0  0  0  0  0  0  0  0  0  0
    2.5199   12.9888   -2.6785 H   0  0  0  0  0  0  0  0  0  0  0  0
    1.9540    9.9628   -2.5244 H   0  0  0  0  0  0  0  0  0  0  0  0
    3.3044   10.7762   -3.4324 H   0  0  0  0  0  0  0  0  0  0  0  0
    4.0759    9.7740   -1.3059 H   0  0  0  0  0  0  0  0  0  0  0  0
    4.2668   11.5708   -1.3506 H   0  0  0  0  0  0  0  0  0  0  0  0
    3.4305   10.9379    0.8079 H   0  0  0  0  0  0  0  0  0  0  0  0
    0.9710   10.0230    0.1890 H   0  0  0  0  0  0  0  0  0  0  0  0
    2.9127   13.5956    1.2489 H   0  0  0  0  0  0  0  0  0  0  0  0
    3.7372   13.2009   -0.2974 H   0  0  0  0  0  0  0  0  0  0  0  0
    2.2892   14.2639   -0.2974 H   0  0  0  0  0  0  0  0  0  0  0  0
    1.6077   12.1340    2.1766 H   0  0  0  0  0  0  0  0  0  0  0  0
    0.2688   12.9362    1.2875 H   0  0  0  0  0  0  0  0  0  0  0  0
    0.4004   11.1447    1.2875 H   0  0  0  0  0  0  0  0  0  0  0  0
    0.1174   10.3298   -3.3987 H   0  0  0  0  0  0  0  0  0  0  0  0
   -0.5485   11.0355   -4.9104 H   0  0  0  0  0  0  0  0  0  0  0  0
    1.0869   10.2925   -4.9104 H   0  0  0  0  0  0  0  0  0  0  0  0
    2.9294   12.1525   -4.9401 H   0  0  0  0  0  0  0  0  0  0  0  0
    1.4489   12.2878   -6.0465 H   0  0  0  0  0  0  0  0  0  0  0  0
    2.8464   14.5206   -4.5473 H   0  0  0  0  0  0  0  0  0  0  0  0
    2.7373   14.2557   -6.3317 H   0  0  0  0  0  0  0  0  0  0  0  0
   -0.7990   13.8473   -6.2742 H   0  0  0  0  0  0  0  0  0  0  0  0
   -0.2474   15.2544   -7.2451 H   0  0  0  0  0  0  0  0  0  0  0  0
    0.7080   13.7332   -7.2451 H   0  0  0  0  0  0  0  0  0  0  0  0
  1  2  1  0
  2  3  1  0
  3  4  1  0
  4  5  1  0
  5  6  1  0
  6  7  1  0
  7  8  1  0
  7  9  1  0
  2 10  1  0
 10 11  1  0
 11 12  1  0
 12 13  1  0
 13 14  1  1
 13 15  1  0
 15 16  1  0
 16 17  1  0
 17 18  2  0
 18 19  1  0
 19 20  1  0
 20 21  1  0
 21 22  1  0
 22 23  1  0
 22 24  1  0
 24 25  1  0
 24 26  1  0
 19 27  1  0
 27 28  1  6
 27 29  1  0
 29 30  1  0
 30 31  1  0
 31 32  1  6
  7  5  1  0
 31 10  1  0
 31 13  1  0
 27 15  1  0
 24 18  1  0
  1 33  1  0
  1 34  1  0
  1 35  1  0
  2 36  1  6
  3 37  1  0
  3 38  1  0
  4 39  1  0
  4 40  1  0
  5 41  1  1
  8 42  1  0
  8 43  1  0
  8 44  1  0
  9 45  1  0
  9 46  1  0
  9 47  1  0
 10 48  1  1
 11 49  1  0
 11 50  1  0
 12 51  1  0
 12 52  1  0
 14 53  1  0
 14 54  1  0
 14 55  1  0
 15 56  1  6
 16 57  1  0
 16 58  1  0
 17 59  1  0
 19 60  1  6
 20 61  1  0
 20 62  1  0
 21 63  1  0
 21 64  1  0
 22 65  1  1
 23 66  1  0
 25 67  1  0
 25 68  1  0
 25 69  1  0
 26 70  1  0
 26 71  1  0
 26 72  1  0
 28 73  1  0
 28 74  1  0
 28 75  1  0
 29 76  1  0
 29 77  1  0
 30 78  1  0
 30 79  1  0
 32 80  1  0
 32 81  1  0
 32 82  1  0
M  END
>  <meeko>  (8) 
{"is_sidechain": [false], "intermolecular_energy": 2.731, "internal_energy": -0.839}

$$$$
EPH_relaxed_0001_pdb2pqr_Repair_291_r2_0001_out
     RDKit          3D

 82 86  0  0  0  0  0  0  0  0999 V2000
   -1.8110    8.1990   -2.3100 C   0  0  0  0  0  0  0  0  0  0  0  0
   -1.6620    8.8600   -0.9370 C   0  0  2  0  0  0  0  0  0  0  0  0
   -2.9410    8.7260   -0.0860 C   0  0  0  0  0  0  0  0  0  0  0  0
   -4.2350    8.8400   -0.8970 C   0  0  0  0  0  0  0  0  0  0  0  0
   -4.9410    7.5230   -1.0040 C   0  0  2  0  0  0  0  0  0  0  0  0
   -5.1180    7.0450   -2.3440 O   0  0  0  0  0  0  0  0  0  0  0  0
   -6.3180    7.3590   -1.6190 C   0  0  0  0  0  0  0  0  0  0  0  0
   -7.0720    8.5300   -2.1680 C   0  0  0  0  0  0  0  0  0  0  0  0
   -7.1300    6.1570   -1.2470 C   0  0  0  0  0  0  0  0  0  0  0  0
   -1.3000   10.3310   -1.1040 C   0  0  1  0  0  0  0  0  0  0  0  0
   -0.9540   11.0180    0.2440 C   0  0  0  0  0  0  0  0  0  0  0  0
    0.1600   12.0540   -0.0550 C   0  0  0  0  0  0  0  0  0  0  0  0
    0.1850   12.1660   -1.5970 C   0  0  1  0  0  0  0  0  0  0  0  0
   -0.9870   13.1360   -1.9480 C   0  0  0  0  0  0  0  0  0  0  0  0
    1.5330   12.6350   -2.2340 C   0  0  2  0  0  0  0  0  0  0  0  0
    1.9860   14.0510   -1.8350 C   0  0  0  0  0  0  0  0  0  0  0  0
    1.5070   15.1480   -2.7270 C   0  0  0  0  0  0  0  0  0  0  0  0
    0.9860   14.9850   -3.9570 C   0  0  0  0  0  0  0  0  0  0  0  0
    0.9260   13.5980   -4.6100 C   0  0  1  0  0  0  0  0  0  0  0  0
    1.4320   13.6930   -6.0730 C   0  0  0  0  0  0  0  0  0  0  0  0
    0.6880   14.7510   -6.8820 C   0  0  0  0  0  0  0  0  0  0  0  0
    0.8190   16.1260   -6.2330 C   0  0  2  0  0  0  0  0  0  0  0  0
    2.1850   16.5440   -6.3110 O   0  0  0  0  0  0  0  0  0  0  0  0
    0.3480   16.1520   -4.7520 C   0  0  0  0  0  0  0  0  0  0  0  0
   -1.1910   15.9960   -4.6920 C   0  0  0  0  0  0  0  0  0  0  0  0
    0.6650   17.5580   -4.1750 C   0  0  0  0  0  0  0  0  0  0  0  0
    1.6200   12.4200   -3.7990 C   0  0  1  0  0  0  0  0  0  0  0  0
    3.1370   12.3500   -4.1560 C   0  0  0  0  0  0  0  0  0  0  0  0
    0.9940   11.0480   -4.2500 C   0  0  0  0  0  0  0  0  0  0  0  0
   -0.2690   10.5810   -3.5020 C   0  0  0  0  0  0  0  0  0  0  0  0
   -0.0700   10.6640   -1.9860 C   0  0  2  0  0  0  0  0  0  0  0  0
    1.0880    9.6820   -1.6000 C   0  0  0  0  0  0  0  0  0  0  0  0
   -2.0512    7.1335   -2.1798 H   0  0  0  0  0  0  0  0  0  0  0  0
   -2.6206    8.6918   -2.8683 H   0  0  0  0  0  0  0  0  0  0  0  0
   -0.8683    8.2968   -2.8683 H   0  0  0  0  0  0  0  0  0  0  0  0
   -0.8543    8.3366   -0.4044 H   0  0  0  0  0  0  0  0  0  0  0  0
   -2.9271    7.7440    0.4095 H   0  0  0  0  0  0  0  0  0  0  0  0
   -2.9376    9.5589    0.6326 H   0  0  0  0  0  0  0  0  0  0  0  0
   -4.9019    9.5627   -0.4041 H   0  0  0  0  0  0  0  0  0  0  0  0
   -3.9744    9.1723   -1.9127 H   0  0  0  0  0  0  0  0  0  0  0  0
   -4.5174    7.1920   -0.0443 H   0  0  0  0  0  0  0  0  0  0  0  0
   -7.4626    9.1366   -1.3376 H   0  0  0  0  0  0  0  0  0  0  0  0
   -6.3986    9.1432   -2.7849 H   0  0  0  0  0  0  0  0  0  0  0  0
   -7.9089    8.1707   -2.7849 H   0  0  0  0  0  0  0  0  0  0  0  0
   -7.1846    6.0762   -0.1513 H   0  0  0  0  0  0  0  0  0  0  0  0
   -8.1452    6.2587   -1.6582 H   0  0  0  0  0  0  0  0  0  0  0  0
   -6.6567    5.2532   -1.6582 H   0  0  0  0  0  0  0  0  0  0  0  0
   -2.2194   10.6941   -1.5866 H   0  0  0  0  0  0  0  0  0  0  0  0
   -1.8423   11.5236    0.6505 H   0  0  0  0  0  0  0  0  0  0  0  0
   -0.6184   10.2809    0.9883 H   0  0  0  0  0  0  0  0  0  0  0  0
   -0.0808   13.0256    0.4010 H   0  0  0  0  0  0  0  0  0  0  0  0
    1.1336   11.7501    0.3570 H   0  0  0  0  0  0  0  0  0  0  0  0
   -1.4418   13.5125   -1.0199 H   0  0  0  0  0  0  0  0  0  0  0  0
   -0.5998   13.9814   -2.5357 H   0  0  0  0  0  0  0  0  0  0  0  0
   -1.7451   12.5976   -2.5357 H   0  0  0  0  0  0  0  0  0  0  0  0
    2.2609   11.9486   -1.7767 H   0  0  0  0  0  0  0  0  0  0  0  0
    1.6158   14.2528   -0.8190 H   0  0  0  0  0  0  0  0  0  0  0  0
    3.0833   14.0529   -1.9121 H   0  0  0  0  0  0  0  0  0  0  0  0
    1.5867   16.1770   -2.3465 H   0  0  0  0  0  0  0  0  0  0  0  0
   -0.1333   13.3017   -4.6001 H   0  0  0  0  0  0  0  0  0  0  0  0
    2.5022   13.9470   -6.0601 H   0  0  0  0  0  0  0  0  0  0  0  0
    1.2527   12.7192   -6.5521 H   0  0  0  0  0  0  0  0  0  0  0  0
    1.1098   14.7904   -7.8972 H   0  0  0  0  0  0  0  0  0  0  0  0
   -0.3775   14.4801   -6.9184 H   0  0  0  0  0  0  0  0  0  0  0  0
    0.1608   16.8146   -6.7831 H   0  0  0  0  0  0  0  0  0  0  0  0
    2.7270   15.7520   -6.4700 H   0  0  0  0  0  0  0  0  0  0  0  0
   -1.5155   15.9631   -3.6415 H   0  0  0  0  0  0  0  0  0  0  0  0
   -1.6661   16.8506   -5.1959 H   0  0  0  0  0  0  0  0  0  0  0  0
   -1.4849   15.0635   -5.1959 H   0  0  0  0  0  0  0  0  0  0  0  0
    0.6551   17.5141   -3.0759 H   0  0  0  0  0  0  0  0  0  0  0  0
    1.6584   17.8805   -4.5201 H   0  0  0  0  0  0  0  0  0  0  0  0
   -0.0939   18.2756   -4.5201 H   0  0  0  0  0  0  0  0  0  0  0  0
    3.7306   12.3226   -3.2303 H   0  0  0  0  0  0  0  0  0  0  0  0
    3.3336   11.4418   -4.7447 H   0  0  0  0  0  0  0  0  0  0  0  0
    3.4164   13.2362   -4.7447 H   0  0  0  0  0  0  0  0  0  0  0  0
    0.7366   11.1342   -5.3160 H   0  0  0  0  0  0  0  0  0  0  0  0
    1.7601   10.2929   -4.0201 H   0  0  0  0  0  0  0  0  0  0  0  0
   -1.1153   11.2222   -3.7895 H   0  0  0  0  0  0  0  0  0  0  0  0
   -0.4700    9.5339   -3.7727 H   0  0  0  0  0  0  0  0  0  0  0  0
    1.1641    9.6174   -0.5045 H   0  0  0  0  0  0  0  0  0  0  0  0
    0.8756    8.6845   -2.0122 H   0  0  0  0  0  0  0  0  0  0  0  0
    2.0374   10.0545   -2.0122 H   0  0  0  0  0  0  0  0  0  0  0  0
  1  2  1  0
  2  3  1  0
  3  4  1  0
  4  5  1  0
  5  6  1  0
  6  7  1  0
  7  8  1  0
  7  9  1  0
  2 10  1  0
 10 11  1  0
 11 12  1  0
 12 13  1  0
 13 14  1  6
 13 15  1  0
 15 16  1  0
 16 17  1  0
 17 18  2  0
 18 19  1  0
 19 20  1  0
 20 21  1  0
 21 22  1  0
 22 23  1  0
 22 24  1  0
 24 25  1  0
 24 26  1  0
 19 27  1  0
 27 28  1  6
 27 29  1  0
 29 30  1  0
 30 31  1  0
 31 32  1  1
  7  5  1  0
 31 10  1  0
 31 13  1  0
 27 15  1  0
 24 18  1  0
  1 33  1  0
  1 34  1  0
  1 35  1  0
  2 36  1  1
  3 37  1  0
  3 38  1  0
  4 39  1  0
  4 40  1  0
  5 41  1  1
  8 42  1  0
  8 43  1  0
  8 44  1  0
  9 45  1  0
  9 46  1  0
  9 47  1  0
 10 48  1  6
 11 49  1  0
 11 50  1  0
 12 51  1  0
 12 52  1  0
 14 53  1  0
 14 54  1  0
 14 55  1  0
 15 56  1  1
 16 57  1  0
 16 58  1  0
 17 59  1  0
 19 60  1  6
 20 61  1  0
 20 62  1  0
 21 63  1  0
 21 64  1  0
 22 65  1  6
 23 66  1  0
 25 67  1  0
 25 68  1  0
 25 69  1  0
 26 70  1  0
 26 71  1  0
 26 72  1  0
 28 73  1  0
 28 74  1  0
 28 75  1  0
 29 76  1  0
 29 77  1  0
 30 78  1  0
 30 79  1  0
 32 80  1  0
 32 81  1  0
 32 82  1  0
M  END
>  <meeko>  (9) 
{"is_sidechain": [false], "intermolecular_energy": 2.731, "internal_energy": -0.839}

$$$$
EPH_relaxed_0001_pdb2pqr_Repair_291_r2_0001_out
     RDKit          3D

 82 86  0  0  0  0  0  0  0  0999 V2000
    0.4760    8.9520   -2.2690 C   0  0  0  0  0  0  0  0  0  0  0  0
    1.2220   10.0510   -3.0300 C   0  0  2  0  0  0  0  0  0  0  0  0
    2.7170   10.1030   -2.6560 C   0  0  0  0  0  0  0  0  0  0  0  0
    3.6100   10.6630   -3.7670 C   0  0  0  0  0  0  0  0  0  0  0  0
    5.0140   10.8840   -3.2920 C   0  0  2  0  0  0  0  0  0  0  0  0
    5.6320   12.0790   -3.7860 O   0  0  0  0  0  0  0  0  0  0  0  0
    6.2240   10.8390   -4.2070 C   0  0  0  0  0  0  0  0  0  0  0  0
    6.0850   10.5650   -5.6710 C   0  0  0  0  0  0  0  0  0  0  0  0
    7.5680   10.5770   -3.6030 C   0  0  0  0  0  0  0  0  0  0  0  0
    0.5710   11.4030   -2.7620 C   0  0  1  0  0  0  0  0  0  0  0  0
   -0.8260   11.2720   -2.0980 C   0  0  0  0  0  0  0  0  0  0  0  0
   -0.9740   12.4710   -1.1270 C   0  0  0  0  0  0  0  0  0  0  0  0
    0.1850   13.4240   -1.5040 C   0  0  1  0  0  0  0  0  0  0  0  0
   -0.3300   14.2080   -2.7510 C   0  0  0  0  0  0  0  0  0  0  0  0
    0.6790   14.3900   -0.3780 C   0  0  2  0  0  0  0  0  0  0  0  0
   -0.3700   15.3970    0.1240 C   0  0  0  0  0  0  0  0  0  0  0  0
   -0.3960   16.7040   -0.5970 C   0  0  0  0  0  0  0  0  0  0  0  0
    0.5690   17.1660   -1.4140 C   0  0  0  0  0  0  0  0  0  0  0  0
    1.8790   16.3900   -1.6030 C   0  0  1  0  0  0  0  0  0  0  0  0
    3.0790   17.3670   -1.4950 C   0  0  0  0  0  0  0  0  0  0  0  0
    2.9590   18.5500   -2.4500 C   0  0  0  0  0  0  0  0  0  0  0  0
    1.6730   19.3300   -2.1920 C   0  0  2  0  0  0  0  0  0  0  0  0
    1.7580   19.9470   -0.9040 O   0  0  0  0  0  0  0  0  0  0  0  0
    0.3950   18.4480   -2.2650 C   0  0  0  0  0  0  0  0  0  0  0  0
    0.1380   18.0250   -3.7330 C   0  0  0  0  0  0  0  0  0  0  0  0
   -0.8150   19.3250   -1.8480 C   0  0  0  0  0  0  0  0  0  0  0  0
    2.0580   15.1000   -0.6930 C   0  0  1  0  0  0  0  0  0  0  0  0
    2.6760   15.5000    0.6820 C   0  0  0  0  0  0  0  0  0  0  0  0
    3.0890   14.1270   -1.3770 C   0  0  0  0  0  0  0  0  0  0  0  0
    2.5220   13.1150   -2.3920 C   0  0  0  0  0  0  0  0  0  0  0  0
    1.3140   12.3740   -1.8110 C   0  0  2  0  0  0  0  0  0  0  0  0
    1.8060   11.5580   -0.5670 C   0  0  0  0  0  0  0  0  0  0  0  0
    0.5869    9.1153   -1.1869 H   0  0  0  0  0  0  0  0  0  0  0  0
   -0.5906    8.9799   -2.5367 H   0  0  0  0  0  0  0  0  0  0  0  0
    0.8957    7.9711   -2.5367 H   0  0  0  0  0  0  0  0  0  0  0  0
    1.1574    9.8135   -4.1021 H   0  0  0  0  0  0  0  0  0  0  0  0
    2.8304   10.7388   -1.7656 H   0  0  0  0  0  0  0  0  0  0  0  0
    3.0396    9.0670   -2.4755 H   0  0  0  0  0  0  0  0  0  0  0  0
    3.6253    9.9506   -4.6050 H   0  0  0  0  0  0  0  0  0  0  0  0
    3.1980   11.6332   -4.0814 H   0  0  0  0  0  0  0  0  0  0  0  0
    4.7935   10.3873   -2.3356 H   0  0  0  0  0  0  0  0  0  0  0  0
    5.5917    9.5927   -5.8168 H   0  0  0  0  0  0  0  0  0  0  0  0
    5.4796   11.3568   -6.1364 H   0  0  0  0  0  0  0  0  0  0  0  0
    7.0815   10.5441   -6.1364 H   0  0  0  0  0  0  0  0  0  0  0  0
    7.4865   10.5929   -2.5061 H   0  0  0  0  0  0  0  0  0  0  0  0
    7.9308    9.5912   -3.9295 H   0  0  0  0  0  0  0  0  0  0  0  0
    8.2745   11.3543   -3.9295 H   0  0  0  0  0  0  0  0  0  0  0  0
    0.5630   11.8096   -3.7841 H   0  0  0  0  0  0  0  0  0  0  0  0
   -1.6143   11.3057   -2.8644 H   0  0  0  0  0  0  0  0  0  0  0  0
   -0.9205   10.3160   -1.5622 H   0  0  0  0  0  0  0  0  0  0  0  0
   -1.9458   12.9668   -1.2676 H   0  0  0  0  0  0  0  0  0  0  0  0
   -0.9330   12.1612   -0.0723 H   0  0  0  0  0  0  0  0  0  0  0  0
   -0.9060   15.0849   -2.4206 H   0  0  0  0  0  0  0  0  0  0  0  0
    0.5272   14.5390   -3.3557 H   0  0  0  0  0  0  0  0  0  0  0  0
   -0.9742   13.5528   -3.3557 H   0  0  0  0  0  0  0  0  0  0  0  0
    0.8582   13.7024    0.4617 H   0  0  0  0  0  0  0  0  0  0  0  0
   -1.3622   14.9331    0.0225 H   0  0  0  0  0  0  0  0  0  0  0  0
   -0.0960   15.6287    1.1638 H   0  0  0  0  0  0  0  0  0  0  0  0
   -1.2784   17.3437   -0.4480 H   0  0  0  0  0  0  0  0  0  0  0  0
    1.8361   15.9620   -2.6154 H   0  0  0  0  0  0  0  0  0  0  0  0
    3.1305   17.7494   -0.4649 H   0  0  0  0  0  0  0  0  0  0  0  0
    3.9879   16.8101   -1.7665 H   0  0  0  0  0  0  0  0  0  0  0  0
    3.8207   19.2183   -2.3055 H   0  0  0  0  0  0  0  0  0  0  0  0
    2.9375   18.1682   -3.4814 H   0  0  0  0  0  0  0  0  0  0  0  0
    1.5799   20.0832   -2.9883 H   0  0  0  0  0  0  0  0  0  0  0  0
    1.2690   20.7860   -0.9460 H   0  0  0  0  0  0  0  0  0  0  0  0
   -0.4331   17.0850   -3.7491 H   0  0  0  0  0  0  0  0  0  0  0  0
   -0.4353   18.8112   -4.2461 H   0  0  0  0  0  0  0  0  0  0  0  0
    1.0999   17.8785   -4.2461 H   0  0  0  0  0  0  0  0  0  0  0  0
   -0.8753   19.3687   -0.7505 H   0  0  0  0  0  0  0  0  0  0  0  0
   -0.6867   20.3413   -2.2489 H   0  0  0  0  0  0  0  0  0  0  0  0
   -1.7409   18.8868   -2.2489 H   0  0  0  0  0  0  0  0  0  0  0  0
    2.0537   15.0972    1.4948 H   0  0  0  0  0  0  0  0  0  0  0  0
    3.6931   15.0884    0.7605 H   0  0  0  0  0  0  0  0  0  0  0  0
    2.7170   16.5964    0.7605 H   0  0  0  0  0  0  0  0  0  0  0  0
    3.8315   14.7452   -1.9029 H   0  0  0  0  0  0  0  0  0  0  0  0
    3.4951   13.5158   -0.5575 H   0  0  0  0  0  0  0  0  0  0  0  0
    2.2119   13.6520   -3.3006 H   0  0  0  0  0  0  0  0  0  0  0  0
    3.3047   12.3790   -2.6279 H   0  0  0  0  0  0  0  0  0  0  0  0
    1.4960   12.0721    0.3547 H   0  0  0  0  0  0  0  0  0  0  0  0
    1.3645   10.5508   -0.5912 H   0  0  0  0  0  0  0  0  0  0  0  0
    2.9028   11.4783   -0.5912 H   0  0  0  0  0  0  0  0  0  0  0  0
  1  2  1  0
  2  3  1  0
  3  4  1  0
  4  5  1  0
  5  6  1  0
  6  7  1  0
  7  8  1  0
  7  9  1  0
  2 10  1  0
 10 11  1  0
 11 12  1  0
 12 13  1  0
 13 14  1  6
 13 15  1  0
 15 16  1  0
 16 17  1  0
 17 18  2  0
 18 19  1  0
 19 20  1  0
 20 21  1  0
 21 22  1  0
 22 23  1  0
 22 24  1  0
 24 25  1  0
 24 26  1  0
 19 27  1  0
 27 28  1  1
 27 29  1  0
 29 30  1  0
 30 31  1  0
 31 32  1  1
  7  5  1  0
 31 10  1  0
 31 13  1  0
 27 15  1  0
 24 18  1  0
  1 33  1  0
  1 34  1  0
  1 35  1  0
  2 36  1  6
  3 37  1  0
  3 38  1  0
  4 39  1  0
  4 40  1  0
  5 41  1  1
  8 42  1  0
  8 43  1  0
  8 44  1  0
  9 45  1  0
  9 46  1  0
  9 47  1  0
 10 48  1  6
 11 49  1  0
 11 50  1  0
 12 51  1  0
 12 52  1  0
 14 53  1  0
 14 54  1  0
 14 55  1  0
 15 56  1  1
 16 57  1  0
 16 58  1  0
 17 59  1  0
 19 60  1  6
 20 61  1  0
 20 62  1  0
 21 63  1  0
 21 64  1  0
 22 65  1  6
 23 66  1  0
 25 67  1  0
 25 68  1  0
 25 69  1  0
 26 70  1  0
 26 71  1  0
 26 72  1  0
 28 73  1  0
 28 74  1  0
 28 75  1  0
 29 76  1  0
 29 77  1  0
 30 78  1  0
 30 79  1  0
 32 80  1  0
 32 81  1  0
 32 82  1  0
M  END
>  <meeko>  (10) 
{"is_sidechain": [false], "intermolecular_energy": 2.731, "internal_energy": -0.839}

$$$$
EPH_relaxed_0001_pdb2pqr_Repair_291_r2_0001_out
     RDKit          3D

 82 86  0  0  0  0  0  0  0  0999 V2000
   -5.1880    5.8360   -1.5710 C   0  0  0  0  0  0  0  0  0  0  0  0
   -5.4420    7.3370   -1.7340 C   0  0  2  0  0  0  0  0  0  0  0  0
   -5.1920    8.1130   -0.4250 C   0  0  0  0  0  0  0  0  0  0  0  0
   -4.1540    9.2300   -0.5610 C   0  0  0  0  0  0  0  0  0  0  0  0
   -2.7960    8.6890   -0.8910 C   0  0  2  0  0  0  0  0  0  0  0  0
   -1.7920    8.9460    0.0980 O   0  0  0  0  0  0  0  0  0  0  0  0
   -1.5930    9.5660   -1.1820 C   0  0  0  0  0  0  0  0  0  0  0  0
   -1.6920   11.0590   -1.1570 C   0  0  0  0  0  0  0  0  0  0  0  0
   -0.4560    8.9850   -1.9630 C   0  0  0  0  0  0  0  0  0  0  0  0
   -6.8690    7.5730   -2.2150 C   0  0  1  0  0  0  0  0  0  0  0  0
   -7.1620    6.8870   -3.5750 C   0  0  0  0  0  0  0  0  0  0  0  0
   -8.6400    6.4210   -3.5320 C   0  0  0  0  0  0  0  0  0  0  0  0
   -9.2390    7.1390   -2.3000 C   0  0  1  0  0  0  0  0  0  0  0  0
   -9.5760    8.5790   -2.7990 C   0  0  0  0  0  0  0  0  0  0  0  0
  -10.4780    6.4530   -1.6360 C   0  0  2  0  0  0  0  0  0  0  0  0
  -11.7210    6.3390   -2.5360 C   0  0  0  0  0  0  0  0  0  0  0  0
  -12.6700    7.4890   -2.4610 C   0  0  0  0  0  0  0  0  0  0  0  0
  -12.6810    8.4330   -1.5010 C   0  0  0  0  0  0  0  0  0  0  0  0
  -11.7330    8.3450   -0.2980 C   0  0  1  0  0  0  0  0  0  0  0  0
  -12.5250    8.6210    1.0070 C   0  0  0  0  0  0  0  0  0  0  0  0
  -13.2870    9.9410    0.9600 C   0  0  0  0  0  0  0  0  0  0  0  0
  -14.2610    9.9680   -0.2140 C   0  0  2  0  0  0  0  0  0  0  0  0
  -15.2870    8.9970    0.0160 O   0  0  0  0  0  0  0  0  0  0  0  0
  -13.5780    9.6930   -1.5830 C   0  0  0  0  0  0  0  0  0  0  0  0
  -12.6880   10.8990   -1.9730 C   0  0  0  0  0  0  0  0  0  0  0  0
  -14.6910    9.6070   -2.6630 C   0  0  0  0  0  0  0  0  0  0  0  0
  -10.8480    7.0270   -0.2090 C   0  0  1  0  0  0  0  0  0  0  0  0
  -11.6380    5.9050    0.5310 C   0  0  0  0  0  0  0  0  0  0  0  0
   -9.5730    7.3230    0.6670 C   0  0  0  0  0  0  0  0  0  0  0  0
   -8.3420    7.8870   -0.0680 C   0  0  0  0  0  0  0  0  0  0  0  0
   -8.0180    7.0560   -1.3130 C   0  0  2  0  0  0  0  0  0  0  0  0
   -7.6540    5.6080   -0.8410 C   0  0  0  0  0  0  0  0  0  0  0  0
   -5.1456    5.5854   -0.5008 H   0  0  0  0  0  0  0  0  0  0  0  0
   -6.0035    5.2722   -2.0476 H   0  0  0  0  0  0  0  0  0  0  0  0
   -4.2324    5.5719   -2.0476 H   0  0  0  0  0  0  0  0  0  0  0  0
   -4.7301    7.7143   -2.4829 H   0  0  0  0  0  0  0  0  0  0  0  0
   -6.1428    8.5601   -0.0992 H   0  0  0  0  0  0  0  0  0  0  0  0
   -4.7953    7.3924    0.3054 H   0  0  0  0  0  0  0  0  0  0  0  0
   -4.4695    9.9139   -1.3627 H   0  0  0  0  0  0  0  0  0  0  0  0
   -4.0882    9.7556    0.4031 H   0  0  0  0  0  0  0  0  0  0  0  0
   -3.2407    7.8426   -1.4349 H   0  0  0  0  0  0  0  0  0  0  0  0
   -1.7151   11.4075   -0.1139 H   0  0  0  0  0  0  0  0  0  0  0  0
   -0.8207   11.4929   -1.6693 H   0  0  0  0  0  0  0  0  0  0  0  0
   -2.6130   11.3740   -1.6693 H   0  0  0  0  0  0  0  0  0  0  0  0
    0.3044    8.5964   -1.2696 H   0  0  0  0  0  0  0  0  0  0  0  0
   -0.8271    8.1660   -2.5967 H   0  0  0  0  0  0  0  0  0  0  0  0
   -0.0097    9.7656   -2.5967 H   0  0  0  0  0  0  0  0  0  0  0  0
   -6.8758    8.6727   -2.2397 H   0  0  0  0  0  0  0  0  0  0  0  0
   -7.0137    7.6006   -4.3989 H   0  0  0  0  0  0  0  0  0  0  0  0
   -6.4846    6.0366   -3.7423 H   0  0  0  0  0  0  0  0  0  0  0  0
   -9.1680    6.7187   -4.4499 H   0  0  0  0  0  0  0  0  0  0  0  0
   -8.7309    5.3270   -3.4627 H   0  0  0  0  0  0  0  0  0  0  0  0
   -9.7307    9.2401   -1.9336 H   0  0  0  0  0  0  0  0  0  0  0  0
   -8.7429    8.9605   -3.4076 H   0  0  0  0  0  0  0  0  0  0  0  0
  -10.4919    8.5512   -3.4076 H   0  0  0  0  0  0  0  0  0  0  0  0
  -10.1245    5.4225   -1.4839 H   0  0  0  0  0  0  0  0  0  0  0  0
  -11.3793    6.2476   -3.5776 H   0  0  0  0  0  0  0  0  0  0  0  0
  -12.2777    5.4610   -2.1764 H   0  0  0  0  0  0  0  0  0  0  0  0
  -13.4241    7.5722   -3.2575 H   0  0  0  0  0  0  0  0  0  0  0  0
  -10.9769    9.1298   -0.4475 H   0  0  0  0  0  0  0  0  0  0  0  0
  -13.2446    7.8037    1.1624 H   0  0  0  0  0  0  0  0  0  0  0  0
  -11.7993    8.6834    1.8313 H   0  0  0  0  0  0  0  0  0  0  0  0
  -13.8495   10.0653    1.8971 H   0  0  0  0  0  0  0  0  0  0  0  0
  -12.5630   10.7595    0.8339 H   0  0  0  0  0  0  0  0  0  0  0  0
  -14.6807   10.9832   -0.2715 H   0  0  0  0  0  0  0  0  0  0  0  0
  -16.1300    9.4740    0.0990 H   0  0  0  0  0  0  0  0  0  0  0  0
  -12.3222   11.3946   -1.0617 H   0  0  0  0  0  0  0  0  0  0  0  0
  -11.8322   10.5461   -2.5672 H   0  0  0  0  0  0  0  0  0  0  0  0
  -13.2775   11.6128   -2.5672 H   0  0  0  0  0  0  0  0  0  0  0  0
  -15.6727    9.5311   -2.1726 H   0  0  0  0  0  0  0  0  0  0  0  0
  -14.6635   10.5100   -3.2906 H   0  0  0  0  0  0  0  0  0  0  0  0
  -14.5251    8.7190   -3.2906 H   0  0  0  0  0  0  0  0  0  0  0  0
  -11.5404    6.0436    1.6179 H   0  0  0  0  0  0  0  0  0  0  0  0
  -12.6999    5.9569    0.2486 H   0  0  0  0  0  0  0  0  0  0  0  0
  -11.2311    4.9228    0.2486 H   0  0  0  0  0  0  0  0  0  0  0  0
   -9.8616    8.0506    1.4399 H   0  0  0  0  0  0  0  0  0  0  0  0
   -9.2546    6.3433    1.0528 H   0  0  0  0  0  0  0  0  0  0  0  0
   -8.5480    8.9241   -0.3713 H   0  0  0  0  0  0  0  0  0  0  0  0
   -7.4791    7.8490    0.6132 H   0  0  0  0  0  0  0  0  0  0  0  0
   -7.6450    5.5721    0.2584 H   0  0  0  0  0  0  0  0  0  0  0  0
   -8.4017    4.8984   -1.2249 H   0  0  0  0  0  0  0  0  0  0  0  0
   -6.6596    5.3363   -1.2249 H   0  0  0  0  0  0  0  0  0  0  0  0
  1  2  1  0
  2  3  1  0
  3  4  1  0
  4  5  1  0
  5  6  1  0
  6  7  1  0
  7  8  1  0
  7  9  1  0
  2 10  1  0
 10 11  1  0
 11 12  1  0
 12 13  1  0
 13 14  1  6
 13 15  1  0
 15 16  1  0
 16 17  1  0
 17 18  2  0
 18 19  1  0
 19 20  1  0
 20 21  1  0
 21 22  1  0
 22 23  1  0
 22 24  1  0
 24 25  1  0
 24 26  1  0
 19 27  1  0
 27 28  1  1
 27 29  1  0
 29 30  1  0
 30 31  1  0
 31 32  1  1
  7  5  1  0
 31 10  1  0
 31 13  1  0
 27 15  1  0
 24 18  1  0
  1 33  1  0
  1 34  1  0
  1 35  1  0
  2 36  1  6
  3 37  1  0
  3 38  1  0
  4 39  1  0
  4 40  1  0
  5 41  1  6
  8 42  1  0
  8 43  1  0
  8 44  1  0
  9 45  1  0
  9 46  1  0
  9 47  1  0
 10 48  1  6
 11 49  1  0
 11 50  1  0
 12 51  1  0
 12 52  1  0
 14 53  1  0
 14 54  1  0
 14 55  1  0
 15 56  1  1
 16 57  1  0
 16 58  1  0
 17 59  1  0
 19 60  1  6
 20 61  1  0
 20 62  1  0
 21 63  1  0
 21 64  1  0
 22 65  1  6
 23 66  1  0
 25 67  1  0
 25 68  1  0
 25 69  1  0
 26 70  1  0
 26 71  1  0
 26 72  1  0
 28 73  1  0
 28 74  1  0
 28 75  1  0
 29 76  1  0
 29 77  1  0
 30 78  1  0
 30 79  1  0
 32 80  1  0
 32 81  1  0
 32 82  1  0
M  END
>  <meeko>  (11) 
{"is_sidechain": [false], "intermolecular_energy": 2.731, "internal_energy": -0.839}

$$$$
EPH_relaxed_0001_pdb2pqr_Repair_291_r2_0001_out
     RDKit          3D

 82 86  0  0  0  0  0  0  0  0999 V2000
    3.9070   10.5490   -1.8600 C   0  0  0  0  0  0  0  0  0  0  0  0
    2.4840   10.9570   -1.4680 C   0  0  2  0  0  0  0  0  0  0  0  0
    1.5970    9.7370   -1.1490 C   0  0  0  0  0  0  0  0  0  0  0  0
    0.6330    9.9660    0.0190 C   0  0  0  0  0  0  0  0  0  0  0  0
   -0.6330    9.1810   -0.1450 C   0  0  2  0  0  0  0  0  0  0  0  0
   -1.1080    9.0860   -1.4950 O   0  0  0  0  0  0  0  0  0  0  0  0
   -1.9510    9.7990   -0.5750 C   0  0  0  0  0  0  0  0  0  0  0  0
   -2.0680   11.2620   -0.8660 C   0  0  0  0  0  0  0  0  0  0  0  0
   -3.2210    9.0810   -0.2400 C   0  0  0  0  0  0  0  0  0  0  0  0
    1.8540   11.7820   -2.5850 C   0  0  1  0  0  0  0  0  0  0  0  0
    0.5120   11.1820   -3.0860 C   0  0  0  0  0  0  0  0  0  0  0  0
   -0.4000   12.3790   -3.4590 C   0  0  0  0  0  0  0  0  0  0  0  0
    0.5470   13.6010   -3.4780 C   0  0  1  0  0  0  0  0  0  0  0  0
    1.2510   13.5410   -4.8700 C   0  0  0  0  0  0  0  0  0  0  0  0
   -0.1170   14.9940   -3.2260 C   0  0  2  0  0  0  0  0  0  0  0  0
   -1.1580   15.4200   -4.2760 C   0  0  0  0  0  0  0  0  0  0  0  0
   -0.6180   16.1990   -5.4300 C   0  0  0  0  0  0  0  0  0  0  0  0
    0.5910   16.7880   -5.4780 C   0  0  0  0  0  0  0  0  0  0  0  0
    1.5190   16.7840   -4.2570 C   0  0  1  0  0  0  0  0  0  0  0  0
    2.0930   18.2080   -4.0370 C   0  0  0  0  0  0  0  0  0  0  0  0
    2.7730   18.7640   -5.2840 C   0  0  0  0  0  0  0  0  0  0  0  0
    1.8020   18.8070   -6.4610 C   0  0  2  0  0  0  0  0  0  0  0  0
    0.7800   19.7680   -6.1810 O   0  0  0  0  0  0  0  0  0  0  0  0
    1.1530   17.4290   -6.7710 C   0  0  0  0  0  0  0  0  0  0  0  0
    2.2180   16.4730   -7.3640 C   0  0  0  0  0  0  0  0  0  0  0  0
    0.0920   17.6410   -7.8850 C   0  0  0  0  0  0  0  0  0  0  0  0
    0.9120   16.1580   -2.9270 C   0  0  1  0  0  0  0  0  0  0  0  0
    0.1310   17.2500   -2.1340 C   0  0  0  0  0  0  0  0  0  0  0  0
    2.0910   15.6900   -1.9950 C   0  0  0  0  0  0  0  0  0  0  0  0
    2.6240   14.2610   -2.2130 C   0  0  0  0  0  0  0  0  0  0  0  0
    1.4750   13.2480   -2.2590 C   0  0  2  0  0  0  0  0  0  0  0  0
    0.7620   13.2700   -0.8640 C   0  0  0  0  0  0  0  0  0  0  0  0
    4.5029   10.3781   -0.9513 H   0  0  0  0  0  0  0  0  0  0  0  0
    3.8726    9.6245   -2.4551 H   0  0  0  0  0  0  0  0  0  0  0  0
    4.3677   11.3513   -2.4551 H   0  0  0  0  0  0  0  0  0  0  0  0
    2.5534   11.5624   -0.5522 H   0  0  0  0  0  0  0  0  0  0  0  0
    1.0063    9.4934   -2.0444 H   0  0  0  0  0  0  0  0  0  0  0  0
    2.2699    8.9180   -0.8549 H   0  0  0  0  0  0  0  0  0  0  0  0
    1.1252    9.6576    0.9531 H   0  0  0  0  0  0  0  0  0  0  0  0
    0.3730   11.0345    0.0445 H   0  0  0  0  0  0  0  0  0  0  0  0
   -0.3648    8.5273    0.6980 H   0  0  0  0  0  0  0  0  0  0  0  0
   -2.1128   11.8216    0.0800 H   0  0  0  0  0  0  0  0  0  0  0  0
   -1.1933   11.5916   -1.4460 H   0  0  0  0  0  0  0  0  0  0  0  0
   -2.9839   11.4484   -1.4460 H   0  0  0  0  0  0  0  0  0  0  0  0
   -3.3300    9.0194    0.8528 H   0  0  0  0  0  0  0  0  0  0  0  0
   -4.0751    9.6299   -0.6633 H   0  0  0  0  0  0  0  0  0  0  0  0
   -3.1911    8.0662   -0.6633 H   0  0  0  0  0  0  0  0  0  0  0  0
    2.6748   11.7594   -3.3170 H   0  0  0  0  0  0  0  0  0  0  0  0
    0.6859   10.5486   -3.9684 H   0  0  0  0  0  0  0  0  0  0  0  0
    0.0453   10.5555   -2.3116 H   0  0  0  0  0  0  0  0  0  0  0  0
   -0.8561   12.2260   -4.4482 H   0  0  0  0  0  0  0  0  0  0  0  0
   -1.2310   12.5067   -2.7497 H   0  0  0  0  0  0  0  0  0  0  0  0
    2.3378   13.4484   -4.7276 H   0  0  0  0  0  0  0  0  0  0  0  0
    0.8794   12.6713   -5.4317 H   0  0  0  0  0  0  0  0  0  0  0  0
    1.0319   14.4611   -5.4317 H   0  0  0  0  0  0  0  0  0  0  0  0
   -0.6819   14.8215   -2.2981 H   0  0  0  0  0  0  0  0  0  0  0  0
   -1.6329   14.5104   -4.6724 H   0  0  0  0  0  0  0  0  0  0  0  0
   -1.8574   16.0914   -3.7562 H   0  0  0  0  0  0  0  0  0  0  0  0
   -1.2629   16.2998   -6.3154 H   0  0  0  0  0  0  0  0  0  0  0  0
    2.3349   16.0866   -4.4978 H   0  0  0  0  0  0  0  0  0  0  0  0
    1.2694   18.8804   -3.7551 H   0  0  0  0  0  0  0  0  0  0  0  0
    2.8523   18.1429   -3.2438 H   0  0  0  0  0  0  0  0  0  0  0  0
    3.1308   19.7830   -5.0750 H   0  0  0  0  0  0  0  0  0  0  0  0
    3.6153   18.1073   -5.5472 H   0  0  0  0  0  0  0  0  0  0  0  0
    2.3789   19.0896   -7.3539 H   0  0  0  0  0  0  0  0  0  0  0  0
    0.0870   19.6660   -6.8550 H   0  0  0  0  0  0  0  0  0  0  0  0
    2.7655   15.9815   -6.5463 H   0  0  0  0  0  0  0  0  0  0  0  0
    1.7224   15.7110   -7.9834 H   0  0  0  0  0  0  0  0  0  0  0  0
    2.9223   17.0477   -7.9834 H   0  0  0  0  0  0  0  0  0  0  0  0
   -0.8880   17.8368   -7.4255 H   0  0  0  0  0  0  0  0  0  0  0  0
    0.3822   18.4989   -8.5093 H   0  0  0  0  0  0  0  0  0  0  0  0
    0.0303   16.7374   -8.5093 H   0  0  0  0  0  0  0  0  0  0  0  0
    0.2542   17.0778   -1.0546 H   0  0  0  0  0  0  0  0  0  0  0  0
    0.5245   18.2438   -2.3940 H   0  0  0  0  0  0  0  0  0  0  0  0
   -0.9366   17.1988   -2.3940 H   0  0  0  0  0  0  0  0  0  0  0  0
    2.9303   16.3848   -2.1460 H   0  0  0  0  0  0  0  0  0  0  0  0
    1.6708   15.6883   -0.9784 H   0  0  0  0  0  0  0  0  0  0  0  0
    3.1749   14.2237   -3.1644 H   0  0  0  0  0  0  0  0  0  0  0  0
    3.2865   14.0020   -1.3740 H   0  0  0  0  0  0  0  0  0  0  0  0
    1.5181   13.2467   -0.0654 H   0  0  0  0  0  0  0  0  0  0  0  0
    0.1614   14.1871   -0.7736 H   0  0  0  0  0  0  0  0  0  0  0  0
    0.1060   12.3917   -0.7736 H   0  0  0  0  0  0  0  0  0  0  0  0
  1  2  1  0
  2  3  1  0
  3  4  1  0
  4  5  1  0
  5  6  1  0
  6  7  1  0
  7  8  1  0
  7  9  1  0
  2 10  1  0
 10 11  1  0
 11 12  1  0
 12 13  1  0
 13 14  1  6
 13 15  1  0
 15 16  1  0
 16 17  1  0
 17 18  2  0
 18 19  1  0
 19 20  1  0
 20 21  1  0
 21 22  1  0
 22 23  1  0
 22 24  1  0
 24 25  1  0
 24 26  1  0
 19 27  1  0
 27 28  1  1
 27 29  1  0
 29 30  1  0
 30 31  1  0
 31 32  1  1
  7  5  1  0
 31 10  1  0
 31 13  1  0
 27 15  1  0
 24 18  1  0
  1 33  1  0
  1 34  1  0
  1 35  1  0
  2 36  1  1
  3 37  1  0
  3 38  1  0
  4 39  1  0
  4 40  1  0
  5 41  1  1
  8 42  1  0
  8 43  1  0
  8 44  1  0
  9 45  1  0
  9 46  1  0
  9 47  1  0
 10 48  1  6
 11 49  1  0
 11 50  1  0
 12 51  1  0
 12 52  1  0
 14 53  1  0
 14 54  1  0
 14 55  1  0
 15 56  1  1
 16 57  1  0
 16 58  1  0
 17 59  1  0
 19 60  1  6
 20 61  1  0
 20 62  1  0
 21 63  1  0
 21 64  1  0
 22 65  1  6
 23 66  1  0
 25 67  1  0
 25 68  1  0
 25 69  1  0
 26 70  1  0
 26 71  1  0
 26 72  1  0
 28 73  1  0
 28 74  1  0
 28 75  1  0
 29 76  1  0
 29 77  1  0
 30 78  1  0
 30 79  1  0
 32 80  1  0
 32 81  1  0
 32 82  1  0
M  END
>  <meeko>  (12) 
{"is_sidechain": [false], "intermolecular_energy": 2.731, "internal_energy": -0.839}

$$$$
EPH_relaxed_0001_pdb2pqr_Repair_291_r2_0001_out
     RDKit          3D

 82 86  0  0  0  0  0  0  0  0999 V2000
   -0.2000   10.3180   -3.4870 C   0  0  0  0  0  0  0  0  0  0  0  0
    0.9500   10.1760   -2.4860 C   0  0  2  0  0  0  0  0  0  0  0  0
    0.7870    8.9340   -1.5870 C   0  0  0  0  0  0  0  0  0  0  0  0
    0.0120    9.2060   -0.2950 C   0  0  0  0  0  0  0  0  0  0  0  0
   -1.4030    8.7220   -0.3850 C   0  0  2  0  0  0  0  0  0  0  0  0
   -2.0010    8.8570   -1.6810 O   0  0  0  0  0  0  0  0  0  0  0  0
   -2.5870    9.6400   -0.6280 C   0  0  0  0  0  0  0  0  0  0  0  0
   -2.4090   11.1160   -0.7960 C   0  0  0  0  0  0  0  0  0  0  0  0
   -3.9490    9.1740   -0.2180 C   0  0  0  0  0  0  0  0  0  0  0  0
    1.0490   11.4310   -1.6270 C   0  0  1  0  0  0  0  0  0  0  0  0
    2.1400   11.3180   -0.5290 C   0  0  0  0  0  0  0  0  0  0  0  0
    2.7550   12.7320   -0.3630 C   0  0  0  0  0  0  0  0  0  0  0  0
    1.7860   13.6700   -1.1190 C   0  0  1  0  0  0  0  0  0  0  0  0
    0.6130   13.9250   -0.1200 C   0  0  0  0  0  0  0  0  0  0  0  0
    2.3940   15.0090   -1.6500 C   0  0  2  0  0  0  0  0  0  0  0  0
    2.9260   15.9600   -0.5630 C   0  0  0  0  0  0  0  0  0  0  0  0
    1.9350   16.9450   -0.0370 C   0  0  0  0  0  0  0  0  0  0  0  0
    0.7580   17.2550   -0.6120 C   0  0  0  0  0  0  0  0  0  0  0  0
    0.3650   16.6600   -1.9710 C   0  0  1  0  0  0  0  0  0  0  0  0
   -0.1830   17.7830   -2.8890 C   0  0  0  0  0  0  0  0  0  0  0  0
   -1.3230   18.5630   -2.2420 C   0  0  0  0  0  0  0  0  0  0  0  0
   -0.8770   19.1880   -0.9230 C   0  0  2  0  0  0  0  0  0  0  0  0
    0.1040   20.1940   -1.1970 O   0  0  0  0  0  0  0  0  0  0  0  0
   -0.2960   18.1530    0.0810 C   0  0  0  0  0  0  0  0  0  0  0  0
   -1.4340   17.2460    0.6100 C   0  0  0  0  0  0  0  0  0  0  0  0
    0.2460   18.9310    1.3100 C   0  0  0  0  0  0  0  0  0  0  0  0
    1.4730   15.7730   -2.6860 C   0  0  1  0  0  0  0  0  0  0  0  0
    2.4160   16.6820   -3.5330 C   0  0  0  0  0  0  0  0  0  0  0  0
    0.7720   14.7930   -3.7000 C   0  0  0  0  0  0  0  0  0  0  0  0
    0.3010   13.4370   -3.1410 C   0  0  0  0  0  0  0  0  0  0  0  0
    1.4160   12.7550   -2.3430 C   0  0  2  0  0  0  0  0  0  0  0  0
    2.6010   12.4660   -3.3260 C   0  0  0  0  0  0  0  0  0  0  0  0
   -1.1482   10.4351   -2.9419 H   0  0  0  0  0  0  0  0  0  0  0  0
   -0.0289   11.2018   -4.1191 H   0  0  0  0  0  0  0  0  0  0  0  0
   -0.2490    9.4191   -4.1191 H   0  0  0  0  0  0  0  0  0  0  0  0
    1.8773   10.0464   -3.0633 H   0  0  0  0  0  0  0  0  0  0  0  0
    0.2511    8.1608   -2.1570 H   0  0  0  0  0  0  0  0  0  0  0  0
    1.7980    8.6148   -1.2939 H   0  0  0  0  0  0  0  0  0  0  0  0
    0.5132    8.6893    0.5368 H   0  0  0  0  0  0  0  0  0  0  0  0
   -0.0075   10.2933   -0.1294 H   0  0  0  0  0  0  0  0  0  0  0  0
   -1.2119    7.9492    0.3741 H   0  0  0  0  0  0  0  0  0  0  0  0
   -2.3514   11.5933    0.1934 H   0  0  0  0  0  0  0  0  0  0  0  0
   -1.4807   11.3124   -1.3524 H   0  0  0  0  0  0  0  0  0  0  0  0
   -3.2640   11.5275   -1.3524 H   0  0  0  0  0  0  0  0  0  0  0  0
   -4.0139    9.1518    0.8799 H   0  0  0  0  0  0  0  0  0  0  0  0
   -4.7078    9.8636   -0.6163 H   0  0  0  0  0  0  0  0  0  0  0  0
   -4.1263    8.1641   -0.6163 H   0  0  0  0  0  0  0  0  0  0  0  0
    0.0163   11.4802   -1.2513 H   0  0  0  0  0  0  0  0  0  0  0  0
    1.6908   10.9865    0.4188 H   0  0  0  0  0  0  0  0  0  0  0  0
    2.9088   10.5831   -0.8099 H   0  0  0  0  0  0  0  0  0  0  0  0
    2.8124   13.0081    0.7002 H   0  0  0  0  0  0  0  0  0  0  0  0
    3.7813   12.7891   -0.7546 H   0  0  0  0  0  0  0  0  0  0  0  0
    0.9859   13.8439    0.9117 H   0  0  0  0  0  0  0  0  0  0  0  0
    0.2043   14.9330   -0.2840 H   0  0  0  0  0  0  0  0  0  0  0  0
   -0.1773   13.1777   -0.2840 H   0  0  0  0  0  0  0  0  0  0  0  0
    3.2791   14.6633   -2.2041 H   0  0  0  0  0  0  0  0  0  0  0  0
    3.2783   15.3486    0.2808 H   0  0  0  0  0  0  0  0  0  0  0  0
    3.7208   16.5527   -1.0395 H   0  0  0  0  0  0  0  0  0  0  0  0
    2.1883   17.4616    0.9006 H   0  0  0  0  0  0  0  0  0  0  0  0
   -0.4288   15.9271   -1.7640 H   0  0  0  0  0  0  0  0  0  0  0  0
    0.6355   18.4808   -3.1195 H   0  0  0  0  0  0  0  0  0  0  0  0
   -0.5779   17.3075   -3.7989 H   0  0  0  0  0  0  0  0  0  0  0  0
   -1.6475   19.3605   -2.9266 H   0  0  0  0  0  0  0  0  0  0  0  0
   -2.1521   17.8692   -2.0390 H   0  0  0  0  0  0  0  0  0  0  0  0
   -1.7687   19.6213   -0.4464 H   0  0  0  0  0  0  0  0  0  0  0  0
    0.5390   19.9590   -2.0340 H   0  0  0  0  0  0  0  0  0  0  0  0
   -1.4264   17.2521    1.7100 H   0  0  0  0  0  0  0  0  0  0  0  0
   -2.4018   17.6232    0.2479 H   0  0  0  0  0  0  0  0  0  0  0  0
   -1.2822   16.2184    0.2479 H   0  0  0  0  0  0  0  0  0  0  0  0
   -0.0953   18.4410    2.2338 H   0  0  0  0  0  0  0  0  0  0  0  0
    1.3457   18.9383    1.2836 H   0  0  0  0  0  0  0  0  0  0  0  0
   -0.1282   19.9650    1.2836 H   0  0  0  0  0  0  0  0  0  0  0  0
    3.0431   17.2865   -2.8612 H   0  0  0  0  0  0  0  0  0  0  0  0
    3.0583   16.0536   -4.1675 H   0  0  0  0  0  0  0  0  0  0  0  0
    1.8116   17.3469   -4.1675 H   0  0  0  0  0  0  0  0  0  0  0  0
   -0.1097   15.3097   -4.1070 H   0  0  0  0  0  0  0  0  0  0  0  0
    1.5446   14.5459   -4.4430 H   0  0  0  0  0  0  0  0  0  0  0  0
   -0.5645   13.6006   -2.4821 H   0  0  0  0  0  0  0  0  0  0  0  0
    0.0258   12.7868   -3.9845 H   0  0  0  0  0  0  0  0  0  0  0  0
    3.5106   12.2442   -2.7486 H   0  0  0  0  0  0  0  0  0  0  0  0
    2.3494   11.6029   -3.9598 H   0  0  0  0  0  0  0  0  0  0  0  0
    2.7750   13.3480   -3.9598 H   0  0  0  0  0  0  0  0  0  0  0  0
  1  2  1  0
  2  3  1  0
  3  4  1  0
  4  5  1  0
  5  6  1  0
  6  7  1  0
  7  8  1  0
  7  9  1  0
  2 10  1  0
 10 11  1  0
 11 12  1  0
 12 13  1  0
 13 14  1  1
 13 15  1  0
 15 16  1  0
 16 17  1  0
 17 18  2  0
 18 19  1  0
 19 20  1  0
 20 21  1  0
 21 22  1  0
 22 23  1  0
 22 24  1  0
 24 25  1  0
 24 26  1  0
 19 27  1  0
 27 28  1  6
 27 29  1  0
 29 30  1  0
 30 31  1  0
 31 32  1  6
  7  5  1  0
 31 10  1  0
 31 13  1  0
 27 15  1  0
 24 18  1  0
  1 33  1  0
  1 34  1  0
  1 35  1  0
  2 36  1  6
  3 37  1  0
  3 38  1  0
  4 39  1  0
  4 40  1  0
  5 41  1  1
  8 42  1  0
  8 43  1  0
  8 44  1  0
  9 45  1  0
  9 46  1  0
  9 47  1  0
 10 48  1  1
 11 49  1  0
 11 50  1  0
 12 51  1  0
 12 52  1  0
 14 53  1  0
 14 54  1  0
 14 55  1  0
 15 56  1  6
 16 57  1  0
 16 58  1  0
 17 59  1  0
 19 60  1  1
 20 61  1  0
 20 62  1  0
 21 63  1  0
 21 64  1  0
 22 65  1  1
 23 66  1  0
 25 67  1  0
 25 68  1  0
 25 69  1  0
 26 70  1  0
 26 71  1  0
 26 72  1  0
 28 73  1  0
 28 74  1  0
 28 75  1  0
 29 76  1  0
 29 77  1  0
 30 78  1  0
 30 79  1  0
 32 80  1  0
 32 81  1  0
 32 82  1  0
M  END
>  <meeko>  (13) 
{"is_sidechain": [false], "intermolecular_energy": 2.731, "internal_energy": -0.839}

$$$$
EPH_relaxed_0001_pdb2pqr_Repair_291_r2_0001_out
     RDKit          3D

 82 86  0  0  0  0  0  0  0  0999 V2000
    3.2550   14.6200   -0.1020 C   0  0  0  0  0  0  0  0  0  0  0  0
    2.0660   13.6770   -0.3040 C   0  0  2  0  0  0  0  0  0  0  0  0
    2.4170   12.2170    0.0470 C   0  0  0  0  0  0  0  0  0  0  0  0
    1.5710   11.6370    1.1840 C   0  0  0  0  0  0  0  0  0  0  0  0
    0.1530   11.4040    0.7570 C   0  0  2  0  0  0  0  0  0  0  0  0
   -0.5420   10.4020    1.5110 O   0  0  0  0  0  0  0  0  0  0  0  0
   -0.3270   10.1140    0.1190 C   0  0  0  0  0  0  0  0  0  0  0  0
    0.6060    8.9710   -0.1280 C   0  0  0  0  0  0  0  0  0  0  0  0
   -1.5780   10.1450   -0.7030 C   0  0  0  0  0  0  0  0  0  0  0  0
    1.5730   13.7620   -1.7430 C   0  0  1  0  0  0  0  0  0  0  0  0
    0.3380   12.8600   -2.0060 C   0  0  0  0  0  0  0  0  0  0  0  0
   -0.5530   13.6090   -3.0310 C   0  0  0  0  0  0  0  0  0  0  0  0
    0.3450   14.7460   -3.5710 C   0  0  1  0  0  0  0  0  0  0  0  0
    1.2410   14.0680   -4.6550 C   0  0  0  0  0  0  0  0  0  0  0  0
   -0.3950   16.0020   -4.1360 C   0  0  2  0  0  0  0  0  0  0  0  0
   -1.2900   15.7360   -5.3590 C   0  0  0  0  0  0  0  0  0  0  0  0
   -0.6190   15.8830   -6.6850 C   0  0  0  0  0  0  0  0  0  0  0  0
    0.5650   16.4880   -6.9000 C   0  0  0  0  0  0  0  0  0  0  0  0
    1.3090   17.1900   -5.7570 C   0  0  1  0  0  0  0  0  0  0  0  0
    1.7980   18.5820   -6.2350 C   0  0  0  0  0  0  0  0  0  0  0  0
    2.6290   18.5040   -7.5120 C   0  0  0  0  0  0  0  0  0  0  0  0
    1.8340   17.8530   -8.6410 C   0  0  2  0  0  0  0  0  0  0  0  0
    0.7510   18.7160   -8.9990 O   0  0  0  0  0  0  0  0  0  0  0  0
    1.2830   16.4470   -8.2710 C   0  0  0  0  0  0  0  0  0  0  0  0
    2.4530   15.4370   -8.1780 C   0  0  0  0  0  0  0  0  0  0  0  0
    0.3840   15.9640   -9.4410 C   0  0  0  0  0  0  0  0  0  0  0  0
    0.5420   17.2560   -4.3670 C   0  0  1  0  0  0  0  0  0  0  0  0
   -0.3810   18.5130   -4.3280 C   0  0  0  0  0  0  0  0  0  0  0  0
    1.5920   17.4400   -3.2080 C   0  0  0  0  0  0  0  0  0  0  0  0
    2.1980   16.1570   -2.6100 C   0  0  0  0  0  0  0  0  0  0  0  0
    1.1030   15.1470   -2.2530 C   0  0  2  0  0  0  0  0  0  0  0  0
    0.1980   15.7920   -1.1480 C   0  0  0  0  0  0  0  0  0  0  0  0
    3.4326   14.7608    0.9744 H   0  0  0  0  0  0  0  0  0  0  0  0
    4.1515   14.1847   -0.5676 H   0  0  0  0  0  0  0  0  0  0  0  0
    3.0353   15.5921   -0.5676 H   0  0  0  0  0  0  0  0  0  0  0  0
    1.2684   13.9993    0.3815 H   0  0  0  0  0  0  0  0  0  0  0  0
    2.2650   11.5981   -0.8496 H   0  0  0  0  0  0  0  0  0  0  0  0
    3.4625   12.2109    0.3888 H   0  0  0  0  0  0  0  0  0  0  0  0
    2.0094   10.6795    1.5019 H   0  0  0  0  0  0  0  0  0  0  0  0
    1.5652   12.3620    2.0113 H   0  0  0  0  0  0  0  0  0  0  0  0
    0.0435   12.4580    0.4619 H   0  0  0  0  0  0  0  0  0  0  0  0
    0.9430    8.5582    0.8343 H   0  0  0  0  0  0  0  0  0  0  0  0
    0.0848    8.1892   -0.7000 H   0  0  0  0  0  0  0  0  0  0  0  0
    1.4763    9.3251   -0.7000 H   0  0  0  0  0  0  0  0  0  0  0  0
   -2.4536   10.1667   -0.0375 H   0  0  0  0  0  0  0  0  0  0  0  0
   -1.5775   11.0434   -1.3377 H   0  0  0  0  0  0  0  0  0  0  0  0
   -1.6220    9.2477   -1.3377 H   0  0  0  0  0  0  0  0  0  0  0  0
    2.4896   13.4582   -2.2698 H   0  0  0  0  0  0  0  0  0  0  0  0
    0.6573   11.8914   -2.4181 H   0  0  0  0  0  0  0  0  0  0  0  0
   -0.2124   12.6624   -1.0743 H   0  0  0  0  0  0  0  0  0  0  0  0
   -0.8584   12.9354   -3.8453 H   0  0  0  0  0  0  0  0  0  0  0  0
   -1.4804   13.9894   -2.5780 H   0  0  0  0  0  0  0  0  0  0  0  0
    2.0256   13.4743   -4.1632 H   0  0  0  0  0  0  0  0  0  0  0  0
    0.6224   13.4098   -5.2828 H   0  0  0  0  0  0  0  0  0  0  0  0
    1.7063   14.8422   -5.2828 H   0  0  0  0  0  0  0  0  0  0  0  0
   -1.0800   16.2622   -3.3156 H   0  0  0  0  0  0  0  0  0  0  0  0
   -1.6716   14.7071   -5.2835 H   0  0  0  0  0  0  0  0  0  0  0  0
   -2.0790   16.5019   -5.3308 H   0  0  0  0  0  0  0  0  0  0  0  0
   -1.1354   15.4616   -7.5601 H   0  0  0  0  0  0  0  0  0  0  0  0
    2.1734   16.5522   -5.5204 H   0  0  0  0  0  0  0  0  0  0  0  0
    0.9207   19.2182   -6.4237 H   0  0  0  0  0  0  0  0  0  0  0  0
    2.4391   18.9999   -5.4448 H   0  0  0  0  0  0  0  0  0  0  0  0
    2.9189   19.5208   -7.8156 H   0  0  0  0  0  0  0  0  0  0  0  0
    3.5217   17.8928   -7.3133 H   0  0  0  0  0  0  0  0  0  0  0  0
    2.5215   17.7070   -9.4872 H   0  0  0  0  0  0  0  0  0  0  0  0
    1.1210   19.4580   -9.5070 H   0  0  0  0  0  0  0  0  0  0  0  0
    2.6829   15.2385   -7.1208 H   0  0  0  0  0  0  0  0  0  0  0  0
    2.1667   14.4976   -8.6736 H   0  0  0  0  0  0  0  0  0  0  0  0
    3.3405   15.8573   -8.6736 H   0  0  0  0  0  0  0  0  0  0  0  0
   -0.5168   15.4800   -9.0356 H   0  0  0  0  0  0  0  0  0  0  0  0
    0.0908   16.8261  -10.0582 H   0  0  0  0  0  0  0  0  0  0  0  0
    0.9410   15.2437  -10.0582 H   0  0  0  0  0  0  0  0  0  0  0  0
   -0.5826   18.7876   -3.2821 H   0  0  0  0  0  0  0  0  0  0  0  0
    0.1183   19.3505   -4.8372 H   0  0  0  0  0  0  0  0  0  0  0  0
   -1.3296   18.2873   -4.8372 H   0  0  0  0  0  0  0  0  0  0  0  0
    2.4204   18.0467   -3.6027 H   0  0  0  0  0  0  0  0  0  0  0  0
    1.0319   17.9052   -2.3834 H   0  0  0  0  0  0  0  0  0  0  0  0
    2.8790   15.7041   -3.3456 H   0  0  0  0  0  0  0  0  0  0  0  0
    2.7431   16.4219   -1.6920 H   0  0  0  0  0  0  0  0  0  0  0  0
    0.5817   15.5185   -0.1540 H   0  0  0  0  0  0  0  0  0  0  0  0
    0.2098   16.8865   -1.2572 H   0  0  0  0  0  0  0  0  0  0  0  0
   -0.8327   15.4237   -1.2572 H   0  0  0  0  0  0  0  0  0  0  0  0
  1  2  1  0
  2  3  1  0
  3  4  1  0
  4  5  1  0
  5  6  1  0
  6  7  1  0
  7  8  1  0
  7  9  1  0
  2 10  1  0
 10 11  1  0
 11 12  1  0
 12 13  1  0
 13 14  1  6
 13 15  1  0
 15 16  1  0
 16 17  1  0
 17 18  2  0
 18 19  1  0
 19 20  1  0
 20 21  1  0
 21 22  1  0
 22 23  1  0
 22 24  1  0
 24 25  1  0
 24 26  1  0
 19 27  1  0
 27 28  1  6
 27 29  1  0
 29 30  1  0
 30 31  1  0
 31 32  1  1
  7  5  1  0
 31 10  1  0
 31 13  1  0
 27 15  1  0
 24 18  1  0
  1 33  1  0
  1 34  1  0
  1 35  1  0
  2 36  1  1
  3 37  1  0
  3 38  1  0
  4 39  1  0
  4 40  1  0
  5 41  1  6
  8 42  1  0
  8 43  1  0
  8 44  1  0
  9 45  1  0
  9 46  1  0
  9 47  1  0
 10 48  1  6
 11 49  1  0
 11 50  1  0
 12 51  1  0
 12 52  1  0
 14 53  1  0
 14 54  1  0
 14 55  1  0
 15 56  1  1
 16 57  1  0
 16 58  1  0
 17 59  1  0
 19 60  1  1
 20 61  1  0
 20 62  1  0
 21 63  1  0
 21 64  1  0
 22 65  1  6
 23 66  1  0
 25 67  1  0
 25 68  1  0
 25 69  1  0
 26 70  1  0
 26 71  1  0
 26 72  1  0
 28 73  1  0
 28 74  1  0
 28 75  1  0
 29 76  1  0
 29 77  1  0
 30 78  1  0
 30 79  1  0
 32 80  1  0
 32 81  1  0
 32 82  1  0
M  END
>  <meeko>  (14) 
{"is_sidechain": [false], "intermolecular_energy": 2.731, "internal_energy": -0.839}

$$$$
EPH_relaxed_0001_pdb2pqr_Repair_291_r2_0001_out
     RDKit          3D

 82 86  0  0  0  0  0  0  0  0999 V2000
    2.3330   12.6100    0.2900 C   0  0  0  0  0  0  0  0  0  0  0  0
    1.9280   11.5550   -0.7430 C   0  0  2  0  0  0  0  0  0  0  0  0
    3.1010   10.6260   -1.1140 C   0  0  0  0  0  0  0  0  0  0  0  0
    3.1580   10.2710   -2.6030 C   0  0  0  0  0  0  0  0  0  0  0  0
    4.4970   10.5870   -3.1980 C   0  0  2  0  0  0  0  0  0  0  0  0
    4.7660   11.9860   -3.3550 O   0  0  0  0  0  0  0  0  0  0  0  0
    4.6760   11.2180   -4.5660 C   0  0  0  0  0  0  0  0  0  0  0  0
    3.5010   11.5700   -5.4230 C   0  0  0  0  0  0  0  0  0  0  0  0
    5.9860   11.0440   -5.2680 C   0  0  0  0  0  0  0  0  0  0  0  0
    1.3850   12.2340   -1.9950 C   0  0  1  0  0  0  0  0  0  0  0  0
    0.0210   11.6490   -2.4480 C   0  0  0  0  0  0  0  0  0  0  0  0
   -0.7990   12.8280   -3.0330 C   0  0  0  0  0  0  0  0  0  0  0  0
    0.2290   13.9710   -3.2030 C   0  0  1  0  0  0  0  0  0  0  0  0
    0.9650   13.6540   -4.5420 C   0  0  0  0  0  0  0  0  0  0  0  0
   -0.3470   15.4250   -3.1910 C   0  0  2  0  0  0  0  0  0  0  0  0
   -1.3280   15.7480   -4.3320 C   0  0  0  0  0  0  0  0  0  0  0  0
   -0.7060   16.3050   -5.5690 C   0  0  0  0  0  0  0  0  0  0  0  0
    0.5410   16.8030   -5.6620 C   0  0  0  0  0  0  0  0  0  0  0  0
    1.4330   16.9290   -4.4200 C   0  0  1  0  0  0  0  0  0  0  0  0
    2.0950   18.3320   -4.3980 C   0  0  0  0  0  0  0  0  0  0  0  0
    2.8450   18.6450   -5.6900 C   0  0  0  0  0  0  0  0  0  0  0  0
    1.9120   18.5660   -6.8950 C   0  0  2  0  0  0  0  0  0  0  0  0
    0.9490   19.6210   -6.8030 O   0  0  0  0  0  0  0  0  0  0  0  0
    1.1800   17.2000   -7.0150 C   0  0  0  0  0  0  0  0  0  0  0  0
    2.1940   16.1000   -7.4150 C   0  0  0  0  0  0  0  0  0  0  0  0
    0.1660   17.3030   -8.1870 C   0  0  0  0  0  0  0  0  0  0  0  0
    0.7500   16.5550   -3.0350 C   0  0  1  0  0  0  0  0  0  0  0  0
    0.0220   17.8030   -2.4460 C   0  0  0  0  0  0  0  0  0  0  0  0
    1.8690   16.1640   -1.9980 C   0  0  0  0  0  0  0  0  0  0  0  0
    2.3100   14.6880   -1.9770 C   0  0  0  0  0  0  0  0  0  0  0  0
    1.0980   13.7540   -1.9110 C   0  0  2  0  0  0  0  0  0  0  0  0
    0.3500   14.0350   -0.5630 C   0  0  0  0  0  0  0  0  0  0  0  0
    2.1792   12.2094    1.3029 H   0  0  0  0  0  0  0  0  0  0  0  0
    3.3939   12.8674    0.1547 H   0  0  0  0  0  0  0  0  0  0  0  0
    1.7169   13.5112    0.1547 H   0  0  0  0  0  0  0  0  0  0  0  0
    1.1437   10.9315   -0.2890 H   0  0  0  0  0  0  0  0  0  0  0  0
    4.0411   11.1273   -0.8403 H   0  0  0  0  0  0  0  0  0  0  0  0
    2.9519    9.6848   -0.5646 H   0  0  0  0  0  0  0  0  0  0  0  0
    2.9606    9.1953   -2.7207 H   0  0  0  0  0  0  0  0  0  0  0  0
    2.3998   10.8709   -3.1276 H   0  0  0  0  0  0  0  0  0  0  0  0
    4.9412    9.6942   -2.7337 H   0  0  0  0  0  0  0  0  0  0  0  0
    2.6441   11.8267   -4.7829 H   0  0  0  0  0  0  0  0  0  0  0  0
    3.7553   12.4314   -6.0581 H   0  0  0  0  0  0  0  0  0  0  0  0
    3.2398   10.7107   -6.0581 H   0  0  0  0  0  0  0  0  0  0  0  0
    6.7893   10.9373   -4.5241 H   0  0  0  0  0  0  0  0  0  0  0  0
    5.9476   10.1431   -5.8980 H   0  0  0  0  0  0  0  0  0  0  0  0
    6.1841   11.9237   -5.8980 H   0  0  0  0  0  0  0  0  0  0  0  0
    2.2214   12.0465   -2.6845 H   0  0  0  0  0  0  0  0  0  0  0  0
    0.1762   10.8774   -3.2164 H   0  0  0  0  0  0  0  0  0  0  0  0
   -0.5074   11.1802   -1.6048 H   0  0  0  0  0  0  0  0  0  0  0  0
   -1.2375   12.5524   -4.0035 H   0  0  0  0  0  0  0  0  0  0  0  0
   -1.6389   13.1152   -2.3833 H   0  0  0  0  0  0  0  0  0  0  0  0
    1.9552   13.2275   -4.3240 H   0  0  0  0  0  0  0  0  0  0  0  0
    0.3740   12.9306   -5.1229 H   0  0  0  0  0  0  0  0  0  0  0  0
    1.0846   14.5804   -5.1229 H   0  0  0  0  0  0  0  0  0  0  0  0
   -0.9477   15.4332   -2.2695 H   0  0  0  0  0  0  0  0  0  0  0  0
   -1.8514   14.8193   -4.6033 H   0  0  0  0  0  0  0  0  0  0  0  0
   -1.9950   16.5333   -3.9467 H   0  0  0  0  0  0  0  0  0  0  0  0
   -1.3188   16.3089   -6.4825 H   0  0  0  0  0  0  0  0  0  0  0  0
    2.2060   16.1530   -4.5210 H   0  0  0  0  0  0  0  0  0  0  0  0
    1.3109   19.0897   -4.2529 H   0  0  0  0  0  0  0  0  0  0  0  0
    2.8260   18.3437   -3.5761 H   0  0  0  0  0  0  0  0  0  0  0  0
    3.2649   19.6597   -5.6257 H   0  0  0  0  0  0  0  0  0  0  0  0
    3.6478   17.9040   -5.8183 H   0  0  0  0  0  0  0  0  0  0  0  0
    2.5310   18.6706   -7.7982 H   0  0  0  0  0  0  0  0  0  0  0  0
    1.3200   20.3070   -6.2220 H   0  0  0  0  0  0  0  0  0  0  0  0
    2.6156   15.6426   -6.5078 H   0  0  0  0  0  0  0  0  0  0  0  0
    1.6829   15.3293   -8.0107 H   0  0  0  0  0  0  0  0  0  0  0  0
    3.0037   16.5468   -8.0107 H   0  0  0  0  0  0  0  0  0  0  0  0
   -0.8519   17.4064   -7.7831 H   0  0  0  0  0  0  0  0  0  0  0  0
    0.4067   18.1813   -8.8040 H   0  0  0  0  0  0  0  0  0  0  0  0
    0.2251   16.3942   -8.8040 H   0  0  0  0  0  0  0  0  0  0  0  0
    0.0482   17.7581   -1.3472 H   0  0  0  0  0  0  0  0  0  0  0  0
    0.5281   18.7179   -2.7878 H   0  0  0  0  0  0  0  0  0  0  0  0
   -1.0235   17.8128   -2.7878 H   0  0  0  0  0  0  0  0  0  0  0  0
    2.7571   16.7737   -2.2207 H   0  0  0  0  0  0  0  0  0  0  0  0
    1.4220   16.3454   -1.0094 H   0  0  0  0  0  0  0  0  0  0  0  0
    2.8824   14.4705   -2.8908 H   0  0  0  0  0  0  0  0  0  0  0  0
    2.9307   14.5203   -1.0845 H   0  0  0  0  0  0  0  0  0  0  0  0
    1.0101   13.7870    0.2812 H   0  0  0  0  0  0  0  0  0  0  0  0
    0.0733   15.0984   -0.5120 H   0  0  0  0  0  0  0  0  0  0  0  0
   -0.5585   13.4168   -0.5120 H   0  0  0  0  0  0  0  0  0  0  0  0
  1  2  1  0
  2  3  1  0
  3  4  1  0
  4  5  1  0
  5  6  1  0
  6  7  1  0
  7  8  1  0
  7  9  1  0
  2 10  1  0
 10 11  1  0
 11 12  1  0
 12 13  1  0
 13 14  1  6
 13 15  1  0
 15 16  1  0
 16 17  1  0
 17 18  2  0
 18 19  1  0
 19 20  1  0
 20 21  1  0
 21 22  1  0
 22 23  1  0
 22 24  1  0
 24 25  1  0
 24 26  1  0
 19 27  1  0
 27 28  1  1
 27 29  1  0
 29 30  1  0
 30 31  1  0
 31 32  1  1
  7  5  1  0
 31 10  1  0
 31 13  1  0
 27 15  1  0
 24 18  1  0
  1 33  1  0
  1 34  1  0
  1 35  1  0
  2 36  1  1
  3 37  1  0
  3 38  1  0
  4 39  1  0
  4 40  1  0
  5 41  1  1
  8 42  1  0
  8 43  1  0
  8 44  1  0
  9 45  1  0
  9 46  1  0
  9 47  1  0
 10 48  1  6
 11 49  1  0
 11 50  1  0
 12 51  1  0
 12 52  1  0
 14 53  1  0
 14 54  1  0
 14 55  1  0
 15 56  1  1
 16 57  1  0
 16 58  1  0
 17 59  1  0
 19 60  1  6
 20 61  1  0
 20 62  1  0
 21 63  1  0
 21 64  1  0
 22 65  1  6
 23 66  1  0
 25 67  1  0
 25 68  1  0
 25 69  1  0
 26 70  1  0
 26 71  1  0
 26 72  1  0
 28 73  1  0
 28 74  1  0
 28 75  1  0
 29 76  1  0
 29 77  1  0
 30 78  1  0
 30 79  1  0
 32 80  1  0
 32 81  1  0
 32 82  1  0
M  END
>  <meeko>  (15) 
{"is_sidechain": [false], "intermolecular_energy": 2.731, "internal_energy": -0.839}

$$$$
EPH_relaxed_0001_pdb2pqr_Repair_291_r2_0001_out
     RDKit          3D

 82 86  0  0  0  0  0  0  0  0999 V2000
    3.0720   14.3410   -0.0700 C   0  0  0  0  0  0  0  0  0  0  0  0
    1.9770   13.3100   -0.3630 C   0  0  2  0  0  0  0  0  0  0  0  0
    2.4740   11.8640   -0.1670 C   0  0  0  0  0  0  0  0  0  0  0  0
    2.4140   11.0150   -1.4400 C   0  0  0  0  0  0  0  0  0  0  0  0
    3.7300   10.9990   -2.1580 C   0  0  2  0  0  0  0  0  0  0  0  0
    4.0770   12.2330   -2.8000 O   0  0  0  0  0  0  0  0  0  0  0  0
    3.8610   11.1060   -3.6660 C   0  0  0  0  0  0  0  0  0  0  0  0
    2.6580   11.2370   -4.5470 C   0  0  0  0  0  0  0  0  0  0  0  0
    5.1110   10.5960   -4.3130 C   0  0  0  0  0  0  0  0  0  0  0  0
    1.4570   13.4950   -1.7840 C   0  0  1  0  0  0  0  0  0  0  0  0
    0.1610   12.6840   -2.0550 C   0  0  0  0  0  0  0  0  0  0  0  0
   -0.7040   13.5350   -3.0200 C   0  0  0  0  0  0  0  0  0  0  0  0
    0.2510   14.6390   -3.5310 C   0  0  1  0  0  0  0  0  0  0  0  0
    1.0770   13.9600   -4.6680 C   0  0  0  0  0  0  0  0  0  0  0  0
   -0.4210   15.9630   -4.0180 C   0  0  2  0  0  0  0  0  0  0  0  0
   -1.3600   15.8130   -5.2270 C   0  0  0  0  0  0  0  0  0  0  0  0
   -0.7130   15.9810   -6.5620 C   0  0  0  0  0  0  0  0  0  0  0  0
    0.5010   16.5210   -6.7800 C   0  0  0  0  0  0  0  0  0  0  0  0
    1.3150   17.1200   -5.6260 C   0  0  1  0  0  0  0  0  0  0  0  0
    1.8790   18.5010   -6.0520 C   0  0  0  0  0  0  0  0  0  0  0  0
    2.6730   18.4320   -7.3530 C   0  0  0  0  0  0  0  0  0  0  0  0
    1.8120   17.8860   -8.4900 C   0  0  2  0  0  0  0  0  0  0  0  0
    0.7770   18.8310   -8.7790 O   0  0  0  0  0  0  0  0  0  0  0  0
    1.1820   16.5020   -8.1700 C   0  0  0  0  0  0  0  0  0  0  0  0
    2.2880   15.4180   -8.1550 C   0  0  0  0  0  0  0  0  0  0  0  0
    0.2280   16.1310   -9.3370 C   0  0  0  0  0  0  0  0  0  0  0  0
    0.5860   17.1680   -4.2150 C   0  0  1  0  0  0  0  0  0  0  0  0
   -0.2540   18.4760   -4.0930 C   0  0  0  0  0  0  0  0  0  0  0  0
    1.6730   17.2310   -3.0770 C   0  0  0  0  0  0  0  0  0  0  0  0
    2.2110   15.8850   -2.5550 C   0  0  0  0  0  0  0  0  0  0  0  0
    1.0630   14.9290   -2.2160 C   0  0  2  0  0  0  0  0  0  0  0  0
    0.2280   15.5750   -1.0590 C   0  0  0  0  0  0  0  0  0  0  0  0
    3.1896   14.4518    1.0181 H   0  0  0  0  0  0  0  0  0  0  0  0
    4.0219   14.0018   -0.5089 H   0  0  0  0  0  0  0  0  0  0  0  0
    2.7905   15.3096   -0.5089 H   0  0  0  0  0  0  0  0  0  0  0  0
    1.1618   13.4785    0.3560 H   0  0  0  0  0  0  0  0  0  0  0  0
    3.5179   11.8993    0.1781 H   0  0  0  0  0  0  0  0  0  0  0  0
    1.8052   11.3908    0.5670 H   0  0  0  0  0  0  0  0  0  0  0  0
    2.1434    9.9839   -1.1685 H   0  0  0  0  0  0  0  0  0  0  0  0
    1.6623   11.4559   -2.1113 H   0  0  0  0  0  0  0  0  0  0  0  0
    4.1455   10.2867   -1.4300 H   0  0  0  0  0  0  0  0  0  0  0  0
    1.7565   11.3352   -3.9244 H   0  0  0  0  0  0  0  0  0  0  0  0
    2.7639   12.1289   -5.1820 H   0  0  0  0  0  0  0  0  0  0  0  0
    2.5695   10.3432   -5.1820 H   0  0  0  0  0  0  0  0  0  0  0  0
    5.8321   10.3018   -3.5362 H   0  0  0  0  0  0  0  0  0  0  0  0
    4.8704    9.7242   -4.9391 H   0  0  0  0  0  0  0  0  0  0  0  0
    5.5489   11.3873   -4.9391 H   0  0  0  0  0  0  0  0  0  0  0  0
    2.3400   13.1617   -2.3490 H   0  0  0  0  0  0  0  0  0  0  0  0
    0.4085   11.7181   -2.5196 H   0  0  0  0  0  0  0  0  0  0  0  0
   -0.3785   12.4763   -1.1192 H   0  0  0  0  0  0  0  0  0  0  0  0
   -1.0706   12.9214   -3.8561 H   0  0  0  0  0  0  0  0  0  0  0  0
   -1.5943   13.9504   -2.5252 H   0  0  0  0  0  0  0  0  0  0  0  0
    1.8547   13.3207   -4.2246 H   0  0  0  0  0  0  0  0  0  0  0  0
    0.4089   13.3465   -5.2904 H   0  0  0  0  0  0  0  0  0  0  0  0
    1.5496   14.7342   -5.2904 H   0  0  0  0  0  0  0  0  0  0  0  0
   -1.0683   16.2235   -3.1676 H   0  0  0  0  0  0  0  0  0  0  0  0
   -1.8049   14.8077   -5.1891 H   0  0  0  0  0  0  0  0  0  0  0  0
   -2.0974   16.6248   -5.1420 H   0  0  0  0  0  0  0  0  0  0  0  0
   -1.2754   15.6344   -7.4415 H   0  0  0  0  0  0  0  0  0  0  0  0
    2.1427   16.4192   -5.4424 H   0  0  0  0  0  0  0  0  0  0  0  0
    1.0392   19.1983   -6.1879 H   0  0  0  0  0  0  0  0  0  0  0  0
    2.5632   18.8411   -5.2606 H   0  0  0  0  0  0  0  0  0  0  0  0
    3.0197   19.4420   -7.6171 H   0  0  0  0  0  0  0  0  0  0  0  0
    3.5293   17.7574   -7.2061 H   0  0  0  0  0  0  0  0  0  0  0  0
    2.4686   17.7381   -9.3600 H   0  0  0  0  0  0  0  0  0  0  0  0
    0.2340   18.4620   -9.4950 H   0  0  0  0  0  0  0  0  0  0  0  0
    2.5427   15.1684   -7.1144 H   0  0  0  0  0  0  0  0  0  0  0  0
    1.9248   14.5164   -8.6700 H   0  0  0  0  0  0  0  0  0  0  0  0
    3.1821   15.7993   -8.6700 H   0  0  0  0  0  0  0  0  0  0  0  0
   -0.7240   15.7608   -8.9288 H   0  0  0  0  0  0  0  0  0  0  0  0
    0.0405   17.0217   -9.9546 H   0  0  0  0  0  0  0  0  0  0  0  0
    0.6915   15.3476   -9.9546 H   0  0  0  0  0  0  0  0  0  0  0  0
   -0.4077   18.7153   -3.0304 H   0  0  0  0  0  0  0  0  0  0  0  0
    0.2823   19.3030   -4.5813 H   0  0  0  0  0  0  0  0  0  0  0  0
   -1.2292   18.3324   -4.5813 H   0  0  0  0  0  0  0  0  0  0  0  0
    2.5284   17.8033   -3.4652 H   0  0  0  0  0  0  0  0  0  0  0  0
    1.1633   17.6902   -2.2172 H   0  0  0  0  0  0  0  0  0  0  0  0
    2.8444   15.4264   -3.3287 H   0  0  0  0  0  0  0  0  0  0  0  0
    2.7934   16.0714   -1.6406 H   0  0  0  0  0  0  0  0  0  0  0  0
    0.6385   15.2574   -0.0891 H   0  0  0  0  0  0  0  0  0  0  0  0
    0.2791   16.6710   -1.1377 H   0  0  0  0  0  0  0  0  0  0  0  0
   -0.8200   15.2503   -1.1377 H   0  0  0  0  0  0  0  0  0  0  0  0
  1  2  1  0
  2  3  1  0
  3  4  1  0
  4  5  1  0
  5  6  1  0
  6  7  1  0
  7  8  1  0
  7  9  1  0
  2 10  1  0
 10 11  1  0
 11 12  1  0
 12 13  1  0
 13 14  1  6
 13 15  1  0
 15 16  1  0
 16 17  1  0
 17 18  2  0
 18 19  1  0
 19 20  1  0
 20 21  1  0
 21 22  1  0
 22 23  1  0
 22 24  1  0
 24 25  1  0
 24 26  1  0
 19 27  1  0
 27 28  1  6
 27 29  1  0
 29 30  1  0
 30 31  1  0
 31 32  1  1
  7  5  1  0
 31 10  1  0
 31 13  1  0
 27 15  1  0
 24 18  1  0
  1 33  1  0
  1 34  1  0
  1 35  1  0
  2 36  1  1
  3 37  1  0
  3 38  1  0
  4 39  1  0
  4 40  1  0
  5 41  1  1
  8 42  1  0
  8 43  1  0
  8 44  1  0
  9 45  1  0
  9 46  1  0
  9 47  1  0
 10 48  1  6
 11 49  1  0
 11 50  1  0
 12 51  1  0
 12 52  1  0
 14 53  1  0
 14 54  1  0
 14 55  1  0
 15 56  1  1
 16 57  1  0
 16 58  1  0
 17 59  1  0
 19 60  1  1
 20 61  1  0
 20 62  1  0
 21 63  1  0
 21 64  1  0
 22 65  1  6
 23 66  1  0
 25 67  1  0
 25 68  1  0
 25 69  1  0
 26 70  1  0
 26 71  1  0
 26 72  1  0
 28 73  1  0
 28 74  1  0
 28 75  1  0
 29 76  1  0
 29 77  1  0
 30 78  1  0
 30 79  1  0
 32 80  1  0
 32 81  1  0
 32 82  1  0
M  END
>  <meeko>  (16) 
{"is_sidechain": [false], "intermolecular_energy": 2.731, "internal_energy": -0.839}

$$$$
EPH_relaxed_0001_pdb2pqr_Repair_291_r2_0001_out
     RDKit          3D

 82 86  0  0  0  0  0  0  0  0999 V2000
    3.3340   10.7040   -1.1160 C   0  0  0  0  0  0  0  0  0  0  0  0
    2.1120   11.5570   -0.7650 C   0  0  2  0  0  0  0  0  0  0  0  0
    1.0110   10.7350   -0.0640 C   0  0  0  0  0  0  0  0  0  0  0  0
    1.1440   10.7020    1.4610 C   0  0  0  0  0  0  0  0  0  0  0  0
    0.2120   11.6750    2.1190 C   0  0  2  0  0  0  0  0  0  0  0  0
    0.6710   13.0330    2.1250 O   0  0  0  0  0  0  0  0  0  0  0  0
    0.5390   12.4030    3.4090 C   0  0  0  0  0  0  0  0  0  0  0  0
    1.8390   12.1890    4.1180 C   0  0  0  0  0  0  0  0  0  0  0  0
   -0.5890   12.9430    4.2320 C   0  0  0  0  0  0  0  0  0  0  0  0
    1.5530   12.2090   -2.0240 C   0  0  1  0  0  0  0  0  0  0  0  0
    0.2170   11.5690   -2.4860 C   0  0  0  0  0  0  0  0  0  0  0  0
   -0.6440   12.7120   -3.0840 C   0  0  0  0  0  0  0  0  0  0  0  0
    0.3400   13.8940   -3.2520 C   0  0  1  0  0  0  0  0  0  0  0  0
    1.0990   13.5980   -4.5830 C   0  0  0  0  0  0  0  0  0  0  0  0
   -0.2910   15.3240   -3.2530 C   0  0  2  0  0  0  0  0  0  0  0  0
   -1.2750   15.6020   -4.4030 C   0  0  0  0  0  0  0  0  0  0  0  0
   -0.6640   16.1760   -5.6380 C   0  0  0  0  0  0  0  0  0  0  0  0
    0.5630   16.7220   -5.7240 C   0  0  0  0  0  0  0  0  0  0  0  0
    1.4390   16.8890   -4.4760 C   0  0  1  0  0  0  0  0  0  0  0  0
    2.0460   18.3170   -4.4560 C   0  0  0  0  0  0  0  0  0  0  0  0
    2.7940   18.6520   -5.7430 C   0  0  0  0  0  0  0  0  0  0  0  0
    1.8750   18.5300   -6.9560 C   0  0  2  0  0  0  0  0  0  0  0  0
    0.8710   19.5470   -6.8770 O   0  0  0  0  0  0  0  0  0  0  0  0
    1.1970   17.1360   -7.0740 C   0  0  0  0  0  0  0  0  0  0  0  0
    2.2570   16.0740   -7.4600 C   0  0  0  0  0  0  0  0  0  0  0  0
    0.1900   17.1930   -8.2550 C   0  0  0  0  0  0  0  0  0  0  0  0
    0.7590   16.4960   -3.0940 C   0  0  1  0  0  0  0  0  0  0  0  0
   -0.0200   17.7180   -2.5180 C   0  0  0  0  0  0  0  0  0  0  0  0
    1.8840   16.1540   -2.0460 C   0  0  0  0  0  0  0  0  0  0  0  0
    2.3820   14.6970   -2.0130 C   0  0  0  0  0  0  0  0  0  0  0  0
    1.2060   13.7170   -1.9510 C   0  0  2  0  0  0  0  0  0  0  0  0
    0.4370   13.9760   -0.6110 C   0  0  0  0  0  0  0  0  0  0  0  0
    3.8216   10.3636   -0.1906 H   0  0  0  0  0  0  0  0  0  0  0  0
    3.0151    9.8313   -1.7048 H   0  0  0  0  0  0  0  0  0  0  0  0
    4.0433   11.3042   -1.7048 H   0  0  0  0  0  0  0  0  0  0  0  0
    2.4433   12.3338   -0.0601 H   0  0  0  0  0  0  0  0  0  0  0  0
    0.0350   11.1741   -0.3180 H   0  0  0  0  0  0  0  0  0  0  0  0
    1.1097    9.6981   -0.4177 H   0  0  0  0  0  0  0  0  0  0  0  0
    0.9108    9.6878    1.8175 H   0  0  0  0  0  0  0  0  0  0  0  0
    2.1748   10.9837    1.7220 H   0  0  0  0  0  0  0  0  0  0  0  0
   -0.6627   11.0867    1.8048 H   0  0  0  0  0  0  0  0  0  0  0  0
    1.6727   12.2164    5.2050 H   0  0  0  0  0  0  0  0  0  0  0  0
    2.2542   11.2104    3.8351 H   0  0  0  0  0  0  0  0  0  0  0  0
    2.5459   12.9829    3.8351 H   0  0  0  0  0  0  0  0  0  0  0  0
   -0.3510   12.8291    5.2999 H   0  0  0  0  0  0  0  0  0  0  0  0
   -0.7346   14.0084    4.0004 H   0  0  0  0  0  0  0  0  0  0  0  0
   -1.5102   12.3882    4.0004 H   0  0  0  0  0  0  0  0  0  0  0  0
    2.4025   12.0514   -2.7048 H   0  0  0  0  0  0  0  0  0  0  0  0
    0.4092   10.8006   -3.2493 H   0  0  0  0  0  0  0  0  0  0  0  0
   -0.3000   11.0839   -1.6449 H   0  0  0  0  0  0  0  0  0  0  0  0
   -1.0633   12.4144   -4.0564 H   0  0  0  0  0  0  0  0  0  0  0  0
   -1.4998   12.9693   -2.4426 H   0  0  0  0  0  0  0  0  0  0  0  0
    2.1014   13.2071   -4.3543 H   0  0  0  0  0  0  0  0  0  0  0  0
    0.5390   12.8524   -5.1664 H   0  0  0  0  0  0  0  0  0  0  0  0
    1.1916   14.5259   -5.1664 H   0  0  0  0  0  0  0  0  0  0  0  0
   -0.8986   15.3143   -2.3361 H   0  0  0  0  0  0  0  0  0  0  0  0
   -1.7598   14.6522   -4.6731 H   0  0  0  0  0  0  0  0  0  0  0  0
   -1.9759   16.3622   -4.0277 H   0  0  0  0  0  0  0  0  0  0  0  0
   -1.2685   16.1505   -6.5566 H   0  0  0  0  0  0  0  0  0  0  0  0
    2.2425   16.1432   -4.5668 H   0  0  0  0  0  0  0  0  0  0  0  0
    1.2319   19.0445   -4.3215 H   0  0  0  0  0  0  0  0  0  0  0  0
    2.7689   18.3613   -3.6281 H   0  0  0  0  0  0  0  0  0  0  0  0
    3.1733   19.6827   -5.6810 H   0  0  0  0  0  0  0  0  0  0  0  0
    3.6261   17.9422   -5.8603 H   0  0  0  0  0  0  0  0  0  0  0  0
    2.4971   18.6534   -7.8547 H   0  0  0  0  0  0  0  0  0  0  0  0
    0.7260   19.8880   -7.7760 H   0  0  0  0  0  0  0  0  0  0  0  0
    2.6904   15.6398   -6.5470 H   0  0  0  0  0  0  0  0  0  0  0  0
    1.7809   15.2796   -8.0535 H   0  0  0  0  0  0  0  0  0  0  0  0
    3.0523   16.5486   -8.0535 H   0  0  0  0  0  0  0  0  0  0  0  0
   -0.8351   17.2510   -7.8603 H   0  0  0  0  0  0  0  0  0  0  0  0
    0.3967   18.0809   -8.8706 H   0  0  0  0  0  0  0  0  0  0  0  0
    0.2952   16.2875   -8.8706 H   0  0  0  0  0  0  0  0  0  0  0  0
    0.0028   17.6823   -1.4188 H   0  0  0  0  0  0  0  0  0  0  0  0
    0.4512   18.6496   -2.8644 H   0  0  0  0  0  0  0  0  0  0  0  0
   -1.0635   17.6840   -2.8644 H   0  0  0  0  0  0  0  0  0  0  0  0
    2.7494   16.7967   -2.2650 H   0  0  0  0  0  0  0  0  0  0  0  0
    1.4220   16.3228   -1.0621 H   0  0  0  0  0  0  0  0  0  0  0  0
    2.9697   14.4969   -2.9211 H   0  0  0  0  0  0  0  0  0  0  0  0
    3.0019   14.5584   -1.1149 H   0  0  0  0  0  0  0  0  0  0  0  0
    1.0977   13.7535    0.2398 H   0  0  0  0  0  0  0  0  0  0  0  0
    0.1233   15.0294   -0.5660 H   0  0  0  0  0  0  0  0  0  0  0  0
   -0.4500   13.3270   -0.5660 H   0  0  0  0  0  0  0  0  0  0  0  0
  1  2  1  0
  2  3  1  0
  3  4  1  0
  4  5  1  0
  5  6  1  0
  6  7  1  0
  7  8  1  0
  7  9  1  0
  2 10  1  0
 10 11  1  0
 11 12  1  0
 12 13  1  0
 13 14  1  6
 13 15  1  0
 15 16  1  0
 16 17  1  0
 17 18  2  0
 18 19  1  0
 19 20  1  0
 20 21  1  0
 21 22  1  0
 22 23  1  0
 22 24  1  0
 24 25  1  0
 24 26  1  0
 19 27  1  0
 27 28  1  1
 27 29  1  0
 29 30  1  0
 30 31  1  0
 31 32  1  1
  7  5  1  0
 31 10  1  0
 31 13  1  0
 27 15  1  0
 24 18  1  0
  1 33  1  0
  1 34  1  0
  1 35  1  0
  2 36  1  1
  3 37  1  0
  3 38  1  0
  4 39  1  0
  4 40  1  0
  5 41  1  1
  8 42  1  0
  8 43  1  0
  8 44  1  0
  9 45  1  0
  9 46  1  0
  9 47  1  0
 10 48  1  6
 11 49  1  0
 11 50  1  0
 12 51  1  0
 12 52  1  0
 14 53  1  0
 14 54  1  0
 14 55  1  0
 15 56  1  1
 16 57  1  0
 16 58  1  0
 17 59  1  0
 19 60  1  6
 20 61  1  0
 20 62  1  0
 21 63  1  0
 21 64  1  0
 22 65  1  6
 23 66  1  0
 25 67  1  0
 25 68  1  0
 25 69  1  0
 26 70  1  0
 26 71  1  0
 26 72  1  0
 28 73  1  0
 28 74  1  0
 28 75  1  0
 29 76  1  0
 29 77  1  0
 30 78  1  0
 30 79  1  0
 32 80  1  0
 32 81  1  0
 32 82  1  0
M  END
>  <meeko>  (17) 
{"is_sidechain": [false], "intermolecular_energy": 2.731, "internal_energy": -0.839}

$$$$
EPH_relaxed_0001_pdb2pqr_Repair_291_r2_0001_out
     RDKit          3D

 82 86  0  0  0  0  0  0  0  0999 V2000
   -0.2270   10.9430    1.8190 C   0  0  0  0  0  0  0  0  0  0  0  0
   -0.2610   11.2670    0.3220 C   0  0  2  0  0  0  0  0  0  0  0  0
    0.6160   10.3030   -0.5010 C   0  0  0  0  0  0  0  0  0  0  0  0
    0.1900    8.8360   -0.3900 C   0  0  0  0  0  0  0  0  0  0  0  0
   -0.6510    8.4130   -1.5560 C   0  0  2  0  0  0  0  0  0  0  0  0
   -1.3330    9.4840   -2.2220 O   0  0  0  0  0  0  0  0  0  0  0  0
   -2.1650    8.5080   -1.5740 C   0  0  0  0  0  0  0  0  0  0  0  0
   -2.9280    9.0410   -0.4020 C   0  0  0  0  0  0  0  0  0  0  0  0
   -2.9250    7.6380   -2.5260 C   0  0  0  0  0  0  0  0  0  0  0  0
    0.1870   12.7050    0.0910 C   0  0  1  0  0  0  0  0  0  0  0  0
    1.4370   13.0830    0.9300 C   0  0  0  0  0  0  0  0  0  0  0  0
    2.2780   14.0570    0.0660 C   0  0  0  0  0  0  0  0  0  0  0  0
    1.3360   14.4660   -1.0910 C   0  0  1  0  0  0  0  0  0  0  0  0
    0.4260   15.5840   -0.4910 C   0  0  0  0  0  0  0  0  0  0  0  0
    2.0270   14.9320   -2.4130 C   0  0  2  0  0  0  0  0  0  0  0  0
    2.8930   16.1970   -2.2870 C   0  0  0  0  0  0  0  0  0  0  0  0
    2.1800   17.4850   -2.5360 C   0  0  0  0  0  0  0  0  0  0  0  0
    0.9760   17.6110   -3.1240 C   0  0  0  0  0  0  0  0  0  0  0  0
    0.2470   16.3890   -3.6970 C   0  0  1  0  0  0  0  0  0  0  0  0
   -0.2900   16.7230   -5.1140 C   0  0  0  0  0  0  0  0  0  0  0  0
   -1.1560   17.9790   -5.1300 C   0  0  0  0  0  0  0  0  0  0  0  0
   -0.3780   19.1840   -4.6080 C   0  0  2  0  0  0  0  0  0  0  0  0
    0.6720   19.4900   -5.5300 O   0  0  0  0  0  0  0  0  0  0  0  0
    0.2200   18.9610   -3.1910 C   0  0  0  0  0  0  0  0  0  0  0  0
   -0.9210   18.9310   -2.1440 C   0  0  0  0  0  0  0  0  0  0  0  0
    1.0960   20.1940   -2.8420 C   0  0  0  0  0  0  0  0  0  0  0  0
    1.0530   15.0200   -3.6570 C   0  0  1  0  0  0  0  0  0  0  0  0
    1.9430   14.8890   -4.9310 C   0  0  0  0  0  0  0  0  0  0  0  0
    0.0330   13.8210   -3.7050 C   0  0  0  0  0  0  0  0  0  0  0  0
   -0.5230   13.3290   -2.3550 C   0  0  0  0  0  0  0  0  0  0  0  0
    0.6070   13.0970   -1.3480 C   0  0  2  0  0  0  0  0  0  0  0  0
    1.5260   11.9610   -1.9140 C   0  0  0  0  0  0  0  0  0  0  0  0
   -0.3246   11.8733    2.3978 H   0  0  0  0  0  0  0  0  0  0  0  0
   -1.0592   10.2678    2.0670 H   0  0  0  0  0  0  0  0  0  0  0  0
    0.7273   10.4553    2.0670 H   0  0  0  0  0  0  0  0  0  0  0  0
   -1.2990   11.1418   -0.0199 H   0  0  0  0  0  0  0  0  0  0  0  0
    0.5618   10.6013   -1.5584 H   0  0  0  0  0  0  0  0  0  0  0  0
    1.6367   10.3727   -0.0969 H   0  0  0  0  0  0  0  0  0  0  0  0
    1.0904    8.2052   -0.3525 H   0  0  0  0  0  0  0  0  0  0  0  0
   -0.4100    8.7216    0.5248 H   0  0  0  0  0  0  0  0  0  0  0  0
    0.0390    7.5873   -1.7842 H   0  0  0  0  0  0  0  0  0  0  0  0
   -2.4491    8.7065    0.5301 H   0  0  0  0  0  0  0  0  0  0  0  0
   -2.9335   10.1404   -0.4373 H   0  0  0  0  0  0  0  0  0  0  0  0
   -3.9622    8.6678   -0.4373 H   0  0  0  0  0  0  0  0  0  0  0  0
   -3.5451    6.9282   -1.9588 H   0  0  0  0  0  0  0  0  0  0  0  0
   -3.5706    8.2641   -3.1594 H   0  0  0  0  0  0  0  0  0  0  0  0
   -2.2178    7.0824   -3.1594 H   0  0  0  0  0  0  0  0  0  0  0  0
   -0.7367   13.2330    0.3703 H   0  0  0  0  0  0  0  0  0  0  0  0
    1.1309   13.5743    1.8654 H   0  0  0  0  0  0  0  0  0  0  0  0
    2.0190   12.1884    1.1964 H   0  0  0  0  0  0  0  0  0  0  0  0
    2.5767   14.9378    0.6533 H   0  0  0  0  0  0  0  0  0  0  0  0
    3.2081   13.5954   -0.2970 H   0  0  0  0  0  0  0  0  0  0  0  0
    0.4639   15.5375    0.6074 H   0  0  0  0  0  0  0  0  0  0  0  0
    0.7831   16.5681   -0.8288 H   0  0  0  0  0  0  0  0  0  0  0  0
   -0.6100   15.4341   -0.8288 H   0  0  0  0  0  0  0  0  0  0  0  0
    2.7289   14.1093   -2.6140 H   0  0  0  0  0  0  0  0  0  0  0  0
    3.3039   16.2275   -1.2671 H   0  0  0  0  0  0  0  0  0  0  0  0
    3.6622   16.1186   -3.0694 H   0  0  0  0  0  0  0  0  0  0  0  0
    2.6811   18.4089   -2.2115 H   0  0  0  0  0  0  0  0  0  0  0  0
   -0.5943   16.1902   -3.0168 H   0  0  0  0  0  0  0  0  0  0  0  0
    0.5655   16.8758   -5.7884 H   0  0  0  0  0  0  0  0  0  0  0  0
   -0.9173   15.8805   -5.4407 H   0  0  0  0  0  0  0  0  0  0  0  0
   -1.4807   18.1794   -6.1617 H   0  0  0  0  0  0  0  0  0  0  0  0
   -2.0266   17.8138   -4.4783 H   0  0  0  0  0  0  0  0  0  0  0  0
   -1.0868   20.0207   -4.5210 H   0  0  0  0  0  0  0  0  0  0  0  0
    0.2800   19.9840   -6.2700 H   0  0  0  0  0  0  0  0  0  0  0  0
   -0.4903   18.9423   -1.1319 H   0  0  0  0  0  0  0  0  0  0  0  0
   -1.5651   19.8125   -2.2783 H   0  0  0  0  0  0  0  0  0  0  0  0
   -1.5179   18.0168   -2.2783 H   0  0  0  0  0  0  0  0  0  0  0  0
    1.1679   20.2952   -1.7490 H   0  0  0  0  0  0  0  0  0  0  0  0
    2.1026   20.0601   -3.2648 H   0  0  0  0  0  0  0  0  0  0  0  0
    0.6383   21.1005   -3.2648 H   0  0  0  0  0  0  0  0  0  0  0  0
    2.9904   14.7348   -4.6323 H   0  0  0  0  0  0  0  0  0  0  0  0
    1.6024   14.0313   -5.5296 H   0  0  0  0  0  0  0  0  0  0  0  0
    1.8640   15.8085   -5.5296 H   0  0  0  0  0  0  0  0  0  0  0  0
   -0.8214   14.1352   -4.3224 H   0  0  0  0  0  0  0  0  0  0  0  0
    0.6047   12.9720   -4.1080 H   0  0  0  0  0  0  0  0  0  0  0  0
   -1.2133   14.0853   -1.9531 H   0  0  0  0  0  0  0  0  0  0  0  0
   -1.0479   12.3762   -2.5184 H   0  0  0  0  0  0  0  0  0  0  0  0
    1.9766   11.4039   -1.0794 H   0  0  0  0  0  0  0  0  0  0  0  0
    0.9250   11.2759   -2.5300 H   0  0  0  0  0  0  0  0  0  0  0  0
    2.3215   12.4057   -2.5300 H   0  0  0  0  0  0  0  0  0  0  0  0
  1  2  1  0
  2  3  1  0
  3  4  1  0
  4  5  1  0
  5  6  1  0
  6  7  1  0
  7  8  1  0
  7  9  1  0
  2 10  1  0
 10 11  1  0
 11 12  1  0
 12 13  1  0
 13 14  1  1
 13 15  1  0
 15 16  1  0
 16 17  1  0
 17 18  2  0
 18 19  1  0
 19 20  1  0
 20 21  1  0
 21 22  1  0
 22 23  1  0
 22 24  1  0
 24 25  1  0
 24 26  1  0
 19 27  1  0
 27 28  1  6
 27 29  1  0
 29 30  1  0
 30 31  1  0
 31 32  1  6
  7  5  1  0
 31 10  1  0
 31 13  1  0
 27 15  1  0
 24 18  1  0
  1 33  1  0
  1 34  1  0
  1 35  1  0
  2 36  1  6
  3 37  1  0
  3 38  1  0
  4 39  1  0
  4 40  1  0
  5 41  1  6
  8 42  1  0
  8 43  1  0
  8 44  1  0
  9 45  1  0
  9 46  1  0
  9 47  1  0
 10 48  1  1
 11 49  1  0
 11 50  1  0
 12 51  1  0
 12 52  1  0
 14 53  1  0
 14 54  1  0
 14 55  1  0
 15 56  1  6
 16 57  1  0
 16 58  1  0
 17 59  1  0
 19 60  1  1
 20 61  1  0
 20 62  1  0
 21 63  1  0
 21 64  1  0
 22 65  1  1
 23 66  1  0
 25 67  1  0
 25 68  1  0
 25 69  1  0
 26 70  1  0
 26 71  1  0
 26 72  1  0
 28 73  1  0
 28 74  1  0
 28 75  1  0
 29 76  1  0
 29 77  1  0
 30 78  1  0
 30 79  1  0
 32 80  1  0
 32 81  1  0
 32 82  1  0
M  END
>  <meeko>  (18) 
{"is_sidechain": [false], "intermolecular_energy": 2.731, "internal_energy": -0.839}

$$$$
EPH_relaxed_0001_pdb2pqr_Repair_291_r2_0001_out
     RDKit          3D

 82 86  0  0  0  0  0  0  0  0999 V2000
    2.4540   19.4860   -0.1510 C   0  0  0  0  0  0  0  0  0  0  0  0
    2.2340   17.9740   -0.0530 C   0  0  2  0  0  0  0  0  0  0  0  0
    3.5630   17.1980    0.0310 C   0  0  0  0  0  0  0  0  0  0  0  0
    3.4770   15.7700   -0.5150 C   0  0  0  0  0  0  0  0  0  0  0  0
    2.2560   15.0580   -0.0160 C   0  0  2  0  0  0  0  0  0  0  0  0
    2.4670   13.6860    0.3420 O   0  0  0  0  0  0  0  0  0  0  0  0
    1.5840   13.9230   -0.7660 C   0  0  0  0  0  0  0  0  0  0  0  0
    2.1100   13.4360   -2.0790 C   0  0  0  0  0  0  0  0  0  0  0  0
    0.1490   13.6200   -0.4680 C   0  0  0  0  0  0  0  0  0  0  0  0
    1.4210   17.4890   -1.2470 C   0  0  1  0  0  0  0  0  0  0  0  0
   -0.1070   17.5130   -0.9800 C   0  0  0  0  0  0  0  0  0  0  0  0
   -0.7910   17.8840   -2.3210 C   0  0  0  0  0  0  0  0  0  0  0  0
    0.3250   17.7350   -3.3810 C   0  0  1  0  0  0  0  0  0  0  0  0
    0.3850   16.2060   -3.6900 C   0  0  0  0  0  0  0  0  0  0  0  0
    0.1560   18.5810   -4.6860 C   0  0  2  0  0  0  0  0  0  0  0  0
   -1.0870   18.2410   -5.5270 C   0  0  0  0  0  0  0  0  0  0  0  0
   -0.8850   17.1910   -6.5690 C   0  0  0  0  0  0  0  0  0  0  0  0
    0.3060   16.7500   -7.0130 C   0  0  0  0  0  0  0  0  0  0  0  0
    1.6140   17.3880   -6.5270 C   0  0  1  0  0  0  0  0  0  0  0  0
    2.5390   17.6610   -7.7420 C   0  0  0  0  0  0  0  0  0  0  0  0
    2.7780   16.4140   -8.5880 C   0  0  0  0  0  0  0  0  0  0  0  0
    1.4580   15.8420   -9.1000 C   0  0  2  0  0  0  0  0  0  0  0  0
    0.8830   16.7690  -10.0260 O   0  0  0  0  0  0  0  0  0  0  0  0
    0.4410   15.5360   -7.9660 C   0  0  0  0  0  0  0  0  0  0  0  0
    0.9320   14.3220   -7.1390 C   0  0  0  0  0  0  0  0  0  0  0  0
   -0.8940   15.1000   -8.6260 C   0  0  0  0  0  0  0  0  0  0  0  0
    1.4570   18.6560   -5.5830 C   0  0  1  0  0  0  0  0  0  0  0  0
    1.3300   19.9500   -6.4450 C   0  0  0  0  0  0  0  0  0  0  0  0
    2.7670   18.8230   -4.7240 C   0  0  0  0  0  0  0  0  0  0  0  0
    2.8240   18.0560   -3.3890 C   0  0  0  0  0  0  0  0  0  0  0  0
    1.5520   18.2880   -2.5680 C   0  0  2  0  0  0  0  0  0  0  0  0
    1.4760   19.8150   -2.2240 C   0  0  0  0  0  0  0  0  0  0  0  0
    2.5162   19.9138    0.8605 H   0  0  0  0  0  0  0  0  0  0  0  0
    3.3907   19.6859   -0.6920 H   0  0  0  0  0  0  0  0  0  0  0  0
    1.6131   19.9446   -0.6920 H   0  0  0  0  0  0  0  0  0  0  0  0
    1.6799   17.7796    0.8772 H   0  0  0  0  0  0  0  0  0  0  0  0
    4.3221   17.7457   -0.5467 H   0  0  0  0  0  0  0  0  0  0  0  0
    3.8229   17.1197    1.0970 H   0  0  0  0  0  0  0  0  0  0  0  0
    3.4422   15.8100   -1.6137 H   0  0  0  0  0  0  0  0  0  0  0  0
    4.3622   15.2166   -0.1684 H   0  0  0  0  0  0  0  0  0  0  0  0
    1.8636   15.9882    0.4207 H   0  0  0  0  0  0  0  0  0  0  0  0
    2.9069   12.6982   -1.9039 H   0  0  0  0  0  0  0  0  0  0  0  0
    1.2948   12.9668   -2.6493 H   0  0  0  0  0  0  0  0  0  0  0  0
    2.5151   14.2849   -2.6493 H   0  0  0  0  0  0  0  0  0  0  0  0
   -0.0005   13.5884    0.6213 H   0  0  0  0  0  0  0  0  0  0  0  0
   -0.4892   14.4032   -0.9032 H   0  0  0  0  0  0  0  0  0  0  0  0
   -0.1180   12.6457   -0.9032 H   0  0  0  0  0  0  0  0  0  0  0  0
    1.8544   16.4854   -1.3688 H   0  0  0  0  0  0  0  0  0  0  0  0
   -0.4479   16.5232   -0.6423 H   0  0  0  0  0  0  0  0  0  0  0  0
   -0.3587   18.2406   -0.1943 H   0  0  0  0  0  0  0  0  0  0  0  0
   -1.6241   17.1983   -2.5350 H   0  0  0  0  0  0  0  0  0  0  0  0
   -1.2193   18.8971   -2.3051 H   0  0  0  0  0  0  0  0  0  0  0  0
    0.4071   15.6417   -2.7460 H   0  0  0  0  0  0  0  0  0  0  0  0
   -0.5024   15.9142   -4.2709 H   0  0  0  0  0  0  0  0  0  0  0  0
    1.2925   15.9846   -4.2709 H   0  0  0  0  0  0  0  0  0  0  0  0
   -0.0177   19.5926   -4.2904 H   0  0  0  0  0  0  0  0  0  0  0  0
   -1.8754   17.8937   -4.8430 H   0  0  0  0  0  0  0  0  0  0  0  0
   -1.3481   19.1616   -6.0696 H   0  0  0  0  0  0  0  0  0  0  0  0
   -1.7857   16.7400   -7.0109 H   0  0  0  0  0  0  0  0  0  0  0  0
    2.0829   16.6505   -5.8590 H   0  0  0  0  0  0  0  0  0  0  0  0
    2.0730   18.4315   -8.3737 H   0  0  0  0  0  0  0  0  0  0  0  0
    3.5131   17.9914   -7.3521 H   0  0  0  0  0  0  0  0  0  0  0  0
    3.4135   16.6774   -9.4464 H   0  0  0  0  0  0  0  0  0  0  0  0
    3.2715   15.6547   -7.9635 H   0  0  0  0  0  0  0  0  0  0  0  0
    1.6815   14.8811   -9.5866 H   0  0  0  0  0  0  0  0  0  0  0  0
    1.5010   17.5130  -10.1200 H   0  0  0  0  0  0  0  0  0  0  0  0
    0.8406   14.5480   -6.0663 H   0  0  0  0  0  0  0  0  0  0  0  0
    0.3194   13.4412   -7.3816 H   0  0  0  0  0  0  0  0  0  0  0  0
    1.9847   14.1147   -7.3816 H   0  0  0  0  0  0  0  0  0  0  0  0
   -1.6288   14.8600   -7.8433 H   0  0  0  0  0  0  0  0  0  0  0  0
   -1.2786   15.9192   -9.2513 H   0  0  0  0  0  0  0  0  0  0  0  0
   -0.7210   14.2117   -9.2513 H   0  0  0  0  0  0  0  0  0  0  0  0
    1.2442   20.8245   -5.7832 H   0  0  0  0  0  0  0  0  0  0  0  0
    2.2220   20.0567   -7.0798 H   0  0  0  0  0  0  0  0  0  0  0  0
    0.4343   19.8813   -7.0798 H   0  0  0  0  0  0  0  0  0  0  0  0
    3.6138   18.4843   -5.3390 H   0  0  0  0  0  0  0  0  0  0  0  0
    2.7959   19.8870   -4.4464 H   0  0  0  0  0  0  0  0  0  0  0  0
    2.9273   16.9806   -3.5961 H   0  0  0  0  0  0  0  0  0  0  0  0
    3.6856   18.4217   -2.8112 H   0  0  0  0  0  0  0  0  0  0  0  0
    1.4695   19.9449   -1.1317 H   0  0  0  0  0  0  0  0  0  0  0  0
    2.3496   20.3306   -2.6494 H   0  0  0  0  0  0  0  0  0  0  0  0
    0.5555   20.2413   -2.6494 H   0  0  0  0  0  0  0  0  0  0  0  0
  1  2  1  0
  2  3  1  0
  3  4  1  0
  4  5  1  0
  5  6  1  0
  6  7  1  0
  7  8  1  0
  7  9  1  0
  2 10  1  0
 10 11  1  0
 11 12  1  0
 12 13  1  0
 13 14  1  6
 13 15  1  0
 15 16  1  0
 16 17  1  0
 17 18  2  0
 18 19  1  0
 19 20  1  0
 20 21  1  0
 21 22  1  0
 22 23  1  0
 22 24  1  0
 24 25  1  0
 24 26  1  0
 19 27  1  0
 27 28  1  6
 27 29  1  0
 29 30  1  0
 30 31  1  0
 31 32  1  1
  7  5  1  0
 31 10  1  0
 31 13  1  0
 27 15  1  0
 24 18  1  0
  1 33  1  0
  1 34  1  0
  1 35  1  0
  2 36  1  1
  3 37  1  0
  3 38  1  0
  4 39  1  0
  4 40  1  0
  5 41  1  1
  8 42  1  0
  8 43  1  0
  8 44  1  0
  9 45  1  0
  9 46  1  0
  9 47  1  0
 10 48  1  6
 11 49  1  0
 11 50  1  0
 12 51  1  0
 12 52  1  0
 14 53  1  0
 14 54  1  0
 14 55  1  0
 15 56  1  1
 16 57  1  0
 16 58  1  0
 17 59  1  0
 19 60  1  1
 20 61  1  0
 20 62  1  0
 21 63  1  0
 21 64  1  0
 22 65  1  6
 23 66  1  0
 25 67  1  0
 25 68  1  0
 25 69  1  0
 26 70  1  0
 26 71  1  0
 26 72  1  0
 28 73  1  0
 28 74  1  0
 28 75  1  0
 29 76  1  0
 29 77  1  0
 30 78  1  0
 30 79  1  0
 32 80  1  0
 32 81  1  0
 32 82  1  0
M  END
>  <meeko>  (19) 
{"is_sidechain": [false], "intermolecular_energy": 2.731, "internal_energy": -0.839}

$$$$
EPH_relaxed_0001_pdb2pqr_Repair_291_r2_0001_out
     RDKit          3D

 82 86  0  0  0  0  0  0  0  0999 V2000
   -4.0450    7.3770   -3.6580 C   0  0  0  0  0  0  0  0  0  0  0  0
   -3.6550    7.2530   -2.1830 C   0  0  2  0  0  0  0  0  0  0  0  0
   -4.8250    6.7520   -1.3130 C   0  0  0  0  0  0  0  0  0  0  0  0
   -6.1630    6.6940   -2.0550 C   0  0  0  0  0  0  0  0  0  0  0  0
   -7.3090    6.4670   -1.1160 C   0  0  2  0  0  0  0  0  0  0  0  0
   -8.3610    5.6480   -1.6420 O   0  0  0  0  0  0  0  0  0  0  0  0
   -8.7050    7.0120   -1.3520 C   0  0  0  0  0  0  0  0  0  0  0  0
   -9.0290    7.8290   -2.5630 C   0  0  0  0  0  0  0  0  0  0  0  0
   -9.6210    7.1670   -0.1770 C   0  0  0  0  0  0  0  0  0  0  0  0
   -3.1580    8.5970   -1.6620 C   0  0  1  0  0  0  0  0  0  0  0  0
   -3.8360    9.0090   -0.3290 C   0  0  0  0  0  0  0  0  0  0  0  0
   -2.7670    9.7640    0.5020 C   0  0  0  0  0  0  0  0  0  0  0  0
   -1.6250   10.0500   -0.5000 C   0  0  1  0  0  0  0  0  0  0  0  0
   -2.0890   11.3170   -1.2860 C   0  0  0  0  0  0  0  0  0  0  0  0
   -0.1990   10.2420    0.1130 C   0  0  2  0  0  0  0  0  0  0  0  0
   -0.0550   11.4420    1.0660 C   0  0  0  0  0  0  0  0  0  0  0  0
    0.3580   12.7230    0.4200 C   0  0  0  0  0  0  0  0  0  0  0  0
    0.8770   12.8440   -0.8160 C   0  0  0  0  0  0  0  0  0  0  0  0
    1.1880   11.6040   -1.6650 C   0  0  1  0  0  0  0  0  0  0  0  0
    2.6010   11.7450   -2.2890 C   0  0  0  0  0  0  0  0  0  0  0  0
    2.7680   13.0440   -3.0710 C   0  0  0  0  0  0  0  0  0  0  0  0
    2.5080   14.2550   -2.1790 C   0  0  2  0  0  0  0  0  0  0  0  0
    3.5370   14.3260   -1.1870 O   0  0  0  0  0  0  0  0  0  0  0  0
    1.1170   14.2190   -1.4870 C   0  0  0  0  0  0  0  0  0  0  0  0
    0.0050   14.4450   -2.5420 C   0  0  0  0  0  0  0  0  0  0  0  0
    1.0380   15.4220   -0.5090 C   0  0  0  0  0  0  0  0  0  0  0  0
    0.9740   10.2020   -0.9480 C   0  0  1  0  0  0  0  0  0  0  0  0
    2.2640    9.8000   -0.1700 C   0  0  0  0  0  0  0  0  0  0  0  0
    0.7520    9.0930   -2.0440 C   0  0  0  0  0  0  0  0  0  0  0  0
   -0.6950    8.8690   -2.5220 C   0  0  0  0  0  0  0  0  0  0  0  0
   -1.6490    8.7170   -1.3330 C   0  0  2  0  0  0  0  0  0  0  0  0
   -1.2200    7.4380   -0.5360 C   0  0  0  0  0  0  0  0  0  0  0  0
   -5.0908    7.7095   -3.7340 H   0  0  0  0  0  0  0  0  0  0  0  0
   -3.3901    8.1112   -4.1500 H   0  0  0  0  0  0  0  0  0  0  0  0
   -3.9344    6.3994   -4.1500 H   0  0  0  0  0  0  0  0  0  0  0  0
   -2.8498    6.5066   -2.1156 H   0  0  0  0  0  0  0  0  0  0  0  0
   -4.5828    5.7408   -0.9542 H   0  0  0  0  0  0  0  0  0  0  0  0
   -4.9448    7.4719   -0.4900 H   0  0  0  0  0  0  0  0  0  0  0  0
   -6.3188    7.6459   -2.5838 H   0  0  0  0  0  0  0  0  0  0  0  0
   -6.1268    5.8516   -2.7614 H   0  0  0  0  0  0  0  0  0  0  0  0
   -6.6362    6.5129   -0.2470 H   0  0  0  0  0  0  0  0  0  0  0  0
   -9.4178    8.8094   -2.2506 H   0  0  0  0  0  0  0  0  0  0  0  0
   -8.1188    7.9702   -3.1643 H   0  0  0  0  0  0  0  0  0  0  0  0
   -9.7886    7.3080   -3.1643 H   0  0  0  0  0  0  0  0  0  0  0  0
   -9.0431    7.0692    0.7538 H   0  0  0  0  0  0  0  0  0  0  0  0
  -10.0964    8.1584   -0.2110 H   0  0  0  0  0  0  0  0  0  0  0  0
  -10.3961    6.3873   -0.2110 H   0  0  0  0  0  0  0  0  0  0  0  0
   -3.4073    9.2329   -2.5242 H   0  0  0  0  0  0  0  0  0  0  0  0
   -4.6949    9.6667   -0.5283 H   0  0  0  0  0  0  0  0  0  0  0  0
   -4.2081    8.1275    0.2138 H   0  0  0  0  0  0  0  0  0  0  0  0
   -3.1775   10.7031    0.9014 H   0  0  0  0  0  0  0  0  0  0  0  0
   -2.4246    9.1810    1.3697 H   0  0  0  0  0  0  0  0  0  0  0  0
   -2.3775   12.1047   -0.5744 H   0  0  0  0  0  0  0  0  0  0  0  0
   -1.2648   11.6783   -1.9186 H   0  0  0  0  0  0  0  0  0  0  0  0
   -2.9516   11.0606   -1.9186 H   0  0  0  0  0  0  0  0  0  0  0  0
   -0.0900    9.3461    0.7419 H   0  0  0  0  0  0  0  0  0  0  0  0
   -1.0264   11.6058    1.5555 H   0  0  0  0  0  0  0  0  0  0  0  0
    0.7522   11.1799    1.7658 H   0  0  0  0  0  0  0  0  0  0  0  0
    0.2271   13.6462    1.0036 H   0  0  0  0  0  0  0  0  0  0  0  0
    0.4294   11.5819   -2.4612 H   0  0  0  0  0  0  0  0  0  0  0  0
    3.3472   11.7213   -1.4812 H   0  0  0  0  0  0  0  0  0  0  0  0
    2.7399   10.9112   -2.9929 H   0  0  0  0  0  0  0  0  0  0  0  0
    3.7945   13.0991   -3.4625 H   0  0  0  0  0  0  0  0  0  0  0  0
    2.0406   13.0531   -3.8961 H   0  0  0  0  0  0  0  0  0  0  0  0
    2.5146   15.1466   -2.8232 H   0  0  0  0  0  0  0  0  0  0  0  0
    4.1370   13.5750   -1.3310 H   0  0  0  0  0  0  0  0  0  0  0  0
   -0.9502   14.6391   -2.0321 H   0  0  0  0  0  0  0  0  0  0  0  0
    0.2667   15.3083   -3.1714 H   0  0  0  0  0  0  0  0  0  0  0  0
   -0.0910   13.5480   -3.1714 H   0  0  0  0  0  0  0  0  0  0  0  0
    1.0622   15.0542    0.5274 H   0  0  0  0  0  0  0  0  0  0  0  0
    1.8941   16.0910   -0.6807 H   0  0  0  0  0  0  0  0  0  0  0  0
    0.1017   15.9733   -0.6807 H   0  0  0  0  0  0  0  0  0  0  0  0
    2.0733    9.8594    0.9117 H   0  0  0  0  0  0  0  0  0  0  0  0
    2.5472    8.7710   -0.4364 H   0  0  0  0  0  0  0  0  0  0  0  0
    3.0816   10.4860   -0.4364 H   0  0  0  0  0  0  0  0  0  0  0  0
    1.3539    9.3682   -2.9226 H   0  0  0  0  0  0  0  0  0  0  0  0
    1.0453    8.1489   -1.5618 H   0  0  0  0  0  0  0  0  0  0  0  0
   -1.0108    9.7305   -3.1287 H   0  0  0  0  0  0  0  0  0  0  0  0
   -0.7280    7.9450   -3.1179 H   0  0  0  0  0  0  0  0  0  0  0  0
   -1.2874    7.6388    0.5434 H   0  0  0  0  0  0  0  0  0  0  0  0
   -1.8873    6.6030   -0.7959 H   0  0  0  0  0  0  0  0  0  0  0  0
   -0.1842    7.1742   -0.7959 H   0  0  0  0  0  0  0  0  0  0  0  0
  1  2  1  0
  2  3  1  0
  3  4  1  0
  4  5  1  0
  5  6  1  0
  6  7  1  0
  7  8  1  0
  7  9  1  0
  2 10  1  0
 10 11  1  0
 11 12  1  0
 12 13  1  0
 13 14  1  6
 13 15  1  0
 15 16  1  0
 16 17  1  0
 17 18  2  0
 18 19  1  0
 19 20  1  0
 20 21  1  0
 21 22  1  0
 22 23  1  0
 22 24  1  0
 24 25  1  0
 24 26  1  0
 19 27  1  0
 27 28  1  1
 27 29  1  0
 29 30  1  0
 30 31  1  0
 31 32  1  1
  7  5  1  0
 31 10  1  0
 31 13  1  0
 27 15  1  0
 24 18  1  0
  1 33  1  0
  1 34  1  0
  1 35  1  0
  2 36  1  6
  3 37  1  0
  3 38  1  0
  4 39  1  0
  4 40  1  0
  5 41  1  1
  8 42  1  0
  8 43  1  0
  8 44  1  0
  9 45  1  0
  9 46  1  0
  9 47  1  0
 10 48  1  6
 11 49  1  0
 11 50  1  0
 12 51  1  0
 12 52  1  0
 14 53  1  0
 14 54  1  0
 14 55  1  0
 15 56  1  1
 16 57  1  0
 16 58  1  0
 17 59  1  0
 19 60  1  6
 20 61  1  0
 20 62  1  0
 21 63  1  0
 21 64  1  0
 22 65  1  6
 23 66  1  0
 25 67  1  0
 25 68  1  0
 25 69  1  0
 26 70  1  0
 26 71  1  0
 26 72  1  0
 28 73  1  0
 28 74  1  0
 28 75  1  0
 29 76  1  0
 29 77  1  0
 30 78  1  0
 30 79  1  0
 32 80  1  0
 32 81  1  0
 32 82  1  0
M  END
>  <meeko>  (20) 
{"is_sidechain": [false], "intermolecular_energy": 2.731, "internal_energy": -0.839}

$$$$
