EPH_relaxed_0001_pdb2pqr_Repair_271_r2_0001_out
     RDKit          3D

 82 86  0  0  0  0  0  0  0  0999 V2000
   -1.7060    8.5840   -1.8630 C   0  0  0  0  0  0  0  0  0  0  0  0
   -2.0920    9.1140   -0.4800 C   0  0  2  0  0  0  0  0  0  0  0  0
   -3.5860    9.4890   -0.3980 C   0  0  0  0  0  0  0  0  0  0  0  0
   -4.5150    8.2820   -0.2420 C   0  0  0  0  0  0  0  0  0  0  0  0
   -5.2000    7.9390   -1.5310 C   0  0  2  0  0  0  0  0  0  0  0  0
   -6.3520    8.7390   -1.8270 O   0  0  0  0  0  0  0  0  0  0  0  0
   -6.5910    7.3390   -1.6050 C   0  0  0  0  0  0  0  0  0  0  0  0
   -7.3820    7.0460   -0.3680 C   0  0  0  0  0  0  0  0  0  0  0  0
   -6.9830    6.5910   -2.8410 C   0  0  0  0  0  0  0  0  0  0  0  0
   -1.2320   10.3220   -0.1270 C   0  0  1  0  0  0  0  0  0  0  0  0
   -0.2030   10.0170    0.9930 C   0  0  0  0  0  0  0  0  0  0  0  0
    1.0680   10.8430    0.6710 C   0  0  0  0  0  0  0  0  0  0  0  0
    0.6190   11.8400   -0.4230 C   0  0  1  0  0  0  0  0  0  0  0  0
   -0.0880   12.9950    0.3530 C   0  0  0  0  0  0  0  0  0  0  0  0
    1.7400   12.3810   -1.3680 C   0  0  2  0  0  0  0  0  0  0  0  0
    2.8430   13.1960   -0.6710 C   0  0  0  0  0  0  0  0  0  0  0  0
    2.5940   14.6660   -0.5880 C   0  0  0  0  0  0  0  0  0  0  0  0
    1.6730   15.3440   -1.2980 C   0  0  0  0  0  0  0  0  0  0  0  0
    0.8290   14.6410   -2.3690 C   0  0  1  0  0  0  0  0  0  0  0  0
    0.8050   15.5030   -3.6580 C   0  0  0  0  0  0  0  0  0  0  0  0
    0.3430   16.9340   -3.3970 C   0  0  0  0  0  0  0  0  0  0  0  0
    1.2410   17.6180   -2.3700 C   0  0  2  0  0  0  0  0  0  0  0  0
    2.5440   17.7860   -2.9370 O   0  0  0  0  0  0  0  0  0  0  0  0
    1.3500   16.8350   -1.0320 C   0  0  0  0  0  0  0  0  0  0  0  0
    0.0030   16.9130   -0.2720 C   0  0  0  0  0  0  0  0  0  0  0  0
    2.3940   17.5590   -0.1390 C   0  0  0  0  0  0  0  0  0  0  0  0
    1.2000   13.1230   -2.6570 C   0  0  1  0  0  0  0  0  0  0  0  0
    2.3350   13.0450   -3.7240 C   0  0  0  0  0  0  0  0  0  0  0  0
   -0.0500   12.3990   -3.2840 C   0  0  0  0  0  0  0  0  0  0  0  0
   -1.0610   11.7800   -2.3000 C   0  0  0  0  0  0  0  0  0  0  0  0
   -0.3500   10.9190   -1.2520 C   0  0  2  0  0  0  0  0  0  0  0  0
    0.3520    9.7360   -2.0010 C   0  0  0  0  0  0  0  0  0  0  0  0
   -1.0618    7.6995   -1.7500 H   0  0  0  0  0  0  0  0  0  0  0  0
   -2.6154    8.3070   -2.4165 H   0  0  0  0  0  0  0  0  0  0  0  0
   -1.1634    9.3645   -2.4165 H   0  0  0  0  0  0  0  0  0  0  0  0
   -1.9137    8.3063    0.2451 H   0  0  0  0  0  0  0  0  0  0  0  0
   -3.7306   10.1528    0.4671 H   0  0  0  0  0  0  0  0  0  0  0  0
   -3.8482    9.9762   -1.3488 H   0  0  0  0  0  0  0  0  0  0  0  0
   -3.9222    7.4162    0.0880 H   0  0  0  0  0  0  0  0  0  0  0  0
   -5.2868    8.5369    0.4992 H   0  0  0  0  0  0  0  0  0  0  0  0
   -4.2442    7.6431   -1.9880 H   0  0  0  0  0  0  0  0  0  0  0  0
   -6.7722    7.2719    0.5192 H   0  0  0  0  0  0  0  0  0  0  0  0
   -8.2894    7.6677   -0.3572 H   0  0  0  0  0  0  0  0  0  0  0  0
   -7.6655    5.9832   -0.3572 H   0  0  0  0  0  0  0  0  0  0  0  0
   -7.4765    5.6493   -2.5587 H   0  0  0  0  0  0  0  0  0  0  0  0
   -7.6758    7.2039   -3.4363 H   0  0  0  0  0  0  0  0  0  0  0  0
   -6.0848    6.3701   -3.4363 H   0  0  0  0  0  0  0  0  0  0  0  0
   -2.0217   11.0353    0.1515 H   0  0  0  0  0  0  0  0  0  0  0  0
   -0.6093   10.3133    1.9713 H   0  0  0  0  0  0  0  0  0  0  0  0
    0.0257    8.9419    1.0365 H   0  0  0  0  0  0  0  0  0  0  0  0
    1.4192   11.3795    1.5648 H   0  0  0  0  0  0  0  0  0  0  0  0
    1.9043   10.2096    0.3402 H   0  0  0  0  0  0  0  0  0  0  0  0
    0.0151   12.8266    1.4351 H   0  0  0  0  0  0  0  0  0  0  0  0
    0.3773   13.9551    0.0854 H   0  0  0  0  0  0  0  0  0  0  0  0
   -1.1547   13.0173    0.0854 H   0  0  0  0  0  0  0  0  0  0  0  0
    2.2244   11.4556   -1.7128 H   0  0  0  0  0  0  0  0  0  0  0  0
    2.9536   12.8116    0.3537 H   0  0  0  0  0  0  0  0  0  0  0  0
    3.7463   13.0747   -1.2869 H   0  0  0  0  0  0  0  0  0  0  0  0
    3.2155   15.2434    0.1123 H   0  0  0  0  0  0  0  0  0  0  0  0
   -0.1865   14.5633   -1.9535 H   0  0  0  0  0  0  0  0  0  0  0  0
    1.8197   15.5319   -4.0817 H   0  0  0  0  0  0  0  0  0  0  0  0
    0.0883   15.0426   -4.3540 H   0  0  0  0  0  0  0  0  0  0  0  0
    0.3769   17.5008   -4.3391 H   0  0  0  0  0  0  0  0  0  0  0  0
   -0.6833   16.9052   -3.0023 H   0  0  0  0  0  0  0  0  0  0  0  0
    0.7846   18.5891   -2.1277 H   0  0  0  0  0  0  0  0  0  0  0  0
    2.7970   18.7180   -2.8230 H   0  0  0  0  0  0  0  0  0  0  0  0
    0.1922   16.9020    0.8116 H   0  0  0  0  0  0  0  0  0  0  0  0
   -0.5181   17.8428   -0.5439 H   0  0  0  0  0  0  0  0  0  0  0  0
   -0.6219   16.0495   -0.5439 H   0  0  0  0  0  0  0  0  0  0  0  0
    2.1504   17.3901    0.9203 H   0  0  0  0  0  0  0  0  0  0  0  0
    3.3974   17.1618   -0.3524 H   0  0  0  0  0  0  0  0  0  0  0  0
    2.3737   18.6379   -0.3524 H   0  0  0  0  0  0  0  0  0  0  0  0
    3.3096   12.9780   -3.2184 H   0  0  0  0  0  0  0  0  0  0  0  0
    2.1863   12.1550   -4.3531 H   0  0  0  0  0  0  0  0  0  0  0  0
    2.3095   13.9470   -4.3531 H   0  0  0  0  0  0  0  0  0  0  0  0
   -0.5900   13.1371   -3.8953 H   0  0  0  0  0  0  0  0  0  0  0  0
    0.3625   11.5479   -3.8457 H   0  0  0  0  0  0  0  0  0  0  0  0
   -1.6082   12.5873   -1.7912 H   0  0  0  0  0  0  0  0  0  0  0  0
   -1.7550   11.1413   -2.8661 H   0  0  0  0  0  0  0  0  0  0  0  0
    0.7694    9.0326   -1.2655 H   0  0  0  0  0  0  0  0  0  0  0  0
   -0.3826    9.2140   -2.6318 H   0  0  0  0  0  0  0  0  0  0  0  0
    1.1622   10.1307   -2.6318 H   0  0  0  0  0  0  0  0  0  0  0  0
  1  2  1  0
  2  3  1  0
  3  4  1  0
  4  5  1  0
  5  6  1  0
  6  7  1  0
  7  8  1  0
  7  9  1  0
  2 10  1  0
 10 11  1  0
 11 12  1  0
 12 13  1  0
 13 14  1  1
 13 15  1  0
 15 16  1  0
 16 17  1  0
 17 18  2  0
 18 19  1  0
 19 20  1  0
 20 21  1  0
 21 22  1  0
 22 23  1  0
 22 24  1  0
 24 25  1  0
 24 26  1  0
 19 27  1  0
 27 28  1  6
 27 29  1  0
 29 30  1  0
 30 31  1  0
 31 32  1  6
  7  5  1  0
 31 10  1  0
 31 13  1  0
 27 15  1  0
 24 18  1  0
  1 33  1  0
  1 34  1  0
  1 35  1  0
  2 36  1  1
  3 37  1  0
  3 38  1  0
  4 39  1  0
  4 40  1  0
  5 41  1  6
  8 42  1  0
  8 43  1  0
  8 44  1  0
  9 45  1  0
  9 46  1  0
  9 47  1  0
 10 48  1  1
 11 49  1  0
 11 50  1  0
 12 51  1  0
 12 52  1  0
 14 53  1  0
 14 54  1  0
 14 55  1  0
 15 56  1  6
 16 57  1  0
 16 58  1  0
 17 59  1  0
 19 60  1  1
 20 61  1  0
 20 62  1  0
 21 63  1  0
 21 64  1  0
 22 65  1  1
 23 66  1  0
 25 67  1  0
 25 68  1  0
 25 69  1  0
 26 70  1  0
 26 71  1  0
 26 72  1  0
 28 73  1  0
 28 74  1  0
 28 75  1  0
 29 76  1  0
 29 77  1  0
 30 78  1  0
 30 79  1  0
 32 80  1  0
 32 81  1  0
 32 82  1  0
M  END
>  <meeko>  (1) 
{"is_sidechain": [false], "intermolecular_energy": 2.731, "internal_energy": -0.839}

$$$$
EPH_relaxed_0001_pdb2pqr_Repair_271_r2_0001_out
     RDKit          3D

 82 86  0  0  0  0  0  0  0  0999 V2000
    4.2510   17.4400   -0.6020 C   0  0  0  0  0  0  0  0  0  0  0  0
    2.8860   18.0390   -0.2520 C   0  0  2  0  0  0  0  0  0  0  0  0
    2.9100   18.7910    1.0950 C   0  0  0  0  0  0  0  0  0  0  0  0
    4.2380   18.6650    1.8460 C   0  0  0  0  0  0  0  0  0  0  0  0
    4.1440   19.2200    3.2350 C   0  0  2  0  0  0  0  0  0  0  0  0
    5.1440   20.1940    3.5600 O   0  0  0  0  0  0  0  0  0  0  0  0
    5.1860   18.9690    4.3090 C   0  0  0  0  0  0  0  0  0  0  0  0
    6.3970   18.1320    4.0400 C   0  0  0  0  0  0  0  0  0  0  0  0
    4.7870   19.1250    5.7430 C   0  0  0  0  0  0  0  0  0  0  0  0
    1.8300   16.9410   -0.2170 C   0  0  1  0  0  0  0  0  0  0  0  0
    0.4000   17.4790   -0.4870 C   0  0  0  0  0  0  0  0  0  0  0  0
   -0.3520   16.3750   -1.2760 C   0  0  0  0  0  0  0  0  0  0  0  0
    0.5460   15.1230   -1.1450 C   0  0  1  0  0  0  0  0  0  0  0  0
    0.2050   14.5300    0.2580 C   0  0  0  0  0  0  0  0  0  0  0  0
    0.4060   14.0510   -2.2740 C   0  0  2  0  0  0  0  0  0  0  0  0
   -0.9830   13.3990   -2.3860 C   0  0  0  0  0  0  0  0  0  0  0  0
   -1.1740   12.1610   -1.5750 C   0  0  0  0  0  0  0  0  0  0  0  0
   -0.1900   11.4350   -1.0120 C   0  0  0  0  0  0  0  0  0  0  0  0
    1.2840   11.7880   -1.2510 C   0  0  1  0  0  0  0  0  0  0  0  0
    2.0760   10.4990   -1.5940 C   0  0  0  0  0  0  0  0  0  0  0  0
    1.9000    9.4070   -0.5430 C   0  0  0  0  0  0  0  0  0  0  0  0
    0.4270    9.0420   -0.3770 C   0  0  2  0  0  0  0  0  0  0  0  0
   -0.0340    8.4250   -1.5820 O   0  0  0  0  0  0  0  0  0  0  0  0
   -0.4720   10.2640   -0.0380 C   0  0  0  0  0  0  0  0  0  0  0  0
   -0.1720   10.7480    1.4020 C   0  0  0  0  0  0  0  0  0  0  0  0
   -1.9480    9.7850   -0.0370 C   0  0  0  0  0  0  0  0  0  0  0  0
    1.5570   12.9650   -2.2830 C   0  0  1  0  0  0  0  0  0  0  0  0
    1.6200   12.3960   -3.7340 C   0  0  0  0  0  0  0  0  0  0  0  0
    2.9720   13.5900   -1.9890 C   0  0  0  0  0  0  0  0  0  0  0  0
    3.0270   14.7260   -0.9500 C   0  0  0  0  0  0  0  0  0  0  0  0
    1.9660   15.7910   -1.2450 C   0  0  2  0  0  0  0  0  0  0  0  0
    2.2960   16.4210   -2.6410 C   0  0  0  0  0  0  0  0  0  0  0  0
    4.7949   17.2013    0.3238 H   0  0  0  0  0  0  0  0  0  0  0  0
    4.1084   16.5217   -1.1906 H   0  0  0  0  0  0  0  0  0  0  0  0
    4.8302   18.1666   -1.1906 H   0  0  0  0  0  0  0  0  0  0  0  0
    2.6352   18.7707   -1.0341 H   0  0  0  0  0  0  0  0  0  0  0  0
    2.7204   19.8570    0.9011 H   0  0  0  0  0  0  0  0  0  0  0  0
    2.1363   18.3363    1.7311 H   0  0  0  0  0  0  0  0  0  0  0  0
    4.5149   17.6020    1.9048 H   0  0  0  0  0  0  0  0  0  0  0  0
    4.9982   19.2405    1.2974 H   0  0  0  0  0  0  0  0  0  0  0  0
    3.0494   19.1112    3.2291 H   0  0  0  0  0  0  0  0  0  0  0  0
    6.8471   17.8209    4.9943 H   0  0  0  0  0  0  0  0  0  0  0  0
    6.1064   17.2411    3.4640 H   0  0  0  0  0  0  0  0  0  0  0  0
    7.1277   18.7188    3.4640 H   0  0  0  0  0  0  0  0  0  0  0  0
    5.6147   18.8014    6.3912 H   0  0  0  0  0  0  0  0  0  0  0  0
    4.5536   20.1806    5.9459 H   0  0  0  0  0  0  0  0  0  0  0  0
    3.8995   18.5077    5.9459 H   0  0  0  0  0  0  0  0  0  0  0  0
    1.9964   16.5573    0.8004 H   0  0  0  0  0  0  0  0  0  0  0  0
   -0.1142   17.6819    0.4640 H   0  0  0  0  0  0  0  0  0  0  0  0
    0.4328   18.4191   -1.0572 H   0  0  0  0  0  0  0  0  0  0  0  0
   -1.3432   16.1899   -0.8363 H   0  0  0  0  0  0  0  0  0  0  0  0
   -0.5257   16.6563   -2.3251 H   0  0  0  0  0  0  0  0  0  0  0  0
    0.5896   15.1988    1.0421 H   0  0  0  0  0  0  0  0  0  0  0  0
   -0.8860   14.4344    0.3603 H   0  0  0  0  0  0  0  0  0  0  0  0
    0.6711   13.5389    0.3603 H   0  0  0  0  0  0  0  0  0  0  0  0
    0.5278   14.6526   -3.1868 H   0  0  0  0  0  0  0  0  0  0  0  0
   -1.7317   14.1366   -2.0615 H   0  0  0  0  0  0  0  0  0  0  0  0
   -1.0916   13.0936   -3.4372 H   0  0  0  0  0  0  0  0  0  0  0  0
   -2.2063   11.8121   -1.4245 H   0  0  0  0  0  0  0  0  0  0  0  0
    1.6522   12.2118   -0.3051 H   0  0  0  0  0  0  0  0  0  0  0  0
    1.7235   10.1159   -2.5630 H   0  0  0  0  0  0  0  0  0  0  0  0
    3.1436   10.7619   -1.6268 H   0  0  0  0  0  0  0  0  0  0  0  0
    2.4594    8.5129   -0.8556 H   0  0  0  0  0  0  0  0  0  0  0  0
    2.2796    9.7813    0.4192 H   0  0  0  0  0  0  0  0  0  0  0  0
    0.3523    8.3513    0.4759 H   0  0  0  0  0  0  0  0  0  0  0  0
   -0.6660    9.0330   -2.0010 H   0  0  0  0  0  0  0  0  0  0  0  0
   -0.6091   10.0429    2.1243 H   0  0  0  0  0  0  0  0  0  0  0  0
    0.9165   10.7993    1.5523 H   0  0  0  0  0  0  0  0  0  0  0  0
   -0.6103   11.7456    1.5523 H   0  0  0  0  0  0  0  0  0  0  0  0
   -2.2961    9.6720    1.0003 H   0  0  0  0  0  0  0  0  0  0  0  0
   -2.5743   10.5260   -0.5553 H   0  0  0  0  0  0  0  0  0  0  0  0
   -2.0198    8.8174   -0.5553 H   0  0  0  0  0  0  0  0  0  0  0  0
    1.7410   11.3034   -3.6945 H   0  0  0  0  0  0  0  0  0  0  0  0
    0.6890   12.6428   -4.2654 H   0  0  0  0  0  0  0  0  0  0  0  0
    2.4744   12.8405   -4.2654 H   0  0  0  0  0  0  0  0  0  0  0  0
    3.6257   12.7805   -1.6320 H   0  0  0  0  0  0  0  0  0  0  0  0
    3.2856   14.0514   -2.9370 H   0  0  0  0  0  0  0  0  0  0  0  0
    2.8476   14.3070    0.0511 H   0  0  0  0  0  0  0  0  0  0  0  0
    4.0198   15.1973   -0.9980 H   0  0  0  0  0  0  0  0  0  0  0  0
    2.8020   17.3870   -2.4969 H   0  0  0  0  0  0  0  0  0  0  0  0
    2.9544   15.7424   -3.2031 H   0  0  0  0  0  0  0  0  0  0  0  0
    1.3632   16.5759   -3.2031 H   0  0  0  0  0  0  0  0  0  0  0  0
  1  2  1  0
  2  3  1  0
  3  4  1  0
  4  5  1  0
  5  6  1  0
  6  7  1  0
  7  8  1  0
  7  9  1  0
  2 10  1  0
 10 11  1  0
 11 12  1  0
 12 13  1  0
 13 14  1  1
 13 15  1  0
 15 16  1  0
 16 17  1  0
 17 18  2  0
 18 19  1  0
 19 20  1  0
 20 21  1  0
 21 22  1  0
 22 23  1  0
 22 24  1  0
 24 25  1  0
 24 26  1  0
 19 27  1  0
 27 28  1  6
 27 29  1  0
 29 30  1  0
 30 31  1  0
 31 32  1  6
  7  5  1  0
 31 10  1  0
 31 13  1  0
 27 15  1  0
 24 18  1  0
  1 33  1  0
  1 34  1  0
  1 35  1  0
  2 36  1  6
  3 37  1  0
  3 38  1  0
  4 39  1  0
  4 40  1  0
  5 41  1  1
  8 42  1  0
  8 43  1  0
  8 44  1  0
  9 45  1  0
  9 46  1  0
  9 47  1  0
 10 48  1  1
 11 49  1  0
 11 50  1  0
 12 51  1  0
 12 52  1  0
 14 53  1  0
 14 54  1  0
 14 55  1  0
 15 56  1  6
 16 57  1  0
 16 58  1  0
 17 59  1  0
 19 60  1  1
 20 61  1  0
 20 62  1  0
 21 63  1  0
 21 64  1  0
 22 65  1  1
 23 66  1  0
 25 67  1  0
 25 68  1  0
 25 69  1  0
 26 70  1  0
 26 71  1  0
 26 72  1  0
 28 73  1  0
 28 74  1  0
 28 75  1  0
 29 76  1  0
 29 77  1  0
 30 78  1  0
 30 79  1  0
 32 80  1  0
 32 81  1  0
 32 82  1  0
M  END
>  <meeko>  (2) 
{"is_sidechain": [false], "intermolecular_energy": 2.731, "internal_energy": -0.839}

$$$$
EPH_relaxed_0001_pdb2pqr_Repair_271_r2_0001_out
     RDKit          3D

 82 86  0  0  0  0  0  0  0  0999 V2000
    0.3980   18.4490   -0.0980 C   0  0  0  0  0  0  0  0  0  0  0  0
    1.4800   17.3810   -0.2800 C   0  0  2  0  0  0  0  0  0  0  0  0
    2.7130   17.9240   -1.0310 C   0  0  0  0  0  0  0  0  0  0  0  0
    3.9410   18.1180   -0.1380 C   0  0  0  0  0  0  0  0  0  0  0  0
    3.5630   18.6040    1.2290 C   0  0  2  0  0  0  0  0  0  0  0  0
    3.7870   20.0020    1.4500 O   0  0  0  0  0  0  0  0  0  0  0  0
    4.5700   19.1000    2.2490 C   0  0  0  0  0  0  0  0  0  0  0  0
    6.0350   19.1350    1.9460 C   0  0  0  0  0  0  0  0  0  0  0  0
    4.1870   19.0890    3.6960 C   0  0  0  0  0  0  0  0  0  0  0  0
    0.9060   16.1800   -1.0220 C   0  0  1  0  0  0  0  0  0  0  0  0
    0.7770   16.4280   -2.5490 C   0  0  0  0  0  0  0  0  0  0  0  0
    1.0660   15.0740   -3.2480 C   0  0  0  0  0  0  0  0  0  0  0  0
    1.0220   14.0300   -2.1070 C   0  0  1  0  0  0  0  0  0  0  0  0
   -0.4950   13.7370   -1.8890 C   0  0  0  0  0  0  0  0  0  0  0  0
    1.8360   12.7150   -2.3430 C   0  0  2  0  0  0  0  0  0  0  0  0
    1.3650   11.8620   -3.5330 C   0  0  0  0  0  0  0  0  0  0  0  0
    0.3330   10.8320   -3.2120 C   0  0  0  0  0  0  0  0  0  0  0  0
    0.0110   10.4080   -1.9760 C   0  0  0  0  0  0  0  0  0  0  0  0
    0.7820   10.9040   -0.7460 C   0  0  1  0  0  0  0  0  0  0  0  0
    1.1370    9.6990    0.1640 C   0  0  0  0  0  0  0  0  0  0  0  0
   -0.0860    8.8690    0.5390 C   0  0  0  0  0  0  0  0  0  0  0  0
   -0.7930    8.3440   -0.7080 C   0  0  2  0  0  0  0  0  0  0  0  0
    0.0640    7.4030   -1.3620 O   0  0  0  0  0  0  0  0  0  0  0  0
   -1.1910    9.4690   -1.7050 C   0  0  0  0  0  0  0  0  0  0  0  0
   -2.3420   10.3130   -1.1060 C   0  0  0  0  0  0  0  0  0  0  0  0
   -1.7650    8.7940   -2.9800 C   0  0  0  0  0  0  0  0  0  0  0  0
    2.0360   11.8350   -1.0430 C   0  0  1  0  0  0  0  0  0  0  0  0
    3.3020   10.9590   -1.2890 C   0  0  0  0  0  0  0  0  0  0  0  0
    2.3410   12.7090    0.2300 C   0  0  0  0  0  0  0  0  0  0  0  0
    1.5950   14.0520    0.3460 C   0  0  0  0  0  0  0  0  0  0  0  0
    1.7030   14.8540   -0.9540 C   0  0  2  0  0  0  0  0  0  0  0  0
    3.2170   15.1820   -1.1890 C   0  0  0  0  0  0  0  0  0  0  0  0
    0.2266   18.6182    0.9753 H   0  0  0  0  0  0  0  0  0  0  0  0
    0.7260   19.3873   -0.5693 H   0  0  0  0  0  0  0  0  0  0  0  0
   -0.5359   18.1088   -0.5693 H   0  0  0  0  0  0  0  0  0  0  0  0
    1.8130   17.0744    0.7226 H   0  0  0  0  0  0  0  0  0  0  0  0
    2.9733   17.2143   -1.8301 H   0  0  0  0  0  0  0  0  0  0  0  0
    2.4403   18.9151   -1.4225 H   0  0  0  0  0  0  0  0  0  0  0  0
    4.4668   17.1566   -0.0415 H   0  0  0  0  0  0  0  0  0  0  0  0
    4.5871   18.8763   -0.6044 H   0  0  0  0  0  0  0  0  0  0  0  0
    2.7518   17.8639    1.2933 H   0  0  0  0  0  0  0  0  0  0  0  0
    6.6039   19.1486    2.8874 H   0  0  0  0  0  0  0  0  0  0  0  0
    6.3105   18.2432    1.3640 H   0  0  0  0  0  0  0  0  0  0  0  0
    6.2676   20.0390    1.3640 H   0  0  0  0  0  0  0  0  0  0  0  0
    5.0953   19.1151    4.3159 H   0  0  0  0  0  0  0  0  0  0  0  0
    3.5663   19.9697    3.9177 H   0  0  0  0  0  0  0  0  0  0  0  0
    3.6179   18.1741    3.9177 H   0  0  0  0  0  0  0  0  0  0  0  0
   -0.0490   16.0718   -0.4869 H   0  0  0  0  0  0  0  0  0  0  0  0
   -0.2395   16.7707   -2.7926 H   0  0  0  0  0  0  0  0  0  0  0  0
    1.4812   17.2038   -2.8841 H   0  0  0  0  0  0  0  0  0  0  0  0
    0.2978   14.8555   -4.0044 H   0  0  0  0  0  0  0  0  0  0  0  0
    2.0306   15.0744   -3.7767 H   0  0  0  0  0  0  0  0  0  0  0  0
   -0.7092   13.6956   -0.8109 H   0  0  0  0  0  0  0  0  0  0  0  0
   -1.0929   14.5363   -2.3512 H   0  0  0  0  0  0  0  0  0  0  0  0
   -0.7523   12.7726   -2.3512 H   0  0  0  0  0  0  0  0  0  0  0  0
    2.8281   13.0978   -2.6244 H   0  0  0  0  0  0  0  0  0  0  0  0
    0.9447   12.5392   -4.2911 H   0  0  0  0  0  0  0  0  0  0  0  0
    2.2501   11.3078   -3.8786 H   0  0  0  0  0  0  0  0  0  0  0  0
   -0.2096   10.3820   -4.0564 H   0  0  0  0  0  0  0  0  0  0  0  0
    0.1007   11.5846   -0.2143 H   0  0  0  0  0  0  0  0  0  0  0  0
    1.8514    9.0537   -0.3682 H   0  0  0  0  0  0  0  0  0  0  0  0
    1.5673   10.0985    1.0942 H   0  0  0  0  0  0  0  0  0  0  0  0
    0.2331    8.0170    1.1574 H   0  0  0  0  0  0  0  0  0  0  0  0
   -0.7864    9.5083    1.0965 H   0  0  0  0  0  0  0  0  0  0  0  0
   -1.7293    7.8680   -0.3812 H   0  0  0  0  0  0  0  0  0  0  0  0
    0.8280    7.2480   -0.7810 H   0  0  0  0  0  0  0  0  0  0  0  0
   -2.2910   10.2756   -0.0078 H   0  0  0  0  0  0  0  0  0  0  0  0
   -2.2454   11.3559   -1.4423 H   0  0  0  0  0  0  0  0  0  0  0  0
   -3.3076    9.9073   -1.4423 H   0  0  0  0  0  0  0  0  0  0  0  0
   -2.4523    7.9858   -2.6893 H   0  0  0  0  0  0  0  0  0  0  0  0
   -2.3089    9.5408   -3.5770 H   0  0  0  0  0  0  0  0  0  0  0  0
   -0.9405    8.3772   -3.5770 H   0  0  0  0  0  0  0  0  0  0  0  0
    3.7343   10.6599   -0.3228 H   0  0  0  0  0  0  0  0  0  0  0  0
    3.0214   10.0610   -1.8589 H   0  0  0  0  0  0  0  0  0  0  0  0
    4.0435   11.5381   -1.8589 H   0  0  0  0  0  0  0  0  0  0  0  0
    2.0845   12.1084    1.1152 H   0  0  0  0  0  0  0  0  0  0  0  0
    3.4046   12.9770    0.1469 H   0  0  0  0  0  0  0  0  0  0  0  0
    0.5341   13.8567    0.5611 H   0  0  0  0  0  0  0  0  0  0  0  0
    2.0515   14.6374    1.1578 H   0  0  0  0  0  0  0  0  0  0  0  0
    3.7233   15.2917   -0.2186 H   0  0  0  0  0  0  0  0  0  0  0  0
    3.6855   14.3645   -1.7567 H   0  0  0  0  0  0  0  0  0  0  0  0
    3.3051   16.1201   -1.7567 H   0  0  0  0  0  0  0  0  0  0  0  0
  1  2  1  0
  2  3  1  0
  3  4  1  0
  4  5  1  0
  5  6  1  0
  6  7  1  0
  7  8  1  0
  7  9  1  0
  2 10  1  0
 10 11  1  0
 11 12  1  0
 12 13  1  0
 13 14  1  1
 13 15  1  0
 15 16  1  0
 16 17  1  0
 17 18  2  0
 18 19  1  0
 19 20  1  0
 20 21  1  0
 21 22  1  0
 22 23  1  0
 22 24  1  0
 24 25  1  0
 24 26  1  0
 19 27  1  0
 27 28  1  6
 27 29  1  0
 29 30  1  0
 30 31  1  0
 31 32  1  6
  7  5  1  0
 31 10  1  0
 31 13  1  0
 27 15  1  0
 24 18  1  0
  1 33  1  0
  1 34  1  0
  1 35  1  0
  2 36  1  1
  3 37  1  0
  3 38  1  0
  4 39  1  0
  4 40  1  0
  5 41  1  1
  8 42  1  0
  8 43  1  0
  8 44  1  0
  9 45  1  0
  9 46  1  0
  9 47  1  0
 10 48  1  1
 11 49  1  0
 11 50  1  0
 12 51  1  0
 12 52  1  0
 14 53  1  0
 14 54  1  0
 14 55  1  0
 15 56  1  6
 16 57  1  0
 16 58  1  0
 17 59  1  0
 19 60  1  1
 20 61  1  0
 20 62  1  0
 21 63  1  0
 21 64  1  0
 22 65  1  1
 23 66  1  0
 25 67  1  0
 25 68  1  0
 25 69  1  0
 26 70  1  0
 26 71  1  0
 26 72  1  0
 28 73  1  0
 28 74  1  0
 28 75  1  0
 29 76  1  0
 29 77  1  0
 30 78  1  0
 30 79  1  0
 32 80  1  0
 32 81  1  0
 32 82  1  0
M  END
>  <meeko>  (3) 
{"is_sidechain": [false], "intermolecular_energy": 2.731, "internal_energy": -0.839}

$$$$
EPH_relaxed_0001_pdb2pqr_Repair_271_r2_0001_out
     RDKit          3D

 82 86  0  0  0  0  0  0  0  0999 V2000
    2.3250   17.9450   -2.7290 C   0  0  0  0  0  0  0  0  0  0  0  0
    1.0400   17.5470   -1.9970 C   0  0  2  0  0  0  0  0  0  0  0  0
    1.2040   17.6040   -0.4650 C   0  0  0  0  0  0  0  0  0  0  0  0
    0.9050   18.9800    0.1360 C   0  0  0  0  0  0  0  0  0  0  0  0
   -0.5390   19.1200    0.5100 C   0  0  2  0  0  0  0  0  0  0  0  0
   -1.4250   18.2270   -0.1770 O   0  0  0  0  0  0  0  0  0  0  0  0
   -1.6050   19.6270   -0.4440 C   0  0  0  0  0  0  0  0  0  0  0  0
   -1.2700   20.0260   -1.8470 C   0  0  0  0  0  0  0  0  0  0  0  0
   -2.8670   20.1920    0.1280 C   0  0  0  0  0  0  0  0  0  0  0  0
    0.6110   16.1490   -2.4240 C   0  0  1  0  0  0  0  0  0  0  0  0
    0.7420   15.9250   -3.9540 C   0  0  0  0  0  0  0  0  0  0  0  0
    1.1570   14.4440   -4.1550 C   0  0  0  0  0  0  0  0  0  0  0  0
    0.9280   13.7840   -2.7750 C   0  0  1  0  0  0  0  0  0  0  0  0
   -0.6020   13.4800   -2.7250 C   0  0  0  0  0  0  0  0  0  0  0  0
    1.7810   12.5100   -2.4700 C   0  0  2  0  0  0  0  0  0  0  0  0
    1.5270   11.3150   -3.4060 C   0  0  0  0  0  0  0  0  0  0  0  0
    0.4630   10.3680   -2.9580 C   0  0  0  0  0  0  0  0  0  0  0  0
   -0.0610   10.3110   -1.7190 C   0  0  0  0  0  0  0  0  0  0  0  0
    0.4850   11.1940   -0.5900 C   0  0  1  0  0  0  0  0  0  0  0  0
    0.6890   10.3360    0.6860 C   0  0  0  0  0  0  0  0  0  0  0  0
   -0.5730    9.5830    1.0930 C   0  0  0  0  0  0  0  0  0  0  0  0
   -1.0520    8.6720   -0.0340 C   0  0  2  0  0  0  0  0  0  0  0  0
   -0.0890    7.6310   -0.2260 O   0  0  0  0  0  0  0  0  0  0  0  0
   -1.2830    9.4240   -1.3740 C   0  0  0  0  0  0  0  0  0  0  0  0
   -2.5270   10.3390   -1.2500 C   0  0  0  0  0  0  0  0  0  0  0  0
   -1.6270    8.3700   -2.4610 C   0  0  0  0  0  0  0  0  0  0  0  0
    1.7630   12.0670   -0.9500 C   0  0  1  0  0  0  0  0  0  0  0  0
    3.0600   11.2350   -0.7140 C   0  0  0  0  0  0  0  0  0  0  0  0
    1.8390   13.2960    0.0320 C   0  0  0  0  0  0  0  0  0  0  0  0
    1.0730   14.5660   -0.3850 C   0  0  0  0  0  0  0  0  0  0  0  0
    1.3960   14.9520   -1.8320 C   0  0  2  0  0  0  0  0  0  0  0  0
    2.9250   15.2850   -1.9090 C   0  0  0  0  0  0  0  0  0  0  0  0
    3.1062   18.1869   -1.9933 H   0  0  0  0  0  0  0  0  0  0  0  0
    2.6616   17.1090   -3.3597 H   0  0  0  0  0  0  0  0  0  0  0  0
    2.1302   18.8249   -3.3597 H   0  0  0  0  0  0  0  0  0  0  0  0
    0.2623   18.2744   -2.2728 H   0  0  0  0  0  0  0  0  0  0  0  0
    0.5173   16.8720   -0.0149 H   0  0  0  0  0  0  0  0  0  0  0  0
    2.2586   17.3804   -0.2464 H   0  0  0  0  0  0  0  0  0  0  0  0
    1.5213   19.1170    1.0367 H   0  0  0  0  0  0  0  0  0  0  0  0
    1.1383   19.7428   -0.6214 H   0  0  0  0  0  0  0  0  0  0  0  0
   -0.2693   19.4092    1.5365 H   0  0  0  0  0  0  0  0  0  0  0  0
   -0.5628   20.8683   -1.8297 H   0  0  0  0  0  0  0  0  0  0  0  0
   -0.8127   19.1739   -2.3712 H   0  0  0  0  0  0  0  0  0  0  0  0
   -2.1884   20.3290   -2.3712 H   0  0  0  0  0  0  0  0  0  0  0  0
   -2.8144   20.1685    1.2265 H   0  0  0  0  0  0  0  0  0  0  0  0
   -2.9902   21.2312   -0.2110 H   0  0  0  0  0  0  0  0  0  0  0  0
   -3.7242   19.5917   -0.2110 H   0  0  0  0  0  0  0  0  0  0  0  0
   -0.4204   16.1483   -2.0417 H   0  0  0  0  0  0  0  0  0  0  0  0
   -0.2209   16.1192   -4.4492 H   0  0  0  0  0  0  0  0  0  0  0  0
    1.4865   16.6068   -4.3909 H   0  0  0  0  0  0  0  0  0  0  0  0
    0.5309   13.9660   -4.9228 H   0  0  0  0  0  0  0  0  0  0  0  0
    2.1977   14.3451   -4.4972 H   0  0  0  0  0  0  0  0  0  0  0  0
   -0.9289   13.4151   -1.6767 H   0  0  0  0  0  0  0  0  0  0  0  0
   -1.1528   14.2863   -3.2315 H   0  0  0  0  0  0  0  0  0  0  0  0
   -0.8027   12.5244   -3.2315 H   0  0  0  0  0  0  0  0  0  0  0  0
    2.8029   12.8514   -2.6918 H   0  0  0  0  0  0  0  0  0  0  0  0
    1.2373   11.7103   -4.3908 H   0  0  0  0  0  0  0  0  0  0  0  0
    2.4624   10.7363   -3.4209 H   0  0  0  0  0  0  0  0  0  0  0  0
    0.0747    9.6574   -3.7025 H   0  0  0  0  0  0  0  0  0  0  0  0
   -0.2819   11.9605   -0.4048 H   0  0  0  0  0  0  0  0  0  0  0  0
    1.4892    9.6057    0.4955 H   0  0  0  0  0  0  0  0  0  0  0  0
    0.9503   11.0181    1.5084 H   0  0  0  0  0  0  0  0  0  0  0  0
   -0.3570    8.9725    1.9822 H   0  0  0  0  0  0  0  0  0  0  0  0
   -1.3637   10.3156    1.3123 H   0  0  0  0  0  0  0  0  0  0  0  0
   -2.0271    8.2608    0.2663 H   0  0  0  0  0  0  0  0  0  0  0  0
    0.6070    7.7480    0.4420 H   0  0  0  0  0  0  0  0  0  0  0  0
   -2.7546   10.5064   -0.1869 H   0  0  0  0  0  0  0  0  0  0  0  0
   -2.3227   11.3037   -1.7375 H   0  0  0  0  0  0  0  0  0  0  0  0
   -3.3870    9.8566   -1.7375 H   0  0  0  0  0  0  0  0  0  0  0  0
   -1.9335    7.4309   -1.9771 H   0  0  0  0  0  0  0  0  0  0  0  0
   -2.4494    8.7449   -3.0880 H   0  0  0  0  0  0  0  0  0  0  0  0
   -0.7418    8.1875   -3.0880 H   0  0  0  0  0  0  0  0  0  0  0  0
    3.2329   11.1241    0.3666 H   0  0  0  0  0  0  0  0  0  0  0  0
    2.9462   10.2409   -1.1711 H   0  0  0  0  0  0  0  0  0  0  0  0
    3.9161   11.7529   -1.1711 H   0  0  0  0  0  0  0  0  0  0  0  0
    1.4399   12.9706    1.0040 H   0  0  0  0  0  0  0  0  0  0  0  0
    2.8990   13.5898    0.0443 H   0  0  0  0  0  0  0  0  0  0  0  0
   -0.0075   14.3802   -0.2949 H   0  0  0  0  0  0  0  0  0  0  0  0
    1.3785   15.3918    0.2744 H   0  0  0  0  0  0  0  0  0  0  0  0
    3.3326   15.3738   -0.8912 H   0  0  0  0  0  0  0  0  0  0  0  0
    3.4491   14.4799   -2.4449 H   0  0  0  0  0  0  0  0  0  0  0  0
    3.0668   16.2351   -2.4449 H   0  0  0  0  0  0  0  0  0  0  0  0
  1  2  1  0
  2  3  1  0
  3  4  1  0
  4  5  1  0
  5  6  1  0
  6  7  1  0
  7  8  1  0
  7  9  1  0
  2 10  1  0
 10 11  1  0
 11 12  1  0
 12 13  1  0
 13 14  1  1
 13 15  1  0
 15 16  1  0
 16 17  1  0
 17 18  2  0
 18 19  1  0
 19 20  1  0
 20 21  1  0
 21 22  1  0
 22 23  1  0
 22 24  1  0
 24 25  1  0
 24 26  1  0
 19 27  1  0
 27 28  1  6
 27 29  1  0
 29 30  1  0
 30 31  1  0
 31 32  1  1
  7  5  1  0
 31 10  1  0
 31 13  1  0
 27 15  1  0
 24 18  1  0
  1 33  1  0
  1 34  1  0
  1 35  1  0
  2 36  1  6
  3 37  1  0
  3 38  1  0
  4 39  1  0
  4 40  1  0
  5 41  1  1
  8 42  1  0
  8 43  1  0
  8 44  1  0
  9 45  1  0
  9 46  1  0
  9 47  1  0
 10 48  1  1
 11 49  1  0
 11 50  1  0
 12 51  1  0
 12 52  1  0
 14 53  1  0
 14 54  1  0
 14 55  1  0
 15 56  1  6
 16 57  1  0
 16 58  1  0
 17 59  1  0
 19 60  1  1
 20 61  1  0
 20 62  1  0
 21 63  1  0
 21 64  1  0
 22 65  1  1
 23 66  1  0
 25 67  1  0
 25 68  1  0
 25 69  1  0
 26 70  1  0
 26 71  1  0
 26 72  1  0
 28 73  1  0
 28 74  1  0
 28 75  1  0
 29 76  1  0
 29 77  1  0
 30 78  1  0
 30 79  1  0
 32 80  1  0
 32 81  1  0
 32 82  1  0
M  END
>  <meeko>  (4) 
{"is_sidechain": [false], "intermolecular_energy": 2.731, "internal_energy": -0.839}

$$$$
EPH_relaxed_0001_pdb2pqr_Repair_271_r2_0001_out
     RDKit          3D

 82 86  0  0  0  0  0  0  0  0999 V2000
   -3.4020    9.3240    0.5370 C   0  0  0  0  0  0  0  0  0  0  0  0
   -2.5750    9.6880   -0.6990 C   0  0  2  0  0  0  0  0  0  0  0  0
   -1.9080    8.4530   -1.3370 C   0  0  0  0  0  0  0  0  0  0  0  0
   -2.8260    7.6810   -2.2890 C   0  0  0  0  0  0  0  0  0  0  0  0
   -4.2630    7.7840   -1.8780 C   0  0  2  0  0  0  0  0  0  0  0  0
   -4.8060    6.5910   -1.2950 O   0  0  0  0  0  0  0  0  0  0  0  0
   -5.3820    7.0050   -2.5450 C   0  0  0  0  0  0  0  0  0  0  0  0
   -5.1110    6.0680   -3.6800 C   0  0  0  0  0  0  0  0  0  0  0  0
   -6.7830    7.5180   -2.4220 C   0  0  0  0  0  0  0  0  0  0  0  0
   -1.5150   10.7190   -0.3290 C   0  0  1  0  0  0  0  0  0  0  0  0
   -0.4140   10.1380    0.5980 C   0  0  0  0  0  0  0  0  0  0  0  0
    0.9150   10.8320    0.2030 C   0  0  0  0  0  0  0  0  0  0  0  0
    0.4850   12.0160   -0.6950 C   0  0  1  0  0  0  0  0  0  0  0  0
    0.0490   13.1360    0.3000 C   0  0  0  0  0  0  0  0  0  0  0  0
    1.5520   12.5320   -1.7150 C   0  0  2  0  0  0  0  0  0  0  0  0
    2.8360   13.1000   -1.0850 C   0  0  0  0  0  0  0  0  0  0  0  0
    2.8110   14.5650   -0.7980 C   0  0  0  0  0  0  0  0  0  0  0  0
    1.9180   15.4440   -1.2910 C   0  0  0  0  0  0  0  0  0  0  0  0
    0.8600   15.0030   -2.3110 C   0  0  1  0  0  0  0  0  0  0  0  0
    0.8060   16.0270   -3.4750 C   0  0  0  0  0  0  0  0  0  0  0  0
    0.5870   17.4560   -2.9880 C   0  0  0  0  0  0  0  0  0  0  0  0
    1.6910   17.8780   -2.0210 C   0  0  2  0  0  0  0  0  0  0  0  0
    2.9270   17.9540   -2.7370 O   0  0  0  0  0  0  0  0  0  0  0  0
    1.8460   16.9150   -0.8110 C   0  0  0  0  0  0  0  0  0  0  0  0
    0.6240   17.0600    0.1300 C   0  0  0  0  0  0  0  0  0  0  0  0
    3.0820   17.3730    0.0090 C   0  0  0  0  0  0  0  0  0  0  0  0
    0.9730   13.5030   -2.8220 C   0  0  1  0  0  0  0  0  0  0  0  0
    1.9490   13.4260   -4.0360 C   0  0  0  0  0  0  0  0  0  0  0  0
   -0.4330   13.0340   -3.3530 C   0  0  0  0  0  0  0  0  0  0  0  0
   -1.3970   12.4220   -2.3190 C   0  0  0  0  0  0  0  0  0  0  0  0
   -0.6970   11.3450   -1.4860 C   0  0  2  0  0  0  0  0  0  0  0  0
   -0.2660   10.1940   -2.4570 C   0  0  0  0  0  0  0  0  0  0  0  0
   -2.8338    9.5741    1.4450 H   0  0  0  0  0  0  0  0  0  0  0  0
   -4.3450    9.8902    0.5270 H   0  0  0  0  0  0  0  0  0  0  0  0
   -3.6214    8.2461    0.5270 H   0  0  0  0  0  0  0  0  0  0  0  0
   -3.2637   10.1125   -1.4443 H   0  0  0  0  0  0  0  0  0  0  0  0
   -1.0250    8.7877   -1.9012 H   0  0  0  0  0  0  0  0  0  0  0  0
   -1.6469    7.7686   -0.5164 H   0  0  0  0  0  0  0  0  0  0  0  0
   -2.7149    8.0923   -3.3031 H   0  0  0  0  0  0  0  0  0  0  0  0
   -2.5362    6.6203   -2.2600 H   0  0  0  0  0  0  0  0  0  0  0  0
   -4.1446    8.8526   -1.6456 H   0  0  0  0  0  0  0  0  0  0  0  0
   -4.8261    5.0828   -3.2821 H   0  0  0  0  0  0  0  0  0  0  0  0
   -6.0167    5.9667   -4.2961 H   0  0  0  0  0  0  0  0  0  0  0  0
   -4.2911    6.4657   -4.2961 H   0  0  0  0  0  0  0  0  0  0  0  0
   -7.0461    7.6143   -1.3583 H   0  0  0  0  0  0  0  0  0  0  0  0
   -6.8573    8.5017   -2.9087 H   0  0  0  0  0  0  0  0  0  0  0  0
   -7.4750    6.8149   -2.9087 H   0  0  0  0  0  0  0  0  0  0  0  0
   -2.1557   11.4834    0.1349 H   0  0  0  0  0  0  0  0  0  0  0  0
   -0.6540   10.3502    1.6503 H   0  0  0  0  0  0  0  0  0  0  0  0
   -0.3383    9.0464    0.4854 H   0  0  0  0  0  0  0  0  0  0  0  0
    1.4443   11.1945    1.0965 H   0  0  0  0  0  0  0  0  0  0  0  0
    1.6061   10.1479   -0.3112 H   0  0  0  0  0  0  0  0  0  0  0  0
    0.1865   12.7829    1.3327 H   0  0  0  0  0  0  0  0  0  0  0  0
    0.6635   14.0332    0.1344 H   0  0  0  0  0  0  0  0  0  0  0  0
   -1.0104   13.3815    0.1344 H   0  0  0  0  0  0  0  0  0  0  0  0
    1.8550   11.6073   -2.2279 H   0  0  0  0  0  0  0  0  0  0  0  0
    3.0124   12.5708   -0.1369 H   0  0  0  0  0  0  0  0  0  0  0  0
    3.6325   12.9489   -1.8284 H   0  0  0  0  0  0  0  0  0  0  0  0
    3.5880   14.9598   -0.1269 H   0  0  0  0  0  0  0  0  0  0  0  0
   -0.0993   14.9986   -1.7728 H   0  0  0  0  0  0  0  0  0  0  0  0
    1.7568   15.9843   -4.0264 H   0  0  0  0  0  0  0  0  0  0  0  0
   -0.0466   15.7587   -4.1162 H   0  0  0  0  0  0  0  0  0  0  0  0
    0.5872   18.1352   -3.8532 H   0  0  0  0  0  0  0  0  0  0  0  0
   -0.3779   17.5038   -2.4619 H   0  0  0  0  0  0  0  0  0  0  0  0
    1.4109   18.8582   -1.6079 H   0  0  0  0  0  0  0  0  0  0  0  0
    2.7170   18.1440   -3.6670 H   0  0  0  0  0  0  0  0  0  0  0  0
    0.9603   17.0201    1.1766 H   0  0  0  0  0  0  0  0  0  0  0  0
    0.1278   18.0233   -0.0592 H   0  0  0  0  0  0  0  0  0  0  0  0
   -0.0839   16.2395   -0.0592 H   0  0  0  0  0  0  0  0  0  0  0  0
    2.8603   17.2908    1.0833 H   0  0  0  0  0  0  0  0  0  0  0  0
    3.9429   16.7342   -0.2376 H   0  0  0  0  0  0  0  0  0  0  0  0
    3.3187   18.4185   -0.2376 H   0  0  0  0  0  0  0  0  0  0  0  0
    2.9832   13.3444   -3.6704 H   0  0  0  0  0  0  0  0  0  0  0  0
    1.7054   12.5443   -4.6469 H   0  0  0  0  0  0  0  0  0  0  0  0
    1.8467   14.3350   -4.6469 H   0  0  0  0  0  0  0  0  0  0  0  0
   -0.9310   13.9097   -3.7947 H   0  0  0  0  0  0  0  0  0  0  0  0
   -0.2166   12.2208   -4.0614 H   0  0  0  0  0  0  0  0  0  0  0  0
   -1.7579   13.2166   -1.6494 H   0  0  0  0  0  0  0  0  0  0  0  0
   -2.2380   11.9584   -2.8555 H   0  0  0  0  0  0  0  0  0  0  0  0
    0.0603    9.3225   -1.8705 H   0  0  0  0  0  0  0  0  0  0  0  0
   -1.1189    9.9106   -3.0912 H   0  0  0  0  0  0  0  0  0  0  0  0
    0.5633   10.5406   -3.0912 H   0  0  0  0  0  0  0  0  0  0  0  0
  1  2  1  0
  2  3  1  0
  3  4  1  0
  4  5  1  0
  5  6  1  0
  6  7  1  0
  7  8  1  0
  7  9  1  0
  2 10  1  0
 10 11  1  0
 11 12  1  0
 12 13  1  0
 13 14  1  1
 13 15  1  0
 15 16  1  0
 16 17  1  0
 17 18  2  0
 18 19  1  0
 19 20  1  0
 20 21  1  0
 21 22  1  0
 22 23  1  0
 22 24  1  0
 24 25  1  0
 24 26  1  0
 19 27  1  0
 27 28  1  6
 27 29  1  0
 29 30  1  0
 30 31  1  0
 31 32  1  6
  7  5  1  0
 31 10  1  0
 31 13  1  0
 27 15  1  0
 24 18  1  0
  1 33  1  0
  1 34  1  0
  1 35  1  0
  2 36  1  6
  3 37  1  0
  3 38  1  0
  4 39  1  0
  4 40  1  0
  5 41  1  1
  8 42  1  0
  8 43  1  0
  8 44  1  0
  9 45  1  0
  9 46  1  0
  9 47  1  0
 10 48  1  1
 11 49  1  0
 11 50  1  0
 12 51  1  0
 12 52  1  0
 14 53  1  0
 14 54  1  0
 14 55  1  0
 15 56  1  6
 16 57  1  0
 16 58  1  0
 17 59  1  0
 19 60  1  1
 20 61  1  0
 20 62  1  0
 21 63  1  0
 21 64  1  0
 22 65  1  1
 23 66  1  0
 25 67  1  0
 25 68  1  0
 25 69  1  0
 26 70  1  0
 26 71  1  0
 26 72  1  0
 28 73  1  0
 28 74  1  0
 28 75  1  0
 29 76  1  0
 29 77  1  0
 30 78  1  0
 30 79  1  0
 32 80  1  0
 32 81  1  0
 32 82  1  0
M  END
>  <meeko>  (5) 
{"is_sidechain": [false], "intermolecular_energy": 2.731, "internal_energy": -0.839}

$$$$
EPH_relaxed_0001_pdb2pqr_Repair_271_r2_0001_out
     RDKit          3D

 82 86  0  0  0  0  0  0  0  0999 V2000
    3.9510   17.8370    0.3930 C   0  0  0  0  0  0  0  0  0  0  0  0
    2.7850   18.3090   -0.4800 C   0  0  2  0  0  0  0  0  0  0  0  0
    2.1090   19.5730    0.0880 C   0  0  0  0  0  0  0  0  0  0  0  0
    0.8600   19.2810    0.9240 C   0  0  0  0  0  0  0  0  0  0  0  0
   -0.3460   19.9890    0.3850 C   0  0  2  0  0  0  0  0  0  0  0  0
   -1.3990   20.1870    1.3380 O   0  0  0  0  0  0  0  0  0  0  0  0
   -1.7020   19.3290    0.2260 C   0  0  0  0  0  0  0  0  0  0  0  0
   -1.9230   17.8980    0.6050 C   0  0  0  0  0  0  0  0  0  0  0  0
   -2.6770   19.9210   -0.7440 C   0  0  0  0  0  0  0  0  0  0  0  0
    1.7600   17.1910   -0.6270 C   0  0  1  0  0  0  0  0  0  0  0  0
    0.5040   17.6330   -1.4260 C   0  0  0  0  0  0  0  0  0  0  0  0
    0.0360   16.4000   -2.2410 C   0  0  0  0  0  0  0  0  0  0  0  0
    0.8230   15.2130   -1.6390 C   0  0  1  0  0  0  0  0  0  0  0  0
    0.0330   14.8190   -0.3510 C   0  0  0  0  0  0  0  0  0  0  0  0
    1.0440   13.9830   -2.5780 C   0  0  2  0  0  0  0  0  0  0  0  0
   -0.2410   13.2730   -3.0380 C   0  0  0  0  0  0  0  0  0  0  0  0
   -0.7050   12.1610   -2.1560 C   0  0  0  0  0  0  0  0  0  0  0  0
    0.0310   11.5600   -1.2020 C   0  0  0  0  0  0  0  0  0  0  0  0
    1.5060   11.9260   -0.9980 C   0  0  1  0  0  0  0  0  0  0  0  0
    2.3480   10.6300   -0.8680 C   0  0  0  0  0  0  0  0  0  0  0  0
    1.8220    9.6970    0.2190 C   0  0  0  0  0  0  0  0  0  0  0  0
    0.3710    9.3100   -0.0500 C   0  0  2  0  0  0  0  0  0  0  0  0
    0.3200    8.5060   -1.2330 O   0  0  0  0  0  0  0  0  0  0  0  0
   -0.5710   10.5360   -0.2090 C   0  0  0  0  0  0  0  0  0  0  0  0
   -0.7520   11.2350    1.1610 C   0  0  0  0  0  0  0  0  0  0  0  0
   -1.9740   10.0100   -0.6170 C   0  0  0  0  0  0  0  0  0  0  0  0
    2.1190   12.9480   -2.0500 C   0  0  1  0  0  0  0  0  0  0  0  0
    2.6450   12.1760   -3.2980 C   0  0  0  0  0  0  0  0  0  0  0  0
    3.3690   13.6590   -1.4080 C   0  0  0  0  0  0  0  0  0  0  0  0
    3.0980   14.9360   -0.5900 C   0  0  0  0  0  0  0  0  0  0  0  0
    2.2070   15.9080   -1.3710 C   0  0  2  0  0  0  0  0  0  0  0  0
    2.9850   16.3390   -2.6610 C   0  0  0  0  0  0  0  0  0  0  0  0
    3.6821   17.9458    1.4541 H   0  0  0  0  0  0  0  0  0  0  0  0
    4.1673   16.7805    0.1761 H   0  0  0  0  0  0  0  0  0  0  0  0
    4.8413   18.4456    0.1761 H   0  0  0  0  0  0  0  0  0  0  0  0
    3.1947   18.5694   -1.4671 H   0  0  0  0  0  0  0  0  0  0  0  0
    2.8363   20.1001    0.7230 H   0  0  0  0  0  0  0  0  0  0  0  0
    1.7857   20.1782   -0.7718 H   0  0  0  0  0  0  0  0  0  0  0  0
    0.6707   18.1975    0.9155 H   0  0  0  0  0  0  0  0  0  0  0  0
    1.0404   19.6417    1.9474 H   0  0  0  0  0  0  0  0  0  0  0  0
    0.2770   20.5709   -0.3102 H   0  0  0  0  0  0  0  0  0  0  0  0
   -1.9371   17.8070    1.7011 H   0  0  0  0  0  0  0  0  0  0  0  0
   -2.8848   17.5548    0.1962 H   0  0  0  0  0  0  0  0  0  0  0  0
   -1.1096   17.2806    0.1962 H   0  0  0  0  0  0  0  0  0  0  0  0
   -3.4900   20.4147   -0.1915 H   0  0  0  0  0  0  0  0  0  0  0  0
   -2.1625   20.6593   -1.3766 H   0  0  0  0  0  0  0  0  0  0  0  0
   -3.0948   19.1239   -1.3766 H   0  0  0  0  0  0  0  0  0  0  0  0
    1.5799   16.9664    0.4347 H   0  0  0  0  0  0  0  0  0  0  0  0
   -0.2901   17.9547   -0.7361 H   0  0  0  0  0  0  0  0  0  0  0  0
    0.7352   18.4800   -2.0886 H   0  0  0  0  0  0  0  0  0  0  0  0
   -1.0471   16.2464   -2.1254 H   0  0  0  0  0  0  0  0  0  0  0  0
    0.2196   16.5184   -3.3191 H   0  0  0  0  0  0  0  0  0  0  0  0
    0.6130   15.1083    0.5378 H   0  0  0  0  0  0  0  0  0  0  0  0
   -0.9361   15.3393   -0.3417 H   0  0  0  0  0  0  0  0  0  0  0  0
   -0.1344   13.7319   -0.3417 H   0  0  0  0  0  0  0  0  0  0  0  0
    1.4665   14.4495   -3.4802 H   0  0  0  0  0  0  0  0  0  0  0  0
   -1.0439   14.0231   -3.0903 H   0  0  0  0  0  0  0  0  0  0  0  0
   -0.0042   12.8133   -4.0089 H   0  0  0  0  0  0  0  0  0  0  0  0
   -1.7352   11.8025   -2.2976 H   0  0  0  0  0  0  0  0  0  0  0  0
    1.5502   12.4961   -0.0583 H   0  0  0  0  0  0  0  0  0  0  0  0
    2.3266   10.0976   -1.8303 H   0  0  0  0  0  0  0  0  0  0  0  0
    3.3712   10.9231   -0.5901 H   0  0  0  0  0  0  0  0  0  0  0  0
    2.4391    8.7867    0.2417 H   0  0  0  0  0  0  0  0  0  0  0  0
    1.8725   10.2201    1.1854 H   0  0  0  0  0  0  0  0  0  0  0  0
    0.0109    8.7505    0.8259 H   0  0  0  0  0  0  0  0  0  0  0  0
    0.9870    7.8050   -1.1410 H   0  0  0  0  0  0  0  0  0  0  0  0
   -0.5649   10.5123    1.9689 H   0  0  0  0  0  0  0  0  0  0  0  0
   -0.0404   12.0697    1.2436 H   0  0  0  0  0  0  0  0  0  0  0  0
   -1.7793   11.6194    1.2436 H   0  0  0  0  0  0  0  0  0  0  0  0
   -2.5604    9.7902    0.2873 H   0  0  0  0  0  0  0  0  0  0  0  0
   -2.4930   10.7746   -1.2137 H   0  0  0  0  0  0  0  0  0  0  0  0
   -1.8624    9.0926   -1.2137 H   0  0  0  0  0  0  0  0  0  0  0  0
    3.2362   11.3083   -2.9701 H   0  0  0  0  0  0  0  0  0  0  0  0
    1.7927   11.8318   -3.9023 H   0  0  0  0  0  0  0  0  0  0  0  0
    3.2772   12.8432   -3.9023 H   0  0  0  0  0  0  0  0  0  0  0  0
    3.8579   12.9339   -0.7407 H   0  0  0  0  0  0  0  0  0  0  0  0
    3.9821   13.9878   -2.2601 H   0  0  0  0  0  0  0  0  0  0  0  0
    2.5951   14.6620    0.3491 H   0  0  0  0  0  0  0  0  0  0  0  0
    4.0585   15.4301   -0.3820 H   0  0  0  0  0  0  0  0  0  0  0  0
    3.9139   16.8536   -2.3742 H   0  0  0  0  0  0  0  0  0  0  0  0
    3.2289   15.4473   -3.2572 H   0  0  0  0  0  0  0  0  0  0  0  0
    2.3584   17.0186   -3.2572 H   0  0  0  0  0  0  0  0  0  0  0  0
  1  2  1  0
  2  3  1  0
  3  4  1  0
  4  5  1  0
  5  6  1  0
  6  7  1  0
  7  8  1  0
  7  9  1  0
  2 10  1  0
 10 11  1  0
 11 12  1  0
 12 13  1  0
 13 14  1  1
 13 15  1  0
 15 16  1  0
 16 17  1  0
 17 18  2  0
 18 19  1  0
 19 20  1  0
 20 21  1  0
 21 22  1  0
 22 23  1  0
 22 24  1  0
 24 25  1  0
 24 26  1  0
 19 27  1  0
 27 28  1  6
 27 29  1  0
 29 30  1  0
 30 31  1  0
 31 32  1  6
  7  5  1  0
 31 10  1  0
 31 13  1  0
 27 15  1  0
 24 18  1  0
  1 33  1  0
  1 34  1  0
  1 35  1  0
  2 36  1  6
  3 37  1  0
  3 38  1  0
  4 39  1  0
  4 40  1  0
  5 41  1  6
  8 42  1  0
  8 43  1  0
  8 44  1  0
  9 45  1  0
  9 46  1  0
  9 47  1  0
 10 48  1  1
 11 49  1  0
 11 50  1  0
 12 51  1  0
 12 52  1  0
 14 53  1  0
 14 54  1  0
 14 55  1  0
 15 56  1  6
 16 57  1  0
 16 58  1  0
 17 59  1  0
 19 60  1  1
 20 61  1  0
 20 62  1  0
 21 63  1  0
 21 64  1  0
 22 65  1  1
 23 66  1  0
 25 67  1  0
 25 68  1  0
 25 69  1  0
 26 70  1  0
 26 71  1  0
 26 72  1  0
 28 73  1  0
 28 74  1  0
 28 75  1  0
 29 76  1  0
 29 77  1  0
 30 78  1  0
 30 79  1  0
 32 80  1  0
 32 81  1  0
 32 82  1  0
M  END
>  <meeko>  (6) 
{"is_sidechain": [false], "intermolecular_energy": 2.731, "internal_energy": -0.839}

$$$$
EPH_relaxed_0001_pdb2pqr_Repair_271_r2_0001_out
     RDKit          3D

 82 86  0  0  0  0  0  0  0  0999 V2000
   -5.2350    5.7490   -1.5770 C   0  0  0  0  0  0  0  0  0  0  0  0
   -5.4630    7.2500   -1.7790 C   0  0  2  0  0  0  0  0  0  0  0  0
   -5.1870    8.0570   -0.4950 C   0  0  0  0  0  0  0  0  0  0  0  0
   -4.2150    9.2220   -0.6970 C   0  0  0  0  0  0  0  0  0  0  0  0
   -2.8150    8.8500   -0.3110 C   0  0  2  0  0  0  0  0  0  0  0  0
   -2.2480    9.6530    0.7320 O   0  0  0  0  0  0  0  0  0  0  0  0
   -1.6140    9.7450   -0.5540 C   0  0  0  0  0  0  0  0  0  0  0  0
   -1.7580   11.0830   -1.2090 C   0  0  0  0  0  0  0  0  0  0  0  0
   -0.2550    9.1210   -0.6020 C   0  0  0  0  0  0  0  0  0  0  0  0
   -6.8890    7.4990   -2.2550 C   0  0  1  0  0  0  0  0  0  0  0  0
   -7.1930    6.8160   -3.6150 C   0  0  0  0  0  0  0  0  0  0  0  0
   -8.6750    6.3630   -3.5670 C   0  0  0  0  0  0  0  0  0  0  0  0
   -9.2640    7.0850   -2.3320 C   0  0  1  0  0  0  0  0  0  0  0  0
   -9.5900    8.5290   -2.8300 C   0  0  0  0  0  0  0  0  0  0  0  0
  -10.5060    6.4110   -1.6640 C   0  0  2  0  0  0  0  0  0  0  0  0
  -11.7530    6.3080   -2.5590 C   0  0  0  0  0  0  0  0  0  0  0  0
  -12.6920    7.4660   -2.4800 C   0  0  0  0  0  0  0  0  0  0  0  0
  -12.6910    8.4100   -1.5200 C   0  0  0  0  0  0  0  0  0  0  0  0
  -11.7390    8.3120   -0.3210 C   0  0  1  0  0  0  0  0  0  0  0  0
  -12.5240    8.5950    0.9870 C   0  0  0  0  0  0  0  0  0  0  0  0
  -13.2740    9.9220    0.9440 C   0  0  0  0  0  0  0  0  0  0  0  0
  -14.2530    9.9580   -0.2270 C   0  0  2  0  0  0  0  0  0  0  0  0
  -15.2860    8.9960    0.0060 O   0  0  0  0  0  0  0  0  0  0  0  0
  -13.5770    9.6770   -1.5980 C   0  0  0  0  0  0  0  0  0  0  0  0
  -12.6780   10.8760   -1.9910 C   0  0  0  0  0  0  0  0  0  0  0  0
  -14.6940    9.6020   -2.6740 C   0  0  0  0  0  0  0  0  0  0  0  0
  -10.8660    6.9870   -0.2350 C   0  0  1  0  0  0  0  0  0  0  0  0
  -11.6630    5.8720    0.5070 C   0  0  0  0  0  0  0  0  0  0  0  0
   -9.5850    7.2720    0.6360 C   0  0  0  0  0  0  0  0  0  0  0  0
   -8.3520    7.8250   -0.1030 C   0  0  0  0  0  0  0  0  0  0  0  0
   -8.0400    6.9920   -1.3500 C   0  0  2  0  0  0  0  0  0  0  0  0
   -7.6860    5.5400   -0.8790 C   0  0  0  0  0  0  0  0  0  0  0  0
   -5.2010    5.5249   -0.5006 H   0  0  0  0  0  0  0  0  0  0  0  0
   -6.0581    5.1872   -2.0427 H   0  0  0  0  0  0  0  0  0  0  0  0
   -4.2822    5.4569   -2.0427 H   0  0  0  0  0  0  0  0  0  0  0  0
   -4.7507    7.5934   -2.5436 H   0  0  0  0  0  0  0  0  0  0  0  0
   -6.1416    8.4611   -0.1270 H   0  0  0  0  0  0  0  0  0  0  0  0
   -4.7180    7.3680    0.2229 H   0  0  0  0  0  0  0  0  0  0  0  0
   -4.2263    9.5159   -1.7570 H   0  0  0  0  0  0  0  0  0  0  0  0
   -4.5384   10.0536   -0.0536 H   0  0  0  0  0  0  0  0  0  0  0  0
   -3.0065    7.7925   -0.5455 H   0  0  0  0  0  0  0  0  0  0  0  0
   -1.8418   11.8621   -0.4370 H   0  0  0  0  0  0  0  0  0  0  0  0
   -0.8760   11.2813   -1.8357 H   0  0  0  0  0  0  0  0  0  0  0  0
   -2.6620   11.0891   -1.8357 H   0  0  0  0  0  0  0  0  0  0  0  0
    0.1083    8.9542    0.4228 H   0  0  0  0  0  0  0  0  0  0  0  0
   -0.3118    8.1588   -1.1320 H   0  0  0  0  0  0  0  0  0  0  0  0
    0.4377    9.7912   -1.1320 H   0  0  0  0  0  0  0  0  0  0  0  0
   -6.8856    8.5987   -2.2788 H   0  0  0  0  0  0  0  0  0  0  0  0
   -7.0413    7.5287   -4.4390 H   0  0  0  0  0  0  0  0  0  0  0  0
   -6.5237    5.9598   -3.7852 H   0  0  0  0  0  0  0  0  0  0  0  0
   -9.2036    6.6662   -4.4828 H   0  0  0  0  0  0  0  0  0  0  0  0
   -8.7750    5.2697   -3.4981 H   0  0  0  0  0  0  0  0  0  0  0  0
   -9.7394    9.1906   -1.9639 H   0  0  0  0  0  0  0  0  0  0  0  0
   -8.7540    8.9045   -3.4384 H   0  0  0  0  0  0  0  0  0  0  0  0
  -10.5062    8.5089   -3.4384 H   0  0  0  0  0  0  0  0  0  0  0  0
  -10.1605    5.3776   -1.5136 H   0  0  0  0  0  0  0  0  0  0  0  0
  -11.4161    6.2141   -3.6019 H   0  0  0  0  0  0  0  0  0  0  0  0
  -12.3157    5.4347   -2.1976 H   0  0  0  0  0  0  0  0  0  0  0  0
  -13.4487    7.5555   -3.2733 H   0  0  0  0  0  0  0  0  0  0  0  0
  -10.9756    9.0891   -0.4739 H   0  0  0  0  0  0  0  0  0  0  0  0
  -13.2507    7.7843    1.1444 H   0  0  0  0  0  0  0  0  0  0  0  0
  -11.7946    8.6505    1.8085 H   0  0  0  0  0  0  0  0  0  0  0  0
  -13.8316   10.0509    1.8834 H   0  0  0  0  0  0  0  0  0  0  0  0
  -12.5433   10.7342    0.8157 H   0  0  0  0  0  0  0  0  0  0  0  0
  -14.6644   10.9766   -0.2825 H   0  0  0  0  0  0  0  0  0  0  0  0
  -14.9330    8.3260    0.6160 H   0  0  0  0  0  0  0  0  0  0  0  0
  -12.3074   11.3702   -1.0808 H   0  0  0  0  0  0  0  0  0  0  0  0
  -11.8256   10.5157   -2.5856 H   0  0  0  0  0  0  0  0  0  0  0  0
  -13.2627   11.5933   -2.5856 H   0  0  0  0  0  0  0  0  0  0  0  0
  -15.6748    9.5361   -2.1804 H   0  0  0  0  0  0  0  0  0  0  0  0
  -14.6594   10.5045   -3.3019 H   0  0  0  0  0  0  0  0  0  0  0  0
  -14.5391    8.7122   -3.3019 H   0  0  0  0  0  0  0  0  0  0  0  0
  -11.5634    6.0114    1.5936 H   0  0  0  0  0  0  0  0  0  0  0  0
  -12.7247    5.9311    0.2256 H   0  0  0  0  0  0  0  0  0  0  0  0
  -11.2634    4.8866    0.2256 H   0  0  0  0  0  0  0  0  0  0  0  0
   -9.8644    8.0021    1.4099 H   0  0  0  0  0  0  0  0  0  0  0  0
   -9.2737    6.2895    1.0203 H   0  0  0  0  0  0  0  0  0  0  0  0
   -8.5496    8.8642   -0.4048 H   0  0  0  0  0  0  0  0  0  0  0  0
   -7.4870    7.7784    0.5750 H   0  0  0  0  0  0  0  0  0  0  0  0
   -7.6770    5.5031    0.2203 H   0  0  0  0  0  0  0  0  0  0  0  0
   -8.4388    4.8361   -1.2634 H   0  0  0  0  0  0  0  0  0  0  0  0
   -6.6937    5.2615   -1.2634 H   0  0  0  0  0  0  0  0  0  0  0  0
  1  2  1  0
  2  3  1  0
  3  4  1  0
  4  5  1  0
  5  6  1  0
  6  7  1  0
  7  8  1  0
  7  9  1  0
  2 10  1  0
 10 11  1  0
 11 12  1  0
 12 13  1  0
 13 14  1  6
 13 15  1  0
 15 16  1  0
 16 17  1  0
 17 18  2  0
 18 19  1  0
 19 20  1  0
 20 21  1  0
 21 22  1  0
 22 23  1  0
 22 24  1  0
 24 25  1  0
 24 26  1  0
 19 27  1  0
 27 28  1  1
 27 29  1  0
 29 30  1  0
 30 31  1  0
 31 32  1  1
  7  5  1  0
 31 10  1  0
 31 13  1  0
 27 15  1  0
 24 18  1  0
  1 33  1  0
  1 34  1  0
  1 35  1  0
  2 36  1  6
  3 37  1  0
  3 38  1  0
  4 39  1  0
  4 40  1  0
  5 41  1  1
  8 42  1  0
  8 43  1  0
  8 44  1  0
  9 45  1  0
  9 46  1  0
  9 47  1  0
 10 48  1  6
 11 49  1  0
 11 50  1  0
 12 51  1  0
 12 52  1  0
 14 53  1  0
 14 54  1  0
 14 55  1  0
 15 56  1  1
 16 57  1  0
 16 58  1  0
 17 59  1  0
 19 60  1  6
 20 61  1  0
 20 62  1  0
 21 63  1  0
 21 64  1  0
 22 65  1  6
 23 66  1  0
 25 67  1  0
 25 68  1  0
 25 69  1  0
 26 70  1  0
 26 71  1  0
 26 72  1  0
 28 73  1  0
 28 74  1  0
 28 75  1  0
 29 76  1  0
 29 77  1  0
 30 78  1  0
 30 79  1  0
 32 80  1  0
 32 81  1  0
 32 82  1  0
M  END
>  <meeko>  (7) 
{"is_sidechain": [false], "intermolecular_energy": 2.731, "internal_energy": -0.839}

$$$$
EPH_relaxed_0001_pdb2pqr_Repair_271_r2_0001_out
     RDKit          3D

 82 86  0  0  0  0  0  0  0  0999 V2000
    0.4110    8.8870   -2.5290 C   0  0  0  0  0  0  0  0  0  0  0  0
    1.1790   10.0440   -3.1730 C   0  0  2  0  0  0  0  0  0  0  0  0
    2.6700   10.0410   -2.7800 C   0  0  0  0  0  0  0  0  0  0  0  0
    3.5920   10.6160   -3.8580 C   0  0  0  0  0  0  0  0  0  0  0  0
    4.9840   10.8280   -3.3430 C   0  0  2  0  0  0  0  0  0  0  0  0
    5.5990   12.0520   -3.7660 O   0  0  0  0  0  0  0  0  0  0  0  0
    6.2130   10.8400   -4.2330 C   0  0  0  0  0  0  0  0  0  0  0  0
    6.1070   10.6340   -5.7120 C   0  0  0  0  0  0  0  0  0  0  0  0
    7.5470   10.5630   -3.6140 C   0  0  0  0  0  0  0  0  0  0  0  0
    0.5410   11.3720   -2.7830 C   0  0  1  0  0  0  0  0  0  0  0  0
   -0.8350   11.1920   -2.0880 C   0  0  0  0  0  0  0  0  0  0  0  0
   -0.9490   12.3150   -1.0250 C   0  0  0  0  0  0  0  0  0  0  0  0
    0.2000   13.2920   -1.3640 C   0  0  1  0  0  0  0  0  0  0  0  0
   -0.3510   14.1690   -2.5320 C   0  0  0  0  0  0  0  0  0  0  0  0
    0.7320   14.1700   -0.1850 C   0  0  2  0  0  0  0  0  0  0  0  0
   -0.2980   15.1370    0.4250 C   0  0  0  0  0  0  0  0  0  0  0  0
   -0.3430   16.4950   -0.1940 C   0  0  0  0  0  0  0  0  0  0  0  0
    0.5980   17.0170   -1.0030 C   0  0  0  0  0  0  0  0  0  0  0  0
    1.8990   16.2560   -1.2910 C   0  0  1  0  0  0  0  0  0  0  0  0
    3.1060   17.2210   -1.1470 C   0  0  0  0  0  0  0  0  0  0  0  0
    2.9590   18.4730   -2.0060 C   0  0  0  0  0  0  0  0  0  0  0  0
    1.6840   19.2330   -1.6500 C   0  0  2  0  0  0  0  0  0  0  0  0
    1.8110   19.7500   -0.3220 O   0  0  0  0  0  0  0  0  0  0  0  0
    0.4020   18.3590   -1.7490 C   0  0  0  0  0  0  0  0  0  0  0  0
    0.0980   18.0490   -3.2360 C   0  0  0  0  0  0  0  0  0  0  0  0
   -0.7930   19.2030   -1.2290 C   0  0  0  0  0  0  0  0  0  0  0  0
    2.1030   14.9010   -0.4870 C   0  0  1  0  0  0  0  0  0  0  0  0
    2.7650   15.1950    0.8940 C   0  0  0  0  0  0  0  0  0  0  0  0
    3.1090   13.9820   -1.2750 C   0  0  0  0  0  0  0  0  0  0  0  0
    2.5080   13.0500   -2.3450 C   0  0  0  0  0  0  0  0  0  0  0  0
    1.3160   12.2680   -1.7850 C   0  0  2  0  0  0  0  0  0  0  0  0
    1.8440   11.3600   -0.6220 C   0  0  0  0  0  0  0  0  0  0  0  0
    0.4683    8.9734   -1.4339 H   0  0  0  0  0  0  0  0  0  0  0  0
   -0.6419    8.9248   -2.8452 H   0  0  0  0  0  0  0  0  0  0  0  0
    0.8547    7.9314   -2.8452 H   0  0  0  0  0  0  0  0  0  0  0  0
    1.1244    9.9110   -4.2636 H   0  0  0  0  0  0  0  0  0  0  0  0
    2.7892   10.6404   -1.8654 H   0  0  0  0  0  0  0  0  0  0  0  0
    2.9618    8.9904   -2.6346 H   0  0  0  0  0  0  0  0  0  0  0  0
    3.6285    9.9162   -4.7059 H   0  0  0  0  0  0  0  0  0  0  0  0
    3.1894   11.5915   -4.1684 H   0  0  0  0  0  0  0  0  0  0  0  0
    4.7492   10.2833   -2.4166 H   0  0  0  0  0  0  0  0  0  0  0  0
    5.6122    9.6725   -5.9138 H   0  0  0  0  0  0  0  0  0  0  0  0
    5.5168   11.4500   -6.1545 H   0  0  0  0  0  0  0  0  0  0  0  0
    7.1141   10.6281   -6.1545 H   0  0  0  0  0  0  0  0  0  0  0  0
    7.4538   10.5823   -2.5181 H   0  0  0  0  0  0  0  0  0  0  0  0
    7.9013    9.5721   -3.9344 H   0  0  0  0  0  0  0  0  0  0  0  0
    8.2665   11.3309   -3.9344 H   0  0  0  0  0  0  0  0  0  0  0  0
    0.5028   11.8549   -3.7706 H   0  0  0  0  0  0  0  0  0  0  0  0
   -1.6465   11.2840   -2.8248 H   0  0  0  0  0  0  0  0  0  0  0  0
   -0.9160   10.1983   -1.6233 H   0  0  0  0  0  0  0  0  0  0  0  0
   -1.9230   12.8210   -1.0978 H   0  0  0  0  0  0  0  0  0  0  0  0
   -0.8764   11.9263    0.0015 H   0  0  0  0  0  0  0  0  0  0  0  0
   -0.8932   15.0320   -2.1183 H   0  0  0  0  0  0  0  0  0  0  0  0
    0.4865   14.5243   -3.1504 H   0  0  0  0  0  0  0  0  0  0  0  0
   -1.0345   13.5687   -3.1504 H   0  0  0  0  0  0  0  0  0  0  0  0
    0.9355   13.4199    0.5934 H   0  0  0  0  0  0  0  0  0  0  0  0
   -1.2943   14.6826    0.3203 H   0  0  0  0  0  0  0  0  0  0  0  0
    0.0094   15.2892    1.4702 H   0  0  0  0  0  0  0  0  0  0  0  0
   -1.2188   17.1218    0.0298 H   0  0  0  0  0  0  0  0  0  0  0  0
    1.8220   15.9059   -2.3309 H   0  0  0  0  0  0  0  0  0  0  0  0
    3.1913   17.5244   -0.0931 H   0  0  0  0  0  0  0  0  0  0  0  0
    4.0044   16.6855   -1.4878 H   0  0  0  0  0  0  0  0  0  0  0  0
    3.8269   19.1279   -1.8390 H   0  0  0  0  0  0  0  0  0  0  0  0
    2.9033   18.1695   -3.0618 H   0  0  0  0  0  0  0  0  0  0  0  0
    1.5684   20.0447   -2.3834 H   0  0  0  0  0  0  0  0  0  0  0  0
    1.5800   20.6940   -0.3500 H   0  0  0  0  0  0  0  0  0  0  0  0
   -0.6710   17.2648   -3.2973 H   0  0  0  0  0  0  0  0  0  0  0  0
   -0.2667   18.9599   -3.7333 H   0  0  0  0  0  0  0  0  0  0  0  0
    1.0158   17.7022   -3.7333 H   0  0  0  0  0  0  0  0  0  0  0  0
   -0.7915   19.2019   -0.1290 H   0  0  0  0  0  0  0  0  0  0  0  0
   -0.6989   20.2361   -1.5948 H   0  0  0  0  0  0  0  0  0  0  0  0
   -1.7352   18.7689   -1.5948 H   0  0  0  0  0  0  0  0  0  0  0  0
    2.0813   14.8914    1.7004 H   0  0  0  0  0  0  0  0  0  0  0  0
    3.7049   14.6297    0.9779 H   0  0  0  0  0  0  0  0  0  0  0  0
    2.9758   16.2714    0.9779 H   0  0  0  0  0  0  0  0  0  0  0  0
    3.8363   14.6379   -1.7758 H   0  0  0  0  0  0  0  0  0  0  0  0
    3.5386   13.3103   -0.5172 H   0  0  0  0  0  0  0  0  0  0  0  0
    2.1719   13.6542   -3.2005 H   0  0  0  0  0  0  0  0  0  0  0  0
    3.2809   12.3331   -2.6594 H   0  0  0  0  0  0  0  0  0  0  0  0
    1.5806   11.8129    0.3452 H   0  0  0  0  0  0  0  0  0  0  0  0
    1.3846   10.3634   -0.6974 H   0  0  0  0  0  0  0  0  0  0  0  0
    2.9374   11.2664   -0.6974 H   0  0  0  0  0  0  0  0  0  0  0  0
  1  2  1  0
  2  3  1  0
  3  4  1  0
  4  5  1  0
  5  6  1  0
  6  7  1  0
  7  8  1  0
  7  9  1  0
  2 10  1  0
 10 11  1  0
 11 12  1  0
 12 13  1  0
 13 14  1  6
 13 15  1  0
 15 16  1  0
 16 17  1  0
 17 18  2  0
 18 19  1  0
 19 20  1  0
 20 21  1  0
 21 22  1  0
 22 23  1  0
 22 24  1  0
 24 25  1  0
 24 26  1  0
 19 27  1  0
 27 28  1  1
 27 29  1  0
 29 30  1  0
 30 31  1  0
 31 32  1  1
  7  5  1  0
 31 10  1  0
 31 13  1  0
 27 15  1  0
 24 18  1  0
  1 33  1  0
  1 34  1  0
  1 35  1  0
  2 36  1  6
  3 37  1  0
  3 38  1  0
  4 39  1  0
  4 40  1  0
  5 41  1  1
  8 42  1  0
  8 43  1  0
  8 44  1  0
  9 45  1  0
  9 46  1  0
  9 47  1  0
 10 48  1  6
 11 49  1  0
 11 50  1  0
 12 51  1  0
 12 52  1  0
 14 53  1  0
 14 54  1  0
 14 55  1  0
 15 56  1  1
 16 57  1  0
 16 58  1  0
 17 59  1  0
 19 60  1  6
 20 61  1  0
 20 62  1  0
 21 63  1  0
 21 64  1  0
 22 65  1  6
 23 66  1  0
 25 67  1  0
 25 68  1  0
 25 69  1  0
 26 70  1  0
 26 71  1  0
 26 72  1  0
 28 73  1  0
 28 74  1  0
 28 75  1  0
 29 76  1  0
 29 77  1  0
 30 78  1  0
 30 79  1  0
 32 80  1  0
 32 81  1  0
 32 82  1  0
M  END
>  <meeko>  (8) 
{"is_sidechain": [false], "intermolecular_energy": 2.731, "internal_energy": -0.839}

$$$$
EPH_relaxed_0001_pdb2pqr_Repair_271_r2_0001_out
     RDKit          3D

 82 86  0  0  0  0  0  0  0  0999 V2000
    2.8300   19.1610   -0.8370 C   0  0  0  0  0  0  0  0  0  0  0  0
    2.6590   18.1650   -1.9870 C   0  0  2  0  0  0  0  0  0  0  0  0
    1.2870   18.3060   -2.6770 C   0  0  0  0  0  0  0  0  0  0  0  0
    0.4770   19.5130   -2.1970 C   0  0  0  0  0  0  0  0  0  0  0  0
   -0.8520   19.1020   -1.6400 C   0  0  2  0  0  0  0  0  0  0  0  0
   -1.7470   20.1880   -1.3650 O   0  0  0  0  0  0  0  0  0  0  0  0
   -1.3050   19.4280   -0.2290 C   0  0  0  0  0  0  0  0  0  0  0  0
   -0.4320   20.1940    0.7130 C   0  0  0  0  0  0  0  0  0  0  0  0
   -2.3790   18.5880    0.3890 C   0  0  0  0  0  0  0  0  0  0  0  0
    2.8400   16.7420   -1.4730 C   0  0  1  0  0  0  0  0  0  0  0  0
    3.5070   16.6930   -0.0730 C   0  0  0  0  0  0  0  0  0  0  0  0
    2.8750   15.4950    0.6820 C   0  0  0  0  0  0  0  0  0  0  0  0
    2.1190   14.7010   -0.4100 C   0  0  1  0  0  0  0  0  0  0  0  0
    3.2150   13.8420   -1.1130 C   0  0  0  0  0  0  0  0  0  0  0  0
    0.9220   13.8220    0.0790 C   0  0  2  0  0  0  0  0  0  0  0  0
    1.2980   12.6900    1.0500 C   0  0  0  0  0  0  0  0  0  0  0  0
    1.6290   11.3830    0.4080 C   0  0  0  0  0  0  0  0  0  0  0  0
    1.3540   11.0450   -0.8650 C   0  0  0  0  0  0  0  0  0  0  0  0
    0.5540   11.9870   -1.7750 C   0  0  1  0  0  0  0  0  0  0  0  0
   -0.5430   11.1810   -2.5180 C   0  0  0  0  0  0  0  0  0  0  0  0
    0.0230    9.9810   -3.2730 C   0  0  0  0  0  0  0  0  0  0  0  0
    0.7600    9.0390   -2.3250 C   0  0  2  0  0  0  0  0  0  0  0  0
   -0.1880    8.4530   -1.4270 O   0  0  0  0  0  0  0  0  0  0  0  0
    1.8840    9.7430   -1.5130 C   0  0  0  0  0  0  0  0  0  0  0  0
    3.0550   10.1110   -2.4570 C   0  0  0  0  0  0  0  0  0  0  0  0
    2.4520    8.7160   -0.4960 C   0  0  0  0  0  0  0  0  0  0  0  0
   -0.0160   13.3000   -1.0840 C   0  0  1  0  0  0  0  0  0  0  0  0
   -1.4030   13.0010   -0.4370 C   0  0  0  0  0  0  0  0  0  0  0  0
   -0.2670   14.3940   -2.1870 C   0  0  0  0  0  0  0  0  0  0  0  0
    0.9200   15.3090   -2.5410 C   0  0  0  0  0  0  0  0  0  0  0  0
    1.5620   15.8890   -1.2770 C   0  0  2  0  0  0  0  0  0  0  0  0
    0.4880   16.7770   -0.5600 C   0  0  0  0  0  0  0  0  0  0  0  0
    2.7391   18.6317    0.1230 H   0  0  0  0  0  0  0  0  0  0  0  0
    3.8221   19.6315   -0.9039 H   0  0  0  0  0  0  0  0  0  0  0  0
    2.0517   19.9354   -0.9039 H   0  0  0  0  0  0  0  0  0  0  0  0
    3.4309   18.3897   -2.7378 H   0  0  0  0  0  0  0  0  0  0  0  0
    1.4518   18.4070   -3.7599 H   0  0  0  0  0  0  0  0  0  0  0  0
    0.7057   17.4075   -2.4225 H   0  0  0  0  0  0  0  0  0  0  0  0
    1.0458   20.0354   -1.4137 H   0  0  0  0  0  0  0  0  0  0  0  0
    0.2986   20.1715   -3.0599 H   0  0  0  0  0  0  0  0  0  0  0  0
   -0.8249   18.1597   -2.2069 H   0  0  0  0  0  0  0  0  0  0  0  0
   -0.7090   19.9509    1.7494 H   0  0  0  0  0  0  0  0  0  0  0  0
    0.6199   19.9221    0.5412 H   0  0  0  0  0  0  0  0  0  0  0  0
   -0.5648   21.2724    0.5412 H   0  0  0  0  0  0  0  0  0  0  0  0
   -2.3048   18.6460    1.4850 H   0  0  0  0  0  0  0  0  0  0  0  0
   -3.3640   18.9578    0.0681 H   0  0  0  0  0  0  0  0  0  0  0  0
   -2.2574   17.5429    0.0681 H   0  0  0  0  0  0  0  0  0  0  0  0
    3.4475   16.3264   -2.2904 H   0  0  0  0  0  0  0  0  0  0  0  0
    4.5923   16.5462   -0.1754 H   0  0  0  0  0  0  0  0  0  0  0  0
    3.3465   17.6337    0.4741 H   0  0  0  0  0  0  0  0  0  0  0  0
    3.6549   14.8726    1.1450 H   0  0  0  0  0  0  0  0  0  0  0  0
    2.2114   15.8187    1.4974 H   0  0  0  0  0  0  0  0  0  0  0  0
    3.8405   13.3518   -0.3524 H   0  0  0  0  0  0  0  0  0  0  0  0
    2.7347   13.0773   -1.7411 H   0  0  0  0  0  0  0  0  0  0  0  0
    3.8427   14.4911   -1.7411 H   0  0  0  0  0  0  0  0  0  0  0  0
    0.3298   14.5365    0.6696 H   0  0  0  0  0  0  0  0  0  0  0  0
    2.1746   13.0160    1.6291 H   0  0  0  0  0  0  0  0  0  0  0  0
    0.4053   12.5088    1.6667 H   0  0  0  0  0  0  0  0  0  0  0  0
    2.1411   10.6329    1.0285 H   0  0  0  0  0  0  0  0  0  0  0  0
    1.2742   12.3935   -2.5003 H   0  0  0  0  0  0  0  0  0  0  0  0
   -1.2758   10.8204   -1.7811 H   0  0  0  0  0  0  0  0  0  0  0  0
   -1.0077   11.8512   -3.2562 H   0  0  0  0  0  0  0  0  0  0  0  0
   -0.8028    9.4354   -3.7529 H   0  0  0  0  0  0  0  0  0  0  0  0
    0.7339   10.3452   -4.0293 H   0  0  0  0  0  0  0  0  0  0  0  0
    1.2515    8.2706   -2.9398 H   0  0  0  0  0  0  0  0  0  0  0  0
    0.2520    8.3420   -0.5670 H   0  0  0  0  0  0  0  0  0  0  0  0
    3.9354   10.3877   -1.8584 H   0  0  0  0  0  0  0  0  0  0  0  0
    3.3000    9.2465   -3.0916 H   0  0  0  0  0  0  0  0  0  0  0  0
    2.7614   10.9602   -3.0916 H   0  0  0  0  0  0  0  0  0  0  0  0
    2.2574    9.0678    0.5279 H   0  0  0  0  0  0  0  0  0  0  0  0
    1.9645    7.7417   -0.6478 H   0  0  0  0  0  0  0  0  0  0  0  0
    3.5364    8.6110   -0.6478 H   0  0  0  0  0  0  0  0  0  0  0  0
   -1.3085   13.0214    0.6587 H   0  0  0  0  0  0  0  0  0  0  0  0
   -2.1287   13.7633   -0.7567 H   0  0  0  0  0  0  0  0  0  0  0  0
   -1.7502   12.0074   -0.7567 H   0  0  0  0  0  0  0  0  0  0  0  0
   -0.5727   13.8746   -3.1072 H   0  0  0  0  0  0  0  0  0  0  0  0
   -1.0287   15.0632   -1.7603 H   0  0  0  0  0  0  0  0  0  0  0  0
    1.6726   14.7252   -3.0913 H   0  0  0  0  0  0  0  0  0  0  0  0
    0.5496   16.1402   -3.1590 H   0  0  0  0  0  0  0  0  0  0  0  0
    0.6024   16.6824    0.5299 H   0  0  0  0  0  0  0  0  0  0  0  0
    0.6262   17.8281   -0.8533 H   0  0  0  0  0  0  0  0  0  0  0  0
   -0.5184   16.4437   -0.8533 H   0  0  0  0  0  0  0  0  0  0  0  0
  1  2  1  0
  2  3  1  0
  3  4  1  0
  4  5  1  0
  5  6  1  0
  6  7  1  0
  7  8  1  0
  7  9  1  0
  2 10  1  0
 10 11  1  0
 11 12  1  0
 12 13  1  0
 13 14  1  6
 13 15  1  0
 15 16  1  0
 16 17  1  0
 17 18  2  0
 18 19  1  0
 19 20  1  0
 20 21  1  0
 21 22  1  0
 22 23  1  0
 22 24  1  0
 24 25  1  0
 24 26  1  0
 19 27  1  0
 27 28  1  1
 27 29  1  0
 29 30  1  0
 30 31  1  0
 31 32  1  1
  7  5  1  0
 31 10  1  0
 31 13  1  0
 27 15  1  0
 24 18  1  0
  1 33  1  0
  1 34  1  0
  1 35  1  0
  2 36  1  6
  3 37  1  0
  3 38  1  0
  4 39  1  0
  4 40  1  0
  5 41  1  6
  8 42  1  0
  8 43  1  0
  8 44  1  0
  9 45  1  0
  9 46  1  0
  9 47  1  0
 10 48  1  6
 11 49  1  0
 11 50  1  0
 12 51  1  0
 12 52  1  0
 14 53  1  0
 14 54  1  0
 14 55  1  0
 15 56  1  1
 16 57  1  0
 16 58  1  0
 17 59  1  0
 19 60  1  6
 20 61  1  0
 20 62  1  0
 21 63  1  0
 21 64  1  0
 22 65  1  6
 23 66  1  0
 25 67  1  0
 25 68  1  0
 25 69  1  0
 26 70  1  0
 26 71  1  0
 26 72  1  0
 28 73  1  0
 28 74  1  0
 28 75  1  0
 29 76  1  0
 29 77  1  0
 30 78  1  0
 30 79  1  0
 32 80  1  0
 32 81  1  0
 32 82  1  0
M  END
>  <meeko>  (9) 
{"is_sidechain": [false], "intermolecular_energy": 2.731, "internal_energy": -0.839}

$$$$
EPH_relaxed_0001_pdb2pqr_Repair_271_r2_0001_out
     RDKit          3D

 82 86  0  0  0  0  0  0  0  0999 V2000
   -3.7190    7.2080   -3.4400 C   0  0  0  0  0  0  0  0  0  0  0  0
   -3.7460    7.2770   -1.9110 C   0  0  2  0  0  0  0  0  0  0  0  0
   -5.1610    7.0460   -1.3440 C   0  0  0  0  0  0  0  0  0  0  0  0
   -6.2780    7.2720   -2.3670 C   0  0  0  0  0  0  0  0  0  0  0  0
   -7.6040    7.4840   -1.7010 C   0  0  2  0  0  0  0  0  0  0  0  0
   -8.1860    6.3020   -1.1350 O   0  0  0  0  0  0  0  0  0  0  0  0
   -8.9050    6.9040   -2.2240 C   0  0  0  0  0  0  0  0  0  0  0  0
   -8.9430    6.0660   -3.4640 C   0  0  0  0  0  0  0  0  0  0  0  0
  -10.1920    7.5480   -1.8140 C   0  0  0  0  0  0  0  0  0  0  0  0
   -3.2100    8.6240   -1.4420 C   0  0  1  0  0  0  0  0  0  0  0  0
   -3.8310    9.0780   -0.0940 C   0  0  0  0  0  0  0  0  0  0  0  0
   -2.7200    9.8350    0.6780 C   0  0  0  0  0  0  0  0  0  0  0  0
   -1.6130   10.0810   -0.3740 C   0  0  1  0  0  0  0  0  0  0  0  0
   -2.0890   11.3360   -1.1710 C   0  0  0  0  0  0  0  0  0  0  0  0
   -0.1620   10.2660    0.1800 C   0  0  2  0  0  0  0  0  0  0  0  0
    0.0360   11.4850    1.0970 C   0  0  0  0  0  0  0  0  0  0  0  0
    0.4420   12.7440    0.4060 C   0  0  0  0  0  0  0  0  0  0  0  0
    0.9140   12.8280   -0.8520 C   0  0  0  0  0  0  0  0  0  0  0  0
    1.1740   11.5650   -1.6820 C   0  0  1  0  0  0  0  0  0  0  0  0
    2.5640   11.6700   -2.3630 C   0  0  0  0  0  0  0  0  0  0  0  0
    2.7200   12.9480   -3.1810 C   0  0  0  0  0  0  0  0  0  0  0  0
    2.5110   14.1830   -2.3090 C   0  0  2  0  0  0  0  0  0  0  0  0
    3.5790   14.2610   -1.3590 O   0  0  0  0  0  0  0  0  0  0  0  0
    1.1470   14.1840   -1.5640 C   0  0  0  0  0  0  0  0  0  0  0  0
   -0.0010   14.4030   -2.5800 C   0  0  0  0  0  0  0  0  0  0  0  0
    1.1240   15.4100   -0.6120 C   0  0  0  0  0  0  0  0  0  0  0  0
    0.9680   10.1830   -0.9240 C   0  0  1  0  0  0  0  0  0  0  0  0
    2.2820    9.7800   -0.1870 C   0  0  0  0  0  0  0  0  0  0  0  0
    0.6890    9.0520   -1.9840 C   0  0  0  0  0  0  0  0  0  0  0  0
   -0.7790    8.8390   -2.4010 C   0  0  0  0  0  0  0  0  0  0  0  0
   -1.6880    8.7300   -1.1730 C   0  0  2  0  0  0  0  0  0  0  0  0
   -1.2470    7.4630   -0.3630 C   0  0  0  0  0  0  0  0  0  0  0  0
   -3.3351    6.2268   -3.7560 H   0  0  0  0  0  0  0  0  0  0  0  0
   -4.7377    7.3465   -3.8313 H   0  0  0  0  0  0  0  0  0  0  0  0
   -3.0649    8.0011   -3.8313 H   0  0  0  0  0  0  0  0  0  0  0  0
   -3.1030    6.4690   -1.5320 H   0  0  0  0  0  0  0  0  0  0  0  0
   -5.2254    6.0090   -0.9827 H   0  0  0  0  0  0  0  0  0  0  0  0
   -5.3088    7.7807   -0.5387 H   0  0  0  0  0  0  0  0  0  0  0  0
   -6.0355    8.1598   -2.9695 H   0  0  0  0  0  0  0  0  0  0  0  0
   -6.3510    6.3749   -2.9994 H   0  0  0  0  0  0  0  0  0  0  0  0
   -7.3177    8.5034   -1.4028 H   0  0  0  0  0  0  0  0  0  0  0  0
   -8.9912    5.0026   -3.1866 H   0  0  0  0  0  0  0  0  0  0  0  0
   -9.8301    6.3305   -4.0583 H   0  0  0  0  0  0  0  0  0  0  0  0
   -8.0356    6.2491   -4.0583 H   0  0  0  0  0  0  0  0  0  0  0  0
  -10.2532    7.5786   -0.7161 H   0  0  0  0  0  0  0  0  0  0  0  0
  -10.2325    8.5726   -2.2122 H   0  0  0  0  0  0  0  0  0  0  0  0
  -11.0363    6.9662   -2.2122 H   0  0  0  0  0  0  0  0  0  0  0  0
   -3.4825    9.2423   -2.3100 H   0  0  0  0  0  0  0  0  0  0  0  0
   -4.6868    9.7445   -0.2766 H   0  0  0  0  0  0  0  0  0  0  0  0
   -4.1955    8.2155    0.4833 H   0  0  0  0  0  0  0  0  0  0  0  0
   -3.1012   10.7890    1.0711 H   0  0  0  0  0  0  0  0  0  0  0  0
   -2.3528    9.2665    1.5452 H   0  0  0  0  0  0  0  0  0  0  0  0
   -2.3886   12.1259   -0.4665 H   0  0  0  0  0  0  0  0  0  0  0  0
   -1.2671   11.7018   -1.8041 H   0  0  0  0  0  0  0  0  0  0  0  0
   -2.9467   11.0647   -1.8041 H   0  0  0  0  0  0  0  0  0  0  0  0
   -0.0420    9.3842    0.8266 H   0  0  0  0  0  0  0  0  0  0  0  0
   -0.9132   11.6750    1.6193 H   0  0  0  0  0  0  0  0  0  0  0  0
    0.8661   11.2268    1.7710 H   0  0  0  0  0  0  0  0  0  0  0  0
    0.3476   13.6823    0.9723 H   0  0  0  0  0  0  0  0  0  0  0  0
    0.3848   11.5360   -2.4478 H   0  0  0  0  0  0  0  0  0  0  0  0
    3.3404   11.6531   -1.5840 H   0  0  0  0  0  0  0  0  0  0  0  0
    2.6631   10.8184   -3.0522 H   0  0  0  0  0  0  0  0  0  0  0  0
    3.7317   12.9785   -3.6116 H   0  0  0  0  0  0  0  0  0  0  0  0
    1.9622   12.9490   -3.9784 H   0  0  0  0  0  0  0  0  0  0  0  0
    2.5047   15.0596   -2.9735 H   0  0  0  0  0  0  0  0  0  0  0  0
    3.2340   13.9530   -0.5030 H   0  0  0  0  0  0  0  0  0  0  0  0
   -0.9412   14.5824   -2.0379 H   0  0  0  0  0  0  0  0  0  0  0  0
    0.2297   15.2733   -3.2119 H   0  0  0  0  0  0  0  0  0  0  0  0
   -0.1069   13.5089   -3.2119 H   0  0  0  0  0  0  0  0  0  0  0  0
    1.1305   15.0637    0.4320 H   0  0  0  0  0  0  0  0  0  0  0  0
    2.0106   16.0344   -0.7967 H   0  0  0  0  0  0  0  0  0  0  0  0
    0.2146   16.0007   -0.7967 H   0  0  0  0  0  0  0  0  0  0  0  0
    2.1224    9.8290    0.9003 H   0  0  0  0  0  0  0  0  0  0  0  0
    2.5619    8.7547   -0.4707 H   0  0  0  0  0  0  0  0  0  0  0  0
    3.0886   10.4721   -0.4707 H   0  0  0  0  0  0  0  0  0  0  0  0
    1.2606    9.2975   -2.8912 H   0  0  0  0  0  0  0  0  0  0  0  0
    0.9876    8.1150   -1.4912 H   0  0  0  0  0  0  0  0  0  0  0  0
   -1.1055    9.6907   -3.0158 H   0  0  0  0  0  0  0  0  0  0  0  0
   -0.8485    7.9019   -2.9728 H   0  0  0  0  0  0  0  0  0  0  0  0
   -1.3200    7.6728    0.7143 H   0  0  0  0  0  0  0  0  0  0  0  0
   -1.9039    6.6182   -0.6174 H   0  0  0  0  0  0  0  0  0  0  0  0
   -0.2075    7.2087   -0.6174 H   0  0  0  0  0  0  0  0  0  0  0  0
  1  2  1  0
  2  3  1  0
  3  4  1  0
  4  5  1  0
  5  6  1  0
  6  7  1  0
  7  8  1  0
  7  9  1  0
  2 10  1  0
 10 11  1  0
 11 12  1  0
 12 13  1  0
 13 14  1  6
 13 15  1  0
 15 16  1  0
 16 17  1  0
 17 18  2  0
 18 19  1  0
 19 20  1  0
 20 21  1  0
 21 22  1  0
 22 23  1  0
 22 24  1  0
 24 25  1  0
 24 26  1  0
 19 27  1  0
 27 28  1  1
 27 29  1  0
 29 30  1  0
 30 31  1  0
 31 32  1  1
  7  5  1  0
 31 10  1  0
 31 13  1  0
 27 15  1  0
 24 18  1  0
  1 33  1  0
  1 34  1  0
  1 35  1  0
  2 36  1  1
  3 37  1  0
  3 38  1  0
  4 39  1  0
  4 40  1  0
  5 41  1  1
  8 42  1  0
  8 43  1  0
  8 44  1  0
  9 45  1  0
  9 46  1  0
  9 47  1  0
 10 48  1  6
 11 49  1  0
 11 50  1  0
 12 51  1  0
 12 52  1  0
 14 53  1  0
 14 54  1  0
 14 55  1  0
 15 56  1  1
 16 57  1  0
 16 58  1  0
 17 59  1  0
 19 60  1  6
 20 61  1  0
 20 62  1  0
 21 63  1  0
 21 64  1  0
 22 65  1  6
 23 66  1  0
 25 67  1  0
 25 68  1  0
 25 69  1  0
 26 70  1  0
 26 71  1  0
 26 72  1  0
 28 73  1  0
 28 74  1  0
 28 75  1  0
 29 76  1  0
 29 77  1  0
 30 78  1  0
 30 79  1  0
 32 80  1  0
 32 81  1  0
 32 82  1  0
M  END
>  <meeko>  (10) 
{"is_sidechain": [false], "intermolecular_energy": 2.731, "internal_energy": -0.839}

$$$$
EPH_relaxed_0001_pdb2pqr_Repair_271_r2_0001_out
     RDKit          3D

 82 86  0  0  0  0  0  0  0  0999 V2000
   -0.2820   15.0830   -7.6210 C   0  0  0  0  0  0  0  0  0  0  0  0
    1.0920   15.0580   -6.9460 C   0  0  2  0  0  0  0  0  0  0  0  0
    2.2430   15.1440   -7.9680 C   0  0  0  0  0  0  0  0  0  0  0  0
    2.2820   16.4660   -8.7410 C   0  0  0  0  0  0  0  0  0  0  0  0
    1.8860   16.2810  -10.1750 C   0  0  2  0  0  0  0  0  0  0  0  0
    1.2110   15.0480  -10.4560 O   0  0  0  0  0  0  0  0  0  0  0  0
    2.4930   15.2260  -11.0810 C   0  0  0  0  0  0  0  0  0  0  0  0
    3.5470   14.2850  -10.5870 C   0  0  0  0  0  0  0  0  0  0  0  0
    2.4180   15.4270  -12.5630 C   0  0  0  0  0  0  0  0  0  0  0  0
    1.2350   13.7940   -6.1060 C   0  0  1  0  0  0  0  0  0  0  0  0
    2.6680   13.2000   -6.1610 C   0  0  0  0  0  0  0  0  0  0  0  0
    2.9560   12.5970   -4.7620 C   0  0  0  0  0  0  0  0  0  0  0  0
    1.5790   12.5660   -4.0590 C   0  0  1  0  0  0  0  0  0  0  0  0
    0.8780   11.2830   -4.6060 C   0  0  0  0  0  0  0  0  0  0  0  0
    1.6000   12.5910   -2.4960 C   0  0  2  0  0  0  0  0  0  0  0  0
    2.2880   11.3840   -1.8340 C   0  0  0  0  0  0  0  0  0  0  0  0
    1.3930   10.2310   -1.5240 C   0  0  0  0  0  0  0  0  0  0  0  0
    0.0470   10.2680   -1.5030 C   0  0  0  0  0  0  0  0  0  0  0  0
   -0.7070   11.5870   -1.7150 C   0  0  1  0  0  0  0  0  0  0  0  0
   -1.8180   11.7260   -0.6420 C   0  0  0  0  0  0  0  0  0  0  0  0
   -2.7510   10.5190   -0.6050 C   0  0  0  0  0  0  0  0  0  0  0  0
   -1.9720    9.2350   -0.3340 C   0  0  2  0  0  0  0  0  0  0  0  0
   -1.4410    9.2890    0.9940 O   0  0  0  0  0  0  0  0  0  0  0  0
   -0.8180    8.9930   -1.3480 C   0  0  0  0  0  0  0  0  0  0  0  0
   -1.4100    8.6360   -2.7340 C   0  0  0  0  0  0  0  0  0  0  0  0
   -0.0250    7.7440   -0.8790 C   0  0  0  0  0  0  0  0  0  0  0  0
    0.1940   12.8900   -1.8330 C   0  0  1  0  0  0  0  0  0  0  0  0
    0.4850   13.4660   -0.4140 C   0  0  0  0  0  0  0  0  0  0  0  0
   -0.6080   14.0020   -2.6080 C   0  0  0  0  0  0  0  0  0  0  0  0
   -0.4930   13.9980   -4.1440 C   0  0  0  0  0  0  0  0  0  0  0  0
    0.9720   13.9180   -4.5840 C   0  0  2  0  0  0  0  0  0  0  0  0
    1.6980   15.2070   -4.0670 C   0  0  0  0  0  0  0  0  0  0  0  0
   -1.0682   15.0973   -6.8518 H   0  0  0  0  0  0  0  0  0  0  0  0
   -0.3661   15.9828   -8.2481 H   0  0  0  0  0  0  0  0  0  0  0  0
   -0.3988   14.1868   -8.2481 H   0  0  0  0  0  0  0  0  0  0  0  0
    1.1588   15.9448   -6.2986 H   0  0  0  0  0  0  0  0  0  0  0  0
    3.1951   15.0283   -7.4294 H   0  0  0  0  0  0  0  0  0  0  0  0
    2.0786   14.3448   -8.7057 H   0  0  0  0  0  0  0  0  0  0  0  0
    1.5877   17.1762   -8.2681 H   0  0  0  0  0  0  0  0  0  0  0  0
    3.3134   16.8477   -8.7163 H   0  0  0  0  0  0  0  0  0  0  0  0
    1.7398   17.3642  -10.2986 H   0  0  0  0  0  0  0  0  0  0  0  0
    3.5499   14.2824   -9.4870 H   0  0  0  0  0  0  0  0  0  0  0  0
    3.3347   13.2705  -10.9555 H   0  0  0  0  0  0  0  0  0  0  0  0
    4.5310   14.6105  -10.9555 H   0  0  0  0  0  0  0  0  0  0  0  0
    2.0408   16.4378  -12.7773 H   0  0  0  0  0  0  0  0  0  0  0  0
    3.4205   15.3094  -13.0002 H   0  0  0  0  0  0  0  0  0  0  0  0
    1.7376   14.6814  -13.0002 H   0  0  0  0  0  0  0  0  0  0  0  0
    0.4566   13.1727   -6.5730 H   0  0  0  0  0  0  0  0  0  0  0  0
    2.7237   12.4158   -6.9303 H   0  0  0  0  0  0  0  0  0  0  0  0
    3.4067   13.9736   -6.4174 H   0  0  0  0  0  0  0  0  0  0  0  0
    3.3677   11.5811   -4.8544 H   0  0  0  0  0  0  0  0  0  0  0  0
    3.6979   13.1832   -4.2000 H   0  0  0  0  0  0  0  0  0  0  0  0
    0.5391   10.6627   -3.7632 H   0  0  0  0  0  0  0  0  0  0  0  0
    0.0123   11.5717   -5.2202 H   0  0  0  0  0  0  0  0  0  0  0  0
    1.5886   10.7105   -5.2202 H   0  0  0  0  0  0  0  0  0  0  0  0
    2.2438   13.4569   -2.2824 H   0  0  0  0  0  0  0  0  0  0  0  0
    3.0775   11.0286   -2.5125 H   0  0  0  0  0  0  0  0  0  0  0  0
    2.6676   11.7433   -0.8661 H   0  0  0  0  0  0  0  0  0  0  0  0
    1.8736    9.2689   -1.2930 H   0  0  0  0  0  0  0  0  0  0  0  0
   -1.1600   11.5208   -2.7152 H   0  0  0  0  0  0  0  0  0  0  0  0
   -1.3437   11.8352    0.3444 H   0  0  0  0  0  0  0  0  0  0  0  0
   -2.4230   12.6075   -0.9005 H   0  0  0  0  0  0  0  0  0  0  0  0
   -3.4951   10.6636    0.1921 H   0  0  0  0  0  0  0  0  0  0  0  0
   -3.2470   10.4288   -1.5827 H   0  0  0  0  0  0  0  0  0  0  0  0
   -2.6722    8.3943   -0.4482 H   0  0  0  0  0  0  0  0  0  0  0  0
   -1.2890    8.3750    1.2870 H   0  0  0  0  0  0  0  0  0  0  0  0
   -2.3449    8.0722   -2.5992 H   0  0  0  0  0  0  0  0  0  0  0  0
   -1.6166    9.5602   -3.2936 H   0  0  0  0  0  0  0  0  0  0  0  0
   -0.6890    8.0220   -3.2936 H   0  0  0  0  0  0  0  0  0  0  0  0
   -0.0056    7.7135    0.2204 H   0  0  0  0  0  0  0  0  0  0  0  0
   -0.5119    6.8352   -1.2625 H   0  0  0  0  0  0  0  0  0  0  0  0
    1.0046    7.7980   -1.2625 H   0  0  0  0  0  0  0  0  0  0  0  0
    0.1277   12.7589    0.3491 H   0  0  0  0  0  0  0  0  0  0  0  0
    1.5679   13.6178   -0.2949 H   0  0  0  0  0  0  0  0  0  0  0  0
   -0.0354   14.4278   -0.2949 H   0  0  0  0  0  0  0  0  0  0  0  0
   -1.6716   13.8835   -2.3536 H   0  0  0  0  0  0  0  0  0  0  0  0
   -0.1609   14.9549   -2.2884 H   0  0  0  0  0  0  0  0  0  0  0  0
   -1.0366   13.1290   -4.5433 H   0  0  0  0  0  0  0  0  0  0  0  0
   -0.9247   14.9331   -4.5304 H   0  0  0  0  0  0  0  0  0  0  0  0
    1.7000   15.2105   -2.9670 H   0  0  0  0  0  0  0  0  0  0  0  0
    2.7344   15.2169   -4.4355 H   0  0  0  0  0  0  0  0  0  0  0  0
    1.1693   16.0984   -4.4355 H   0  0  0  0  0  0  0  0  0  0  0  0
  1  2  1  0
  2  3  1  0
  3  4  1  0
  4  5  1  0
  5  6  1  0
  6  7  1  0
  7  8  1  0
  7  9  1  0
  2 10  1  0
 10 11  1  0
 11 12  1  0
 12 13  1  0
 13 14  1  1
 13 15  1  0
 15 16  1  0
 16 17  1  0
 17 18  2  0
 18 19  1  0
 19 20  1  0
 20 21  1  0
 21 22  1  0
 22 23  1  0
 22 24  1  0
 24 25  1  0
 24 26  1  0
 19 27  1  0
 27 28  1  1
 27 29  1  0
 29 30  1  0
 30 31  1  0
 31 32  1  1
  7  5  1  0
 31 10  1  0
 31 13  1  0
 27 15  1  0
 24 18  1  0
  1 33  1  0
  1 34  1  0
  1 35  1  0
  2 36  1  1
  3 37  1  0
  3 38  1  0
  4 39  1  0
  4 40  1  0
  5 41  1  6
  8 42  1  0
  8 43  1  0
  8 44  1  0
  9 45  1  0
  9 46  1  0
  9 47  1  0
 10 48  1  6
 11 49  1  0
 11 50  1  0
 12 51  1  0
 12 52  1  0
 14 53  1  0
 14 54  1  0
 14 55  1  0
 15 56  1  6
 16 57  1  0
 16 58  1  0
 17 59  1  0
 19 60  1  6
 20 61  1  0
 20 62  1  0
 21 63  1  0
 21 64  1  0
 22 65  1  1
 23 66  1  0
 25 67  1  0
 25 68  1  0
 25 69  1  0
 26 70  1  0
 26 71  1  0
 26 72  1  0
 28 73  1  0
 28 74  1  0
 28 75  1  0
 29 76  1  0
 29 77  1  0
 30 78  1  0
 30 79  1  0
 32 80  1  0
 32 81  1  0
 32 82  1  0
M  END
>  <meeko>  (11) 
{"is_sidechain": [false], "intermolecular_energy": 2.731, "internal_energy": -0.839}

$$$$
EPH_relaxed_0001_pdb2pqr_Repair_271_r2_0001_out
     RDKit          3D

 82 86  0  0  0  0  0  0  0  0999 V2000
   -0.0440    9.2770   -2.0060 C   0  0  0  0  0  0  0  0  0  0  0  0
    1.0160   10.2460   -2.5360 C   0  0  2  0  0  0  0  0  0  0  0  0
    2.4060    9.5860   -2.6390 C   0  0  0  0  0  0  0  0  0  0  0  0
    3.2980   10.1970   -3.7240 C   0  0  0  0  0  0  0  0  0  0  0  0
    4.6910   10.4390   -3.2250 C   0  0  2  0  0  0  0  0  0  0  0  0
    5.1810   11.7690   -3.4380 O   0  0  0  0  0  0  0  0  0  0  0  0
    5.8690   10.7200   -4.1380 C   0  0  0  0  0  0  0  0  0  0  0  0
    5.7090   10.7730   -5.6250 C   0  0  0  0  0  0  0  0  0  0  0  0
    7.2510   10.4580   -3.6240 C   0  0  0  0  0  0  0  0  0  0  0  0
    1.0890   11.4770   -1.6400 C   0  0  1  0  0  0  0  0  0  0  0  0
    2.1940   11.3630   -0.5560 C   0  0  0  0  0  0  0  0  0  0  0  0
    2.7710   12.7870   -0.3530 C   0  0  0  0  0  0  0  0  0  0  0  0
    1.7680   13.7200   -1.0720 C   0  0  1  0  0  0  0  0  0  0  0  0
    0.5990   13.9120   -0.0550 C   0  0  0  0  0  0  0  0  0  0  0  0
    2.3330   15.0910   -1.5670 C   0  0  2  0  0  0  0  0  0  0  0  0
    2.8490   16.0240   -0.4580 C   0  0  0  0  0  0  0  0  0  0  0  0
    1.8370   16.9640    0.1080 C   0  0  0  0  0  0  0  0  0  0  0  0
    0.6460   17.2580   -0.4470 C   0  0  0  0  0  0  0  0  0  0  0  0
    0.2560   16.6930   -1.8190 C   0  0  1  0  0  0  0  0  0  0  0  0
   -0.3330   17.8270   -2.6980 C   0  0  0  0  0  0  0  0  0  0  0  0
   -1.4880   18.5550   -2.0170 C   0  0  0  0  0  0  0  0  0  0  0  0
   -1.0450   19.1530   -0.6840 C   0  0  2  0  0  0  0  0  0  0  0  0
   -0.0970   20.1930   -0.9370 O   0  0  0  0  0  0  0  0  0  0  0  0
   -0.4260   18.1040    0.2820 C   0  0  0  0  0  0  0  0  0  0  0  0
   -1.5330   17.1500    0.7940 C   0  0  0  0  0  0  0  0  0  0  0  0
    0.1070   18.8600    1.5290 C   0  0  0  0  0  0  0  0  0  0  0  0
    1.3810   15.8600   -2.5720 C   0  0  1  0  0  0  0  0  0  0  0  0
    2.2890   16.8190   -3.4000 C   0  0  0  0  0  0  0  0  0  0  0  0
    0.6980   14.8910   -3.6080 C   0  0  0  0  0  0  0  0  0  0  0  0
    0.2700   13.5060   -3.0860 C   0  0  0  0  0  0  0  0  0  0  0  0
    1.4120   12.8320   -2.3190 C   0  0  2  0  0  0  0  0  0  0  0  0
    2.5940   12.6060   -3.3220 C   0  0  0  0  0  0  0  0  0  0  0  0
   -0.0329    9.2872   -0.9061 H   0  0  0  0  0  0  0  0  0  0  0  0
   -1.0364    9.5867   -2.3655 H   0  0  0  0  0  0  0  0  0  0  0  0
    0.1756    8.2609   -2.3655 H   0  0  0  0  0  0  0  0  0  0  0  0
    0.7153   10.5427   -3.5516 H   0  0  0  0  0  0  0  0  0  0  0  0
    2.9146    9.6940   -1.6696 H   0  0  0  0  0  0  0  0  0  0  0  0
    2.2428    8.5330   -2.9119 H   0  0  0  0  0  0  0  0  0  0  0  0
    3.3407    9.5078   -4.5803 H   0  0  0  0  0  0  0  0  0  0  0  0
    2.8661   11.1649   -4.0183 H   0  0  0  0  0  0  0  0  0  0  0  0
    4.5477    9.7192   -2.4057 H   0  0  0  0  0  0  0  0  0  0  0  0
    4.6916   11.1100   -5.8725 H   0  0  0  0  0  0  0  0  0  0  0  0
    6.4413   11.4766   -6.0477 H   0  0  0  0  0  0  0  0  0  0  0  0
    5.8765    9.7714   -6.0477 H   0  0  0  0  0  0  0  0  0  0  0  0
    7.2396   10.4602   -2.5241 H   0  0  0  0  0  0  0  0  0  0  0  0
    7.5969    9.4783   -3.9852 H   0  0  0  0  0  0  0  0  0  0  0  0
    7.9315   11.2431   -3.9852 H   0  0  0  0  0  0  0  0  0  0  0  0
    0.0592   11.4848   -1.2534 H   0  0  0  0  0  0  0  0  0  0  0  0
    1.7638   10.9910    0.3856 H   0  0  0  0  0  0  0  0  0  0  0  0
    2.9803   10.6592   -0.8665 H   0  0  0  0  0  0  0  0  0  0  0  0
    2.8313   13.0327    0.7175 H   0  0  0  0  0  0  0  0  0  0  0  0
    3.7915   12.8846   -0.7518 H   0  0  0  0  0  0  0  0  0  0  0  0
    0.9911   13.8476    0.9707 H   0  0  0  0  0  0  0  0  0  0  0  0
    0.1367   14.8981   -0.2096 H   0  0  0  0  0  0  0  0  0  0  0  0
   -0.1544   13.1256   -0.2096 H   0  0  0  0  0  0  0  0  0  0  0  0
    3.2222   14.7860   -2.1382 H   0  0  0  0  0  0  0  0  0  0  0  0
    3.2281   15.3981    0.3634 H   0  0  0  0  0  0  0  0  0  0  0  0
    3.6206   16.6536   -0.9252 H   0  0  0  0  0  0  0  0  0  0  0  0
    2.0852   17.4583    1.0588 H   0  0  0  0  0  0  0  0  0  0  0  0
   -0.5142   15.9318   -1.6256 H   0  0  0  0  0  0  0  0  0  0  0  0
    0.4631   18.5543   -2.9153 H   0  0  0  0  0  0  0  0  0  0  0  0
   -0.7238   17.3677   -3.6179 H   0  0  0  0  0  0  0  0  0  0  0  0
   -1.8420   19.3629   -2.6742 H   0  0  0  0  0  0  0  0  0  0  0  0
   -2.2955   17.8326   -1.8270 H   0  0  0  0  0  0  0  0  0  0  0  0
   -1.9424   19.5477   -0.1851 H   0  0  0  0  0  0  0  0  0  0  0  0
   -0.5060   21.0350   -0.6760 H   0  0  0  0  0  0  0  0  0  0  0  0
   -1.5354   17.1480    1.8940 H   0  0  0  0  0  0  0  0  0  0  0  0
   -2.5113   17.4925    0.4259 H   0  0  0  0  0  0  0  0  0  0  0  0
   -1.3387   16.1318    0.4259 H   0  0  0  0  0  0  0  0  0  0  0  0
   -0.2471   18.3578    2.4414 H   0  0  0  0  0  0  0  0  0  0  0  0
    1.2069   18.8614    1.5146 H   0  0  0  0  0  0  0  0  0  0  0  0
   -0.2612   19.8964    1.5146 H   0  0  0  0  0  0  0  0  0  0  0  0
    2.8813   17.4446   -2.7161 H   0  0  0  0  0  0  0  0  0  0  0  0
    2.9654   16.2271   -4.0341 H   0  0  0  0  0  0  0  0  0  0  0  0
    1.6610   17.4621   -4.0341 H   0  0  0  0  0  0  0  0  0  0  0  0
   -0.2015   15.3946   -3.9917 H   0  0  0  0  0  0  0  0  0  0  0  0
    1.4704   14.6875   -4.3643 H   0  0  0  0  0  0  0  0  0  0  0  0
   -0.5931   13.6255   -2.4146 H   0  0  0  0  0  0  0  0  0  0  0  0
    0.0042   12.8739   -3.9461 H   0  0  0  0  0  0  0  0  0  0  0  0
    3.5228   12.4284   -2.7601 H   0  0  0  0  0  0  0  0  0  0  0  0
    2.3759   11.7333   -3.9551 H   0  0  0  0  0  0  0  0  0  0  0  0
    2.7132   13.4976   -3.9551 H   0  0  0  0  0  0  0  0  0  0  0  0
  1  2  1  0
  2  3  1  0
  3  4  1  0
  4  5  1  0
  5  6  1  0
  6  7  1  0
  7  8  1  0
  7  9  1  0
  2 10  1  0
 10 11  1  0
 11 12  1  0
 12 13  1  0
 13 14  1  1
 13 15  1  0
 15 16  1  0
 16 17  1  0
 17 18  2  0
 18 19  1  0
 19 20  1  0
 20 21  1  0
 21 22  1  0
 22 23  1  0
 22 24  1  0
 24 25  1  0
 24 26  1  0
 19 27  1  0
 27 28  1  6
 27 29  1  0
 29 30  1  0
 30 31  1  0
 31 32  1  6
  7  5  1  0
 31 10  1  0
 31 13  1  0
 27 15  1  0
 24 18  1  0
  1 33  1  0
  1 34  1  0
  1 35  1  0
  2 36  1  6
  3 37  1  0
  3 38  1  0
  4 39  1  0
  4 40  1  0
  5 41  1  1
  8 42  1  0
  8 43  1  0
  8 44  1  0
  9 45  1  0
  9 46  1  0
  9 47  1  0
 10 48  1  1
 11 49  1  0
 11 50  1  0
 12 51  1  0
 12 52  1  0
 14 53  1  0
 14 54  1  0
 14 55  1  0
 15 56  1  6
 16 57  1  0
 16 58  1  0
 17 59  1  0
 19 60  1  1
 20 61  1  0
 20 62  1  0
 21 63  1  0
 21 64  1  0
 22 65  1  1
 23 66  1  0
 25 67  1  0
 25 68  1  0
 25 69  1  0
 26 70  1  0
 26 71  1  0
 26 72  1  0
 28 73  1  0
 28 74  1  0
 28 75  1  0
 29 76  1  0
 29 77  1  0
 30 78  1  0
 30 79  1  0
 32 80  1  0
 32 81  1  0
 32 82  1  0
M  END
>  <meeko>  (12) 
{"is_sidechain": [false], "intermolecular_energy": 2.731, "internal_energy": -0.839}

$$$$
EPH_relaxed_0001_pdb2pqr_Repair_271_r2_0001_out
     RDKit          3D

 82 86  0  0  0  0  0  0  0  0999 V2000
   -2.1730    7.8120   -2.0020 C   0  0  0  0  0  0  0  0  0  0  0  0
   -2.2850    8.5060   -0.6420 C   0  0  2  0  0  0  0  0  0  0  0  0
   -3.7390    8.5480   -0.1290 C   0  0  0  0  0  0  0  0  0  0  0  0
   -4.7830    8.2790   -1.2170 C   0  0  0  0  0  0  0  0  0  0  0  0
   -5.8130    7.2890   -0.7640 C   0  0  2  0  0  0  0  0  0  0  0  0
   -6.1080    6.2560   -1.7120 O   0  0  0  0  0  0  0  0  0  0  0  0
   -7.1830    7.1560   -1.4010 C   0  0  0  0  0  0  0  0  0  0  0  0
   -7.5990    8.0260   -2.5460 C   0  0  0  0  0  0  0  0  0  0  0  0
   -8.2850    6.5280   -0.6060 C   0  0  0  0  0  0  0  0  0  0  0  0
   -1.7240    9.9200   -0.7330 C   0  0  1  0  0  0  0  0  0  0  0  0
   -1.2370   10.4590    0.6390 C   0  0  0  0  0  0  0  0  0  0  0  0
    0.0010   11.3480    0.3570 C   0  0  0  0  0  0  0  0  0  0  0  0
   -0.0120   11.5600   -1.1750 C   0  0  1  0  0  0  0  0  0  0  0  0
   -1.0460   12.7060   -1.4110 C   0  0  0  0  0  0  0  0  0  0  0  0
    1.3660   11.8800   -1.8400 C   0  0  2  0  0  0  0  0  0  0  0  0
    2.0280   13.1880   -1.3740 C   0  0  0  0  0  0  0  0  0  0  0  0
    1.6790   14.4000   -2.1720 C   0  0  0  0  0  0  0  0  0  0  0  0
    1.0980   14.3960   -3.3860 C   0  0  0  0  0  0  0  0  0  0  0  0
    0.8190   13.0780   -4.1220 C   0  0  1  0  0  0  0  0  0  0  0  0
    1.2810   13.2010   -5.5970 C   0  0  0  0  0  0  0  0  0  0  0  0
    0.6670   14.4060   -6.3040 C   0  0  0  0  0  0  0  0  0  0  0  0
    1.0140   15.7010   -5.5760 C   0  0  2  0  0  0  0  0  0  0  0  0
    2.4220   15.9300   -5.6880 O   0  0  0  0  0  0  0  0  0  0  0  0
    0.6040   15.6910   -4.0770 C   0  0  0  0  0  0  0  0  0  0  0  0
   -0.9390   15.7470   -3.9590 C   0  0  0  0  0  0  0  0  0  0  0  0
    1.1370   16.9960   -3.4270 C   0  0  0  0  0  0  0  0  0  0  0  0
    1.3660   11.7630   -3.4180 C   0  0  1  0  0  0  0  0  0  0  0  0
    2.8440   11.5070   -3.8450 C   0  0  0  0  0  0  0  0  0  0  0  0
    0.5370   10.5250   -3.9270 C   0  0  0  0  0  0  0  0  0  0  0  0
   -0.7530   10.1880   -3.1540 C   0  0  0  0  0  0  0  0  0  0  0  0
   -0.4910   10.1390   -1.6450 C   0  0  2  0  0  0  0  0  0  0  0  0
    0.5280    8.9810   -1.3740 C   0  0  0  0  0  0  0  0  0  0  0  0
   -1.9994    6.7363   -1.8515 H   0  0  0  0  0  0  0  0  0  0  0  0
   -3.1062    7.9575   -2.5658 H   0  0  0  0  0  0  0  0  0  0  0  0
   -1.3329    8.2436   -2.5658 H   0  0  0  0  0  0  0  0  0  0  0  0
   -1.6977    7.9183    0.0789 H   0  0  0  0  0  0  0  0  0  0  0  0
   -3.8522    7.7868    0.6570 H   0  0  0  0  0  0  0  0  0  0  0  0
   -3.9190    9.5667    0.2449 H   0  0  0  0  0  0  0  0  0  0  0  0
   -5.2847    9.2243   -1.4712 H   0  0  0  0  0  0  0  0  0  0  0  0
   -4.2657    7.8595   -2.0925 H   0  0  0  0  0  0  0  0  0  0  0  0
   -5.4939    7.4010    0.2827 H   0  0  0  0  0  0  0  0  0  0  0  0
   -8.0431    8.9547   -2.1584 H   0  0  0  0  0  0  0  0  0  0  0  0
   -6.7195    8.2687   -3.1605 H   0  0  0  0  0  0  0  0  0  0  0  0
   -8.3401    7.4938   -3.1605 H   0  0  0  0  0  0  0  0  0  0  0  0
   -8.0764    6.6469    0.4675 H   0  0  0  0  0  0  0  0  0  0  0  0
   -9.2389    7.0182   -0.8506 H   0  0  0  0  0  0  0  0  0  0  0  0
   -8.3495    5.4575   -0.8506 H   0  0  0  0  0  0  0  0  0  0  0  0
   -2.5991   10.4385   -1.1517 H   0  0  0  0  0  0  0  0  0  0  0  0
   -2.0301   11.0542    1.1152 H   0  0  0  0  0  0  0  0  0  0  0  0
   -0.9831    9.6332    1.3199 H   0  0  0  0  0  0  0  0  0  0  0  0
   -0.0840   12.3104    0.8830 H   0  0  0  0  0  0  0  0  0  0  0  0
    0.9356   10.8847    0.7062 H   0  0  0  0  0  0  0  0  0  0  0  0
   -1.3938   13.0915   -0.4412 H   0  0  0  0  0  0  0  0  0  0  0  0
   -0.5695   13.5186   -1.9790 H   0  0  0  0  0  0  0  0  0  0  0  0
   -1.9031   12.3153   -1.9790 H   0  0  0  0  0  0  0  0  0  0  0  0
    2.0053   11.0700   -1.4590 H   0  0  0  0  0  0  0  0  0  0  0  0
    1.7261   13.3690   -0.3318 H   0  0  0  0  0  0  0  0  0  0  0  0
    3.1109   13.0423   -1.5007 H   0  0  0  0  0  0  0  0  0  0  0  0
    1.9167   15.3792   -1.7307 H   0  0  0  0  0  0  0  0  0  0  0  0
   -0.2706   12.9323   -4.0840 H   0  0  0  0  0  0  0  0  0  0  0  0
    2.3763   13.3012   -5.6163 H   0  0  0  0  0  0  0  0  0  0  0  0
    0.9478   12.2970   -6.1277 H   0  0  0  0  0  0  0  0  0  0  0  0
    1.0547   14.4561   -7.3322 H   0  0  0  0  0  0  0  0  0  0  0  0
   -0.4268   14.2893   -6.3104 H   0  0  0  0  0  0  0  0  0  0  0  0
    0.4406   16.5101   -6.0521 H   0  0  0  0  0  0  0  0  0  0  0  0
    2.5840   16.3540   -6.5480 H   0  0  0  0  0  0  0  0  0  0  0  0
   -1.2254   15.7574   -2.8970 H   0  0  0  0  0  0  0  0  0  0  0  0
   -1.3113   16.6592   -4.4481 H   0  0  0  0  0  0  0  0  0  0  0  0
   -1.3764   14.8641   -4.4481 H   0  0  0  0  0  0  0  0  0  0  0  0
    1.0987   16.9022   -2.3317 H   0  0  0  0  0  0  0  0  0  0  0  0
    2.1765   17.1657   -3.7444 H   0  0  0  0  0  0  0  0  0  0  0  0
    0.5135   17.8449   -3.7444 H   0  0  0  0  0  0  0  0  0  0  0  0
    3.4713   11.3984   -2.9479 H   0  0  0  0  0  0  0  0  0  0  0  0
    2.8983   10.5861   -4.4441 H   0  0  0  0  0  0  0  0  0  0  0  0
    3.2049   12.3560   -4.4441 H   0  0  0  0  0  0  0  0  0  0  0  0
    0.2572   10.7190   -4.9730 H   0  0  0  0  0  0  0  0  0  0  0  0
    1.1962    9.6567   -3.7799 H   0  0  0  0  0  0  0  0  0  0  0  0
   -1.5096   10.9587   -3.3631 H   0  0  0  0  0  0  0  0  0  0  0  0
   -1.1096    9.1999   -3.4804 H   0  0  0  0  0  0  0  0  0  0  0  0
    0.6480    8.8446   -0.2891 H   0  0  0  0  0  0  0  0  0  0  0  0
    0.1516    8.0492   -1.8213 H   0  0  0  0  0  0  0  0  0  0  0  0
    1.5001    9.2358   -1.8213 H   0  0  0  0  0  0  0  0  0  0  0  0
  1  2  1  0
  2  3  1  0
  3  4  1  0
  4  5  1  0
  5  6  1  0
  6  7  1  0
  7  8  1  0
  7  9  1  0
  2 10  1  0
 10 11  1  0
 11 12  1  0
 12 13  1  0
 13 14  1  1
 13 15  1  0
 15 16  1  0
 16 17  1  0
 17 18  2  0
 18 19  1  0
 19 20  1  0
 20 21  1  0
 21 22  1  0
 22 23  1  0
 22 24  1  0
 24 25  1  0
 24 26  1  0
 19 27  1  0
 27 28  1  6
 27 29  1  0
 29 30  1  0
 30 31  1  0
 31 32  1  6
  7  5  1  0
 31 10  1  0
 31 13  1  0
 27 15  1  0
 24 18  1  0
  1 33  1  0
  1 34  1  0
  1 35  1  0
  2 36  1  1
  3 37  1  0
  3 38  1  0
  4 39  1  0
  4 40  1  0
  5 41  1  1
  8 42  1  0
  8 43  1  0
  8 44  1  0
  9 45  1  0
  9 46  1  0
  9 47  1  0
 10 48  1  6
 11 49  1  0
 11 50  1  0
 12 51  1  0
 12 52  1  0
 14 53  1  0
 14 54  1  0
 14 55  1  0
 15 56  1  1
 16 57  1  0
 16 58  1  0
 17 59  1  0
 19 60  1  6
 20 61  1  0
 20 62  1  0
 21 63  1  0
 21 64  1  0
 22 65  1  6
 23 66  1  0
 25 67  1  0
 25 68  1  0
 25 69  1  0
 26 70  1  0
 26 71  1  0
 26 72  1  0
 28 73  1  0
 28 74  1  0
 28 75  1  0
 29 76  1  0
 29 77  1  0
 30 78  1  0
 30 79  1  0
 32 80  1  0
 32 81  1  0
 32 82  1  0
M  END
>  <meeko>  (13) 
{"is_sidechain": [false], "intermolecular_energy": 2.731, "internal_energy": -0.839}

$$$$
EPH_relaxed_0001_pdb2pqr_Repair_271_r2_0001_out
     RDKit          3D

 82 86  0  0  0  0  0  0  0  0999 V2000
    2.0320   10.8670   -5.1830 C   0  0  0  0  0  0  0  0  0  0  0  0
    1.3910   10.7730   -3.7960 C   0  0  2  0  0  0  0  0  0  0  0  0
    0.2370    9.7500   -3.7570 C   0  0  0  0  0  0  0  0  0  0  0  0
    0.1120    9.0140   -2.4200 C   0  0  0  0  0  0  0  0  0  0  0  0
   -1.3140    8.9220   -1.9700 C   0  0  2  0  0  0  0  0  0  0  0  0
   -1.9720   10.1850   -1.8030 O   0  0  0  0  0  0  0  0  0  0  0  0
   -1.7950    9.4000   -0.6120 C   0  0  0  0  0  0  0  0  0  0  0  0
   -0.8530   10.0050    0.3810 C   0  0  0  0  0  0  0  0  0  0  0  0
   -3.0700    8.8380   -0.0660 C   0  0  0  0  0  0  0  0  0  0  0  0
    0.8860   12.1440   -3.3630 C   0  0  1  0  0  0  0  0  0  0  0  0
   -0.6400   12.1560   -3.0770 C   0  0  0  0  0  0  0  0  0  0  0  0
   -0.8670   13.1440   -1.9040 C   0  0  0  0  0  0  0  0  0  0  0  0
    0.4700   13.9110   -1.7750 C   0  0  1  0  0  0  0  0  0  0  0  0
    0.4100   15.0110   -2.8800 C   0  0  0  0  0  0  0  0  0  0  0  0
    0.7840   14.5200   -0.3700 C   0  0  2  0  0  0  0  0  0  0  0  0
   -0.2100   15.5900    0.1140 C   0  0  0  0  0  0  0  0  0  0  0  0
    0.1340   16.9940   -0.2600 C   0  0  0  0  0  0  0  0  0  0  0  0
    1.3320   17.4140   -0.7060 C   0  0  0  0  0  0  0  0  0  0  0  0
    2.5260   16.4530   -0.7800 C   0  0  1  0  0  0  0  0  0  0  0  0
    3.7800   17.1380   -0.1770 C   0  0  0  0  0  0  0  0  0  0  0  0
    4.0770   18.4880   -0.8230 C   0  0  0  0  0  0  0  0  0  0  0  0
    2.8890   19.4350   -0.6780 C   0  0  2  0  0  0  0  0  0  0  0  0
    2.7220   19.7550    0.7070 O   0  0  0  0  0  0  0  0  0  0  0  0
    1.5650   18.8480   -1.2420 C   0  0  0  0  0  0  0  0  0  0  0  0
    1.6410   18.7830   -2.7870 C   0  0  0  0  0  0  0  0  0  0  0  0
    0.4200   19.8420   -0.9050 C   0  0  0  0  0  0  0  0  0  0  0  0
    2.2820   14.9980   -0.1900 C   0  0  1  0  0  0  0  0  0  0  0  0
    2.5710   14.9890    1.3420 C   0  0  0  0  0  0  0  0  0  0  0  0
    3.3100   14.0000   -0.8420 C   0  0  0  0  0  0  0  0  0  0  0  0
    2.8920   13.3390   -2.1690 C   0  0  0  0  0  0  0  0  0  0  0  0
    1.4840   12.7450   -2.0660 C   0  0  2  0  0  0  0  0  0  0  0  0
    1.5180   11.6190   -0.9770 C   0  0  0  0  0  0  0  0  0  0  0  0
    3.1152   11.0259   -5.0763 H   0  0  0  0  0  0  0  0  0  0  0  0
    1.8510    9.9327   -5.7347 H   0  0  0  0  0  0  0  0  0  0  0  0
    1.5904   11.7100   -5.7347 H   0  0  0  0  0  0  0  0  0  0  0  0
    2.1652   10.4239   -3.0969 H   0  0  0  0  0  0  0  0  0  0  0  0
   -0.7060   10.2826   -3.9497 H   0  0  0  0  0  0  0  0  0  0  0  0
    0.4542    8.9909   -4.5228 H   0  0  0  0  0  0  0  0  0  0  0  0
    0.5164    7.9974   -2.5334 H   0  0  0  0  0  0  0  0  0  0  0  0
    0.6749    9.5797   -1.6629 H   0  0  0  0  0  0  0  0  0  0  0  0
   -1.4471    7.9715   -2.5074 H   0  0  0  0  0  0  0  0  0  0  0  0
   -1.2012    9.7814    1.4002 H   0  0  0  0  0  0  0  0  0  0  0  0
    0.1527    9.5835    0.2364 H   0  0  0  0  0  0  0  0  0  0  0  0
   -0.8180   11.0949    0.2364 H   0  0  0  0  0  0  0  0  0  0  0  0
   -3.0362    8.8529    1.0334 H   0  0  0  0  0  0  0  0  0  0  0  0
   -3.9178    9.4458   -0.4150 H   0  0  0  0  0  0  0  0  0  0  0  0
   -3.1933    7.8021   -0.4150 H   0  0  0  0  0  0  0  0  0  0  0  0
    1.1995   12.7392   -4.2333 H   0  0  0  0  0  0  0  0  0  0  0  0
   -1.1898   12.4931   -3.9681 H   0  0  0  0  0  0  0  0  0  0  0  0
   -1.0020   11.1492   -2.8213 H   0  0  0  0  0  0  0  0  0  0  0  0
   -1.6910   13.8358   -2.1330 H   0  0  0  0  0  0  0  0  0  0  0  0
   -1.1437   12.6287   -0.9724 H   0  0  0  0  0  0  0  0  0  0  0  0
    0.3559   16.0029   -2.4074 H   0  0  0  0  0  0  0  0  0  0  0  0
    1.3127   14.9517   -3.5058 H   0  0  0  0  0  0  0  0  0  0  0  0
   -0.4809   14.8539   -3.5058 H   0  0  0  0  0  0  0  0  0  0  0  0
    0.6427   13.6573    0.2977 H   0  0  0  0  0  0  0  0  0  0  0  0
   -1.1963   15.3561   -0.3132 H   0  0  0  0  0  0  0  0  0  0  0  0
   -0.1867   15.5528    1.2131 H   0  0  0  0  0  0  0  0  0  0  0  0
   -0.6596   17.7494   -0.1626 H   0  0  0  0  0  0  0  0  0  0  0  0
    2.6888   16.2517   -1.8491 H   0  0  0  0  0  0  0  0  0  0  0  0
    3.6147   17.2911    0.8997 H   0  0  0  0  0  0  0  0  0  0  0  0
    4.6421   16.4811   -0.3650 H   0  0  0  0  0  0  0  0  0  0  0  0
    4.9555   18.9352   -0.3349 H   0  0  0  0  0  0  0  0  0  0  0  0
    4.2712   18.3296   -1.8941 H   0  0  0  0  0  0  0  0  0  0  0  0
    3.1099   20.3351   -1.2704 H   0  0  0  0  0  0  0  0  0  0  0  0
    1.7930   20.0090    0.8400 H   0  0  0  0  0  0  0  0  0  0  0  0
    2.4455   18.0949   -3.0859 H   0  0  0  0  0  0  0  0  0  0  0  0
    0.6820   18.4214   -3.1864 H   0  0  0  0  0  0  0  0  0  0  0  0
    1.8495   19.7865   -3.1864 H   0  0  0  0  0  0  0  0  0  0  0  0
    0.3196   19.9291    0.1869 H   0  0  0  0  0  0  0  0  0  0  0  0
    0.6535   20.8286   -1.3316 H   0  0  0  0  0  0  0  0  0  0  0  0
   -0.5240   19.4722   -1.3316 H   0  0  0  0  0  0  0  0  0  0  0  0
    1.6204   15.0186    1.8946 H   0  0  0  0  0  0  0  0  0  0  0  0
    3.1203   14.0733    1.6061 H   0  0  0  0  0  0  0  0  0  0  0  0
    3.1762   15.8687    1.6061 H   0  0  0  0  0  0  0  0  0  0  0  0
    4.2415   14.5553   -1.0260 H   0  0  0  0  0  0  0  0  0  0  0  0
    3.4006   13.1713   -0.1243 H   0  0  0  0  0  0  0  0  0  0  0  0
    2.9060   14.0952   -2.9677 H   0  0  0  0  0  0  0  0  0  0  0  0
    3.5994   12.5274   -2.3947 H   0  0  0  0  0  0  0  0  0  0  0  0
    1.5042   12.0760    0.0235 H   0  0  0  0  0  0  0  0  0  0  0  0
    0.6391   10.9681   -1.0950 H   0  0  0  0  0  0  0  0  0  0  0  0
    2.4346   11.0224   -1.0950 H   0  0  0  0  0  0  0  0  0  0  0  0
  1  2  1  0
  2  3  1  0
  3  4  1  0
  4  5  1  0
  5  6  1  0
  6  7  1  0
  7  8  1  0
  7  9  1  0
  2 10  1  0
 10 11  1  0
 11 12  1  0
 12 13  1  0
 13 14  1  6
 13 15  1  0
 15 16  1  0
 16 17  1  0
 17 18  2  0
 18 19  1  0
 19 20  1  0
 20 21  1  0
 21 22  1  0
 22 23  1  0
 22 24  1  0
 24 25  1  0
 24 26  1  0
 19 27  1  0
 27 28  1  1
 27 29  1  0
 29 30  1  0
 30 31  1  0
 31 32  1  1
  7  5  1  0
 31 10  1  0
 31 13  1  0
 27 15  1  0
 24 18  1  0
  1 33  1  0
  1 34  1  0
  1 35  1  0
  2 36  1  1
  3 37  1  0
  3 38  1  0
  4 39  1  0
  4 40  1  0
  5 41  1  6
  8 42  1  0
  8 43  1  0
  8 44  1  0
  9 45  1  0
  9 46  1  0
  9 47  1  0
 10 48  1  6
 11 49  1  0
 11 50  1  0
 12 51  1  0
 12 52  1  0
 14 53  1  0
 14 54  1  0
 14 55  1  0
 15 56  1  1
 16 57  1  0
 16 58  1  0
 17 59  1  0
 19 60  1  6
 20 61  1  0
 20 62  1  0
 21 63  1  0
 21 64  1  0
 22 65  1  6
 23 66  1  0
 25 67  1  0
 25 68  1  0
 25 69  1  0
 26 70  1  0
 26 71  1  0
 26 72  1  0
 28 73  1  0
 28 74  1  0
 28 75  1  0
 29 76  1  0
 29 77  1  0
 30 78  1  0
 30 79  1  0
 32 80  1  0
 32 81  1  0
 32 82  1  0
M  END
>  <meeko>  (14) 
{"is_sidechain": [false], "intermolecular_energy": 2.731, "internal_energy": -0.839}

$$$$
EPH_relaxed_0001_pdb2pqr_Repair_271_r2_0001_out
     RDKit          3D

 82 86  0  0  0  0  0  0  0  0999 V2000
   -0.0770   18.5460   -2.7310 C   0  0  0  0  0  0  0  0  0  0  0  0
    0.4040   17.8290   -1.4660 C   0  0  2  0  0  0  0  0  0  0  0  0
    1.5780   18.5650   -0.7920 C   0  0  0  0  0  0  0  0  0  0  0  0
    1.1690   19.3810    0.4370 C   0  0  0  0  0  0  0  0  0  0  0  0
    2.3330   19.6380    1.3450 C   0  0  2  0  0  0  0  0  0  0  0  0
    3.4860   20.1940    0.6980 O   0  0  0  0  0  0  0  0  0  0  0  0
    3.6450   18.8800    1.2580 C   0  0  0  0  0  0  0  0  0  0  0  0
    3.8600   17.8060    0.2390 C   0  0  0  0  0  0  0  0  0  0  0  0
    4.5310   18.8430    2.4640 C   0  0  0  0  0  0  0  0  0  0  0  0
    0.8100   16.3980   -1.8020 C   0  0  1  0  0  0  0  0  0  0  0  0
    2.2730   16.2970   -2.3100 C   0  0  0  0  0  0  0  0  0  0  0  0
    2.8350   14.9500   -1.7870 C   0  0  0  0  0  0  0  0  0  0  0  0
    1.5930   14.1770   -1.2850 C   0  0  1  0  0  0  0  0  0  0  0  0
    0.9600   13.5580   -2.5700 C   0  0  0  0  0  0  0  0  0  0  0  0
    1.8500   13.0930   -0.1880 C   0  0  2  0  0  0  0  0  0  0  0  0
    2.7580   11.9290   -0.6210 C   0  0  0  0  0  0  0  0  0  0  0  0
    2.0510   10.7560   -1.2160 C   0  0  0  0  0  0  0  0  0  0  0  0
    0.7290   10.5180   -1.1370 C   0  0  0  0  0  0  0  0  0  0  0  0
   -0.1880   11.4280   -0.3090 C   0  0  1  0  0  0  0  0  0  0  0  0
   -1.1300   10.5590    0.5640 C   0  0  0  0  0  0  0  0  0  0  0  0
   -1.9100    9.5360   -0.2560 C   0  0  0  0  0  0  0  0  0  0  0  0
   -0.9630    8.6120   -1.0190 C   0  0  2  0  0  0  0  0  0  0  0  0
   -0.2450    7.8090   -0.0770 O   0  0  0  0  0  0  0  0  0  0  0  0
    0.0410    9.3770   -1.9260 C   0  0  0  0  0  0  0  0  0  0  0  0
   -0.7140   10.0020   -3.1250 C   0  0  0  0  0  0  0  0  0  0  0  0
    1.0270    8.3400   -2.5270 C   0  0  0  0  0  0  0  0  0  0  0  0
    0.5390   12.5690    0.5250 C   0  0  1  0  0  0  0  0  0  0  0  0
    0.9790   12.0130    1.9140 C   0  0  0  0  0  0  0  0  0  0  0  0
   -0.4880   13.7270    0.8160 C   0  0  0  0  0  0  0  0  0  0  0  0
   -0.6100   14.8310   -0.2520 C   0  0  0  0  0  0  0  0  0  0  0  0
    0.7710   15.3590   -0.6540 C   0  0  2  0  0  0  0  0  0  0  0  0
    1.4230   16.0090    0.6140 C   0  0  0  0  0  0  0  0  0  0  0  0
   -0.6694   19.4290   -2.4492 H   0  0  0  0  0  0  0  0  0  0  0  0
    0.7923   18.8623   -3.3262 H   0  0  0  0  0  0  0  0  0  0  0  0
   -0.6994   17.8616   -3.3262 H   0  0  0  0  0  0  0  0  0  0  0  0
   -0.4330   17.8203   -0.7523 H   0  0  0  0  0  0  0  0  0  0  0  0
    2.3232   17.8182   -0.4806 H   0  0  0  0  0  0  0  0  0  0  0  0
    1.9785   19.2751   -1.5305 H   0  0  0  0  0  0  0  0  0  0  0  0
    0.7574   20.3451    0.1038 H   0  0  0  0  0  0  0  0  0  0  0  0
    0.4185   18.8039    0.9971 H   0  0  0  0  0  0  0  0  0  0  0  0
    1.6590   19.8522    2.1875 H   0  0  0  0  0  0  0  0  0  0  0  0
    4.0514   16.8501    0.7486 H   0  0  0  0  0  0  0  0  0  0  0  0
    2.9627   17.7128   -0.3904 H   0  0  0  0  0  0  0  0  0  0  0  0
    4.7240   18.0654   -0.3904 H   0  0  0  0  0  0  0  0  0  0  0  0
    3.9132   18.8688    3.3738 H   0  0  0  0  0  0  0  0  0  0  0  0
    5.1280   17.9191    2.4522 H   0  0  0  0  0  0  0  0  0  0  0  0
    5.2029   19.7139    2.4522 H   0  0  0  0  0  0  0  0  0  0  0  0
    0.0408   16.1588   -2.5511 H   0  0  0  0  0  0  0  0  0  0  0  0
    2.2945   16.3152   -3.4096 H   0  0  0  0  0  0  0  0  0  0  0  0
    2.8760   17.1435   -1.9497 H   0  0  0  0  0  0  0  0  0  0  0  0
    3.3352   14.3977   -2.5962 H   0  0  0  0  0  0  0  0  0  0  0  0
    3.5863   15.0907   -0.9960 H   0  0  0  0  0  0  0  0  0  0  0  0
    0.2007   12.8155   -2.2835 H   0  0  0  0  0  0  0  0  0  0  0  0
    0.4886   14.3532   -3.1661 H   0  0  0  0  0  0  0  0  0  0  0  0
    1.7445   13.0689   -3.1661 H   0  0  0  0  0  0  0  0  0  0  0  0
    2.4217   13.6527    0.5670 H   0  0  0  0  0  0  0  0  0  0  0  0
    3.4689   12.3121   -1.3679 H   0  0  0  0  0  0  0  0  0  0  0  0
    3.2394   11.5607    0.2970 H   0  0  0  0  0  0  0  0  0  0  0  0
    2.6624   10.0249   -1.7652 H   0  0  0  0  0  0  0  0  0  0  0  0
   -0.7805   12.0046   -1.0346 H   0  0  0  0  0  0  0  0  0  0  0  0
   -0.5249   10.0245    1.3111 H   0  0  0  0  0  0  0  0  0  0  0  0
   -1.8592   11.2315    1.0394 H   0  0  0  0  0  0  0  0  0  0  0  0
   -2.5342    8.9332    0.4200 H   0  0  0  0  0  0  0  0  0  0  0  0
   -2.5377   10.0730   -0.9824 H   0  0  0  0  0  0  0  0  0  0  0  0
   -1.5763    7.9890   -1.6866 H   0  0  0  0  0  0  0  0  0  0  0  0
    0.1310    7.0540   -0.5600 H   0  0  0  0  0  0  0  0  0  0  0  0
   -1.5113   10.6620   -2.7525 H   0  0  0  0  0  0  0  0  0  0  0  0
   -0.0108   10.5858   -3.7371 H   0  0  0  0  0  0  0  0  0  0  0  0
   -1.1562    9.2021   -3.7371 H   0  0  0  0  0  0  0  0  0  0  0  0
    1.5367    7.8040   -1.7128 H   0  0  0  0  0  0  0  0  0  0  0  0
    0.4707    7.6216   -3.1471 H   0  0  0  0  0  0  0  0  0  0  0  0
    1.7725    8.8594   -3.1471 H   0  0  0  0  0  0  0  0  0  0  0  0
    0.5092   12.6066    2.7121 H   0  0  0  0  0  0  0  0  0  0  0  0
    0.6648   10.9628    2.0048 H   0  0  0  0  0  0  0  0  0  0  0  0
    2.0733   12.0775    2.0048 H   0  0  0  0  0  0  0  0  0  0  0  0
   -1.4809   13.2690    0.9363 H   0  0  0  0  0  0  0  0  0  0  0  0
   -0.1033   14.2348    1.7127 H   0  0  0  0  0  0  0  0  0  0  0  0
   -1.1104   14.4186   -1.1406 H   0  0  0  0  0  0  0  0  0  0  0  0
   -1.1952   15.6624    0.1678 H   0  0  0  0  0  0  0  0  0  0  0  0
    0.9812   15.5686    1.5200 H   0  0  0  0  0  0  0  0  0  0  0  0
    2.5068   15.8213    0.6060 H   0  0  0  0  0  0  0  0  0  0  0  0
    1.2386   17.0934    0.6060 H   0  0  0  0  0  0  0  0  0  0  0  0
  1  2  1  0
  2  3  1  0
  3  4  1  0
  4  5  1  0
  5  6  1  0
  6  7  1  0
  7  8  1  0
  7  9  1  0
  2 10  1  0
 10 11  1  0
 11 12  1  0
 12 13  1  0
 13 14  1  6
 13 15  1  0
 15 16  1  0
 16 17  1  0
 17 18  2  0
 18 19  1  0
 19 20  1  0
 20 21  1  0
 21 22  1  0
 22 23  1  0
 22 24  1  0
 24 25  1  0
 24 26  1  0
 19 27  1  0
 27 28  1  1
 27 29  1  0
 29 30  1  0
 30 31  1  0
 31 32  1  1
  7  5  1  0
 31 10  1  0
 31 13  1  0
 27 15  1  0
 24 18  1  0
  1 33  1  0
  1 34  1  0
  1 35  1  0
  2 36  1  1
  3 37  1  0
  3 38  1  0
  4 39  1  0
  4 40  1  0
  5 41  1  1
  8 42  1  0
  8 43  1  0
  8 44  1  0
  9 45  1  0
  9 46  1  0
  9 47  1  0
 10 48  1  6
 11 49  1  0
 11 50  1  0
 12 51  1  0
 12 52  1  0
 14 53  1  0
 14 54  1  0
 14 55  1  0
 15 56  1  1
 16 57  1  0
 16 58  1  0
 17 59  1  0
 19 60  1  6
 20 61  1  0
 20 62  1  0
 21 63  1  0
 21 64  1  0
 22 65  1  6
 23 66  1  0
 25 67  1  0
 25 68  1  0
 25 69  1  0
 26 70  1  0
 26 71  1  0
 26 72  1  0
 28 73  1  0
 28 74  1  0
 28 75  1  0
 29 76  1  0
 29 77  1  0
 30 78  1  0
 30 79  1  0
 32 80  1  0
 32 81  1  0
 32 82  1  0
M  END
>  <meeko>  (15) 
{"is_sidechain": [false], "intermolecular_energy": 2.731, "internal_energy": -0.839}

$$$$
EPH_relaxed_0001_pdb2pqr_Repair_271_r2_0001_out
     RDKit          3D

 82 86  0  0  0  0  0  0  0  0999 V2000
    0.9540   14.8990   -2.6700 C   0  0  0  0  0  0  0  0  0  0  0  0
    1.2000   14.2170   -4.0180 C   0  0  2  0  0  0  0  0  0  0  0  0
    0.4820   14.9410   -5.1750 C   0  0  0  0  0  0  0  0  0  0  0  0
    1.0440   14.5990   -6.5580 C   0  0  0  0  0  0  0  0  0  0  0  0
    0.8440   15.7210   -7.5310 C   0  0  2  0  0  0  0  0  0  0  0  0
    0.3920   15.3150   -8.8290 O   0  0  0  0  0  0  0  0  0  0  0  0
    1.6960   15.9160   -8.7710 C   0  0  0  0  0  0  0  0  0  0  0  0
    2.8140   14.9780   -9.1040 C   0  0  0  0  0  0  0  0  0  0  0  0
    1.7610   17.2780   -9.3890 C   0  0  0  0  0  0  0  0  0  0  0  0
    0.7490   12.7620   -3.9550 C   0  0  1  0  0  0  0  0  0  0  0  0
    1.8810   11.7690   -4.3300 C   0  0  0  0  0  0  0  0  0  0  0  0
    1.6810   10.5100   -3.4480 C   0  0  0  0  0  0  0  0  0  0  0  0
    0.2670   10.6770   -2.8430 C   0  0  1  0  0  0  0  0  0  0  0  0
   -0.7080   10.2010   -3.9650 C   0  0  0  0  0  0  0  0  0  0  0  0
    0.0010    9.9350   -1.4930 C   0  0  2  0  0  0  0  0  0  0  0  0
    0.1050    8.4020   -1.5600 C   0  0  0  0  0  0  0  0  0  0  0  0
   -1.1670    7.6890   -1.8790 C   0  0  0  0  0  0  0  0  0  0  0  0
   -2.4000    8.2270   -1.8230 C   0  0  0  0  0  0  0  0  0  0  0  0
   -2.6130    9.6580   -1.3110 C   0  0  1  0  0  0  0  0  0  0  0  0
   -3.7930    9.6780   -0.3050 C   0  0  0  0  0  0  0  0  0  0  0  0
   -5.0670    9.0700   -0.8840 C   0  0  0  0  0  0  0  0  0  0  0  0
   -4.8300    7.6290   -1.3280 C   0  0  2  0  0  0  0  0  0  0  0  0
   -4.5730    6.8270   -0.1710 O   0  0  0  0  0  0  0  0  0  0  0  0
   -3.6570    7.4820   -2.3370 C   0  0  0  0  0  0  0  0  0  0  0  0
   -4.0630    8.0970   -3.6990 C   0  0  0  0  0  0  0  0  0  0  0  0
   -3.4340    5.9680   -2.5930 C   0  0  0  0  0  0  0  0  0  0  0  0
   -1.3200   10.3930   -0.7510 C   0  0  1  0  0  0  0  0  0  0  0  0
   -1.1250   10.0500    0.7580 C   0  0  0  0  0  0  0  0  0  0  0  0
   -1.5400   11.9500   -0.8280 C   0  0  0  0  0  0  0  0  0  0  0  0
   -1.1460   12.6430   -2.1460 C   0  0  0  0  0  0  0  0  0  0  0  0
    0.2610   12.2280   -2.5850 C   0  0  2  0  0  0  0  0  0  0  0  0
    1.2670   12.7140   -1.4860 C   0  0  0  0  0  0  0  0  0  0  0  0
    1.2050   14.2032   -1.8558 H   0  0  0  0  0  0  0  0  0  0  0  0
    1.5850   15.7967   -2.5927 H   0  0  0  0  0  0  0  0  0  0  0  0
   -0.1047   15.1872   -2.5927 H   0  0  0  0  0  0  0  0  0  0  0  0
    2.2804   14.2631   -4.2193 H   0  0  0  0  0  0  0  0  0  0  0  0
   -0.5815   14.6609   -5.1533 H   0  0  0  0  0  0  0  0  0  0  0  0
    0.6349   16.0197   -5.0235 H   0  0  0  0  0  0  0  0  0  0  0  0
    2.1210   14.3959   -6.4648 H   0  0  0  0  0  0  0  0  0  0  0  0
    0.5076   13.7167   -6.9373 H   0  0  0  0  0  0  0  0  0  0  0  0
    0.5567   16.4046   -6.7185 H   0  0  0  0  0  0  0  0  0  0  0  0
    3.2646   14.5999   -8.1745 H   0  0  0  0  0  0  0  0  0  0  0  0
    2.4222   14.1343   -9.6911 H   0  0  0  0  0  0  0  0  0  0  0  0
    3.5768   15.5104   -9.6911 H   0  0  0  0  0  0  0  0  0  0  0  0
    1.7973   18.0392   -8.5958 H   0  0  0  0  0  0  0  0  0  0  0  0
    2.6638   17.3550  -10.0127 H   0  0  0  0  0  0  0  0  0  0  0  0
    0.8696   17.4406  -10.0127 H   0  0  0  0  0  0  0  0  0  0  0  0
   -0.0901   12.7977   -4.6654 H   0  0  0  0  0  0  0  0  0  0  0  0
    1.8124   11.5007   -5.3946 H   0  0  0  0  0  0  0  0  0  0  0  0
    2.8715   12.2167   -4.1610 H   0  0  0  0  0  0  0  0  0  0  0  0
    1.7369    9.5961   -4.0576 H   0  0  0  0  0  0  0  0  0  0  0  0
    2.4570   10.4156   -2.6741 H   0  0  0  0  0  0  0  0  0  0  0  0
   -1.6070    9.7621   -3.5076 H   0  0  0  0  0  0  0  0  0  0  0  0
   -0.9961   11.0598   -4.5891 H   0  0  0  0  0  0  0  0  0  0  0  0
   -0.2080    9.4456   -4.5891 H   0  0  0  0  0  0  0  0  0  0  0  0
    0.8467   10.2649   -0.8718 H   0  0  0  0  0  0  0  0  0  0  0  0
    0.8420    8.1451   -2.3351 H   0  0  0  0  0  0  0  0  0  0  0  0
    0.3931    8.0726   -0.5508 H   0  0  0  0  0  0  0  0  0  0  0  0
   -1.0906    6.6354   -2.1856 H   0  0  0  0  0  0  0  0  0  0  0  0
   -2.8664   10.2628   -2.1942 H   0  0  0  0  0  0  0  0  0  0  0  0
   -3.5039    9.1056    0.5888 H   0  0  0  0  0  0  0  0  0  0  0  0
   -4.0060   10.7294   -0.0616 H   0  0  0  0  0  0  0  0  0  0  0  0
   -5.8546    9.0853   -0.1162 H   0  0  0  0  0  0  0  0  0  0  0  0
   -5.3723    9.6618   -1.7596 H   0  0  0  0  0  0  0  0  0  0  0  0
   -5.7368    7.2925   -1.8520 H   0  0  0  0  0  0  0  0  0  0  0  0
   -5.4240    6.4730    0.1380 H   0  0  0  0  0  0  0  0  0  0  0  0
   -4.6617    9.0038   -3.5280 H   0  0  0  0  0  0  0  0  0  0  0  0
   -3.1583    8.3568   -4.2683 H   0  0  0  0  0  0  0  0  0  0  0  0
   -4.6574    7.3672   -4.2683 H   0  0  0  0  0  0  0  0  0  0  0  0
   -3.3564    5.4409   -1.6306 H   0  0  0  0  0  0  0  0  0  0  0  0
   -4.2823    5.5640   -3.1649 H   0  0  0  0  0  0  0  0  0  0  0  0
   -2.5052    5.8257   -3.1649 H   0  0  0  0  0  0  0  0  0  0  0  0
   -1.5750   10.8416    1.3751 H   0  0  0  0  0  0  0  0  0  0  0  0
   -1.6120    9.0894    0.9816 H   0  0  0  0  0  0  0  0  0  0  0  0
   -0.0504    9.9771    0.9816 H   0  0  0  0  0  0  0  0  0  0  0  0
   -2.6092   12.1438   -0.6569 H   0  0  0  0  0  0  0  0  0  0  0  0
   -0.8671   12.3736   -0.0679 H   0  0  0  0  0  0  0  0  0  0  0  0
   -1.8650   12.3613   -2.9294 H   0  0  0  0  0  0  0  0  0  0  0  0
   -1.1566   13.7313   -1.9864 H   0  0  0  0  0  0  0  0  0  0  0  0
    0.8475   12.5113   -0.4895 H   0  0  0  0  0  0  0  0  0  0  0  0
    2.2205   12.1772   -1.5985 H   0  0  0  0  0  0  0  0  0  0  0  0
    1.4391   13.7946   -1.5985 H   0  0  0  0  0  0  0  0  0  0  0  0
  1  2  1  0
  2  3  1  0
  3  4  1  0
  4  5  1  0
  5  6  1  0
  6  7  1  0
  7  8  1  0
  7  9  1  0
  2 10  1  0
 10 11  1  0
 11 12  1  0
 12 13  1  0
 13 14  1  6
 13 15  1  0
 15 16  1  0
 16 17  1  0
 17 18  2  0
 18 19  1  0
 19 20  1  0
 20 21  1  0
 21 22  1  0
 22 23  1  0
 22 24  1  0
 24 25  1  0
 24 26  1  0
 19 27  1  0
 27 28  1  1
 27 29  1  0
 29 30  1  0
 30 31  1  0
 31 32  1  1
  7  5  1  0
 31 10  1  0
 31 13  1  0
 27 15  1  0
 24 18  1  0
  1 33  1  0
  1 34  1  0
  1 35  1  0
  2 36  1  6
  3 37  1  0
  3 38  1  0
  4 39  1  0
  4 40  1  0
  5 41  1  1
  8 42  1  0
  8 43  1  0
  8 44  1  0
  9 45  1  0
  9 46  1  0
  9 47  1  0
 10 48  1  6
 11 49  1  0
 11 50  1  0
 12 51  1  0
 12 52  1  0
 14 53  1  0
 14 54  1  0
 14 55  1  0
 15 56  1  1
 16 57  1  0
 16 58  1  0
 17 59  1  0
 19 60  1  6
 20 61  1  0
 20 62  1  0
 21 63  1  0
 21 64  1  0
 22 65  1  6
 23 66  1  0
 25 67  1  0
 25 68  1  0
 25 69  1  0
 26 70  1  0
 26 71  1  0
 26 72  1  0
 28 73  1  0
 28 74  1  0
 28 75  1  0
 29 76  1  0
 29 77  1  0
 30 78  1  0
 30 79  1  0
 32 80  1  0
 32 81  1  0
 32 82  1  0
M  END
>  <meeko>  (16) 
{"is_sidechain": [false], "intermolecular_energy": 2.731, "internal_energy": -0.839}

$$$$
EPH_relaxed_0001_pdb2pqr_Repair_271_r2_0001_out
     RDKit          3D

 82 86  0  0  0  0  0  0  0  0999 V2000
   -0.2430   17.3230   -3.3160 C   0  0  0  0  0  0  0  0  0  0  0  0
    0.0900   17.1730   -1.8290 C   0  0  2  0  0  0  0  0  0  0  0  0
    0.6060   18.4890   -1.2140 C   0  0  0  0  0  0  0  0  0  0  0  0
    0.5510   18.5170    0.3160 C   0  0  0  0  0  0  0  0  0  0  0  0
    1.4690   19.5560    0.8850 C   0  0  2  0  0  0  0  0  0  0  0  0
    2.4390   20.0680   -0.0380 O   0  0  0  0  0  0  0  0  0  0  0  0
    2.9570   19.3380    1.0860 C   0  0  0  0  0  0  0  0  0  0  0  0
    3.6130   18.0430    0.7210 C   0  0  0  0  0  0  0  0  0  0  0  0
    3.6770   20.1940    2.0800 C   0  0  0  0  0  0  0  0  0  0  0  0
    1.1220   16.0680   -1.6360 C   0  0  1  0  0  0  0  0  0  0  0  0
    1.2400   15.6120   -0.1570 C   0  0  0  0  0  0  0  0  0  0  0  0
    1.5310   14.0890   -0.1800 C   0  0  0  0  0  0  0  0  0  0  0  0
    1.8980   13.7850   -1.6520 C   0  0  1  0  0  0  0  0  0  0  0  0
    3.3960   14.2000   -1.7860 C   0  0  0  0  0  0  0  0  0  0  0  0
    1.6610   12.3160   -2.1330 C   0  0  2  0  0  0  0  0  0  0  0  0
    2.4920   11.2480   -1.4010 C   0  0  0  0  0  0  0  0  0  0  0  0
    3.8170   10.9380   -2.0170 C   0  0  0  0  0  0  0  0  0  0  0  0
    4.2000   11.2810   -3.2610 C   0  0  0  0  0  0  0  0  0  0  0  0
    3.2240   11.9680   -4.2250 C   0  0  1  0  0  0  0  0  0  0  0  0
    3.2990   11.2820   -5.6140 C   0  0  0  0  0  0  0  0  0  0  0  0
    4.7210   11.2280   -6.1640 C   0  0  0  0  0  0  0  0  0  0  0  0
    5.6480   10.4860   -5.2050 C   0  0  2  0  0  0  0  0  0  0  0  0
    5.2560    9.1110   -5.1550 O   0  0  0  0  0  0  0  0  0  0  0  0
    5.6490   11.0820   -3.7690 C   0  0  0  0  0  0  0  0  0  0  0  0
    6.3550   12.4600   -3.7780 C   0  0  0  0  0  0  0  0  0  0  0  0
    6.5140   10.1580   -2.8700 C   0  0  0  0  0  0  0  0  0  0  0  0
    1.7320   12.1290   -3.7030 C   0  0  1  0  0  0  0  0  0  0  0  0
    0.9110   10.8460   -4.0360 C   0  0  0  0  0  0  0  0  0  0  0  0
    1.0410   13.3120   -4.4780 C   0  0  0  0  0  0  0  0  0  0  0  0
    1.2120   14.7240   -3.8870 C   0  0  0  0  0  0  0  0  0  0  0  0
    0.8860   14.7350   -2.3900 C   0  0  2  0  0  0  0  0  0  0  0  0
   -0.6220   14.3420   -2.2250 C   0  0  0  0  0  0  0  0  0  0  0  0
   -1.2410   17.7726   -3.4247 H   0  0  0  0  0  0  0  0  0  0  0  0
    0.5053   17.9710   -3.7958 H   0  0  0  0  0  0  0  0  0  0  0  0
   -0.2325   16.3332   -3.7958 H   0  0  0  0  0  0  0  0  0  0  0  0
   -0.8410   16.9073   -1.3068 H   0  0  0  0  0  0  0  0  0  0  0  0
    1.6509   18.6321   -1.5265 H   0  0  0  0  0  0  0  0  0  0  0  0
   -0.0537   19.2923   -1.5740 H   0  0  0  0  0  0  0  0  0  0  0  0
   -0.4789   18.7400    0.6316 H   0  0  0  0  0  0  0  0  0  0  0  0
    0.8735   17.5336    0.6887 H   0  0  0  0  0  0  0  0  0  0  0  0
    0.6789   19.9188    1.5588 H   0  0  0  0  0  0  0  0  0  0  0  0
    3.8880   17.5002    1.6374 H   0  0  0  0  0  0  0  0  0  0  0  0
    2.9153   17.4327    0.1287 H   0  0  0  0  0  0  0  0  0  0  0  0
    4.5178   18.2444    0.1287 H   0  0  0  0  0  0  0  0  0  0  0  0
    3.4100   19.8765    3.0988 H   0  0  0  0  0  0  0  0  0  0  0  0
    4.7625   20.0892    1.9360 H   0  0  0  0  0  0  0  0  0  0  0  0
    3.3878   21.2455    1.9360 H   0  0  0  0  0  0  0  0  0  0  0  0
    2.0120   16.5749   -2.0372 H   0  0  0  0  0  0  0  0  0  0  0  0
    2.0625   16.1473    0.3399 H   0  0  0  0  0  0  0  0  0  0  0  0
    0.3154   15.8290    0.3981 H   0  0  0  0  0  0  0  0  0  0  0  0
    2.3697   13.8436    0.4881 H   0  0  0  0  0  0  0  0  0  0  0  0
    0.6732   13.4947    0.1677 H   0  0  0  0  0  0  0  0  0  0  0  0
    3.8339   14.3213   -0.7842 H   0  0  0  0  0  0  0  0  0  0  0  0
    3.9449   13.4201   -2.3341 H   0  0  0  0  0  0  0  0  0  0  0  0
    3.4653   15.1512   -2.3341 H   0  0  0  0  0  0  0  0  0  0  0  0
    0.6169   12.1359   -1.8373 H   0  0  0  0  0  0  0  0  0  0  0  0
    2.6686   11.5997   -0.3738 H   0  0  0  0  0  0  0  0  0  0  0  0
    1.9068   10.3181   -1.4536 H   0  0  0  0  0  0  0  0  0  0  0  0
    4.5407   10.3827   -1.4023 H   0  0  0  0  0  0  0  0  0  0  0  0
    3.5609   13.0120   -4.3061 H   0  0  0  0  0  0  0  0  0  0  0  0
    2.9178   10.2544   -5.5208 H   0  0  0  0  0  0  0  0  0  0  0  0
    2.6930   11.8768   -6.3132 H   0  0  0  0  0  0  0  0  0  0  0  0
    4.7129   10.7068   -7.1327 H   0  0  0  0  0  0  0  0  0  0  0  0
    5.0906   12.2570   -6.2845 H   0  0  0  0  0  0  0  0  0  0  0  0
    6.6731   10.5926   -5.5894 H   0  0  0  0  0  0  0  0  0  0  0  0
    6.0110    8.6010   -4.8160 H   0  0  0  0  0  0  0  0  0  0  0  0
    6.5249   12.7917   -2.7431 H   0  0  0  0  0  0  0  0  0  0  0  0
    7.3202   12.3741   -4.2987 H   0  0  0  0  0  0  0  0  0  0  0  0
    5.7215   13.1932   -4.2987 H   0  0  0  0  0  0  0  0  0  0  0  0
    6.3079   10.3782   -1.8122 H   0  0  0  0  0  0  0  0  0  0  0  0
    6.2678    9.1068   -3.0804 H   0  0  0  0  0  0  0  0  0  0  0  0
    7.5792   10.3344   -3.0804 H   0  0  0  0  0  0  0  0  0  0  0  0
    0.5985   10.3577   -3.1011 H   0  0  0  0  0  0  0  0  0  0  0  0
    0.0211   11.1217   -4.6209 H   0  0  0  0  0  0  0  0  0  0  0  0
    1.5341   10.1535   -4.6209 H   0  0  0  0  0  0  0  0  0  0  0  0
    1.4521   13.3264   -5.4982 H   0  0  0  0  0  0  0  0  0  0  0  0
   -0.0375   13.1039   -4.4180 H   0  0  0  0  0  0  0  0  0  0  0  0
    2.2524   15.0509   -4.0311 H   0  0  0  0  0  0  0  0  0  0  0  0
    0.5193   15.4060   -4.4019 H   0  0  0  0  0  0  0  0  0  0  0  0
   -0.8692   14.2776   -1.1551 H   0  0  0  0  0  0  0  0  0  0  0  0
   -1.2542   15.1054   -2.7021 H   0  0  0  0  0  0  0  0  0  0  0  0
   -0.8012   13.3672   -2.7021 H   0  0  0  0  0  0  0  0  0  0  0  0
  1  2  1  0
  2  3  1  0
  3  4  1  0
  4  5  1  0
  5  6  1  0
  6  7  1  0
  7  8  1  0
  7  9  1  0
  2 10  1  0
 10 11  1  0
 11 12  1  0
 12 13  1  0
 13 14  1  1
 13 15  1  0
 15 16  1  0
 16 17  1  0
 17 18  2  0
 18 19  1  0
 19 20  1  0
 20 21  1  0
 21 22  1  0
 22 23  1  0
 22 24  1  0
 24 25  1  0
 24 26  1  0
 19 27  1  0
 27 28  1  1
 27 29  1  0
 29 30  1  0
 30 31  1  0
 31 32  1  6
  7  5  1  0
 31 10  1  0
 31 13  1  0
 27 15  1  0
 24 18  1  0
  1 33  1  0
  1 34  1  0
  1 35  1  0
  2 36  1  1
  3 37  1  0
  3 38  1  0
  4 39  1  0
  4 40  1  0
  5 41  1  1
  8 42  1  0
  8 43  1  0
  8 44  1  0
  9 45  1  0
  9 46  1  0
  9 47  1  0
 10 48  1  6
 11 49  1  0
 11 50  1  0
 12 51  1  0
 12 52  1  0
 14 53  1  0
 14 54  1  0
 14 55  1  0
 15 56  1  1
 16 57  1  0
 16 58  1  0
 17 59  1  0
 19 60  1  6
 20 61  1  0
 20 62  1  0
 21 63  1  0
 21 64  1  0
 22 65  1  6
 23 66  1  0
 25 67  1  0
 25 68  1  0
 25 69  1  0
 26 70  1  0
 26 71  1  0
 26 72  1  0
 28 73  1  0
 28 74  1  0
 28 75  1  0
 29 76  1  0
 29 77  1  0
 30 78  1  0
 30 79  1  0
 32 80  1  0
 32 81  1  0
 32 82  1  0
M  END
>  <meeko>  (17) 
{"is_sidechain": [false], "intermolecular_energy": 2.731, "internal_energy": -0.839}

$$$$
EPH_relaxed_0001_pdb2pqr_Repair_271_r2_0001_out
     RDKit          3D

 82 86  0  0  0  0  0  0  0  0999 V2000
   -2.4510    7.8750    0.0310 C   0  0  0  0  0  0  0  0  0  0  0  0
   -3.1710    9.2180   -0.1170 C   0  0  2  0  0  0  0  0  0  0  0  0
   -4.6060    9.0520   -0.6560 C   0  0  0  0  0  0  0  0  0  0  0  0
   -5.0550    7.5920   -0.7710 C   0  0  0  0  0  0  0  0  0  0  0  0
   -6.5070    7.4860   -1.1260 C   0  0  2  0  0  0  0  0  0  0  0  0
   -7.0230    6.1480   -1.1410 O   0  0  0  0  0  0  0  0  0  0  0  0
   -7.0110    6.8370   -2.4020 C   0  0  0  0  0  0  0  0  0  0  0  0
   -6.0670    6.2530   -3.4060 C   0  0  0  0  0  0  0  0  0  0  0  0
   -8.3740    7.2040   -2.9010 C   0  0  0  0  0  0  0  0  0  0  0  0
   -2.3730   10.1360   -1.0350 C   0  0  1  0  0  0  0  0  0  0  0  0
   -2.9780   11.5630   -1.1270 C   0  0  0  0  0  0  0  0  0  0  0  0
   -1.7870   12.5460   -1.2620 C   0  0  0  0  0  0  0  0  0  0  0  0
   -0.5710   11.6440   -1.5770 C   0  0  1  0  0  0  0  0  0  0  0  0
   -0.6700   11.3560   -3.1080 C   0  0  0  0  0  0  0  0  0  0  0  0
    0.8320   12.2150   -1.1880 C   0  0  2  0  0  0  0  0  0  0  0  0
    1.2360   13.5080   -1.9170 C   0  0  0  0  0  0  0  0  0  0  0  0
    1.9820   13.3130   -3.1950 C   0  0  0  0  0  0  0  0  0  0  0  0
    2.5630   12.1670   -3.5940 C   0  0  0  0  0  0  0  0  0  0  0  0
    2.5850   10.9350   -2.6800 C   0  0  1  0  0  0  0  0  0  0  0  0
    4.0120   10.3260   -2.6670 C   0  0  0  0  0  0  0  0  0  0  0  0
    4.5310   10.0210   -4.0690 C   0  0  0  0  0  0  0  0  0  0  0  0
    4.5480   11.2820   -4.9300 C   0  0  2  0  0  0  0  0  0  0  0  0
    5.5220   12.1870   -4.4010 O   0  0  0  0  0  0  0  0  0  0  0  0
    3.1660   11.9880   -5.0090 C   0  0  0  0  0  0  0  0  0  0  0  0
    2.1900   11.1290   -5.8500 C   0  0  0  0  0  0  0  0  0  0  0  0
    3.3550   13.3180   -5.7880 C   0  0  0  0  0  0  0  0  0  0  0  0
    1.9980   11.1460   -1.2190 C   0  0  1  0  0  0  0  0  0  0  0  0
    3.1150   11.6770   -0.2680 C   0  0  0  0  0  0  0  0  0  0  0  0
    1.5480    9.7520   -0.6390 C   0  0  0  0  0  0  0  0  0  0  0  0
    0.1110    9.2980   -0.9590 C   0  0  0  0  0  0  0  0  0  0  0  0
   -0.8960   10.4120   -0.6570 C   0  0  2  0  0  0  0  0  0  0  0  0
   -0.8340   10.7080    0.8810 C   0  0  0  0  0  0  0  0  0  0  0  0
   -2.3259    7.6417    1.0987 H   0  0  0  0  0  0  0  0  0  0  0  0
   -3.0464    7.0848   -0.4497 H   0  0  0  0  0  0  0  0  0  0  0  0
   -1.4633    7.9335   -0.4497 H   0  0  0  0  0  0  0  0  0  0  0  0
   -3.2451    9.6660    0.8849 H   0  0  0  0  0  0  0  0  0  0  0  0
   -5.2950    9.5748    0.0237 H   0  0  0  0  0  0  0  0  0  0  0  0
   -4.6188    9.4735   -1.6720 H   0  0  0  0  0  0  0  0  0  0  0  0
   -4.4598    7.0963   -1.5520 H   0  0  0  0  0  0  0  0  0  0  0  0
   -4.9041    7.1085    0.2054 H   0  0  0  0  0  0  0  0  0  0  0  0
   -6.7164    8.4610   -0.6617 H   0  0  0  0  0  0  0  0  0  0  0  0
   -5.2441    5.7439   -2.8828 H   0  0  0  0  0  0  0  0  0  0  0  0
   -6.6041    5.5291   -4.0365 H   0  0  0  0  0  0  0  0  0  0  0  0
   -5.6590    7.0567   -4.0365 H   0  0  0  0  0  0  0  0  0  0  0  0
   -9.0416    7.3838   -2.0454 H   0  0  0  0  0  0  0  0  0  0  0  0
   -8.3074    8.1162   -3.5121 H   0  0  0  0  0  0  0  0  0  0  0  0
   -8.7744    6.3817   -3.5121 H   0  0  0  0  0  0  0  0  0  0  0  0
   -2.4203    9.5511   -1.9654 H   0  0  0  0  0  0  0  0  0  0  0  0
   -3.6344   11.6402   -2.0063 H   0  0  0  0  0  0  0  0  0  0  0  0
   -3.5818   11.7941   -0.2370 H   0  0  0  0  0  0  0  0  0  0  0  0
   -1.9634   13.2598   -2.0801 H   0  0  0  0  0  0  0  0  0  0  0  0
   -1.6366   13.1467   -0.3529 H   0  0  0  0  0  0  0  0  0  0  0  0
   -1.0239   10.3264   -3.2653 H   0  0  0  0  0  0  0  0  0  0  0  0
   -1.3773   12.0613   -3.5688 H   0  0  0  0  0  0  0  0  0  0  0  0
    0.3214   11.4773   -3.5688 H   0  0  0  0  0  0  0  0  0  0  0  0
    0.6867   12.4990   -0.1353 H   0  0  0  0  0  0  0  0  0  0  0  0
    0.3189   14.0723   -2.1415 H   0  0  0  0  0  0  0  0  0  0  0  0
    1.9240   14.0364   -1.2406 H   0  0  0  0  0  0  0  0  0  0  0  0
    2.0637   14.1796   -3.8675 H   0  0  0  0  0  0  0  0  0  0  0  0
    1.8768   10.2169   -3.1192 H   0  0  0  0  0  0  0  0  0  0  0  0
    4.6959   11.0405   -2.1856 H   0  0  0  0  0  0  0  0  0  0  0  0
    3.9644    9.3759   -2.1147 H   0  0  0  0  0  0  0  0  0  0  0  0
    5.5531    9.6212   -3.9956 H   0  0  0  0  0  0  0  0  0  0  0  0
    3.8630    9.2839   -4.5384 H   0  0  0  0  0  0  0  0  0  0  0  0
    4.8035   10.9786   -5.9560 H   0  0  0  0  0  0  0  0  0  0  0  0
    5.3160   13.0740   -4.7440 H   0  0  0  0  0  0  0  0  0  0  0  0
    1.5361   10.5535   -5.1783 H   0  0  0  0  0  0  0  0  0  0  0  0
    1.5769   11.7859   -6.4845 H   0  0  0  0  0  0  0  0  0  0  0  0
    2.7637   10.4375   -6.4845 H   0  0  0  0  0  0  0  0  0  0  0  0
    3.4728   14.1471   -5.0748 H   0  0  0  0  0  0  0  0  0  0  0  0
    4.2522   13.2481   -6.4205 H   0  0  0  0  0  0  0  0  0  0  0  0
    2.4738   13.5009   -6.4205 H   0  0  0  0  0  0  0  0  0  0  0  0
    2.8066   11.5304    0.7776 H   0  0  0  0  0  0  0  0  0  0  0  0
    4.0486   11.1263   -0.4556 H   0  0  0  0  0  0  0  0  0  0  0  0
    3.2774   12.7487   -0.4556 H   0  0  0  0  0  0  0  0  0  0  0  0
    2.2342    8.9893   -1.0358 H   0  0  0  0  0  0  0  0  0  0  0  0
    1.5752    9.8725    0.4540 H   0  0  0  0  0  0  0  0  0  0  0  0
    0.0461    9.0335   -2.0247 H   0  0  0  0  0  0  0  0  0  0  0  0
   -0.1299    8.4277   -0.3309 H   0  0  0  0  0  0  0  0  0  0  0  0
   -1.0281    9.7813    1.4409 H   0  0  0  0  0  0  0  0  0  0  0  0
    0.1639   11.0911    1.1407 H   0  0  0  0  0  0  0  0  0  0  0  0
   -1.5943   11.4594    1.1407 H   0  0  0  0  0  0  0  0  0  0  0  0
  1  2  1  0
  2  3  1  0
  3  4  1  0
  4  5  1  0
  5  6  1  0
  6  7  1  0
  7  8  1  0
  7  9  1  0
  2 10  1  0
 10 11  1  0
 11 12  1  0
 12 13  1  0
 13 14  1  6
 13 15  1  0
 15 16  1  0
 16 17  1  0
 17 18  2  0
 18 19  1  0
 19 20  1  0
 20 21  1  0
 21 22  1  0
 22 23  1  0
 22 24  1  0
 24 25  1  0
 24 26  1  0
 19 27  1  0
 27 28  1  1
 27 29  1  0
 29 30  1  0
 30 31  1  0
 31 32  1  1
  7  5  1  0
 31 10  1  0
 31 13  1  0
 27 15  1  0
 24 18  1  0
  1 33  1  0
  1 34  1  0
  1 35  1  0
  2 36  1  1
  3 37  1  0
  3 38  1  0
  4 39  1  0
  4 40  1  0
  5 41  1  1
  8 42  1  0
  8 43  1  0
  8 44  1  0
  9 45  1  0
  9 46  1  0
  9 47  1  0
 10 48  1  6
 11 49  1  0
 11 50  1  0
 12 51  1  0
 12 52  1  0
 14 53  1  0
 14 54  1  0
 14 55  1  0
 15 56  1  1
 16 57  1  0
 16 58  1  0
 17 59  1  0
 19 60  1  6
 20 61  1  0
 20 62  1  0
 21 63  1  0
 21 64  1  0
 22 65  1  6
 23 66  1  0
 25 67  1  0
 25 68  1  0
 25 69  1  0
 26 70  1  0
 26 71  1  0
 26 72  1  0
 28 73  1  0
 28 74  1  0
 28 75  1  0
 29 76  1  0
 29 77  1  0
 30 78  1  0
 30 79  1  0
 32 80  1  0
 32 81  1  0
 32 82  1  0
M  END
>  <meeko>  (18) 
{"is_sidechain": [false], "intermolecular_energy": 2.731, "internal_energy": -0.839}

$$$$
EPH_relaxed_0001_pdb2pqr_Repair_271_r2_0001_out
     RDKit          3D

 82 86  0  0  0  0  0  0  0  0999 V2000
    3.1100   14.8530   -7.5620 C   0  0  0  0  0  0  0  0  0  0  0  0
    1.5860   14.8580   -7.4110 C   0  0  2  0  0  0  0  0  0  0  0  0
    0.9400   16.0810   -8.0930 C   0  0  0  0  0  0  0  0  0  0  0  0
    1.8600   16.7870   -9.0920 C   0  0  0  0  0  0  0  0  0  0  0  0
    1.5600   16.3820  -10.5030 C   0  0  2  0  0  0  0  0  0  0  0  0
    1.0070   15.0670  -10.6440 O   0  0  0  0  0  0  0  0  0  0  0  0
    2.3010   15.2760  -11.2320 C   0  0  0  0  0  0  0  0  0  0  0  0
    3.4010   14.5070  -10.5700 C   0  0  0  0  0  0  0  0  0  0  0  0
    2.2920   15.2740  -12.7290 C   0  0  0  0  0  0  0  0  0  0  0  0
    1.2100   14.8250   -5.9340 C   0  0  1  0  0  0  0  0  0  0  0  0
   -0.0390   15.6900   -5.6170 C   0  0  0  0  0  0  0  0  0  0  0  0
   -0.8150   14.9590   -4.4910 C   0  0  0  0  0  0  0  0  0  0  0  0
    0.1710   13.8860   -3.9720 C   0  0  1  0  0  0  0  0  0  0  0  0
    1.1170   14.6510   -2.9940 C   0  0  0  0  0  0  0  0  0  0  0  0
   -0.4690   12.6320   -3.2920 C   0  0  2  0  0  0  0  0  0  0  0  0
   -1.2780   12.9220   -2.0160 C   0  0  0  0  0  0  0  0  0  0  0  0
   -0.5010   12.8680   -0.7420 C   0  0  0  0  0  0  0  0  0  0  0  0
    0.7210   12.3220   -0.5940 C   0  0  0  0  0  0  0  0  0  0  0  0
    1.4050   11.5940   -1.7580 C   0  0  1  0  0  0  0  0  0  0  0  0
    1.9880   10.2470   -1.2550 C   0  0  0  0  0  0  0  0  0  0  0  0
    2.9110   10.4210   -0.0530 C   0  0  0  0  0  0  0  0  0  0  0  0
    2.1780   11.0960    1.1040 C   0  0  2  0  0  0  0  0  0  0  0  0
    1.1640   10.2100    1.5860 O   0  0  0  0  0  0  0  0  0  0  0  0
    1.5400   12.4580    0.7130 C   0  0  0  0  0  0  0  0  0  0  0  0
    2.6550   13.5080    0.4810 C   0  0  0  0  0  0  0  0  0  0  0  0
    0.7140   12.9640    1.9270 C   0  0  0  0  0  0  0  0  0  0  0  0
    0.5360   11.4280   -3.0780 C   0  0  1  0  0  0  0  0  0  0  0  0
   -0.3320   10.1350   -2.9850 C   0  0  0  0  0  0  0  0  0  0  0  0
    1.5000   11.2280   -4.3070 C   0  0  0  0  0  0  0  0  0  0  0  0
    2.0030   12.5030   -5.0100 C   0  0  0  0  0  0  0  0  0  0  0  0
    0.8400   13.4500   -5.3250 C   0  0  2  0  0  0  0  0  0  0  0  0
   -0.1180   12.7150   -6.3240 C   0  0  0  0  0  0  0  0  0  0  0  0
    3.5771   14.8515   -6.5661 H   0  0  0  0  0  0  0  0  0  0  0  0
    3.4208   13.9538   -8.1142 H   0  0  0  0  0  0  0  0  0  0  0  0
    3.4267   15.7501   -8.1142 H   0  0  0  0  0  0  0  0  0  0  0  0
    1.1999   13.9582   -7.9124 H   0  0  0  0  0  0  0  0  0  0  0  0
    0.0396   15.7447   -8.6280 H   0  0  0  0  0  0  0  0  0  0  0  0
    0.7105   16.8072   -7.2993 H   0  0  0  0  0  0  0  0  0  0  0  0
    1.7228   17.8742   -8.9963 H   0  0  0  0  0  0  0  0  0  0  0  0
    2.8973   16.4993   -8.8657 H   0  0  0  0  0  0  0  0  0  0  0  0
    1.3311   17.4223  -10.7776 H   0  0  0  0  0  0  0  0  0  0  0  0
    3.2945   14.5814   -9.4777 H   0  0  0  0  0  0  0  0  0  0  0  0
    3.3439   13.4511  -10.8729 H   0  0  0  0  0  0  0  0  0  0  0  0
    4.3731   14.9233  -10.8729 H   0  0  0  0  0  0  0  0  0  0  0  0
    1.2774   15.0486  -13.0893 H   0  0  0  0  0  0  0  0  0  0  0  0
    2.6012   16.2627  -13.0989 H   0  0  0  0  0  0  0  0  0  0  0  0
    2.9908   14.5092  -13.0989 H   0  0  0  0  0  0  0  0  0  0  0  0
    2.1507   15.1895   -5.4957 H   0  0  0  0  0  0  0  0  0  0  0  0
    0.2689   16.6899   -5.2773 H   0  0  0  0  0  0  0  0  0  0  0  0
   -0.6675   15.8188   -6.5105 H   0  0  0  0  0  0  0  0  0  0  0  0
   -1.0850   15.6597   -3.6872 H   0  0  0  0  0  0  0  0  0  0  0  0
   -1.7578   14.5208   -4.8503 H   0  0  0  0  0  0  0  0  0  0  0  0
    0.8340   14.4221   -1.9560 H   0  0  0  0  0  0  0  0  0  0  0  0
    2.1566   14.3366   -3.1684 H   0  0  0  0  0  0  0  0  0  0  0  0
    1.0271   15.7334   -3.1684 H   0  0  0  0  0  0  0  0  0  0  0  0
   -1.2039   12.3061   -4.0429 H   0  0  0  0  0  0  0  0  0  0  0  0
   -1.7092   13.9297   -2.1086 H   0  0  0  0  0  0  0  0  0  0  0  0
   -2.0325   12.1246   -1.9463 H   0  0  0  0  0  0  0  0  0  0  0  0
   -0.9660   13.3116    0.1508 H   0  0  0  0  0  0  0  0  0  0  0  0
    2.2207   12.2523   -2.0916 H   0  0  0  0  0  0  0  0  0  0  0  0
    1.1555    9.5879   -0.9677 H   0  0  0  0  0  0  0  0  0  0  0  0
    2.5832    9.8148   -2.0729 H   0  0  0  0  0  0  0  0  0  0  0  0
    3.2669    9.4328    0.2738 H   0  0  0  0  0  0  0  0  0  0  0  0
    3.7587   11.0559   -0.3500 H   0  0  0  0  0  0  0  0  0  0  0  0
    2.9215   11.3112    1.8856 H   0  0  0  0  0  0  0  0  0  0  0  0
    0.7740   10.6130    2.3800 H   0  0  0  0  0  0  0  0  0  0  0  0
    3.0320   13.8630    1.4515 H   0  0  0  0  0  0  0  0  0  0  0  0
    3.4781   13.0494   -0.0866 H   0  0  0  0  0  0  0  0  0  0  0  0
    2.2466   14.3572   -0.0866 H   0  0  0  0  0  0  0  0  0  0  0  0
    1.2103   12.6600    2.8604 H   0  0  0  0  0  0  0  0  0  0  0  0
    0.6425   14.0611    1.8902 H   0  0  0  0  0  0  0  0  0  0  0  0
   -0.2958   12.5293    1.8902 H   0  0  0  0  0  0  0  0  0  0  0  0
   -0.5015    9.8824   -1.9279 H   0  0  0  0  0  0  0  0  0  0  0  0
   -1.2989   10.3060   -3.4808 H   0  0  0  0  0  0  0  0  0  0  0  0
    0.1925    9.3048   -3.4808 H   0  0  0  0  0  0  0  0  0  0  0  0
    2.3815   10.6741   -3.9518 H   0  0  0  0  0  0  0  0  0  0  0  0
    0.8980   10.7014   -5.0622 H   0  0  0  0  0  0  0  0  0  0  0  0
    2.7187   13.0181   -4.3524 H   0  0  0  0  0  0  0  0  0  0  0  0
    2.4871   12.2151   -5.9549 H   0  0  0  0  0  0  0  0  0  0  0  0
   -0.8667   12.1406   -5.7587 H   0  0  0  0  0  0  0  0  0  0  0  0
   -0.6266   13.4568   -6.9573 H   0  0  0  0  0  0  0  0  0  0  0  0
    0.4668   12.0317   -6.9573 H   0  0  0  0  0  0  0  0  0  0  0  0
  1  2  1  0
  2  3  1  0
  3  4  1  0
  4  5  1  0
  5  6  1  0
  6  7  1  0
  7  8  1  0
  7  9  1  0
  2 10  1  0
 10 11  1  0
 11 12  1  0
 12 13  1  0
 13 14  1  1
 13 15  1  0
 15 16  1  0
 16 17  1  0
 17 18  2  0
 18 19  1  0
 19 20  1  0
 20 21  1  0
 21 22  1  0
 22 23  1  0
 22 24  1  0
 24 25  1  0
 24 26  1  0
 19 27  1  0
 27 28  1  1
 27 29  1  0
 29 30  1  0
 30 31  1  0
 31 32  1  6
  7  5  1  0
 31 10  1  0
 31 13  1  0
 27 15  1  0
 24 18  1  0
  1 33  1  0
  1 34  1  0
  1 35  1  0
  2 36  1  6
  3 37  1  0
  3 38  1  0
  4 39  1  0
  4 40  1  0
  5 41  1  6
  8 42  1  0
  8 43  1  0
  8 44  1  0
  9 45  1  0
  9 46  1  0
  9 47  1  0
 10 48  1  1
 11 49  1  0
 11 50  1  0
 12 51  1  0
 12 52  1  0
 14 53  1  0
 14 54  1  0
 14 55  1  0
 15 56  1  6
 16 57  1  0
 16 58  1  0
 17 59  1  0
 19 60  1  6
 20 61  1  0
 20 62  1  0
 21 63  1  0
 21 64  1  0
 22 65  1  1
 23 66  1  0
 25 67  1  0
 25 68  1  0
 25 69  1  0
 26 70  1  0
 26 71  1  0
 26 72  1  0
 28 73  1  0
 28 74  1  0
 28 75  1  0
 29 76  1  0
 29 77  1  0
 30 78  1  0
 30 79  1  0
 32 80  1  0
 32 81  1  0
 32 82  1  0
M  END
>  <meeko>  (19) 
{"is_sidechain": [false], "intermolecular_energy": 2.731, "internal_energy": -0.839}

$$$$
