EPH_relaxed_0001_pdb2pqr_Repair_205_r2_0001_out
     RDKit          3D

 82 86  0  0  0  0  0  0  0  0999 V2000
   -1.5870   19.5780   -0.8660 C   0  0  0  0  0  0  0  0  0  0  0  0
   -0.4280   19.0710   -0.0030 C   0  0  2  0  0  0  0  0  0  0  0  0
    0.5670   20.1940    0.3510 C   0  0  0  0  0  0  0  0  0  0  0  0
    1.0720   20.1370    1.7950 C   0  0  0  0  0  0  0  0  0  0  0  0
    2.5690   20.1070    1.8590 C   0  0  2  0  0  0  0  0  0  0  0  0
    3.1350   18.8000    2.0220 O   0  0  0  0  0  0  0  0  0  0  0  0
    3.3460   19.7220    3.1040 C   0  0  0  0  0  0  0  0  0  0  0  0
    2.6490   19.3420    4.3720 C   0  0  0  0  0  0  0  0  0  0  0  0
    4.7640   20.1840    3.2330 C   0  0  0  0  0  0  0  0  0  0  0  0
    0.2980   17.9390   -0.7200 C   0  0  1  0  0  0  0  0  0  0  0  0
    1.7700   18.2940   -1.0600 C   0  0  0  0  0  0  0  0  0  0  0  0
    2.5890   16.9850   -0.9230 C   0  0  0  0  0  0  0  0  0  0  0  0
    1.5250   15.8660   -0.8370 C   0  0  1  0  0  0  0  0  0  0  0  0
    1.1050   15.5970   -2.3160 C   0  0  0  0  0  0  0  0  0  0  0  0
    1.9620   14.5520   -0.1120 C   0  0  2  0  0  0  0  0  0  0  0  0
    3.1230   13.7940   -0.7790 C   0  0  0  0  0  0  0  0  0  0  0  0
    2.7200   12.7710   -1.7890 C   0  0  0  0  0  0  0  0  0  0  0  0
    1.4800   12.2700   -1.9430 C   0  0  0  0  0  0  0  0  0  0  0  0
    0.3480   12.6620   -0.9850 C   0  0  1  0  0  0  0  0  0  0  0  0
   -0.4210   11.3880   -0.5440 C   0  0  0  0  0  0  0  0  0  0  0  0
   -0.9170   10.5640   -1.7280 C   0  0  0  0  0  0  0  0  0  0  0  0
    0.2440   10.1450   -2.6260 C   0  0  2  0  0  0  0  0  0  0  0  0
    1.0760    9.2300   -1.9060 O   0  0  0  0  0  0  0  0  0  0  0  0
    1.0970   11.3450   -3.1250 C   0  0  0  0  0  0  0  0  0  0  0  0
    0.2810   12.1740   -4.1470 C   0  0  0  0  0  0  0  0  0  0  0  0
    2.3150   10.7750   -3.9010 C   0  0  0  0  0  0  0  0  0  0  0  0
    0.7650   13.5790    0.2430 C   0  0  1  0  0  0  0  0  0  0  0  0
    1.2510   12.6910    1.4300 C   0  0  0  0  0  0  0  0  0  0  0  0
   -0.5040   14.3550    0.7600 C   0  0  0  0  0  0  0  0  0  0  0  0
   -0.8140   15.7050    0.0860 C   0  0  0  0  0  0  0  0  0  0  0  0
    0.4340   16.5920    0.0320 C   0  0  2  0  0  0  0  0  0  0  0  0
    0.8660   16.8980    1.5070 C   0  0  0  0  0  0  0  0  0  0  0  0
   -2.4000   19.9336   -0.2159 H   0  0  0  0  0  0  0  0  0  0  0  0
   -1.2368   20.4051   -1.5010 H   0  0  0  0  0  0  0  0  0  0  0  0
   -1.9567   18.7594   -1.5010 H   0  0  0  0  0  0  0  0  0  0  0  0
   -0.8558   18.6997    0.9399 H   0  0  0  0  0  0  0  0  0  0  0  0
    1.4329   20.1158   -0.3229 H   0  0  0  0  0  0  0  0  0  0  0  0
    0.0299   21.1470    0.2360 H   0  0  0  0  0  0  0  0  0  0  0  0
    0.7100   21.0248    2.3343 H   0  0  0  0  0  0  0  0  0  0  0  0
    0.6910   19.2132    2.2548 H   0  0  0  0  0  0  0  0  0  0  0  0
    2.6385   20.9733    1.1847 H   0  0  0  0  0  0  0  0  0  0  0  0
    3.2499   19.6696    5.2331 H   0  0  0  0  0  0  0  0  0  0  0  0
    1.6624   19.8270    4.4076 H   0  0  0  0  0  0  0  0  0  0  0  0
    2.5222   18.2499    4.4076 H   0  0  0  0  0  0  0  0  0  0  0  0
    5.0264   20.2695    4.2978 H   0  0  0  0  0  0  0  0  0  0  0  0
    5.4321   19.4570    2.7480 H   0  0  0  0  0  0  0  0  0  0  0  0
    4.8756   21.1650    2.7480 H   0  0  0  0  0  0  0  0  0  0  0  0
   -0.3635   17.8188   -1.5906 H   0  0  0  0  0  0  0  0  0  0  0  0
    1.8391   18.6782   -2.0884 H   0  0  0  0  0  0  0  0  0  0  0  0
    2.1544   19.0728   -0.3850 H   0  0  0  0  0  0  0  0  0  0  0  0
    3.2365   16.8385   -1.8001 H   0  0  0  0  0  0  0  0  0  0  0  0
    3.2524   16.9980   -0.0457 H   0  0  0  0  0  0  0  0  0  0  0  0
    0.1788   15.0038   -2.3320 H   0  0  0  0  0  0  0  0  0  0  0  0
    0.9357   16.5551   -2.8291 H   0  0  0  0  0  0  0  0  0  0  0  0
    1.9045   15.0425   -2.8291 H   0  0  0  0  0  0  0  0  0  0  0  0
    2.3603   14.9297    0.8413 H   0  0  0  0  0  0  0  0  0  0  0  0
    3.7669   14.5315   -1.2805 H   0  0  0  0  0  0  0  0  0  0  0  0
    3.6295   13.2428    0.0270 H   0  0  0  0  0  0  0  0  0  0  0  0
    3.5025   12.3948   -2.4644 H   0  0  0  0  0  0  0  0  0  0  0  0
   -0.3201   13.3222   -1.5575 H   0  0  0  0  0  0  0  0  0  0  0  0
    0.2506   10.7635    0.0634 H   0  0  0  0  0  0  0  0  0  0  0  0
   -1.3021   11.7120    0.0294 H   0  0  0  0  0  0  0  0  0  0  0  0
   -1.4246    9.6634   -1.3523 H   0  0  0  0  0  0  0  0  0  0  0  0
   -1.6121   11.1798   -2.3175 H   0  0  0  0  0  0  0  0  0  0  0  0
   -0.1854    9.6719   -3.5214 H   0  0  0  0  0  0  0  0  0  0  0  0
    0.6480    9.0540   -1.0500 H   0  0  0  0  0  0  0  0  0  0  0  0
   -0.3924   12.8581   -3.6099 H   0  0  0  0  0  0  0  0  0  0  0  0
    0.9679   12.7564   -4.7786 H   0  0  0  0  0  0  0  0  0  0  0  0
   -0.3122   11.4963   -4.7786 H   0  0  0  0  0  0  0  0  0  0  0  0
    3.0721   10.4207   -3.1860 H   0  0  0  0  0  0  0  0  0  0  0  0
    1.9872    9.9368   -4.5334 H   0  0  0  0  0  0  0  0  0  0  0  0
    2.7486   11.5637   -4.5334 H   0  0  0  0  0  0  0  0  0  0  0  0
    0.9864   13.1745    2.3819 H   0  0  0  0  0  0  0  0  0  0  0  0
    0.7668   11.7050    1.3725 H   0  0  0  0  0  0  0  0  0  0  0  0
    2.3425   12.5674    1.3725 H   0  0  0  0  0  0  0  0  0  0  0  0
   -1.3766   13.7015    0.6132 H   0  0  0  0  0  0  0  0  0  0  0  0
   -0.2839   14.6006    1.8094 H   0  0  0  0  0  0  0  0  0  0  0  0
   -1.1697   15.5220   -0.9387 H   0  0  0  0  0  0  0  0  0  0  0  0
   -1.5855   16.2217    0.6757 H   0  0  0  0  0  0  0  0  0  0  0  0
    0.1705   16.4054    2.2025 H   0  0  0  0  0  0  0  0  0  0  0  0
    1.8845   16.5188    1.6769 H   0  0  0  0  0  0  0  0  0  0  0  0
    0.8462   17.9846    1.6769 H   0  0  0  0  0  0  0  0  0  0  0  0
  1  2  1  0
  2  3  1  0
  3  4  1  0
  4  5  1  0
  5  6  1  0
  6  7  1  0
  7  8  1  0
  7  9  1  0
  2 10  1  0
 10 11  1  0
 11 12  1  0
 12 13  1  0
 13 14  1  6
 13 15  1  0
 15 16  1  0
 16 17  1  0
 17 18  2  0
 18 19  1  0
 19 20  1  0
 20 21  1  0
 21 22  1  0
 22 23  1  0
 22 24  1  0
 24 25  1  0
 24 26  1  0
 19 27  1  0
 27 28  1  1
 27 29  1  0
 29 30  1  0
 30 31  1  0
 31 32  1  1
  7  5  1  0
 31 10  1  0
 31 13  1  0
 27 15  1  0
 24 18  1  0
  1 33  1  0
  1 34  1  0
  1 35  1  0
  2 36  1  1
  3 37  1  0
  3 38  1  0
  4 39  1  0
  4 40  1  0
  5 41  1  6
  8 42  1  0
  8 43  1  0
  8 44  1  0
  9 45  1  0
  9 46  1  0
  9 47  1  0
 10 48  1  6
 11 49  1  0
 11 50  1  0
 12 51  1  0
 12 52  1  0
 14 53  1  0
 14 54  1  0
 14 55  1  0
 15 56  1  1
 16 57  1  0
 16 58  1  0
 17 59  1  0
 19 60  1  6
 20 61  1  0
 20 62  1  0
 21 63  1  0
 21 64  1  0
 22 65  1  6
 23 66  1  0
 25 67  1  0
 25 68  1  0
 25 69  1  0
 26 70  1  0
 26 71  1  0
 26 72  1  0
 28 73  1  0
 28 74  1  0
 28 75  1  0
 29 76  1  0
 29 77  1  0
 30 78  1  0
 30 79  1  0
 32 80  1  0
 32 81  1  0
 32 82  1  0
M  END
>  <meeko>  (1) 
{"is_sidechain": [false], "intermolecular_energy": 2.731, "internal_energy": -0.839}

$$$$
EPH_relaxed_0001_pdb2pqr_Repair_205_r2_0001_out
     RDKit          3D

 82 86  0  0  0  0  0  0  0  0999 V2000
   -1.4530    8.4620   -1.7240 C   0  0  0  0  0  0  0  0  0  0  0  0
   -1.8220    9.1420   -0.4030 C   0  0  2  0  0  0  0  0  0  0  0  0
   -3.2760    9.6560   -0.4010 C   0  0  0  0  0  0  0  0  0  0  0  0
   -4.3200    8.5440   -0.2710 C   0  0  0  0  0  0  0  0  0  0  0  0
   -4.9370    8.2050   -1.5940 C   0  0  2  0  0  0  0  0  0  0  0  0
   -6.3210    8.5550   -1.7170 O   0  0  0  0  0  0  0  0  0  0  0  0
   -6.0150    7.1520   -1.7690 C   0  0  0  0  0  0  0  0  0  0  0  0
   -6.5390    6.3710   -0.6060 C   0  0  0  0  0  0  0  0  0  0  0  0
   -6.2070    6.5430   -3.1230 C   0  0  0  0  0  0  0  0  0  0  0  0
   -0.8620   10.2940   -0.1260 C   0  0  1  0  0  0  0  0  0  0  0  0
    0.3780    9.8530    0.6960 C   0  0  0  0  0  0  0  0  0  0  0  0
    1.5750   10.6970    0.1860 C   0  0  0  0  0  0  0  0  0  0  0  0
    0.9300   11.8140   -0.6660 C   0  0  1  0  0  0  0  0  0  0  0  0
    0.4550   12.8830    0.3670 C   0  0  0  0  0  0  0  0  0  0  0  0
    1.8330   12.4460   -1.7760 C   0  0  2  0  0  0  0  0  0  0  0  0
    3.0910   13.1660   -1.2610 C   0  0  0  0  0  0  0  0  0  0  0  0
    2.9190   14.6200   -0.9680 C   0  0  0  0  0  0  0  0  0  0  0  0
    1.8880   15.3830   -1.3770 C   0  0  0  0  0  0  0  0  0  0  0  0
    0.8030   14.8140   -2.3000 C   0  0  1  0  0  0  0  0  0  0  0  0
    0.5250   15.8150   -3.4510 C   0  0  0  0  0  0  0  0  0  0  0  0
    0.1830   17.2120   -2.9420 C   0  0  0  0  0  0  0  0  0  0  0  0
    1.3110   17.7680   -2.0760 C   0  0  2  0  0  0  0  0  0  0  0  0
    2.4600   17.9840   -2.9000 O   0  0  0  0  0  0  0  0  0  0  0  0
    1.6860   16.8390   -0.8880 C   0  0  0  0  0  0  0  0  0  0  0  0
    0.5440   16.8450    0.1590 C   0  0  0  0  0  0  0  0  0  0  0  0
    2.9270   17.4460   -0.1800 C   0  0  0  0  0  0  0  0  0  0  0  0
    1.0460   13.3330   -2.8240 C   0  0  1  0  0  0  0  0  0  0  0  0
    1.9120   13.3630   -4.1200 C   0  0  0  0  0  0  0  0  0  0  0  0
   -0.3360   12.6970   -3.2280 C   0  0  0  0  0  0  0  0  0  0  0  0
   -1.1250   11.9840   -2.1140 C   0  0  0  0  0  0  0  0  0  0  0  0
   -0.2300   11.0030   -1.3500 C   0  0  2  0  0  0  0  0  0  0  0  0
    0.2450    9.9040   -2.3590 C   0  0  0  0  0  0  0  0  0  0  0  0
   -0.9378    7.5126   -1.5163 H   0  0  0  0  0  0  0  0  0  0  0  0
   -2.3674    8.2640   -2.3025 H   0  0  0  0  0  0  0  0  0  0  0  0
   -0.7886    9.1208   -2.3025 H   0  0  0  0  0  0  0  0  0  0  0  0
   -1.7374    8.3875    0.3930 H   0  0  0  0  0  0  0  0  0  0  0  0
   -3.3987   10.3485    0.4448 H   0  0  0  0  0  0  0  0  0  0  0  0
   -3.4459   10.1456   -1.3713 H   0  0  0  0  0  0  0  0  0  0  0  0
   -3.8344    7.6451    0.1366 H   0  0  0  0  0  0  0  0  0  0  0  0
   -5.1175    8.8992    0.3982 H   0  0  0  0  0  0  0  0  0  0  0  0
   -3.9802    8.3742   -2.1096 H   0  0  0  0  0  0  0  0  0  0  0  0
   -6.2182    6.8492    0.3312 H   0  0  0  0  0  0  0  0  0  0  0  0
   -7.6379    6.3451   -0.6470 H   0  0  0  0  0  0  0  0  0  0  0  0
   -6.1463    5.3443   -0.6470 H   0  0  0  0  0  0  0  0  0  0  0  0
   -6.5361    5.4992   -3.0123 H   0  0  0  0  0  0  0  0  0  0  0  0
   -6.9696    7.1112   -3.6758 H   0  0  0  0  0  0  0  0  0  0  0  0
   -5.2564    6.5711   -3.6758 H   0  0  0  0  0  0  0  0  0  0  0  0
   -1.5440   10.9813    0.3959 H   0  0  0  0  0  0  0  0  0  0  0  0
    0.2098   10.0421    1.7665 H   0  0  0  0  0  0  0  0  0  0  0  0
    0.5718    8.7772    0.5728 H   0  0  0  0  0  0  0  0  0  0  0  0
    2.1347   11.1266    1.0299 H   0  0  0  0  0  0  0  0  0  0  0  0
    2.2939   10.0957   -0.3899 H   0  0  0  0  0  0  0  0  0  0  0  0
    0.6221   12.5068    1.3871 H   0  0  0  0  0  0  0  0  0  0  0  0
    1.0248   13.8125    0.2210 H   0  0  0  0  0  0  0  0  0  0  0  0
   -0.6167   13.0831    0.2210 H   0  0  0  0  0  0  0  0  0  0  0  0
    2.1970   11.5606   -2.3178 H   0  0  0  0  0  0  0  0  0  0  0  0
    3.4120   12.6682   -0.3341 H   0  0  0  0  0  0  0  0  0  0  0  0
    3.8305   13.1047   -2.0730 H   0  0  0  0  0  0  0  0  0  0  0  0
    3.7003   15.1088   -0.3675 H   0  0  0  0  0  0  0  0  0  0  0  0
   -0.0974   14.7017   -1.6782 H   0  0  0  0  0  0  0  0  0  0  0  0
    1.4212   15.8805   -4.0854 H   0  0  0  0  0  0  0  0  0  0  0  0
   -0.3436   15.4431   -4.0142 H   0  0  0  0  0  0  0  0  0  0  0  0
    0.0263   17.8801   -3.8017 H   0  0  0  0  0  0  0  0  0  0  0  0
   -0.7302   17.1498   -2.3320 H   0  0  0  0  0  0  0  0  0  0  0  0
    0.9553   18.7111   -1.6355 H   0  0  0  0  0  0  0  0  0  0  0  0
    2.9220   17.1330   -2.9890 H   0  0  0  0  0  0  0  0  0  0  0  0
    0.9746   16.8427    1.1712 H   0  0  0  0  0  0  0  0  0  0  0  0
   -0.0720   17.7464    0.0246 H   0  0  0  0  0  0  0  0  0  0  0  0
   -0.0814   15.9501    0.0246 H   0  0  0  0  0  0  0  0  0  0  0  0
    2.7952   17.3815    0.9102 H   0  0  0  0  0  0  0  0  0  0  0  0
    3.8272   16.8865   -0.4742 H   0  0  0  0  0  0  0  0  0  0  0  0
    3.0380   18.5001   -0.4742 H   0  0  0  0  0  0  0  0  0  0  0  0
    2.9773   13.3999   -3.8484 H   0  0  0  0  0  0  0  0  0  0  0  0
    1.7160   12.4575   -4.7130 H   0  0  0  0  0  0  0  0  0  0  0  0
    1.6538   14.2527   -4.7130 H   0  0  0  0  0  0  0  0  0  0  0  0
   -0.9714   13.5042   -3.6213 H   0  0  0  0  0  0  0  0  0  0  0  0
   -0.0886   11.9091   -3.9546 H   0  0  0  0  0  0  0  0  0  0  0  0
   -1.5161   12.7356   -1.4124 H   0  0  0  0  0  0  0  0  0  0  0  0
   -1.9502   11.4206   -2.5741 H   0  0  0  0  0  0  0  0  0  0  0  0
    0.6214    9.0332   -1.8023 H   0  0  0  0  0  0  0  0  0  0  0  0
   -0.6008    9.5970   -2.9918 H   0  0  0  0  0  0  0  0  0  0  0  0
    1.0481   10.3097   -2.9918 H   0  0  0  0  0  0  0  0  0  0  0  0
  1  2  1  0
  2  3  1  0
  3  4  1  0
  4  5  1  0
  5  6  1  0
  6  7  1  0
  7  8  1  0
  7  9  1  0
  2 10  1  0
 10 11  1  0
 11 12  1  0
 12 13  1  0
 13 14  1  1
 13 15  1  0
 15 16  1  0
 16 17  1  0
 17 18  2  0
 18 19  1  0
 19 20  1  0
 20 21  1  0
 21 22  1  0
 22 23  1  0
 22 24  1  0
 24 25  1  0
 24 26  1  0
 19 27  1  0
 27 28  1  6
 27 29  1  0
 29 30  1  0
 30 31  1  0
 31 32  1  6
  7  5  1  0
 31 10  1  0
 31 13  1  0
 27 15  1  0
 24 18  1  0
  1 33  1  0
  1 34  1  0
  1 35  1  0
  2 36  1  1
  3 37  1  0
  3 38  1  0
  4 39  1  0
  4 40  1  0
  5 41  1  6
  8 42  1  0
  8 43  1  0
  8 44  1  0
  9 45  1  0
  9 46  1  0
  9 47  1  0
 10 48  1  1
 11 49  1  0
 11 50  1  0
 12 51  1  0
 12 52  1  0
 14 53  1  0
 14 54  1  0
 14 55  1  0
 15 56  1  6
 16 57  1  0
 16 58  1  0
 17 59  1  0
 19 60  1  1
 20 61  1  0
 20 62  1  0
 21 63  1  0
 21 64  1  0
 22 65  1  1
 23 66  1  0
 25 67  1  0
 25 68  1  0
 25 69  1  0
 26 70  1  0
 26 71  1  0
 26 72  1  0
 28 73  1  0
 28 74  1  0
 28 75  1  0
 29 76  1  0
 29 77  1  0
 30 78  1  0
 30 79  1  0
 32 80  1  0
 32 81  1  0
 32 82  1  0
M  END
>  <meeko>  (2) 
{"is_sidechain": [false], "intermolecular_energy": 2.731, "internal_energy": -0.839}

$$$$
EPH_relaxed_0001_pdb2pqr_Repair_205_r2_0001_out
     RDKit          3D

 82 86  0  0  0  0  0  0  0  0999 V2000
    2.8920   18.9720    0.0260 C   0  0  0  0  0  0  0  0  0  0  0  0
    1.5720   18.8150    0.7880 C   0  0  2  0  0  0  0  0  0  0  0  0
    1.6480   19.4080    2.2090 C   0  0  0  0  0  0  0  0  0  0  0  0
    2.9640   20.1340    2.5040 C   0  0  0  0  0  0  0  0  0  0  0  0
    3.8090   19.3750    3.4820 C   0  0  2  0  0  0  0  0  0  0  0  0
    4.5610   20.1940    4.3860 O   0  0  0  0  0  0  0  0  0  0  0  0
    5.3260   19.3950    3.4690 C   0  0  0  0  0  0  0  0  0  0  0  0
    6.0870   20.1920    2.4560 C   0  0  0  0  0  0  0  0  0  0  0  0
    6.0620   18.2670    4.1220 C   0  0  0  0  0  0  0  0  0  0  0  0
    1.1850   17.3420    0.8580 C   0  0  1  0  0  0  0  0  0  0  0  0
   -0.1360   17.1080    1.6380 C   0  0  0  0  0  0  0  0  0  0  0  0
   -0.8580   15.9220    0.9490 C   0  0  0  0  0  0  0  0  0  0  0  0
    0.2100   15.3030    0.0170 C   0  0  1  0  0  0  0  0  0  0  0  0
    1.0780   14.3990    0.9470 C   0  0  0  0  0  0  0  0  0  0  0  0
   -0.3260   14.5120   -1.2200 C   0  0  2  0  0  0  0  0  0  0  0  0
   -1.1700   13.2700   -0.8850 C   0  0  0  0  0  0  0  0  0  0  0  0
   -0.4040   11.9950   -0.7560 C   0  0  0  0  0  0  0  0  0  0  0  0
    0.8580   11.7940   -1.1780 C   0  0  0  0  0  0  0  0  0  0  0  0
    1.6130   12.8850   -1.9480 C   0  0  1  0  0  0  0  0  0  0  0  0
    2.3050   12.2590   -3.1880 C   0  0  0  0  0  0  0  0  0  0  0  0
    3.1970   11.0760   -2.8260 C   0  0  0  0  0  0  0  0  0  0  0  0
    2.3980    9.9880   -2.1140 C   0  0  2  0  0  0  0  0  0  0  0  0
    1.4580    9.4280   -3.0360 O   0  0  0  0  0  0  0  0  0  0  0  0
    1.6490   10.5040   -0.8530 C   0  0  0  0  0  0  0  0  0  0  0  0
    2.6720   10.8290    0.2630 C   0  0  0  0  0  0  0  0  0  0  0  0
    0.7710    9.3440   -0.3110 C   0  0  0  0  0  0  0  0  0  0  0  0
    0.7750   14.1860   -2.3090 C   0  0  1  0  0  0  0  0  0  0  0  0
    0.0210   13.9770   -3.6570 C   0  0  0  0  0  0  0  0  0  0  0  0
    1.7660   15.3890   -2.5370 C   0  0  0  0  0  0  0  0  0  0  0  0
    2.1640   16.2060   -1.2930 C   0  0  0  0  0  0  0  0  0  0  0  0
    0.9290   16.6100   -0.4830 C   0  0  2  0  0  0  0  0  0  0  0  0
    0.0470   17.5390   -1.3850 C   0  0  0  0  0  0  0  0  0  0  0  0
    3.7200   19.0705    0.7434 H   0  0  0  0  0  0  0  0  0  0  0  0
    3.0579   18.0873   -0.6062 H   0  0  0  0  0  0  0  0  0  0  0  0
    2.8457   19.8710   -0.6062 H   0  0  0  0  0  0  0  0  0  0  0  0
    0.8026   19.3760    0.2372 H   0  0  0  0  0  0  0  0  0  0  0  0
    0.8217   20.1237    2.3312 H   0  0  0  0  0  0  0  0  0  0  0  0
    1.5812   18.5653    2.9128 H   0  0  0  0  0  0  0  0  0  0  0  0
    3.5245   20.2517    1.5648 H   0  0  0  0  0  0  0  0  0  0  0  0
    2.7242   21.1126    2.9453 H   0  0  0  0  0  0  0  0  0  0  0  0
    3.0822   18.5497    3.5049 H   0  0  0  0  0  0  0  0  0  0  0  0
    6.7581   20.8949    2.9714 H   0  0  0  0  0  0  0  0  0  0  0  0
    6.6807   19.5132    1.8261 H   0  0  0  0  0  0  0  0  0  0  0  0
    5.3815   20.7537    1.8261 H   0  0  0  0  0  0  0  0  0  0  0  0
    5.9951   18.3696    5.2152 H   0  0  0  0  0  0  0  0  0  0  0  0
    5.6137   17.3104    3.8154 H   0  0  0  0  0  0  0  0  0  0  0  0
    7.1181   18.2920    3.8154 H   0  0  0  0  0  0  0  0  0  0  0  0
    2.0863   16.9369    1.3413 H   0  0  0  0  0  0  0  0  0  0  0  0
    0.0824   16.8605    2.6873 H   0  0  0  0  0  0  0  0  0  0  0  0
   -0.7642   18.0109    1.6307 H   0  0  0  0  0  0  0  0  0  0  0  0
   -1.1957   15.1870    1.6945 H   0  0  0  0  0  0  0  0  0  0  0  0
   -1.7556   16.2424    0.3997 H   0  0  0  0  0  0  0  0  0  0  0  0
    0.8539   14.6324    1.9983 H   0  0  0  0  0  0  0  0  0  0  0  0
    0.8481   13.3417    0.7491 H   0  0  0  0  0  0  0  0  0  0  0  0
    2.1438   14.5858    0.7491 H   0  0  0  0  0  0  0  0  0  0  0  0
   -1.0217   15.2320   -1.6757 H   0  0  0  0  0  0  0  0  0  0  0  0
   -1.6843   13.4557    0.0695 H   0  0  0  0  0  0  0  0  0  0  0  0
   -1.8550   13.1292   -1.7341 H   0  0  0  0  0  0  0  0  0  0  0  0
   -0.9147   11.1477   -0.2750 H   0  0  0  0  0  0  0  0  0  0  0  0
    2.3718   13.2764   -1.2545 H   0  0  0  0  0  0  0  0  0  0  0  0
    1.5295   11.9145   -3.8879 H   0  0  0  0  0  0  0  0  0  0  0  0
    2.9437   13.0325   -3.6394 H   0  0  0  0  0  0  0  0  0  0  0  0
    3.6327   10.6589   -3.7459 H   0  0  0  0  0  0  0  0  0  0  0  0
    3.9901   11.4283   -2.1501 H   0  0  0  0  0  0  0  0  0  0  0  0
    3.1131    9.2284   -1.7654 H   0  0  0  0  0  0  0  0  0  0  0  0
    0.9610    8.7370   -2.5670 H   0  0  0  0  0  0  0  0  0  0  0  0
    2.2019   10.6796    1.2462 H   0  0  0  0  0  0  0  0  0  0  0  0
    3.5424   10.1631    0.1678 H   0  0  0  0  0  0  0  0  0  0  0  0
    2.9985   11.8751    0.1678 H   0  0  0  0  0  0  0  0  0  0  0  0
    0.7821    9.3587    0.7888 H   0  0  0  0  0  0  0  0  0  0  0  0
   -0.2618    9.4677   -0.6689 H   0  0  0  0  0  0  0  0  0  0  0  0
    1.1705    8.3836   -0.6689 H   0  0  0  0  0  0  0  0  0  0  0  0
   -1.0207   13.6882   -3.4535 H   0  0  0  0  0  0  0  0  0  0  0  0
    0.0359   14.9131   -4.2344 H   0  0  0  0  0  0  0  0  0  0  0  0
    0.5157   13.1821   -4.2344 H   0  0  0  0  0  0  0  0  0  0  0  0
    2.6883   14.9817   -2.9768 H   0  0  0  0  0  0  0  0  0  0  0  0
    1.2202   16.0935   -3.1817 H   0  0  0  0  0  0  0  0  0  0  0  0
    2.8261   15.5973   -0.6597 H   0  0  0  0  0  0  0  0  0  0  0  0
    2.6798   17.1194   -1.6242 H   0  0  0  0  0  0  0  0  0  0  0  0
   -0.5705   18.1894   -0.7481 H   0  0  0  0  0  0  0  0  0  0  0  0
    0.6975   18.1583   -2.0201 H   0  0  0  0  0  0  0  0  0  0  0  0
   -0.6052   16.9215   -2.0201 H   0  0  0  0  0  0  0  0  0  0  0  0
  1  2  1  0
  2  3  1  0
  3  4  1  0
  4  5  1  0
  5  6  1  0
  6  7  1  0
  7  8  1  0
  7  9  1  0
  2 10  1  0
 10 11  1  0
 11 12  1  0
 12 13  1  0
 13 14  1  1
 13 15  1  0
 15 16  1  0
 16 17  1  0
 17 18  2  0
 18 19  1  0
 19 20  1  0
 20 21  1  0
 21 22  1  0
 22 23  1  0
 22 24  1  0
 24 25  1  0
 24 26  1  0
 19 27  1  0
 27 28  1  6
 27 29  1  0
 29 30  1  0
 30 31  1  0
 31 32  1  6
  7  5  1  0
 31 10  1  0
 31 13  1  0
 27 15  1  0
 24 18  1  0
  1 33  1  0
  1 34  1  0
  1 35  1  0
  2 36  1  6
  3 37  1  0
  3 38  1  0
  4 39  1  0
  4 40  1  0
  5 41  1  1
  8 42  1  0
  8 43  1  0
  8 44  1  0
  9 45  1  0
  9 46  1  0
  9 47  1  0
 10 48  1  1
 11 49  1  0
 11 50  1  0
 12 51  1  0
 12 52  1  0
 14 53  1  0
 14 54  1  0
 14 55  1  0
 15 56  1  6
 16 57  1  0
 16 58  1  0
 17 59  1  0
 19 60  1  1
 20 61  1  0
 20 62  1  0
 21 63  1  0
 21 64  1  0
 22 65  1  1
 23 66  1  0
 25 67  1  0
 25 68  1  0
 25 69  1  0
 26 70  1  0
 26 71  1  0
 26 72  1  0
 28 73  1  0
 28 74  1  0
 28 75  1  0
 29 76  1  0
 29 77  1  0
 30 78  1  0
 30 79  1  0
 32 80  1  0
 32 81  1  0
 32 82  1  0
M  END
>  <meeko>  (3) 
{"is_sidechain": [false], "intermolecular_energy": 2.731, "internal_energy": -0.839}

$$$$
EPH_relaxed_0001_pdb2pqr_Repair_205_r2_0001_out
     RDKit          3D

 82 86  0  0  0  0  0  0  0  0999 V2000
    4.0280   17.9130   -0.1980 C   0  0  0  0  0  0  0  0  0  0  0  0
    2.6060   18.3970    0.1000 C   0  0  2  0  0  0  0  0  0  0  0  0
    2.5210   19.1590    1.4370 C   0  0  0  0  0  0  0  0  0  0  0  0
    3.8140   19.8860    1.8150 C   0  0  0  0  0  0  0  0  0  0  0  0
    4.4370   19.3040    3.0480 C   0  0  2  0  0  0  0  0  0  0  0  0
    5.3110   20.1940    3.7540 O   0  0  0  0  0  0  0  0  0  0  0  0
    5.9230   19.0270    3.1820 C   0  0  0  0  0  0  0  0  0  0  0  0
    6.8760   19.3240    2.0670 C   0  0  0  0  0  0  0  0  0  0  0  0
    6.3750   18.0240    4.1970 C   0  0  0  0  0  0  0  0  0  0  0  0
    1.6470   17.2130    0.1120 C   0  0  1  0  0  0  0  0  0  0  0  0
    0.1690   17.6400   -0.0980 C   0  0  0  0  0  0  0  0  0  0  0  0
   -0.5110   16.5120   -0.9160 C   0  0  0  0  0  0  0  0  0  0  0  0
    0.4920   15.3350   -0.8650 C   0  0  1  0  0  0  0  0  0  0  0  0
    0.2420   14.6550    0.5180 C   0  0  0  0  0  0  0  0  0  0  0  0
    0.4080   14.3040   -2.0380 C   0  0  2  0  0  0  0  0  0  0  0  0
   -0.9250   13.5430   -2.1440 C   0  0  0  0  0  0  0  0  0  0  0  0
   -0.9880   12.2590   -1.3850 C   0  0  0  0  0  0  0  0  0  0  0  0
    0.0690   11.5950   -0.8810 C   0  0  0  0  0  0  0  0  0  0  0  0
    1.5000   12.0810   -1.1410 C   0  0  1  0  0  0  0  0  0  0  0  0
    2.3860   10.8800   -1.5620 C   0  0  0  0  0  0  0  0  0  0  0  0
    2.3330    9.7320   -0.5580 C   0  0  0  0  0  0  0  0  0  0  0  0
    0.9000    9.2380   -0.3710 C   0  0  2  0  0  0  0  0  0  0  0  0
    0.4570    8.6370   -1.5910 O   0  0  0  0  0  0  0  0  0  0  0  0
   -0.0870   10.3650    0.0460 C   0  0  0  0  0  0  0  0  0  0  0  0
    0.2140   10.8090    1.4980 C   0  0  0  0  0  0  0  0  0  0  0  0
   -1.5180    9.7630    0.0630 C   0  0  0  0  0  0  0  0  0  0  0  0
    1.6440   13.3200   -2.1260 C   0  0  1  0  0  0  0  0  0  0  0  0
    1.7130   12.8220   -3.6020 C   0  0  0  0  0  0  0  0  0  0  0  0
    3.0100   14.0490   -1.8390 C   0  0  0  0  0  0  0  0  0  0  0  0
    3.0010   15.1400   -0.7520 C   0  0  0  0  0  0  0  0  0  0  0  0
    1.8470   16.1230   -0.9710 C   0  0  2  0  0  0  0  0  0  0  0  0
    2.0830   16.8390   -2.3450 C   0  0  0  0  0  0  0  0  0  0  0  0
    4.5595   17.7321    0.7479 H   0  0  0  0  0  0  0  0  0  0  0  0
    3.9836   16.9794   -0.7780 H   0  0  0  0  0  0  0  0  0  0  0  0
    4.5623   18.6799   -0.7780 H   0  0  0  0  0  0  0  0  0  0  0  0
    2.3201   19.0985   -0.6976 H   0  0  0  0  0  0  0  0  0  0  0  0
    1.7138   19.9026    1.3621 H   0  0  0  0  0  0  0  0  0  0  0  0
    2.3319   18.4113    2.2213 H   0  0  0  0  0  0  0  0  0  0  0  0
    4.5270   19.8019    0.9816 H   0  0  0  0  0  0  0  0  0  0  0  0
    3.5685   20.9387    2.0189 H   0  0  0  0  0  0  0  0  0  0  0  0
    3.5502   18.6793    3.2306 H   0  0  0  0  0  0  0  0  0  0  0  0
    7.8472   19.6267    2.4856 H   0  0  0  0  0  0  0  0  0  0  0  0
    7.0079   18.4243    1.4479 H   0  0  0  0  0  0  0  0  0  0  0  0
    6.4734   20.1393    1.4479 H   0  0  0  0  0  0  0  0  0  0  0  0
    6.1968   18.4195    5.2079 H   0  0  0  0  0  0  0  0  0  0  0  0
    5.8113   17.0887    4.0645 H   0  0  0  0  0  0  0  0  0  0  0  0
    7.4490   17.8267    4.0645 H   0  0  0  0  0  0  0  0  0  0  0  0
    1.8754   16.8014    1.1062 H   0  0  0  0  0  0  0  0  0  0  0  0
   -0.3327   17.7584    0.8737 H   0  0  0  0  0  0  0  0  0  0  0  0
    0.1075   18.6029   -0.6263 H   0  0  0  0  0  0  0  0  0  0  0  0
   -1.4699   16.2252   -0.4597 H   0  0  0  0  0  0  0  0  0  0  0  0
   -0.7382   16.8225   -1.9465 H   0  0  0  0  0  0  0  0  0  0  0  0
    0.5003   15.3575    1.3240 H   0  0  0  0  0  0  0  0  0  0  0  0
   -0.8182   14.3741    0.6022 H   0  0  0  0  0  0  0  0  0  0  0  0
    0.8678   13.7543    0.6022 H   0  0  0  0  0  0  0  0  0  0  0  0
    0.4527   14.9526   -2.9253 H   0  0  0  0  0  0  0  0  0  0  0  0
   -1.7225   14.2002   -1.7671 H   0  0  0  0  0  0  0  0  0  0  0  0
   -1.0393   13.2755   -3.2048 H   0  0  0  0  0  0  0  0  0  0  0  0
   -1.9828   11.8180   -1.2239 H   0  0  0  0  0  0  0  0  0  0  0  0
    1.8587   12.4935   -0.1864 H   0  0  0  0  0  0  0  0  0  0  0  0
    2.0385   10.5108   -2.5382 H   0  0  0  0  0  0  0  0  0  0  0  0
    3.4265   11.2337   -1.6094 H   0  0  0  0  0  0  0  0  0  0  0  0
    2.9548    8.9026   -0.9260 H   0  0  0  0  0  0  0  0  0  0  0  0
    2.7094   10.0939    0.4102 H   0  0  0  0  0  0  0  0  0  0  0  0
    0.9071    8.5076    0.4515 H   0  0  0  0  0  0  0  0  0  0  0  0
   -0.4900    8.8350   -1.6890 H   0  0  0  0  0  0  0  0  0  0  0  0
   -0.2606   10.1089    2.2013 H   0  0  0  0  0  0  0  0  0  0  0  0
    1.3017   10.8128    1.6623 H   0  0  0  0  0  0  0  0  0  0  0  0
   -0.1852   11.8208    1.6623 H   0  0  0  0  0  0  0  0  0  0  0  0
   -1.8455    9.6252    1.1040 H   0  0  0  0  0  0  0  0  0  0  0  0
   -2.2095   10.4465   -0.4515 H   0  0  0  0  0  0  0  0  0  0  0  0
   -1.5129    8.7908   -0.4515 H   0  0  0  0  0  0  0  0  0  0  0  0
    1.8640   11.7325   -3.6147 H   0  0  0  0  0  0  0  0  0  0  0  0
    0.7722   13.0678   -4.1163 H   0  0  0  0  0  0  0  0  0  0  0  0
    2.5515   13.3144   -4.1163 H   0  0  0  0  0  0  0  0  0  0  0  0
    3.7385   13.2828   -1.5352 H   0  0  0  0  0  0  0  0  0  0  0  0
    3.2564   14.5757   -2.7728 H   0  0  0  0  0  0  0  0  0  0  0  0
    2.8869   14.6650    0.2336 H   0  0  0  0  0  0  0  0  0  0  0  0
    3.9492   15.6951   -0.8046 H   0  0  0  0  0  0  0  0  0  0  0  0
    2.4228   17.8700   -2.1676 H   0  0  0  0  0  0  0  0  0  0  0  0
    2.8489   16.2936   -2.9159 H   0  0  0  0  0  0  0  0  0  0  0  0
    1.1429   16.8559   -2.9159 H   0  0  0  0  0  0  0  0  0  0  0  0
  1  2  1  0
  2  3  1  0
  3  4  1  0
  4  5  1  0
  5  6  1  0
  6  7  1  0
  7  8  1  0
  7  9  1  0
  2 10  1  0
 10 11  1  0
 11 12  1  0
 12 13  1  0
 13 14  1  1
 13 15  1  0
 15 16  1  0
 16 17  1  0
 17 18  2  0
 18 19  1  0
 19 20  1  0
 20 21  1  0
 21 22  1  0
 22 23  1  0
 22 24  1  0
 24 25  1  0
 24 26  1  0
 19 27  1  0
 27 28  1  6
 27 29  1  0
 29 30  1  0
 30 31  1  0
 31 32  1  6
  7  5  1  0
 31 10  1  0
 31 13  1  0
 27 15  1  0
 24 18  1  0
  1 33  1  0
  1 34  1  0
  1 35  1  0
  2 36  1  6
  3 37  1  0
  3 38  1  0
  4 39  1  0
  4 40  1  0
  5 41  1  1
  8 42  1  0
  8 43  1  0
  8 44  1  0
  9 45  1  0
  9 46  1  0
  9 47  1  0
 10 48  1  1
 11 49  1  0
 11 50  1  0
 12 51  1  0
 12 52  1  0
 14 53  1  0
 14 54  1  0
 14 55  1  0
 15 56  1  6
 16 57  1  0
 16 58  1  0
 17 59  1  0
 19 60  1  1
 20 61  1  0
 20 62  1  0
 21 63  1  0
 21 64  1  0
 22 65  1  1
 23 66  1  0
 25 67  1  0
 25 68  1  0
 25 69  1  0
 26 70  1  0
 26 71  1  0
 26 72  1  0
 28 73  1  0
 28 74  1  0
 28 75  1  0
 29 76  1  0
 29 77  1  0
 30 78  1  0
 30 79  1  0
 32 80  1  0
 32 81  1  0
 32 82  1  0
M  END
>  <meeko>  (4) 
{"is_sidechain": [false], "intermolecular_energy": 2.731, "internal_energy": -0.839}

$$$$
EPH_relaxed_0001_pdb2pqr_Repair_205_r2_0001_out
     RDKit          3D

 82 86  0  0  0  0  0  0  0  0999 V2000
    1.9180   18.6130   -2.5130 C   0  0  0  0  0  0  0  0  0  0  0  0
    0.7200   18.0510   -1.7440 C   0  0  2  0  0  0  0  0  0  0  0  0
    0.9520   18.0600   -0.2200 C   0  0  0  0  0  0  0  0  0  0  0  0
    1.2110   19.4550    0.3550 C   0  0  0  0  0  0  0  0  0  0  0  0
    2.6560   19.6530    0.7000 C   0  0  2  0  0  0  0  0  0  0  0  0
    3.3370   18.4660    1.1280 O   0  0  0  0  0  0  0  0  0  0  0  0
    3.2070   19.5100    2.1070 C   0  0  0  0  0  0  0  0  0  0  0  0
    2.3210   19.1560    3.2600 C   0  0  0  0  0  0  0  0  0  0  0  0
    4.5000   20.1870    2.4410 C   0  0  0  0  0  0  0  0  0  0  0  0
    0.4170   16.6330   -2.2160 C   0  0  1  0  0  0  0  0  0  0  0  0
    0.6590   16.4460   -3.7370 C   0  0  0  0  0  0  0  0  0  0  0  0
    1.1890   15.0020   -3.9320 C   0  0  0  0  0  0  0  0  0  0  0  0
    0.9230   14.3030   -2.5780 C   0  0  1  0  0  0  0  0  0  0  0  0
   -0.5820   13.8920   -2.6280 C   0  0  0  0  0  0  0  0  0  0  0  0
    1.8420   13.0860   -2.2360 C   0  0  2  0  0  0  0  0  0  0  0  0
    1.7330   11.8940   -3.2020 C   0  0  0  0  0  0  0  0  0  0  0  0
    0.7130   10.8670   -2.8350 C   0  0  0  0  0  0  0  0  0  0  0  0
    0.1180   10.7510   -1.6330 C   0  0  0  0  0  0  0  0  0  0  0  0
    0.5290   11.6500   -0.4600 C   0  0  1  0  0  0  0  0  0  0  0  0
    0.7140   10.7860    0.8150 C   0  0  0  0  0  0  0  0  0  0  0  0
   -0.5160    9.9400    1.1310 C   0  0  0  0  0  0  0  0  0  0  0  0
   -0.8580    9.0170   -0.0360 C   0  0  2  0  0  0  0  0  0  0  0  0
    0.1870    8.0500   -0.1810 O   0  0  0  0  0  0  0  0  0  0  0  0
   -1.0580    9.7750   -1.3780 C   0  0  0  0  0  0  0  0  0  0  0  0
   -2.3690   10.5980   -1.3210 C   0  0  0  0  0  0  0  0  0  0  0  0
   -1.2570    8.7190   -2.4980 C   0  0  0  0  0  0  0  0  0  0  0  0
    1.7620   12.6170   -0.7270 C   0  0  1  0  0  0  0  0  0  0  0  0
    3.0970   11.8720   -0.4200 C   0  0  0  0  0  0  0  0  0  0  0  0
    1.6890   13.8300    0.2740 C   0  0  0  0  0  0  0  0  0  0  0  0
    0.8630   15.0510   -0.1730 C   0  0  0  0  0  0  0  0  0  0  0  0
    1.2470   15.4830   -1.5910 C   0  0  2  0  0  0  0  0  0  0  0  0
    2.7500   15.9240   -1.5670 C   0  0  0  0  0  0  0  0  0  0  0  0
    2.6768   18.9689   -1.8006 H   0  0  0  0  0  0  0  0  0  0  0  0
    2.3506   17.8239   -3.1456 H   0  0  0  0  0  0  0  0  0  0  0  0
    1.5877   19.4501   -3.1456 H   0  0  0  0  0  0  0  0  0  0  0  0
   -0.1409   18.7037   -1.9510 H   0  0  0  0  0  0  0  0  0  0  0  0
    0.0597   17.6428    0.2696 H   0  0  0  0  0  0  0  0  0  0  0  0
    1.8545   17.4609   -0.0287 H   0  0  0  0  0  0  0  0  0  0  0  0
    0.9161   20.2082   -0.3904 H   0  0  0  0  0  0  0  0  0  0  0  0
    0.6207   19.5607    1.2772 H   0  0  0  0  0  0  0  0  0  0  0  0
    2.7514   20.4498   -0.0523 H   0  0  0  0  0  0  0  0  0  0  0  0
    2.8459   19.3657    4.2037 H   0  0  0  0  0  0  0  0  0  0  0  0
    1.3997   19.7551    3.2119 H   0  0  0  0  0  0  0  0  0  0  0  0
    2.0662   18.0870    3.2119 H   0  0  0  0  0  0  0  0  0  0  0  0
    4.6117   20.2455    3.5338 H   0  0  0  0  0  0  0  0  0  0  0  0
    5.3357   19.6108    2.0173 H   0  0  0  0  0  0  0  0  0  0  0  0
    4.5025   21.2021    2.0173 H   0  0  0  0  0  0  0  0  0  0  0  0
   -0.6337   16.5535   -1.9002 H   0  0  0  0  0  0  0  0  0  0  0  0
   -0.2823   16.5818   -4.2897 H   0  0  0  0  0  0  0  0  0  0  0  0
    1.3798   17.1856   -4.1159 H   0  0  0  0  0  0  0  0  0  0  0  0
    0.6464   14.4954   -4.7438 H   0  0  0  0  0  0  0  0  0  0  0  0
    2.2531   14.9820   -4.2100 H   0  0  0  0  0  0  0  0  0  0  0  0
   -0.9676   13.7867   -1.6032 H   0  0  0  0  0  0  0  0  0  0  0  0
   -1.1561   14.6662   -3.1580 H   0  0  0  0  0  0  0  0  0  0  0  0
   -0.6829   12.9334   -3.1580 H   0  0  0  0  0  0  0  0  0  0  0  0
    2.8491   13.5015   -2.3877 H   0  0  0  0  0  0  0  0  0  0  0  0
    1.4780   12.2857   -4.1978 H   0  0  0  0  0  0  0  0  0  0  0  0
    2.7063   11.3828   -3.1657 H   0  0  0  0  0  0  0  0  0  0  0  0
    0.4234   10.1444   -3.6122 H   0  0  0  0  0  0  0  0  0  0  0  0
   -0.3005   12.3574   -0.3135 H   0  0  0  0  0  0  0  0  0  0  0  0
    1.5739   10.1164    0.6657 H   0  0  0  0  0  0  0  0  0  0  0  0
    0.8760   11.4696    1.6614 H   0  0  0  0  0  0  0  0  0  0  0  0
   -0.3141    9.3309    2.0245 H   0  0  0  0  0  0  0  0  0  0  0  0
   -1.3684   10.6123    1.3083 H   0  0  0  0  0  0  0  0  0  0  0  0
   -1.8178    8.5327    0.1970 H   0  0  0  0  0  0  0  0  0  0  0  0
   -0.1540    7.1980    0.1410 H   0  0  0  0  0  0  0  0  0  0  0  0
   -2.6470   10.7725   -0.2711 H   0  0  0  0  0  0  0  0  0  0  0  0
   -2.2180   11.5636   -1.8257 H   0  0  0  0  0  0  0  0  0  0  0  0
   -3.1730   10.0423   -1.8257 H   0  0  0  0  0  0  0  0  0  0  0  0
   -1.4426    7.7341   -2.0446 H   0  0  0  0  0  0  0  0  0  0  0  0
   -2.1173    9.0036   -3.1216 H   0  0  0  0  0  0  0  0  0  0  0  0
   -0.3521    8.6709   -3.1216 H   0  0  0  0  0  0  0  0  0  0  0  0
    3.2326   11.7963    0.6690 H   0  0  0  0  0  0  0  0  0  0  0  0
    3.0624   10.8628   -0.8562 H   0  0  0  0  0  0  0  0  0  0  0  0
    3.9377   12.4314   -0.8562 H   0  0  0  0  0  0  0  0  0  0  0  0
    1.2538   13.4599    1.2140 H   0  0  0  0  0  0  0  0  0  0  0  0
    2.7227   14.1968    0.3574 H   0  0  0  0  0  0  0  0  0  0  0  0
   -0.2053   14.7895   -0.1534 H   0  0  0  0  0  0  0  0  0  0  0  0
    1.0681   15.8843    0.5152 H   0  0  0  0  0  0  0  0  0  0  0  0
    3.0865   16.0227   -0.5244 H   0  0  0  0  0  0  0  0  0  0  0  0
    3.3623   15.1676   -2.0799 H   0  0  0  0  0  0  0  0  0  0  0  0
    2.8566   16.8913   -2.0799 H   0  0  0  0  0  0  0  0  0  0  0  0
  1  2  1  0
  2  3  1  0
  3  4  1  0
  4  5  1  0
  5  6  1  0
  6  7  1  0
  7  8  1  0
  7  9  1  0
  2 10  1  0
 10 11  1  0
 11 12  1  0
 12 13  1  0
 13 14  1  6
 13 15  1  0
 15 16  1  0
 16 17  1  0
 17 18  2  0
 18 19  1  0
 19 20  1  0
 20 21  1  0
 21 22  1  0
 22 23  1  0
 22 24  1  0
 24 25  1  0
 24 26  1  0
 19 27  1  0
 27 28  1  1
 27 29  1  0
 29 30  1  0
 30 31  1  0
 31 32  1  1
  7  5  1  0
 31 10  1  0
 31 13  1  0
 27 15  1  0
 24 18  1  0
  1 33  1  0
  1 34  1  0
  1 35  1  0
  2 36  1  1
  3 37  1  0
  3 38  1  0
  4 39  1  0
  4 40  1  0
  5 41  1  6
  8 42  1  0
  8 43  1  0
  8 44  1  0
  9 45  1  0
  9 46  1  0
  9 47  1  0
 10 48  1  6
 11 49  1  0
 11 50  1  0
 12 51  1  0
 12 52  1  0
 14 53  1  0
 14 54  1  0
 14 55  1  0
 15 56  1  1
 16 57  1  0
 16 58  1  0
 17 59  1  0
 19 60  1  1
 20 61  1  0
 20 62  1  0
 21 63  1  0
 21 64  1  0
 22 65  1  1
 23 66  1  0
 25 67  1  0
 25 68  1  0
 25 69  1  0
 26 70  1  0
 26 71  1  0
 26 72  1  0
 28 73  1  0
 28 74  1  0
 28 75  1  0
 29 76  1  0
 29 77  1  0
 30 78  1  0
 30 79  1  0
 32 80  1  0
 32 81  1  0
 32 82  1  0
M  END
>  <meeko>  (5) 
{"is_sidechain": [false], "intermolecular_energy": 2.731, "internal_energy": -0.839}

$$$$
EPH_relaxed_0001_pdb2pqr_Repair_205_r2_0001_out
     RDKit          3D

 82 86  0  0  0  0  0  0  0  0999 V2000
    2.1880   18.4080   -2.4750 C   0  0  0  0  0  0  0  0  0  0  0  0
    1.1420   17.8140   -1.5270 C   0  0  2  0  0  0  0  0  0  0  0  0
    1.6670   17.6970   -0.0820 C   0  0  0  0  0  0  0  0  0  0  0  0
    1.1340   18.7840    0.8550 C   0  0  0  0  0  0  0  0  0  0  0  0
    0.0970   19.6340    0.1860 C   0  0  2  0  0  0  0  0  0  0  0  0
   -0.8810   20.1940    1.0710 O   0  0  0  0  0  0  0  0  0  0  0  0
   -1.3690   19.2540    0.1010 C   0  0  0  0  0  0  0  0  0  0  0  0
   -1.8800   17.9780    0.6930 C   0  0  0  0  0  0  0  0  0  0  0  0
   -2.2080   19.8760   -0.9710 C   0  0  0  0  0  0  0  0  0  0  0  0
    0.7010   16.4450   -2.0330 C   0  0  1  0  0  0  0  0  0  0  0  0
    0.8140   16.3130   -3.5750 C   0  0  0  0  0  0  0  0  0  0  0  0
    1.2200   14.8460   -3.8700 C   0  0  0  0  0  0  0  0  0  0  0  0
    1.0030   14.1050   -2.5300 C   0  0  1  0  0  0  0  0  0  0  0  0
   -0.5280   13.8040   -2.4800 C   0  0  0  0  0  0  0  0  0  0  0  0
    1.8530   12.8100   -2.3110 C   0  0  2  0  0  0  0  0  0  0  0  0
    1.5830   11.6750   -3.3140 C   0  0  0  0  0  0  0  0  0  0  0  0
    0.5200   10.7080   -2.9120 C   0  0  0  0  0  0  0  0  0  0  0  0
    0.0090   10.5780   -1.6730 C   0  0  0  0  0  0  0  0  0  0  0  0
    0.5720   11.3900   -0.4990 C   0  0  1  0  0  0  0  0  0  0  0  0
    0.7860   10.4550    0.7200 C   0  0  0  0  0  0  0  0  0  0  0  0
   -0.4760    9.6850    1.0960 C   0  0  0  0  0  0  0  0  0  0  0  0
   -0.9720    8.8450   -0.0780 C   0  0  2  0  0  0  0  0  0  0  0  0
   -0.0160    7.8140   -0.3440 O   0  0  0  0  0  0  0  0  0  0  0  0
   -1.2140    9.6780   -1.3680 C   0  0  0  0  0  0  0  0  0  0  0  0
   -2.4520   10.5880   -1.1750 C   0  0  0  0  0  0  0  0  0  0  0  0
   -1.5740    8.6920   -2.5120 C   0  0  0  0  0  0  0  0  0  0  0  0
    1.8500   12.2780   -0.8210 C   0  0  1  0  0  0  0  0  0  0  0  0
    3.1450   11.4270   -0.6500 C   0  0  0  0  0  0  0  0  0  0  0  0
    1.9430   13.4450    0.2320 C   0  0  0  0  0  0  0  0  0  0  0  0
    1.1790   14.7410   -0.0980 C   0  0  0  0  0  0  0  0  0  0  0  0
    1.4870   15.2110   -1.5230 C   0  0  2  0  0  0  0  0  0  0  0  0
    3.0160   15.5420   -1.5970 C   0  0  0  0  0  0  0  0  0  0  0  0
    2.9966   18.8672   -1.8874 H   0  0  0  0  0  0  0  0  0  0  0  0
    2.6028   17.6107   -3.1092 H   0  0  0  0  0  0  0  0  0  0  0  0
    1.7158   19.1727   -3.1092 H   0  0  0  0  0  0  0  0  0  0  0  0
    0.2823   18.5001   -1.5110 H   0  0  0  0  0  0  0  0  0  0  0  0
    1.3686   16.7166    0.3178 H   0  0  0  0  0  0  0  0  0  0  0  0
    2.7596   17.8169   -0.1257 H   0  0  0  0  0  0  0  0  0  0  0  0
    0.6864   18.3050    1.7383 H   0  0  0  0  0  0  0  0  0  0  0  0
    1.9754   19.4321    1.1414 H   0  0  0  0  0  0  0  0  0  0  0  0
    0.8210   19.9570   -0.5766 H   0  0  0  0  0  0  0  0  0  0  0  0
   -1.8527   18.0462    1.7905 H   0  0  0  0  0  0  0  0  0  0  0  0
   -2.9152   17.8089    0.3618 H   0  0  0  0  0  0  0  0  0  0  0  0
   -1.2477   17.1411    0.3618 H   0  0  0  0  0  0  0  0  0  0  0  0
   -3.0103   20.4708   -0.5099 H   0  0  0  0  0  0  0  0  0  0  0  0
   -1.5803   20.5287   -1.5955 H   0  0  0  0  0  0  0  0  0  0  0  0
   -2.6501   19.0857   -1.5955 H   0  0  0  0  0  0  0  0  0  0  0  0
   -0.3262   16.4256   -1.6399 H   0  0  0  0  0  0  0  0  0  0  0  0
   -0.1535   16.5404   -4.0465 H   0  0  0  0  0  0  0  0  0  0  0  0
    1.5568   17.0170   -3.9782 H   0  0  0  0  0  0  0  0  0  0  0  0
    0.5834   14.4178   -4.6582 H   0  0  0  0  0  0  0  0  0  0  0  0
    2.2564   14.7639   -4.2294 H   0  0  0  0  0  0  0  0  0  0  0  0
   -0.8550   13.7397   -1.4317 H   0  0  0  0  0  0  0  0  0  0  0  0
   -1.0772   14.6114   -2.9865 H   0  0  0  0  0  0  0  0  0  0  0  0
   -0.7306   12.8488   -2.9865 H   0  0  0  0  0  0  0  0  0  0  0  0
    2.8744   13.1589   -2.5234 H   0  0  0  0  0  0  0  0  0  0  0  0
    1.2845   12.1301   -4.2699 H   0  0  0  0  0  0  0  0  0  0  0  0
    2.5153   11.0943   -3.3743 H   0  0  0  0  0  0  0  0  0  0  0  0
    0.1201   10.0455   -3.6938 H   0  0  0  0  0  0  0  0  0  0  0  0
   -0.1884   12.1477   -0.2587 H   0  0  0  0  0  0  0  0  0  0  0  0
    1.5796    9.7335    0.4758 H   0  0  0  0  0  0  0  0  0  0  0  0
    1.0611   11.0845    1.5791 H   0  0  0  0  0  0  0  0  0  0  0  0
   -0.2536    9.0217    1.9448 H   0  0  0  0  0  0  0  0  0  0  0  0
   -1.2602   10.4070    1.3675 H   0  0  0  0  0  0  0  0  0  0  0  0
   -1.9452    8.4200    0.2086 H   0  0  0  0  0  0  0  0  0  0  0  0
   -0.4200    6.9660   -0.0930 H   0  0  0  0  0  0  0  0  0  0  0  0
   -2.6410   10.7269   -0.1003 H   0  0  0  0  0  0  0  0  0  0  0  0
   -2.2653   11.5654   -1.6438 H   0  0  0  0  0  0  0  0  0  0  0  0
   -3.3292   10.1181   -1.6438 H   0  0  0  0  0  0  0  0  0  0  0  0
   -1.9211    7.7413   -2.0810 H   0  0  0  0  0  0  0  0  0  0  0  0
   -2.3716    9.1261   -3.1327 H   0  0  0  0  0  0  0  0  0  0  0  0
   -0.6843    8.5100   -3.1327 H   0  0  0  0  0  0  0  0  0  0  0  0
    3.3545   11.2893    0.4211 H   0  0  0  0  0  0  0  0  0  0  0  0
    3.0039   10.4450   -1.1252 H   0  0  0  0  0  0  0  0  0  0  0  0
    3.9904   11.9462   -1.1252 H   0  0  0  0  0  0  0  0  0  0  0  0
    1.5534   13.0631    1.1872 H   0  0  0  0  0  0  0  0  0  0  0  0
    3.0044   13.7332    0.2491 H   0  0  0  0  0  0  0  0  0  0  0  0
    0.0987   14.5553   -0.0059 H   0  0  0  0  0  0  0  0  0  0  0  0
    1.4963   15.5243    0.6061 H   0  0  0  0  0  0  0  0  0  0  0  0
    3.4219   15.6299   -0.5784 H   0  0  0  0  0  0  0  0  0  0  0  0
    3.5401   14.7365   -2.1323 H   0  0  0  0  0  0  0  0  0  0  0  0
    3.1600   16.4921   -2.1323 H   0  0  0  0  0  0  0  0  0  0  0  0
  1  2  1  0
  2  3  1  0
  3  4  1  0
  4  5  1  0
  5  6  1  0
  6  7  1  0
  7  8  1  0
  7  9  1  0
  2 10  1  0
 10 11  1  0
 11 12  1  0
 12 13  1  0
 13 14  1  1
 13 15  1  0
 15 16  1  0
 16 17  1  0
 17 18  2  0
 18 19  1  0
 19 20  1  0
 20 21  1  0
 21 22  1  0
 22 23  1  0
 22 24  1  0
 24 25  1  0
 24 26  1  0
 19 27  1  0
 27 28  1  6
 27 29  1  0
 29 30  1  0
 30 31  1  0
 31 32  1  1
  7  5  1  0
 31 10  1  0
 31 13  1  0
 27 15  1  0
 24 18  1  0
  1 33  1  0
  1 34  1  0
  1 35  1  0
  2 36  1  1
  3 37  1  0
  3 38  1  0
  4 39  1  0
  4 40  1  0
  5 41  1  6
  8 42  1  0
  8 43  1  0
  8 44  1  0
  9 45  1  0
  9 46  1  0
  9 47  1  0
 10 48  1  6
 11 49  1  0
 11 50  1  0
 12 51  1  0
 12 52  1  0
 14 53  1  0
 14 54  1  0
 14 55  1  0
 15 56  1  6
 16 57  1  0
 16 58  1  0
 17 59  1  0
 19 60  1  1
 20 61  1  0
 20 62  1  0
 21 63  1  0
 21 64  1  0
 22 65  1  1
 23 66  1  0
 25 67  1  0
 25 68  1  0
 25 69  1  0
 26 70  1  0
 26 71  1  0
 26 72  1  0
 28 73  1  0
 28 74  1  0
 28 75  1  0
 29 76  1  0
 29 77  1  0
 30 78  1  0
 30 79  1  0
 32 80  1  0
 32 81  1  0
 32 82  1  0
M  END
>  <meeko>  (6) 
{"is_sidechain": [false], "intermolecular_energy": 2.731, "internal_energy": -0.839}

$$$$
EPH_relaxed_0001_pdb2pqr_Repair_205_r2_0001_out
     RDKit          3D

 82 86  0  0  0  0  0  0  0  0999 V2000
    1.7890   18.0820   -1.1200 C   0  0  0  0  0  0  0  0  0  0  0  0
    0.8470   18.0680   -2.3260 C   0  0  2  0  0  0  0  0  0  0  0  0
   -0.4210   18.9100   -2.0820 C   0  0  0  0  0  0  0  0  0  0  0  0
   -0.6920   19.2020   -0.6040 C   0  0  0  0  0  0  0  0  0  0  0  0
   -1.4980   18.1130    0.0370 C   0  0  2  0  0  0  0  0  0  0  0  0
   -2.0340   18.4450    1.3250 O   0  0  0  0  0  0  0  0  0  0  0  0
   -1.0670   17.3830    1.2950 C   0  0  0  0  0  0  0  0  0  0  0  0
    0.2190   17.7120    1.9870 C   0  0  0  0  0  0  0  0  0  0  0  0
   -1.6460   16.0310    1.5720 C   0  0  0  0  0  0  0  0  0  0  0  0
    0.4610   16.6330   -2.6680 C   0  0  1  0  0  0  0  0  0  0  0  0
    0.5200   16.3450   -4.1920 C   0  0  0  0  0  0  0  0  0  0  0  0
    0.9920   14.8780   -4.3520 C   0  0  0  0  0  0  0  0  0  0  0  0
    0.8710   14.2720   -2.9340 C   0  0  1  0  0  0  0  0  0  0  0  0
   -0.6380   13.9020   -2.7840 C   0  0  0  0  0  0  0  0  0  0  0  0
    1.7980   13.0520   -2.6220 C   0  0  2  0  0  0  0  0  0  0  0  0
    1.5510   11.8060   -3.4900 C   0  0  0  0  0  0  0  0  0  0  0  0
    0.5590   10.8340   -2.9420 C   0  0  0  0  0  0  0  0  0  0  0  0
    0.1060   10.8090   -1.6750 C   0  0  0  0  0  0  0  0  0  0  0  0
    0.6700   11.7670   -0.6180 C   0  0  1  0  0  0  0  0  0  0  0  0
    0.9840   10.9780    0.6800 C   0  0  0  0  0  0  0  0  0  0  0  0
   -0.2170   10.1890    1.1900 C   0  0  0  0  0  0  0  0  0  0  0  0
   -0.7130    9.2060    0.1330 C   0  0  2  0  0  0  0  0  0  0  0  0
    0.2860    8.2020   -0.0690 O   0  0  0  0  0  0  0  0  0  0  0  0
   -1.0520    9.8860   -1.2240 C   0  0  0  0  0  0  0  0  0  0  0  0
   -2.3300   10.7480   -1.0690 C   0  0  0  0  0  0  0  0  0  0  0  0
   -1.4040    8.7680   -2.2430 C   0  0  0  0  0  0  0  0  0  0  0  0
    1.8840   12.6790   -1.0870 C   0  0  1  0  0  0  0  0  0  0  0  0
    3.2300   11.9170   -0.8880 C   0  0  0  0  0  0  0  0  0  0  0  0
    1.9550   13.9540   -0.1650 C   0  0  0  0  0  0  0  0  0  0  0  0
    1.1090   15.1680   -0.5910 C   0  0  0  0  0  0  0  0  0  0  0  0
    1.3330   15.5010   -2.0700 C   0  0  2  0  0  0  0  0  0  0  0  0
    2.8380   15.8980   -2.2470 C   0  0  0  0  0  0  0  0  0  0  0  0
    1.1975   18.0732   -0.1926 H   0  0  0  0  0  0  0  0  0  0  0  0
    2.4366   17.1934   -1.1503 H   0  0  0  0  0  0  0  0  0  0  0  0
    2.4099   18.9895   -1.1503 H   0  0  0  0  0  0  0  0  0  0  0  0
    1.3860   18.5198   -3.1718 H   0  0  0  0  0  0  0  0  0  0  0  0
   -0.3082   19.8683   -2.6101 H   0  0  0  0  0  0  0  0  0  0  0  0
   -1.2731   18.3225   -2.4546 H   0  0  0  0  0  0  0  0  0  0  0  0
    0.2689   19.2921   -0.0763 H   0  0  0  0  0  0  0  0  0  0  0  0
   -1.2665   20.1378   -0.5389 H   0  0  0  0  0  0  0  0  0  0  0  0
   -1.8367   17.7525   -0.9455 H   0  0  0  0  0  0  0  0  0  0  0  0
    0.0695   17.6738    3.0761 H   0  0  0  0  0  0  0  0  0  0  0  0
    0.9888   16.9819    1.6967 H   0  0  0  0  0  0  0  0  0  0  0  0
    0.5436   18.7221    1.6967 H   0  0  0  0  0  0  0  0  0  0  0  0
   -1.7123   15.8762    2.6590 H   0  0  0  0  0  0  0  0  0  0  0  0
   -2.6513   15.9651    1.1303 H   0  0  0  0  0  0  0  0  0  0  0  0
   -1.0000   15.2580    1.1303 H   0  0  0  0  0  0  0  0  0  0  0  0
   -0.5473   16.6038   -2.2293 H   0  0  0  0  0  0  0  0  0  0  0  0
   -0.4761   16.4734   -4.6406 H   0  0  0  0  0  0  0  0  0  0  0  0
    1.2074   17.0384   -4.6986 H   0  0  0  0  0  0  0  0  0  0  0  0
    0.3476   14.3380   -5.0613 H   0  0  0  0  0  0  0  0  0  0  0  0
    2.0158   14.8102   -4.7485 H   0  0  0  0  0  0  0  0  0  0  0  0
   -0.8957   13.8388   -1.7165 H   0  0  0  0  0  0  0  0  0  0  0  0
   -1.2548   14.6755   -3.2649 H   0  0  0  0  0  0  0  0  0  0  0  0
   -0.8270   12.9309   -3.2649 H   0  0  0  0  0  0  0  0  0  0  0  0
    2.7892   13.4284   -2.9149 H   0  0  0  0  0  0  0  0  0  0  0  0
    1.1899   12.1426   -4.4730 H   0  0  0  0  0  0  0  0  0  0  0  0
    2.5106   11.2700   -3.5333 H   0  0  0  0  0  0  0  0  0  0  0  0
    0.1650   10.0738   -3.6325 H   0  0  0  0  0  0  0  0  0  0  0  0
   -0.1211   12.5061   -0.4233 H   0  0  0  0  0  0  0  0  0  0  0  0
    1.8060   10.2761    0.4758 H   0  0  0  0  0  0  0  0  0  0  0  0
    1.2579   11.7078    1.4562 H   0  0  0  0  0  0  0  0  0  0  0  0
    0.0756    9.6308    2.0916 H   0  0  0  0  0  0  0  0  0  0  0  0
   -1.0283   10.8950    1.4209 H   0  0  0  0  0  0  0  0  0  0  0  0
   -1.6490    8.7649    0.5063 H   0  0  0  0  0  0  0  0  0  0  0  0
    1.1460    8.6520   -0.1330 H   0  0  0  0  0  0  0  0  0  0  0  0
   -2.5464   10.8940   -0.0004 H   0  0  0  0  0  0  0  0  0  0  0  0
   -2.1732   11.7256   -1.5483 H   0  0  0  0  0  0  0  0  0  0  0  0
   -3.1777   10.2364   -1.5483 H   0  0  0  0  0  0  0  0  0  0  0  0
   -1.6914    7.8550   -1.7009 H   0  0  0  0  0  0  0  0  0  0  0  0
   -2.2416    9.0983   -2.8749 H   0  0  0  0  0  0  0  0  0  0  0  0
   -0.5282    8.5588   -2.8749 H   0  0  0  0  0  0  0  0  0  0  0  0
    3.4313   11.8030    0.1874 H   0  0  0  0  0  0  0  0  0  0  0  0
    3.1616   10.9236   -1.3555 H   0  0  0  0  0  0  0  0  0  0  0  0
    4.0465   12.4868   -1.3555 H   0  0  0  0  0  0  0  0  0  0  0  0
    1.6255   13.6556    0.8412 H   0  0  0  0  0  0  0  0  0  0  0  0
    2.9989   14.2954   -0.2265 H   0  0  0  0  0  0  0  0  0  0  0  0
    0.0451   14.9392   -0.4308 H   0  0  0  0  0  0  0  0  0  0  0  0
    1.4115   16.0358    0.0136 H   0  0  0  0  0  0  0  0  0  0  0  0
    3.3036   16.0208   -1.2580 H   0  0  0  0  0  0  0  0  0  0  0  0
    3.3627   15.1075   -2.8037 H   0  0  0  0  0  0  0  0  0  0  0  0
    2.9045   16.8444   -2.8037 H   0  0  0  0  0  0  0  0  0  0  0  0
  1  2  1  0
  2  3  1  0
  3  4  1  0
  4  5  1  0
  5  6  1  0
  6  7  1  0
  7  8  1  0
  7  9  1  0
  2 10  1  0
 10 11  1  0
 11 12  1  0
 12 13  1  0
 13 14  1  1
 13 15  1  0
 15 16  1  0
 16 17  1  0
 17 18  2  0
 18 19  1  0
 19 20  1  0
 20 21  1  0
 21 22  1  0
 22 23  1  0
 22 24  1  0
 24 25  1  0
 24 26  1  0
 19 27  1  0
 27 28  1  6
 27 29  1  0
 29 30  1  0
 30 31  1  0
 31 32  1  1
  7  5  1  0
 31 10  1  0
 31 13  1  0
 27 15  1  0
 24 18  1  0
  1 33  1  0
  1 34  1  0
  1 35  1  0
  2 36  1  6
  3 37  1  0
  3 38  1  0
  4 39  1  0
  4 40  1  0
  5 41  1  6
  8 42  1  0
  8 43  1  0
  8 44  1  0
  9 45  1  0
  9 46  1  0
  9 47  1  0
 10 48  1  1
 11 49  1  0
 11 50  1  0
 12 51  1  0
 12 52  1  0
 14 53  1  0
 14 54  1  0
 14 55  1  0
 15 56  1  6
 16 57  1  0
 16 58  1  0
 17 59  1  0
 19 60  1  1
 20 61  1  0
 20 62  1  0
 21 63  1  0
 21 64  1  0
 22 65  1  1
 23 66  1  0
 25 67  1  0
 25 68  1  0
 25 69  1  0
 26 70  1  0
 26 71  1  0
 26 72  1  0
 28 73  1  0
 28 74  1  0
 28 75  1  0
 29 76  1  0
 29 77  1  0
 30 78  1  0
 30 79  1  0
 32 80  1  0
 32 81  1  0
 32 82  1  0
M  END
>  <meeko>  (7) 
{"is_sidechain": [false], "intermolecular_energy": 2.731, "internal_energy": -0.839}

$$$$
EPH_relaxed_0001_pdb2pqr_Repair_205_r2_0001_out
     RDKit          3D

 82 86  0  0  0  0  0  0  0  0999 V2000
    2.2360   10.3330   -0.0430 C   0  0  0  0  0  0  0  0  0  0  0  0
    1.9370   10.6930   -1.5010 C   0  0  2  0  0  0  0  0  0  0  0  0
    2.8880    9.9800   -2.4830 C   0  0  0  0  0  0  0  0  0  0  0  0
    3.5930   10.9290   -3.4560 C   0  0  0  0  0  0  0  0  0  0  0  0
    5.0550   11.0540   -3.1480 C   0  0  2  0  0  0  0  0  0  0  0  0
    5.7140   12.1430   -3.8060 O   0  0  0  0  0  0  0  0  0  0  0  0
    6.1480   10.8240   -4.1750 C   0  0  0  0  0  0  0  0  0  0  0  0
    5.8260   10.4500   -5.5880 C   0  0  0  0  0  0  0  0  0  0  0  0
    7.5240   10.4850   -3.6920 C   0  0  0  0  0  0  0  0  0  0  0  0
    2.0270   12.2020   -1.6920 C   0  0  1  0  0  0  0  0  0  0  0  0
    1.8580   12.6280   -3.1750 C   0  0  0  0  0  0  0  0  0  0  0  0
    1.1070   13.9840   -3.1690 C   0  0  0  0  0  0  0  0  0  0  0  0
    1.1610   14.4530   -1.6970 C   0  0  1  0  0  0  0  0  0  0  0  0
    2.5750   15.0930   -1.5320 C   0  0  0  0  0  0  0  0  0  0  0  0
    0.0290   15.4300   -1.2400 C   0  0  2  0  0  0  0  0  0  0  0  0
   -0.0000   16.7830   -1.9730 C   0  0  0  0  0  0  0  0  0  0  0  0
    0.8050   17.8690   -1.3400 C   0  0  0  0  0  0  0  0  0  0  0  0
    1.2920   17.8510   -0.0850 C   0  0  0  0  0  0  0  0  0  0  0  0
    0.9610   16.6980    0.8720 C   0  0  1  0  0  0  0  0  0  0  0  0
    0.5490   17.2730    2.2530 C   0  0  0  0  0  0  0  0  0  0  0  0
    1.5940   18.2260    2.8250 C   0  0  0  0  0  0  0  0  0  0  0  0
    1.8530   19.3890    1.8720 C   0  0  2  0  0  0  0  0  0  0  0  0
    0.6720   20.1940    1.7960 O   0  0  0  0  0  0  0  0  0  0  0  0
    2.2660   18.9320    0.4450 C   0  0  0  0  0  0  0  0  0  0  0  0
    3.6900   18.3240    0.4850 C   0  0  0  0  0  0  0  0  0  0  0  0
    2.3590   20.1940   -0.4530 C   0  0  0  0  0  0  0  0  0  0  0  0
   -0.0710   15.6200    0.3270 C   0  0  1  0  0  0  0  0  0  0  0  0
   -1.5300   16.0800    0.6280 C   0  0  0  0  0  0  0  0  0  0  0  0
    0.1380   14.2680    1.1080 C   0  0  0  0  0  0  0  0  0  0  0  0
    1.1860   13.2930    0.5400 C   0  0  0  0  0  0  0  0  0  0  0  0
    0.9760   13.0760   -0.9620 C   0  0  2  0  0  0  0  0  0  0  0  0
   -0.4300   12.4120   -1.1570 C   0  0  0  0  0  0  0  0  0  0  0  0
    1.6767   11.0064    0.6231 H   0  0  0  0  0  0  0  0  0  0  0  0
    1.9321    9.2931    0.1477 H   0  0  0  0  0  0  0  0  0  0  0  0
    3.3140   10.4408    0.1477 H   0  0  0  0  0  0  0  0  0  0  0  0
    0.9159   10.3498   -1.7236 H   0  0  0  0  0  0  0  0  0  0  0  0
    3.6544    9.4483   -1.8999 H   0  0  0  0  0  0  0  0  0  0  0  0
    2.2727    9.2980   -3.0883 H   0  0  0  0  0  0  0  0  0  0  0  0
    3.4761   10.5420   -4.4790 H   0  0  0  0  0  0  0  0  0  0  0  0
    3.1354   11.9243   -3.3562 H   0  0  0  0  0  0  0  0  0  0  0  0
    4.8999   10.6571   -2.1339 H   0  0  0  0  0  0  0  0  0  0  0  0
    5.1083    9.6164   -5.5922 H   0  0  0  0  0  0  0  0  0  0  0  0
    5.3859   11.3154   -6.1051 H   0  0  0  0  0  0  0  0  0  0  0  0
    6.7472   10.1434   -6.1051 H   0  0  0  0  0  0  0  0  0  0  0  0
    7.5361   10.4820   -2.5921 H   0  0  0  0  0  0  0  0  0  0  0  0
    7.8086    9.4899   -4.0645 H   0  0  0  0  0  0  0  0  0  0  0  0
    8.2383   11.2340   -4.0645 H   0  0  0  0  0  0  0  0  0  0  0  0
    3.0261   12.3814   -1.2681 H   0  0  0  0  0  0  0  0  0  0  0  0
    2.8432   12.7429   -3.6506 H   0  0  0  0  0  0  0  0  0  0  0  0
    1.2984   11.8695   -3.7421 H   0  0  0  0  0  0  0  0  0  0  0  0
    1.6093   14.7090   -3.8263 H   0  0  0  0  0  0  0  0  0  0  0  0
    0.0755   13.8913   -3.5398 H   0  0  0  0  0  0  0  0  0  0  0  0
    2.8073   15.1981   -0.4620 H   0  0  0  0  0  0  0  0  0  0  0  0
    3.3275   14.4477   -2.0089 H   0  0  0  0  0  0  0  0  0  0  0  0
    2.5868   16.0842   -2.0089 H   0  0  0  0  0  0  0  0  0  0  0  0
   -0.8814   14.8990   -1.5551 H   0  0  0  0  0  0  0  0  0  0  0  0
    0.3834   16.6257   -2.9920 H   0  0  0  0  0  0  0  0  0  0  0  0
   -1.0458   17.1227   -1.9430 H   0  0  0  0  0  0  0  0  0  0  0  0
    1.0183   18.7590   -1.9503 H   0  0  0  0  0  0  0  0  0  0  0  0
    1.8861   16.1115    0.9734 H   0  0  0  0  0  0  0  0  0  0  0  0
   -0.4001   17.8174    2.1394 H   0  0  0  0  0  0  0  0  0  0  0  0
    0.4501   16.4282    2.9505 H   0  0  0  0  0  0  0  0  0  0  0  0
    1.2325   18.6217    3.7856 H   0  0  0  0  0  0  0  0  0  0  0  0
    2.5339   17.6721    2.9657 H   0  0  0  0  0  0  0  0  0  0  0  0
    2.7005   19.9630    2.2748 H   0  0  0  0  0  0  0  0  0  0  0  0
   -0.0910   19.5940    1.7500 H   0  0  0  0  0  0  0  0  0  0  0  0
    4.0025   18.1906    1.5312 H   0  0  0  0  0  0  0  0  0  0  0  0
    3.6867   17.3488   -0.0239 H   0  0  0  0  0  0  0  0  0  0  0  0
    4.3921   19.0008   -0.0239 H   0  0  0  0  0  0  0  0  0  0  0  0
    2.4251   21.0908    0.1806 H   0  0  0  0  0  0  0  0  0  0  0  0
    3.2546   20.1269   -1.0881 H   0  0  0  0  0  0  0  0  0  0  0  0
    1.4632   20.2589   -1.0881 H   0  0  0  0  0  0  0  0  0  0  0  0
   -1.6822   16.1280    1.7164 H   0  0  0  0  0  0  0  0  0  0  0  0
   -1.6985   17.0749    0.1900 H   0  0  0  0  0  0  0  0  0  0  0  0
   -2.2387   15.3617    0.1900 H   0  0  0  0  0  0  0  0  0  0  0  0
    0.4404   14.5203    2.1351 H   0  0  0  0  0  0  0  0  0  0  0  0
   -0.8223   13.7375    1.0273 H   0  0  0  0  0  0  0  0  0  0  0  0
    2.1910   13.7079    0.7066 H   0  0  0  0  0  0  0  0  0  0  0  0
    1.0790   12.3256    1.0524 H   0  0  0  0  0  0  0  0  0  0  0  0
   -0.8757   12.2015   -0.1736 H   0  0  0  0  0  0  0  0  0  0  0  0
   -1.0842   13.0963   -1.7171 H   0  0  0  0  0  0  0  0  0  0  0  0
   -0.3171   11.4721   -1.7171 H   0  0  0  0  0  0  0  0  0  0  0  0
  1  2  1  0
  2  3  1  0
  3  4  1  0
  4  5  1  0
  5  6  1  0
  6  7  1  0
  7  8  1  0
  7  9  1  0
  2 10  1  0
 10 11  1  0
 11 12  1  0
 12 13  1  0
 13 14  1  1
 13 15  1  0
 15 16  1  0
 16 17  1  0
 17 18  2  0
 18 19  1  0
 19 20  1  0
 20 21  1  0
 21 22  1  0
 22 23  1  0
 22 24  1  0
 24 25  1  0
 24 26  1  0
 19 27  1  0
 27 28  1  6
 27 29  1  0
 29 30  1  0
 30 31  1  0
 31 32  1  1
  7  5  1  0
 31 10  1  0
 31 13  1  0
 27 15  1  0
 24 18  1  0
  1 33  1  0
  1 34  1  0
  1 35  1  0
  2 36  1  6
  3 37  1  0
  3 38  1  0
  4 39  1  0
  4 40  1  0
  5 41  1  1
  8 42  1  0
  8 43  1  0
  8 44  1  0
  9 45  1  0
  9 46  1  0
  9 47  1  0
 10 48  1  1
 11 49  1  0
 11 50  1  0
 12 51  1  0
 12 52  1  0
 14 53  1  0
 14 54  1  0
 14 55  1  0
 15 56  1  6
 16 57  1  0
 16 58  1  0
 17 59  1  0
 19 60  1  1
 20 61  1  0
 20 62  1  0
 21 63  1  0
 21 64  1  0
 22 65  1  1
 23 66  1  0
 25 67  1  0
 25 68  1  0
 25 69  1  0
 26 70  1  0
 26 71  1  0
 26 72  1  0
 28 73  1  0
 28 74  1  0
 28 75  1  0
 29 76  1  0
 29 77  1  0
 30 78  1  0
 30 79  1  0
 32 80  1  0
 32 81  1  0
 32 82  1  0
M  END
>  <meeko>  (8) 
{"is_sidechain": [false], "intermolecular_energy": 2.731, "internal_energy": -0.839}

$$$$
EPH_relaxed_0001_pdb2pqr_Repair_205_r2_0001_out
     RDKit          3D

 82 86  0  0  0  0  0  0  0  0999 V2000
    3.7380    9.8300   -0.1320 C   0  0  0  0  0  0  0  0  0  0  0  0
    2.3110   10.3590   -0.2970 C   0  0  2  0  0  0  0  0  0  0  0  0
    1.4950    9.5250   -1.3050 C   0  0  0  0  0  0  0  0  0  0  0  0
    0.3550    8.7290   -0.6650 C   0  0  0  0  0  0  0  0  0  0  0  0
   -0.6470    8.2780   -1.6850 C   0  0  2  0  0  0  0  0  0  0  0  0
   -1.2420    9.3350   -2.4480 O   0  0  0  0  0  0  0  0  0  0  0  0
   -2.1290    8.5900   -1.5970 C   0  0  0  0  0  0  0  0  0  0  0  0
   -2.6930    9.3850   -0.4610 C   0  0  0  0  0  0  0  0  0  0  0  0
   -3.0890    7.7180   -2.3430 C   0  0  0  0  0  0  0  0  0  0  0  0
    2.3450   11.8190   -0.7360 C   0  0  1  0  0  0  0  0  0  0  0  0
    2.2510   11.9820   -2.2760 C   0  0  0  0  0  0  0  0  0  0  0  0
    1.4400   13.2770   -2.5400 C   0  0  0  0  0  0  0  0  0  0  0  0
    1.3820   13.9870   -1.1670 C   0  0  1  0  0  0  0  0  0  0  0  0
    2.7530   14.7210   -1.0370 C   0  0  0  0  0  0  0  0  0  0  0  0
    0.1810   14.9630   -0.9450 C   0  0  2  0  0  0  0  0  0  0  0  0
    0.1370   16.1720   -1.8960 C   0  0  0  0  0  0  0  0  0  0  0  0
    0.8530   17.3900   -1.4130 C   0  0  0  0  0  0  0  0  0  0  0  0
    1.2600   17.6080   -0.1490 C   0  0  0  0  0  0  0  0  0  0  0  0
    0.9220   16.6140    0.9700 C   0  0  1  0  0  0  0  0  0  0  0  0
    0.4000   17.3870    2.2090 C   0  0  0  0  0  0  0  0  0  0  0  0
    1.3640   18.4770    2.6680 C   0  0  0  0  0  0  0  0  0  0  0  0
    1.6290   19.4780    1.5470 C   0  0  2  0  0  0  0  0  0  0  0  0
    0.4210   20.1930    1.2720 O   0  0  0  0  0  0  0  0  0  0  0  0
    2.1510   18.8120    0.2430 C   0  0  0  0  0  0  0  0  0  0  0  0
    3.5950   18.2980    0.4620 C   0  0  0  0  0  0  0  0  0  0  0  0
    2.2430   19.9120   -0.8500 C   0  0  0  0  0  0  0  0  0  0  0  0
   -0.0250   15.4050    0.5610 C   0  0  1  0  0  0  0  0  0  0  0  0
   -1.5190   15.8290    0.7000 C   0  0  0  0  0  0  0  0  0  0  0  0
    0.1950   14.2150    1.5690 C   0  0  0  0  0  0  0  0  0  0  0  0
    1.3190   13.2170    1.2310 C   0  0  0  0  0  0  0  0  0  0  0  0
    1.2130   12.7430   -0.2210 C   0  0  2  0  0  0  0  0  0  0  0  0
   -0.1470   11.9810   -0.3770 C   0  0  0  0  0  0  0  0  0  0  0  0
    3.9750    9.7421    0.9386 H   0  0  0  0  0  0  0  0  0  0  0  0
    3.8200    8.8417   -0.6080 H   0  0  0  0  0  0  0  0  0  0  0  0
    4.4444   10.5260   -0.6080 H   0  0  0  0  0  0  0  0  0  0  0  0
    1.8127   10.2759    0.6801 H   0  0  0  0  0  0  0  0  0  0  0  0
    1.0649   10.2076   -2.0527 H   0  0  0  0  0  0  0  0  0  0  0  0
    2.1858    8.7946   -1.7515 H   0  0  0  0  0  0  0  0  0  0  0  0
    0.7753    7.8451   -0.1630 H   0  0  0  0  0  0  0  0  0  0  0  0
   -0.1588    9.3836    0.0544 H   0  0  0  0  0  0  0  0  0  0  0  0
   -0.0994    7.3368   -1.8408 H   0  0  0  0  0  0  0  0  0  0  0  0
   -2.3757    8.9378    0.4926 H   0  0  0  0  0  0  0  0  0  0  0  0
   -2.3263   10.4204   -0.5204 H   0  0  0  0  0  0  0  0  0  0  0  0
   -3.7914    9.3810   -0.5204 H   0  0  0  0  0  0  0  0  0  0  0  0
   -3.7070    7.1566   -1.6268 H   0  0  0  0  0  0  0  0  0  0  0  0
   -3.7368    8.3430   -2.9753 H   0  0  0  0  0  0  0  0  0  0  0  0
   -2.5290    7.0133   -2.9753 H   0  0  0  0  0  0  0  0  0  0  0  0
    3.3066   12.1216   -0.2959 H   0  0  0  0  0  0  0  0  0  0  0  0
    3.2580   12.0706   -2.7097 H   0  0  0  0  0  0  0  0  0  0  0  0
    1.7637   11.1100   -2.7365 H   0  0  0  0  0  0  0  0  0  0  0  0
    1.9484   13.9091   -3.2830 H   0  0  0  0  0  0  0  0  0  0  0  0
    0.4386   13.0673   -2.9441 H   0  0  0  0  0  0  0  0  0  0  0  0
    2.9990   14.8527    0.0270 H   0  0  0  0  0  0  0  0  0  0  0  0
    3.5371   14.1220   -1.5232 H   0  0  0  0  0  0  0  0  0  0  0  0
    2.6893   15.7057   -1.5232 H   0  0  0  0  0  0  0  0  0  0  0  0
   -0.6829   14.3384   -1.2163 H   0  0  0  0  0  0  0  0  0  0  0  0
    0.5887   15.8690   -2.8521 H   0  0  0  0  0  0  0  0  0  0  0  0
   -0.9227   16.4551   -1.9794 H   0  0  0  0  0  0  0  0  0  0  0  0
    1.0658   18.1756   -2.1530 H   0  0  0  0  0  0  0  0  0  0  0  0
    1.8644   16.1039    1.2184 H   0  0  0  0  0  0  0  0  0  0  0  0
   -0.5632   17.8529    1.9538 H   0  0  0  0  0  0  0  0  0  0  0  0
    0.2954   16.6655    3.0327 H   0  0  0  0  0  0  0  0  0  0  0  0
    0.9263   19.0063    3.5272 H   0  0  0  0  0  0  0  0  0  0  0  0
    2.3171   18.0064    2.9511 H   0  0  0  0  0  0  0  0  0  0  0  0
    2.4223   20.1576    1.8918 H   0  0  0  0  0  0  0  0  0  0  0  0
    0.6090   21.1410    1.3800 H   0  0  0  0  0  0  0  0  0  0  0  0
    3.7988   18.2255    1.5405 H   0  0  0  0  0  0  0  0  0  0  0  0
    3.7049   17.3055    0.0005 H   0  0  0  0  0  0  0  0  0  0  0  0
    4.3072   18.9978    0.0005 H   0  0  0  0  0  0  0  0  0  0  0  0
    2.3255   20.8988   -0.3710 H   0  0  0  0  0  0  0  0  0  0  0  0
    3.1293   19.7332   -1.4765 H   0  0  0  0  0  0  0  0  0  0  0  0
    1.3393   19.8829   -1.4765 H   0  0  0  0  0  0  0  0  0  0  0  0
   -1.7814   15.9035    1.7656 H   0  0  0  0  0  0  0  0  0  0  0  0
   -1.6696   16.8054    0.2162 H   0  0  0  0  0  0  0  0  0  0  0  0
   -2.1600   15.0773    0.2162 H   0  0  0  0  0  0  0  0  0  0  0  0
    0.4215   14.6504    2.5535 H   0  0  0  0  0  0  0  0  0  0  0  0
   -0.7339   13.6272    1.5275 H   0  0  0  0  0  0  0  0  0  0  0  0
    2.2923   13.7076    1.3792 H   0  0  0  0  0  0  0  0  0  0  0  0
    1.2232   12.3436    1.8928 H   0  0  0  0  0  0  0  0  0  0  0  0
   -0.5554   11.7522    0.6184 H   0  0  0  0  0  0  0  0  0  0  0  0
   -0.8593   12.6114   -0.9295 H   0  0  0  0  0  0  0  0  0  0  0  0
    0.0188   11.0444   -0.9295 H   0  0  0  0  0  0  0  0  0  0  0  0
  1  2  1  0
  2  3  1  0
  3  4  1  0
  4  5  1  0
  5  6  1  0
  6  7  1  0
  7  8  1  0
  7  9  1  0
  2 10  1  0
 10 11  1  0
 11 12  1  0
 12 13  1  0
 13 14  1  1
 13 15  1  0
 15 16  1  0
 16 17  1  0
 17 18  2  0
 18 19  1  0
 19 20  1  0
 20 21  1  0
 21 22  1  0
 22 23  1  0
 22 24  1  0
 24 25  1  0
 24 26  1  0
 19 27  1  0
 27 28  1  6
 27 29  1  0
 29 30  1  0
 30 31  1  0
 31 32  1  1
  7  5  1  0
 31 10  1  0
 31 13  1  0
 27 15  1  0
 24 18  1  0
  1 33  1  0
  1 34  1  0
  1 35  1  0
  2 36  1  1
  3 37  1  0
  3 38  1  0
  4 39  1  0
  4 40  1  0
  5 41  1  6
  8 42  1  0
  8 43  1  0
  8 44  1  0
  9 45  1  0
  9 46  1  0
  9 47  1  0
 10 48  1  1
 11 49  1  0
 11 50  1  0
 12 51  1  0
 12 52  1  0
 14 53  1  0
 14 54  1  0
 14 55  1  0
 15 56  1  6
 16 57  1  0
 16 58  1  0
 17 59  1  0
 19 60  1  1
 20 61  1  0
 20 62  1  0
 21 63  1  0
 21 64  1  0
 22 65  1  1
 23 66  1  0
 25 67  1  0
 25 68  1  0
 25 69  1  0
 26 70  1  0
 26 71  1  0
 26 72  1  0
 28 73  1  0
 28 74  1  0
 28 75  1  0
 29 76  1  0
 29 77  1  0
 30 78  1  0
 30 79  1  0
 32 80  1  0
 32 81  1  0
 32 82  1  0
M  END
>  <meeko>  (9) 
{"is_sidechain": [false], "intermolecular_energy": 2.731, "internal_energy": -0.839}

$$$$
EPH_relaxed_0001_pdb2pqr_Repair_205_r2_0001_out
     RDKit          3D

 82 86  0  0  0  0  0  0  0  0999 V2000
   -0.1270   17.3130   -1.0470 C   0  0  0  0  0  0  0  0  0  0  0  0
   -0.2530   16.2440    0.0420 C   0  0  2  0  0  0  0  0  0  0  0  0
   -0.1840   16.8470    1.4590 C   0  0  0  0  0  0  0  0  0  0  0  0
    0.0700   18.3560    1.4740 C   0  0  0  0  0  0  0  0  0  0  0  0
    1.3840   18.6910    2.1110 C   0  0  2  0  0  0  0  0  0  0  0  0
    1.5890   20.0870    2.3650 O   0  0  0  0  0  0  0  0  0  0  0  0
    2.4760   19.4800    1.4120 C   0  0  0  0  0  0  0  0  0  0  0  0
    2.3020   19.9810    0.0120 C   0  0  0  0  0  0  0  0  0  0  0  0
    3.8840   19.3420    1.9010 C   0  0  0  0  0  0  0  0  0  0  0  0
    0.8400   15.1950   -0.1310 C   0  0  1  0  0  0  0  0  0  0  0  0
    1.0970   14.3810    1.1650 C   0  0  0  0  0  0  0  0  0  0  0  0
    1.4520   12.9380    0.7230 C   0  0  0  0  0  0  0  0  0  0  0  0
    1.7130   13.0480   -0.7980 C   0  0  1  0  0  0  0  0  0  0  0  0
    3.1760   13.5800   -0.9160 C   0  0  0  0  0  0  0  0  0  0  0  0
    1.5040   11.7420   -1.6310 C   0  0  2  0  0  0  0  0  0  0  0  0
    2.4380   10.5760   -1.2630 C   0  0  0  0  0  0  0  0  0  0  0  0
    3.7210   10.5220   -2.0250 C   0  0  0  0  0  0  0  0  0  0  0  0
    3.9870   11.1990   -3.1570 C   0  0  0  0  0  0  0  0  0  0  0  0
    2.9080   12.0490   -3.8400 C   0  0  1  0  0  0  0  0  0  0  0  0
    2.9000   11.7520   -5.3620 C   0  0  0  0  0  0  0  0  0  0  0  0
    4.2750   11.9330   -6.0000 C   0  0  0  0  0  0  0  0  0  0  0  0
    5.3080   11.0290   -5.3330 C   0  0  2  0  0  0  0  0  0  0  0  0
    4.9830    9.6660   -5.6210 O   0  0  0  0  0  0  0  0  0  0  0  0
    5.3980   11.2320   -3.7950 C   0  0  0  0  0  0  0  0  0  0  0  0
    6.0380   12.6080   -3.4880 C   0  0  0  0  0  0  0  0  0  0  0  0
    6.3730   10.1640   -3.2290 C   0  0  0  0  0  0  0  0  0  0  0  0
    1.4560   11.9730   -3.1960 C   0  0  1  0  0  0  0  0  0  0  0  0
    0.6690   10.7700   -3.8000 C   0  0  0  0  0  0  0  0  0  0  0  0
    0.6530   13.2690   -3.5860 C   0  0  0  0  0  0  0  0  0  0  0  0
    0.8070   14.4880   -2.6560 C   0  0  0  0  0  0  0  0  0  0  0  0
    0.6030   14.0900   -1.1910 C   0  0  2  0  0  0  0  0  0  0  0  0
   -0.8670   13.5720   -1.0370 C   0  0  0  0  0  0  0  0  0  0  0  0
   -0.0105   18.3015   -0.5787 H   0  0  0  0  0  0  0  0  0  0  0  0
    0.7520   17.0976   -1.6723 H   0  0  0  0  0  0  0  0  0  0  0  0
   -1.0320   17.3079   -1.6723 H   0  0  0  0  0  0  0  0  0  0  0  0
   -1.2413   15.7739   -0.0687 H   0  0  0  0  0  0  0  0  0  0  0  0
   -1.1398   16.6507    1.9668 H   0  0  0  0  0  0  0  0  0  0  0  0
    0.6675   16.3727    1.9689 H   0  0  0  0  0  0  0  0  0  0  0  0
    0.0709   18.7276    0.4387 H   0  0  0  0  0  0  0  0  0  0  0  0
   -0.7277   18.8319    2.0633 H   0  0  0  0  0  0  0  0  0  0  0  0
    1.3950   17.7304    2.6469 H   0  0  0  0  0  0  0  0  0  0  0  0
    1.9412   21.0199    0.0365 H   0  0  0  0  0  0  0  0  0  0  0  0
    3.2669   19.9403   -0.5146 H   0  0  0  0  0  0  0  0  0  0  0  0
    1.5700   19.3510   -0.5146 H   0  0  0  0  0  0  0  0  0  0  0  0
    3.8917   19.3412    3.0010 H   0  0  0  0  0  0  0  0  0  0  0  0
    4.3099   18.3978    1.5307 H   0  0  0  0  0  0  0  0  0  0  0  0
    4.4851   20.1855    1.5307 H   0  0  0  0  0  0  0  0  0  0  0  0
    1.6714   15.8441   -0.4433 H   0  0  0  0  0  0  0  0  0  0  0  0
    1.9325   14.8208    1.7293 H   0  0  0  0  0  0  0  0  0  0  0  0
    0.2119   14.3879    1.8181 H   0  0  0  0  0  0  0  0  0  0  0  0
    2.3515   12.5819    1.2465 H   0  0  0  0  0  0  0  0  0  0  0  0
    0.6513   12.2212    0.9578 H   0  0  0  0  0  0  0  0  0  0  0  0
    3.5933   13.7317    0.0904 H   0  0  0  0  0  0  0  0  0  0  0  0
    3.7897   12.8475   -1.4608 H   0  0  0  0  0  0  0  0  0  0  0  0
    3.1758   14.5356   -1.4608 H   0  0  0  0  0  0  0  0  0  0  0  0
    0.4966   11.4248   -1.3237 H   0  0  0  0  0  0  0  0  0  0  0  0
    2.6811   10.6597   -0.1935 H   0  0  0  0  0  0  0  0  0  0  0  0
    1.8923    9.6561   -1.5199 H   0  0  0  0  0  0  0  0  0  0  0  0
    4.5159    9.8740   -1.6273 H   0  0  0  0  0  0  0  0  0  0  0  0
    3.1919   13.0975   -3.6665 H   0  0  0  0  0  0  0  0  0  0  0  0
    2.5731   10.7132   -5.5170 H   0  0  0  0  0  0  0  0  0  0  0  0
    2.2135   12.4673   -5.8386 H   0  0  0  0  0  0  0  0  0  0  0  0
    4.2122   11.6806   -7.0688 H   0  0  0  0  0  0  0  0  0  0  0  0
    4.5877   12.9796   -5.8701 H   0  0  0  0  0  0  0  0  0  0  0  0
    6.2934   11.2967   -5.7422 H   0  0  0  0  0  0  0  0  0  0  0  0
    4.2960    9.6660   -6.3090 H   0  0  0  0  0  0  0  0  0  0  0  0
    6.1028   12.7474   -2.3988 H   0  0  0  0  0  0  0  0  0  0  0  0
    7.0473   12.6483   -3.9235 H   0  0  0  0  0  0  0  0  0  0  0  0
    5.4186   13.4059   -3.9235 H   0  0  0  0  0  0  0  0  0  0  0  0
    6.3484   10.1910   -2.1296 H   0  0  0  0  0  0  0  0  0  0  0  0
    6.0673    9.1667   -3.5782 H   0  0  0  0  0  0  0  0  0  0  0  0
    7.3939   10.3778   -3.5782 H   0  0  0  0  0  0  0  0  0  0  0  0
    0.2640   10.1509   -2.9859 H   0  0  0  0  0  0  0  0  0  0  0  0
   -0.1577   11.1469   -4.4201 H   0  0  0  0  0  0  0  0  0  0  0  0
    1.3455   10.1635   -4.4201 H   0  0  0  0  0  0  0  0  0  0  0  0
    0.9806   13.5736   -4.5909 H   0  0  0  0  0  0  0  0  0  0  0  0
   -0.4069   12.9837   -3.5134 H   0  0  0  0  0  0  0  0  0  0  0  0
    1.8164   14.9079   -2.7775 H   0  0  0  0  0  0  0  0  0  0  0  0
    0.0445   15.2334   -2.9261 H   0  0  0  0  0  0  0  0  0  0  0  0
   -1.1150   13.4846    0.0311 H   0  0  0  0  0  0  0  0  0  0  0  0
   -1.5577   14.2809   -1.5170 H   0  0  0  0  0  0  0  0  0  0  0  0
   -0.9607   12.5867   -1.5170 H   0  0  0  0  0  0  0  0  0  0  0  0
  1  2  1  0
  2  3  1  0
  3  4  1  0
  4  5  1  0
  5  6  1  0
  6  7  1  0
  7  8  1  0
  7  9  1  0
  2 10  1  0
 10 11  1  0
 11 12  1  0
 12 13  1  0
 13 14  1  1
 13 15  1  0
 15 16  1  0
 16 17  1  0
 17 18  2  0
 18 19  1  0
 19 20  1  0
 20 21  1  0
 21 22  1  0
 22 23  1  0
 22 24  1  0
 24 25  1  0
 24 26  1  0
 19 27  1  0
 27 28  1  6
 27 29  1  0
 29 30  1  0
 30 31  1  0
 31 32  1  6
  7  5  1  0
 31 10  1  0
 31 13  1  0
 27 15  1  0
 24 18  1  0
  1 33  1  0
  1 34  1  0
  1 35  1  0
  2 36  1  6
  3 37  1  0
  3 38  1  0
  4 39  1  0
  4 40  1  0
  5 41  1  1
  8 42  1  0
  8 43  1  0
  8 44  1  0
  9 45  1  0
  9 46  1  0
  9 47  1  0
 10 48  1  6
 11 49  1  0
 11 50  1  0
 12 51  1  0
 12 52  1  0
 14 53  1  0
 14 54  1  0
 14 55  1  0
 15 56  1  1
 16 57  1  0
 16 58  1  0
 17 59  1  0
 19 60  1  6
 20 61  1  0
 20 62  1  0
 21 63  1  0
 21 64  1  0
 22 65  1  6
 23 66  1  0
 25 67  1  0
 25 68  1  0
 25 69  1  0
 26 70  1  0
 26 71  1  0
 26 72  1  0
 28 73  1  0
 28 74  1  0
 28 75  1  0
 29 76  1  0
 29 77  1  0
 30 78  1  0
 30 79  1  0
 32 80  1  0
 32 81  1  0
 32 82  1  0
M  END
>  <meeko>  (10) 
{"is_sidechain": [false], "intermolecular_energy": 2.731, "internal_energy": -0.839}

$$$$
EPH_relaxed_0001_pdb2pqr_Repair_205_r2_0001_out
     RDKit          3D

 82 86  0  0  0  0  0  0  0  0999 V2000
   -0.1330    9.7190   -2.4410 C   0  0  0  0  0  0  0  0  0  0  0  0
    1.0240   10.6090   -2.9010 C   0  0  2  0  0  0  0  0  0  0  0  0
    2.3220    9.8060   -3.1230 C   0  0  0  0  0  0  0  0  0  0  0  0
    3.3110   10.4860   -4.0730 C   0  0  0  0  0  0  0  0  0  0  0  0
    4.6680   10.6280   -3.4510 C   0  0  2  0  0  0  0  0  0  0  0  0
    5.2850   11.9070   -3.6460 O   0  0  0  0  0  0  0  0  0  0  0  0
    5.9450   10.7860   -4.2560 C   0  0  0  0  0  0  0  0  0  0  0  0
    5.9260   10.8090   -5.7530 C   0  0  0  0  0  0  0  0  0  0  0  0
    7.2470   10.4280   -3.6100 C   0  0  0  0  0  0  0  0  0  0  0  0
    1.2650   11.7170   -1.8820 C   0  0  1  0  0  0  0  0  0  0  0  0
    2.5840   11.5220   -1.0880 C   0  0  0  0  0  0  0  0  0  0  0  0
    3.1580   12.9370   -0.8200 C   0  0  0  0  0  0  0  0  0  0  0  0
    2.0000   13.9000   -1.1700 C   0  0  1  0  0  0  0  0  0  0  0  0
    1.0810   13.8980    0.0910 C   0  0  0  0  0  0  0  0  0  0  0  0
    2.4100   15.3520   -1.5830 C   0  0  2  0  0  0  0  0  0  0  0  0
    3.1370   16.1590   -0.4930 C   0  0  0  0  0  0  0  0  0  0  0  0
    2.2530   16.9640    0.4010 C   0  0  0  0  0  0  0  0  0  0  0  0
    0.9630   17.2630    0.1610 C   0  0  0  0  0  0  0  0  0  0  0  0
    0.2920   16.8600   -1.1590 C   0  0  1  0  0  0  0  0  0  0  0  0
   -0.5020   18.0660   -1.7250 C   0  0  0  0  0  0  0  0  0  0  0  0
   -1.4950   18.6380   -0.7180 C   0  0  0  0  0  0  0  0  0  0  0  0
   -0.7830   19.0810    0.5580 C   0  0  2  0  0  0  0  0  0  0  0  0
    0.0630   20.1940    0.2510 O   0  0  0  0  0  0  0  0  0  0  0  0
    0.0590   17.9510    1.2140 C   0  0  0  0  0  0  0  0  0  0  0  0
   -0.8850   16.8820    1.8170 C   0  0  0  0  0  0  0  0  0  0  0  0
    0.8360   18.5670    2.4090 C   0  0  0  0  0  0  0  0  0  0  0  0
    1.2430   16.1920   -2.2430 C   0  0  1  0  0  0  0  0  0  0  0  0
    1.9230   17.2970   -3.1080 C   0  0  0  0  0  0  0  0  0  0  0  0
    0.3700   15.3300   -3.2300 C   0  0  0  0  0  0  0  0  0  0  0  0
    0.1000   13.8690   -2.8240 C   0  0  0  0  0  0  0  0  0  0  0  0
    1.3980   13.1630   -2.4210 C   0  0  2  0  0  0  0  0  0  0  0  0
    2.3350   13.1310   -3.6770 C   0  0  0  0  0  0  0  0  0  0  0  0
   -0.1631    9.6958   -1.3417 H   0  0  0  0  0  0  0  0  0  0  0  0
   -1.0813   10.1226   -2.8254 H   0  0  0  0  0  0  0  0  0  0  0  0
    0.0139    8.6989   -2.8254 H   0  0  0  0  0  0  0  0  0  0  0  0
    0.7384   11.0489   -3.8679 H   0  0  0  0  0  0  0  0  0  0  0  0
    2.8151    9.6668   -2.1496 H   0  0  0  0  0  0  0  0  0  0  0  0
    2.0341    8.8515   -3.5878 H   0  0  0  0  0  0  0  0  0  0  0  0
    3.3995    9.8818   -4.9879 H   0  0  0  0  0  0  0  0  0  0  0  0
    2.9309   11.4927   -4.3011 H   0  0  0  0  0  0  0  0  0  0  0  0
    4.3906    9.9462   -2.6335 H   0  0  0  0  0  0  0  0  0  0  0  0
    5.2610   11.6140   -6.0989 H   0  0  0  0  0  0  0  0  0  0  0  0
    6.9440   10.9870   -6.1299 H   0  0  0  0  0  0  0  0  0  0  0  0
    5.5591    9.8429   -6.1299 H   0  0  0  0  0  0  0  0  0  0  0  0
    7.1344   10.4590   -2.5162 H   0  0  0  0  0  0  0  0  0  0  0  0
    7.5436    9.4150   -3.9195 H   0  0  0  0  0  0  0  0  0  0  0  0
    8.0198   11.1470   -3.9195 H   0  0  0  0  0  0  0  0  0  0  0  0
    0.3458   11.6211   -1.2854 H   0  0  0  0  0  0  0  0  0  0  0  0
    2.3810   11.0091   -0.1363 H   0  0  0  0  0  0  0  0  0  0  0  0
    3.2986   10.9066   -1.6542 H   0  0  0  0  0  0  0  0  0  0  0  0
    3.4475   13.0452    0.2357 H   0  0  0  0  0  0  0  0  0  0  0  0
    4.0626   13.1394   -1.4123 H   0  0  0  0  0  0  0  0  0  0  0  0
    1.7032   13.8994    0.9981 H   0  0  0  0  0  0  0  0  0  0  0  0
    0.4440   14.7948    0.0819 H   0  0  0  0  0  0  0  0  0  0  0  0
    0.4479   12.9985    0.0819 H   0  0  0  0  0  0  0  0  0  0  0  0
    3.1573   15.1718   -2.3698 H   0  0  0  0  0  0  0  0  0  0  0  0
    3.7012   15.4525    0.1335 H   0  0  0  0  0  0  0  0  0  0  0  0
    3.7732   16.8827   -1.0236 H   0  0  0  0  0  0  0  0  0  0  0  0
    2.6931   17.3448    1.3344 H   0  0  0  0  0  0  0  0  0  0  0  0
   -0.3997   16.0411   -0.9121 H   0  0  0  0  0  0  0  0  0  0  0  0
    0.2099   18.8562   -2.0058 H   0  0  0  0  0  0  0  0  0  0  0  0
   -1.0754   17.7098   -2.5935 H   0  0  0  0  0  0  0  0  0  0  0  0
   -2.0035   19.5044   -1.1660 H   0  0  0  0  0  0  0  0  0  0  0  0
   -2.2240   17.8557   -0.4601 H   0  0  0  0  0  0  0  0  0  0  0  0
   -1.5574   19.3593    1.2879 H   0  0  0  0  0  0  0  0  0  0  0  0
    0.7250   19.8920   -0.3930 H   0  0  0  0  0  0  0  0  0  0  0  0
   -0.8412   16.9316    2.9150 H   0  0  0  0  0  0  0  0  0  0  0  0
   -1.9154   17.0720    1.4822 H   0  0  0  0  0  0  0  0  0  0  0  0
   -0.5690   15.8830    1.4822 H   0  0  0  0  0  0  0  0  0  0  0  0
    0.3941   18.2166    3.3534 H   0  0  0  0  0  0  0  0  0  0  0  0
    1.8902   18.2566    2.3601 H   0  0  0  0  0  0  0  0  0  0  0  0
    0.7742   19.6642    2.3601 H   0  0  0  0  0  0  0  0  0  0  0  0
    2.3844   18.0468   -2.4485 H   0  0  0  0  0  0  0  0  0  0  0  0
    2.6971   16.8411   -3.7428 H   0  0  0  0  0  0  0  0  0  0  0  0
    1.1672   17.7826   -3.7428 H   0  0  0  0  0  0  0  0  0  0  0  0
   -0.6035   15.8309   -3.3371 H   0  0  0  0  0  0  0  0  0  0  0  0
    0.9606   15.2667   -4.1559 H   0  0  0  0  0  0  0  0  0  0  0  0
   -0.5965   13.8550   -1.9727 H   0  0  0  0  0  0  0  0  0  0  0  0
   -0.3340   13.3402   -3.6854 H   0  0  0  0  0  0  0  0  0  0  0  0
    3.3848   13.0951   -3.3505 H   0  0  0  0  0  0  0  0  0  0  0  0
    2.1082   12.2401   -4.2810 H   0  0  0  0  0  0  0  0  0  0  0  0
    2.1696   14.0353   -4.2810 H   0  0  0  0  0  0  0  0  0  0  0  0
  1  2  1  0
  2  3  1  0
  3  4  1  0
  4  5  1  0
  5  6  1  0
  6  7  1  0
  7  8  1  0
  7  9  1  0
  2 10  1  0
 10 11  1  0
 11 12  1  0
 12 13  1  0
 13 14  1  1
 13 15  1  0
 15 16  1  0
 16 17  1  0
 17 18  2  0
 18 19  1  0
 19 20  1  0
 20 21  1  0
 21 22  1  0
 22 23  1  0
 22 24  1  0
 24 25  1  0
 24 26  1  0
 19 27  1  0
 27 28  1  6
 27 29  1  0
 29 30  1  0
 30 31  1  0
 31 32  1  6
  7  5  1  0
 31 10  1  0
 31 13  1  0
 27 15  1  0
 24 18  1  0
  1 33  1  0
  1 34  1  0
  1 35  1  0
  2 36  1  6
  3 37  1  0
  3 38  1  0
  4 39  1  0
  4 40  1  0
  5 41  1  1
  8 42  1  0
  8 43  1  0
  8 44  1  0
  9 45  1  0
  9 46  1  0
  9 47  1  0
 10 48  1  1
 11 49  1  0
 11 50  1  0
 12 51  1  0
 12 52  1  0
 14 53  1  0
 14 54  1  0
 14 55  1  0
 15 56  1  6
 16 57  1  0
 16 58  1  0
 17 59  1  0
 19 60  1  1
 20 61  1  0
 20 62  1  0
 21 63  1  0
 21 64  1  0
 22 65  1  1
 23 66  1  0
 25 67  1  0
 25 68  1  0
 25 69  1  0
 26 70  1  0
 26 71  1  0
 26 72  1  0
 28 73  1  0
 28 74  1  0
 28 75  1  0
 29 76  1  0
 29 77  1  0
 30 78  1  0
 30 79  1  0
 32 80  1  0
 32 81  1  0
 32 82  1  0
M  END
>  <meeko>  (11) 
{"is_sidechain": [false], "intermolecular_energy": 2.731, "internal_energy": -0.839}

$$$$
EPH_relaxed_0001_pdb2pqr_Repair_205_r2_0001_out
     RDKit          3D

 82 86  0  0  0  0  0  0  0  0999 V2000
    0.1100    8.9030   -2.3340 C   0  0  0  0  0  0  0  0  0  0  0  0
    0.8730   10.0590   -2.9880 C   0  0  2  0  0  0  0  0  0  0  0  0
    2.3790   10.0190   -2.6600 C   0  0  0  0  0  0  0  0  0  0  0  0
    3.2700   10.5280   -3.7970 C   0  0  0  0  0  0  0  0  0  0  0  0
    4.6620   10.8180   -3.3240 C   0  0  2  0  0  0  0  0  0  0  0  0
    5.2350   12.0220   -3.8510 O   0  0  0  0  0  0  0  0  0  0  0  0
    5.8770   10.7940   -4.2320 C   0  0  0  0  0  0  0  0  0  0  0  0
    5.7560   10.4710   -5.6880 C   0  0  0  0  0  0  0  0  0  0  0  0
    7.2280   10.6030   -3.6160 C   0  0  0  0  0  0  0  0  0  0  0  0
    0.2790   11.3900   -2.5440 C   0  0  1  0  0  0  0  0  0  0  0  0
   -1.0530   11.2210   -1.7660 C   0  0  0  0  0  0  0  0  0  0  0  0
   -1.0850   12.3320   -0.6850 C   0  0  0  0  0  0  0  0  0  0  0  0
    0.0540   13.2980   -1.0860 C   0  0  1  0  0  0  0  0  0  0  0  0
   -0.5570   14.1960   -2.2070 C   0  0  0  0  0  0  0  0  0  0  0  0
    0.6720   14.1550    0.0670 C   0  0  2  0  0  0  0  0  0  0  0  0
   -0.3040   15.1280    0.7510 C   0  0  0  0  0  0  0  0  0  0  0  0
   -0.3690   16.4940    0.1500 C   0  0  0  0  0  0  0  0  0  0  0  0
    0.5260   17.0130   -0.7100 C   0  0  0  0  0  0  0  0  0  0  0  0
    1.7960   16.2390   -1.0880 C   0  0  1  0  0  0  0  0  0  0  0  0
    3.0220   17.1860   -1.0100 C   0  0  0  0  0  0  0  0  0  0  0  0
    2.8390   18.4500   -1.8450 C   0  0  0  0  0  0  0  0  0  0  0  0
    1.5990   19.2220   -1.4000 C   0  0  2  0  0  0  0  0  0  0  0  0
    1.8170   19.7220   -0.0780 O   0  0  0  0  0  0  0  0  0  0  0  0
    0.3020   18.3660   -1.4280 C   0  0  0  0  0  0  0  0  0  0  0  0
   -0.1000   18.0770   -2.8960 C   0  0  0  0  0  0  0  0  0  0  0  0
   -0.8460   19.2200   -0.8240 C   0  0  0  0  0  0  0  0  0  0  0  0
    2.0300   14.8710   -0.3140 C   0  0  1  0  0  0  0  0  0  0  0  0
    2.7820   15.1410    1.0260 C   0  0  0  0  0  0  0  0  0  0  0  0
    2.9730   13.9480   -1.1740 C   0  0  0  0  0  0  0  0  0  0  0  0
    2.2920   13.0380   -2.2140 C   0  0  0  0  0  0  0  0  0  0  0  0
    1.1280   12.2650   -1.5870 C   0  0  2  0  0  0  0  0  0  0  0  0
    1.7150   11.3360   -0.4700 C   0  0  0  0  0  0  0  0  0  0  0  0
    0.1713    8.9958   -1.2396 H   0  0  0  0  0  0  0  0  0  0  0  0
   -0.9442    8.9362   -2.6463 H   0  0  0  0  0  0  0  0  0  0  0  0
    0.5550    7.9467   -2.6463 H   0  0  0  0  0  0  0  0  0  0  0  0
    0.7691    9.9503   -4.0777 H   0  0  0  0  0  0  0  0  0  0  0  0
    2.5579   10.6435   -1.7723 H   0  0  0  0  0  0  0  0  0  0  0  0
    2.6436    8.9647   -2.4914 H   0  0  0  0  0  0  0  0  0  0  0  0
    3.3139    9.7622   -4.5854 H   0  0  0  0  0  0  0  0  0  0  0  0
    2.8362   11.4637   -4.1794 H   0  0  0  0  0  0  0  0  0  0  0  0
    4.4565   10.3411   -2.3543 H   0  0  0  0  0  0  0  0  0  0  0  0
    5.3723    9.4468   -5.8057 H   0  0  0  0  0  0  0  0  0  0  0  0
    5.0623   11.1794   -6.1643 H   0  0  0  0  0  0  0  0  0  0  0  0
    6.7444   10.5493   -6.1643 H   0  0  0  0  0  0  0  0  0  0  0  0
    7.1364   10.6160   -2.5199 H   0  0  0  0  0  0  0  0  0  0  0  0
    7.6444    9.6370   -3.9377 H   0  0  0  0  0  0  0  0  0  0  0  0
    7.8959   11.4157   -3.9377 H   0  0  0  0  0  0  0  0  0  0  0  0
    0.1853   11.8841   -3.5223 H   0  0  0  0  0  0  0  0  0  0  0  0
   -1.9075   11.3331   -2.4495 H   0  0  0  0  0  0  0  0  0  0  0  0
   -1.1185   10.2230   -1.3081 H   0  0  0  0  0  0  0  0  0  0  0  0
   -2.0547   12.8513   -0.6902 H   0  0  0  0  0  0  0  0  0  0  0  0
   -0.9536   11.9303    0.3306 H   0  0  0  0  0  0  0  0  0  0  0  0
   -1.1195   15.0227   -1.7487 H   0  0  0  0  0  0  0  0  0  0  0  0
    0.2515   14.6043   -2.8312 H   0  0  0  0  0  0  0  0  0  0  0  0
   -1.2336   13.5938   -2.8312 H   0  0  0  0  0  0  0  0  0  0  0  0
    0.9143   13.3938    0.8232 H   0  0  0  0  0  0  0  0  0  0  0  0
   -1.3111   14.6879    0.7046 H   0  0  0  0  0  0  0  0  0  0  0  0
    0.0704   15.2641    1.7763 H   0  0  0  0  0  0  0  0  0  0  0  0
   -1.2207   17.1293    0.4347 H   0  0  0  0  0  0  0  0  0  0  0  0
    1.6504   15.9028   -2.1252 H   0  0  0  0  0  0  0  0  0  0  0  0
    3.1772   17.4762    0.0396 H   0  0  0  0  0  0  0  0  0  0  0  0
    3.8897   16.6427   -1.4124 H   0  0  0  0  0  0  0  0  0  0  0  0
    3.7246   19.0915   -1.7261 H   0  0  0  0  0  0  0  0  0  0  0  0
    2.7133   18.1601   -2.8986 H   0  0  0  0  0  0  0  0  0  0  0  0
    1.4478   20.0439   -2.1152 H   0  0  0  0  0  0  0  0  0  0  0  0
    1.2900   20.5340    0.0200 H   0  0  0  0  0  0  0  0  0  0  0  0
   -0.9931   17.4350   -2.9120 H   0  0  0  0  0  0  0  0  0  0  0  0
   -0.3205   19.0247   -3.4092 H   0  0  0  0  0  0  0  0  0  0  0  0
    0.7281   17.5662   -3.4092 H   0  0  0  0  0  0  0  0  0  0  0  0
   -0.7934   19.1809    0.2740 H   0  0  0  0  0  0  0  0  0  0  0  0
   -0.7428   20.2626   -1.1591 H   0  0  0  0  0  0  0  0  0  0  0  0
   -1.8149   18.8214   -1.1591 H   0  0  0  0  0  0  0  0  0  0  0  0
    2.1204   14.9034    1.8721 H   0  0  0  0  0  0  0  0  0  0  0  0
    3.6814   14.5096    1.0754 H   0  0  0  0  0  0  0  0  0  0  0  0
    3.0744   16.2003    1.0754 H   0  0  0  0  0  0  0  0  0  0  0  0
    3.6768   14.6001   -1.7121 H   0  0  0  0  0  0  0  0  0  0  0  0
    3.4408   13.2618   -0.4527 H   0  0  0  0  0  0  0  0  0  0  0  0
    1.9099   13.6574   -3.0389 H   0  0  0  0  0  0  0  0  0  0  0  0
    3.0329   12.3153   -2.5866 H   0  0  0  0  0  0  0  0  0  0  0  0
    1.4575   11.7436    0.5187 H   0  0  0  0  0  0  0  0  0  0  0  0
    1.2905   10.3264   -0.5723 H   0  0  0  0  0  0  0  0  0  0  0  0
    2.8091   11.2859   -0.5723 H   0  0  0  0  0  0  0  0  0  0  0  0
  1  2  1  0
  2  3  1  0
  3  4  1  0
  4  5  1  0
  5  6  1  0
  6  7  1  0
  7  8  1  0
  7  9  1  0
  2 10  1  0
 10 11  1  0
 11 12  1  0
 12 13  1  0
 13 14  1  6
 13 15  1  0
 15 16  1  0
 16 17  1  0
 17 18  2  0
 18 19  1  0
 19 20  1  0
 20 21  1  0
 21 22  1  0
 22 23  1  0
 22 24  1  0
 24 25  1  0
 24 26  1  0
 19 27  1  0
 27 28  1  1
 27 29  1  0
 29 30  1  0
 30 31  1  0
 31 32  1  1
  7  5  1  0
 31 10  1  0
 31 13  1  0
 27 15  1  0
 24 18  1  0
  1 33  1  0
  1 34  1  0
  1 35  1  0
  2 36  1  6
  3 37  1  0
  3 38  1  0
  4 39  1  0
  4 40  1  0
  5 41  1  1
  8 42  1  0
  8 43  1  0
  8 44  1  0
  9 45  1  0
  9 46  1  0
  9 47  1  0
 10 48  1  6
 11 49  1  0
 11 50  1  0
 12 51  1  0
 12 52  1  0
 14 53  1  0
 14 54  1  0
 14 55  1  0
 15 56  1  1
 16 57  1  0
 16 58  1  0
 17 59  1  0
 19 60  1  6
 20 61  1  0
 20 62  1  0
 21 63  1  0
 21 64  1  0
 22 65  1  6
 23 66  1  0
 25 67  1  0
 25 68  1  0
 25 69  1  0
 26 70  1  0
 26 71  1  0
 26 72  1  0
 28 73  1  0
 28 74  1  0
 28 75  1  0
 29 76  1  0
 29 77  1  0
 30 78  1  0
 30 79  1  0
 32 80  1  0
 32 81  1  0
 32 82  1  0
M  END
>  <meeko>  (12) 
{"is_sidechain": [false], "intermolecular_energy": 2.731, "internal_energy": -0.839}

$$$$
EPH_relaxed_0001_pdb2pqr_Repair_205_r2_0001_out
     RDKit          3D

 82 86  0  0  0  0  0  0  0  0999 V2000
   -5.1480    5.8500   -1.7840 C   0  0  0  0  0  0  0  0  0  0  0  0
   -5.4580    7.3490   -1.8200 C   0  0  2  0  0  0  0  0  0  0  0  0
   -5.2370    8.0200   -0.4500 C   0  0  0  0  0  0  0  0  0  0  0  0
   -4.2020    9.1490   -0.4770 C   0  0  0  0  0  0  0  0  0  0  0  0
   -2.8330    8.6390   -0.8110 C   0  0  2  0  0  0  0  0  0  0  0  0
   -1.8190    8.9770    0.1440 O   0  0  0  0  0  0  0  0  0  0  0  0
   -1.6680    9.5420   -1.1680 C   0  0  0  0  0  0  0  0  0  0  0  0
   -1.8190   11.0300   -1.2120 C   0  0  0  0  0  0  0  0  0  0  0  0
   -0.5270    8.9630   -1.9450 C   0  0  0  0  0  0  0  0  0  0  0  0
   -6.8920    7.5720   -2.2840 C   0  0  1  0  0  0  0  0  0  0  0  0
   -7.2000    6.8690   -3.6330 C   0  0  0  0  0  0  0  0  0  0  0  0
   -8.6750    6.3960   -3.5640 C   0  0  0  0  0  0  0  0  0  0  0  0
   -9.2610    7.1250   -2.3330 C   0  0  1  0  0  0  0  0  0  0  0  0
   -9.6120    8.5570   -2.8430 C   0  0  0  0  0  0  0  0  0  0  0  0
  -10.4870    6.4410   -1.6440 C   0  0  2  0  0  0  0  0  0  0  0  0
  -11.7410    6.3100   -2.5250 C   0  0  0  0  0  0  0  0  0  0  0  0
  -12.6950    7.4560   -2.4500 C   0  0  0  0  0  0  0  0  0  0  0  0
  -12.6990    8.4100   -1.5010 C   0  0  0  0  0  0  0  0  0  0  0  0
  -11.7340    8.3400   -0.3110 C   0  0  1  0  0  0  0  0  0  0  0  0
  -12.5090    8.6270    1.0020 C   0  0  0  0  0  0  0  0  0  0  0  0
  -13.2790    9.9440    0.9510 C   0  0  0  0  0  0  0  0  0  0  0  0
  -14.2690    9.9520   -0.2110 C   0  0  2  0  0  0  0  0  0  0  0  0
  -15.2860    8.9780    0.0440 O   0  0  0  0  0  0  0  0  0  0  0  0
  -13.6030    9.6640   -1.5860 C   0  0  0  0  0  0  0  0  0  0  0  0
  -12.7250   10.8700   -2.0010 C   0  0  0  0  0  0  0  0  0  0  0  0
  -14.7300    9.5600   -2.6490 C   0  0  0  0  0  0  0  0  0  0  0  0
  -10.8410    7.0290   -0.2180 C   0  0  1  0  0  0  0  0  0  0  0  0
  -11.6150    5.9110    0.5450 C   0  0  0  0  0  0  0  0  0  0  0  0
   -9.5550    7.3410    0.6360 C   0  0  0  0  0  0  0  0  0  0  0  0
   -8.3370    7.9030   -0.1220 C   0  0  0  0  0  0  0  0  0  0  0  0
   -8.0260    7.0600   -1.3620 C   0  0  2  0  0  0  0  0  0  0  0  0
   -7.6470    5.6190   -0.8780 C   0  0  0  0  0  0  0  0  0  0  0  0
   -5.0787    5.5149   -0.7386 H   0  0  0  0  0  0  0  0  0  0  0  0
   -5.9508    5.2972   -2.2938 H   0  0  0  0  0  0  0  0  0  0  0  0
   -4.1918    5.6610   -2.2938 H   0  0  0  0  0  0  0  0  0  0  0  0
   -4.7606    7.8145   -2.5320 H   0  0  0  0  0  0  0  0  0  0  0  0
   -6.1962    8.4363   -0.1085 H   0  0  0  0  0  0  0  0  0  0  0  0
   -4.8502    7.2455    0.2286 H   0  0  0  0  0  0  0  0  0  0  0  0
   -4.5012    9.8887   -1.2341 H   0  0  0  0  0  0  0  0  0  0  0  0
   -4.1637    9.6027    0.5243 H   0  0  0  0  0  0  0  0  0  0  0  0
   -3.2581    7.7531   -1.3054 H   0  0  0  0  0  0  0  0  0  0  0  0
   -1.8591   11.4250   -0.1861 H   0  0  0  0  0  0  0  0  0  0  0  0
   -0.9609   11.4701   -1.7411 H   0  0  0  0  0  0  0  0  0  0  0  0
   -2.7480   11.2888   -1.7411 H   0  0  0  0  0  0  0  0  0  0  0  0
    0.2325    8.5776   -1.2489 H   0  0  0  0  0  0  0  0  0  0  0  0
   -0.8940    8.1421   -2.5785 H   0  0  0  0  0  0  0  0  0  0  0  0
   -0.0811    9.7439   -2.5785 H   0  0  0  0  0  0  0  0  0  0  0  0
   -6.9044    8.6713   -2.3203 H   0  0  0  0  0  0  0  0  0  0  0  0
   -7.0669    7.5741   -4.4667 H   0  0  0  0  0  0  0  0  0  0  0  0
   -6.5204    6.0204   -3.8005 H   0  0  0  0  0  0  0  0  0  0  0  0
   -9.2171    6.6801   -4.4780 H   0  0  0  0  0  0  0  0  0  0  0  0
   -8.7590    5.3024   -3.4803 H   0  0  0  0  0  0  0  0  0  0  0  0
   -9.7752    9.2228   -1.9828 H   0  0  0  0  0  0  0  0  0  0  0  0
   -8.7818    8.9427   -3.4529 H   0  0  0  0  0  0  0  0  0  0  0  0
  -10.5265    8.5151   -3.4529 H   0  0  0  0  0  0  0  0  0  0  0  0
  -10.1253    5.4144   -1.4847 H   0  0  0  0  0  0  0  0  0  0  0  0
  -11.4132    6.2083   -3.5701 H   0  0  0  0  0  0  0  0  0  0  0  0
  -12.2879    5.4333   -2.1479 H   0  0  0  0  0  0  0  0  0  0  0  0
  -13.4597    7.5265   -3.2376 H   0  0  0  0  0  0  0  0  0  0  0  0
  -10.9841    9.1265   -0.4816 H   0  0  0  0  0  0  0  0  0  0  0  0
  -13.2223    7.8080    1.1767 H   0  0  0  0  0  0  0  0  0  0  0  0
  -11.7721    8.7023    1.8152 H   0  0  0  0  0  0  0  0  0  0  0  0
  -13.8296   10.0759    1.8941 H   0  0  0  0  0  0  0  0  0  0  0  0
  -12.5614   10.7651    0.8068 H   0  0  0  0  0  0  0  0  0  0  0  0
  -14.6946   10.9643   -0.2749 H   0  0  0  0  0  0  0  0  0  0  0  0
  -14.8570    8.1070    0.0820 H   0  0  0  0  0  0  0  0  0  0  0  0
  -12.3535   11.3803   -1.1001 H   0  0  0  0  0  0  0  0  0  0  0  0
  -11.8728   10.5146   -2.5988 H   0  0  0  0  0  0  0  0  0  0  0  0
  -13.3250   11.5718   -2.5988 H   0  0  0  0  0  0  0  0  0  0  0  0
  -15.7031    9.4702   -2.1441 H   0  0  0  0  0  0  0  0  0  0  0  0
  -14.7252   10.4624   -3.2780 H   0  0  0  0  0  0  0  0  0  0  0  0
  -14.5601    8.6737   -3.2780 H   0  0  0  0  0  0  0  0  0  0  0  0
  -11.5081    6.0654    1.6289 H   0  0  0  0  0  0  0  0  0  0  0  0
  -12.6799    5.9507    0.2722 H   0  0  0  0  0  0  0  0  0  0  0  0
  -11.2030    4.9282    0.2722 H   0  0  0  0  0  0  0  0  0  0  0  0
   -9.8363    8.0756    1.4049 H   0  0  0  0  0  0  0  0  0  0  0  0
   -9.2261    6.3670    1.0273 H   0  0  0  0  0  0  0  0  0  0  0  0
   -8.5524    8.9357   -0.4338 H   0  0  0  0  0  0  0  0  0  0  0  0
   -7.4647    7.8768    0.5476 H   0  0  0  0  0  0  0  0  0  0  0  0
   -7.6398    5.5916    0.2216 H   0  0  0  0  0  0  0  0  0  0  0  0
   -8.3862    4.8984   -1.2579 H   0  0  0  0  0  0  0  0  0  0  0  0
   -6.6489    5.3553   -1.2579 H   0  0  0  0  0  0  0  0  0  0  0  0
  1  2  1  0
  2  3  1  0
  3  4  1  0
  4  5  1  0
  5  6  1  0
  6  7  1  0
  7  8  1  0
  7  9  1  0
  2 10  1  0
 10 11  1  0
 11 12  1  0
 12 13  1  0
 13 14  1  6
 13 15  1  0
 15 16  1  0
 16 17  1  0
 17 18  2  0
 18 19  1  0
 19 20  1  0
 20 21  1  0
 21 22  1  0
 22 23  1  0
 22 24  1  0
 24 25  1  0
 24 26  1  0
 19 27  1  0
 27 28  1  1
 27 29  1  0
 29 30  1  0
 30 31  1  0
 31 32  1  1
  7  5  1  0
 31 10  1  0
 31 13  1  0
 27 15  1  0
 24 18  1  0
  1 33  1  0
  1 34  1  0
  1 35  1  0
  2 36  1  6
  3 37  1  0
  3 38  1  0
  4 39  1  0
  4 40  1  0
  5 41  1  6
  8 42  1  0
  8 43  1  0
  8 44  1  0
  9 45  1  0
  9 46  1  0
  9 47  1  0
 10 48  1  6
 11 49  1  0
 11 50  1  0
 12 51  1  0
 12 52  1  0
 14 53  1  0
 14 54  1  0
 14 55  1  0
 15 56  1  1
 16 57  1  0
 16 58  1  0
 17 59  1  0
 19 60  1  6
 20 61  1  0
 20 62  1  0
 21 63  1  0
 21 64  1  0
 22 65  1  6
 23 66  1  0
 25 67  1  0
 25 68  1  0
 25 69  1  0
 26 70  1  0
 26 71  1  0
 26 72  1  0
 28 73  1  0
 28 74  1  0
 28 75  1  0
 29 76  1  0
 29 77  1  0
 30 78  1  0
 30 79  1  0
 32 80  1  0
 32 81  1  0
 32 82  1  0
M  END
>  <meeko>  (13) 
{"is_sidechain": [false], "intermolecular_energy": 2.731, "internal_energy": -0.839}

$$$$
EPH_relaxed_0001_pdb2pqr_Repair_205_r2_0001_out
     RDKit          3D

 82 86  0  0  0  0  0  0  0  0999 V2000
   -0.8970   14.3980    3.0520 C   0  0  0  0  0  0  0  0  0  0  0  0
   -0.0720   15.1010    1.9710 C   0  0  2  0  0  0  0  0  0  0  0  0
   -0.9630   15.7780    0.9090 C   0  0  0  0  0  0  0  0  0  0  0  0
   -0.7240   17.2840    0.7750 C   0  0  0  0  0  0  0  0  0  0  0  0
    0.7330   17.6040    0.6300 C   0  0  2  0  0  0  0  0  0  0  0  0
    1.0120   18.9480    0.2160 O   0  0  0  0  0  0  0  0  0  0  0  0
    1.3930   17.9100   -0.7020 C   0  0  0  0  0  0  0  0  0  0  0  0
    0.6120   17.9090   -1.9790 C   0  0  0  0  0  0  0  0  0  0  0  0
    2.8740   17.7270   -0.8240 C   0  0  0  0  0  0  0  0  0  0  0  0
    0.8670   14.1040    1.3030 C   0  0  1  0  0  0  0  0  0  0  0  0
    1.2170   12.9040    2.2240 C   0  0  0  0  0  0  0  0  0  0  0  0
    1.3520   11.6610    1.3070 C   0  0  0  0  0  0  0  0  0  0  0  0
    1.4050   12.2380   -0.1270 C   0  0  1  0  0  0  0  0  0  0  0  0
    2.8850   12.6970   -0.3200 C   0  0  0  0  0  0  0  0  0  0  0  0
    0.9430   11.2820   -1.2740 C   0  0  2  0  0  0  0  0  0  0  0  0
    1.7920   10.0090   -1.4440 C   0  0  0  0  0  0  0  0  0  0  0  0
    2.9410   10.1300   -2.3890 C   0  0  0  0  0  0  0  0  0  0  0  0
    3.1150   11.1180   -3.2860 C   0  0  0  0  0  0  0  0  0  0  0  0
    2.0460   12.2000   -3.4840 C   0  0  1  0  0  0  0  0  0  0  0  0
    1.7920   12.4080   -5.0000 C   0  0  0  0  0  0  0  0  0  0  0  0
    3.0740   12.7060   -5.7720 C   0  0  0  0  0  0  0  0  0  0  0  0
    4.0900   11.5800   -5.5980 C   0  0  2  0  0  0  0  0  0  0  0  0
    3.5840   10.4010   -6.2320 O   0  0  0  0  0  0  0  0  0  0  0  0
    4.4170   11.2740   -4.1100 C   0  0  0  0  0  0  0  0  0  0  0  0
    5.2360   12.4420   -3.5060 C   0  0  0  0  0  0  0  0  0  0  0  0
    5.3430   10.0290   -4.0710 C   0  0  0  0  0  0  0  0  0  0  0  0
    0.7000   12.0030   -2.6610 C   0  0  1  0  0  0  0  0  0  0  0  0
   -0.2870   11.1030   -3.4650 C   0  0  0  0  0  0  0  0  0  0  0  0
   -0.0090   13.3990   -2.4930 C   0  0  0  0  0  0  0  0  0  0  0  0
    0.4040   14.2460   -1.2740 C   0  0  0  0  0  0  0  0  0  0  0  0
    0.3680   13.4120    0.0100 C   0  0  2  0  0  0  0  0  0  0  0  0
   -1.1120   12.9550    0.2420 C   0  0  0  0  0  0  0  0  0  0  0  0
   -0.5372   14.7046    4.0452 H   0  0  0  0  0  0  0  0  0  0  0  0
   -1.9558   14.6757    2.9438 H   0  0  0  0  0  0  0  0  0  0  0  0
   -0.7908   13.3085    2.9438 H   0  0  0  0  0  0  0  0  0  0  0  0
    0.5138   15.8911    2.4635 H   0  0  0  0  0  0  0  0  0  0  0  0
   -0.7624   15.3065   -0.0644 H   0  0  0  0  0  0  0  0  0  0  0  0
   -2.0060   15.6455    1.2324 H   0  0  0  0  0  0  0  0  0  0  0  0
   -1.2598   17.6523   -0.1123 H   0  0  0  0  0  0  0  0  0  0  0  0
   -1.0926   17.7721    1.6893 H   0  0  0  0  0  0  0  0  0  0  0  0
    0.9920   16.9045    1.4384 H   0  0  0  0  0  0  0  0  0  0  0  0
   -0.4640   17.9076   -1.7507 H   0  0  0  0  0  0  0  0  0  0  0  0
    0.8619   18.8075   -2.5624 H   0  0  0  0  0  0  0  0  0  0  0  0
    0.8642   17.0112   -2.5624 H   0  0  0  0  0  0  0  0  0  0  0  0
    3.3206   17.6718    0.1798 H   0  0  0  0  0  0  0  0  0  0  0  0
    3.0846   16.7960   -1.3707 H   0  0  0  0  0  0  0  0  0  0  0  0
    3.3049   18.5787   -1.3707 H   0  0  0  0  0  0  0  0  0  0  0  0
    1.7094   14.7720    1.0704 H   0  0  0  0  0  0  0  0  0  0  0  0
    2.1654   13.0928    2.7482 H   0  0  0  0  0  0  0  0  0  0  0  0
    0.4383   12.7503    2.9856 H   0  0  0  0  0  0  0  0  0  0  0  0
    2.2741   11.1071    1.5370 H   0  0  0  0  0  0  0  0  0  0  0  0
    0.5219   10.9517    1.4409 H   0  0  0  0  0  0  0  0  0  0  0  0
    3.3550   12.8427    0.6638 H   0  0  0  0  0  0  0  0  0  0  0  0
    3.4374   11.9280   -0.8799 H   0  0  0  0  0  0  0  0  0  0  0  0
    2.9053   13.6436   -0.8799 H   0  0  0  0  0  0  0  0  0  0  0  0
   -0.0394   10.9412   -0.9151 H   0  0  0  0  0  0  0  0  0  0  0  0
    2.1914    9.7326   -0.4570 H   0  0  0  0  0  0  0  0  0  0  0  0
    1.1214    9.2516   -1.8760 H   0  0  0  0  0  0  0  0  0  0  0  0
    3.7107    9.3452   -2.3488 H   0  0  0  0  0  0  0  0  0  0  0  0
    2.4607   13.1201   -3.0464 H   0  0  0  0  0  0  0  0  0  0  0  0
    1.3376   11.4940   -5.4102 H   0  0  0  0  0  0  0  0  0  0  0  0
    1.1256   13.2761   -5.1111 H   0  0  0  0  0  0  0  0  0  0  0  0
    2.8344   12.8127   -6.8403 H   0  0  0  0  0  0  0  0  0  0  0  0
    3.5110   13.6367   -5.3809 H   0  0  0  0  0  0  0  0  0  0  0  0
    5.0305   11.9093   -6.0639 H   0  0  0  0  0  0  0  0  0  0  0  0
    4.1400    9.6550   -5.9510 H   0  0  0  0  0  0  0  0  0  0  0  0
    5.1977   12.3874   -2.4080 H   0  0  0  0  0  0  0  0  0  0  0  0
    6.2813   12.3684   -3.8405 H   0  0  0  0  0  0  0  0  0  0  0  0
    4.8106   13.3996   -3.8405 H   0  0  0  0  0  0  0  0  0  0  0  0
    5.5462    9.7558   -3.0250 H   0  0  0  0  0  0  0  0  0  0  0  0
    4.8489    9.1884   -4.5802 H   0  0  0  0  0  0  0  0  0  0  0  0
    6.2902   10.2604   -4.5802 H   0  0  0  0  0  0  0  0  0  0  0  0
   -0.9143   10.5310   -2.7655 H   0  0  0  0  0  0  0  0  0  0  0  0
   -0.9267   11.7352   -4.0984 H   0  0  0  0  0  0  0  0  0  0  0  0
    0.2836   10.4079   -4.0984 H   0  0  0  0  0  0  0  0  0  0  0  0
    0.2024   13.9904   -3.3961 H   0  0  0  0  0  0  0  0  0  0  0  0
   -1.0718   13.1646   -2.3337 H   0  0  0  0  0  0  0  0  0  0  0  0
    1.4250   14.6251   -1.4284 H   0  0  0  0  0  0  0  0  0  0  0  0
   -0.3049   15.0807   -1.1703 H   0  0  0  0  0  0  0  0  0  0  0  0
   -1.3117   12.8933    1.3220 H   0  0  0  0  0  0  0  0  0  0  0  0
   -1.7969   13.6835   -0.2165 H   0  0  0  0  0  0  0  0  0  0  0  0
   -1.2669   11.9672   -0.2165 H   0  0  0  0  0  0  0  0  0  0  0  0
  1  2  1  0
  2  3  1  0
  3  4  1  0
  4  5  1  0
  5  6  1  0
  6  7  1  0
  7  8  1  0
  7  9  1  0
  2 10  1  0
 10 11  1  0
 11 12  1  0
 12 13  1  0
 13 14  1  6
 13 15  1  0
 15 16  1  0
 16 17  1  0
 17 18  2  0
 18 19  1  0
 19 20  1  0
 20 21  1  0
 21 22  1  0
 22 23  1  0
 22 24  1  0
 24 25  1  0
 24 26  1  0
 19 27  1  0
 27 28  1  6
 27 29  1  0
 29 30  1  0
 30 31  1  0
 31 32  1  1
  7  5  1  0
 31 10  1  0
 31 13  1  0
 27 15  1  0
 24 18  1  0
  1 33  1  0
  1 34  1  0
  1 35  1  0
  2 36  1  1
  3 37  1  0
  3 38  1  0
  4 39  1  0
  4 40  1  0
  5 41  1  1
  8 42  1  0
  8 43  1  0
  8 44  1  0
  9 45  1  0
  9 46  1  0
  9 47  1  0
 10 48  1  6
 11 49  1  0
 11 50  1  0
 12 51  1  0
 12 52  1  0
 14 53  1  0
 14 54  1  0
 14 55  1  0
 15 56  1  1
 16 57  1  0
 16 58  1  0
 17 59  1  0
 19 60  1  1
 20 61  1  0
 20 62  1  0
 21 63  1  0
 21 64  1  0
 22 65  1  6
 23 66  1  0
 25 67  1  0
 25 68  1  0
 25 69  1  0
 26 70  1  0
 26 71  1  0
 26 72  1  0
 28 73  1  0
 28 74  1  0
 28 75  1  0
 29 76  1  0
 29 77  1  0
 30 78  1  0
 30 79  1  0
 32 80  1  0
 32 81  1  0
 32 82  1  0
M  END
>  <meeko>  (14) 
{"is_sidechain": [false], "intermolecular_energy": 2.731, "internal_energy": -0.839}

$$$$
EPH_relaxed_0001_pdb2pqr_Repair_205_r2_0001_out
     RDKit          3D

 82 86  0  0  0  0  0  0  0  0999 V2000
    0.1300   17.2020    0.2620 C   0  0  0  0  0  0  0  0  0  0  0  0
   -0.4530   15.7870    0.2180 C   0  0  2  0  0  0  0  0  0  0  0  0
   -1.2270   15.4380    1.5050 C   0  0  0  0  0  0  0  0  0  0  0  0
   -0.3420   15.3520    2.7510 C   0  0  0  0  0  0  0  0  0  0  0  0
   -1.1090   14.8650    3.9430 C   0  0  2  0  0  0  0  0  0  0  0  0
   -0.3520   14.8090    5.1600 O   0  0  0  0  0  0  0  0  0  0  0  0
   -0.8180   13.5510    4.6450 C   0  0  0  0  0  0  0  0  0  0  0  0
    0.2750   12.6420    4.1780 C   0  0  0  0  0  0  0  0  0  0  0  0
   -1.9000   12.9260    5.4700 C   0  0  0  0  0  0  0  0  0  0  0  0
    0.6610   14.7720   -0.0110 C   0  0  1  0  0  0  0  0  0  0  0  0
    0.8810   13.8400    1.2100 C   0  0  0  0  0  0  0  0  0  0  0  0
    1.2740   12.4510    0.6470 C   0  0  0  0  0  0  0  0  0  0  0  0
    1.5910   12.7090   -0.8450 C   0  0  1  0  0  0  0  0  0  0  0  0
    3.0490   13.2670   -0.8550 C   0  0  0  0  0  0  0  0  0  0  0  0
    1.4330   11.4870   -1.8070 C   0  0  2  0  0  0  0  0  0  0  0  0
    2.3710   10.3020   -1.5150 C   0  0  0  0  0  0  0  0  0  0  0  0
    3.6820   10.3360   -2.2280 C   0  0  0  0  0  0  0  0  0  0  0  0
    3.9810   11.1220   -3.2790 C   0  0  0  0  0  0  0  0  0  0  0  0
    2.9150   12.0200   -3.9190 C   0  0  1  0  0  0  0  0  0  0  0  0
    2.9700   11.8710   -5.4620 C   0  0  0  0  0  0  0  0  0  0  0  0
    4.3640   12.1280   -6.0250 C   0  0  0  0  0  0  0  0  0  0  0  0
    5.3860   11.1760   -5.4080 C   0  0  2  0  0  0  0  0  0  0  0  0
    5.0920    9.8430   -5.8370 O   0  0  0  0  0  0  0  0  0  0  0  0
    5.4140   11.2320   -3.8550 C   0  0  0  0  0  0  0  0  0  0  0  0
    6.0210   12.5790   -3.3930 C   0  0  0  0  0  0  0  0  0  0  0  0
    6.3830   10.1260   -3.3560 C   0  0  0  0  0  0  0  0  0  0  0  0
    1.4420   11.8660   -3.3430 C   0  0  1  0  0  0  0  0  0  0  0  0
    0.6960   10.7180   -4.0890 C   0  0  0  0  0  0  0  0  0  0  0  0
    0.6340   13.1850   -3.6390 C   0  0  0  0  0  0  0  0  0  0  0  0
    0.7350   14.3110   -2.5920 C   0  0  0  0  0  0  0  0  0  0  0  0
    0.4810   13.7720   -1.1810 C   0  0  2  0  0  0  0  0  0  0  0  0
   -0.9860   13.2250   -1.1340 C   0  0  0  0  0  0  0  0  0  0  0  0
    0.2583   17.5133    1.3092 H   0  0  0  0  0  0  0  0  0  0  0  0
    1.1057   17.2125   -0.2458 H   0  0  0  0  0  0  0  0  0  0  0  0
   -0.5551   17.8968   -0.2458 H   0  0  0  0  0  0  0  0  0  0  0  0
   -1.1673   15.7495   -0.6177 H   0  0  0  0  0  0  0  0  0  0  0  0
   -1.9890   16.2133    1.6731 H   0  0  0  0  0  0  0  0  0  0  0  0
   -1.6682   14.4416    1.3546 H   0  0  0  0  0  0  0  0  0  0  0  0
    0.4870   14.6569    2.5522 H   0  0  0  0  0  0  0  0  0  0  0  0
    0.0347   16.3610    2.9744 H   0  0  0  0  0  0  0  0  0  0  0  0
   -2.0396   15.3032    3.5533 H   0  0  0  0  0  0  0  0  0  0  0  0
    0.7917   12.2123    5.0489 H   0  0  0  0  0  0  0  0  0  0  0  0
   -0.1559   11.8322    3.5709 H   0  0  0  0  0  0  0  0  0  0  0  0
    0.9927   13.2133    3.5709 H   0  0  0  0  0  0  0  0  0  0  0  0
   -1.6702   13.0588    6.5375 H   0  0  0  0  0  0  0  0  0  0  0  0
   -2.8616   13.4078    5.2393 H   0  0  0  0  0  0  0  0  0  0  0  0
   -1.9631   11.8523    5.2393 H   0  0  0  0  0  0  0  0  0  0  0  0
    1.4941   15.4573   -0.2261 H   0  0  0  0  0  0  0  0  0  0  0  0
    1.6878   14.2330    1.8460 H   0  0  0  0  0  0  0  0  0  0  0  0
   -0.0284   13.7739    1.8253 H   0  0  0  0  0  0  0  0  0  0  0  0
    2.1582   12.0566    1.1691 H   0  0  0  0  0  0  0  0  0  0  0  0
    0.4757   11.7061    0.7807 H   0  0  0  0  0  0  0  0  0  0  0  0
    3.3976   13.4004    0.1797 H   0  0  0  0  0  0  0  0  0  0  0  0
    3.7094   12.5581   -1.3759 H   0  0  0  0  0  0  0  0  0  0  0  0
    3.0673   14.2357   -1.3759 H   0  0  0  0  0  0  0  0  0  0  0  0
    0.4190   11.1310   -1.5723 H   0  0  0  0  0  0  0  0  0  0  0  0
    2.5724   10.2863   -0.4337 H   0  0  0  0  0  0  0  0  0  0  0  0
    1.8497    9.4043   -1.8790 H   0  0  0  0  0  0  0  0  0  0  0  0
    4.4707    9.6614   -1.8636 H   0  0  0  0  0  0  0  0  0  0  0  0
    3.1750   13.0503   -3.6345 H   0  0  0  0  0  0  0  0  0  0  0  0
    2.6651   10.8483   -5.7286 H   0  0  0  0  0  0  0  0  0  0  0  0
    2.2917   12.6213   -5.8943 H   0  0  0  0  0  0  0  0  0  0  0  0
    4.3452   11.9789   -7.1147 H   0  0  0  0  0  0  0  0  0  0  0  0
    4.6554   13.1607   -5.7829 H   0  0  0  0  0  0  0  0  0  0  0  0
    6.3820   11.4923   -5.7513 H   0  0  0  0  0  0  0  0  0  0  0  0
    5.6100    9.2350   -5.2830 H   0  0  0  0  0  0  0  0  0  0  0  0
    6.0376   12.6159   -2.2937 H   0  0  0  0  0  0  0  0  0  0  0  0
    7.0472   12.6702   -3.7785 H   0  0  0  0  0  0  0  0  0  0  0  0
    5.4095   13.4082   -3.7785 H   0  0  0  0  0  0  0  0  0  0  0  0
    6.3922   10.1155   -2.2561 H   0  0  0  0  0  0  0  0  0  0  0  0
    6.0461    9.1476   -3.7292 H   0  0  0  0  0  0  0  0  0  0  0  0
    7.3972   10.3314   -3.7292 H   0  0  0  0  0  0  0  0  0  0  0  0
    0.2502   10.0319   -3.3538 H   0  0  0  0  0  0  0  0  0  0  0  0
   -0.0974   11.1454   -4.7198 H   0  0  0  0  0  0  0  0  0  0  0  0
    1.4089   10.1667   -4.7198 H   0  0  0  0  0  0  0  0  0  0  0  0
    0.9942   13.5880   -4.5970 H   0  0  0  0  0  0  0  0  0  0  0  0
   -0.4234   12.8820   -3.6349 H   0  0  0  0  0  0  0  0  0  0  0  0
    1.7422   14.7513   -2.6331 H   0  0  0  0  0  0  0  0  0  0  0  0
   -0.0270   15.0709   -2.8196 H   0  0  0  0  0  0  0  0  0  0  0  0
   -1.3002   13.1078   -0.0864 H   0  0  0  0  0  0  0  0  0  0  0  0
   -1.6578   13.9331   -1.6413 H   0  0  0  0  0  0  0  0  0  0  0  0
   -1.0302   12.2500   -1.6413 H   0  0  0  0  0  0  0  0  0  0  0  0
  1  2  1  0
  2  3  1  0
  3  4  1  0
  4  5  1  0
  5  6  1  0
  6  7  1  0
  7  8  1  0
  7  9  1  0
  2 10  1  0
 10 11  1  0
 11 12  1  0
 12 13  1  0
 13 14  1  1
 13 15  1  0
 15 16  1  0
 16 17  1  0
 17 18  2  0
 18 19  1  0
 19 20  1  0
 20 21  1  0
 21 22  1  0
 22 23  1  0
 22 24  1  0
 24 25  1  0
 24 26  1  0
 19 27  1  0
 27 28  1  6
 27 29  1  0
 29 30  1  0
 30 31  1  0
 31 32  1  6
  7  5  1  0
 31 10  1  0
 31 13  1  0
 27 15  1  0
 24 18  1  0
  1 33  1  0
  1 34  1  0
  1 35  1  0
  2 36  1  6
  3 37  1  0
  3 38  1  0
  4 39  1  0
  4 40  1  0
  5 41  1  1
  8 42  1  0
  8 43  1  0
  8 44  1  0
  9 45  1  0
  9 46  1  0
  9 47  1  0
 10 48  1  6
 11 49  1  0
 11 50  1  0
 12 51  1  0
 12 52  1  0
 14 53  1  0
 14 54  1  0
 14 55  1  0
 15 56  1  1
 16 57  1  0
 16 58  1  0
 17 59  1  0
 19 60  1  6
 20 61  1  0
 20 62  1  0
 21 63  1  0
 21 64  1  0
 22 65  1  6
 23 66  1  0
 25 67  1  0
 25 68  1  0
 25 69  1  0
 26 70  1  0
 26 71  1  0
 26 72  1  0
 28 73  1  0
 28 74  1  0
 28 75  1  0
 29 76  1  0
 29 77  1  0
 30 78  1  0
 30 79  1  0
 32 80  1  0
 32 81  1  0
 32 82  1  0
M  END
>  <meeko>  (15) 
{"is_sidechain": [false], "intermolecular_energy": 2.731, "internal_energy": -0.839}

$$$$
EPH_relaxed_0001_pdb2pqr_Repair_205_r2_0001_out
     RDKit          3D

 82 86  0  0  0  0  0  0  0  0999 V2000
    1.6400   18.6970   -2.4040 C   0  0  0  0  0  0  0  0  0  0  0  0
    1.0050   17.8330   -1.3100 C   0  0  2  0  0  0  0  0  0  0  0  0
    1.3960   18.3070    0.1040 C   0  0  0  0  0  0  0  0  0  0  0  0
    0.8260   19.6790    0.4730 C   0  0  0  0  0  0  0  0  0  0  0  0
   -0.6340   19.6030    0.8010 C   0  0  2  0  0  0  0  0  0  0  0  0
   -1.3230   18.4930    0.2110 O   0  0  0  0  0  0  0  0  0  0  0  0
   -1.7340   19.7990   -0.2250 C   0  0  0  0  0  0  0  0  0  0  0  0
   -1.4200   20.0880   -1.6600 C   0  0  0  0  0  0  0  0  0  0  0  0
   -3.0970   20.1930    0.2530 C   0  0  0  0  0  0  0  0  0  0  0  0
    1.4050   16.3750   -1.5010 C   0  0  1  0  0  0  0  0  0  0  0  0
    2.9440   16.1750   -1.5100 C   0  0  0  0  0  0  0  0  0  0  0  0
    3.2210   14.8060   -0.8360 C   0  0  0  0  0  0  0  0  0  0  0  0
    1.8370   14.1200   -0.7630 C   0  0  1  0  0  0  0  0  0  0  0  0
    1.6140   13.5170   -2.1850 C   0  0  0  0  0  0  0  0  0  0  0  0
    1.6580   13.0430    0.3550 C   0  0  2  0  0  0  0  0  0  0  0  0
    2.5810   11.8180    0.2360 C   0  0  0  0  0  0  0  0  0  0  0  0
    2.0300   10.6790   -0.5580 C   0  0  0  0  0  0  0  0  0  0  0  0
    0.7400   10.5240   -0.9100 C   0  0  0  0  0  0  0  0  0  0  0  0
   -0.3340   11.5040   -0.4210 C   0  0  1  0  0  0  0  0  0  0  0  0
   -1.5610   10.7100    0.1000 C   0  0  0  0  0  0  0  0  0  0  0  0
   -2.0990    9.7210   -0.9300 C   0  0  0  0  0  0  0  0  0  0  0  0
   -1.0180    8.7280   -1.3490 C   0  0  2  0  0  0  0  0  0  0  0  0
   -0.6940    7.9000   -0.2270 O   0  0  0  0  0  0  0  0  0  0  0  0
    0.2710    9.4130   -1.8820 C   0  0  0  0  0  0  0  0  0  0  0  0
   -0.0150   10.0610   -3.2590 C   0  0  0  0  0  0  0  0  0  0  0  0
    1.3300    8.3060   -2.1350 C   0  0  0  0  0  0  0  0  0  0  0  0
    0.1560   12.6130    0.6060 C   0  0  1  0  0  0  0  0  0  0  0  0
    0.0890   12.0570    2.0620 C   0  0  0  0  0  0  0  0  0  0  0  0
   -0.8340   13.8360    0.5530 C   0  0  0  0  0  0  0  0  0  0  0  0
   -0.5350   14.9260   -0.4940 C   0  0  0  0  0  0  0  0  0  0  0  0
    0.9320   15.3620   -0.4290 C   0  0  2  0  0  0  0  0  0  0  0  0
    1.1820   15.9930    0.9830 C   0  0  0  0  0  0  0  0  0  0  0  0
    2.2306   19.5006   -1.9399 H   0  0  0  0  0  0  0  0  0  0  0  0
    2.2964   18.0735   -3.0288 H   0  0  0  0  0  0  0  0  0  0  0  0
    0.8490   19.1373   -3.0288 H   0  0  0  0  0  0  0  0  0  0  0  0
   -0.0866   17.9330   -1.4011 H   0  0  0  0  0  0  0  0  0  0  0  0
    1.0259   17.5700    0.8320 H   0  0  0  0  0  0  0  0  0  0  0  0
    2.4920   18.3994    0.1203 H   0  0  0  0  0  0  0  0  0  0  0  0
    1.3682   20.0666    1.3481 H   0  0  0  0  0  0  0  0  0  0  0  0
    0.9483   20.3453   -0.3936 H   0  0  0  0  0  0  0  0  0  0  0  0
   -0.4590   20.0526    1.7895 H   0  0  0  0  0  0  0  0  0  0  0  0
   -0.6117   20.8320   -1.7158 H   0  0  0  0  0  0  0  0  0  0  0  0
   -1.1006   19.1613   -2.1593 H   0  0  0  0  0  0  0  0  0  0  0  0
   -2.3170   20.4830   -2.1593 H   0  0  0  0  0  0  0  0  0  0  0  0
   -3.1127   20.1975    1.3529 H   0  0  0  0  0  0  0  0  0  0  0  0
   -3.3404   21.1983   -0.1213 H   0  0  0  0  0  0  0  0  0  0  0  0
   -3.8393   19.4727   -0.1213 H   0  0  0  0  0  0  0  0  0  0  0  0
    0.9048   16.1698   -2.4590 H   0  0  0  0  0  0  0  0  0  0  0  0
    3.3195   16.1711   -2.5439 H   0  0  0  0  0  0  0  0  0  0  0  0
    3.4514   16.9897   -0.9727 H   0  0  0  0  0  0  0  0  0  0  0  0
    3.9188   14.2091   -1.4416 H   0  0  0  0  0  0  0  0  0  0  0  0
    3.6852   14.9154    0.1553 H   0  0  0  0  0  0  0  0  0  0  0  0
    1.2338   12.4890   -2.0919 H   0  0  0  0  0  0  0  0  0  0  0  0
    0.8831   14.1300   -2.7327 H   0  0  0  0  0  0  0  0  0  0  0  0
    2.5679   13.5070   -2.7327 H   0  0  0  0  0  0  0  0  0  0  0  0
    1.9911   13.5806    1.2550 H   0  0  0  0  0  0  0  0  0  0  0  0
    3.5176   12.1431   -0.2407 H   0  0  0  0  0  0  0  0  0  0  0  0
    2.7164   11.4383    1.2595 H   0  0  0  0  0  0  0  0  0  0  0  0
    2.7377    9.9018   -0.8822 H   0  0  0  0  0  0  0  0  0  0  0  0
   -0.6218   12.1024   -1.2980 H   0  0  0  0  0  0  0  0  0  0  0  0
   -1.2641   10.1537    1.0013 H   0  0  0  0  0  0  0  0  0  0  0  0
   -2.3600   11.4345    0.3160 H   0  0  0  0  0  0  0  0  0  0  0  0
   -2.9443    9.1696   -0.4924 H   0  0  0  0  0  0  0  0  0  0  0  0
   -2.4244   10.2817   -1.8187 H   0  0  0  0  0  0  0  0  0  0  0  0
   -1.4221    8.1318   -2.1804 H   0  0  0  0  0  0  0  0  0  0  0  0
   -0.5340    7.0010   -0.5620 H   0  0  0  0  0  0  0  0  0  0  0  0
   -0.4551   11.0582   -3.1107 H   0  0  0  0  0  0  0  0  0  0  0  0
    0.9251   10.1552   -3.8223 H   0  0  0  0  0  0  0  0  0  0  0  0
   -0.7182    9.4299   -3.8223 H   0  0  0  0  0  0  0  0  0  0  0  0
    1.6969    7.9225   -1.1715 H   0  0  0  0  0  0  0  0  0  0  0  0
    0.8727    7.4848   -2.7064 H   0  0  0  0  0  0  0  0  0  0  0  0
    2.1707    8.7265   -2.7064 H   0  0  0  0  0  0  0  0  0  0  0  0
    0.1891   12.8873    2.7765 H   0  0  0  0  0  0  0  0  0  0  0  0
   -0.8763   11.5533    2.2181 H   0  0  0  0  0  0  0  0  0  0  0  0
    0.9070   11.3384    2.2181 H   0  0  0  0  0  0  0  0  0  0  0  0
   -1.8396   13.4416    0.3451 H   0  0  0  0  0  0  0  0  0  0  0  0
   -0.7275   14.3354    1.5273 H   0  0  0  0  0  0  0  0  0  0  0  0
   -0.7482   14.5290   -1.4975 H   0  0  0  0  0  0  0  0  0  0  0  0
   -1.1698   15.7990   -0.2821 H   0  0  0  0  0  0  0  0  0  0  0  0
    0.8962   15.2717    1.7628 H   0  0  0  0  0  0  0  0  0  0  0  0
    2.2477   16.2444    1.0888 H   0  0  0  0  0  0  0  0  0  0  0  0
    0.5777   16.9060    1.0888 H   0  0  0  0  0  0  0  0  0  0  0  0
  1  2  1  0
  2  3  1  0
  3  4  1  0
  4  5  1  0
  5  6  1  0
  6  7  1  0
  7  8  1  0
  7  9  1  0
  2 10  1  0
 10 11  1  0
 11 12  1  0
 12 13  1  0
 13 14  1  6
 13 15  1  0
 15 16  1  0
 16 17  1  0
 17 18  2  0
 18 19  1  0
 19 20  1  0
 20 21  1  0
 21 22  1  0
 22 23  1  0
 22 24  1  0
 24 25  1  0
 24 26  1  0
 19 27  1  0
 27 28  1  1
 27 29  1  0
 29 30  1  0
 30 31  1  0
 31 32  1  1
  7  5  1  0
 31 10  1  0
 31 13  1  0
 27 15  1  0
 24 18  1  0
  1 33  1  0
  1 34  1  0
  1 35  1  0
  2 36  1  1
  3 37  1  0
  3 38  1  0
  4 39  1  0
  4 40  1  0
  5 41  1  1
  8 42  1  0
  8 43  1  0
  8 44  1  0
  9 45  1  0
  9 46  1  0
  9 47  1  0
 10 48  1  6
 11 49  1  0
 11 50  1  0
 12 51  1  0
 12 52  1  0
 14 53  1  0
 14 54  1  0
 14 55  1  0
 15 56  1  1
 16 57  1  0
 16 58  1  0
 17 59  1  0
 19 60  1  6
 20 61  1  0
 20 62  1  0
 21 63  1  0
 21 64  1  0
 22 65  1  6
 23 66  1  0
 25 67  1  0
 25 68  1  0
 25 69  1  0
 26 70  1  0
 26 71  1  0
 26 72  1  0
 28 73  1  0
 28 74  1  0
 28 75  1  0
 29 76  1  0
 29 77  1  0
 30 78  1  0
 30 79  1  0
 32 80  1  0
 32 81  1  0
 32 82  1  0
M  END
>  <meeko>  (16) 
{"is_sidechain": [false], "intermolecular_energy": 2.731, "internal_energy": -0.839}

$$$$
EPH_relaxed_0001_pdb2pqr_Repair_205_r2_0001_out
     RDKit          3D

 82 86  0  0  0  0  0  0  0  0999 V2000
   -2.5970   10.5900   -0.8830 C   0  0  0  0  0  0  0  0  0  0  0  0
   -1.1860   10.5780   -1.4800 C   0  0  2  0  0  0  0  0  0  0  0  0
   -0.4880    9.2160   -1.2940 C   0  0  0  0  0  0  0  0  0  0  0  0
   -1.4380    8.0890   -0.8810 C   0  0  0  0  0  0  0  0  0  0  0  0
   -2.0510    7.4160   -2.0710 C   0  0  2  0  0  0  0  0  0  0  0  0
   -2.8340    8.2770   -2.9090 O   0  0  0  0  0  0  0  0  0  0  0  0
   -3.5460    7.2210   -2.2440 C   0  0  0  0  0  0  0  0  0  0  0  0
   -4.5200    7.6980   -1.2130 C   0  0  0  0  0  0  0  0  0  0  0  0
   -4.0250    6.1440   -3.1670 C   0  0  0  0  0  0  0  0  0  0  0  0
   -0.3470   11.6840   -0.8510 C   0  0  1  0  0  0  0  0  0  0  0  0
    0.9700   11.1520   -0.2260 C   0  0  0  0  0  0  0  0  0  0  0  0
    2.0430   12.2500   -0.4440 C   0  0  0  0  0  0  0  0  0  0  0  0
    1.2420   13.4980   -0.8820 C   0  0  1  0  0  0  0  0  0  0  0  0
    0.7000   14.1140    0.4460 C   0  0  0  0  0  0  0  0  0  0  0  0
    2.0190   14.5550   -1.7330 C   0  0  2  0  0  0  0  0  0  0  0  0
    3.2130   15.2150   -1.0220 C   0  0  0  0  0  0  0  0  0  0  0  0
    2.8960   16.4660   -0.2720 C   0  0  0  0  0  0  0  0  0  0  0  0
    1.7710   17.1930   -0.4020 C   0  0  0  0  0  0  0  0  0  0  0  0
    0.7140   16.8260   -1.4520 C   0  0  1  0  0  0  0  0  0  0  0  0
    0.2750   18.1040   -2.2130 C   0  0  0  0  0  0  0  0  0  0  0  0
   -0.1930   19.2120   -1.2750 C   0  0  0  0  0  0  0  0  0  0  0  0
    0.9050   19.5890   -0.2850 C   0  0  2  0  0  0  0  0  0  0  0  0
    1.9860   20.1930   -1.0020 O   0  0  0  0  0  0  0  0  0  0  0  0
    1.4330   18.3790    0.5340 C   0  0  0  0  0  0  0  0  0  0  0  0
    0.3470   17.9140    1.5350 C   0  0  0  0  0  0  0  0  0  0  0  0
    2.6320   18.8680    1.3920 C   0  0  0  0  0  0  0  0  0  0  0  0
    1.0930   15.6330   -2.4300 C   0  0  1  0  0  0  0  0  0  0  0  0
    1.8910   16.1800   -3.6530 C   0  0  0  0  0  0  0  0  0  0  0  0
   -0.2290   15.0020   -3.0090 C   0  0  0  0  0  0  0  0  0  0  0  0
   -0.8830   13.8800   -2.1810 C   0  0  0  0  0  0  0  0  0  0  0  0
    0.1470   12.8190   -1.7830 C   0  0  2  0  0  0  0  0  0  0  0  0
    0.6930   12.1670   -3.0990 C   0  0  0  0  0  0  0  0  0  0  0  0
   -2.5306   10.5894    0.2150 H   0  0  0  0  0  0  0  0  0  0  0  0
   -3.1291   11.4927   -1.2177 H   0  0  0  0  0  0  0  0  0  0  0  0
   -3.1444    9.6965   -1.2177 H   0  0  0  0  0  0  0  0  0  0  0  0
   -1.2825   10.7537   -2.5616 H   0  0  0  0  0  0  0  0  0  0  0  0
   -0.0114    8.9373   -2.2454 H   0  0  0  0  0  0  0  0  0  0  0  0
    0.2408    9.3369   -0.4790 H   0  0  0  0  0  0  0  0  0  0  0  0
   -0.8751    7.3432   -0.3005 H   0  0  0  0  0  0  0  0  0  0  0  0
   -2.2484    8.5271   -0.2799 H   0  0  0  0  0  0  0  0  0  0  0  0
   -1.2026    6.7196   -2.1435 H   0  0  0  0  0  0  0  0  0  0  0  0
   -4.1169    7.5006   -0.2087 H   0  0  0  0  0  0  0  0  0  0  0  0
   -4.6845    8.7786   -1.3362 H   0  0  0  0  0  0  0  0  0  0  0  0
   -5.4746    7.1654   -1.3362 H   0  0  0  0  0  0  0  0  0  0  0  0
   -4.4021    5.2960   -2.5765 H   0  0  0  0  0  0  0  0  0  0  0  0
   -4.8330    6.5373   -3.8013 H   0  0  0  0  0  0  0  0  0  0  0  0
   -3.1918    5.8073   -3.8013 H   0  0  0  0  0  0  0  0  0  0  0  0
   -1.0757   12.0808   -0.1288 H   0  0  0  0  0  0  0  0  0  0  0  0
    0.8311   10.9660    0.8492 H   0  0  0  0  0  0  0  0  0  0  0  0
    1.2743   10.2036   -0.6929 H   0  0  0  0  0  0  0  0  0  0  0  0
    2.5908   12.4481    0.4891 H   0  0  0  0  0  0  0  0  0  0  0  0
    2.7957   11.9549   -1.1899 H   0  0  0  0  0  0  0  0  0  0  0  0
    1.1555   13.5963    1.3030 H   0  0  0  0  0  0  0  0  0  0  0  0
    0.9556   15.1832    0.4854 H   0  0  0  0  0  0  0  0  0  0  0  0
   -0.3930   13.9966    0.4854 H   0  0  0  0  0  0  0  0  0  0  0  0
    2.4524   13.9397   -2.5352 H   0  0  0  0  0  0  0  0  0  0  0  0
    3.6288   14.4875   -0.3094 H   0  0  0  0  0  0  0  0  0  0  0  0
    3.9170   15.5059   -1.8156 H   0  0  0  0  0  0  0  0  0  0  0  0
    3.6460   16.8243    0.4485 H   0  0  0  0  0  0  0  0  0  0  0  0
   -0.1388   16.4128   -0.8934 H   0  0  0  0  0  0  0  0  0  0  0  0
    1.1282   18.4756   -2.7996 H   0  0  0  0  0  0  0  0  0  0  0  0
   -0.5732   17.8330   -2.8588 H   0  0  0  0  0  0  0  0  0  0  0  0
   -0.4610   20.0977   -1.8697 H   0  0  0  0  0  0  0  0  0  0  0  0
   -1.0647   18.8491   -0.7107 H   0  0  0  0  0  0  0  0  0  0  0  0
    0.4679   20.2916    0.4397 H   0  0  0  0  0  0  0  0  0  0  0  0
    2.5630   19.4790   -1.3200 H   0  0  0  0  0  0  0  0  0  0  0  0
    0.7062   18.0678    2.5633 H   0  0  0  0  0  0  0  0  0  0  0  0
   -0.5718   18.4976    1.3764 H   0  0  0  0  0  0  0  0  0  0  0  0
    0.1352   16.8463    1.3764 H   0  0  0  0  0  0  0  0  0  0  0  0
    2.3846   18.7671    2.4591 H   0  0  0  0  0  0  0  0  0  0  0  0
    3.5194   18.2600    1.1623 H   0  0  0  0  0  0  0  0  0  0  0  0
    2.8411   19.9232    1.1623 H   0  0  0  0  0  0  0  0  0  0  0  0
    2.7495   16.7685   -3.2971 H   0  0  0  0  0  0  0  0  0  0  0  0
    2.2510   15.3379   -4.2623 H   0  0  0  0  0  0  0  0  0  0  0  0
    1.2354   16.8195   -4.2623 H   0  0  0  0  0  0  0  0  0  0  0  0
   -0.9663   15.8116   -3.1134 H   0  0  0  0  0  0  0  0  0  0  0  0
    0.0693   14.5257   -3.9546 H   0  0  0  0  0  0  0  0  0  0  0  0
   -1.3221   14.3141   -1.2707 H   0  0  0  0  0  0  0  0  0  0  0  0
   -1.6607   13.4006   -2.7936 H   0  0  0  0  0  0  0  0  0  0  0  0
    1.3800   11.3466   -2.8441 H   0  0  0  0  0  0  0  0  0  0  0  0
   -0.1474   11.7717   -3.6884 H   0  0  0  0  0  0  0  0  0  0  0  0
    1.2297   12.9250   -3.6884 H   0  0  0  0  0  0  0  0  0  0  0  0
  1  2  1  0
  2  3  1  0
  3  4  1  0
  4  5  1  0
  5  6  1  0
  6  7  1  0
  7  8  1  0
  7  9  1  0
  2 10  1  0
 10 11  1  0
 11 12  1  0
 12 13  1  0
 13 14  1  1
 13 15  1  0
 15 16  1  0
 16 17  1  0
 17 18  2  0
 18 19  1  0
 19 20  1  0
 20 21  1  0
 21 22  1  0
 22 23  1  0
 22 24  1  0
 24 25  1  0
 24 26  1  0
 19 27  1  0
 27 28  1  6
 27 29  1  0
 29 30  1  0
 30 31  1  0
 31 32  1  6
  7  5  1  0
 31 10  1  0
 31 13  1  0
 27 15  1  0
 24 18  1  0
  1 33  1  0
  1 34  1  0
  1 35  1  0
  2 36  1  6
  3 37  1  0
  3 38  1  0
  4 39  1  0
  4 40  1  0
  5 41  1  6
  8 42  1  0
  8 43  1  0
  8 44  1  0
  9 45  1  0
  9 46  1  0
  9 47  1  0
 10 48  1  1
 11 49  1  0
 11 50  1  0
 12 51  1  0
 12 52  1  0
 14 53  1  0
 14 54  1  0
 14 55  1  0
 15 56  1  6
 16 57  1  0
 16 58  1  0
 17 59  1  0
 19 60  1  1
 20 61  1  0
 20 62  1  0
 21 63  1  0
 21 64  1  0
 22 65  1  1
 23 66  1  0
 25 67  1  0
 25 68  1  0
 25 69  1  0
 26 70  1  0
 26 71  1  0
 26 72  1  0
 28 73  1  0
 28 74  1  0
 28 75  1  0
 29 76  1  0
 29 77  1  0
 30 78  1  0
 30 79  1  0
 32 80  1  0
 32 81  1  0
 32 82  1  0
M  END
>  <meeko>  (17) 
{"is_sidechain": [false], "intermolecular_energy": 2.731, "internal_energy": -0.839}

$$$$
EPH_relaxed_0001_pdb2pqr_Repair_205_r2_0001_out
     RDKit          3D

 82 86  0  0  0  0  0  0  0  0999 V2000
   -1.3900    7.0700   -3.1330 C   0  0  0  0  0  0  0  0  0  0  0  0
   -2.5810    7.4740   -2.2590 C   0  0  2  0  0  0  0  0  0  0  0  0
   -3.9010    7.5030   -3.0550 C   0  0  0  0  0  0  0  0  0  0  0  0
   -4.9000    6.4240   -2.6300 C   0  0  0  0  0  0  0  0  0  0  0  0
   -6.2780    6.7100   -3.1450 C   0  0  2  0  0  0  0  0  0  0  0  0
   -6.8180    7.9750   -2.7400 O   0  0  0  0  0  0  0  0  0  0  0  0
   -7.5010    6.8080   -2.2520 C   0  0  0  0  0  0  0  0  0  0  0  0
   -7.4030    6.6210   -0.7710 C   0  0  0  0  0  0  0  0  0  0  0  0
   -8.8520    6.6010   -2.8640 C   0  0  0  0  0  0  0  0  0  0  0  0
   -2.3230    8.8370   -1.6270 C   0  0  1  0  0  0  0  0  0  0  0  0
   -3.1290    9.0510   -0.3180 C   0  0  0  0  0  0  0  0  0  0  0  0
   -2.2350    9.8960    0.6250 C   0  0  0  0  0  0  0  0  0  0  0  0
   -1.0960   10.4180   -0.2820 C   0  0  1  0  0  0  0  0  0  0  0  0
   -1.7040   11.6530   -1.0180 C   0  0  0  0  0  0  0  0  0  0  0  0
    0.2480   10.7760    0.4330 C   0  0  2  0  0  0  0  0  0  0  0  0
    0.1550   11.9150    1.4640 C   0  0  0  0  0  0  0  0  0  0  0  0
    0.4030   13.2840    0.9240 C   0  0  0  0  0  0  0  0  0  0  0  0
    0.9640   13.5670   -0.2660 C   0  0  0  0  0  0  0  0  0  0  0  0
    1.5060   12.4490   -1.1660 C   0  0  1  0  0  0  0  0  0  0  0  0
    2.9140   12.8410   -1.6880 C   0  0  0  0  0  0  0  0  0  0  0  0
    2.9240   14.2020   -2.3770 C   0  0  0  0  0  0  0  0  0  0  0  0
    2.4340   15.2960   -1.4320 C   0  0  2  0  0  0  0  0  0  0  0  0
    3.3840   15.4490   -0.3730 O   0  0  0  0  0  0  0  0  0  0  0  0
    1.0280   15.0050   -0.8360 C   0  0  0  0  0  0  0  0  0  0  0  0
   -0.0450   15.1370   -1.9440 C   0  0  0  0  0  0  0  0  0  0  0  0
    0.7140   16.1120    0.2070 C   0  0  0  0  0  0  0  0  0  0  0  0
    1.4700   10.9840   -0.5500 C   0  0  1  0  0  0  0  0  0  0  0  0
    2.7620   10.7250    0.2840 C   0  0  0  0  0  0  0  0  0  0  0  0
    1.4800    9.9330   -1.7230 C   0  0  0  0  0  0  0  0  0  0  0  0
    0.1120    9.5310   -2.3070 C   0  0  0  0  0  0  0  0  0  0  0  0
   -0.8710    9.1570   -1.1940 C   0  0  2  0  0  0  0  0  0  0  0  0
   -0.2970    7.9040   -0.4490 C   0  0  0  0  0  0  0  0  0  0  0  0
   -0.5444    6.7832   -2.4906 H   0  0  0  0  0  0  0  0  0  0  0  0
   -1.6736    6.2178   -3.7681 H   0  0  0  0  0  0  0  0  0  0  0  0
   -1.0966    7.9189   -3.7681 H   0  0  0  0  0  0  0  0  0  0  0  0
   -2.6873    6.7136   -1.4713 H   0  0  0  0  0  0  0  0  0  0  0  0
   -4.3711    8.4871   -2.9120 H   0  0  0  0  0  0  0  0  0  0  0  0
   -3.6461    7.3083   -4.1072 H   0  0  0  0  0  0  0  0  0  0  0  0
   -4.5660    5.4534   -3.0255 H   0  0  0  0  0  0  0  0  0  0  0  0
   -4.9412    6.4089   -1.5309 H   0  0  0  0  0  0  0  0  0  0  0  0
   -6.0791    6.1383   -4.0635 H   0  0  0  0  0  0  0  0  0  0  0  0
   -7.8556    7.4846   -0.2616 H   0  0  0  0  0  0  0  0  0  0  0  0
   -7.9362    5.7036   -0.4812 H   0  0  0  0  0  0  0  0  0  0  0  0
   -6.3452    6.5374   -0.4812 H   0  0  0  0  0  0  0  0  0  0  0  0
   -9.6017    6.4861   -2.0673 H   0  0  0  0  0  0  0  0  0  0  0  0
   -9.1093    7.4702   -3.4871 H   0  0  0  0  0  0  0  0  0  0  0  0
   -8.8373    5.6946   -3.4871 H   0  0  0  0  0  0  0  0  0  0  0  0
   -2.6174    9.4867   -2.4644 H   0  0  0  0  0  0  0  0  0  0  0  0
   -4.0653    9.5868   -0.5330 H   0  0  0  0  0  0  0  0  0  0  0  0
   -3.3925    8.0887    0.1452 H   0  0  0  0  0  0  0  0  0  0  0  0
   -2.8051   10.7335    1.0534 H   0  0  0  0  0  0  0  0  0  0  0  0
   -1.8560    9.3109    1.4759 H   0  0  0  0  0  0  0  0  0  0  0  0
   -2.0628   12.3818   -0.2763 H   0  0  0  0  0  0  0  0  0  0  0  0
   -0.9330   12.1204   -1.6482 H   0  0  0  0  0  0  0  0  0  0  0  0
   -2.5446   11.3270   -1.6482 H   0  0  0  0  0  0  0  0  0  0  0  0
    0.4570    9.8647    1.0126 H   0  0  0  0  0  0  0  0  0  0  0  0
   -0.8554   11.8987    1.8986 H   0  0  0  0  0  0  0  0  0  0  0  0
    0.9527   11.7277    2.1979 H   0  0  0  0  0  0  0  0  0  0  0  0
    0.1013   14.1347    1.5527 H   0  0  0  0  0  0  0  0  0  0  0  0
    0.8038   12.3701   -2.0090 H   0  0  0  0  0  0  0  0  0  0  0  0
    3.6099   12.8716   -0.8366 H   0  0  0  0  0  0  0  0  0  0  0  0
    3.2164   12.0882   -2.4309 H   0  0  0  0  0  0  0  0  0  0  0  0
    3.9501   14.4359   -2.6970 H   0  0  0  0  0  0  0  0  0  0  0  0
    2.2500   14.1606   -3.2454 H   0  0  0  0  0  0  0  0  0  0  0  0
    2.3404   16.2221   -2.0181 H   0  0  0  0  0  0  0  0  0  0  0  0
    4.1170   14.8350   -0.5440 H   0  0  0  0  0  0  0  0  0  0  0  0
   -1.0359   15.2589   -1.4822 H   0  0  0  0  0  0  0  0  0  0  0  0
    0.1789   16.0144   -2.5686 H   0  0  0  0  0  0  0  0  0  0  0  0
   -0.0404   14.2315   -2.5686 H   0  0  0  0  0  0  0  0  0  0  0  0
    0.8299   15.7033    1.2217 H   0  0  0  0  0  0  0  0  0  0  0  0
    1.4089   16.9535    0.0691 H   0  0  0  0  0  0  0  0  0  0  0  0
   -0.3192   16.4633    0.0691 H   0  0  0  0  0  0  0  0  0  0  0  0
    2.5220   10.7731    1.3564 H   0  0  0  0  0  0  0  0  0  0  0  0
    3.1612    9.7290    0.0419 H   0  0  0  0  0  0  0  0  0  0  0  0
    3.5142   11.4902    0.0419 H   0  0  0  0  0  0  0  0  0  0  0  0
    2.0808   10.3545   -2.5424 H   0  0  0  0  0  0  0  0  0  0  0  0
    1.8862    9.0115   -1.2805 H   0  0  0  0  0  0  0  0  0  0  0  0
   -0.2973   10.3765   -2.8794 H   0  0  0  0  0  0  0  0  0  0  0  0
    0.2525    8.6564   -2.9591 H   0  0  0  0  0  0  0  0  0  0  0  0
   -0.3681    8.0591    0.6377 H   0  0  0  0  0  0  0  0  0  0  0  0
   -0.8765    7.0125   -0.7308 H   0  0  0  0  0  0  0  0  0  0  0  0
    0.7566    7.7606   -0.7308 H   0  0  0  0  0  0  0  0  0  0  0  0
  1  2  1  0
  2  3  1  0
  3  4  1  0
  4  5  1  0
  5  6  1  0
  6  7  1  0
  7  8  1  0
  7  9  1  0
  2 10  1  0
 10 11  1  0
 11 12  1  0
 12 13  1  0
 13 14  1  6
 13 15  1  0
 15 16  1  0
 16 17  1  0
 17 18  2  0
 18 19  1  0
 19 20  1  0
 20 21  1  0
 21 22  1  0
 22 23  1  0
 22 24  1  0
 24 25  1  0
 24 26  1  0
 19 27  1  0
 27 28  1  1
 27 29  1  0
 29 30  1  0
 30 31  1  0
 31 32  1  1
  7  5  1  0
 31 10  1  0
 31 13  1  0
 27 15  1  0
 24 18  1  0
  1 33  1  0
  1 34  1  0
  1 35  1  0
  2 36  1  1
  3 37  1  0
  3 38  1  0
  4 39  1  0
  4 40  1  0
  5 41  1  6
  8 42  1  0
  8 43  1  0
  8 44  1  0
  9 45  1  0
  9 46  1  0
  9 47  1  0
 10 48  1  6
 11 49  1  0
 11 50  1  0
 12 51  1  0
 12 52  1  0
 14 53  1  0
 14 54  1  0
 14 55  1  0
 15 56  1  1
 16 57  1  0
 16 58  1  0
 17 59  1  0
 19 60  1  6
 20 61  1  0
 20 62  1  0
 21 63  1  0
 21 64  1  0
 22 65  1  6
 23 66  1  0
 25 67  1  0
 25 68  1  0
 25 69  1  0
 26 70  1  0
 26 71  1  0
 26 72  1  0
 28 73  1  0
 28 74  1  0
 28 75  1  0
 29 76  1  0
 29 77  1  0
 30 78  1  0
 30 79  1  0
 32 80  1  0
 32 81  1  0
 32 82  1  0
M  END
>  <meeko>  (18) 
{"is_sidechain": [false], "intermolecular_energy": 2.731, "internal_energy": -0.839}

$$$$
