EPH_relaxed_0001_pdb2pqr_Repair_338_r2_0001_out
     RDKit          3D

 82 86  0  0  0  0  0  0  0  0999 V2000
    4.6230   18.0860   -0.7570 C   0  0  0  0  0  0  0  0  0  0  0  0
    3.2400   18.5990   -0.3480 C   0  0  2  0  0  0  0  0  0  0  0  0
    3.2100   19.0860    1.1150 C   0  0  0  0  0  0  0  0  0  0  0  0
    4.4520   18.6920    1.9200 C   0  0  0  0  0  0  0  0  0  0  0  0
    4.4270   19.2770    3.2990 C   0  0  2  0  0  0  0  0  0  0  0  0
    5.4920   20.1940    3.5800 O   0  0  0  0  0  0  0  0  0  0  0  0
    5.4790   18.9830    4.3520 C   0  0  0  0  0  0  0  0  0  0  0  0
    6.6300   18.0690    4.0710 C   0  0  0  0  0  0  0  0  0  0  0  0
    5.1270   19.1900    5.7920 C   0  0  0  0  0  0  0  0  0  0  0  0
    2.1980   17.5060   -0.5540 C   0  0  1  0  0  0  0  0  0  0  0  0
    0.9130   18.0290   -1.2500 C   0  0  0  0  0  0  0  0  0  0  0  0
    0.3980   16.8820   -2.1570 C   0  0  0  0  0  0  0  0  0  0  0  0
    1.1990   15.6380   -1.7070 C   0  0  1  0  0  0  0  0  0  0  0  0
    0.4630   15.1280   -0.4290 C   0  0  0  0  0  0  0  0  0  0  0  0
    1.3670   14.5030   -2.7690 C   0  0  2  0  0  0  0  0  0  0  0  0
    0.0560   13.8470   -3.2360 C   0  0  0  0  0  0  0  0  0  0  0  0
   -0.3790   12.6580   -2.4450 C   0  0  0  0  0  0  0  0  0  0  0  0
    0.3920   11.9650   -1.5860 C   0  0  0  0  0  0  0  0  0  0  0  0
    1.8780   12.3020   -1.4150 C   0  0  1  0  0  0  0  0  0  0  0  0
    2.7130   10.9940   -1.4460 C   0  0  0  0  0  0  0  0  0  0  0  0
    2.2260    9.9650   -0.4300 C   0  0  0  0  0  0  0  0  0  0  0  0
    0.7600    9.6130   -0.6700 C   0  0  2  0  0  0  0  0  0  0  0  0
    0.6500    8.9270   -1.9210 O   0  0  0  0  0  0  0  0  0  0  0  0
   -0.1760   10.8530   -0.6700 C   0  0  0  0  0  0  0  0  0  0  0  0
   -0.2890   11.4190    0.7680 C   0  0  0  0  0  0  0  0  0  0  0  0
   -1.6000   10.3770   -1.0620 C   0  0  0  0  0  0  0  0  0  0  0  0
    2.4540   13.4170   -2.3900 C   0  0  1  0  0  0  0  0  0  0  0  0
    2.9170   12.7650   -3.7290 C   0  0  0  0  0  0  0  0  0  0  0  0
    3.7370   14.0560   -1.7400 C   0  0  0  0  0  0  0  0  0  0  0  0
    3.5150   15.2510   -0.7930 C   0  0  0  0  0  0  0  0  0  0  0  0
    2.6000   16.2980   -1.4370 C   0  0  2  0  0  0  0  0  0  0  0  0
    3.3250   16.8460   -2.7130 C   0  0  0  0  0  0  0  0  0  0  0  0
    5.2141   17.8667    0.1444 H   0  0  0  0  0  0  0  0  0  0  0  0
    4.5120   17.1692   -1.3547 H   0  0  0  0  0  0  0  0  0  0  0  0
    5.1367   18.8534   -1.3547 H   0  0  0  0  0  0  0  0  0  0  0  0
    3.0052   19.4621   -0.9882 H   0  0  0  0  0  0  0  0  0  0  0  0
    3.1300   20.1831    1.1144 H   0  0  0  0  0  0  0  0  0  0  0  0
    2.3474   18.6029    1.5973 H   0  0  0  0  0  0  0  0  0  0  0  0
    4.4929   17.5956    1.9986 H   0  0  0  0  0  0  0  0  0  0  0  0
    5.3375   19.0830    1.3976 H   0  0  0  0  0  0  0  0  0  0  0  0
    3.3280   19.2350    3.3220 H   0  0  0  0  0  0  0  0  0  0  0  0
    7.0645   17.7239    5.0208 H   0  0  0  0  0  0  0  0  0  0  0  0
    6.2773   17.2022    3.4928 H   0  0  0  0  0  0  0  0  0  0  0  0
    7.3943   18.6089    3.4928 H   0  0  0  0  0  0  0  0  0  0  0  0
    5.9008   18.7349    6.4277 H   0  0  0  0  0  0  0  0  0  0  0  0
    5.0660   20.2678    6.0033 H   0  0  0  0  0  0  0  0  0  0  0  0
    4.1555   18.7194    6.0033 H   0  0  0  0  0  0  0  0  0  0  0  0
    2.0620   17.1821    0.4884 H   0  0  0  0  0  0  0  0  0  0  0  0
    0.1531   18.2875   -0.4978 H   0  0  0  0  0  0  0  0  0  0  0  0
    1.1228   18.9343   -1.8385 H   0  0  0  0  0  0  0  0  0  0  0  0
   -0.6804   16.7240   -2.0083 H   0  0  0  0  0  0  0  0  0  0  0  0
    0.5357   17.1021   -3.2259 H   0  0  0  0  0  0  0  0  0  0  0  0
    0.9882   15.4919    0.4664 H   0  0  0  0  0  0  0  0  0  0  0  0
   -0.5706   15.5045   -0.4263 H   0  0  0  0  0  0  0  0  0  0  0  0
    0.4525   14.0281   -0.4263 H   0  0  0  0  0  0  0  0  0  0  0  0
    1.7535   15.0510   -3.6410 H   0  0  0  0  0  0  0  0  0  0  0  0
   -0.7412   14.6029   -3.1797 H   0  0  0  0  0  0  0  0  0  0  0  0
    0.2451   13.4813   -4.2561 H   0  0  0  0  0  0  0  0  0  0  0  0
   -1.4175   12.3194   -2.5750 H   0  0  0  0  0  0  0  0  0  0  0  0
    1.9690   12.7799   -0.4284 H   0  0  0  0  0  0  0  0  0  0  0  0
    2.6444   10.5556   -2.4525 H   0  0  0  0  0  0  0  0  0  0  0  0
    3.7502   11.2537   -1.1875 H   0  0  0  0  0  0  0  0  0  0  0  0
    2.8347    9.0533   -0.5209 H   0  0  0  0  0  0  0  0  0  0  0  0
    2.3237   10.3936    0.5783 H   0  0  0  0  0  0  0  0  0  0  0  0
    0.4333    8.9742    0.1638 H   0  0  0  0  0  0  0  0  0  0  0  0
   -0.1770    8.4150   -1.9040 H   0  0  0  0  0  0  0  0  0  0  0  0
   -0.1273   10.6091    1.4946 H   0  0  0  0  0  0  0  0  0  0  0  0
    0.4708   12.2007    0.9151 H   0  0  0  0  0  0  0  0  0  0  0  0
   -1.2907   11.8490    0.9151 H   0  0  0  0  0  0  0  0  0  0  0  0
   -2.1849   10.1815   -0.1512 H   0  0  0  0  0  0  0  0  0  0  0  0
   -2.0970   11.1579   -1.6564 H   0  0  0  0  0  0  0  0  0  0  0  0
   -1.5275    9.4542   -1.6564 H   0  0  0  0  0  0  0  0  0  0  0  0
    3.5414   11.8857   -3.5120 H   0  0  0  0  0  0  0  0  0  0  0  0
    2.0358   12.4547   -4.3097 H   0  0  0  0  0  0  0  0  0  0  0  0
    3.5004   13.4947   -4.3097 H   0  0  0  0  0  0  0  0  0  0  0  0
    4.2473   13.2678   -1.1670 H   0  0  0  0  0  0  0  0  0  0  0  0
    4.3153   14.4611   -2.5835 H   0  0  0  0  0  0  0  0  0  0  0  0
    3.0515   14.8915    0.1376 H   0  0  0  0  0  0  0  0  0  0  0  0
    4.4886   15.7177   -0.5827 H   0  0  0  0  0  0  0  0  0  0  0  0
    4.1686   17.4836   -2.4100 H   0  0  0  0  0  0  0  0  0  0  0  0
    3.6993   16.0031   -3.3125 H   0  0  0  0  0  0  0  0  0  0  0  0
    2.6162   17.4361   -3.3125 H   0  0  0  0  0  0  0  0  0  0  0  0
  1  2  1  0
  2  3  1  0
  3  4  1  0
  4  5  1  0
  5  6  1  0
  6  7  1  0
  7  8  1  0
  7  9  1  0
  2 10  1  0
 10 11  1  0
 11 12  1  0
 12 13  1  0
 13 14  1  1
 13 15  1  0
 15 16  1  0
 16 17  1  0
 17 18  2  0
 18 19  1  0
 19 20  1  0
 20 21  1  0
 21 22  1  0
 22 23  1  0
 22 24  1  0
 24 25  1  0
 24 26  1  0
 19 27  1  0
 27 28  1  6
 27 29  1  0
 29 30  1  0
 30 31  1  0
 31 32  1  6
  7  5  1  0
 31 10  1  0
 31 13  1  0
 27 15  1  0
 24 18  1  0
  1 33  1  0
  1 34  1  0
  1 35  1  0
  2 36  1  6
  3 37  1  0
  3 38  1  0
  4 39  1  0
  4 40  1  0
  5 41  1  1
  8 42  1  0
  8 43  1  0
  8 44  1  0
  9 45  1  0
  9 46  1  0
  9 47  1  0
 10 48  1  1
 11 49  1  0
 11 50  1  0
 12 51  1  0
 12 52  1  0
 14 53  1  0
 14 54  1  0
 14 55  1  0
 15 56  1  6
 16 57  1  0
 16 58  1  0
 17 59  1  0
 19 60  1  1
 20 61  1  0
 20 62  1  0
 21 63  1  0
 21 64  1  0
 22 65  1  1
 23 66  1  0
 25 67  1  0
 25 68  1  0
 25 69  1  0
 26 70  1  0
 26 71  1  0
 26 72  1  0
 28 73  1  0
 28 74  1  0
 28 75  1  0
 29 76  1  0
 29 77  1  0
 30 78  1  0
 30 79  1  0
 32 80  1  0
 32 81  1  0
 32 82  1  0
M  END
>  <meeko>  (1) 
{"is_sidechain": [false], "intermolecular_energy": 2.731, "internal_energy": -0.839}

$$$$
EPH_relaxed_0001_pdb2pqr_Repair_338_r2_0001_out
     RDKit          3D

 82 86  0  0  0  0  0  0  0  0999 V2000
    4.1710   18.3460    0.0500 C   0  0  0  0  0  0  0  0  0  0  0  0
    3.0120   18.8020   -0.8420 C   0  0  2  0  0  0  0  0  0  0  0  0
    2.2700   20.0180   -0.2530 C   0  0  0  0  0  0  0  0  0  0  0  0
    1.1920   19.6460    0.7680 C   0  0  0  0  0  0  0  0  0  0  0  0
   -0.1490   20.1940    0.3830 C   0  0  2  0  0  0  0  0  0  0  0  0
   -1.1210   20.1940    1.4370 O   0  0  0  0  0  0  0  0  0  0  0  0
   -1.4080   19.3510    0.3090 C   0  0  0  0  0  0  0  0  0  0  0  0
   -1.3860   17.8880    0.6220 C   0  0  0  0  0  0  0  0  0  0  0  0
   -2.5470   19.8370   -0.5320 C   0  0  0  0  0  0  0  0  0  0  0  0
    2.0370   17.6500   -1.0560 C   0  0  1  0  0  0  0  0  0  0  0  0
    0.8330   18.0450   -1.9520 C   0  0  0  0  0  0  0  0  0  0  0  0
    0.4680   16.7920   -2.7890 C   0  0  0  0  0  0  0  0  0  0  0  0
    1.2440   15.6350   -2.1180 C   0  0  1  0  0  0  0  0  0  0  0  0
    0.3710   15.2250   -0.8910 C   0  0  0  0  0  0  0  0  0  0  0  0
    1.5760   14.4070   -3.0260 C   0  0  2  0  0  0  0  0  0  0  0  0
    0.3520   13.6530   -3.5760 C   0  0  0  0  0  0  0  0  0  0  0  0
   -0.1420   12.5320   -2.7220 C   0  0  0  0  0  0  0  0  0  0  0  0
    0.5370   11.9620   -1.7090 C   0  0  0  0  0  0  0  0  0  0  0  0
    1.9800   12.3770   -1.3970 C   0  0  1  0  0  0  0  0  0  0  0  0
    2.8500   11.1090   -1.1900 C   0  0  0  0  0  0  0  0  0  0  0  0
    2.2730   10.1680   -0.1380 C   0  0  0  0  0  0  0  0  0  0  0  0
    0.8590    9.7320   -0.5130 C   0  0  2  0  0  0  0  0  0  0  0  0
    0.9250    8.9190   -1.6890 O   0  0  0  0  0  0  0  0  0  0  0  0
   -0.1070   10.9250   -0.7560 C   0  0  0  0  0  0  0  0  0  0  0  0
   -0.4140   11.6280    0.5900 C   0  0  0  0  0  0  0  0  0  0  0  0
   -1.4570   10.3510   -1.2640 C   0  0  0  0  0  0  0  0  0  0  0  0
    2.6390   13.4110   -2.4080 C   0  0  1  0  0  0  0  0  0  0  0  0
    3.2840   12.6480   -3.6050 C   0  0  0  0  0  0  0  0  0  0  0  0
    3.8130   14.1660   -1.6790 C   0  0  0  0  0  0  0  0  0  0  0  0
    3.4390   15.4400   -0.8960 C   0  0  0  0  0  0  0  0  0  0  0  0
    2.5810   16.3770   -1.7510 C   0  0  2  0  0  0  0  0  0  0  0  0
    3.4410   16.8240   -2.9820 C   0  0  0  0  0  0  0  0  0  0  0  0
    3.8865   18.4579    1.1066 H   0  0  0  0  0  0  0  0  0  0  0  0
    4.4005   17.2905   -0.1581 H   0  0  0  0  0  0  0  0  0  0  0  0
    5.0582   18.9621   -0.1581 H   0  0  0  0  0  0  0  0  0  0  0  0
    3.4389   19.1119   -1.8072 H   0  0  0  0  0  0  0  0  0  0  0  0
    3.0067   20.6683    0.2413 H   0  0  0  0  0  0  0  0  0  0  0  0
    1.7611   20.5199   -1.0892 H   0  0  0  0  0  0  0  0  0  0  0  0
    1.1243   18.5499    0.8316 H   0  0  0  0  0  0  0  0  0  0  0  0
    1.4742   20.0805    1.7383 H   0  0  0  0  0  0  0  0  0  0  0  0
    0.3149   20.8909   -0.3305 H   0  0  0  0  0  0  0  0  0  0  0  0
   -1.3839   17.7464    1.7128 H   0  0  0  0  0  0  0  0  0  0  0  0
   -2.2770   17.4075    0.1916 H   0  0  0  0  0  0  0  0  0  0  0  0
   -0.4809   17.4345    0.1916 H   0  0  0  0  0  0  0  0  0  0  0  0
   -3.3619   20.1847    0.1199 H   0  0  0  0  0  0  0  0  0  0  0  0
   -2.2056   20.6678   -1.1670 H   0  0  0  0  0  0  0  0  0  0  0  0
   -2.9105   19.0156   -1.1670 H   0  0  0  0  0  0  0  0  0  0  0  0
    1.7829   17.4272   -0.0092 H   0  0  0  0  0  0  0  0  0  0  0  0
   -0.0213   18.3454   -1.3276 H   0  0  0  0  0  0  0  0  0  0  0  0
    1.0872   18.8944   -2.6030 H   0  0  0  0  0  0  0  0  0  0  0  0
   -0.6153   16.6042   -2.7548 H   0  0  0  0  0  0  0  0  0  0  0  0
    0.7296   16.9091   -3.8510 H   0  0  0  0  0  0  0  0  0  0  0  0
    0.9039   15.4753    0.0382 H   0  0  0  0  0  0  0  0  0  0  0  0
   -0.5849   15.7683   -0.9232 H   0  0  0  0  0  0  0  0  0  0  0  0
    0.1787   14.1424   -0.9232 H   0  0  0  0  0  0  0  0  0  0  0  0
    2.0524   14.8802   -3.8973 H   0  0  0  0  0  0  0  0  0  0  0  0
   -0.4679   14.3766   -3.6952 H   0  0  0  0  0  0  0  0  0  0  0  0
    0.6759   13.1953   -4.5224 H   0  0  0  0  0  0  0  0  0  0  0  0
   -1.1460   12.1386   -2.9391 H   0  0  0  0  0  0  0  0  0  0  0  0
    1.9344   12.9555   -0.4625 H   0  0  0  0  0  0  0  0  0  0  0  0
    2.9190   10.5691   -2.1459 H   0  0  0  0  0  0  0  0  0  0  0  0
    3.8389   11.4371   -0.8374 H   0  0  0  0  0  0  0  0  0  0  0  0
    2.9152    9.2784   -0.0597 H   0  0  0  0  0  0  0  0  0  0  0  0
    2.2330   10.6993    0.8243 H   0  0  0  0  0  0  0  0  0  0  0  0
    0.4510    9.1678    0.3386 H   0  0  0  0  0  0  0  0  0  0  0  0
    1.3410    9.4490   -2.3900 H   0  0  0  0  0  0  0  0  0  0  0  0
   -0.1261   10.9686    1.4221 H   0  0  0  0  0  0  0  0  0  0  0  0
    0.1561   12.5667    0.6518 H   0  0  0  0  0  0  0  0  0  0  0  0
   -1.4900   11.8478    0.6518 H   0  0  0  0  0  0  0  0  0  0  0  0
   -2.0882   10.0826   -0.4040 H   0  0  0  0  0  0  0  0  0  0  0  0
   -1.9711   11.1084   -1.8740 H   0  0  0  0  0  0  0  0  0  0  0  0
   -1.2683    9.4553   -1.8740 H   0  0  0  0  0  0  0  0  0  0  0  0
    3.9497   11.8605   -3.2219 H   0  0  0  0  0  0  0  0  0  0  0  0
    2.4928   12.1928   -4.2188 H   0  0  0  0  0  0  0  0  0  0  0  0
    3.8646   13.3524   -4.2188 H   0  0  0  0  0  0  0  0  0  0  0  0
    4.2717   13.4618   -0.9694 H   0  0  0  0  0  0  0  0  0  0  0  0
    4.4795   14.5081   -2.4844 H   0  0  0  0  0  0  0  0  0  0  0  0
    2.8742   15.1562    0.0043 H   0  0  0  0  0  0  0  0  0  0  0  0
    4.3646   15.9663   -0.6200 H   0  0  0  0  0  0  0  0  0  0  0  0
    4.3653   17.3044   -2.6285 H   0  0  0  0  0  0  0  0  0  0  0  0
    3.6950   15.9438   -3.5909 H   0  0  0  0  0  0  0  0  0  0  0  0
    2.8665   17.5376   -3.5909 H   0  0  0  0  0  0  0  0  0  0  0  0
  1  2  1  0
  2  3  1  0
  3  4  1  0
  4  5  1  0
  5  6  1  0
  6  7  1  0
  7  8  1  0
  7  9  1  0
  2 10  1  0
 10 11  1  0
 11 12  1  0
 12 13  1  0
 13 14  1  1
 13 15  1  0
 15 16  1  0
 16 17  1  0
 17 18  2  0
 18 19  1  0
 19 20  1  0
 20 21  1  0
 21 22  1  0
 22 23  1  0
 22 24  1  0
 24 25  1  0
 24 26  1  0
 19 27  1  0
 27 28  1  6
 27 29  1  0
 29 30  1  0
 30 31  1  0
 31 32  1  6
  7  5  1  0
 31 10  1  0
 31 13  1  0
 27 15  1  0
 24 18  1  0
  1 33  1  0
  1 34  1  0
  1 35  1  0
  2 36  1  6
  3 37  1  0
  3 38  1  0
  4 39  1  0
  4 40  1  0
  5 41  1  6
  8 42  1  0
  8 43  1  0
  8 44  1  0
  9 45  1  0
  9 46  1  0
  9 47  1  0
 10 48  1  1
 11 49  1  0
 11 50  1  0
 12 51  1  0
 12 52  1  0
 14 53  1  0
 14 54  1  0
 14 55  1  0
 15 56  1  6
 16 57  1  0
 16 58  1  0
 17 59  1  0
 19 60  1  1
 20 61  1  0
 20 62  1  0
 21 63  1  0
 21 64  1  0
 22 65  1  1
 23 66  1  0
 25 67  1  0
 25 68  1  0
 25 69  1  0
 26 70  1  0
 26 71  1  0
 26 72  1  0
 28 73  1  0
 28 74  1  0
 28 75  1  0
 29 76  1  0
 29 77  1  0
 30 78  1  0
 30 79  1  0
 32 80  1  0
 32 81  1  0
 32 82  1  0
M  END
>  <meeko>  (2) 
{"is_sidechain": [false], "intermolecular_energy": 2.731, "internal_energy": -0.839}

$$$$
EPH_relaxed_0001_pdb2pqr_Repair_338_r2_0001_out
     RDKit          3D

 82 86  0  0  0  0  0  0  0  0999 V2000
    0.5900   18.2760   -0.2060 C   0  0  0  0  0  0  0  0  0  0  0  0
    1.6310   17.2420   -0.6450 C   0  0  2  0  0  0  0  0  0  0  0  0
    2.6530   17.8330   -1.6380 C   0  0  0  0  0  0  0  0  0  0  0  0
    3.9810   18.2320   -0.9900 C   0  0  0  0  0  0  0  0  0  0  0  0
    3.8610   18.3390    0.5000 C   0  0  2  0  0  0  0  0  0  0  0  0
    3.5970   19.6620    0.9860 O   0  0  0  0  0  0  0  0  0  0  0  0
    4.8560   19.0860    1.3680 C   0  0  0  0  0  0  0  0  0  0  0  0
    6.0460   19.7740    0.7760 C   0  0  0  0  0  0  0  0  0  0  0  0
    4.9420   18.7360    2.8210 C   0  0  0  0  0  0  0  0  0  0  0  0
    0.9360   16.0370   -1.2680 C   0  0  1  0  0  0  0  0  0  0  0  0
    0.5470   16.2730   -2.7520 C   0  0  0  0  0  0  0  0  0  0  0  0
    0.7100   14.9130   -3.4780 C   0  0  0  0  0  0  0  0  0  0  0  0
    0.8620   13.8780   -2.3390 C   0  0  1  0  0  0  0  0  0  0  0  0
   -0.5960   13.5910   -1.8600 C   0  0  0  0  0  0  0  0  0  0  0  0
    1.6220   12.5590   -2.6990 C   0  0  2  0  0  0  0  0  0  0  0  0
    0.9530   11.6970   -3.7840 C   0  0  0  0  0  0  0  0  0  0  0  0
   -0.0100   10.6730   -3.2810 C   0  0  0  0  0  0  0  0  0  0  0  0
   -0.1160   10.2590   -2.0050 C   0  0  0  0  0  0  0  0  0  0  0  0
    0.8560   10.7640   -0.9300 C   0  0  1  0  0  0  0  0  0  0  0  0
    1.3600    9.5660   -0.0840 C   0  0  0  0  0  0  0  0  0  0  0  0
    0.2180    8.7410    0.5020 C   0  0  0  0  0  0  0  0  0  0  0  0
   -0.6920    8.2090   -0.6010 C   0  0  2  0  0  0  0  0  0  0  0  0
    0.0380    7.2600   -1.3840 O   0  0  0  0  0  0  0  0  0  0  0  0
   -1.2540    9.3260   -1.5240 C   0  0  0  0  0  0  0  0  0  0  0  0
   -2.2850   10.1780   -0.7430 C   0  0  0  0  0  0  0  0  0  0  0  0
   -2.0400    8.6430   -2.6760 C   0  0  0  0  0  0  0  0  0  0  0  0
    2.0410   11.6890   -1.4460 C   0  0  1  0  0  0  0  0  0  0  0  0
    3.2450   10.8080   -1.8980 C   0  0  0  0  0  0  0  0  0  0  0  0
    2.5610   12.5730   -0.2510 C   0  0  0  0  0  0  0  0  0  0  0  0
    1.8470   13.9180   -0.0200 C   0  0  0  0  0  0  0  0  0  0  0  0
    1.7320   14.7090   -1.3270 C   0  0  2  0  0  0  0  0  0  0  0  0
    3.1830   15.0320   -1.8200 C   0  0  0  0  0  0  0  0  0  0  0  0
    0.5517   18.3141    0.8927 H   0  0  0  0  0  0  0  0  0  0  0  0
    0.8683   19.2655   -0.5977 H   0  0  0  0  0  0  0  0  0  0  0  0
   -0.3976   17.9911   -0.5977 H   0  0  0  0  0  0  0  0  0  0  0  0
    2.1853   16.9285    0.2519 H   0  0  0  0  0  0  0  0  0  0  0  0
    2.8576   17.0811   -2.4144 H   0  0  0  0  0  0  0  0  0  0  0  0
    2.2076   18.7508   -2.0494 H   0  0  0  0  0  0  0  0  0  0  0  0
    4.7386   17.4723   -1.2329 H   0  0  0  0  0  0  0  0  0  0  0  0
    4.2712   19.2179   -1.3822 H   0  0  0  0  0  0  0  0  0  0  0  0
    3.4438   17.3231    0.5629 H   0  0  0  0  0  0  0  0  0  0  0  0
    6.6927   20.1479    1.5835 H   0  0  0  0  0  0  0  0  0  0  0  0
    6.6095   19.0623    0.1547 H   0  0  0  0  0  0  0  0  0  0  0  0
    5.7104   20.6174    0.1547 H   0  0  0  0  0  0  0  0  0  0  0  0
    4.7229   19.6278    3.4266 H   0  0  0  0  0  0  0  0  0  0  0  0
    4.2110   17.9472    3.0520 H   0  0  0  0  0  0  0  0  0  0  0  0
    5.9554   18.3758    3.0520 H   0  0  0  0  0  0  0  0  0  0  0  0
    0.0865   15.9360   -0.5765 H   0  0  0  0  0  0  0  0  0  0  0  0
   -0.4958   16.6165   -2.8204 H   0  0  0  0  0  0  0  0  0  0  0  0
    1.1839   17.0442   -3.2097 H   0  0  0  0  0  0  0  0  0  0  0  0
   -0.1771   14.6903   -4.0891 H   0  0  0  0  0  0  0  0  0  0  0  0
    1.5697   14.9071   -4.1643 H   0  0  0  0  0  0  0  0  0  0  0  0
   -0.6262   13.5851   -0.7604 H   0  0  0  0  0  0  0  0  0  0  0  0
   -1.2680   14.3741   -2.2410 H   0  0  0  0  0  0  0  0  0  0  0  0
   -0.9210   12.6116   -2.2410 H   0  0  0  0  0  0  0  0  0  0  0  0
    2.5518   12.9375   -3.1486 H   0  0  0  0  0  0  0  0  0  0  0  0
    0.4099   12.3688   -4.4649 H   0  0  0  0  0  0  0  0  0  0  0  0
    1.7649   11.1376   -4.2718 H   0  0  0  0  0  0  0  0  0  0  0  0
   -0.6907   10.2184   -4.0158 H   0  0  0  0  0  0  0  0  0  0  0  0
    0.2775   11.4515   -0.2954 H   0  0  0  0  0  0  0  0  0  0  0  0
    1.9725    8.9148   -0.7249 H   0  0  0  0  0  0  0  0  0  0  0  0
    1.9429    9.9724    0.7557 H   0  0  0  0  0  0  0  0  0  0  0  0
    0.6375    7.8929    1.0629 H   0  0  0  0  0  0  0  0  0  0  0  0
   -0.3758    9.3856    1.1667 H   0  0  0  0  0  0  0  0  0  0  0  0
   -1.5592    7.7388   -0.1142 H   0  0  0  0  0  0  0  0  0  0  0  0
    0.8920    7.6630   -1.6140 H   0  0  0  0  0  0  0  0  0  0  0  0
   -2.1260   10.0466    0.3375 H   0  0  0  0  0  0  0  0  0  0  0  0
   -2.1585   11.2386   -1.0059 H   0  0  0  0  0  0  0  0  0  0  0  0
   -3.3028    9.8539   -1.0059 H   0  0  0  0  0  0  0  0  0  0  0  0
   -2.8063    7.9771   -2.2526 H   0  0  0  0  0  0  0  0  0  0  0  0
   -2.5243    9.4120   -3.2957 H   0  0  0  0  0  0  0  0  0  0  0  0
   -1.3461    8.0561   -3.2957 H   0  0  0  0  0  0  0  0  0  0  0  0
    3.7709   10.4232   -1.0118 H   0  0  0  0  0  0  0  0  0  0  0  0
    2.8765    9.9647   -2.5006 H   0  0  0  0  0  0  0  0  0  0  0  0
    3.9372   11.4144   -2.5006 H   0  0  0  0  0  0  0  0  0  0  0  0
    2.4600   11.9801    0.6700 H   0  0  0  0  0  0  0  0  0  0  0  0
    3.5948   12.8380   -0.5177 H   0  0  0  0  0  0  0  0  0  0  0  0
    0.8383   13.7268    0.3749 H   0  0  0  0  0  0  0  0  0  0  0  0
    2.4355   14.5090    0.6972 H   0  0  0  0  0  0  0  0  0  0  0  0
    3.8414   15.1786   -0.9511 H   0  0  0  0  0  0  0  0  0  0  0  0
    3.5585   14.1955   -2.4276 H   0  0  0  0  0  0  0  0  0  0  0  0
    3.1682   15.9488   -2.4276 H   0  0  0  0  0  0  0  0  0  0  0  0
  1  2  1  0
  2  3  1  0
  3  4  1  0
  4  5  1  0
  5  6  1  0
  6  7  1  0
  7  8  1  0
  7  9  1  0
  2 10  1  0
 10 11  1  0
 11 12  1  0
 12 13  1  0
 13 14  1  1
 13 15  1  0
 15 16  1  0
 16 17  1  0
 17 18  2  0
 18 19  1  0
 19 20  1  0
 20 21  1  0
 21 22  1  0
 22 23  1  0
 22 24  1  0
 24 25  1  0
 24 26  1  0
 19 27  1  0
 27 28  1  6
 27 29  1  0
 29 30  1  0
 30 31  1  0
 31 32  1  6
  7  5  1  0
 31 10  1  0
 31 13  1  0
 27 15  1  0
 24 18  1  0
  1 33  1  0
  1 34  1  0
  1 35  1  0
  2 36  1  1
  3 37  1  0
  3 38  1  0
  4 39  1  0
  4 40  1  0
  5 41  1  1
  8 42  1  0
  8 43  1  0
  8 44  1  0
  9 45  1  0
  9 46  1  0
  9 47  1  0
 10 48  1  1
 11 49  1  0
 11 50  1  0
 12 51  1  0
 12 52  1  0
 14 53  1  0
 14 54  1  0
 14 55  1  0
 15 56  1  6
 16 57  1  0
 16 58  1  0
 17 59  1  0
 19 60  1  1
 20 61  1  0
 20 62  1  0
 21 63  1  0
 21 64  1  0
 22 65  1  1
 23 66  1  0
 25 67  1  0
 25 68  1  0
 25 69  1  0
 26 70  1  0
 26 71  1  0
 26 72  1  0
 28 73  1  0
 28 74  1  0
 28 75  1  0
 29 76  1  0
 29 77  1  0
 30 78  1  0
 30 79  1  0
 32 80  1  0
 32 81  1  0
 32 82  1  0
M  END
>  <meeko>  (3) 
{"is_sidechain": [false], "intermolecular_energy": 2.731, "internal_energy": -0.839}

$$$$
EPH_relaxed_0001_pdb2pqr_Repair_338_r2_0001_out
     RDKit          3D

 82 86  0  0  0  0  0  0  0  0999 V2000
   -1.0290    9.1250   -2.1510 C   0  0  0  0  0  0  0  0  0  0  0  0
   -1.4260    9.3990   -0.6980 C   0  0  2  0  0  0  0  0  0  0  0  0
   -2.9560    9.4440   -0.5120 C   0  0  0  0  0  0  0  0  0  0  0  0
   -3.6410    8.0900   -0.7150 C   0  0  0  0  0  0  0  0  0  0  0  0
   -5.1330    8.2270   -0.7690 C   0  0  2  0  0  0  0  0  0  0  0  0
   -5.8550    7.0220   -0.4830 O   0  0  0  0  0  0  0  0  0  0  0  0
   -5.9970    7.5460   -1.8140 C   0  0  0  0  0  0  0  0  0  0  0  0
   -5.4000    6.6780   -2.8760 C   0  0  0  0  0  0  0  0  0  0  0  0
   -7.3550    8.1100   -2.0970 C   0  0  0  0  0  0  0  0  0  0  0  0
   -0.8040   10.7080   -0.2270 C   0  0  1  0  0  0  0  0  0  0  0  0
    0.0430   10.5380    1.0620 C   0  0  0  0  0  0  0  0  0  0  0  0
    1.2340   11.5240    0.9480 C   0  0  0  0  0  0  0  0  0  0  0  0
    0.8570   12.4560   -0.2280 C   0  0  1  0  0  0  0  0  0  0  0  0
   -0.1180   13.5070    0.3890 C   0  0  0  0  0  0  0  0  0  0  0  0
    2.0480   13.1410   -0.9750 C   0  0  2  0  0  0  0  0  0  0  0  0
    2.8970   14.0930   -0.1140 C   0  0  0  0  0  0  0  0  0  0  0  0
    2.4480   15.5170   -0.1070 C   0  0  0  0  0  0  0  0  0  0  0  0
    1.5860   16.0700   -0.9800 C   0  0  0  0  0  0  0  0  0  0  0  0
    1.0410   15.2640   -2.1660 C   0  0  1  0  0  0  0  0  0  0  0  0
    1.1320   16.1190   -3.4580 C   0  0  0  0  0  0  0  0  0  0  0  0
    0.4490   17.4750   -3.3110 C   0  0  0  0  0  0  0  0  0  0  0  0
    1.0580   18.2700   -2.1590 C   0  0  2  0  0  0  0  0  0  0  0  0
    2.4070   18.6080   -2.4940 O   0  0  0  0  0  0  0  0  0  0  0  0
    1.0310   17.5050   -0.8060 C   0  0  0  0  0  0  0  0  0  0  0  0
   -0.4270   17.4040   -0.2940 C   0  0  0  0  0  0  0  0  0  0  0  0
    1.8000   18.3580    0.2390 C   0  0  0  0  0  0  0  0  0  0  0  0
    1.6500   13.8080   -2.3540 C   0  0  1  0  0  0  0  0  0  0  0  0
    2.9540   13.8820   -3.2050 C   0  0  0  0  0  0  0  0  0  0  0  0
    0.6340   12.9280   -3.1730 C   0  0  0  0  0  0  0  0  0  0  0  0
   -0.4450   12.1800   -2.3670 C   0  0  0  0  0  0  0  0  0  0  0  0
    0.1770   11.4180   -1.1930 C   0  0  2  0  0  0  0  0  0  0  0  0
    1.1460   10.3380   -1.7840 C   0  0  0  0  0  0  0  0  0  0  0  0
   -0.1239    8.5003   -2.1722 H   0  0  0  0  0  0  0  0  0  0  0  0
   -1.8491    8.5997   -2.6624 H   0  0  0  0  0  0  0  0  0  0  0  0
   -0.8288   10.0781   -2.6624 H   0  0  0  0  0  0  0  0  0  0  0  0
   -1.0448    8.5665   -0.0884 H   0  0  0  0  0  0  0  0  0  0  0  0
   -3.1716    9.7926    0.5088 H   0  0  0  0  0  0  0  0  0  0  0  0
   -3.3533   10.1235   -1.2804 H   0  0  0  0  0  0  0  0  0  0  0  0
   -3.2888    7.6502   -1.6597 H   0  0  0  0  0  0  0  0  0  0  0  0
   -3.3862    7.4449    0.1387 H   0  0  0  0  0  0  0  0  0  0  0  0
   -5.0741    9.2706   -0.4265 H   0  0  0  0  0  0  0  0  0  0  0  0
   -4.8364    5.8586   -2.4059 H   0  0  0  0  0  0  0  0  0  0  0  0
   -6.2023    6.2596   -3.5015 H   0  0  0  0  0  0  0  0  0  0  0  0
   -4.7223    7.2775   -3.5015 H   0  0  0  0  0  0  0  0  0  0  0  0
   -7.8685    8.3233   -1.1479 H   0  0  0  0  0  0  0  0  0  0  0  0
   -7.2525    9.0400   -2.6755 H   0  0  0  0  0  0  0  0  0  0  0  0
   -7.9415    7.3811   -2.6755 H   0  0  0  0  0  0  0  0  0  0  0  0
   -1.7158   11.3114   -0.1064 H   0  0  0  0  0  0  0  0  0  0  0  0
   -0.5634   10.7773    1.9480 H   0  0  0  0  0  0  0  0  0  0  0  0
    0.3968    9.5019    1.1682 H   0  0  0  0  0  0  0  0  0  0  0  0
    1.3518   12.1000    1.8777 H   0  0  0  0  0  0  0  0  0  0  0  0
    2.1900   11.0063    0.7804 H   0  0  0  0  0  0  0  0  0  0  0  0
   -0.0682   13.4533    1.4866 H   0  0  0  0  0  0  0  0  0  0  0  0
    0.1720   14.5150    0.0576 H   0  0  0  0  0  0  0  0  0  0  0  0
   -1.1449   13.2934    0.0576 H   0  0  0  0  0  0  0  0  0  0  0  0
    2.7017   12.2881   -1.2099 H   0  0  0  0  0  0  0  0  0  0  0  0
    2.8755   13.7246    0.9223 H   0  0  0  0  0  0  0  0  0  0  0  0
    3.9023   14.0928   -0.5605 H   0  0  0  0  0  0  0  0  0  0  0  0
    2.8566   16.1696    0.6786 H   0  0  0  0  0  0  0  0  0  0  0  0
   -0.0126   15.0522   -1.9312 H   0  0  0  0  0  0  0  0  0  0  0  0
    2.1928   16.2827   -3.6986 H   0  0  0  0  0  0  0  0  0  0  0  0
    0.6154   15.5699   -4.2590 H   0  0  0  0  0  0  0  0  0  0  0  0
    0.5716   18.0431   -4.2450 H   0  0  0  0  0  0  0  0  0  0  0  0
   -0.6176   17.3099   -3.0987 H   0  0  0  0  0  0  0  0  0  0  0  0
    0.4455   19.1732   -2.0212 H   0  0  0  0  0  0  0  0  0  0  0  0
    2.7100   17.9770   -3.1680 H   0  0  0  0  0  0  0  0  0  0  0  0
   -0.4301   17.4038    0.8060 H   0  0  0  0  0  0  0  0  0  0  0  0
   -1.0053   18.2642   -0.6622 H   0  0  0  0  0  0  0  0  0  0  0  0
   -0.8812   16.4722   -0.6622 H   0  0  0  0  0  0  0  0  0  0  0  0
    1.5142   18.0410    1.2528 H   0  0  0  0  0  0  0  0  0  0  0  0
    2.8824   18.2172    0.1022 H   0  0  0  0  0  0  0  0  0  0  0  0
    1.5482   19.4200    0.1022 H   0  0  0  0  0  0  0  0  0  0  0  0
    3.8260   13.9315   -2.5362 H   0  0  0  0  0  0  0  0  0  0  0  0
    3.0290   12.9867   -3.8396 H   0  0  0  0  0  0  0  0  0  0  0  0
    2.9272   14.7801   -3.8396 H   0  0  0  0  0  0  0  0  0  0  0  0
    0.1186   13.5901   -3.8843 H   0  0  0  0  0  0  0  0  0  0  0  0
    1.2451   12.1394   -3.6363 H   0  0  0  0  0  0  0  0  0  0  0  0
   -1.1729   12.9075   -1.9785 H   0  0  0  0  0  0  0  0  0  0  0  0
   -0.9404   11.4567   -3.0314 H   0  0  0  0  0  0  0  0  0  0  0  0
    1.6340    9.7941   -0.9618 H   0  0  0  0  0  0  0  0  0  0  0  0
    0.5736    9.6310   -2.4026 H   0  0  0  0  0  0  0  0  0  0  0  0
    1.9107   10.8306   -2.4026 H   0  0  0  0  0  0  0  0  0  0  0  0
  1  2  1  0
  2  3  1  0
  3  4  1  0
  4  5  1  0
  5  6  1  0
  6  7  1  0
  7  8  1  0
  7  9  1  0
  2 10  1  0
 10 11  1  0
 11 12  1  0
 12 13  1  0
 13 14  1  1
 13 15  1  0
 15 16  1  0
 16 17  1  0
 17 18  2  0
 18 19  1  0
 19 20  1  0
 20 21  1  0
 21 22  1  0
 22 23  1  0
 22 24  1  0
 24 25  1  0
 24 26  1  0
 19 27  1  0
 27 28  1  6
 27 29  1  0
 29 30  1  0
 30 31  1  0
 31 32  1  6
  7  5  1  0
 31 10  1  0
 31 13  1  0
 27 15  1  0
 24 18  1  0
  1 33  1  0
  1 34  1  0
  1 35  1  0
  2 36  1  1
  3 37  1  0
  3 38  1  0
  4 39  1  0
  4 40  1  0
  5 41  1  1
  8 42  1  0
  8 43  1  0
  8 44  1  0
  9 45  1  0
  9 46  1  0
  9 47  1  0
 10 48  1  1
 11 49  1  0
 11 50  1  0
 12 51  1  0
 12 52  1  0
 14 53  1  0
 14 54  1  0
 14 55  1  0
 15 56  1  6
 16 57  1  0
 16 58  1  0
 17 59  1  0
 19 60  1  1
 20 61  1  0
 20 62  1  0
 21 63  1  0
 21 64  1  0
 22 65  1  1
 23 66  1  0
 25 67  1  0
 25 68  1  0
 25 69  1  0
 26 70  1  0
 26 71  1  0
 26 72  1  0
 28 73  1  0
 28 74  1  0
 28 75  1  0
 29 76  1  0
 29 77  1  0
 30 78  1  0
 30 79  1  0
 32 80  1  0
 32 81  1  0
 32 82  1  0
M  END
>  <meeko>  (4) 
{"is_sidechain": [false], "intermolecular_energy": 2.731, "internal_energy": -0.839}

$$$$
EPH_relaxed_0001_pdb2pqr_Repair_338_r2_0001_out
     RDKit          3D

 82 86  0  0  0  0  0  0  0  0999 V2000
    2.8560   17.1430    0.2530 C   0  0  0  0  0  0  0  0  0  0  0  0
    2.3570   17.3350   -1.1820 C   0  0  2  0  0  0  0  0  0  0  0  0
    1.6100   18.6710   -1.3640 C   0  0  0  0  0  0  0  0  0  0  0  0
    1.1720   19.3160   -0.0460 C   0  0  0  0  0  0  0  0  0  0  0  0
   -0.1630   19.9840   -0.1720 C   0  0  2  0  0  0  0  0  0  0  0  0
   -0.8480   20.1940    1.0700 O   0  0  0  0  0  0  0  0  0  0  0  0
   -1.4770   19.2950    0.1430 C   0  0  0  0  0  0  0  0  0  0  0  0
   -1.5200   17.8730    0.6090 C   0  0  0  0  0  0  0  0  0  0  0  0
   -2.7330   19.8370   -0.4640 C   0  0  0  0  0  0  0  0  0  0  0  0
    1.4510   16.1740   -1.5760 C   0  0  1  0  0  0  0  0  0  0  0  0
    0.7140   16.4210   -2.9190 C   0  0  0  0  0  0  0  0  0  0  0  0
    0.5990   15.0460   -3.6260 C   0  0  0  0  0  0  0  0  0  0  0  0
    0.9690   14.0140   -2.5340 C   0  0  1  0  0  0  0  0  0  0  0  0
   -0.3350   13.8330   -1.6950 C   0  0  0  0  0  0  0  0  0  0  0  0
    1.5260   12.6430   -3.0390 C   0  0  2  0  0  0  0  0  0  0  0  0
    0.5500   11.8180   -3.8960 C   0  0  0  0  0  0  0  0  0  0  0  0
   -0.3170   10.8680   -3.1380 C   0  0  0  0  0  0  0  0  0  0  0  0
   -0.1220   10.4750   -1.8660 C   0  0  0  0  0  0  0  0  0  0  0  0
    1.1210   10.9230   -1.0860 C   0  0  1  0  0  0  0  0  0  0  0  0
    1.7470    9.7010   -0.3630 C   0  0  0  0  0  0  0  0  0  0  0  0
    0.7410    8.9630    0.5150 C   0  0  0  0  0  0  0  0  0  0  0  0
   -0.4530    8.4830   -0.3070 C   0  0  2  0  0  0  0  0  0  0  0  0
   -0.0070    7.4780   -1.2230 O   0  0  0  0  0  0  0  0  0  0  0  0
   -1.1580    9.6270   -1.0880 C   0  0  0  0  0  0  0  0  0  0  0  0
   -1.8990   10.5560   -0.0950 C   0  0  0  0  0  0  0  0  0  0  0  0
   -2.2530    8.9880   -1.9850 C   0  0  0  0  0  0  0  0  0  0  0  0
    2.1930   11.7590   -1.9100 C   0  0  1  0  0  0  0  0  0  0  0  0
    3.1840   10.7920   -2.6280 C   0  0  0  0  0  0  0  0  0  0  0  0
    3.0550   12.6160   -0.9090 C   0  0  0  0  0  0  0  0  0  0  0  0
    2.5120   14.0100   -0.5420 C   0  0  0  0  0  0  0  0  0  0  0  0
    2.1190   14.7940   -1.7980 C   0  0  2  0  0  0  0  0  0  0  0  0
    3.4150   15.0110   -2.6510 C   0  0  0  0  0  0  0  0  0  0  0  0
    2.0685   17.4460    0.9587 H   0  0  0  0  0  0  0  0  0  0  0  0
    3.1065   16.0843    0.4155 H   0  0  0  0  0  0  0  0  0  0  0  0
    3.7515   17.7608    0.4155 H   0  0  0  0  0  0  0  0  0  0  0  0
    3.2392   17.3587   -1.8387 H   0  0  0  0  0  0  0  0  0  0  0  0
    2.2752   19.3720   -1.8895 H   0  0  0  0  0  0  0  0  0  0  0  0
    0.6953   18.4526   -1.9346 H   0  0  0  0  0  0  0  0  0  0  0  0
    1.1091   18.5372    0.7283 H   0  0  0  0  0  0  0  0  0  0  0  0
    1.9141   20.0817    0.2240 H   0  0  0  0  0  0  0  0  0  0  0  0
    0.1797   20.5542   -1.0481 H   0  0  0  0  0  0  0  0  0  0  0  0
   -1.5208   17.8474    1.7087 H   0  0  0  0  0  0  0  0  0  0  0  0
   -2.4331   17.3905    0.2304 H   0  0  0  0  0  0  0  0  0  0  0  0
   -0.6377   17.3362    0.2304 H   0  0  0  0  0  0  0  0  0  0  0  0
   -3.4269   20.1365    0.3352 H   0  0  0  0  0  0  0  0  0  0  0  0
   -2.4918   20.7111   -1.0867 H   0  0  0  0  0  0  0  0  0  0  0  0
   -3.2035   19.0618   -1.0867 H   0  0  0  0  0  0  0  0  0  0  0  0
    0.8006   16.1386   -0.6896 H   0  0  0  0  0  0  0  0  0  0  0  0
   -0.2876   16.8350   -2.7308 H   0  0  0  0  0  0  0  0  0  0  0  0
    1.2624   17.1415   -3.5436 H   0  0  0  0  0  0  0  0  0  0  0  0
   -0.4268   14.8792   -3.9865 H   0  0  0  0  0  0  0  0  0  0  0  0
    1.2533   14.9738   -4.5073 H   0  0  0  0  0  0  0  0  0  0  0  0
   -0.0892   13.8671   -0.6234 H   0  0  0  0  0  0  0  0  0  0  0  0
   -1.0408   14.6418   -1.9352 H   0  0  0  0  0  0  0  0  0  0  0  0
   -0.7938   12.8626   -1.9352 H   0  0  0  0  0  0  0  0  0  0  0  0
    2.3327   12.9527   -3.7197 H   0  0  0  0  0  0  0  0  0  0  0  0
   -0.1041   12.5185   -4.4359 H   0  0  0  0  0  0  0  0  0  0  0  0
    1.1739   11.1992   -4.5577 H   0  0  0  0  0  0  0  0  0  0  0  0
   -1.1897   10.4540   -3.6643 H   0  0  0  0  0  0  0  0  0  0  0  0
    0.7672   11.6547   -0.3448 H   0  0  0  0  0  0  0  0  0  0  0  0
    2.1331    9.0029   -1.1203 H   0  0  0  0  0  0  0  0  0  0  0  0
    2.5498   10.0742    0.2899 H   0  0  0  0  0  0  0  0  0  0  0  0
    1.2341    8.0938    0.9747 H   0  0  0  0  0  0  0  0  0  0  0  0
    0.3782    9.6543    1.2899 H   0  0  0  0  0  0  0  0  0  0  0  0
   -1.1968    8.0784    0.3952 H   0  0  0  0  0  0  0  0  0  0  0  0
   -0.1650    6.6130   -0.8100 H   0  0  0  0  0  0  0  0  0  0  0  0
   -1.6598   10.2561    0.9359 H   0  0  0  0  0  0  0  0  0  0  0  0
   -1.5796   11.5960   -0.2578 H   0  0  0  0  0  0  0  0  0  0  0  0
   -2.9839   10.4759   -0.2578 H   0  0  0  0  0  0  0  0  0  0  0  0
   -3.0289    8.5352   -1.3502 H   0  0  0  0  0  0  0  0  0  0  0  0
   -2.7055    9.7638   -2.6201 H   0  0  0  0  0  0  0  0  0  0  0  0
   -1.8002    8.2124   -2.6201 H   0  0  0  0  0  0  0  0  0  0  0  0
    3.7587   10.2313   -1.8761 H   0  0  0  0  0  0  0  0  0  0  0  0
    2.6189   10.0886   -3.2571 H   0  0  0  0  0  0  0  0  0  0  0  0
    3.8734   11.3742   -3.2571 H   0  0  0  0  0  0  0  0  0  0  0  0
    3.1520   12.0406    0.0235 H   0  0  0  0  0  0  0  0  0  0  0  0
    4.0025   12.8055   -1.4346 H   0  0  0  0  0  0  0  0  0  0  0  0
    1.6271   13.8936    0.1010 H   0  0  0  0  0  0  0  0  0  0  0  0
    3.3011   14.5658   -0.0144 H   0  0  0  0  0  0  0  0  0  0  0  0
    4.2752   15.1550   -1.9808 H   0  0  0  0  0  0  0  0  0  0  0  0
    3.5882   14.1293   -3.2856 H   0  0  0  0  0  0  0  0  0  0  0  0
    3.2915   15.9010   -3.2856 H   0  0  0  0  0  0  0  0  0  0  0  0
  1  2  1  0
  2  3  1  0
  3  4  1  0
  4  5  1  0
  5  6  1  0
  6  7  1  0
  7  8  1  0
  7  9  1  0
  2 10  1  0
 10 11  1  0
 11 12  1  0
 12 13  1  0
 13 14  1  1
 13 15  1  0
 15 16  1  0
 16 17  1  0
 17 18  2  0
 18 19  1  0
 19 20  1  0
 20 21  1  0
 21 22  1  0
 22 23  1  0
 22 24  1  0
 24 25  1  0
 24 26  1  0
 19 27  1  0
 27 28  1  6
 27 29  1  0
 29 30  1  0
 30 31  1  0
 31 32  1  6
  7  5  1  0
 31 10  1  0
 31 13  1  0
 27 15  1  0
 24 18  1  0
  1 33  1  0
  1 34  1  0
  1 35  1  0
  2 36  1  6
  3 37  1  0
  3 38  1  0
  4 39  1  0
  4 40  1  0
  5 41  1  6
  8 42  1  0
  8 43  1  0
  8 44  1  0
  9 45  1  0
  9 46  1  0
  9 47  1  0
 10 48  1  1
 11 49  1  0
 11 50  1  0
 12 51  1  0
 12 52  1  0
 14 53  1  0
 14 54  1  0
 14 55  1  0
 15 56  1  6
 16 57  1  0
 16 58  1  0
 17 59  1  0
 19 60  1  1
 20 61  1  0
 20 62  1  0
 21 63  1  0
 21 64  1  0
 22 65  1  1
 23 66  1  0
 25 67  1  0
 25 68  1  0
 25 69  1  0
 26 70  1  0
 26 71  1  0
 26 72  1  0
 28 73  1  0
 28 74  1  0
 28 75  1  0
 29 76  1  0
 29 77  1  0
 30 78  1  0
 30 79  1  0
 32 80  1  0
 32 81  1  0
 32 82  1  0
M  END
>  <meeko>  (5) 
{"is_sidechain": [false], "intermolecular_energy": 2.731, "internal_energy": -0.839}

$$$$
EPH_relaxed_0001_pdb2pqr_Repair_338_r2_0001_out
     RDKit          3D

 82 86  0  0  0  0  0  0  0  0999 V2000
   -0.6330    7.8630   -0.4980 C   0  0  0  0  0  0  0  0  0  0  0  0
   -1.0630    9.2390    0.0180 C   0  0  2  0  0  0  0  0  0  0  0  0
   -2.3160    9.7660   -0.7100 C   0  0  0  0  0  0  0  0  0  0  0  0
   -3.6330    9.3080   -0.0790 C   0  0  0  0  0  0  0  0  0  0  0  0
   -4.0260    7.9390   -0.5470 C   0  0  2  0  0  0  0  0  0  0  0  0
   -4.1250    7.7980   -1.9700 O   0  0  0  0  0  0  0  0  0  0  0  0
   -5.3460    7.6350   -1.2300 C   0  0  0  0  0  0  0  0  0  0  0  0
   -6.3590    8.7070   -1.4830 C   0  0  0  0  0  0  0  0  0  0  0  0
   -5.8540    6.2270   -1.2090 C   0  0  0  0  0  0  0  0  0  0  0  0
    0.0830   10.2320   -0.1320 C   0  0  1  0  0  0  0  0  0  0  0  0
    1.4740    9.5430   -0.1350 C   0  0  0  0  0  0  0  0  0  0  0  0
    2.3720   10.3520   -1.1060 C   0  0  0  0  0  0  0  0  0  0  0  0
    1.5840   11.6570   -1.3700 C   0  0  1  0  0  0  0  0  0  0  0  0
    1.8840   12.5640   -0.1360 C   0  0  0  0  0  0  0  0  0  0  0  0
    1.8940   12.3910   -2.7150 C   0  0  2  0  0  0  0  0  0  0  0  0
    3.3400   12.8930   -2.8660 C   0  0  0  0  0  0  0  0  0  0  0  0
    3.5880   14.2810   -2.3760 C   0  0  0  0  0  0  0  0  0  0  0  0
    2.6390   15.1940   -2.1000 C   0  0  0  0  0  0  0  0  0  0  0  0
    1.1580   14.8970   -2.3690 C   0  0  1  0  0  0  0  0  0  0  0  0
    0.5100   16.1080   -3.0910 C   0  0  0  0  0  0  0  0  0  0  0  0
    0.7140   17.4170   -2.3350 C   0  0  0  0  0  0  0  0  0  0  0  0
    2.2000   17.7070   -2.1380 C   0  0  2  0  0  0  0  0  0  0  0  0
    2.7930   17.9610   -3.4150 O   0  0  0  0  0  0  0  0  0  0  0  0
    2.9610   16.5520   -1.4290 C   0  0  0  0  0  0  0  0  0  0  0  0
    2.5250   16.4760    0.0550 C   0  0  0  0  0  0  0  0  0  0  0  0
    4.4710   16.9110   -1.4200 C   0  0  0  0  0  0  0  0  0  0  0  0
    0.8490   13.5170   -3.0950 C   0  0  1  0  0  0  0  0  0  0  0  0
    0.9320   13.6980   -4.6410 C   0  0  0  0  0  0  0  0  0  0  0  0
   -0.6330   13.0900   -2.7760 C   0  0  0  0  0  0  0  0  0  0  0  0
   -0.8580   12.2640   -1.4950 C   0  0  0  0  0  0  0  0  0  0  0  0
    0.1190   11.0870   -1.4230 C   0  0  2  0  0  0  0  0  0  0  0  0
   -0.1740   10.1460   -2.6400 C   0  0  0  0  0  0  0  0  0  0  0  0
   -0.4258    7.1999    0.3549 H   0  0  0  0  0  0  0  0  0  0  0  0
   -1.4394    7.4324   -1.1098 H   0  0  0  0  0  0  0  0  0  0  0  0
    0.2751    7.9682   -1.1098 H   0  0  0  0  0  0  0  0  0  0  0  0
   -1.3212    9.1279    1.0815 H   0  0  0  0  0  0  0  0  0  0  0  0
   -2.2885   10.8656   -0.6967 H   0  0  0  0  0  0  0  0  0  0  0  0
   -2.2899    9.3576   -1.7310 H   0  0  0  0  0  0  0  0  0  0  0  0
   -3.5173    9.2912    1.0148 H   0  0  0  0  0  0  0  0  0  0  0  0
   -4.4214   10.0130   -0.3814 H   0  0  0  0  0  0  0  0  0  0  0  0
   -3.5138    7.4743    0.3084 H   0  0  0  0  0  0  0  0  0  0  0  0
   -6.7276    9.0971   -0.5228 H   0  0  0  0  0  0  0  0  0  0  0  0
   -5.8942    9.5228   -2.0561 H   0  0  0  0  0  0  0  0  0  0  0  0
   -7.1998    8.2891   -2.0561 H   0  0  0  0  0  0  0  0  0  0  0  0
   -5.9735    5.8958   -0.1669 H   0  0  0  0  0  0  0  0  0  0  0  0
   -6.8257    6.1801   -1.7224 H   0  0  0  0  0  0  0  0  0  0  0  0
   -5.1361    5.5705   -1.7224 H   0  0  0  0  0  0  0  0  0  0  0  0
   -0.1146   10.8743    0.7389 H   0  0  0  0  0  0  0  0  0  0  0  0
    1.9044    9.5543    0.8772 H   0  0  0  0  0  0  0  0  0  0  0  0
    1.3939    8.4931   -0.4533 H   0  0  0  0  0  0  0  0  0  0  0  0
    3.3449   10.5727   -0.6425 H   0  0  0  0  0  0  0  0  0  0  0  0
    2.5877    9.8000   -2.0327 H   0  0  0  0  0  0  0  0  0  0  0  0
    1.6970   11.9985    0.7888 H   0  0  0  0  0  0  0  0  0  0  0  0
    2.9360   12.8844   -0.1635 H   0  0  0  0  0  0  0  0  0  0  0  0
    1.2305   13.4484   -0.1635 H   0  0  0  0  0  0  0  0  0  0  0  0
    1.7785   11.5853   -3.4550 H   0  0  0  0  0  0  0  0  0  0  0  0
    3.9965   12.2120   -2.3045 H   0  0  0  0  0  0  0  0  0  0  0  0
    3.5444   12.9110   -3.9467 H   0  0  0  0  0  0  0  0  0  0  0  0
    4.6353   14.5830   -2.2280 H   0  0  0  0  0  0  0  0  0  0  0  0
    0.6914   14.7571   -1.3828 H   0  0  0  0  0  0  0  0  0  0  0  0
    0.9591   16.2043   -4.0905 H   0  0  0  0  0  0  0  0  0  0  0  0
   -0.5725   15.9216   -3.1500 H   0  0  0  0  0  0  0  0  0  0  0  0
    0.2597   18.2385   -2.9084 H   0  0  0  0  0  0  0  0  0  0  0  0
    0.2391   17.3295   -1.3466 H   0  0  0  0  0  0  0  0  0  0  0  0
    2.2804   18.5853   -1.4807 H   0  0  0  0  0  0  0  0  0  0  0  0
    2.8920   17.1070   -3.8690 H   0  0  0  0  0  0  0  0  0  0  0  0
    3.4008   16.6287    0.7028 H   0  0  0  0  0  0  0  0  0  0  0  0
    1.7780   17.2575    0.2582 H   0  0  0  0  0  0  0  0  0  0  0  0
    2.0865   15.4879    0.2582 H   0  0  0  0  0  0  0  0  0  0  0  0
    4.8219   16.9944   -0.3808 H   0  0  0  0  0  0  0  0  0  0  0  0
    5.0384   16.1227   -1.9364 H   0  0  0  0  0  0  0  0  0  0  0  0
    4.6229   17.8703   -1.9364 H   0  0  0  0  0  0  0  0  0  0  0  0
    1.3803   14.6756   -4.8722 H   0  0  0  0  0  0  0  0  0  0  0  0
    1.5536   12.8987   -5.0709 H   0  0  0  0  0  0  0  0  0  0  0  0
   -0.0793   13.6475   -5.0709 H   0  0  0  0  0  0  0  0  0  0  0  0
   -1.2325   14.0082   -2.6894 H   0  0  0  0  0  0  0  0  0  0  0  0
   -0.9248   12.4249   -3.6021 H   0  0  0  0  0  0  0  0  0  0  0  0
   -0.7070   12.9111   -0.6184 H   0  0  0  0  0  0  0  0  0  0  0  0
   -1.8841   11.8677   -1.5089 H   0  0  0  0  0  0  0  0  0  0  0  0
   -0.4822    9.1562   -2.2723 H   0  0  0  0  0  0  0  0  0  0  0  0
   -0.9803   10.5774   -3.2513 H   0  0  0  0  0  0  0  0  0  0  0  0
    0.7347   10.0434   -3.2513 H   0  0  0  0  0  0  0  0  0  0  0  0
  1  2  1  0
  2  3  1  0
  3  4  1  0
  4  5  1  0
  5  6  1  0
  6  7  1  0
  7  8  1  0
  7  9  1  0
  2 10  1  0
 10 11  1  0
 11 12  1  0
 12 13  1  0
 13 14  1  1
 13 15  1  0
 15 16  1  0
 16 17  1  0
 17 18  2  0
 18 19  1  0
 19 20  1  0
 20 21  1  0
 21 22  1  0
 22 23  1  0
 22 24  1  0
 24 25  1  0
 24 26  1  0
 19 27  1  0
 27 28  1  6
 27 29  1  0
 29 30  1  0
 30 31  1  0
 31 32  1  6
  7  5  1  0
 31 10  1  0
 31 13  1  0
 27 15  1  0
 24 18  1  0
  1 33  1  0
  1 34  1  0
  1 35  1  0
  2 36  1  1
  3 37  1  0
  3 38  1  0
  4 39  1  0
  4 40  1  0
  5 41  1  1
  8 42  1  0
  8 43  1  0
  8 44  1  0
  9 45  1  0
  9 46  1  0
  9 47  1  0
 10 48  1  1
 11 49  1  0
 11 50  1  0
 12 51  1  0
 12 52  1  0
 14 53  1  0
 14 54  1  0
 14 55  1  0
 15 56  1  6
 16 57  1  0
 16 58  1  0
 17 59  1  0
 19 60  1  1
 20 61  1  0
 20 62  1  0
 21 63  1  0
 21 64  1  0
 22 65  1  1
 23 66  1  0
 25 67  1  0
 25 68  1  0
 25 69  1  0
 26 70  1  0
 26 71  1  0
 26 72  1  0
 28 73  1  0
 28 74  1  0
 28 75  1  0
 29 76  1  0
 29 77  1  0
 30 78  1  0
 30 79  1  0
 32 80  1  0
 32 81  1  0
 32 82  1  0
M  END
>  <meeko>  (6) 
{"is_sidechain": [false], "intermolecular_energy": 2.731, "internal_energy": -0.839}

$$$$
EPH_relaxed_0001_pdb2pqr_Repair_338_r2_0001_out
     RDKit          3D

 82 86  0  0  0  0  0  0  0  0999 V2000
    3.7050   17.9420   -1.3550 C   0  0  0  0  0  0  0  0  0  0  0  0
    2.6670   17.4810   -2.3810 C   0  0  2  0  0  0  0  0  0  0  0  0
    1.2480   17.9790   -2.0370 C   0  0  0  0  0  0  0  0  0  0  0  0
    1.1910   18.8550   -0.7820 C   0  0  0  0  0  0  0  0  0  0  0  0
   -0.0460   19.7010   -0.7530 C   0  0  2  0  0  0  0  0  0  0  0  0
   -0.4020   20.1940    0.5450 O   0  0  0  0  0  0  0  0  0  0  0  0
   -1.3300   19.2810   -0.0630 C   0  0  0  0  0  0  0  0  0  0  0  0
   -1.4420   17.9670    0.6450 C   0  0  0  0  0  0  0  0  0  0  0  0
   -2.6140   19.9200   -0.4900 C   0  0  0  0  0  0  0  0  0  0  0  0
    2.6750   15.9600   -2.4820 C   0  0  1  0  0  0  0  0  0  0  0  0
    4.1040   15.3810   -2.6610 C   0  0  0  0  0  0  0  0  0  0  0  0
    4.1380   14.0310   -1.9010 C   0  0  0  0  0  0  0  0  0  0  0  0
    2.6540   13.7180   -1.5940 C   0  0  1  0  0  0  0  0  0  0  0  0
    2.0920   13.1050   -2.9150 C   0  0  0  0  0  0  0  0  0  0  0  0
    2.3840   12.7900   -0.3660 C   0  0  2  0  0  0  0  0  0  0  0  0
    2.9590   11.3680   -0.4830 C   0  0  0  0  0  0  0  0  0  0  0  0
    2.0440   10.3580   -1.0910 C   0  0  0  0  0  0  0  0  0  0  0  0
    0.7180   10.5090   -1.2660 C   0  0  0  0  0  0  0  0  0  0  0  0
   -0.0090   11.7540   -0.7420 C   0  0  1  0  0  0  0  0  0  0  0  0
   -1.3030   11.3250   -0.0020 C   0  0  0  0  0  0  0  0  0  0  0  0
   -2.2030   10.4420   -0.8610 C   0  0  0  0  0  0  0  0  0  0  0  0
   -1.4630    9.1860   -1.3140 C   0  0  2  0  0  0  0  0  0  0  0  0
   -1.1910    8.3730   -0.1680 O   0  0  0  0  0  0  0  0  0  0  0  0
   -0.1370    9.4930   -2.0640 C   0  0  0  0  0  0  0  0  0  0  0  0
   -0.4530   10.1070   -3.4500 C   0  0  0  0  0  0  0  0  0  0  0  0
    0.5790    8.1440   -2.3400 C   0  0  0  0  0  0  0  0  0  0  0  0
    0.8740   12.7660    0.1080 C   0  0  1  0  0  0  0  0  0  0  0  0
    0.8840   12.3340    1.6060 C   0  0  0  0  0  0  0  0  0  0  0  0
    0.2090   14.1920    0.0620 C   0  0  0  0  0  0  0  0  0  0  0  0
    0.6080   15.1070   -1.1120 C   0  0  0  0  0  0  0  0  0  0  0  0
    2.1300   15.1650   -1.2690 C   0  0  2  0  0  0  0  0  0  0  0  0
    2.7220   15.7980    0.0360 C   0  0  0  0  0  0  0  0  0  0  0  0
    3.3183   17.7703   -0.3396 H   0  0  0  0  0  0  0  0  0  0  0  0
    4.6359   17.3727   -1.4940 H   0  0  0  0  0  0  0  0  0  0  0  0
    3.9068   19.0144   -1.4940 H   0  0  0  0  0  0  0  0  0  0  0  0
    2.9443   17.9194   -3.3510 H   0  0  0  0  0  0  0  0  0  0  0  0
    0.8700   18.5654   -2.8874 H   0  0  0  0  0  0  0  0  0  0  0  0
    0.6344   17.0884   -1.8359 H   0  0  0  0  0  0  0  0  0  0  0  0
    1.2003   18.2064    0.1064 H   0  0  0  0  0  0  0  0  0  0  0  0
    2.0642   19.5239   -0.7904 H   0  0  0  0  0  0  0  0  0  0  0  0
    0.1577   20.0769   -1.7665 H   0  0  0  0  0  0  0  0  0  0  0  0
   -1.4278   18.1339    1.7322 H   0  0  0  0  0  0  0  0  0  0  0  0
   -2.3852   17.4770    0.3616 H   0  0  0  0  0  0  0  0  0  0  0  0
   -0.5954   17.3244    0.3616 H   0  0  0  0  0  0  0  0  0  0  0  0
   -3.1935   20.2084    0.3993 H   0  0  0  0  0  0  0  0  0  0  0  0
   -2.3960   20.8147   -1.0916 H   0  0  0  0  0  0  0  0  0  0  0  0
   -3.1963   19.2066   -1.0916 H   0  0  0  0  0  0  0  0  0  0  0  0
    2.0098   15.8282   -3.3481 H   0  0  0  0  0  0  0  0  0  0  0  0
    4.3166   15.2203   -3.7282 H   0  0  0  0  0  0  0  0  0  0  0  0
    4.8629   16.0741   -2.2689 H   0  0  0  0  0  0  0  0  0  0  0  0
    4.5792   13.2429   -2.5289 H   0  0  0  0  0  0  0  0  0  0  0  0
    4.7509   14.0812   -0.9890 H   0  0  0  0  0  0  0  0  0  0  0  0
    1.3669   12.3141   -2.6728 H   0  0  0  0  0  0  0  0  0  0  0  0
    1.5945   13.8914   -3.5016 H   0  0  0  0  0  0  0  0  0  0  0  0
    2.9186   12.6775   -3.5016 H   0  0  0  0  0  0  0  0  0  0  0  0
    2.9617   13.2802    0.4315 H   0  0  0  0  0  0  0  0  0  0  0  0
    3.8677   11.4187   -1.1008 H   0  0  0  0  0  0  0  0  0  0  0  0
    3.1445   11.0293    0.5470 H   0  0  0  0  0  0  0  0  0  0  0  0
    2.4911    9.4098   -1.4244 H   0  0  0  0  0  0  0  0  0  0  0  0
   -0.2673   12.3514   -1.6288 H   0  0  0  0  0  0  0  0  0  0  0  0
   -1.0228   10.7674    0.9038 H   0  0  0  0  0  0  0  0  0  0  0  0
   -1.8660   12.2378    0.2424 H   0  0  0  0  0  0  0  0  0  0  0  0
   -3.0853   10.1479   -0.2736 H   0  0  0  0  0  0  0  0  0  0  0  0
   -2.5064   11.0113   -1.7519 H   0  0  0  0  0  0  0  0  0  0  0  0
   -2.1126    8.6600   -2.0291 H   0  0  0  0  0  0  0  0  0  0  0  0
   -0.5460    7.6960   -0.4340 H   0  0  0  0  0  0  0  0  0  0  0  0
   -0.9526   11.0778   -3.3157 H   0  0  0  0  0  0  0  0  0  0  0  0
    0.4832   10.2507   -4.0094 H   0  0  0  0  0  0  0  0  0  0  0  0
   -1.1140    9.4287   -4.0094 H   0  0  0  0  0  0  0  0  0  0  0  0
    0.8346    7.6624   -1.3846 H   0  0  0  0  0  0  0  0  0  0  0  0
   -0.0884    7.4857   -2.9155 H   0  0  0  0  0  0  0  0  0  0  0  0
    1.4983    8.3278   -2.9155 H   0  0  0  0  0  0  0  0  0  0  0  0
    0.8633   13.2286    2.2457 H   0  0  0  0  0  0  0  0  0  0  0  0
   -0.0000   11.7135    1.8146 H   0  0  0  0  0  0  0  0  0  0  0  0
    1.7958   11.7551    1.8146 H   0  0  0  0  0  0  0  0  0  0  0  0
   -0.8809   14.0497    0.0175 H   0  0  0  0  0  0  0  0  0  0  0  0
    0.5701   14.7073    0.9643 H   0  0  0  0  0  0  0  0  0  0  0  0
    0.1652   14.7157   -2.0398 H   0  0  0  0  0  0  0  0  0  0  0  0
    0.2376   16.1223   -0.9069 H   0  0  0  0  0  0  0  0  0  0  0  0
    2.2705   15.3152    0.9152 H   0  0  0  0  0  0  0  0  0  0  0  0
    3.8116   15.6482    0.0546 H   0  0  0  0  0  0  0  0  0  0  0  0
    2.4996   16.8751    0.0546 H   0  0  0  0  0  0  0  0  0  0  0  0
  1  2  1  0
  2  3  1  0
  3  4  1  0
  4  5  1  0
  5  6  1  0
  6  7  1  0
  7  8  1  0
  7  9  1  0
  2 10  1  0
 10 11  1  0
 11 12  1  0
 12 13  1  0
 13 14  1  6
 13 15  1  0
 15 16  1  0
 16 17  1  0
 17 18  2  0
 18 19  1  0
 19 20  1  0
 20 21  1  0
 21 22  1  0
 22 23  1  0
 22 24  1  0
 24 25  1  0
 24 26  1  0
 19 27  1  0
 27 28  1  1
 27 29  1  0
 29 30  1  0
 30 31  1  0
 31 32  1  1
  7  5  1  0
 31 10  1  0
 31 13  1  0
 27 15  1  0
 24 18  1  0
  1 33  1  0
  1 34  1  0
  1 35  1  0
  2 36  1  6
  3 37  1  0
  3 38  1  0
  4 39  1  0
  4 40  1  0
  5 41  1  6
  8 42  1  0
  8 43  1  0
  8 44  1  0
  9 45  1  0
  9 46  1  0
  9 47  1  0
 10 48  1  6
 11 49  1  0
 11 50  1  0
 12 51  1  0
 12 52  1  0
 14 53  1  0
 14 54  1  0
 14 55  1  0
 15 56  1  1
 16 57  1  0
 16 58  1  0
 17 59  1  0
 19 60  1  6
 20 61  1  0
 20 62  1  0
 21 63  1  0
 21 64  1  0
 22 65  1  6
 23 66  1  0
 25 67  1  0
 25 68  1  0
 25 69  1  0
 26 70  1  0
 26 71  1  0
 26 72  1  0
 28 73  1  0
 28 74  1  0
 28 75  1  0
 29 76  1  0
 29 77  1  0
 30 78  1  0
 30 79  1  0
 32 80  1  0
 32 81  1  0
 32 82  1  0
M  END
>  <meeko>  (7) 
{"is_sidechain": [false], "intermolecular_energy": 2.731, "internal_energy": -0.839}

$$$$
EPH_relaxed_0001_pdb2pqr_Repair_338_r2_0001_out
     RDKit          3D

 82 86  0  0  0  0  0  0  0  0999 V2000
   -2.6220    7.6140   -3.0500 C   0  0  0  0  0  0  0  0  0  0  0  0
   -2.9100    7.8710   -1.5680 C   0  0  2  0  0  0  0  0  0  0  0  0
   -4.4200    7.8420   -1.2570 C   0  0  0  0  0  0  0  0  0  0  0  0
   -5.1520    6.6470   -1.8730 C   0  0  0  0  0  0  0  0  0  0  0  0
   -6.3550    7.0780   -2.6570 C   0  0  2  0  0  0  0  0  0  0  0  0
   -6.9120    8.3360   -2.2540 O   0  0  0  0  0  0  0  0  0  0  0  0
   -7.7470    7.1820   -2.0630 C   0  0  0  0  0  0  0  0  0  0  0  0
   -8.0090    6.8520   -0.6270 C   0  0  0  0  0  0  0  0  0  0  0  0
   -8.9250    7.1300   -2.9860 C   0  0  0  0  0  0  0  0  0  0  0  0
   -2.3180    9.2120   -1.1480 C   0  0  1  0  0  0  0  0  0  0  0  0
   -2.8160    9.6740    0.2470 C   0  0  0  0  0  0  0  0  0  0  0  0
   -1.6330   10.4160    0.9200 C   0  0  0  0  0  0  0  0  0  0  0  0
   -0.6160   10.6470   -0.2220 C   0  0  1  0  0  0  0  0  0  0  0  0
   -1.1410   11.9080   -0.9780 C   0  0  0  0  0  0  0  0  0  0  0  0
    0.8780   10.8120    0.2070 C   0  0  2  0  0  0  0  0  0  0  0  0
    1.1700   12.0280    1.1020 C   0  0  0  0  0  0  0  0  0  0  0  0
    1.5330   13.2820    0.3770 C   0  0  0  0  0  0  0  0  0  0  0  0
    1.8980   13.3590   -0.9170 C   0  0  0  0  0  0  0  0  0  0  0  0
    2.0700   12.0920   -1.7640 C   0  0  1  0  0  0  0  0  0  0  0  0
    3.3980   12.1780   -2.5600 C   0  0  0  0  0  0  0  0  0  0  0  0
    3.5010   13.4530   -3.3910 C   0  0  0  0  0  0  0  0  0  0  0  0
    3.3840   14.6910   -2.5060 C   0  0  2  0  0  0  0  0  0  0  0  0
    4.5290   14.7560   -1.6500 O   0  0  0  0  0  0  0  0  0  0  0  0
    2.0880   14.7110   -1.6480 C   0  0  0  0  0  0  0  0  0  0  0  0
    0.8610   14.9450   -2.5640 C   0  0  0  0  0  0  0  0  0  0  0  0
    2.1620   15.9380   -0.6990 C   0  0  0  0  0  0  0  0  0  0  0  0
    1.9100   10.7130   -0.9890 C   0  0  1  0  0  0  0  0  0  0  0  0
    3.2760   10.2920   -0.3660 C   0  0  0  0  0  0  0  0  0  0  0  0
    1.5260    9.5860   -2.0200 C   0  0  0  0  0  0  0  0  0  0  0  0
    0.0260    9.3930   -2.3110 C   0  0  0  0  0  0  0  0  0  0  0  0
   -0.7770    9.2960   -1.0100 C   0  0  2  0  0  0  0  0  0  0  0  0
   -0.2860    8.0240   -0.2380 C   0  0  0  0  0  0  0  0  0  0  0  0
   -1.8042    6.8843   -3.1434 H   0  0  0  0  0  0  0  0  0  0  0  0
   -3.5254    7.2164   -3.5355 H   0  0  0  0  0  0  0  0  0  0  0  0
   -2.3295    8.5567   -3.5355 H   0  0  0  0  0  0  0  0  0  0  0  0
   -2.4383    7.0600   -0.9937 H   0  0  0  0  0  0  0  0  0  0  0  0
   -4.5491    7.8032   -0.1653 H   0  0  0  0  0  0  0  0  0  0  0  0
   -4.8569    8.7495   -1.6992 H   0  0  0  0  0  0  0  0  0  0  0  0
   -4.4622    6.1132   -2.5432 H   0  0  0  0  0  0  0  0  0  0  0  0
   -5.4913    5.9940   -1.0554 H   0  0  0  0  0  0  0  0  0  0  0  0
   -5.9742    6.5801   -3.5609 H   0  0  0  0  0  0  0  0  0  0  0  0
   -7.4544    7.5505    0.0168 H   0  0  0  0  0  0  0  0  0  0  0  0
   -9.0860    6.9399   -0.4212 H   0  0  0  0  0  0  0  0  0  0  0  0
   -7.6792    5.8230   -0.4212 H   0  0  0  0  0  0  0  0  0  0  0  0
   -9.8521    7.0891   -2.3954 H   0  0  0  0  0  0  0  0  0  0  0  0
   -8.9337    8.0286   -3.6203 H   0  0  0  0  0  0  0  0  0  0  0  0
   -8.8545    6.2341   -3.6203 H   0  0  0  0  0  0  0  0  0  0  0  0
   -2.6550    9.8349   -1.9897 H   0  0  0  0  0  0  0  0  0  0  0  0
   -3.6753   10.3519    0.1372 H   0  0  0  0  0  0  0  0  0  0  0  0
   -3.1418    8.8167    0.8543 H   0  0  0  0  0  0  0  0  0  0  0  0
   -1.9665   11.3752    1.3428 H   0  0  0  0  0  0  0  0  0  0  0  0
   -1.2010    9.8423    1.7532 H   0  0  0  0  0  0  0  0  0  0  0  0
   -1.4573   12.6678   -0.2482 H   0  0  0  0  0  0  0  0  0  0  0  0
   -0.3386   12.3176   -1.6093 H   0  0  0  0  0  0  0  0  0  0  0  0
   -1.9969   11.6271   -1.6093 H   0  0  0  0  0  0  0  0  0  0  0  0
    1.0396    9.9289    0.8426 H   0  0  0  0  0  0  0  0  0  0  0  0
    0.2714   12.2310    1.7031 H   0  0  0  0  0  0  0  0  0  0  0  0
    2.0510   11.7585    1.7031 H   0  0  0  0  0  0  0  0  0  0  0  0
    1.4994   14.2217    0.9478 H   0  0  0  0  0  0  0  0  0  0  0  0
    1.2186   12.0732   -2.4603 H   0  0  0  0  0  0  0  0  0  0  0  0
    4.2373   12.1516   -1.8494 H   0  0  0  0  0  0  0  0  0  0  0  0
    3.4272   11.3246   -3.2534 H   0  0  0  0  0  0  0  0  0  0  0  0
    4.4726   13.4694   -3.9065 H   0  0  0  0  0  0  0  0  0  0  0  0
    2.6783   13.4640   -4.1211 H   0  0  0  0  0  0  0  0  0  0  0  0
    3.3340   15.5669   -3.1695 H   0  0  0  0  0  0  0  0  0  0  0  0
    4.7000   15.6930   -1.4570 H   0  0  0  0  0  0  0  0  0  0  0  0
   -0.0319   15.1153   -1.9445 H   0  0  0  0  0  0  0  0  0  0  0  0
    1.0400   15.8252   -3.1990 H   0  0  0  0  0  0  0  0  0  0  0  0
    0.7035   14.0607   -3.1990 H   0  0  0  0  0  0  0  0  0  0  0  0
    2.1413   15.5951    0.3460 H   0  0  0  0  0  0  0  0  0  0  0  0
    3.0951   16.4900   -0.8854 H   0  0  0  0  0  0  0  0  0  0  0  0
    1.3020   16.5981   -0.8854 H   0  0  0  0  0  0  0  0  0  0  0  0
    3.2012   10.3150    0.7312 H   0  0  0  0  0  0  0  0  0  0  0  0
    3.5307    9.2737   -0.6949 H   0  0  0  0  0  0  0  0  0  0  0  0
    4.0597   10.9903   -0.6949 H   0  0  0  0  0  0  0  0  0  0  0  0
    2.0220    9.8235   -2.9727 H   0  0  0  0  0  0  0  0  0  0  0  0
    1.8520    8.6451   -1.5526 H   0  0  0  0  0  0  0  0  0  0  0  0
   -0.3400   10.2491   -2.8967 H   0  0  0  0  0  0  0  0  0  0  0  0
   -0.1044    8.4572   -2.8742 H   0  0  0  0  0  0  0  0  0  0  0  0
   -0.3551    8.2030    0.8451 H   0  0  0  0  0  0  0  0  0  0  0  0
   -0.9170    7.1646   -0.5086 H   0  0  0  0  0  0  0  0  0  0  0  0
    0.7588    7.8114   -0.5086 H   0  0  0  0  0  0  0  0  0  0  0  0
  1  2  1  0
  2  3  1  0
  3  4  1  0
  4  5  1  0
  5  6  1  0
  6  7  1  0
  7  8  1  0
  7  9  1  0
  2 10  1  0
 10 11  1  0
 11 12  1  0
 12 13  1  0
 13 14  1  6
 13 15  1  0
 15 16  1  0
 16 17  1  0
 17 18  2  0
 18 19  1  0
 19 20  1  0
 20 21  1  0
 21 22  1  0
 22 23  1  0
 22 24  1  0
 24 25  1  0
 24 26  1  0
 19 27  1  0
 27 28  1  1
 27 29  1  0
 29 30  1  0
 30 31  1  0
 31 32  1  1
  7  5  1  0
 31 10  1  0
 31 13  1  0
 27 15  1  0
 24 18  1  0
  1 33  1  0
  1 34  1  0
  1 35  1  0
  2 36  1  1
  3 37  1  0
  3 38  1  0
  4 39  1  0
  4 40  1  0
  5 41  1  6
  8 42  1  0
  8 43  1  0
  8 44  1  0
  9 45  1  0
  9 46  1  0
  9 47  1  0
 10 48  1  6
 11 49  1  0
 11 50  1  0
 12 51  1  0
 12 52  1  0
 14 53  1  0
 14 54  1  0
 14 55  1  0
 15 56  1  1
 16 57  1  0
 16 58  1  0
 17 59  1  0
 19 60  1  6
 20 61  1  0
 20 62  1  0
 21 63  1  0
 21 64  1  0
 22 65  1  6
 23 66  1  0
 25 67  1  0
 25 68  1  0
 25 69  1  0
 26 70  1  0
 26 71  1  0
 26 72  1  0
 28 73  1  0
 28 74  1  0
 28 75  1  0
 29 76  1  0
 29 77  1  0
 30 78  1  0
 30 79  1  0
 32 80  1  0
 32 81  1  0
 32 82  1  0
M  END
>  <meeko>  (8) 
{"is_sidechain": [false], "intermolecular_energy": 2.731, "internal_energy": -0.839}

$$$$
EPH_relaxed_0001_pdb2pqr_Repair_338_r2_0001_out
     RDKit          3D

 82 86  0  0  0  0  0  0  0  0999 V2000
    0.4330    9.1070   -2.3070 C   0  0  0  0  0  0  0  0  0  0  0  0
    1.2190   10.2110   -3.0190 C   0  0  2  0  0  0  0  0  0  0  0  0
    2.7130   10.1970   -2.6390 C   0  0  0  0  0  0  0  0  0  0  0  0
    3.6480   10.5400   -3.8030 C   0  0  0  0  0  0  0  0  0  0  0  0
    5.0350   10.8470   -3.3280 C   0  0  2  0  0  0  0  0  0  0  0  0
    5.5900   12.0640   -3.8450 O   0  0  0  0  0  0  0  0  0  0  0  0
    6.2500   10.8490   -4.2370 C   0  0  0  0  0  0  0  0  0  0  0  0
    6.1330   10.5360   -5.6960 C   0  0  0  0  0  0  0  0  0  0  0  0
    7.6040   10.6740   -3.6240 C   0  0  0  0  0  0  0  0  0  0  0  0
    0.6120   11.5710   -2.6970 C   0  0  1  0  0  0  0  0  0  0  0  0
   -0.6410   11.4660   -1.7870 C   0  0  0  0  0  0  0  0  0  0  0  0
   -0.6250   12.7080   -0.8590 C   0  0  0  0  0  0  0  0  0  0  0  0
    0.4370   13.6460   -1.4810 C   0  0  1  0  0  0  0  0  0  0  0  0
   -0.3040   14.3720   -2.6480 C   0  0  0  0  0  0  0  0  0  0  0  0
    1.1150   14.6630   -0.5060 C   0  0  2  0  0  0  0  0  0  0  0  0
    0.1630   15.6890    0.1330 C   0  0  0  0  0  0  0  0  0  0  0  0
   -0.0070   16.9620   -0.6290 C   0  0  0  0  0  0  0  0  0  0  0  0
    0.7900   17.3900   -1.6260 C   0  0  0  0  0  0  0  0  0  0  0  0
    2.0520   16.6100   -2.0140 C   0  0  1  0  0  0  0  0  0  0  0  0
    3.2420   17.5940   -2.1680 C   0  0  0  0  0  0  0  0  0  0  0  0
    2.9380   18.7320   -3.1370 C   0  0  0  0  0  0  0  0  0  0  0  0
    1.7110   19.5200   -2.6850 C   0  0  2  0  0  0  0  0  0  0  0  0
    2.0210   20.1940   -1.4620 O   0  0  0  0  0  0  0  0  0  0  0  0
    0.4510   18.6310   -2.4870 C   0  0  0  0  0  0  0  0  0  0  0  0
   -0.0620   18.1420   -3.8640 C   0  0  0  0  0  0  0  0  0  0  0  0
   -0.6740   19.5230   -1.8970 C   0  0  0  0  0  0  0  0  0  0  0  0
    2.4070   15.3620   -1.0950 C   0  0  1  0  0  0  0  0  0  0  0  0
    3.2590   15.8260    0.1260 C   0  0  0  0  0  0  0  0  0  0  0  0
    3.3090   14.3620   -1.9120 C   0  0  0  0  0  0  0  0  0  0  0  0
    2.5790   13.3040   -2.7620 C   0  0  0  0  0  0  0  0  0  0  0  0
    1.5040   12.5870   -1.9400 C   0  0  2  0  0  0  0  0  0  0  0  0
    2.2210   11.8290   -0.7710 C   0  0  0  0  0  0  0  0  0  0  0  0
    0.5245    9.2355   -1.2184 H   0  0  0  0  0  0  0  0  0  0  0  0
   -0.6268    9.1670   -2.5955 H   0  0  0  0  0  0  0  0  0  0  0  0
    0.8365    8.1252   -2.5955 H   0  0  0  0  0  0  0  0  0  0  0  0
    1.1519   10.0208   -4.1004 H   0  0  0  0  0  0  0  0  0  0  0  0
    2.8740   10.9316   -1.8362 H   0  0  0  0  0  0  0  0  0  0  0  0
    2.9549    9.1712   -2.3241 H   0  0  0  0  0  0  0  0  0  0  0  0
    3.6886    9.6834   -4.4919 H   0  0  0  0  0  0  0  0  0  0  0  0
    3.2530   11.4338   -4.3080 H   0  0  0  0  0  0  0  0  0  0  0  0
    4.8370   10.3591   -2.3622 H   0  0  0  0  0  0  0  0  0  0  0  0
    5.7504    9.5124   -5.8219 H   0  0  0  0  0  0  0  0  0  0  0  0
    5.4400   11.2473   -6.1692 H   0  0  0  0  0  0  0  0  0  0  0  0
    7.1226   10.6183   -6.1692 H   0  0  0  0  0  0  0  0  0  0  0  0
    7.5144   10.6856   -2.5277 H   0  0  0  0  0  0  0  0  0  0  0  0
    8.0313    9.7132   -3.9469 H   0  0  0  0  0  0  0  0  0  0  0  0
    8.2615   11.4946   -3.9469 H   0  0  0  0  0  0  0  0  0  0  0  0
    0.4149   11.9309   -3.7176 H   0  0  0  0  0  0  0  0  0  0  0  0
   -1.5547   11.4624   -2.3994 H   0  0  0  0  0  0  0  0  0  0  0  0
   -0.6269   10.5350   -1.2013 H   0  0  0  0  0  0  0  0  0  0  0  0
   -1.6116   13.1943   -0.8439 H   0  0  0  0  0  0  0  0  0  0  0  0
   -0.3916   12.4468    0.1837 H   0  0  0  0  0  0  0  0  0  0  0  0
   -1.0317   15.0849   -2.2330 H   0  0  0  0  0  0  0  0  0  0  0  0
    0.4274   14.9128   -3.2666 H   0  0  0  0  0  0  0  0  0  0  0  0
   -0.8297   13.6297   -3.2666 H   0  0  0  0  0  0  0  0  0  0  0  0
    1.4495   14.0138    0.3166 H   0  0  0  0  0  0  0  0  0  0  0  0
   -0.8261   15.2183    0.2336 H   0  0  0  0  0  0  0  0  0  0  0  0
    0.6177   15.9684    1.0949 H   0  0  0  0  0  0  0  0  0  0  0  0
   -0.8557   17.6047   -0.3521 H   0  0  0  0  0  0  0  0  0  0  0  0
    1.8309   16.1366   -2.9820 H   0  0  0  0  0  0  0  0  0  0  0  0
    3.4748   18.0229   -1.1822 H   0  0  0  0  0  0  0  0  0  0  0  0
    4.0931   17.0278   -2.5742 H   0  0  0  0  0  0  0  0  0  0  0  0
    3.8043   19.4085   -3.1810 H   0  0  0  0  0  0  0  0  0  0  0  0
    2.7342   18.3033   -4.1293 H   0  0  0  0  0  0  0  0  0  0  0  0
    1.4669   20.2369   -3.4828 H   0  0  0  0  0  0  0  0  0  0  0  0
    2.7000   20.8620   -1.6580 H   0  0  0  0  0  0  0  0  0  0  0  0
   -0.8509   17.3900   -3.7154 H   0  0  0  0  0  0  0  0  0  0  0  0
   -0.4694   18.9945   -4.4273 H   0  0  0  0  0  0  0  0  0  0  0  0
    0.7700   17.6942   -4.4273 H   0  0  0  0  0  0  0  0  0  0  0  0
   -0.6309   19.4888   -0.7984 H   0  0  0  0  0  0  0  0  0  0  0  0
   -0.5362   20.5599   -2.2373 H   0  0  0  0  0  0  0  0  0  0  0  0
   -1.6522   19.1524   -2.2373 H   0  0  0  0  0  0  0  0  0  0  0  0
    2.7462   15.5467    1.0582 H   0  0  0  0  0  0  0  0  0  0  0  0
    4.2454   15.3405    0.0905 H   0  0  0  0  0  0  0  0  0  0  0  0
    3.3863   16.9180    0.0905 H   0  0  0  0  0  0  0  0  0  0  0  0
    3.9370   14.9583   -2.5902 H   0  0  0  0  0  0  0  0  0  0  0  0
    3.8639   13.7896   -1.1540 H   0  0  0  0  0  0  0  0  0  0  0  0
    2.1041   13.7986   -3.6221 H   0  0  0  0  0  0  0  0  0  0  0  0
    3.3140   12.5601   -3.1032 H   0  0  0  0  0  0  0  0  0  0  0  0
    1.8571   12.2137    0.1931 H   0  0  0  0  0  0  0  0  0  0  0  0
    2.0021   10.7534   -0.8427 H   0  0  0  0  0  0  0  0  0  0  0  0
    3.3071   11.9878   -0.8427 H   0  0  0  0  0  0  0  0  0  0  0  0
  1  2  1  0
  2  3  1  0
  3  4  1  0
  4  5  1  0
  5  6  1  0
  6  7  1  0
  7  8  1  0
  7  9  1  0
  2 10  1  0
 10 11  1  0
 11 12  1  0
 12 13  1  0
 13 14  1  6
 13 15  1  0
 15 16  1  0
 16 17  1  0
 17 18  2  0
 18 19  1  0
 19 20  1  0
 20 21  1  0
 21 22  1  0
 22 23  1  0
 22 24  1  0
 24 25  1  0
 24 26  1  0
 19 27  1  0
 27 28  1  1
 27 29  1  0
 29 30  1  0
 30 31  1  0
 31 32  1  1
  7  5  1  0
 31 10  1  0
 31 13  1  0
 27 15  1  0
 24 18  1  0
  1 33  1  0
  1 34  1  0
  1 35  1  0
  2 36  1  6
  3 37  1  0
  3 38  1  0
  4 39  1  0
  4 40  1  0
  5 41  1  1
  8 42  1  0
  8 43  1  0
  8 44  1  0
  9 45  1  0
  9 46  1  0
  9 47  1  0
 10 48  1  6
 11 49  1  0
 11 50  1  0
 12 51  1  0
 12 52  1  0
 14 53  1  0
 14 54  1  0
 14 55  1  0
 15 56  1  1
 16 57  1  0
 16 58  1  0
 17 59  1  0
 19 60  1  6
 20 61  1  0
 20 62  1  0
 21 63  1  0
 21 64  1  0
 22 65  1  6
 23 66  1  0
 25 67  1  0
 25 68  1  0
 25 69  1  0
 26 70  1  0
 26 71  1  0
 26 72  1  0
 28 73  1  0
 28 74  1  0
 28 75  1  0
 29 76  1  0
 29 77  1  0
 30 78  1  0
 30 79  1  0
 32 80  1  0
 32 81  1  0
 32 82  1  0
M  END
>  <meeko>  (9) 
{"is_sidechain": [false], "intermolecular_energy": 2.731, "internal_energy": -0.839}

$$$$
EPH_relaxed_0001_pdb2pqr_Repair_338_r2_0001_out
     RDKit          3D

 82 86  0  0  0  0  0  0  0  0999 V2000
    4.4710   17.5540   -2.2390 C   0  0  0  0  0  0  0  0  0  0  0  0
    3.0040   17.1400   -2.3820 C   0  0  2  0  0  0  0  0  0  0  0  0
    2.1390   17.6520   -1.2130 C   0  0  0  0  0  0  0  0  0  0  0  0
    2.6250   18.9790   -0.6230 C   0  0  0  0  0  0  0  0  0  0  0  0
    2.9050   18.8640    0.8450 C   0  0  2  0  0  0  0  0  0  0  0  0
    3.0460   20.1160    1.5270 O   0  0  0  0  0  0  0  0  0  0  0  0
    4.2160   19.2840    1.4820 C   0  0  0  0  0  0  0  0  0  0  0  0
    5.3350   19.8500    0.6650 C   0  0  0  0  0  0  0  0  0  0  0  0
    4.5880   18.6950    2.8070 C   0  0  0  0  0  0  0  0  0  0  0  0
    2.9000   15.6220   -2.4810 C   0  0  1  0  0  0  0  0  0  0  0  0
    4.2800   14.9400   -2.6750 C   0  0  0  0  0  0  0  0  0  0  0  0
    4.2240   13.5910   -1.9140 C   0  0  0  0  0  0  0  0  0  0  0  0
    2.7250   13.3880   -1.5910 C   0  0  1  0  0  0  0  0  0  0  0  0
    2.1050   12.8170   -2.9050 C   0  0  0  0  0  0  0  0  0  0  0  0
    2.4000   12.4820   -0.3590 C   0  0  2  0  0  0  0  0  0  0  0  0
    2.8680   11.0220   -0.4800 C   0  0  0  0  0  0  0  0  0  0  0  0
    1.8750   10.0810   -1.0780 C   0  0  0  0  0  0  0  0  0  0  0  0
    0.5620   10.3290   -1.2390 C   0  0  0  0  0  0  0  0  0  0  0  0
   -0.0660   11.6240   -0.7090 C   0  0  1  0  0  0  0  0  0  0  0  0
   -1.3800   11.2910    0.0460 C   0  0  0  0  0  0  0  0  0  0  0  0
   -2.3520   10.4760   -0.8030 C   0  0  0  0  0  0  0  0  0  0  0  0
   -1.7100    9.1690   -1.2620 C   0  0  2  0  0  0  0  0  0  0  0  0
   -1.4860    8.3390   -0.1190 O   0  0  0  0  0  0  0  0  0  0  0  0
   -0.3730    9.3780   -2.0270 C   0  0  0  0  0  0  0  0  0  0  0  0
   -0.6580   10.0130   -3.4100 C   0  0  0  0  0  0  0  0  0  0  0  0
    0.2390    7.9800   -2.3090 C   0  0  0  0  0  0  0  0  0  0  0  0
    0.8970   12.5690    0.1310 C   0  0  1  0  0  0  0  0  0  0  0  0
    0.8920   12.1380    1.6290 C   0  0  0  0  0  0  0  0  0  0  0  0
    0.3380   14.0400    0.0900 C   0  0  0  0  0  0  0  0  0  0  0  0
    0.7910   14.9230   -1.0890 C   0  0  0  0  0  0  0  0  0  0  0  0
    2.3120   14.8690   -1.2620 C   0  0  2  0  0  0  0  0  0  0  0  0
    2.9620   15.4580    0.0360 C   0  0  0  0  0  0  0  0  0  0  0  0
    4.7291   17.6268   -1.1722 H   0  0  0  0  0  0  0  0  0  0  0  0
    5.1129   16.8019   -2.7210 H   0  0  0  0  0  0  0  0  0  0  0  0
    4.6250   18.5307   -2.7210 H   0  0  0  0  0  0  0  0  0  0  0  0
    2.6186   17.6005   -3.3037 H   0  0  0  0  0  0  0  0  0  0  0  0
    1.1100   17.7897   -1.5766 H   0  0  0  0  0  0  0  0  0  0  0  0
    2.2039   16.9010   -0.4119 H   0  0  0  0  0  0  0  0  0  0  0  0
    3.5479   19.2818   -1.1392 H   0  0  0  0  0  0  0  0  0  0  0  0
    1.8311   19.7275   -0.7629 H   0  0  0  0  0  0  0  0  0  0  0  0
    2.3182   17.9357    0.9081 H   0  0  0  0  0  0  0  0  0  0  0  0
    6.1143   20.2442    1.3338 H   0  0  0  0  0  0  0  0  0  0  0  0
    5.7619   19.0594    0.0304 H   0  0  0  0  0  0  0  0  0  0  0  0
    4.9512   20.6624    0.0304 H   0  0  0  0  0  0  0  0  0  0  0  0
    4.1889   19.3268    3.6142 H   0  0  0  0  0  0  0  0  0  0  0  0
    4.1648   17.6831    2.8902 H   0  0  0  0  0  0  0  0  0  0  0  0
    5.6836   18.6423    2.8902 H   0  0  0  0  0  0  0  0  0  0  0  0
    2.2173   15.5396   -3.3396 H   0  0  0  0  0  0  0  0  0  0  0  0
    4.4684   14.7640   -3.7444 H   0  0  0  0  0  0  0  0  0  0  0  0
    5.0917   15.5758   -2.2918 H   0  0  0  0  0  0  0  0  0  0  0  0
    4.5995   12.7727   -2.5459 H   0  0  0  0  0  0  0  0  0  0  0  0
    4.8491   13.5961   -1.0089 H   0  0  0  0  0  0  0  0  0  0  0  0
    1.3173   12.0915   -2.6537 H   0  0  0  0  0  0  0  0  0  0  0  0
    1.6720   13.6392   -3.4936 H   0  0  0  0  0  0  0  0  0  0  0  0
    2.8889   12.3179   -3.4936 H   0  0  0  0  0  0  0  0  0  0  0  0
    3.0204   12.9289    0.4318 H   0  0  0  0  0  0  0  0  0  0  0  0
    3.7718   11.0057   -1.1068 H   0  0  0  0  0  0  0  0  0  0  0  0
    3.0384   10.6711    0.5485 H   0  0  0  0  0  0  0  0  0  0  0  0
    2.2479    9.1027   -1.4154 H   0  0  0  0  0  0  0  0  0  0  0  0
   -0.2888   12.2379   -1.5941 H   0  0  0  0  0  0  0  0  0  0  0  0
   -1.1314   10.7143    0.9491 H   0  0  0  0  0  0  0  0  0  0  0  0
   -1.8718   12.2426    0.2962 H   0  0  0  0  0  0  0  0  0  0  0  0
   -3.2473   10.2474   -0.2062 H   0  0  0  0  0  0  0  0  0  0  0  0
   -2.6228   11.0657   -1.6912 H   0  0  0  0  0  0  0  0  0  0  0  0
   -2.4040    8.6916   -1.9694 H   0  0  0  0  0  0  0  0  0  0  0  0
   -1.7690    7.4380   -0.3490 H   0  0  0  0  0  0  0  0  0  0  0  0
   -1.1048   11.0085   -3.2713 H   0  0  0  0  0  0  0  0  0  0  0  0
    0.2836   10.1086   -3.9706 H   0  0  0  0  0  0  0  0  0  0  0  0
   -1.3552    9.3730   -3.9706 H   0  0  0  0  0  0  0  0  0  0  0  0
    0.4592    7.4771   -1.3558 H   0  0  0  0  0  0  0  0  0  0  0  0
   -0.4770    7.3758   -2.8855 H   0  0  0  0  0  0  0  0  0  0  0  0
    1.1686    8.0962   -2.8855 H   0  0  0  0  0  0  0  0  0  0  0  0
    0.9024   13.0332    2.2681 H   0  0  0  0  0  0  0  0  0  0  0  0
   -0.0130   11.5487    1.8380 H   0  0  0  0  0  0  0  0  0  0  0  0
    1.7831   11.5279    1.8380 H   0  0  0  0  0  0  0  0  0  0  0  0
   -0.7597   13.9780    0.0567 H   0  0  0  0  0  0  0  0  0  0  0  0
    0.7453   14.5277    0.9879 H   0  0  0  0  0  0  0  0  0  0  0  0
    0.3110   14.5651   -2.0118 H   0  0  0  0  0  0  0  0  0  0  0  0
    0.4985   15.9628   -0.8810 H   0  0  0  0  0  0  0  0  0  0  0  0
    2.4774   15.0189    0.9205 H   0  0  0  0  0  0  0  0  0  0  0  0
    4.0356   15.2188    0.0495 H   0  0  0  0  0  0  0  0  0  0  0  0
    2.8294   16.5499    0.0495 H   0  0  0  0  0  0  0  0  0  0  0  0
  1  2  1  0
  2  3  1  0
  3  4  1  0
  4  5  1  0
  5  6  1  0
  6  7  1  0
  7  8  1  0
  7  9  1  0
  2 10  1  0
 10 11  1  0
 11 12  1  0
 12 13  1  0
 13 14  1  6
 13 15  1  0
 15 16  1  0
 16 17  1  0
 17 18  2  0
 18 19  1  0
 19 20  1  0
 20 21  1  0
 21 22  1  0
 22 23  1  0
 22 24  1  0
 24 25  1  0
 24 26  1  0
 19 27  1  0
 27 28  1  1
 27 29  1  0
 29 30  1  0
 30 31  1  0
 31 32  1  1
  7  5  1  0
 31 10  1  0
 31 13  1  0
 27 15  1  0
 24 18  1  0
  1 33  1  0
  1 34  1  0
  1 35  1  0
  2 36  1  6
  3 37  1  0
  3 38  1  0
  4 39  1  0
  4 40  1  0
  5 41  1  1
  8 42  1  0
  8 43  1  0
  8 44  1  0
  9 45  1  0
  9 46  1  0
  9 47  1  0
 10 48  1  6
 11 49  1  0
 11 50  1  0
 12 51  1  0
 12 52  1  0
 14 53  1  0
 14 54  1  0
 14 55  1  0
 15 56  1  1
 16 57  1  0
 16 58  1  0
 17 59  1  0
 19 60  1  6
 20 61  1  0
 20 62  1  0
 21 63  1  0
 21 64  1  0
 22 65  1  6
 23 66  1  0
 25 67  1  0
 25 68  1  0
 25 69  1  0
 26 70  1  0
 26 71  1  0
 26 72  1  0
 28 73  1  0
 28 74  1  0
 28 75  1  0
 29 76  1  0
 29 77  1  0
 30 78  1  0
 30 79  1  0
 32 80  1  0
 32 81  1  0
 32 82  1  0
M  END
>  <meeko>  (10) 
{"is_sidechain": [false], "intermolecular_energy": 2.731, "internal_energy": -0.839}

$$$$
EPH_relaxed_0001_pdb2pqr_Repair_338_r2_0001_out
     RDKit          3D

 82 86  0  0  0  0  0  0  0  0999 V2000
    4.9470   15.9830   -1.2480 C   0  0  0  0  0  0  0  0  0  0  0  0
    3.6310   16.7640   -1.1930 C   0  0  2  0  0  0  0  0  0  0  0  0
    3.6910   17.9330   -0.1890 C   0  0  0  0  0  0  0  0  0  0  0  0
    3.1240   19.2450   -0.7380 C   0  0  0  0  0  0  0  0  0  0  0  0
    2.1870   19.0080   -1.8830 C   0  0  2  0  0  0  0  0  0  0  0  0
    1.7710   20.1940   -2.5720 O   0  0  0  0  0  0  0  0  0  0  0  0
    0.7400   19.4640   -1.8880 C   0  0  0  0  0  0  0  0  0  0  0  0
    0.1480   20.1940   -0.7230 C   0  0  0  0  0  0  0  0  0  0  0  0
   -0.2240   18.7790   -2.8060 C   0  0  0  0  0  0  0  0  0  0  0  0
    2.4850   15.8260   -0.8320 C   0  0  1  0  0  0  0  0  0  0  0  0
    1.1940   16.5870   -0.4320 C   0  0  0  0  0  0  0  0  0  0  0  0
   -0.0010   15.7420   -0.9430 C   0  0  0  0  0  0  0  0  0  0  0  0
    0.6200   14.3770   -1.3200 C   0  0  1  0  0  0  0  0  0  0  0  0
    0.7490   13.6070    0.0320 C   0  0  0  0  0  0  0  0  0  0  0  0
   -0.1520   13.5380   -2.3900 C   0  0  2  0  0  0  0  0  0  0  0  0
   -1.5700   13.1060   -1.9810 C   0  0  0  0  0  0  0  0  0  0  0  0
   -1.6600   11.7850   -1.2910 C   0  0  0  0  0  0  0  0  0  0  0  0
   -0.6920   10.8500   -1.2610 C   0  0  0  0  0  0  0  0  0  0  0  0
    0.6090   11.0390   -2.0530 C   0  0  1  0  0  0  0  0  0  0  0  0
    0.9430    9.7320   -2.8190 C   0  0  0  0  0  0  0  0  0  0  0  0
    0.9880    8.5120   -1.9030 C   0  0  0  0  0  0  0  0  0  0  0  0
   -0.3430    8.3250   -1.1790 C   0  0  2  0  0  0  0  0  0  0  0  0
   -1.3470    7.9850   -2.1390 O   0  0  0  0  0  0  0  0  0  0  0  0
   -0.7870    9.5810   -0.3790 C   0  0  0  0  0  0  0  0  0  0  0  0
    0.1380    9.7720    0.8480 C   0  0  0  0  0  0  0  0  0  0  0  0
   -2.2070    9.3100    0.1860 C   0  0  0  0  0  0  0  0  0  0  0  0
    0.6740   12.3250   -2.9830 C   0  0  1  0  0  0  0  0  0  0  0  0
    0.0560   12.0050   -4.3780 C   0  0  0  0  0  0  0  0  0  0  0  0
    2.1820   12.6980   -3.2410 C   0  0  0  0  0  0  0  0  0  0  0  0
    2.8540   13.6260   -2.2110 C   0  0  0  0  0  0  0  0  0  0  0  0
    1.9860   14.8570   -1.9330 C   0  0  2  0  0  0  0  0  0  0  0  0
    1.8570   15.6630   -3.2710 C   0  0  0  0  0  0  0  0  0  0  0  0
    5.2941   15.7770   -0.2247 H   0  0  0  0  0  0  0  0  0  0  0  0
    4.7877   15.0331   -1.7794 H   0  0  0  0  0  0  0  0  0  0  0  0
    5.7045   16.5779   -1.7794 H   0  0  0  0  0  0  0  0  0  0  0  0
    3.4594   17.1942   -2.1907 H   0  0  0  0  0  0  0  0  0  0  0  0
    3.1149   17.6528    0.7052 H   0  0  0  0  0  0  0  0  0  0  0  0
    4.7532   18.1104    0.0350 H   0  0  0  0  0  0  0  0  0  0  0  0
    2.5804   19.7625    0.0662 H   0  0  0  0  0  0  0  0  0  0  0  0
    3.9634   19.8552   -1.1027 H   0  0  0  0  0  0  0  0  0  0  0  0
    2.6549   18.0353   -2.0949 H   0  0  0  0  0  0  0  0  0  0  0  0
    0.5114   19.7459    0.2136 H   0  0  0  0  0  0  0  0  0  0  0  0
    0.4464   21.2520   -0.7632 H   0  0  0  0  0  0  0  0  0  0  0  0
   -0.9488   20.1206   -0.7632 H   0  0  0  0  0  0  0  0  0  0  0  0
   -0.9785   18.2429   -2.2116 H   0  0  0  0  0  0  0  0  0  0  0  0
   -0.7211   19.5275   -3.4405 H   0  0  0  0  0  0  0  0  0  0  0  0
    0.3193   18.0633   -3.4405 H   0  0  0  0  0  0  0  0  0  0  0  0
    2.9602   15.2588   -0.0181 H   0  0  0  0  0  0  0  0  0  0  0  0
    1.1414   16.6947    0.6614 H   0  0  0  0  0  0  0  0  0  0  0  0
    1.1793   17.5962   -0.8695 H   0  0  0  0  0  0  0  0  0  0  0  0
   -0.7565   15.6200   -0.1528 H   0  0  0  0  0  0  0  0  0  0  0  0
   -0.5142   16.2160   -1.7927 H   0  0  0  0  0  0  0  0  0  0  0  0
    0.6309   14.3119    0.8681 H   0  0  0  0  0  0  0  0  0  0  0  0
   -0.0323   12.8349    0.0902 H   0  0  0  0  0  0  0  0  0  0  0  0
    1.7393   13.1317    0.0902 H   0  0  0  0  0  0  0  0  0  0  0  0
   -0.2846   14.2627   -3.2068 H   0  0  0  0  0  0  0  0  0  0  0  0
   -1.9765   13.8716   -1.3038 H   0  0  0  0  0  0  0  0  0  0  0  0
   -2.1377   12.9997   -2.9172 H   0  0  0  0  0  0  0  0  0  0  0  0
   -2.5970   11.5563   -0.7622 H   0  0  0  0  0  0  0  0  0  0  0  0
    1.3914   11.2454   -1.3079 H   0  0  0  0  0  0  0  0  0  0  0  0
    0.1737    9.5675   -3.5879 H   0  0  0  0  0  0  0  0  0  0  0  0
    1.9415    9.8520   -3.2646 H   0  0  0  0  0  0  0  0  0  0  0  0
    1.1989    7.6165   -2.5060 H   0  0  0  0  0  0  0  0  0  0  0  0
    1.7778    8.6648   -1.1527 H   0  0  0  0  0  0  0  0  0  0  0  0
   -0.2079    7.5176   -0.4442 H   0  0  0  0  0  0  0  0  0  0  0  0
   -1.0070    8.2250   -3.0180 H   0  0  0  0  0  0  0  0  0  0  0  0
   -0.4478    9.6510    1.7712 H   0  0  0  0  0  0  0  0  0  0  0  0
    0.9411    9.0207    0.8223 H   0  0  0  0  0  0  0  0  0  0  0  0
    0.5778   10.7799    0.8223 H   0  0  0  0  0  0  0  0  0  0  0  0
   -2.1716    9.3168    1.2854 H   0  0  0  0  0  0  0  0  0  0  0  0
   -2.8962   10.0928   -0.1635 H   0  0  0  0  0  0  0  0  0  0  0  0
   -2.5595    8.3284   -0.1635 H   0  0  0  0  0  0  0  0  0  0  0  0
   -0.9134   11.5030   -4.2431 H   0  0  0  0  0  0  0  0  0  0  0  0
   -0.0903   12.9407   -4.9376 H   0  0  0  0  0  0  0  0  0  0  0  0
    0.7357   11.3455   -4.9376 H   0  0  0  0  0  0  0  0  0  0  0  0
    2.7566   11.7604   -3.2690 H   0  0  0  0  0  0  0  0  0  0  0  0
    2.1809   13.2663   -4.1829 H   0  0  0  0  0  0  0  0  0  0  0  0
    3.0045   13.0725   -1.2724 H   0  0  0  0  0  0  0  0  0  0  0  0
    3.8187   13.9622   -2.6189 H   0  0  0  0  0  0  0  0  0  0  0  0
    1.6869   16.7258   -3.0439 H   0  0  0  0  0  0  0  0  0  0  0  0
    2.7836   15.5564   -3.8541 H   0  0  0  0  0  0  0  0  0  0  0  0
    1.0099   15.2725   -3.8541 H   0  0  0  0  0  0  0  0  0  0  0  0
  1  2  1  0
  2  3  1  0
  3  4  1  0
  4  5  1  0
  5  6  1  0
  6  7  1  0
  7  8  1  0
  7  9  1  0
  2 10  1  0
 10 11  1  0
 11 12  1  0
 12 13  1  0
 13 14  1  1
 13 15  1  0
 15 16  1  0
 16 17  1  0
 17 18  2  0
 18 19  1  0
 19 20  1  0
 20 21  1  0
 21 22  1  0
 22 23  1  0
 22 24  1  0
 24 25  1  0
 24 26  1  0
 19 27  1  0
 27 28  1  6
 27 29  1  0
 29 30  1  0
 30 31  1  0
 31 32  1  6
  7  5  1  0
 31 10  1  0
 31 13  1  0
 27 15  1  0
 24 18  1  0
  1 33  1  0
  1 34  1  0
  1 35  1  0
  2 36  1  6
  3 37  1  0
  3 38  1  0
  4 39  1  0
  4 40  1  0
  5 41  1  6
  8 42  1  0
  8 43  1  0
  8 44  1  0
  9 45  1  0
  9 46  1  0
  9 47  1  0
 10 48  1  1
 11 49  1  0
 11 50  1  0
 12 51  1  0
 12 52  1  0
 14 53  1  0
 14 54  1  0
 14 55  1  0
 15 56  1  6
 16 57  1  0
 16 58  1  0
 17 59  1  0
 19 60  1  1
 20 61  1  0
 20 62  1  0
 21 63  1  0
 21 64  1  0
 22 65  1  1
 23 66  1  0
 25 67  1  0
 25 68  1  0
 25 69  1  0
 26 70  1  0
 26 71  1  0
 26 72  1  0
 28 73  1  0
 28 74  1  0
 28 75  1  0
 29 76  1  0
 29 77  1  0
 30 78  1  0
 30 79  1  0
 32 80  1  0
 32 81  1  0
 32 82  1  0
M  END
>  <meeko>  (11) 
{"is_sidechain": [false], "intermolecular_energy": 2.731, "internal_energy": -0.839}

$$$$
EPH_relaxed_0001_pdb2pqr_Repair_338_r2_0001_out
     RDKit          3D

 82 86  0  0  0  0  0  0  0  0999 V2000
    2.3600    9.4140   -0.7830 C   0  0  0  0  0  0  0  0  0  0  0  0
    1.1100   10.0130   -1.4340 C   0  0  2  0  0  0  0  0  0  0  0  0
    0.4640    9.0490   -2.4490 C   0  0  0  0  0  0  0  0  0  0  0  0
   -0.3760    7.9450   -1.8000 C   0  0  0  0  0  0  0  0  0  0  0  0
   -1.8090    8.3550   -1.6510 C   0  0  2  0  0  0  0  0  0  0  0  0
   -2.0520    9.7570   -1.8250 O   0  0  0  0  0  0  0  0  0  0  0  0
   -2.3160    9.2260   -0.5160 C   0  0  0  0  0  0  0  0  0  0  0  0
   -1.3950    9.7390    0.5450 C   0  0  0  0  0  0  0  0  0  0  0  0
   -3.7720    9.1740   -0.1690 C   0  0  0  0  0  0  0  0  0  0  0  0
    1.4610   11.3300   -2.1170 C   0  0  1  0  0  0  0  0  0  0  0  0
    0.9280   11.4080   -3.5730 C   0  0  0  0  0  0  0  0  0  0  0  0
    0.5310   12.8860   -3.8250 C   0  0  0  0  0  0  0  0  0  0  0  0
    1.1500   13.6640   -2.6400 C   0  0  1  0  0  0  0  0  0  0  0  0
    2.6470   13.8680   -3.0320 C   0  0  0  0  0  0  0  0  0  0  0  0
    0.4610   15.0170   -2.2670 C   0  0  2  0  0  0  0  0  0  0  0  0
    0.4960   16.0920   -3.3670 C   0  0  0  0  0  0  0  0  0  0  0  0
    1.6770   17.0050   -3.3290 C   0  0  0  0  0  0  0  0  0  0  0  0
    2.5190   17.1510   -2.2890 C   0  0  0  0  0  0  0  0  0  0  0  0
    2.2660   16.4240   -0.9620 C   0  0  1  0  0  0  0  0  0  0  0  0
    2.4480   17.4170    0.2160 C   0  0  0  0  0  0  0  0  0  0  0  0
    3.8010   18.1200    0.1840 C   0  0  0  0  0  0  0  0  0  0  0  0
    3.9910   18.8800   -1.1260 C   0  0  2  0  0  0  0  0  0  0  0  0
    3.0520   19.9580   -1.1740 O   0  0  0  0  0  0  0  0  0  0  0  0
    3.8220   17.9830   -2.3840 C   0  0  0  0  0  0  0  0  0  0  0  0
    5.0170   17.0040   -2.4900 C   0  0  0  0  0  0  0  0  0  0  0  0
    3.8970   18.8980   -3.6360 C   0  0  0  0  0  0  0  0  0  0  0  0
    0.9060   15.6070   -0.8680 C   0  0  1  0  0  0  0  0  0  0  0  0
   -0.2460   16.5440   -0.3930 C   0  0  0  0  0  0  0  0  0  0  0  0
    1.0530   14.4900    0.2330 C   0  0  0  0  0  0  0  0  0  0  0  0
    1.6280   13.1360   -0.2230 C   0  0  0  0  0  0  0  0  0  0  0  0
    0.9120   12.6310   -1.4790 C   0  0  2  0  0  0  0  0  0  0  0  0
   -0.5930   12.3950   -1.1090 C   0  0  0  0  0  0  0  0  0  0  0  0
    2.2617    9.4611    0.3116 H   0  0  0  0  0  0  0  0  0  0  0  0
    2.4700    8.3654   -1.0965 H   0  0  0  0  0  0  0  0  0  0  0  0
    3.2462    9.9853   -1.0965 H   0  0  0  0  0  0  0  0  0  0  0  0
    0.3747   10.1918   -0.6357 H   0  0  0  0  0  0  0  0  0  0  0  0
   -0.1861    9.6327   -3.1173 H   0  0  0  0  0  0  0  0  0  0  0  0
    1.2842    8.5537   -2.9893 H   0  0  0  0  0  0  0  0  0  0  0  0
   -0.3266    7.0434   -2.4282 H   0  0  0  0  0  0  0  0  0  0  0  0
    0.0309    7.7491   -0.7970 H   0  0  0  0  0  0  0  0  0  0  0  0
   -2.1516    7.3886   -2.0494 H   0  0  0  0  0  0  0  0  0  0  0  0
   -1.8119    9.5068    1.5361 H   0  0  0  0  0  0  0  0  0  0  0  0
   -0.4108    9.2591    0.4396 H   0  0  0  0  0  0  0  0  0  0  0  0
   -1.2849   10.8284    0.4396 H   0  0  0  0  0  0  0  0  0  0  0  0
   -3.8883    9.1698    0.9248 H   0  0  0  0  0  0  0  0  0  0  0  0
   -4.2806   10.0546   -0.5885 H   0  0  0  0  0  0  0  0  0  0  0  0
   -4.2165    8.2594   -0.5885 H   0  0  0  0  0  0  0  0  0  0  0  0
    2.5567   11.2993   -2.0247 H   0  0  0  0  0  0  0  0  0  0  0  0
    1.7121   11.1004   -4.2805 H   0  0  0  0  0  0  0  0  0  0  0  0
    0.0673   10.7379   -3.7152 H   0  0  0  0  0  0  0  0  0  0  0  0
    0.9437   13.2414   -4.7807 H   0  0  0  0  0  0  0  0  0  0  0  0
   -0.5590   13.0201   -3.8881 H   0  0  0  0  0  0  0  0  0  0  0  0
    3.2567   13.9511   -2.1202 H   0  0  0  0  0  0  0  0  0  0  0  0
    2.9909   13.0084   -3.6260 H   0  0  0  0  0  0  0  0  0  0  0  0
    2.7484   14.7883   -3.6260 H   0  0  0  0  0  0  0  0  0  0  0  0
   -0.5948   14.7245   -2.1687 H   0  0  0  0  0  0  0  0  0  0  0  0
    0.4922   15.5816   -4.3414 H   0  0  0  0  0  0  0  0  0  0  0  0
   -0.3858   16.7278   -3.1994 H   0  0  0  0  0  0  0  0  0  0  0  0
    1.8756   17.6092   -4.2265 H   0  0  0  0  0  0  0  0  0  0  0  0
    3.0249   15.6301   -0.9004 H   0  0  0  0  0  0  0  0  0  0  0  0
    1.6544   18.1768    0.1626 H   0  0  0  0  0  0  0  0  0  0  0  0
    2.3934   16.8399    1.1509 H   0  0  0  0  0  0  0  0  0  0  0  0
    3.8580   18.8292    1.0229 H   0  0  0  0  0  0  0  0  0  0  0  0
    4.5927   17.3609    0.2671 H   0  0  0  0  0  0  0  0  0  0  0  0
    5.0254   19.2537   -1.1438 H   0  0  0  0  0  0  0  0  0  0  0  0
    3.1040   20.4320   -0.3260 H   0  0  0  0  0  0  0  0  0  0  0  0
    5.3549   16.7272   -1.4804 H   0  0  0  0  0  0  0  0  0  0  0  0
    4.7033   16.0999   -3.0324 H   0  0  0  0  0  0  0  0  0  0  0  0
    5.8417   17.4894   -3.0324 H   0  0  0  0  0  0  0  0  0  0  0  0
    3.9830   19.9476   -3.3184 H   0  0  0  0  0  0  0  0  0  0  0  0
    4.7757   18.6240   -4.2383 H   0  0  0  0  0  0  0  0  0  0  0  0
    2.9854   18.7707   -4.2383 H   0  0  0  0  0  0  0  0  0  0  0  0
   -0.2718   16.5650    0.7065 H   0  0  0  0  0  0  0  0  0  0  0  0
   -0.0728   17.5608   -0.7752 H   0  0  0  0  0  0  0  0  0  0  0  0
   -1.2062   16.1673   -0.7752 H   0  0  0  0  0  0  0  0  0  0  0  0
    1.7130   14.8836    1.0201 H   0  0  0  0  0  0  0  0  0  0  0  0
    0.0256   14.2709    0.5593 H   0  0  0  0  0  0  0  0  0  0  0  0
    2.6991   13.2558   -0.4431 H   0  0  0  0  0  0  0  0  0  0  0  0
    1.4801   12.4028    0.5836 H   0  0  0  0  0  0  0  0  0  0  0  0
   -0.7032   12.3777   -0.0147 H   0  0  0  0  0  0  0  0  0  0  0  0
   -1.2051   13.2081   -1.5264 H   0  0  0  0  0  0  0  0  0  0  0  0
   -0.9268   11.4335   -1.5264 H   0  0  0  0  0  0  0  0  0  0  0  0
  1  2  1  0
  2  3  1  0
  3  4  1  0
  4  5  1  0
  5  6  1  0
  6  7  1  0
  7  8  1  0
  7  9  1  0
  2 10  1  0
 10 11  1  0
 11 12  1  0
 12 13  1  0
 13 14  1  6
 13 15  1  0
 15 16  1  0
 16 17  1  0
 17 18  2  0
 18 19  1  0
 19 20  1  0
 20 21  1  0
 21 22  1  0
 22 23  1  0
 22 24  1  0
 24 25  1  0
 24 26  1  0
 19 27  1  0
 27 28  1  1
 27 29  1  0
 29 30  1  0
 30 31  1  0
 31 32  1  1
  7  5  1  0
 31 10  1  0
 31 13  1  0
 27 15  1  0
 24 18  1  0
  1 33  1  0
  1 34  1  0
  1 35  1  0
  2 36  1  1
  3 37  1  0
  3 38  1  0
  4 39  1  0
  4 40  1  0
  5 41  1  6
  8 42  1  0
  8 43  1  0
  8 44  1  0
  9 45  1  0
  9 46  1  0
  9 47  1  0
 10 48  1  6
 11 49  1  0
 11 50  1  0
 12 51  1  0
 12 52  1  0
 14 53  1  0
 14 54  1  0
 14 55  1  0
 15 56  1  1
 16 57  1  0
 16 58  1  0
 17 59  1  0
 19 60  1  1
 20 61  1  0
 20 62  1  0
 21 63  1  0
 21 64  1  0
 22 65  1  1
 23 66  1  0
 25 67  1  0
 25 68  1  0
 25 69  1  0
 26 70  1  0
 26 71  1  0
 26 72  1  0
 28 73  1  0
 28 74  1  0
 28 75  1  0
 29 76  1  0
 29 77  1  0
 30 78  1  0
 30 79  1  0
 32 80  1  0
 32 81  1  0
 32 82  1  0
M  END
>  <meeko>  (12) 
{"is_sidechain": [false], "intermolecular_energy": 2.731, "internal_energy": -0.839}

$$$$
EPH_relaxed_0001_pdb2pqr_Repair_338_r2_0001_out
     RDKit          3D

 82 86  0  0  0  0  0  0  0  0999 V2000
    0.2930   17.6460   -0.0850 C   0  0  0  0  0  0  0  0  0  0  0  0
    1.0850   17.1470   -1.2970 C   0  0  2  0  0  0  0  0  0  0  0  0
    1.1320   18.1910   -2.4310 C   0  0  0  0  0  0  0  0  0  0  0  0
    2.4120   19.0310   -2.4420 C   0  0  0  0  0  0  0  0  0  0  0  0
    3.5220   18.3390   -3.1740 C   0  0  2  0  0  0  0  0  0  0  0  0
    3.6470   16.9400   -2.8890 O   0  0  0  0  0  0  0  0  0  0  0  0
    4.7490   17.7690   -2.4880 C   0  0  0  0  0  0  0  0  0  0  0  0
    4.9310   17.8670   -1.0060 C   0  0  0  0  0  0  0  0  0  0  0  0
    5.9890   17.5570   -3.3000 C   0  0  0  0  0  0  0  0  0  0  0  0
    0.4820   15.8450   -1.8130 C   0  0  1  0  0  0  0  0  0  0  0  0
    0.1320   15.9060   -3.3230 C   0  0  0  0  0  0  0  0  0  0  0  0
    0.3970   14.4920   -3.9010 C   0  0  0  0  0  0  0  0  0  0  0  0
    0.5680   13.5890   -2.6580 C   0  0  1  0  0  0  0  0  0  0  0  0
   -0.8860   13.2640   -2.1940 C   0  0  0  0  0  0  0  0  0  0  0  0
    1.4140   12.2890   -2.8590 C   0  0  2  0  0  0  0  0  0  0  0  0
    0.8330   11.2830   -3.8680 C   0  0  0  0  0  0  0  0  0  0  0  0
   -0.0870   10.2590   -3.2910 C   0  0  0  0  0  0  0  0  0  0  0  0
   -0.2130    9.9700   -1.9820 C   0  0  0  0  0  0  0  0  0  0  0  0
    0.6910   10.6380   -0.9370 C   0  0  1  0  0  0  0  0  0  0  0  0
    1.2330    9.5640    0.0410 C   0  0  0  0  0  0  0  0  0  0  0  0
    0.1210    8.7350    0.6760 C   0  0  0  0  0  0  0  0  0  0  0  0
   -0.7200    8.0400   -0.3920 C   0  0  2  0  0  0  0  0  0  0  0  0
    0.0910    7.0630   -1.0520 O   0  0  0  0  0  0  0  0  0  0  0  0
   -1.3120    9.0230   -1.4410 C   0  0  0  0  0  0  0  0  0  0  0  0
   -2.4160    9.8860   -0.7810 C   0  0  0  0  0  0  0  0  0  0  0  0
   -2.0170    8.1810   -2.5380 C   0  0  0  0  0  0  0  0  0  0  0  0
    1.8380   11.5760   -1.5120 C   0  0  1  0  0  0  0  0  0  0  0  0
    3.1060   10.7280   -1.8370 C   0  0  0  0  0  0  0  0  0  0  0  0
    2.2650   12.6050   -0.3990 C   0  0  0  0  0  0  0  0  0  0  0  0
    1.4690   13.9220   -0.3280 C   0  0  0  0  0  0  0  0  0  0  0  0
    1.3540   14.5690   -1.7120 C   0  0  2  0  0  0  0  0  0  0  0  0
    2.8010   14.9270   -2.1950 C   0  0  0  0  0  0  0  0  0  0  0  0
    0.7978   17.3279    0.8391 H   0  0  0  0  0  0  0  0  0  0  0  0
    0.2349   18.7441   -0.1118 H   0  0  0  0  0  0  0  0  0  0  0  0
   -0.7226   17.2243   -0.1118 H   0  0  0  0  0  0  0  0  0  0  0  0
    2.1194   16.9723   -0.9660 H   0  0  0  0  0  0  0  0  0  0  0  0
    1.0551   17.6627   -3.3928 H   0  0  0  0  0  0  0  0  0  0  0  0
    0.2942   18.8841   -2.2646 H   0  0  0  0  0  0  0  0  0  0  0  0
    2.2038   19.9917   -2.9356 H   0  0  0  0  0  0  0  0  0  0  0  0
    2.7309   19.1843   -1.4005 H   0  0  0  0  0  0  0  0  0  0  0  0
    3.4043   19.0123   -4.0358 H   0  0  0  0  0  0  0  0  0  0  0  0
    4.0712   17.4040   -0.4996 H   0  0  0  0  0  0  0  0  0  0  0  0
    5.8536   17.3437   -0.7145 H   0  0  0  0  0  0  0  0  0  0  0  0
    5.0020   18.9253   -0.7145 H   0  0  0  0  0  0  0  0  0  0  0  0
    6.8470   17.4103   -2.6275 H   0  0  0  0  0  0  0  0  0  0  0  0
    5.8641   16.6672   -3.9345 H   0  0  0  0  0  0  0  0  0  0  0  0
    6.1668   18.4378   -3.9345 H   0  0  0  0  0  0  0  0  0  0  0  0
   -0.3840   15.7631   -1.1397 H   0  0  0  0  0  0  0  0  0  0  0  0
   -0.9256   16.1775   -3.4560 H   0  0  0  0  0  0  0  0  0  0  0  0
    0.7397   16.6639   -3.8390 H   0  0  0  0  0  0  0  0  0  0  0  0
   -0.4544   14.1559   -4.5111 H   0  0  0  0  0  0  0  0  0  0  0  0
    1.2785   14.4684   -4.5585 H   0  0  0  0  0  0  0  0  0  0  0  0
   -0.9267   13.2549   -1.0948 H   0  0  0  0  0  0  0  0  0  0  0  0
   -1.5740   14.0305   -2.5801 H   0  0  0  0  0  0  0  0  0  0  0  0
   -1.1822   12.2775   -2.5801 H   0  0  0  0  0  0  0  0  0  0  0  0
    2.3355   12.6762   -3.3183 H   0  0  0  0  0  0  0  0  0  0  0  0
    0.2766   11.8488   -4.6298 H   0  0  0  0  0  0  0  0  0  0  0  0
    1.6920   10.7268   -4.2715 H   0  0  0  0  0  0  0  0  0  0  0  0
   -0.7150    9.6927   -3.9945 H   0  0  0  0  0  0  0  0  0  0  0  0
    0.0531   11.3494   -0.3922 H   0  0  0  0  0  0  0  0  0  0  0  0
    1.9032    8.8897   -0.5123 H   0  0  0  0  0  0  0  0  0  0  0  0
    1.7626   10.0873    0.8507 H   0  0  0  0  0  0  0  0  0  0  0  0
    0.5691    7.9746    1.3325 H   0  0  0  0  0  0  0  0  0  0  0  0
   -0.5309    9.4065    1.2539 H   0  0  0  0  0  0  0  0  0  0  0  0
   -1.5757    7.5699    0.1148 H   0  0  0  0  0  0  0  0  0  0  0  0
    1.0070    7.1900   -0.7540 H   0  0  0  0  0  0  0  0  0  0  0  0
   -2.3292    9.8181    0.3135 H   0  0  0  0  0  0  0  0  0  0  0  0
   -2.2983   10.9340   -1.0939 H   0  0  0  0  0  0  0  0  0  0  0  0
   -3.4046    9.5188   -1.0939 H   0  0  0  0  0  0  0  0  0  0  0  0
   -2.6541    7.4201   -2.0634 H   0  0  0  0  0  0  0  0  0  0  0  0
   -2.6369    8.8397   -3.1640 H   0  0  0  0  0  0  0  0  0  0  0  0
   -1.2596    7.6865   -3.1640 H   0  0  0  0  0  0  0  0  0  0  0  0
    3.5837   10.4085   -0.8991 H   0  0  0  0  0  0  0  0  0  0  0  0
    2.8150    9.8421   -2.4206 H   0  0  0  0  0  0  0  0  0  0  0  0
    3.8136   11.3353   -2.4206 H   0  0  0  0  0  0  0  0  0  0  0  0
    2.1648   12.1028    0.5745 H   0  0  0  0  0  0  0  0  0  0  0  0
    3.2910   12.9028   -0.6609 H   0  0  0  0  0  0  0  0  0  0  0  0
    0.4598   13.7122    0.0560 H   0  0  0  0  0  0  0  0  0  0  0  0
    1.9989   14.6163    0.3406 H   0  0  0  0  0  0  0  0  0  0  0  0
    3.4499   15.0875   -1.3214 H   0  0  0  0  0  0  0  0  0  0  0  0
    3.2001   14.1005   -2.8013 H   0  0  0  0  0  0  0  0  0  0  0  0
    2.7687   15.8442   -2.8013 H   0  0  0  0  0  0  0  0  0  0  0  0
  1  2  1  0
  2  3  1  0
  3  4  1  0
  4  5  1  0
  5  6  1  0
  6  7  1  0
  7  8  1  0
  7  9  1  0
  2 10  1  0
 10 11  1  0
 11 12  1  0
 12 13  1  0
 13 14  1  1
 13 15  1  0
 15 16  1  0
 16 17  1  0
 17 18  2  0
 18 19  1  0
 19 20  1  0
 20 21  1  0
 21 22  1  0
 22 23  1  0
 22 24  1  0
 24 25  1  0
 24 26  1  0
 19 27  1  0
 27 28  1  6
 27 29  1  0
 29 30  1  0
 30 31  1  0
 31 32  1  6
  7  5  1  0
 31 10  1  0
 31 13  1  0
 27 15  1  0
 24 18  1  0
  1 33  1  0
  1 34  1  0
  1 35  1  0
  2 36  1  1
  3 37  1  0
  3 38  1  0
  4 39  1  0
  4 40  1  0
  5 41  1  6
  8 42  1  0
  8 43  1  0
  8 44  1  0
  9 45  1  0
  9 46  1  0
  9 47  1  0
 10 48  1  1
 11 49  1  0
 11 50  1  0
 12 51  1  0
 12 52  1  0
 14 53  1  0
 14 54  1  0
 14 55  1  0
 15 56  1  6
 16 57  1  0
 16 58  1  0
 17 59  1  0
 19 60  1  1
 20 61  1  0
 20 62  1  0
 21 63  1  0
 21 64  1  0
 22 65  1  1
 23 66  1  0
 25 67  1  0
 25 68  1  0
 25 69  1  0
 26 70  1  0
 26 71  1  0
 26 72  1  0
 28 73  1  0
 28 74  1  0
 28 75  1  0
 29 76  1  0
 29 77  1  0
 30 78  1  0
 30 79  1  0
 32 80  1  0
 32 81  1  0
 32 82  1  0
M  END
>  <meeko>  (13) 
{"is_sidechain": [false], "intermolecular_energy": 2.731, "internal_energy": -0.839}

$$$$
EPH_relaxed_0001_pdb2pqr_Repair_338_r2_0001_out
     RDKit          3D

 82 86  0  0  0  0  0  0  0  0999 V2000
    2.1840   19.3620    0.2480 C   0  0  0  0  0  0  0  0  0  0  0  0
    2.8540   18.0290   -0.0980 C   0  0  2  0  0  0  0  0  0  0  0  0
    3.6690   18.1110   -1.4040 C   0  0  0  0  0  0  0  0  0  0  0  0
    5.1650   17.8470   -1.2130 C   0  0  0  0  0  0  0  0  0  0  0  0
    5.9330   18.0650   -2.4810 C   0  0  2  0  0  0  0  0  0  0  0  0
    5.1750   17.8680   -3.6820 O   0  0  0  0  0  0  0  0  0  0  0  0
    6.2620   16.9550   -3.4620 C   0  0  0  0  0  0  0  0  0  0  0  0
    5.8310   15.5430   -3.2160 C   0  0  0  0  0  0  0  0  0  0  0  0
    7.4110   17.1480   -4.4020 C   0  0  0  0  0  0  0  0  0  0  0  0
    1.8010   16.9330   -0.2090 C   0  0  1  0  0  0  0  0  0  0  0  0
    0.4190   17.4740   -0.6610 C   0  0  0  0  0  0  0  0  0  0  0  0
   -0.2240   16.3770   -1.5480 C   0  0  0  0  0  0  0  0  0  0  0  0
    0.6490   15.1220   -1.3090 C   0  0  1  0  0  0  0  0  0  0  0  0
    0.1260   14.5210    0.0340 C   0  0  0  0  0  0  0  0  0  0  0  0
    0.6570   14.0580   -2.4540 C   0  0  2  0  0  0  0  0  0  0  0  0
   -0.7060   13.4090   -2.7510 C   0  0  0  0  0  0  0  0  0  0  0  0
   -1.0020   12.1660   -1.9800 C   0  0  0  0  0  0  0  0  0  0  0  0
   -0.1010   11.4350   -1.2980 C   0  0  0  0  0  0  0  0  0  0  0  0
    1.3920   11.7870   -1.3390 C   0  0  1  0  0  0  0  0  0  0  0  0
    2.2210   10.4990   -1.5840 C   0  0  0  0  0  0  0  0  0  0  0  0
    1.9080    9.4000   -0.5730 C   0  0  0  0  0  0  0  0  0  0  0  0
    0.4260    9.0370   -0.6030 C   0  0  2  0  0  0  0  0  0  0  0  0
    0.1260    8.4280   -1.8620 O   0  0  0  0  0  0  0  0  0  0  0  0
   -0.5090   10.2580   -0.3770 C   0  0  0  0  0  0  0  0  0  0  0  0
   -0.4000   10.7320    1.0930 C   0  0  0  0  0  0  0  0  0  0  0  0
   -1.9730    9.7810   -0.5720 C   0  0  0  0  0  0  0  0  0  0  0  0
    1.7980   12.9700   -2.3190 C   0  0  1  0  0  0  0  0  0  0  0  0
    2.0510   12.4110   -3.7530 C   0  0  0  0  0  0  0  0  0  0  0  0
    3.1630   13.5910   -1.8380 C   0  0  0  0  0  0  0  0  0  0  0  0
    3.0820   14.7200   -0.7940 C   0  0  0  0  0  0  0  0  0  0  0  0
    2.0700   15.7880   -1.2180 C   0  0  2  0  0  0  0  0  0  0  0  0
    2.5800   16.4270   -2.5550 C   0  0  0  0  0  0  0  0  0  0  0  0
    2.1288   19.4718    1.3411 H   0  0  0  0  0  0  0  0  0  0  0  0
    2.7735   20.1892   -0.1743 H   0  0  0  0  0  0  0  0  0  0  0  0
    1.1685   19.3825   -0.1743 H   0  0  0  0  0  0  0  0  0  0  0  0
    3.5560   17.7898    0.7144 H   0  0  0  0  0  0  0  0  0  0  0  0
    3.2719   17.3655   -2.1086 H   0  0  0  0  0  0  0  0  0  0  0  0
    3.5695   19.1395   -1.7812 H   0  0  0  0  0  0  0  0  0  0  0  0
    5.5514   18.5283   -0.4407 H   0  0  0  0  0  0  0  0  0  0  0  0
    5.2919   16.7967   -0.9117 H   0  0  0  0  0  0  0  0  0  0  0  0
    6.5565   18.8322   -1.9986 H   0  0  0  0  0  0  0  0  0  0  0  0
    5.7752   15.3601   -2.1327 H   0  0  0  0  0  0  0  0  0  0  0  0
    4.8415   15.3778   -3.6672 H   0  0  0  0  0  0  0  0  0  0  0  0
    6.5595   14.8533   -3.6672 H   0  0  0  0  0  0  0  0  0  0  0  0
    8.3346   17.3031   -3.8251 H   0  0  0  0  0  0  0  0  0  0  0  0
    7.5201   16.2556   -5.0358 H   0  0  0  0  0  0  0  0  0  0  0  0
    7.2225   18.0271   -5.0358 H   0  0  0  0  0  0  0  0  0  0  0  0
    1.8320   16.5439    0.8194 H   0  0  0  0  0  0  0  0  0  0  0  0
   -0.2152   17.6719    0.2157 H   0  0  0  0  0  0  0  0  0  0  0  0
    0.5272   18.4172   -1.2166 H   0  0  0  0  0  0  0  0  0  0  0  0
   -1.2642   16.1906   -1.2425 H   0  0  0  0  0  0  0  0  0  0  0  0
   -0.2592   16.6653   -2.6090 H   0  0  0  0  0  0  0  0  0  0  0  0
    0.5887   15.0527    0.8785 H   0  0  0  0  0  0  0  0  0  0  0  0
   -0.9671   14.6330    0.0848 H   0  0  0  0  0  0  0  0  0  0  0  0
    0.3880   13.4539    0.0848 H   0  0  0  0  0  0  0  0  0  0  0  0
    0.8977   14.6652   -3.3390 H   0  0  0  0  0  0  0  0  0  0  0  0
   -1.4902   14.1457   -2.5222 H   0  0  0  0  0  0  0  0  0  0  0  0
   -0.6767   13.1107   -3.8094 H   0  0  0  0  0  0  0  0  0  0  0  0
   -2.0453   11.8176   -1.9681 H   0  0  0  0  0  0  0  0  0  0  0  0
    1.6340   12.2037   -0.3502 H   0  0  0  0  0  0  0  0  0  0  0  0
    1.9983   10.1231   -2.5935 H   0  0  0  0  0  0  0  0  0  0  0  0
    3.2839   10.7604   -1.4744 H   0  0  0  0  0  0  0  0  0  0  0  0
    2.5023    8.5070   -0.8165 H   0  0  0  0  0  0  0  0  0  0  0  0
    2.1593    9.7667    0.4332 H   0  0  0  0  0  0  0  0  0  0  0  0
    0.2401    8.3418    0.2289 H   0  0  0  0  0  0  0  0  0  0  0  0
   -0.1100    9.1380   -2.4840 H   0  0  0  0  0  0  0  0  0  0  0  0
   -0.5948    9.8847    1.7669 H   0  0  0  0  0  0  0  0  0  0  0  0
    0.6114   11.1227    1.2782 H   0  0  0  0  0  0  0  0  0  0  0  0
   -1.1392   11.5253    1.2782 H   0  0  0  0  0  0  0  0  0  0  0  0
   -2.4428    9.6279    0.4108 H   0  0  0  0  0  0  0  0  0  0  0  0
   -2.5352   10.5425   -1.1325 H   0  0  0  0  0  0  0  0  0  0  0  0
   -1.9787    8.8345   -1.1325 H   0  0  0  0  0  0  0  0  0  0  0  0
    2.5036   11.4109   -3.6821 H   0  0  0  0  0  0  0  0  0  0  0  0
    1.0957   12.3436   -4.2941 H   0  0  0  0  0  0  0  0  0  0  0  0
    2.7321   13.0842   -4.2941 H   0  0  0  0  0  0  0  0  0  0  0  0
    3.7637   12.7783   -1.4035 H   0  0  0  0  0  0  0  0  0  0  0  0
    3.5986   14.0577   -2.7338 H   0  0  0  0  0  0  0  0  0  0  0  0
    2.7728   14.2949    0.1723 H   0  0  0  0  0  0  0  0  0  0  0  0
    4.0728   15.1902   -0.7088 H   0  0  0  0  0  0  0  0  0  0  0  0
    3.2512   17.2680   -2.3268 H   0  0  0  0  0  0  0  0  0  0  0  0
    3.1253   15.6705   -3.1383 H   0  0  0  0  0  0  0  0  0  0  0  0
    1.7214   16.7910   -3.1383 H   0  0  0  0  0  0  0  0  0  0  0  0
  1  2  1  0
  2  3  1  0
  3  4  1  0
  4  5  1  0
  5  6  1  0
  6  7  1  0
  7  8  1  0
  7  9  1  0
  2 10  1  0
 10 11  1  0
 11 12  1  0
 12 13  1  0
 13 14  1  1
 13 15  1  0
 15 16  1  0
 16 17  1  0
 17 18  2  0
 18 19  1  0
 19 20  1  0
 20 21  1  0
 21 22  1  0
 22 23  1  0
 22 24  1  0
 24 25  1  0
 24 26  1  0
 19 27  1  0
 27 28  1  6
 27 29  1  0
 29 30  1  0
 30 31  1  0
 31 32  1  6
  7  5  1  0
 31 10  1  0
 31 13  1  0
 27 15  1  0
 24 18  1  0
  1 33  1  0
  1 34  1  0
  1 35  1  0
  2 36  1  1
  3 37  1  0
  3 38  1  0
  4 39  1  0
  4 40  1  0
  5 41  1  1
  8 42  1  0
  8 43  1  0
  8 44  1  0
  9 45  1  0
  9 46  1  0
  9 47  1  0
 10 48  1  1
 11 49  1  0
 11 50  1  0
 12 51  1  0
 12 52  1  0
 14 53  1  0
 14 54  1  0
 14 55  1  0
 15 56  1  6
 16 57  1  0
 16 58  1  0
 17 59  1  0
 19 60  1  1
 20 61  1  0
 20 62  1  0
 21 63  1  0
 21 64  1  0
 22 65  1  1
 23 66  1  0
 25 67  1  0
 25 68  1  0
 25 69  1  0
 26 70  1  0
 26 71  1  0
 26 72  1  0
 28 73  1  0
 28 74  1  0
 28 75  1  0
 29 76  1  0
 29 77  1  0
 30 78  1  0
 30 79  1  0
 32 80  1  0
 32 81  1  0
 32 82  1  0
M  END
>  <meeko>  (14) 
{"is_sidechain": [false], "intermolecular_energy": 2.731, "internal_energy": -0.839}

$$$$
EPH_relaxed_0001_pdb2pqr_Repair_338_r2_0001_out
     RDKit          3D

 82 86  0  0  0  0  0  0  0  0999 V2000
    0.0890   10.2690   -3.4670 C   0  0  0  0  0  0  0  0  0  0  0  0
    1.1150   10.1180   -2.3400 C   0  0  2  0  0  0  0  0  0  0  0  0
    0.8280    8.8870   -1.4560 C   0  0  0  0  0  0  0  0  0  0  0  0
    0.0520    9.2160   -0.1780 C   0  0  0  0  0  0  0  0  0  0  0  0
   -1.3770    8.7720   -0.2680 C   0  0  2  0  0  0  0  0  0  0  0  0
   -1.9380    8.8230   -1.5860 O   0  0  0  0  0  0  0  0  0  0  0  0
   -2.5220    9.7040   -0.6130 C   0  0  0  0  0  0  0  0  0  0  0  0
   -2.2900   11.1570   -0.8910 C   0  0  0  0  0  0  0  0  0  0  0  0
   -3.9090    9.3170   -0.2050 C   0  0  0  0  0  0  0  0  0  0  0  0
    1.1380   11.3800   -1.4860 C   0  0  1  0  0  0  0  0  0  0  0  0
    1.9860   11.2130   -0.1970 C   0  0  0  0  0  0  0  0  0  0  0  0
    2.6580   12.5830    0.0760 C   0  0  0  0  0  0  0  0  0  0  0  0
    1.9220   13.5720   -0.8580 C   0  0  1  0  0  0  0  0  0  0  0  0
    0.6010   13.9270   -0.1060 C   0  0  0  0  0  0  0  0  0  0  0  0
    2.7150   14.8550   -1.2690 C   0  0  2  0  0  0  0  0  0  0  0  0
    3.0960   15.7870   -0.1060 C   0  0  0  0  0  0  0  0  0  0  0  0
    2.0970   16.8490    0.2140 C   0  0  0  0  0  0  0  0  0  0  0  0
    1.0780   17.2280   -0.5800 C   0  0  0  0  0  0  0  0  0  0  0  0
    0.9110   16.6350   -1.9850 C   0  0  1  0  0  0  0  0  0  0  0  0
    0.6310   17.7760   -2.9980 C   0  0  0  0  0  0  0  0  0  0  0  0
   -0.5530   18.6460   -2.5870 C   0  0  0  0  0  0  0  0  0  0  0  0
   -0.3240   19.2640   -1.2110 C   0  0  2  0  0  0  0  0  0  0  0  0
    0.7610   20.1940   -1.2970 O   0  0  0  0  0  0  0  0  0  0  0  0
   -0.0230   18.2110   -0.1080 C   0  0  0  0  0  0  0  0  0  0  0  0
   -1.3040   17.3960    0.1970 C   0  0  0  0  0  0  0  0  0  0  0  0
    0.3280   18.9730    1.1980 C   0  0  0  0  0  0  0  0  0  0  0  0
    2.0690   15.6600   -2.4680 C   0  0  1  0  0  0  0  0  0  0  0  0
    3.2190   16.4840   -3.1230 C   0  0  0  0  0  0  0  0  0  0  0  0
    1.5070   14.7120   -3.5920 C   0  0  0  0  0  0  0  0  0  0  0  0
    0.8400   13.4030   -3.1270 C   0  0  0  0  0  0  0  0  0  0  0  0
    1.7290   12.6610   -2.1250 C   0  0  2  0  0  0  0  0  0  0  0  0
    3.0570   12.2710   -2.8600 C   0  0  0  0  0  0  0  0  0  0  0  0
   -0.9117   10.4163   -3.0346 H   0  0  0  0  0  0  0  0  0  0  0  0
    0.3516   11.1382   -4.0879 H   0  0  0  0  0  0  0  0  0  0  0  0
    0.0901    9.3610   -4.0879 H   0  0  0  0  0  0  0  0  0  0  0  0
    2.1001    9.9673   -2.8058 H   0  0  0  0  0  0  0  0  0  0  0  0
    0.2402    8.1666   -2.0437 H   0  0  0  0  0  0  0  0  0  0  0  0
    1.8015    8.4795   -1.1457 H   0  0  0  0  0  0  0  0  0  0  0  0
    0.5309    8.7065    0.6711 H   0  0  0  0  0  0  0  0  0  0  0  0
    0.0643   10.3073   -0.0404 H   0  0  0  0  0  0  0  0  0  0  0  0
   -1.2307    8.0561    0.5542 H   0  0  0  0  0  0  0  0  0  0  0  0
   -2.2028   11.7029    0.0600 H   0  0  0  0  0  0  0  0  0  0  0  0
   -1.3615   11.2761   -1.4686 H   0  0  0  0  0  0  0  0  0  0  0  0
   -3.1353   11.5593   -1.4686 H   0  0  0  0  0  0  0  0  0  0  0  0
   -3.9765    9.2982    0.8928 H   0  0  0  0  0  0  0  0  0  0  0  0
   -4.6263   10.0493   -0.6039 H   0  0  0  0  0  0  0  0  0  0  0  0
   -4.1436    8.3191   -0.6039 H   0  0  0  0  0  0  0  0  0  0  0  0
    0.0586   11.5084   -1.3176 H   0  0  0  0  0  0  0  0  0  0  0  0
    1.3399   10.9328    0.6480 H   0  0  0  0  0  0  0  0  0  0  0  0
    2.7392   10.4207   -0.3193 H   0  0  0  0  0  0  0  0  0  0  0  0
    2.5304   12.8751    1.1288 H   0  0  0  0  0  0  0  0  0  0  0  0
    3.7417   12.5606   -0.1112 H   0  0  0  0  0  0  0  0  0  0  0  0
    0.7732   13.8807    0.9795 H   0  0  0  0  0  0  0  0  0  0  0  0
    0.2825   14.9426   -0.3838 H   0  0  0  0  0  0  0  0  0  0  0  0
   -0.1837   13.2079   -0.3838 H   0  0  0  0  0  0  0  0  0  0  0  0
    3.6630   14.4378   -1.6395 H   0  0  0  0  0  0  0  0  0  0  0  0
    3.2348   15.1690    0.7933 H   0  0  0  0  0  0  0  0  0  0  0  0
    4.0080   16.3133   -0.4242 H   0  0  0  0  0  0  0  0  0  0  0  0
    2.2023   17.3653    1.1796 H   0  0  0  0  0  0  0  0  0  0  0  0
    0.0421   15.9627   -1.9306 H   0  0  0  0  0  0  0  0  0  0  0  0
    1.5265   18.4107   -3.0706 H   0  0  0  0  0  0  0  0  0  0  0  0
    0.3845   17.3115   -3.9642 H   0  0  0  0  0  0  0  0  0  0  0  0
   -0.6822   19.4505   -3.3260 H   0  0  0  0  0  0  0  0  0  0  0  0
   -1.4534   18.0156   -2.5433 H   0  0  0  0  0  0  0  0  0  0  0  0
   -1.2567   19.7678   -0.9173 H   0  0  0  0  0  0  0  0  0  0  0  0
    1.5020   19.7410   -1.7340 H   0  0  0  0  0  0  0  0  0  0  0  0
   -1.4350   17.3127    1.2860 H   0  0  0  0  0  0  0  0  0  0  0  0
   -2.1756   17.9060   -0.2392 H   0  0  0  0  0  0  0  0  0  0  0  0
   -1.2114   16.3904   -0.2392 H   0  0  0  0  0  0  0  0  0  0  0  0
    0.0458   18.3605    2.0670 H   0  0  0  0  0  0  0  0  0  0  0  0
    1.4092   19.1735    1.2262 H   0  0  0  0  0  0  0  0  0  0  0  0
   -0.2223   19.9250    1.2262 H   0  0  0  0  0  0  0  0  0  0  0  0
    3.8437   16.9316   -2.3359 H   0  0  0  0  0  0  0  0  0  0  0  0
    3.8355   15.8208   -3.7476 H   0  0  0  0  0  0  0  0  0  0  0  0
    2.7893   17.2810   -3.7476 H   0  0  0  0  0  0  0  0  0  0  0  0
    0.7599   15.2811   -4.1646 H   0  0  0  0  0  0  0  0  0  0  0  0
    2.3882   14.3967   -4.1700 H   0  0  0  0  0  0  0  0  0  0  0  0
   -0.1219   13.6394   -2.6485 H   0  0  0  0  0  0  0  0  0  0  0  0
    0.6852   12.7573   -4.0040 H   0  0  0  0  0  0  0  0  0  0  0  0
    3.8344   12.0427   -2.1160 H   0  0  0  0  0  0  0  0  0  0  0  0
    2.8813   11.3865   -3.4899 H   0  0  0  0  0  0  0  0  0  0  0  0
    3.3874   13.1100   -3.4899 H   0  0  0  0  0  0  0  0  0  0  0  0
  1  2  1  0
  2  3  1  0
  3  4  1  0
  4  5  1  0
  5  6  1  0
  6  7  1  0
  7  8  1  0
  7  9  1  0
  2 10  1  0
 10 11  1  0
 11 12  1  0
 12 13  1  0
 13 14  1  1
 13 15  1  0
 15 16  1  0
 16 17  1  0
 17 18  2  0
 18 19  1  0
 19 20  1  0
 20 21  1  0
 21 22  1  0
 22 23  1  0
 22 24  1  0
 24 25  1  0
 24 26  1  0
 19 27  1  0
 27 28  1  6
 27 29  1  0
 29 30  1  0
 30 31  1  0
 31 32  1  6
  7  5  1  0
 31 10  1  0
 31 13  1  0
 27 15  1  0
 24 18  1  0
  1 33  1  0
  1 34  1  0
  1 35  1  0
  2 36  1  6
  3 37  1  0
  3 38  1  0
  4 39  1  0
  4 40  1  0
  5 41  1  1
  8 42  1  0
  8 43  1  0
  8 44  1  0
  9 45  1  0
  9 46  1  0
  9 47  1  0
 10 48  1  1
 11 49  1  0
 11 50  1  0
 12 51  1  0
 12 52  1  0
 14 53  1  0
 14 54  1  0
 14 55  1  0
 15 56  1  6
 16 57  1  0
 16 58  1  0
 17 59  1  0
 19 60  1  1
 20 61  1  0
 20 62  1  0
 21 63  1  0
 21 64  1  0
 22 65  1  1
 23 66  1  0
 25 67  1  0
 25 68  1  0
 25 69  1  0
 26 70  1  0
 26 71  1  0
 26 72  1  0
 28 73  1  0
 28 74  1  0
 28 75  1  0
 29 76  1  0
 29 77  1  0
 30 78  1  0
 30 79  1  0
 32 80  1  0
 32 81  1  0
 32 82  1  0
M  END
>  <meeko>  (15) 
{"is_sidechain": [false], "intermolecular_energy": 2.731, "internal_energy": -0.839}

$$$$
EPH_relaxed_0001_pdb2pqr_Repair_338_r2_0001_out
     RDKit          3D

 82 86  0  0  0  0  0  0  0  0999 V2000
   -0.8910   10.8520   -1.6570 C   0  0  0  0  0  0  0  0  0  0  0  0
    0.3350   10.4120   -0.8530 C   0  0  2  0  0  0  0  0  0  0  0  0
   -0.0250   10.0370    0.5980 C   0  0  0  0  0  0  0  0  0  0  0  0
    0.7740   10.8100    1.6500 C   0  0  0  0  0  0  0  0  0  0  0  0
   -0.0560   11.8720    2.3070 C   0  0  2  0  0  0  0  0  0  0  0  0
    0.5550   13.1680    2.3520 O   0  0  0  0  0  0  0  0  0  0  0  0
    0.3180   12.5340    3.6200 C   0  0  0  0  0  0  0  0  0  0  0  0
    1.5660   12.1580    4.3550 C   0  0  0  0  0  0  0  0  0  0  0  0
   -0.7620   13.1850    4.4260 C   0  0  0  0  0  0  0  0  0  0  0  0
    1.3850   11.5170   -0.8600 C   0  0  1  0  0  0  0  0  0  0  0  0
    2.6950   11.0930   -1.5760 C   0  0  0  0  0  0  0  0  0  0  0  0
    3.2450   12.3550   -2.2870 C   0  0  0  0  0  0  0  0  0  0  0  0
    2.4280   13.5260   -1.6920 C   0  0  1  0  0  0  0  0  0  0  0  0
    3.1160   13.8410   -0.3270 C   0  0  0  0  0  0  0  0  0  0  0  0
    2.3020   14.8040   -2.5830 C   0  0  2  0  0  0  0  0  0  0  0  0
    3.6300   15.5120   -2.9010 C   0  0  0  0  0  0  0  0  0  0  0  0
    4.0360   16.5720   -1.9300 C   0  0  0  0  0  0  0  0  0  0  0  0
    3.2330   17.1380   -1.0100 C   0  0  0  0  0  0  0  0  0  0  0  0
    1.7410   16.7890   -0.9440 C   0  0  1  0  0  0  0  0  0  0  0  0
    0.9090   18.0920   -0.8170 C   0  0  0  0  0  0  0  0  0  0  0  0
    1.3580   18.9600    0.3550 C   0  0  0  0  0  0  0  0  0  0  0  0
    2.8320   19.3350    0.2230 C   0  0  2  0  0  0  0  0  0  0  0  0
    2.9900   20.1940   -0.9100 O   0  0  0  0  0  0  0  0  0  0  0  0
    3.7670   18.1020    0.0790 C   0  0  0  0  0  0  0  0  0  0  0  0
    3.8250   17.3330    1.4220 C   0  0  0  0  0  0  0  0  0  0  0  0
    5.2050   18.6210   -0.1870 C   0  0  0  0  0  0  0  0  0  0  0  0
    1.2020   15.8310   -2.0920 C   0  0  1  0  0  0  0  0  0  0  0  0
    0.7900   16.6720   -3.3380 C   0  0  0  0  0  0  0  0  0  0  0  0
   -0.1060   15.1120   -1.5900 C   0  0  0  0  0  0  0  0  0  0  0  0
    0.0800   13.7910   -0.8180 C   0  0  0  0  0  0  0  0  0  0  0  0
    1.0170   12.8430   -1.5720 C   0  0  2  0  0  0  0  0  0  0  0  0
    0.3410   12.4900   -2.9410 C   0  0  0  0  0  0  0  0  0  0  0  0
   -1.6974   11.1414   -0.9671 H   0  0  0  0  0  0  0  0  0  0  0  0
   -0.6249   11.7107   -2.2908 H   0  0  0  0  0  0  0  0  0  0  0  0
   -1.2317   10.0200   -2.2908 H   0  0  0  0  0  0  0  0  0  0  0  0
    0.7403    9.5104   -1.3355 H   0  0  0  0  0  0  0  0  0  0  0  0
   -1.0944   10.2419    0.7545 H   0  0  0  0  0  0  0  0  0  0  0  0
    0.2216    8.9726    0.7254 H   0  0  0  0  0  0  0  0  0  0  0  0
    1.1258   10.1061    2.4186 H   0  0  0  0  0  0  0  0  0  0  0  0
    1.6207   11.2992    1.1463 H   0  0  0  0  0  0  0  0  0  0  0  0
   -0.9838   11.3937    1.9600 H   0  0  0  0  0  0  0  0  0  0  0  0
    1.3841   12.2128    5.4385 H   0  0  0  0  0  0  0  0  0  0  0  0
    1.8566   11.1324    4.0834 H   0  0  0  0  0  0  0  0  0  0  0  0
    2.3748   12.8524    4.0834 H   0  0  0  0  0  0  0  0  0  0  0  0
   -0.5482   13.0562    5.4973 H   0  0  0  0  0  0  0  0  0  0  0  0
   -0.8021   14.2579    4.1865 H   0  0  0  0  0  0  0  0  0  0  0  0
   -1.7294   12.7195    4.1865 H   0  0  0  0  0  0  0  0  0  0  0  0
    1.4822   11.6851    0.2227 H   0  0  0  0  0  0  0  0  0  0  0  0
    3.4256   10.7235   -0.8414 H   0  0  0  0  0  0  0  0  0  0  0  0
    2.5066   10.2841   -2.2972 H   0  0  0  0  0  0  0  0  0  0  0  0
    4.3170   12.4831   -2.0764 H   0  0  0  0  0  0  0  0  0  0  0  0
    3.1484   12.2927   -3.3810 H   0  0  0  0  0  0  0  0  0  0  0  0
    2.4529   13.5374    0.4965 H   0  0  0  0  0  0  0  0  0  0  0  0
    4.0639   13.2872   -0.2577 H   0  0  0  0  0  0  0  0  0  0  0  0
    3.3161   14.9204   -0.2577 H   0  0  0  0  0  0  0  0  0  0  0  0
    1.9484   14.3903   -3.5390 H   0  0  0  0  0  0  0  0  0  0  0  0
    4.4238   14.7509   -2.9250 H   0  0  0  0  0  0  0  0  0  0  0  0
    3.4800   16.0224   -3.8638 H   0  0  0  0  0  0  0  0  0  0  0  0
    5.0790   16.9192   -1.9702 H   0  0  0  0  0  0  0  0  0  0  0  0
    1.6124   16.1746   -0.0407 H   0  0  0  0  0  0  0  0  0  0  0  0
    1.0161   18.6710   -1.7462 H   0  0  0  0  0  0  0  0  0  0  0  0
   -0.1375   17.8043   -0.6382 H   0  0  0  0  0  0  0  0  0  0  0  0
    0.7532   19.8786    0.3751 H   0  0  0  0  0  0  0  0  0  0  0  0
    1.2228   18.3900    1.2861 H   0  0  0  0  0  0  0  0  0  0  0  0
    3.1269   19.8453    1.1518 H   0  0  0  0  0  0  0  0  0  0  0  0
    3.3820   19.6670   -1.6260 H   0  0  0  0  0  0  0  0  0  0  0  0
    3.7711   18.0477    2.2564 H   0  0  0  0  0  0  0  0  0  0  0  0
    2.9770   16.6350    1.4818 H   0  0  0  0  0  0  0  0  0  0  0  0
    4.7682   16.7701    1.4818 H   0  0  0  0  0  0  0  0  0  0  0  0
    5.7120   18.8040    0.7719 H   0  0  0  0  0  0  0  0  0  0  0  0
    5.7661   17.8687   -0.7607 H   0  0  0  0  0  0  0  0  0  0  0  0
    5.1563   19.5583   -0.7607 H   0  0  0  0  0  0  0  0  0  0  0  0
    0.3284   17.6143   -3.0080 H   0  0  0  0  0  0  0  0  0  0  0  0
    1.6820   16.8927   -3.9427 H   0  0  0  0  0  0  0  0  0  0  0  0
    0.0689   16.1025   -3.9427 H   0  0  0  0  0  0  0  0  0  0  0  0
   -0.6376   15.8120   -0.9286 H   0  0  0  0  0  0  0  0  0  0  0  0
   -0.6522   14.8367   -2.5043 H   0  0  0  0  0  0  0  0  0  0  0  0
    0.5088   14.0095    0.1711 H   0  0  0  0  0  0  0  0  0  0  0  0
   -0.9011   13.3047   -0.7133 H   0  0  0  0  0  0  0  0  0  0  0  0
   -0.6203   11.9880   -2.7566 H   0  0  0  0  0  0  0  0  0  0  0  0
    0.1686   13.4132   -3.5137 H   0  0  0  0  0  0  0  0  0  0  0  0
    1.0001   11.8210   -3.5137 H   0  0  0  0  0  0  0  0  0  0  0  0
  1  2  1  0
  2  3  1  0
  3  4  1  0
  4  5  1  0
  5  6  1  0
  6  7  1  0
  7  8  1  0
  7  9  1  0
  2 10  1  0
 10 11  1  0
 11 12  1  0
 12 13  1  0
 13 14  1  1
 13 15  1  0
 15 16  1  0
 16 17  1  0
 17 18  2  0
 18 19  1  0
 19 20  1  0
 20 21  1  0
 21 22  1  0
 22 23  1  0
 22 24  1  0
 24 25  1  0
 24 26  1  0
 19 27  1  0
 27 28  1  6
 27 29  1  0
 29 30  1  0
 30 31  1  0
 31 32  1  6
  7  5  1  0
 31 10  1  0
 31 13  1  0
 27 15  1  0
 24 18  1  0
  1 33  1  0
  1 34  1  0
  1 35  1  0
  2 36  1  6
  3 37  1  0
  3 38  1  0
  4 39  1  0
  4 40  1  0
  5 41  1  1
  8 42  1  0
  8 43  1  0
  8 44  1  0
  9 45  1  0
  9 46  1  0
  9 47  1  0
 10 48  1  1
 11 49  1  0
 11 50  1  0
 12 51  1  0
 12 52  1  0
 14 53  1  0
 14 54  1  0
 14 55  1  0
 15 56  1  6
 16 57  1  0
 16 58  1  0
 17 59  1  0
 19 60  1  1
 20 61  1  0
 20 62  1  0
 21 63  1  0
 21 64  1  0
 22 65  1  1
 23 66  1  0
 25 67  1  0
 25 68  1  0
 25 69  1  0
 26 70  1  0
 26 71  1  0
 26 72  1  0
 28 73  1  0
 28 74  1  0
 28 75  1  0
 29 76  1  0
 29 77  1  0
 30 78  1  0
 30 79  1  0
 32 80  1  0
 32 81  1  0
 32 82  1  0
M  END
>  <meeko>  (16) 
{"is_sidechain": [false], "intermolecular_energy": 2.731, "internal_energy": -0.839}

$$$$
EPH_relaxed_0001_pdb2pqr_Repair_338_r2_0001_out
     RDKit          3D

 82 86  0  0  0  0  0  0  0  0999 V2000
    0.9340   10.4970   -4.9260 C   0  0  0  0  0  0  0  0  0  0  0  0
    0.5690   10.4670   -3.4390 C   0  0  2  0  0  0  0  0  0  0  0  0
   -0.5320    9.4320   -3.1320 C   0  0  0  0  0  0  0  0  0  0  0  0
   -0.0970    8.3450   -2.1460 C   0  0  0  0  0  0  0  0  0  0  0  0
    0.3830    8.9310   -0.8520 C   0  0  2  0  0  0  0  0  0  0  0  0
    0.0340    8.1730    0.3140 O   0  0  0  0  0  0  0  0  0  0  0  0
   -0.5460    9.4840    0.2120 C   0  0  0  0  0  0  0  0  0  0  0  0
   -2.0320    9.4790    0.0290 C   0  0  0  0  0  0  0  0  0  0  0  0
    0.0020   10.4640    1.2010 C   0  0  0  0  0  0  0  0  0  0  0  0
    0.1230   11.8520   -2.9860 C   0  0  1  0  0  0  0  0  0  0  0  0
   -1.0690   11.8010   -1.9930 C   0  0  0  0  0  0  0  0  0  0  0  0
   -0.8660   12.9660   -0.9900 C   0  0  0  0  0  0  0  0  0  0  0  0
    0.2380   13.8420   -1.6280 C   0  0  1  0  0  0  0  0  0  0  0  0
   -0.5050   14.7160   -2.6870 C   0  0  0  0  0  0  0  0  0  0  0  0
    1.0790   14.7190   -0.6440 C   0  0  2  0  0  0  0  0  0  0  0  0
    0.2790   15.7810    0.1300 C   0  0  0  0  0  0  0  0  0  0  0  0
    0.1830   17.1150   -0.5330 C   0  0  0  0  0  0  0  0  0  0  0  0
    0.9490   17.5360   -1.5570 C   0  0  0  0  0  0  0  0  0  0  0  0
    2.0980   16.6710   -2.0890 C   0  0  1  0  0  0  0  0  0  0  0  0
    3.3660   17.5470   -2.2680 C   0  0  0  0  0  0  0  0  0  0  0  0
    3.1110   18.7760   -3.1350 C   0  0  0  0  0  0  0  0  0  0  0  0
    2.0010   19.6410   -2.5430 C   0  0  2  0  0  0  0  0  0  0  0  0
    2.4600   20.1940   -1.3060 O   0  0  0  0  0  0  0  0  0  0  0  0
    0.6770   18.8630   -2.3090 C   0  0  0  0  0  0  0  0  0  0  0  0
    0.0240   18.5230   -3.6720 C   0  0  0  0  0  0  0  0  0  0  0  0
   -0.3120   19.8120   -1.5790 C   0  0  0  0  0  0  0  0  0  0  0  0
    2.3900   15.3330   -1.2820 C   0  0  1  0  0  0  0  0  0  0  0  0
    3.3650   15.6260   -0.1010 C   0  0  0  0  0  0  0  0  0  0  0  0
    3.1300   14.3140   -2.2270 C   0  0  0  0  0  0  0  0  0  0  0  0
    2.2430   13.3930   -3.0860 C   0  0  0  0  0  0  0  0  0  0  0  0
    1.1610   12.7230   -2.2340 C   0  0  2  0  0  0  0  0  0  0  0  0
    1.8780   11.8190   -1.1730 C   0  0  0  0  0  0  0  0  0  0  0  0
    2.0250   10.5867   -5.0340 H   0  0  0  0  0  0  0  0  0  0  0  0
    0.5932    9.5678   -5.4060 H   0  0  0  0  0  0  0  0  0  0  0  0
    0.4460   11.3581   -5.4060 H   0  0  0  0  0  0  0  0  0  0  0  0
    1.4691   10.1657   -2.8830 H   0  0  0  0  0  0  0  0  0  0  0  0
   -1.3971    9.9613   -2.7060 H   0  0  0  0  0  0  0  0  0  0  0  0
   -0.7731    8.9285   -4.0798 H   0  0  0  0  0  0  0  0  0  0  0  0
   -0.9530    7.6847   -1.9427 H   0  0  0  0  0  0  0  0  0  0  0  0
    0.7343    7.7842   -2.5981 H   0  0  0  0  0  0  0  0  0  0  0  0
    1.2724    9.3507   -1.3448 H   0  0  0  0  0  0  0  0  0  0  0  0
   -2.5227    9.4773    1.0135 H   0  0  0  0  0  0  0  0  0  0  0  0
   -2.3356   10.3761   -0.5305 H   0  0  0  0  0  0  0  0  0  0  0  0
   -2.3295    8.5798   -0.5305 H   0  0  0  0  0  0  0  0  0  0  0  0
   -0.1983   10.1058    2.2216 H   0  0  0  0  0  0  0  0  0  0  0  0
    1.0875   10.5650    1.0542 H   0  0  0  0  0  0  0  0  0  0  0  0
   -0.4803   11.4417    1.0542 H   0  0  0  0  0  0  0  0  0  0  0  0
   -0.1068   12.3005   -3.9638 H   0  0  0  0  0  0  0  0  0  0  0  0
   -2.0183   11.9280   -2.5340 H   0  0  0  0  0  0  0  0  0  0  0  0
   -1.1075   10.8332   -1.4716 H   0  0  0  0  0  0  0  0  0  0  0  0
   -1.7961   13.5406   -0.8688 H   0  0  0  0  0  0  0  0  0  0  0  0
   -0.5883   12.6095    0.0129 H   0  0  0  0  0  0  0  0  0  0  0  0
   -1.1351   15.4572   -2.1737 H   0  0  0  0  0  0  0  0  0  0  0  0
    0.2326   15.2350   -3.3167 H   0  0  0  0  0  0  0  0  0  0  0  0
   -1.1360   14.0716   -3.3167 H   0  0  0  0  0  0  0  0  0  0  0  0
    1.4043   13.9845    0.1075 H   0  0  0  0  0  0  0  0  0  0  0  0
   -0.7423   15.3989    0.2745 H   0  0  0  0  0  0  0  0  0  0  0  0
    0.8242   15.9471    1.0708 H   0  0  0  0  0  0  0  0  0  0  0  0
   -0.5777   17.8128   -0.1529 H   0  0  0  0  0  0  0  0  0  0  0  0
    1.7653   16.2916   -3.0664 H   0  0  0  0  0  0  0  0  0  0  0  0
    3.7075   17.8796   -1.2767 H   0  0  0  0  0  0  0  0  0  0  0  0
    4.1264   16.9339   -2.7737 H   0  0  0  0  0  0  0  0  0  0  0  0
    4.0349   19.3697   -3.1985 H   0  0  0  0  0  0  0  0  0  0  0  0
    2.7993   18.4412   -4.1354 H   0  0  0  0  0  0  0  0  0  0  0  0
    1.7737   20.4324   -3.2724 H   0  0  0  0  0  0  0  0  0  0  0  0
    3.1130   20.8830   -1.5150 H   0  0  0  0  0  0  0  0  0  0  0  0
   -0.9399   18.0211   -3.5017 H   0  0  0  0  0  0  0  0  0  0  0  0
   -0.1407   19.4499   -4.2411 H   0  0  0  0  0  0  0  0  0  0  0  0
    0.6889   17.8566   -4.2411 H   0  0  0  0  0  0  0  0  0  0  0  0
   -0.1937   19.6985   -0.4913 H   0  0  0  0  0  0  0  0  0  0  0  0
   -0.0996   20.8529   -1.8643 H   0  0  0  0  0  0  0  0  0  0  0  0
   -1.3432   19.5568   -1.8643 H   0  0  0  0  0  0  0  0  0  0  0  0
    2.8420   15.4688    0.8539 H   0  0  0  0  0  0  0  0  0  0  0  0
    4.2289   14.9478   -0.1619 H   0  0  0  0  0  0  0  0  0  0  0  0
    3.7119   16.6681   -0.1619 H   0  0  0  0  0  0  0  0  0  0  0  0
    3.7659   14.8956   -2.9106 H   0  0  0  0  0  0  0  0  0  0  0  0
    3.6759   13.6392   -1.5513 H   0  0  0  0  0  0  0  0  0  0  0  0
    1.7616   13.9902   -3.8744 H   0  0  0  0  0  0  0  0  0  0  0  0
    2.8760   12.6096   -3.5284 H   0  0  0  0  0  0  0  0  0  0  0  0
    1.6095   12.1575   -0.1614 H   0  0  0  0  0  0  0  0  0  0  0  0
    1.5602   10.7744   -1.3065 H   0  0  0  0  0  0  0  0  0  0  0  0
    2.9675   11.8907   -1.3065 H   0  0  0  0  0  0  0  0  0  0  0  0
  1  2  1  0
  2  3  1  0
  3  4  1  0
  4  5  1  0
  5  6  1  0
  6  7  1  0
  7  8  1  0
  7  9  1  0
  2 10  1  0
 10 11  1  0
 11 12  1  0
 12 13  1  0
 13 14  1  6
 13 15  1  0
 15 16  1  0
 16 17  1  0
 17 18  2  0
 18 19  1  0
 19 20  1  0
 20 21  1  0
 21 22  1  0
 22 23  1  0
 22 24  1  0
 24 25  1  0
 24 26  1  0
 19 27  1  0
 27 28  1  1
 27 29  1  0
 29 30  1  0
 30 31  1  0
 31 32  1  1
  7  5  1  0
 31 10  1  0
 31 13  1  0
 27 15  1  0
 24 18  1  0
  1 33  1  0
  1 34  1  0
  1 35  1  0
  2 36  1  1
  3 37  1  0
  3 38  1  0
  4 39  1  0
  4 40  1  0
  5 41  1  6
  8 42  1  0
  8 43  1  0
  8 44  1  0
  9 45  1  0
  9 46  1  0
  9 47  1  0
 10 48  1  6
 11 49  1  0
 11 50  1  0
 12 51  1  0
 12 52  1  0
 14 53  1  0
 14 54  1  0
 14 55  1  0
 15 56  1  1
 16 57  1  0
 16 58  1  0
 17 59  1  0
 19 60  1  6
 20 61  1  0
 20 62  1  0
 21 63  1  0
 21 64  1  0
 22 65  1  6
 23 66  1  0
 25 67  1  0
 25 68  1  0
 25 69  1  0
 26 70  1  0
 26 71  1  0
 26 72  1  0
 28 73  1  0
 28 74  1  0
 28 75  1  0
 29 76  1  0
 29 77  1  0
 30 78  1  0
 30 79  1  0
 32 80  1  0
 32 81  1  0
 32 82  1  0
M  END
>  <meeko>  (17) 
{"is_sidechain": [false], "intermolecular_energy": 2.731, "internal_energy": -0.839}

$$$$
EPH_relaxed_0001_pdb2pqr_Repair_338_r2_0001_out
     RDKit          3D

 82 86  0  0  0  0  0  0  0  0999 V2000
   -5.1610    5.8240   -1.7700 C   0  0  0  0  0  0  0  0  0  0  0  0
   -5.4640    7.3240   -1.7960 C   0  0  2  0  0  0  0  0  0  0  0  0
   -5.2430    7.9850   -0.4210 C   0  0  0  0  0  0  0  0  0  0  0  0
   -4.2090    9.1140   -0.4390 C   0  0  0  0  0  0  0  0  0  0  0  0
   -2.8380    8.6050   -0.7680 C   0  0  2  0  0  0  0  0  0  0  0  0
   -1.8300    8.9340    0.1970 O   0  0  0  0  0  0  0  0  0  0  0  0
   -1.6690    9.5100   -1.1100 C   0  0  0  0  0  0  0  0  0  0  0  0
   -1.8180   10.9990   -1.1420 C   0  0  0  0  0  0  0  0  0  0  0  0
   -0.5240    8.9370   -1.8840 C   0  0  0  0  0  0  0  0  0  0  0  0
   -6.8960    7.5570   -2.2630 C   0  0  1  0  0  0  0  0  0  0  0  0
   -7.2050    6.8610   -3.6150 C   0  0  0  0  0  0  0  0  0  0  0  0
   -8.6820    6.3950   -3.5510 C   0  0  0  0  0  0  0  0  0  0  0  0
   -9.2670    7.1220   -2.3170 C   0  0  1  0  0  0  0  0  0  0  0  0
   -9.6100    8.5590   -2.8230 C   0  0  0  0  0  0  0  0  0  0  0  0
  -10.4980    6.4420   -1.6330 C   0  0  2  0  0  0  0  0  0  0  0  0
  -11.7510    6.3210   -2.5180 C   0  0  0  0  0  0  0  0  0  0  0  0
  -12.7000    7.4720   -2.4400 C   0  0  0  0  0  0  0  0  0  0  0  0
  -12.7000    8.4230   -1.4870 C   0  0  0  0  0  0  0  0  0  0  0  0
  -11.7370    8.3430   -0.2950 C   0  0  1  0  0  0  0  0  0  0  0  0
  -12.5140    8.6290    1.0170 C   0  0  0  0  0  0  0  0  0  0  0  0
  -13.2760    9.9500    0.9700 C   0  0  0  0  0  0  0  0  0  0  0  0
  -14.2640    9.9670   -0.1940 C   0  0  2  0  0  0  0  0  0  0  0  0
  -15.2880    8.9990    0.0550 O   0  0  0  0  0  0  0  0  0  0  0  0
  -13.5980    9.6820   -1.5680 C   0  0  0  0  0  0  0  0  0  0  0  0
  -12.7120   10.8850   -1.9770 C   0  0  0  0  0  0  0  0  0  0  0  0
  -14.7230    9.5880   -2.6340 C   0  0  0  0  0  0  0  0  0  0  0  0
  -10.8520    7.0270   -0.2060 C   0  0  1  0  0  0  0  0  0  0  0  0
  -11.6330    5.9100    0.5510 C   0  0  0  0  0  0  0  0  0  0  0  0
   -9.5660    7.3290    0.6520 C   0  0  0  0  0  0  0  0  0  0  0  0
   -8.3440    7.8870   -0.1010 C   0  0  0  0  0  0  0  0  0  0  0  0
   -8.0350    7.0470   -1.3440 C   0  0  2  0  0  0  0  0  0  0  0  0
   -7.6650    5.6020   -0.8650 C   0  0  0  0  0  0  0  0  0  0  0  0
   -5.0919    5.4819   -0.7268 H   0  0  0  0  0  0  0  0  0  0  0  0
   -5.9670    5.2782   -2.2822 H   0  0  0  0  0  0  0  0  0  0  0  0
   -4.2063    5.6338   -2.2822 H   0  0  0  0  0  0  0  0  0  0  0  0
   -4.7624    7.7913   -2.5027 H   0  0  0  0  0  0  0  0  0  0  0  0
   -6.2023    8.3984   -0.0764 H   0  0  0  0  0  0  0  0  0  0  0  0
   -4.8556    7.2055    0.2515 H   0  0  0  0  0  0  0  0  0  0  0  0
   -4.5047    9.8562   -1.1952 H   0  0  0  0  0  0  0  0  0  0  0  0
   -4.1759    9.5647    0.5639 H   0  0  0  0  0  0  0  0  0  0  0  0
   -3.2606    7.7236   -1.2726 H   0  0  0  0  0  0  0  0  0  0  0  0
   -1.8567   11.3858   -0.1130 H   0  0  0  0  0  0  0  0  0  0  0  0
   -0.9597   11.4422   -1.6683 H   0  0  0  0  0  0  0  0  0  0  0  0
   -2.7471   11.2633   -1.6683 H   0  0  0  0  0  0  0  0  0  0  0  0
    0.2364    8.5565   -1.1862 H   0  0  0  0  0  0  0  0  0  0  0  0
   -0.8852    8.1134   -2.5175 H   0  0  0  0  0  0  0  0  0  0  0  0
   -0.0813    9.7198   -2.5175 H   0  0  0  0  0  0  0  0  0  0  0  0
   -6.9025    8.6565   -2.2962 H   0  0  0  0  0  0  0  0  0  0  0  0
   -7.0668    7.5688   -4.4457 H   0  0  0  0  0  0  0  0  0  0  0  0
   -6.5293    6.0097   -3.7844 H   0  0  0  0  0  0  0  0  0  0  0  0
   -9.2210    6.6858   -4.4648 H   0  0  0  0  0  0  0  0  0  0  0  0
   -8.7716    5.3015   -3.4724 H   0  0  0  0  0  0  0  0  0  0  0  0
   -9.7686    9.2233   -1.9607 H   0  0  0  0  0  0  0  0  0  0  0  0
   -8.7779    8.9415   -3.4324 H   0  0  0  0  0  0  0  0  0  0  0  0
  -10.5251    8.5245   -3.4324 H   0  0  0  0  0  0  0  0  0  0  0  0
  -10.1424    5.4130   -1.4761 H   0  0  0  0  0  0  0  0  0  0  0  0
  -11.4212    6.2224   -3.5627 H   0  0  0  0  0  0  0  0  0  0  0  0
  -12.3031    5.4452   -2.1462 H   0  0  0  0  0  0  0  0  0  0  0  0
  -13.4636    7.5491   -3.2280 H   0  0  0  0  0  0  0  0  0  0  0  0
  -10.9819    9.1256   -0.4601 H   0  0  0  0  0  0  0  0  0  0  0  0
  -13.2325    7.8134    1.1862 H   0  0  0  0  0  0  0  0  0  0  0  0
  -11.7787    8.6967    1.8323 H   0  0  0  0  0  0  0  0  0  0  0  0
  -13.8275   10.0816    1.9126 H   0  0  0  0  0  0  0  0  0  0  0  0
  -12.5538   10.7679    0.8305 H   0  0  0  0  0  0  0  0  0  0  0  0
  -14.6837   10.9820   -0.2543 H   0  0  0  0  0  0  0  0  0  0  0  0
  -15.4630    8.9950    1.0120 H   0  0  0  0  0  0  0  0  0  0  0  0
  -12.3399   11.3902   -1.0735 H   0  0  0  0  0  0  0  0  0  0  0  0
  -11.8603   10.5269   -2.5740 H   0  0  0  0  0  0  0  0  0  0  0  0
  -13.3066   11.5921   -2.5740 H   0  0  0  0  0  0  0  0  0  0  0  0
  -15.6982    9.5065   -2.1317 H   0  0  0  0  0  0  0  0  0  0  0  0
  -14.7087   10.4905   -3.2628 H   0  0  0  0  0  0  0  0  0  0  0  0
  -14.5591    8.7004   -3.2628 H   0  0  0  0  0  0  0  0  0  0  0  0
  -11.5281    6.0600    1.6357 H   0  0  0  0  0  0  0  0  0  0  0  0
  -12.6970    5.9556    0.2757 H   0  0  0  0  0  0  0  0  0  0  0  0
  -11.2249    4.9263    0.2757 H   0  0  0  0  0  0  0  0  0  0  0  0
   -9.8450    8.0622    1.4230 H   0  0  0  0  0  0  0  0  0  0  0  0
   -9.2431    6.3518    1.0404 H   0  0  0  0  0  0  0  0  0  0  0  0
   -8.5531    8.9221   -0.4091 H   0  0  0  0  0  0  0  0  0  0  0  0
   -7.4732    7.8533    0.5702 H   0  0  0  0  0  0  0  0  0  0  0  0
   -7.6571    5.5710    0.2345 H   0  0  0  0  0  0  0  0  0  0  0  0
   -8.4091    4.8874   -1.2466 H   0  0  0  0  0  0  0  0  0  0  0  0
   -6.6690    5.3330   -1.2466 H   0  0  0  0  0  0  0  0  0  0  0  0
  1  2  1  0
  2  3  1  0
  3  4  1  0
  4  5  1  0
  5  6  1  0
  6  7  1  0
  7  8  1  0
  7  9  1  0
  2 10  1  0
 10 11  1  0
 11 12  1  0
 12 13  1  0
 13 14  1  6
 13 15  1  0
 15 16  1  0
 16 17  1  0
 17 18  2  0
 18 19  1  0
 19 20  1  0
 20 21  1  0
 21 22  1  0
 22 23  1  0
 22 24  1  0
 24 25  1  0
 24 26  1  0
 19 27  1  0
 27 28  1  1
 27 29  1  0
 29 30  1  0
 30 31  1  0
 31 32  1  1
  7  5  1  0
 31 10  1  0
 31 13  1  0
 27 15  1  0
 24 18  1  0
  1 33  1  0
  1 34  1  0
  1 35  1  0
  2 36  1  6
  3 37  1  0
  3 38  1  0
  4 39  1  0
  4 40  1  0
  5 41  1  6
  8 42  1  0
  8 43  1  0
  8 44  1  0
  9 45  1  0
  9 46  1  0
  9 47  1  0
 10 48  1  6
 11 49  1  0
 11 50  1  0
 12 51  1  0
 12 52  1  0
 14 53  1  0
 14 54  1  0
 14 55  1  0
 15 56  1  1
 16 57  1  0
 16 58  1  0
 17 59  1  0
 19 60  1  6
 20 61  1  0
 20 62  1  0
 21 63  1  0
 21 64  1  0
 22 65  1  6
 23 66  1  0
 25 67  1  0
 25 68  1  0
 25 69  1  0
 26 70  1  0
 26 71  1  0
 26 72  1  0
 28 73  1  0
 28 74  1  0
 28 75  1  0
 29 76  1  0
 29 77  1  0
 30 78  1  0
 30 79  1  0
 32 80  1  0
 32 81  1  0
 32 82  1  0
M  END
>  <meeko>  (18) 
{"is_sidechain": [false], "intermolecular_energy": 2.731, "internal_energy": -0.839}

$$$$
