EPH_relaxed_0001_pdb2pqr_Repair_221_r2_0001_out
     RDKit          3D

 82 86  0  0  0  0  0  0  0  0999 V2000
   -1.7090    8.5880   -1.8800 C   0  0  0  0  0  0  0  0  0  0  0  0
   -2.0860    9.1070   -0.4900 C   0  0  2  0  0  0  0  0  0  0  0  0
   -3.5810    9.4760   -0.3940 C   0  0  0  0  0  0  0  0  0  0  0  0
   -4.5050    8.2640   -0.2480 C   0  0  0  0  0  0  0  0  0  0  0  0
   -5.2020    7.9410   -1.5350 C   0  0  2  0  0  0  0  0  0  0  0  0
   -6.3540    8.7490   -1.8120 O   0  0  0  0  0  0  0  0  0  0  0  0
   -6.5980    7.3480   -1.6040 C   0  0  0  0  0  0  0  0  0  0  0  0
   -7.3790    7.0440   -0.3640 C   0  0  0  0  0  0  0  0  0  0  0  0
   -7.0030    6.6170   -2.8460 C   0  0  0  0  0  0  0  0  0  0  0  0
   -1.2280   10.3160   -0.1360 C   0  0  1  0  0  0  0  0  0  0  0  0
   -0.1980   10.0090    0.9840 C   0  0  0  0  0  0  0  0  0  0  0  0
    1.0720   10.8380    0.6620 C   0  0  0  0  0  0  0  0  0  0  0  0
    0.6200   11.8360   -0.4300 C   0  0  1  0  0  0  0  0  0  0  0  0
   -0.0870   12.9890    0.3500 C   0  0  0  0  0  0  0  0  0  0  0  0
    1.7410   12.3810   -1.3740 C   0  0  2  0  0  0  0  0  0  0  0  0
    2.8430   13.1970   -0.6760 C   0  0  0  0  0  0  0  0  0  0  0  0
    2.5920   14.6660   -0.5900 C   0  0  0  0  0  0  0  0  0  0  0  0
    1.6690   15.3440   -1.2980 C   0  0  0  0  0  0  0  0  0  0  0  0
    0.8260   14.6420   -2.3690 C   0  0  1  0  0  0  0  0  0  0  0  0
    0.7990   15.5080   -3.6570 C   0  0  0  0  0  0  0  0  0  0  0  0
    0.3350   16.9360   -3.3920 C   0  0  0  0  0  0  0  0  0  0  0  0
    1.2330   17.6200   -2.3650 C   0  0  2  0  0  0  0  0  0  0  0  0
    2.5350   17.7910   -2.9320 O   0  0  0  0  0  0  0  0  0  0  0  0
    1.3440   16.8340   -1.0280 C   0  0  0  0  0  0  0  0  0  0  0  0
   -0.0030   16.9080   -0.2670 C   0  0  0  0  0  0  0  0  0  0  0  0
    2.3880   17.5570   -0.1350 C   0  0  0  0  0  0  0  0  0  0  0  0
    1.1980   13.1250   -2.6610 C   0  0  1  0  0  0  0  0  0  0  0  0
    2.3320   13.0520   -3.7290 C   0  0  0  0  0  0  0  0  0  0  0  0
   -0.0510   12.4010   -3.2890 C   0  0  0  0  0  0  0  0  0  0  0  0
   -1.0600   11.7790   -2.3060 C   0  0  0  0  0  0  0  0  0  0  0  0
   -0.3470   10.9160   -1.2600 C   0  0  2  0  0  0  0  0  0  0  0  0
    0.3560    9.7360   -2.0120 C   0  0  0  0  0  0  0  0  0  0  0  0
   -1.0653    7.7018   -1.7784 H   0  0  0  0  0  0  0  0  0  0  0  0
   -2.6221    8.3168   -2.4302 H   0  0  0  0  0  0  0  0  0  0  0  0
   -1.1687    9.3725   -2.4302 H   0  0  0  0  0  0  0  0  0  0  0  0
   -1.8989    8.2952    0.2283 H   0  0  0  0  0  0  0  0  0  0  0  0
   -3.7225   10.1281    0.4805 H   0  0  0  0  0  0  0  0  0  0  0  0
   -3.8506    9.9746   -1.3367 H   0  0  0  0  0  0  0  0  0  0  0  0
   -3.9065    7.3945    0.0614 H   0  0  0  0  0  0  0  0  0  0  0  0
   -5.2696    8.5041    0.5055 H   0  0  0  0  0  0  0  0  0  0  0  0
   -4.2512    7.6474   -2.0038 H   0  0  0  0  0  0  0  0  0  0  0  0
   -6.7696    7.2812    0.5205 H   0  0  0  0  0  0  0  0  0  0  0  0
   -8.2965    7.6507   -0.3506 H   0  0  0  0  0  0  0  0  0  0  0  0
   -7.6449    5.9767   -0.3506 H   0  0  0  0  0  0  0  0  0  0  0  0
   -7.5192    5.6853   -2.5712 H   0  0  0  0  0  0  0  0  0  0  0  0
   -7.6793    7.2495   -3.4397 H   0  0  0  0  0  0  0  0  0  0  0  0
   -6.1081    6.3790   -3.4397 H   0  0  0  0  0  0  0  0  0  0  0  0
   -2.0182   11.0286    0.1430 H   0  0  0  0  0  0  0  0  0  0  0  0
   -0.6041   10.3027    1.9632 H   0  0  0  0  0  0  0  0  0  0  0  0
    0.0317    8.9341    1.0260 H   0  0  0  0  0  0  0  0  0  0  0  0
    1.4232   11.3737    1.5563 H   0  0  0  0  0  0  0  0  0  0  0  0
    1.9091   10.2066    0.3294 H   0  0  0  0  0  0  0  0  0  0  0  0
    0.0178   12.8181    1.4316 H   0  0  0  0  0  0  0  0  0  0  0  0
    0.3772   13.9501    0.0840 H   0  0  0  0  0  0  0  0  0  0  0  0
   -1.1541   13.0111    0.0840 H   0  0  0  0  0  0  0  0  0  0  0  0
    2.2281   11.4574   -1.7200 H   0  0  0  0  0  0  0  0  0  0  0  0
    2.9547   12.8109    0.3479 H   0  0  0  0  0  0  0  0  0  0  0  0
    3.7460   13.0785   -1.2929 H   0  0  0  0  0  0  0  0  0  0  0  0
    3.2133   15.2431    0.1107 H   0  0  0  0  0  0  0  0  0  0  0  0
   -0.1887   14.5611   -1.9521 H   0  0  0  0  0  0  0  0  0  0  0  0
    1.8132   15.5399   -4.0817 H   0  0  0  0  0  0  0  0  0  0  0  0
    0.0826   15.0481   -4.3535 H   0  0  0  0  0  0  0  0  0  0  0  0
    0.3660   17.5050   -4.3329 H   0  0  0  0  0  0  0  0  0  0  0  0
   -0.6905   16.9039   -2.9953 H   0  0  0  0  0  0  0  0  0  0  0  0
    0.7756   18.5903   -2.1213 H   0  0  0  0  0  0  0  0  0  0  0  0
    2.8930   16.9070   -3.1200 H   0  0  0  0  0  0  0  0  0  0  0  0
    0.1869   16.8976    0.8164 H   0  0  0  0  0  0  0  0  0  0  0  0
   -0.5270   17.8363   -0.5385 H   0  0  0  0  0  0  0  0  0  0  0  0
   -0.6255   16.0427   -0.5385 H   0  0  0  0  0  0  0  0  0  0  0  0
    2.1441   17.3881    0.9243 H   0  0  0  0  0  0  0  0  0  0  0  0
    3.3911   17.1592   -0.3483 H   0  0  0  0  0  0  0  0  0  0  0  0
    2.3685   18.6360   -0.3483 H   0  0  0  0  0  0  0  0  0  0  0  0
    3.3074   12.9892   -3.2244 H   0  0  0  0  0  0  0  0  0  0  0  0
    2.1865   12.1614   -4.3580 H   0  0  0  0  0  0  0  0  0  0  0  0
    2.3019   13.9539   -4.3580 H   0  0  0  0  0  0  0  0  0  0  0  0
   -0.5922   13.1397   -3.8984 H   0  0  0  0  0  0  0  0  0  0  0  0
    0.3621   11.5518   -3.8531 H   0  0  0  0  0  0  0  0  0  0  0  0
   -1.6077   12.5845   -1.7949 H   0  0  0  0  0  0  0  0  0  0  0  0
   -1.7537   11.1408   -2.8730 H   0  0  0  0  0  0  0  0  0  0  0  0
    0.7755    9.0318   -1.2784 H   0  0  0  0  0  0  0  0  0  0  0  0
   -0.3784    9.2139   -2.6429 H   0  0  0  0  0  0  0  0  0  0  0  0
    1.1648   10.1333   -2.6429 H   0  0  0  0  0  0  0  0  0  0  0  0
  1  2  1  0
  2  3  1  0
  3  4  1  0
  4  5  1  0
  5  6  1  0
  6  7  1  0
  7  8  1  0
  7  9  1  0
  2 10  1  0
 10 11  1  0
 11 12  1  0
 12 13  1  0
 13 14  1  1
 13 15  1  0
 15 16  1  0
 16 17  1  0
 17 18  2  0
 18 19  1  0
 19 20  1  0
 20 21  1  0
 21 22  1  0
 22 23  1  0
 22 24  1  0
 24 25  1  0
 24 26  1  0
 19 27  1  0
 27 28  1  6
 27 29  1  0
 29 30  1  0
 30 31  1  0
 31 32  1  6
  7  5  1  0
 31 10  1  0
 31 13  1  0
 27 15  1  0
 24 18  1  0
  1 33  1  0
  1 34  1  0
  1 35  1  0
  2 36  1  1
  3 37  1  0
  3 38  1  0
  4 39  1  0
  4 40  1  0
  5 41  1  6
  8 42  1  0
  8 43  1  0
  8 44  1  0
  9 45  1  0
  9 46  1  0
  9 47  1  0
 10 48  1  1
 11 49  1  0
 11 50  1  0
 12 51  1  0
 12 52  1  0
 14 53  1  0
 14 54  1  0
 14 55  1  0
 15 56  1  6
 16 57  1  0
 16 58  1  0
 17 59  1  0
 19 60  1  1
 20 61  1  0
 20 62  1  0
 21 63  1  0
 21 64  1  0
 22 65  1  1
 23 66  1  0
 25 67  1  0
 25 68  1  0
 25 69  1  0
 26 70  1  0
 26 71  1  0
 26 72  1  0
 28 73  1  0
 28 74  1  0
 28 75  1  0
 29 76  1  0
 29 77  1  0
 30 78  1  0
 30 79  1  0
 32 80  1  0
 32 81  1  0
 32 82  1  0
M  END
>  <meeko>  (1) 
{"is_sidechain": [false], "intermolecular_energy": 2.731, "internal_energy": -0.839}

$$$$
EPH_relaxed_0001_pdb2pqr_Repair_221_r2_0001_out
     RDKit          3D

 82 86  0  0  0  0  0  0  0  0999 V2000
    2.2870   18.1070   -2.6180 C   0  0  0  0  0  0  0  0  0  0  0  0
    0.9700   17.7210   -1.9380 C   0  0  2  0  0  0  0  0  0  0  0  0
    1.0700   17.7880   -0.4010 C   0  0  0  0  0  0  0  0  0  0  0  0
    0.6920   19.1530    0.1810 C   0  0  0  0  0  0  0  0  0  0  0  0
   -0.7660   19.2270    0.5200 C   0  0  2  0  0  0  0  0  0  0  0  0
   -1.5940   18.2960   -0.1910 O   0  0  0  0  0  0  0  0  0  0  0  0
   -1.8300   19.6880   -0.4590 C   0  0  0  0  0  0  0  0  0  0  0  0
   -1.4790   20.1070   -1.8530 C   0  0  0  0  0  0  0  0  0  0  0  0
   -3.1300   20.1940    0.0830 C   0  0  0  0  0  0  0  0  0  0  0  0
    0.5520   16.3210   -2.3720 C   0  0  1  0  0  0  0  0  0  0  0  0
    0.6740   16.1100   -3.9050 C   0  0  0  0  0  0  0  0  0  0  0  0
    1.1020   14.6360   -4.1210 C   0  0  0  0  0  0  0  0  0  0  0  0
    0.8910   13.9630   -2.7440 C   0  0  1  0  0  0  0  0  0  0  0  0
   -0.6350   13.6430   -2.6840 C   0  0  0  0  0  0  0  0  0  0  0  0
    1.7590   12.6950   -2.4540 C   0  0  2  0  0  0  0  0  0  0  0  0
    1.5110   11.5050   -3.3980 C   0  0  0  0  0  0  0  0  0  0  0  0
    0.4600   10.5440   -2.9490 C   0  0  0  0  0  0  0  0  0  0  0  0
   -0.0550   10.4720   -1.7070 C   0  0  0  0  0  0  0  0  0  0  0  0
    0.4910   11.3520   -0.5760 C   0  0  1  0  0  0  0  0  0  0  0  0
    0.7140   10.4870    0.6920 C   0  0  0  0  0  0  0  0  0  0  0  0
   -0.5380    9.7180    1.1030 C   0  0  0  0  0  0  0  0  0  0  0  0
   -1.0160    8.8100   -0.0270 C   0  0  2  0  0  0  0  0  0  0  0  0
   -0.0430    7.7810   -0.2340 O   0  0  0  0  0  0  0  0  0  0  0  0
   -1.2650    9.5700   -1.3590 C   0  0  0  0  0  0  0  0  0  0  0  0
   -2.5170   10.4700   -1.2190 C   0  0  0  0  0  0  0  0  0  0  0  0
   -1.6050    8.5200   -2.4510 C   0  0  0  0  0  0  0  0  0  0  0  0
    1.7570   12.2410   -0.9380 C   0  0  1  0  0  0  0  0  0  0  0  0
    3.0650   11.4200   -0.7180 C   0  0  0  0  0  0  0  0  0  0  0  0
    1.8280   13.4630    0.0520 C   0  0  0  0  0  0  0  0  0  0  0  0
    1.0460   14.7290   -0.3490 C   0  0  0  0  0  0  0  0  0  0  0  0
    1.3540   15.1280   -1.7950 C   0  0  2  0  0  0  0  0  0  0  0  0
    2.8780   15.4780   -1.8810 C   0  0  0  0  0  0  0  0  0  0  0  0
    3.0441   18.3289   -1.8515 H   0  0  0  0  0  0  0  0  0  0  0  0
    2.6340   17.2728   -3.2454 H   0  0  0  0  0  0  0  0  0  0  0  0
    2.1287   18.9965   -3.2454 H   0  0  0  0  0  0  0  0  0  0  0  0
    0.2087   18.4502   -2.2519 H   0  0  0  0  0  0  0  0  0  0  0  0
    0.3956   17.0302    0.0244 H   0  0  0  0  0  0  0  0  0  0  0  0
    2.1229   17.6069   -0.1389 H   0  0  0  0  0  0  0  0  0  0  0  0
    1.2796   19.3260    1.0947 H   0  0  0  0  0  0  0  0  0  0  0  0
    0.9069   19.9203   -0.5773 H   0  0  0  0  0  0  0  0  0  0  0  0
   -0.5351   19.5253    1.5533 H   0  0  0  0  0  0  0  0  0  0  0  0
   -0.7730   20.9497   -1.8158 H   0  0  0  0  0  0  0  0  0  0  0  0
   -1.0146   19.2628   -2.3837 H   0  0  0  0  0  0  0  0  0  0  0  0
   -2.3915   20.4163   -2.3837 H   0  0  0  0  0  0  0  0  0  0  0  0
   -3.0985   20.1817    1.1825 H   0  0  0  0  0  0  0  0  0  0  0  0
   -3.2977   21.2231   -0.2676 H   0  0  0  0  0  0  0  0  0  0  0  0
   -3.9493   19.5491   -0.2676 H   0  0  0  0  0  0  0  0  0  0  0  0
   -0.4764   16.3063   -1.9818 H   0  0  0  0  0  0  0  0  0  0  0  0
   -0.2944   16.2984   -4.3915 H   0  0  0  0  0  0  0  0  0  0  0  0
    1.4086   16.8026   -4.3417 H   0  0  0  0  0  0  0  0  0  0  0  0
    0.4744   14.1576   -4.8873 H   0  0  0  0  0  0  0  0  0  0  0  0
    2.1408   14.5503   -4.4726 H   0  0  0  0  0  0  0  0  0  0  0  0
   -0.9546   13.5760   -1.6336 H   0  0  0  0  0  0  0  0  0  0  0  0
   -1.1974   14.4427   -3.1881 H   0  0  0  0  0  0  0  0  0  0  0  0
   -0.8288   12.6847   -3.1881 H   0  0  0  0  0  0  0  0  0  0  0  0
    2.7760   13.0483   -2.6796 H   0  0  0  0  0  0  0  0  0  0  0  0
    1.2100   11.9049   -4.3775 H   0  0  0  0  0  0  0  0  0  0  0  0
    2.4522   10.9364   -3.4252 H   0  0  0  0  0  0  0  0  0  0  0  0
    0.0738    9.8349   -3.6961 H   0  0  0  0  0  0  0  0  0  0  0  0
   -0.2827   12.1090   -0.3803 H   0  0  0  0  0  0  0  0  0  0  0  0
    1.5201    9.7663    0.4900 H   0  0  0  0  0  0  0  0  0  0  0  0
    0.9752   11.1655    1.5175 H   0  0  0  0  0  0  0  0  0  0  0  0
   -0.3093    9.1036    1.9863 H   0  0  0  0  0  0  0  0  0  0  0  0
   -1.3344   10.4410    1.3331 H   0  0  0  0  0  0  0  0  0  0  0  0
   -1.9841    8.3856    0.2772 H   0  0  0  0  0  0  0  0  0  0  0  0
    0.3620    7.5820    0.6260 H   0  0  0  0  0  0  0  0  0  0  0  0
   -2.7374   10.6284   -0.1530 H   0  0  0  0  0  0  0  0  0  0  0  0
   -2.3273   11.4398   -1.7023 H   0  0  0  0  0  0  0  0  0  0  0  0
   -3.3758    9.9812   -1.7023 H   0  0  0  0  0  0  0  0  0  0  0  0
   -1.9100    7.5781   -1.9717 H   0  0  0  0  0  0  0  0  0  0  0  0
   -2.4274    8.8957   -3.0775 H   0  0  0  0  0  0  0  0  0  0  0  0
   -0.7185    8.3423   -3.0775 H   0  0  0  0  0  0  0  0  0  0  0  0
    3.2486   11.3048    0.3604 H   0  0  0  0  0  0  0  0  0  0  0  0
    2.9569   10.4274   -1.1796 H   0  0  0  0  0  0  0  0  0  0  0  0
    3.9119   11.9488   -1.1796 H   0  0  0  0  0  0  0  0  0  0  0  0
    1.4398   13.1263    1.0246 H   0  0  0  0  0  0  0  0  0  0  0  0
    2.8850   13.7675    0.0577 H   0  0  0  0  0  0  0  0  0  0  0  0
   -0.0319   14.5321   -0.2518 H   0  0  0  0  0  0  0  0  0  0  0  0
    1.3481   15.5529    0.3143 H   0  0  0  0  0  0  0  0  0  0  0  0
    3.2903   15.5727   -0.8656 H   0  0  0  0  0  0  0  0  0  0  0  0
    3.4081   14.6782   -2.4189 H   0  0  0  0  0  0  0  0  0  0  0  0
    3.0060   16.4289   -2.4189 H   0  0  0  0  0  0  0  0  0  0  0  0
  1  2  1  0
  2  3  1  0
  3  4  1  0
  4  5  1  0
  5  6  1  0
  6  7  1  0
  7  8  1  0
  7  9  1  0
  2 10  1  0
 10 11  1  0
 11 12  1  0
 12 13  1  0
 13 14  1  1
 13 15  1  0
 15 16  1  0
 16 17  1  0
 17 18  2  0
 18 19  1  0
 19 20  1  0
 20 21  1  0
 21 22  1  0
 22 23  1  0
 22 24  1  0
 24 25  1  0
 24 26  1  0
 19 27  1  0
 27 28  1  6
 27 29  1  0
 29 30  1  0
 30 31  1  0
 31 32  1  1
  7  5  1  0
 31 10  1  0
 31 13  1  0
 27 15  1  0
 24 18  1  0
  1 33  1  0
  1 34  1  0
  1 35  1  0
  2 36  1  6
  3 37  1  0
  3 38  1  0
  4 39  1  0
  4 40  1  0
  5 41  1  1
  8 42  1  0
  8 43  1  0
  8 44  1  0
  9 45  1  0
  9 46  1  0
  9 47  1  0
 10 48  1  1
 11 49  1  0
 11 50  1  0
 12 51  1  0
 12 52  1  0
 14 53  1  0
 14 54  1  0
 14 55  1  0
 15 56  1  6
 16 57  1  0
 16 58  1  0
 17 59  1  0
 19 60  1  1
 20 61  1  0
 20 62  1  0
 21 63  1  0
 21 64  1  0
 22 65  1  1
 23 66  1  0
 25 67  1  0
 25 68  1  0
 25 69  1  0
 26 70  1  0
 26 71  1  0
 26 72  1  0
 28 73  1  0
 28 74  1  0
 28 75  1  0
 29 76  1  0
 29 77  1  0
 30 78  1  0
 30 79  1  0
 32 80  1  0
 32 81  1  0
 32 82  1  0
M  END
>  <meeko>  (2) 
{"is_sidechain": [false], "intermolecular_energy": 2.731, "internal_energy": -0.839}

$$$$
EPH_relaxed_0001_pdb2pqr_Repair_221_r2_0001_out
     RDKit          3D

 82 86  0  0  0  0  0  0  0  0999 V2000
    0.3970   18.4030   -0.0080 C   0  0  0  0  0  0  0  0  0  0  0  0
    1.4870   17.3530   -0.2380 C   0  0  2  0  0  0  0  0  0  0  0  0
    2.6920   17.9270   -1.0110 C   0  0  0  0  0  0  0  0  0  0  0  0
    3.9320   18.1500   -0.1410 C   0  0  0  0  0  0  0  0  0  0  0  0
    3.5670   18.6190    1.2350 C   0  0  2  0  0  0  0  0  0  0  0  0
    3.8130   20.0100    1.4790 O   0  0  0  0  0  0  0  0  0  0  0  0
    4.5860   19.0840    2.2580 C   0  0  0  0  0  0  0  0  0  0  0  0
    6.0500   19.1010    1.9490 C   0  0  0  0  0  0  0  0  0  0  0  0
    4.2100   19.0540    3.7070 C   0  0  0  0  0  0  0  0  0  0  0  0
    0.9090   16.1590   -0.9880 C   0  0  1  0  0  0  0  0  0  0  0  0
    0.7710   16.4200   -2.5120 C   0  0  0  0  0  0  0  0  0  0  0  0
    1.0560   15.0730   -3.2240 C   0  0  0  0  0  0  0  0  0  0  0  0
    1.0200   14.0180   -2.0930 C   0  0  1  0  0  0  0  0  0  0  0  0
   -0.4960   13.7230   -1.8680 C   0  0  0  0  0  0  0  0  0  0  0  0
    1.8330   12.7070   -2.3450 C   0  0  2  0  0  0  0  0  0  0  0  0
    1.3560   11.8630   -3.5400 C   0  0  0  0  0  0  0  0  0  0  0  0
    0.3260   10.8300   -3.2220 C   0  0  0  0  0  0  0  0  0  0  0  0
    0.0120   10.3940   -1.9880 C   0  0  0  0  0  0  0  0  0  0  0  0
    0.7900   10.8810   -0.7580 C   0  0  1  0  0  0  0  0  0  0  0  0
    1.1520    9.6680    0.1390 C   0  0  0  0  0  0  0  0  0  0  0  0
   -0.0690    8.8330    0.5140 C   0  0  0  0  0  0  0  0  0  0  0  0
   -0.7830    8.3200   -0.7340 C   0  0  2  0  0  0  0  0  0  0  0  0
    0.0700    7.3840   -1.4010 O   0  0  0  0  0  0  0  0  0  0  0  0
   -1.1870    9.4520   -1.7180 C   0  0  0  0  0  0  0  0  0  0  0  0
   -2.3360   10.2900   -1.1040 C   0  0  0  0  0  0  0  0  0  0  0  0
   -1.7690    8.7890   -2.9960 C   0  0  0  0  0  0  0  0  0  0  0  0
    2.0410   11.8150   -1.0550 C   0  0  1  0  0  0  0  0  0  0  0  0
    3.3070   10.9420   -1.3160 C   0  0  0  0  0  0  0  0  0  0  0  0
    2.3530   12.6780    0.2250 C   0  0  0  0  0  0  0  0  0  0  0  0
    1.6070   14.0190    0.3570 C   0  0  0  0  0  0  0  0  0  0  0  0
    1.7080   14.8320   -0.9370 C   0  0  2  0  0  0  0  0  0  0  0  0
    3.2200   15.1640   -1.1780 C   0  0  0  0  0  0  0  0  0  0  0  0
    0.2481   18.5464    1.0724 H   0  0  0  0  0  0  0  0  0  0  0  0
    0.7029   19.3554   -0.4656 H   0  0  0  0  0  0  0  0  0  0  0  0
   -0.5433   18.0617   -0.4656 H   0  0  0  0  0  0  0  0  0  0  0  0
    1.8501   17.0315    0.7493 H   0  0  0  0  0  0  0  0  0  0  0  0
    2.9544   17.2249   -1.8161 H   0  0  0  0  0  0  0  0  0  0  0  0
    2.3877   18.9118   -1.3953 H   0  0  0  0  0  0  0  0  0  0  0  0
    4.4854   17.2028   -0.0596 H   0  0  0  0  0  0  0  0  0  0  0  0
    4.5486   18.9274   -0.6158 H   0  0  0  0  0  0  0  0  0  0  0  0
    2.7451   17.8900    1.2905 H   0  0  0  0  0  0  0  0  0  0  0  0
    6.6229   19.1077    2.8880 H   0  0  0  0  0  0  0  0  0  0  0  0
    6.3121   18.2058    1.3659 H   0  0  0  0  0  0  0  0  0  0  0  0
    6.2912   20.0020    1.3659 H   0  0  0  0  0  0  0  0  0  0  0  0
    5.1184   19.1265    4.3231 H   0  0  0  0  0  0  0  0  0  0  0  0
    3.5463   19.9020    3.9312 H   0  0  0  0  0  0  0  0  0  0  0  0
    3.6891   18.1114    3.9312 H   0  0  0  0  0  0  0  0  0  0  0  0
   -0.0430   16.0463   -0.4486 H   0  0  0  0  0  0  0  0  0  0  0  0
   -0.2470   16.7645   -2.7467 H   0  0  0  0  0  0  0  0  0  0  0  0
    1.4731   17.1988   -2.8445 H   0  0  0  0  0  0  0  0  0  0  0  0
    0.2831   14.8610   -3.9775 H   0  0  0  0  0  0  0  0  0  0  0  0
    2.0176   15.0790   -3.7582 H   0  0  0  0  0  0  0  0  0  0  0  0
   -0.7054   13.6823   -0.7889 H   0  0  0  0  0  0  0  0  0  0  0  0
   -1.0971   14.5210   -2.3283 H   0  0  0  0  0  0  0  0  0  0  0  0
   -0.7540   12.7578   -2.3283 H   0  0  0  0  0  0  0  0  0  0  0  0
    2.8227   13.0945   -2.6283 H   0  0  0  0  0  0  0  0  0  0  0  0
    0.9315   12.5461   -4.2904 H   0  0  0  0  0  0  0  0  0  0  0  0
    2.2395   11.3119   -3.8946 H   0  0  0  0  0  0  0  0  0  0  0  0
   -0.2222   10.3882   -4.0671 H   0  0  0  0  0  0  0  0  0  0  0  0
    0.1117   11.5565   -0.2162 H   0  0  0  0  0  0  0  0  0  0  0  0
    1.8637    9.0282   -0.4034 H   0  0  0  0  0  0  0  0  0  0  0  0
    1.5879   10.0593    1.0701 H   0  0  0  0  0  0  0  0  0  0  0  0
    0.2544    7.9752    1.1220 H   0  0  0  0  0  0  0  0  0  0  0  0
   -0.7663    9.4661    1.0823 H   0  0  0  0  0  0  0  0  0  0  0  0
   -1.7179    7.8421   -0.4060 H   0  0  0  0  0  0  0  0  0  0  0  0
   -0.4380    6.9900   -2.1300 H   0  0  0  0  0  0  0  0  0  0  0  0
   -2.2758   10.2461   -0.0065 H   0  0  0  0  0  0  0  0  0  0  0  0
   -2.2448   11.3351   -1.4347 H   0  0  0  0  0  0  0  0  0  0  0  0
   -3.3033    9.8838   -1.4347 H   0  0  0  0  0  0  0  0  0  0  0  0
   -2.4695    7.9910   -2.7086 H   0  0  0  0  0  0  0  0  0  0  0  0
   -2.2999    9.5457   -3.5923 H   0  0  0  0  0  0  0  0  0  0  0  0
   -0.9499    8.3607   -3.5923 H   0  0  0  0  0  0  0  0  0  0  0  0
    3.7475   10.6383   -0.3549 H   0  0  0  0  0  0  0  0  0  0  0  0
    3.0233   10.0466   -1.8886 H   0  0  0  0  0  0  0  0  0  0  0  0
    4.0430   11.5254   -1.8886 H   0  0  0  0  0  0  0  0  0  0  0  0
    2.1018   12.0693    1.1061 H   0  0  0  0  0  0  0  0  0  0  0  0
    3.4160   12.9472    0.1386 H   0  0  0  0  0  0  0  0  0  0  0  0
    0.5473   13.8213    0.5760 H   0  0  0  0  0  0  0  0  0  0  0  0
    2.0670   14.5976    1.1716 H   0  0  0  0  0  0  0  0  0  0  0  0
    3.7297   15.2759   -0.2097 H   0  0  0  0  0  0  0  0  0  0  0  0
    3.6886   14.3473   -1.7468 H   0  0  0  0  0  0  0  0  0  0  0  0
    3.3033   16.1018   -1.7468 H   0  0  0  0  0  0  0  0  0  0  0  0
  1  2  1  0
  2  3  1  0
  3  4  1  0
  4  5  1  0
  5  6  1  0
  6  7  1  0
  7  8  1  0
  7  9  1  0
  2 10  1  0
 10 11  1  0
 11 12  1  0
 12 13  1  0
 13 14  1  1
 13 15  1  0
 15 16  1  0
 16 17  1  0
 17 18  2  0
 18 19  1  0
 19 20  1  0
 20 21  1  0
 21 22  1  0
 22 23  1  0
 22 24  1  0
 24 25  1  0
 24 26  1  0
 19 27  1  0
 27 28  1  6
 27 29  1  0
 29 30  1  0
 30 31  1  0
 31 32  1  6
  7  5  1  0
 31 10  1  0
 31 13  1  0
 27 15  1  0
 24 18  1  0
  1 33  1  0
  1 34  1  0
  1 35  1  0
  2 36  1  1
  3 37  1  0
  3 38  1  0
  4 39  1  0
  4 40  1  0
  5 41  1  1
  8 42  1  0
  8 43  1  0
  8 44  1  0
  9 45  1  0
  9 46  1  0
  9 47  1  0
 10 48  1  1
 11 49  1  0
 11 50  1  0
 12 51  1  0
 12 52  1  0
 14 53  1  0
 14 54  1  0
 14 55  1  0
 15 56  1  6
 16 57  1  0
 16 58  1  0
 17 59  1  0
 19 60  1  1
 20 61  1  0
 20 62  1  0
 21 63  1  0
 21 64  1  0
 22 65  1  1
 23 66  1  0
 25 67  1  0
 25 68  1  0
 25 69  1  0
 26 70  1  0
 26 71  1  0
 26 72  1  0
 28 73  1  0
 28 74  1  0
 28 75  1  0
 29 76  1  0
 29 77  1  0
 30 78  1  0
 30 79  1  0
 32 80  1  0
 32 81  1  0
 32 82  1  0
M  END
>  <meeko>  (3) 
{"is_sidechain": [false], "intermolecular_energy": 2.731, "internal_energy": -0.839}

$$$$
EPH_relaxed_0001_pdb2pqr_Repair_221_r2_0001_out
     RDKit          3D

 82 86  0  0  0  0  0  0  0  0999 V2000
   -5.1480    5.8690   -1.7510 C   0  0  0  0  0  0  0  0  0  0  0  0
   -5.4570    7.3680   -1.7950 C   0  0  2  0  0  0  0  0  0  0  0  0
   -5.2310    8.0480   -0.4300 C   0  0  0  0  0  0  0  0  0  0  0  0
   -4.1880    9.1680   -0.4660 C   0  0  0  0  0  0  0  0  0  0  0  0
   -2.8200    8.6410   -0.7770 C   0  0  2  0  0  0  0  0  0  0  0  0
   -1.8170    8.9690    0.1930 O   0  0  0  0  0  0  0  0  0  0  0  0
   -1.6380    9.5300   -1.1170 C   0  0  0  0  0  0  0  0  0  0  0  0
   -1.7710   11.0200   -1.1640 C   0  0  0  0  0  0  0  0  0  0  0  0
   -0.4920    8.9380   -1.8760 C   0  0  0  0  0  0  0  0  0  0  0  0
   -6.8930    7.5890   -2.2560 C   0  0  1  0  0  0  0  0  0  0  0  0
   -7.2020    6.8890   -3.6070 C   0  0  0  0  0  0  0  0  0  0  0  0
   -8.6750    6.4120   -3.5370 C   0  0  0  0  0  0  0  0  0  0  0  0
   -9.2610    7.1360   -2.3020 C   0  0  1  0  0  0  0  0  0  0  0  0
   -9.6170    8.5690   -2.8070 C   0  0  0  0  0  0  0  0  0  0  0  0
  -10.4840    6.4470   -1.6130 C   0  0  2  0  0  0  0  0  0  0  0  0
  -11.7400    6.3150   -2.4920 C   0  0  0  0  0  0  0  0  0  0  0  0
  -12.6960    7.4590   -2.4120 C   0  0  0  0  0  0  0  0  0  0  0  0
  -12.7000    8.4100   -1.4600 C   0  0  0  0  0  0  0  0  0  0  0  0
  -11.7330    8.3390   -0.2720 C   0  0  1  0  0  0  0  0  0  0  0  0
  -12.5070    8.6200    1.0430 C   0  0  0  0  0  0  0  0  0  0  0  0
  -13.2800    9.9340    0.9980 C   0  0  0  0  0  0  0  0  0  0  0  0
  -14.2720    9.9440   -0.1620 C   0  0  2  0  0  0  0  0  0  0  0  0
  -15.2870    8.9670    0.0920 O   0  0  0  0  0  0  0  0  0  0  0  0
  -13.6080    9.6620   -1.5390 C   0  0  0  0  0  0  0  0  0  0  0  0
  -12.7340   10.8720   -1.9520 C   0  0  0  0  0  0  0  0  0  0  0  0
  -14.7370    9.5590   -2.6010 C   0  0  0  0  0  0  0  0  0  0  0  0
  -10.8370    7.0290   -0.1850 C   0  0  1  0  0  0  0  0  0  0  0  0
  -11.6070    5.9070    0.5760 C   0  0  0  0  0  0  0  0  0  0  0  0
   -9.5510    7.3420    0.6680 C   0  0  0  0  0  0  0  0  0  0  0  0
   -8.3350    7.9100   -0.0900 C   0  0  0  0  0  0  0  0  0  0  0  0
   -8.0240    7.0710   -1.3330 C   0  0  2  0  0  0  0  0  0  0  0  0
   -7.6410    5.6290   -0.8540 C   0  0  0  0  0  0  0  0  0  0  0  0
   -5.0800    5.5392   -0.7038 H   0  0  0  0  0  0  0  0  0  0  0  0
   -5.9506    5.3141   -2.2588 H   0  0  0  0  0  0  0  0  0  0  0  0
   -4.1913    5.6768   -2.2588 H   0  0  0  0  0  0  0  0  0  0  0  0
   -4.7613    7.8285   -2.5119 H   0  0  0  0  0  0  0  0  0  0  0  0
   -6.1870    8.4743   -0.0918 H   0  0  0  0  0  0  0  0  0  0  0  0
   -4.8503    7.2759    0.2548 H   0  0  0  0  0  0  0  0  0  0  0  0
   -4.4737    9.8966   -1.2390 H   0  0  0  0  0  0  0  0  0  0  0  0
   -4.1564    9.6395    0.5273 H   0  0  0  0  0  0  0  0  0  0  0  0
   -3.2478    7.7591   -1.2762 H   0  0  0  0  0  0  0  0  0  0  0  0
   -1.8065   11.4175   -0.1389 H   0  0  0  0  0  0  0  0  0  0  0  0
   -0.9075   11.4487   -1.6938 H   0  0  0  0  0  0  0  0  0  0  0  0
   -2.6967   11.2890   -1.6938 H   0  0  0  0  0  0  0  0  0  0  0  0
    0.2561    8.5516   -1.1681 H   0  0  0  0  0  0  0  0  0  0  0  0
   -0.8571    8.1157   -2.5089 H   0  0  0  0  0  0  0  0  0  0  0  0
   -0.0327    9.7116   -2.5089 H   0  0  0  0  0  0  0  0  0  0  0  0
   -6.9083    8.6884   -2.2893 H   0  0  0  0  0  0  0  0  0  0  0  0
   -7.0723    7.5970   -4.4388 H   0  0  0  0  0  0  0  0  0  0  0  0
   -6.5205    6.0426   -3.7782 H   0  0  0  0  0  0  0  0  0  0  0  0
   -9.2195    6.6975   -4.4492 H   0  0  0  0  0  0  0  0  0  0  0  0
   -8.7559    5.3179   -3.4567 H   0  0  0  0  0  0  0  0  0  0  0  0
   -9.7816    9.2314   -1.9444 H   0  0  0  0  0  0  0  0  0  0  0  0
   -8.7885    8.9594   -3.4163 H   0  0  0  0  0  0  0  0  0  0  0  0
  -10.5318    8.5263   -3.4163 H   0  0  0  0  0  0  0  0  0  0  0  0
  -10.1188    5.4211   -1.4580 H   0  0  0  0  0  0  0  0  0  0  0  0
  -11.4143    6.2164   -3.5380 H   0  0  0  0  0  0  0  0  0  0  0  0
  -12.2842    5.4361   -2.1161 H   0  0  0  0  0  0  0  0  0  0  0  0
  -13.4622    7.5305   -3.1981 H   0  0  0  0  0  0  0  0  0  0  0  0
  -10.9851    9.1278   -0.4406 H   0  0  0  0  0  0  0  0  0  0  0  0
  -13.2179    7.7986    1.2160 H   0  0  0  0  0  0  0  0  0  0  0  0
  -11.7688    8.6948    1.8551 H   0  0  0  0  0  0  0  0  0  0  0  0
  -13.8293   10.0610    1.9425 H   0  0  0  0  0  0  0  0  0  0  0  0
  -12.5647   10.7574    0.8553 H   0  0  0  0  0  0  0  0  0  0  0  0
  -14.6997   10.9557   -0.2220 H   0  0  0  0  0  0  0  0  0  0  0  0
  -15.6650    9.1560    0.9670 H   0  0  0  0  0  0  0  0  0  0  0  0
  -12.3651   11.3827   -1.0502 H   0  0  0  0  0  0  0  0  0  0  0  0
  -11.8800   10.5205   -2.5495 H   0  0  0  0  0  0  0  0  0  0  0  0
  -13.3361   11.5723   -2.5495 H   0  0  0  0  0  0  0  0  0  0  0  0
  -15.7096    9.4703   -2.0948 H   0  0  0  0  0  0  0  0  0  0  0  0
  -14.7320   10.4613   -3.2301 H   0  0  0  0  0  0  0  0  0  0  0  0
  -14.5689    8.6725   -3.2301 H   0  0  0  0  0  0  0  0  0  0  0  0
  -11.5017    6.0605    1.6601 H   0  0  0  0  0  0  0  0  0  0  0  0
  -12.6718    5.9427    0.3024 H   0  0  0  0  0  0  0  0  0  0  0  0
  -11.1908    4.9262    0.3024 H   0  0  0  0  0  0  0  0  0  0  0  0
   -9.8334    8.0734    1.4395 H   0  0  0  0  0  0  0  0  0  0  0  0
   -9.2188    6.3677    1.0557 H   0  0  0  0  0  0  0  0  0  0  0  0
   -8.5535    8.9430   -0.3984 H   0  0  0  0  0  0  0  0  0  0  0  0
   -7.4616    7.8846    0.5782 H   0  0  0  0  0  0  0  0  0  0  0  0
   -7.6328    5.5980    0.2455 H   0  0  0  0  0  0  0  0  0  0  0  0
   -8.3787    4.9078   -1.2356 H   0  0  0  0  0  0  0  0  0  0  0  0
   -6.6426    5.3689   -1.2356 H   0  0  0  0  0  0  0  0  0  0  0  0
  1  2  1  0
  2  3  1  0
  3  4  1  0
  4  5  1  0
  5  6  1  0
  6  7  1  0
  7  8  1  0
  7  9  1  0
  2 10  1  0
 10 11  1  0
 11 12  1  0
 12 13  1  0
 13 14  1  6
 13 15  1  0
 15 16  1  0
 16 17  1  0
 17 18  2  0
 18 19  1  0
 19 20  1  0
 20 21  1  0
 21 22  1  0
 22 23  1  0
 22 24  1  0
 24 25  1  0
 24 26  1  0
 19 27  1  0
 27 28  1  1
 27 29  1  0
 29 30  1  0
 30 31  1  0
 31 32  1  1
  7  5  1  0
 31 10  1  0
 31 13  1  0
 27 15  1  0
 24 18  1  0
  1 33  1  0
  1 34  1  0
  1 35  1  0
  2 36  1  6
  3 37  1  0
  3 38  1  0
  4 39  1  0
  4 40  1  0
  5 41  1  6
  8 42  1  0
  8 43  1  0
  8 44  1  0
  9 45  1  0
  9 46  1  0
  9 47  1  0
 10 48  1  6
 11 49  1  0
 11 50  1  0
 12 51  1  0
 12 52  1  0
 14 53  1  0
 14 54  1  0
 14 55  1  0
 15 56  1  1
 16 57  1  0
 16 58  1  0
 17 59  1  0
 19 60  1  6
 20 61  1  0
 20 62  1  0
 21 63  1  0
 21 64  1  0
 22 65  1  6
 23 66  1  0
 25 67  1  0
 25 68  1  0
 25 69  1  0
 26 70  1  0
 26 71  1  0
 26 72  1  0
 28 73  1  0
 28 74  1  0
 28 75  1  0
 29 76  1  0
 29 77  1  0
 30 78  1  0
 30 79  1  0
 32 80  1  0
 32 81  1  0
 32 82  1  0
M  END
>  <meeko>  (4) 
{"is_sidechain": [false], "intermolecular_energy": 2.731, "internal_energy": -0.839}

$$$$
EPH_relaxed_0001_pdb2pqr_Repair_221_r2_0001_out
     RDKit          3D

 82 86  0  0  0  0  0  0  0  0999 V2000
    0.4280    8.8710   -2.4990 C   0  0  0  0  0  0  0  0  0  0  0  0
    1.1870   10.0310   -3.1490 C   0  0  2  0  0  0  0  0  0  0  0  0
    2.6800   10.0360   -2.7650 C   0  0  0  0  0  0  0  0  0  0  0  0
    3.5920   10.6260   -3.8440 C   0  0  0  0  0  0  0  0  0  0  0  0
    4.9870   10.8350   -3.3380 C   0  0  2  0  0  0  0  0  0  0  0  0
    5.6110   12.0460   -3.7840 O   0  0  0  0  0  0  0  0  0  0  0  0
    6.2120   10.8200   -4.2320 C   0  0  0  0  0  0  0  0  0  0  0  0
    6.0990   10.5910   -5.7070 C   0  0  0  0  0  0  0  0  0  0  0  0
    7.5470   10.5420   -3.6140 C   0  0  0  0  0  0  0  0  0  0  0  0
    0.5440   11.3570   -2.7580 C   0  0  1  0  0  0  0  0  0  0  0  0
   -0.8240   11.1710   -2.0480 C   0  0  0  0  0  0  0  0  0  0  0  0
   -0.9340   12.2960   -0.9880 C   0  0  0  0  0  0  0  0  0  0  0  0
    0.2050   13.2800   -1.3430 C   0  0  1  0  0  0  0  0  0  0  0  0
   -0.3640   14.1490   -2.5090 C   0  0  0  0  0  0  0  0  0  0  0  0
    0.7430   14.1660   -0.1730 C   0  0  2  0  0  0  0  0  0  0  0  0
   -0.2860   15.1290    0.4440 C   0  0  0  0  0  0  0  0  0  0  0  0
   -0.3460   16.4830   -0.1800 C   0  0  0  0  0  0  0  0  0  0  0  0
    0.5830   17.0080   -1.0010 C   0  0  0  0  0  0  0  0  0  0  0  0
    1.8860   16.2550   -1.2990 C   0  0  1  0  0  0  0  0  0  0  0  0
    3.0870   17.2280   -1.1710 C   0  0  0  0  0  0  0  0  0  0  0  0
    2.9240   18.4760   -2.0340 C   0  0  0  0  0  0  0  0  0  0  0  0
    1.6480   19.2290   -1.6670 C   0  0  2  0  0  0  0  0  0  0  0  0
    1.7850   19.7520   -0.3430 O   0  0  0  0  0  0  0  0  0  0  0  0
    0.3710   18.3470   -1.7500 C   0  0  0  0  0  0  0  0  0  0  0  0
    0.0530   18.0290   -3.2320 C   0  0  0  0  0  0  0  0  0  0  0  0
   -0.8240   19.1850   -1.2210 C   0  0  0  0  0  0  0  0  0  0  0  0
    2.1060   14.9040   -0.4920 C   0  0  1  0  0  0  0  0  0  0  0  0
    2.7800   15.2080    0.8810 C   0  0  0  0  0  0  0  0  0  0  0  0
    3.1110   13.9880   -1.2870 C   0  0  0  0  0  0  0  0  0  0  0  0
    2.5050   13.0490   -2.3470 C   0  0  0  0  0  0  0  0  0  0  0  0
    1.3240   12.2620   -1.7710 C   0  0  2  0  0  0  0  0  0  0  0  0
    1.8690   11.3610   -0.6110 C   0  0  0  0  0  0  0  0  0  0  0  0
    0.4873    8.9616   -1.4043 H   0  0  0  0  0  0  0  0  0  0  0  0
   -0.6259    8.9007   -2.8128 H   0  0  0  0  0  0  0  0  0  0  0  0
    0.8773    7.9172   -2.8128 H   0  0  0  0  0  0  0  0  0  0  0  0
    1.1272    9.8959   -4.2390 H   0  0  0  0  0  0  0  0  0  0  0  0
    2.8002   10.6293   -1.8465 H   0  0  0  0  0  0  0  0  0  0  0  0
    2.9802    8.9865   -2.6296 H   0  0  0  0  0  0  0  0  0  0  0  0
    3.6231    9.9364   -4.7004 H   0  0  0  0  0  0  0  0  0  0  0  0
    3.1846   11.6041   -4.1397 H   0  0  0  0  0  0  0  0  0  0  0  0
    4.7509   10.3089   -2.4013 H   0  0  0  0  0  0  0  0  0  0  0  0
    5.6191    9.6185   -5.8914 H   0  0  0  0  0  0  0  0  0  0  0  0
    5.4920   11.3905   -6.1568 H   0  0  0  0  0  0  0  0  0  0  0  0
    7.1028   10.5957   -6.1568 H   0  0  0  0  0  0  0  0  0  0  0  0
    7.4548   10.5612   -2.5180 H   0  0  0  0  0  0  0  0  0  0  0  0
    7.9004    9.5510   -3.9350 H   0  0  0  0  0  0  0  0  0  0  0  0
    8.2666   11.3096   -3.9350 H   0  0  0  0  0  0  0  0  0  0  0  0
    0.4922   11.8357   -3.7470 H   0  0  0  0  0  0  0  0  0  0  0  0
   -1.6436   11.2557   -2.7767 H   0  0  0  0  0  0  0  0  0  0  0  0
   -0.8940   10.1784   -1.5792 H   0  0  0  0  0  0  0  0  0  0  0  0
   -1.9122   12.7951   -1.0517 H   0  0  0  0  0  0  0  0  0  0  0  0
   -0.8476   11.9112    0.0389 H   0  0  0  0  0  0  0  0  0  0  0  0
   -0.9218   15.0009   -2.0929 H   0  0  0  0  0  0  0  0  0  0  0  0
    0.4659   14.5211   -3.1277 H   0  0  0  0  0  0  0  0  0  0  0  0
   -1.0369   13.5371   -3.1277 H   0  0  0  0  0  0  0  0  0  0  0  0
    0.9583   13.4201    0.6063 H   0  0  0  0  0  0  0  0  0  0  0  0
   -1.2806   14.6681    0.3522 H   0  0  0  0  0  0  0  0  0  0  0  0
    0.0317   15.2876    1.4851 H   0  0  0  0  0  0  0  0  0  0  0  0
   -1.2236   17.1050    0.0502 H   0  0  0  0  0  0  0  0  0  0  0  0
    1.8020   15.9006   -2.3369 H   0  0  0  0  0  0  0  0  0  0  0  0
    3.1804   17.5364   -0.1192 H   0  0  0  0  0  0  0  0  0  0  0  0
    3.9854   16.6969   -1.5186 H   0  0  0  0  0  0  0  0  0  0  0  0
    3.7895   19.1369   -1.8787 H   0  0  0  0  0  0  0  0  0  0  0  0
    2.8598   18.1685   -3.0882 H   0  0  0  0  0  0  0  0  0  0  0  0
    1.5199   20.0374   -2.4019 H   0  0  0  0  0  0  0  0  0  0  0  0
    0.9320   20.1430   -0.0900 H   0  0  0  0  0  0  0  0  0  0  0  0
   -0.7240   17.2520   -3.2817 H   0  0  0  0  0  0  0  0  0  0  0  0
   -0.3065   18.9397   -3.7334 H   0  0  0  0  0  0  0  0  0  0  0  0
    0.9637   17.6695   -3.7334 H   0  0  0  0  0  0  0  0  0  0  0  0
   -0.8169   19.1800   -0.1210 H   0  0  0  0  0  0  0  0  0  0  0  0
   -0.7352   20.2197   -1.5836 H   0  0  0  0  0  0  0  0  0  0  0  0
   -1.7666   18.7490   -1.5836 H   0  0  0  0  0  0  0  0  0  0  0  0
    2.1061   14.9041    1.6956 H   0  0  0  0  0  0  0  0  0  0  0  0
    3.7239   14.6485    0.9580 H   0  0  0  0  0  0  0  0  0  0  0  0
    2.9854   16.2859    0.9580 H   0  0  0  0  0  0  0  0  0  0  0  0
    3.8291   14.6466   -1.7974 H   0  0  0  0  0  0  0  0  0  0  0  0
    3.5529   13.3219   -0.5313 H   0  0  0  0  0  0  0  0  0  0  0  0
    2.1560   13.6480   -3.2011 H   0  0  0  0  0  0  0  0  0  0  0  0
    3.2788   12.3359   -2.6675 H   0  0  0  0  0  0  0  0  0  0  0  0
    1.5991   11.8072    0.3576 H   0  0  0  0  0  0  0  0  0  0  0  0
    1.4268   10.3568   -0.6880 H   0  0  0  0  0  0  0  0  0  0  0  0
    2.9638   11.2865   -0.6880 H   0  0  0  0  0  0  0  0  0  0  0  0
  1  2  1  0
  2  3  1  0
  3  4  1  0
  4  5  1  0
  5  6  1  0
  6  7  1  0
  7  8  1  0
  7  9  1  0
  2 10  1  0
 10 11  1  0
 11 12  1  0
 12 13  1  0
 13 14  1  6
 13 15  1  0
 15 16  1  0
 16 17  1  0
 17 18  2  0
 18 19  1  0
 19 20  1  0
 20 21  1  0
 21 22  1  0
 22 23  1  0
 22 24  1  0
 24 25  1  0
 24 26  1  0
 19 27  1  0
 27 28  1  1
 27 29  1  0
 29 30  1  0
 30 31  1  0
 31 32  1  1
  7  5  1  0
 31 10  1  0
 31 13  1  0
 27 15  1  0
 24 18  1  0
  1 33  1  0
  1 34  1  0
  1 35  1  0
  2 36  1  6
  3 37  1  0
  3 38  1  0
  4 39  1  0
  4 40  1  0
  5 41  1  1
  8 42  1  0
  8 43  1  0
  8 44  1  0
  9 45  1  0
  9 46  1  0
  9 47  1  0
 10 48  1  6
 11 49  1  0
 11 50  1  0
 12 51  1  0
 12 52  1  0
 14 53  1  0
 14 54  1  0
 14 55  1  0
 15 56  1  1
 16 57  1  0
 16 58  1  0
 17 59  1  0
 19 60  1  6
 20 61  1  0
 20 62  1  0
 21 63  1  0
 21 64  1  0
 22 65  1  6
 23 66  1  0
 25 67  1  0
 25 68  1  0
 25 69  1  0
 26 70  1  0
 26 71  1  0
 26 72  1  0
 28 73  1  0
 28 74  1  0
 28 75  1  0
 29 76  1  0
 29 77  1  0
 30 78  1  0
 30 79  1  0
 32 80  1  0
 32 81  1  0
 32 82  1  0
M  END
>  <meeko>  (5) 
{"is_sidechain": [false], "intermolecular_energy": 2.731, "internal_energy": -0.839}

$$$$
EPH_relaxed_0001_pdb2pqr_Repair_221_r2_0001_out
     RDKit          3D

 82 86  0  0  0  0  0  0  0  0999 V2000
    2.8310   18.8180   -1.3250 C   0  0  0  0  0  0  0  0  0  0  0  0
    2.4220   17.7480   -2.3410 C   0  0  2  0  0  0  0  0  0  0  0  0
    0.9610   17.9140   -2.8040 C   0  0  0  0  0  0  0  0  0  0  0  0
    0.3170   19.2270   -2.3520 C   0  0  0  0  0  0  0  0  0  0  0  0
   -0.9630   18.9900   -1.6090 C   0  0  2  0  0  0  0  0  0  0  0  0
   -1.6790   20.1810   -1.2560 O   0  0  0  0  0  0  0  0  0  0  0  0
   -1.1780   19.3950   -0.1620 C   0  0  0  0  0  0  0  0  0  0  0  0
   -0.1000   20.0700    0.6270 C   0  0  0  0  0  0  0  0  0  0  0  0
   -2.2480   18.7030    0.6230 C   0  0  0  0  0  0  0  0  0  0  0  0
    2.6260   16.3600   -1.7440 C   0  0  1  0  0  0  0  0  0  0  0  0
    3.4140   16.3950   -0.4080 C   0  0  0  0  0  0  0  0  0  0  0  0
    2.8330   15.2680    0.4840 C   0  0  0  0  0  0  0  0  0  0  0  0
    1.9700   14.4170   -0.4770 C   0  0  1  0  0  0  0  0  0  0  0  0
    2.9850   13.4850   -1.2100 C   0  0  0  0  0  0  0  0  0  0  0  0
    0.8070   13.6010    0.1770 C   0  0  2  0  0  0  0  0  0  0  0  0
    1.2500   12.5310    1.1910 C   0  0  0  0  0  0  0  0  0  0  0  0
    1.5020   11.1760    0.6180 C   0  0  0  0  0  0  0  0  0  0  0  0
    1.1090   10.7550   -0.5980 C   0  0  0  0  0  0  0  0  0  0  0  0
    0.2460   11.6480   -1.5000 C   0  0  1  0  0  0  0  0  0  0  0  0
   -0.9260   10.8170   -2.0840 C   0  0  0  0  0  0  0  0  0  0  0  0
   -0.4490    9.5550   -2.7970 C   0  0  0  0  0  0  0  0  0  0  0  0
    0.3550    8.6650   -1.8520 C   0  0  2  0  0  0  0  0  0  0  0  0
   -0.5180    8.1660   -0.8350 O   0  0  0  0  0  0  0  0  0  0  0  0
    1.5580    9.3990   -1.1950 C   0  0  0  0  0  0  0  0  0  0  0  0
    2.6460    9.6740   -2.2630 C   0  0  0  0  0  0  0  0  0  0  0  0
    2.1980    8.4340   -0.1610 C   0  0  0  0  0  0  0  0  0  0  0  0
   -0.2390   13.0190   -0.8580 C   0  0  1  0  0  0  0  0  0  0  0  0
   -1.5670   12.7980   -0.0710 C   0  0  0  0  0  0  0  0  0  0  0  0
   -0.5700   14.0380   -2.0110 C   0  0  0  0  0  0  0  0  0  0  0  0
    0.5960   14.9000   -2.5330 C   0  0  0  0  0  0  0  0  0  0  0  0
    1.3570   15.5520   -1.3750 C   0  0  2  0  0  0  0  0  0  0  0  0
    0.3660   16.5120   -0.6320 C   0  0  0  0  0  0  0  0  0  0  0  0
    2.6832   18.4314   -0.3058 H   0  0  0  0  0  0  0  0  0  0  0  0
    3.8907   19.0750   -1.4696 H   0  0  0  0  0  0  0  0  0  0  0  0
    2.2129   19.7163   -1.4696 H   0  0  0  0  0  0  0  0  0  0  0  0
    3.0634   17.8698   -3.2263 H   0  0  0  0  0  0  0  0  0  0  0  0
    0.9388   17.8768   -3.9031 H   0  0  0  0  0  0  0  0  0  0  0  0
    0.3838   17.0982   -2.3443 H   0  0  0  0  0  0  0  0  0  0  0  0
    1.0183   19.7596   -1.6929 H   0  0  0  0  0  0  0  0  0  0  0  0
    0.0880   19.8227   -3.2479 H   0  0  0  0  0  0  0  0  0  0  0  0
   -1.1240   18.0408   -2.1410 H   0  0  0  0  0  0  0  0  0  0  0  0
   -0.2993   19.9452    1.7016 H   0  0  0  0  0  0  0  0  0  0  0  0
    0.8724   19.6192    0.3796 H   0  0  0  0  0  0  0  0  0  0  0  0
   -0.0809   21.1417    0.3796 H   0  0  0  0  0  0  0  0  0  0  0  0
   -2.0534   18.8289    1.6983 H   0  0  0  0  0  0  0  0  0  0  0  0
   -3.2263   19.1399    0.3738 H   0  0  0  0  0  0  0  0  0  0  0  0
   -2.2508   17.6316    0.3738 H   0  0  0  0  0  0  0  0  0  0  0  0
    3.1515   15.8745   -2.5795 H   0  0  0  0  0  0  0  0  0  0  0  0
    4.4834   16.2172   -0.5943 H   0  0  0  0  0  0  0  0  0  0  0  0
    3.3177   17.3753    0.0816 H   0  0  0  0  0  0  0  0  0  0  0  0
    3.6410   14.6622    0.9201 H   0  0  0  0  0  0  0  0  0  0  0  0
    2.2505   15.6630    1.3294 H   0  0  0  0  0  0  0  0  0  0  0  0
    3.5822   12.9366   -0.4666 H   0  0  0  0  0  0  0  0  0  0  0  0
    2.4366   12.7692   -1.8400 H   0  0  0  0  0  0  0  0  0  0  0  0
    3.6515   14.0923   -1.8400 H   0  0  0  0  0  0  0  0  0  0  0  0
    0.2815   14.3689    0.7637 H   0  0  0  0  0  0  0  0  0  0  0  0
    2.1795   12.8773    1.6665 H   0  0  0  0  0  0  0  0  0  0  0  0
    0.4129   12.4132    1.8948 H   0  0  0  0  0  0  0  0  0  0  0  0
    2.0563   10.4605    1.2432 H   0  0  0  0  0  0  0  0  0  0  0  0
    0.9053   11.9855   -2.3133 H   0  0  0  0  0  0  0  0  0  0  0  0
   -1.5961   10.5257   -1.2617 H   0  0  0  0  0  0  0  0  0  0  0  0
   -1.4438   11.4440   -2.8248 H   0  0  0  0  0  0  0  0  0  0  0  0
   -1.3230    8.9956   -3.1619 H   0  0  0  0  0  0  0  0  0  0  0  0
    0.1974    9.8494   -3.6369 H   0  0  0  0  0  0  0  0  0  0  0  0
    0.7773    7.8443   -2.4504 H   0  0  0  0  0  0  0  0  0  0  0  0
   -1.0460    8.9130   -0.5070 H   0  0  0  0  0  0  0  0  0  0  0  0
    3.5967    9.9143   -1.7645 H   0  0  0  0  0  0  0  0  0  0  0  0
    2.7770    8.7807   -2.8914 H   0  0  0  0  0  0  0  0  0  0  0  0
    2.3368   10.5222   -2.8914 H   0  0  0  0  0  0  0  0  0  0  0  0
    1.9674    8.7817    0.8568 H   0  0  0  0  0  0  0  0  0  0  0  0
    1.7916    7.4218   -0.3036 H   0  0  0  0  0  0  0  0  0  0  0  0
    3.2886    8.4146   -0.3036 H   0  0  0  0  0  0  0  0  0  0  0  0
   -1.3630   12.8320    1.0094 H   0  0  0  0  0  0  0  0  0  0  0  0
   -2.2848   13.5890   -0.3336 H   0  0  0  0  0  0  0  0  0  0  0  0
   -1.9900   11.8171   -0.3336 H   0  0  0  0  0  0  0  0  0  0  0  0
   -0.9644   13.4619   -2.8610 H   0  0  0  0  0  0  0  0  0  0  0  0
   -1.2801   14.7522   -1.5686 H   0  0  0  0  0  0  0  0  0  0  0  0
    1.2871   14.2627   -3.1041 H   0  0  0  0  0  0  0  0  0  0  0  0
    0.1855   15.6940   -3.1741 H   0  0  0  0  0  0  0  0  0  0  0  0
    0.4873   16.3945    0.4550 H   0  0  0  0  0  0  0  0  0  0  0  0
    0.5824   17.5528   -0.9147 H   0  0  0  0  0  0  0  0  0  0  0  0
   -0.6674   16.2626   -0.9147 H   0  0  0  0  0  0  0  0  0  0  0  0
  1  2  1  0
  2  3  1  0
  3  4  1  0
  4  5  1  0
  5  6  1  0
  6  7  1  0
  7  8  1  0
  7  9  1  0
  2 10  1  0
 10 11  1  0
 11 12  1  0
 12 13  1  0
 13 14  1  6
 13 15  1  0
 15 16  1  0
 16 17  1  0
 17 18  2  0
 18 19  1  0
 19 20  1  0
 20 21  1  0
 21 22  1  0
 22 23  1  0
 22 24  1  0
 24 25  1  0
 24 26  1  0
 19 27  1  0
 27 28  1  1
 27 29  1  0
 29 30  1  0
 30 31  1  0
 31 32  1  1
  7  5  1  0
 31 10  1  0
 31 13  1  0
 27 15  1  0
 24 18  1  0
  1 33  1  0
  1 34  1  0
  1 35  1  0
  2 36  1  6
  3 37  1  0
  3 38  1  0
  4 39  1  0
  4 40  1  0
  5 41  1  1
  8 42  1  0
  8 43  1  0
  8 44  1  0
  9 45  1  0
  9 46  1  0
  9 47  1  0
 10 48  1  6
 11 49  1  0
 11 50  1  0
 12 51  1  0
 12 52  1  0
 14 53  1  0
 14 54  1  0
 14 55  1  0
 15 56  1  1
 16 57  1  0
 16 58  1  0
 17 59  1  0
 19 60  1  6
 20 61  1  0
 20 62  1  0
 21 63  1  0
 21 64  1  0
 22 65  1  6
 23 66  1  0
 25 67  1  0
 25 68  1  0
 25 69  1  0
 26 70  1  0
 26 71  1  0
 26 72  1  0
 28 73  1  0
 28 74  1  0
 28 75  1  0
 29 76  1  0
 29 77  1  0
 30 78  1  0
 30 79  1  0
 32 80  1  0
 32 81  1  0
 32 82  1  0
M  END
>  <meeko>  (6) 
{"is_sidechain": [false], "intermolecular_energy": 2.731, "internal_energy": -0.839}

$$$$
EPH_relaxed_0001_pdb2pqr_Repair_221_r2_0001_out
     RDKit          3D

 82 86  0  0  0  0  0  0  0  0999 V2000
   -3.7330    7.2390   -3.4190 C   0  0  0  0  0  0  0  0  0  0  0  0
   -3.7390    7.3030   -1.8890 C   0  0  2  0  0  0  0  0  0  0  0  0
   -5.1470    7.0720   -1.3030 C   0  0  0  0  0  0  0  0  0  0  0  0
   -6.2700    7.1950   -2.3360 C   0  0  0  0  0  0  0  0  0  0  0  0
   -7.5980    7.4400   -1.6840 C   0  0  2  0  0  0  0  0  0  0  0  0
   -8.2150    6.2730   -1.1260 O   0  0  0  0  0  0  0  0  0  0  0  0
   -8.9070    6.8940   -2.2210 C   0  0  0  0  0  0  0  0  0  0  0  0
   -8.9540    6.0600   -3.4630 C   0  0  0  0  0  0  0  0  0  0  0  0
  -10.1820    7.5700   -1.8230 C   0  0  0  0  0  0  0  0  0  0  0  0
   -3.1950    8.6480   -1.4220 C   0  0  1  0  0  0  0  0  0  0  0  0
   -3.8140    9.1080   -0.0750 C   0  0  0  0  0  0  0  0  0  0  0  0
   -2.6990    9.8610    0.6950 C   0  0  0  0  0  0  0  0  0  0  0  0
   -1.5900   10.0990   -0.3570 C   0  0  1  0  0  0  0  0  0  0  0  0
   -2.0590   11.3540   -1.1570 C   0  0  0  0  0  0  0  0  0  0  0  0
   -0.1390   10.2760    0.1970 C   0  0  2  0  0  0  0  0  0  0  0  0
    0.0660   11.4960    1.1120 C   0  0  0  0  0  0  0  0  0  0  0  0
    0.4790   12.7520    0.4170 C   0  0  0  0  0  0  0  0  0  0  0  0
    0.9520   12.8310   -0.8400 C   0  0  0  0  0  0  0  0  0  0  0  0
    1.2050   11.5640   -1.6670 C   0  0  1  0  0  0  0  0  0  0  0  0
    2.5960   11.6590   -2.3480 C   0  0  0  0  0  0  0  0  0  0  0  0
    2.7590   12.9350   -3.1690 C   0  0  0  0  0  0  0  0  0  0  0  0
    2.5570   14.1730   -2.3000 C   0  0  2  0  0  0  0  0  0  0  0  0
    3.6250   14.2480   -1.3490 O   0  0  0  0  0  0  0  0  0  0  0  0
    1.1930   14.1830   -1.5550 C   0  0  0  0  0  0  0  0  0  0  0  0
    0.0470   14.4060   -2.5720 C   0  0  0  0  0  0  0  0  0  0  0  0
    1.1760   15.4120   -0.6060 C   0  0  0  0  0  0  0  0  0  0  0  0
    0.9920   10.1850   -0.9070 C   0  0  1  0  0  0  0  0  0  0  0  0
    2.3030    9.7760   -0.1680 C   0  0  0  0  0  0  0  0  0  0  0  0
    0.7060    9.0540   -1.9640 C   0  0  0  0  0  0  0  0  0  0  0  0
   -0.7630    8.8480   -2.3810 C   0  0  0  0  0  0  0  0  0  0  0  0
   -1.6730    8.7460   -1.1540 C   0  0  2  0  0  0  0  0  0  0  0  0
   -1.2390    7.4790   -0.3400 C   0  0  0  0  0  0  0  0  0  0  0  0
   -3.6348    6.1920   -3.7418 H   0  0  0  0  0  0  0  0  0  0  0  0
   -4.6741    7.6557   -3.8071 H   0  0  0  0  0  0  0  0  0  0  0  0
   -2.8857    7.8233   -3.8071 H   0  0  0  0  0  0  0  0  0  0  0  0
   -3.0917    6.4928   -1.5222 H   0  0  0  0  0  0  0  0  0  0  0  0
   -5.1818    6.0612   -0.8705 H   0  0  0  0  0  0  0  0  0  0  0  0
   -5.3149    7.8561   -0.5500 H   0  0  0  0  0  0  0  0  0  0  0  0
   -6.0437    8.0339   -3.0106 H   0  0  0  0  0  0  0  0  0  0  0  0
   -6.3302    6.2478   -2.8920 H   0  0  0  0  0  0  0  0  0  0  0  0
   -7.2894    8.4517   -1.3818 H   0  0  0  0  0  0  0  0  0  0  0  0
   -9.0139    4.9965   -3.1885 H   0  0  0  0  0  0  0  0  0  0  0  0
   -9.8380    6.3358   -4.0566 H   0  0  0  0  0  0  0  0  0  0  0  0
   -8.0446    6.2348   -4.0566 H   0  0  0  0  0  0  0  0  0  0  0  0
  -10.2507    7.6064   -0.7258 H   0  0  0  0  0  0  0  0  0  0  0  0
  -10.1954    8.5937   -2.2254 H   0  0  0  0  0  0  0  0  0  0  0  0
  -11.0368    7.0066   -2.2254 H   0  0  0  0  0  0  0  0  0  0  0  0
   -3.4638    9.2665   -2.2910 H   0  0  0  0  0  0  0  0  0  0  0  0
   -4.6664    9.7784   -0.2591 H   0  0  0  0  0  0  0  0  0  0  0  0
   -4.1831    8.2487    0.5042 H   0  0  0  0  0  0  0  0  0  0  0  0
   -3.0753   10.8179    1.0857 H   0  0  0  0  0  0  0  0  0  0  0  0
   -2.3349    9.2923    1.5633 H   0  0  0  0  0  0  0  0  0  0  0  0
   -2.3553   12.1469   -0.4545 H   0  0  0  0  0  0  0  0  0  0  0  0
   -1.2348   11.7143   -1.7902 H   0  0  0  0  0  0  0  0  0  0  0  0
   -2.9175   11.0855   -1.7902 H   0  0  0  0  0  0  0  0  0  0  0  0
   -0.0248    9.3943    0.8448 H   0  0  0  0  0  0  0  0  0  0  0  0
   -0.8820   11.6924    1.6343 H   0  0  0  0  0  0  0  0  0  0  0  0
    0.8945   11.2348    1.7867 H   0  0  0  0  0  0  0  0  0  0  0  0
    0.3887   13.6922    0.9808 H   0  0  0  0  0  0  0  0  0  0  0  0
    0.4150   11.5385   -2.4320 H   0  0  0  0  0  0  0  0  0  0  0  0
    3.3723   11.6393   -1.5689 H   0  0  0  0  0  0  0  0  0  0  0  0
    2.6907   10.8052   -3.0351 H   0  0  0  0  0  0  0  0  0  0  0  0
    3.7708   12.9589   -3.5998 H   0  0  0  0  0  0  0  0  0  0  0  0
    2.0010   12.9385   -3.9661 H   0  0  0  0  0  0  0  0  0  0  0  0
    2.5563   15.0476   -2.9671 H   0  0  0  0  0  0  0  0  0  0  0  0
    3.2430   14.5250   -0.4990 H   0  0  0  0  0  0  0  0  0  0  0  0
   -0.8930   14.5889   -2.0308 H   0  0  0  0  0  0  0  0  0  0  0  0
    0.2815   15.2754   -3.2038 H   0  0  0  0  0  0  0  0  0  0  0  0
   -0.0616   13.5121   -3.2038 H   0  0  0  0  0  0  0  0  0  0  0  0
    1.1808   15.0685    0.4390 H   0  0  0  0  0  0  0  0  0  0  0  0
    2.0657   16.0315   -0.7924 H   0  0  0  0  0  0  0  0  0  0  0  0
    0.2695   16.0066   -0.7924 H   0  0  0  0  0  0  0  0  0  0  0  0
    2.1421    9.8262    0.9190 H   0  0  0  0  0  0  0  0  0  0  0  0
    2.5783    8.7493   -0.4509 H   0  0  0  0  0  0  0  0  0  0  0  0
    3.1133   10.4640   -0.4509 H   0  0  0  0  0  0  0  0  0  0  0  0
    1.2790    9.2943   -2.8717 H   0  0  0  0  0  0  0  0  0  0  0  0
    0.9987    8.1165   -1.4686 H   0  0  0  0  0  0  0  0  0  0  0  0
   -1.0847    9.7003   -2.9975 H   0  0  0  0  0  0  0  0  0  0  0  0
   -0.8371    7.9101   -2.9509 H   0  0  0  0  0  0  0  0  0  0  0  0
   -1.3120    7.6922    0.7367 H   0  0  0  0  0  0  0  0  0  0  0  0
   -1.8999    6.6367   -0.5927 H   0  0  0  0  0  0  0  0  0  0  0  0
   -0.2005    7.2188   -0.5927 H   0  0  0  0  0  0  0  0  0  0  0  0
  1  2  1  0
  2  3  1  0
  3  4  1  0
  4  5  1  0
  5  6  1  0
  6  7  1  0
  7  8  1  0
  7  9  1  0
  2 10  1  0
 10 11  1  0
 11 12  1  0
 12 13  1  0
 13 14  1  6
 13 15  1  0
 15 16  1  0
 16 17  1  0
 17 18  2  0
 18 19  1  0
 19 20  1  0
 20 21  1  0
 21 22  1  0
 22 23  1  0
 22 24  1  0
 24 25  1  0
 24 26  1  0
 19 27  1  0
 27 28  1  1
 27 29  1  0
 29 30  1  0
 30 31  1  0
 31 32  1  1
  7  5  1  0
 31 10  1  0
 31 13  1  0
 27 15  1  0
 24 18  1  0
  1 33  1  0
  1 34  1  0
  1 35  1  0
  2 36  1  1
  3 37  1  0
  3 38  1  0
  4 39  1  0
  4 40  1  0
  5 41  1  1
  8 42  1  0
  8 43  1  0
  8 44  1  0
  9 45  1  0
  9 46  1  0
  9 47  1  0
 10 48  1  6
 11 49  1  0
 11 50  1  0
 12 51  1  0
 12 52  1  0
 14 53  1  0
 14 54  1  0
 14 55  1  0
 15 56  1  1
 16 57  1  0
 16 58  1  0
 17 59  1  0
 19 60  1  6
 20 61  1  0
 20 62  1  0
 21 63  1  0
 21 64  1  0
 22 65  1  6
 23 66  1  0
 25 67  1  0
 25 68  1  0
 25 69  1  0
 26 70  1  0
 26 71  1  0
 26 72  1  0
 28 73  1  0
 28 74  1  0
 28 75  1  0
 29 76  1  0
 29 77  1  0
 30 78  1  0
 30 79  1  0
 32 80  1  0
 32 81  1  0
 32 82  1  0
M  END
>  <meeko>  (7) 
{"is_sidechain": [false], "intermolecular_energy": 2.731, "internal_energy": -0.839}

$$$$
EPH_relaxed_0001_pdb2pqr_Repair_221_r2_0001_out
     RDKit          3D

 82 86  0  0  0  0  0  0  0  0999 V2000
   -0.8830   16.3530   -5.8360 C   0  0  0  0  0  0  0  0  0  0  0  0
    0.2080   15.6560   -6.6540 C   0  0  2  0  0  0  0  0  0  0  0  0
   -0.1980   15.4780   -8.1310 C   0  0  0  0  0  0  0  0  0  0  0  0
    0.4480   16.4970   -9.0740 C   0  0  0  0  0  0  0  0  0  0  0  0
    1.8520   16.1120   -9.4280 C   0  0  2  0  0  0  0  0  0  0  0  0
    2.3340   16.6690  -10.6580 O   0  0  0  0  0  0  0  0  0  0  0  0
    2.2060   15.2380  -10.6160 C   0  0  0  0  0  0  0  0  0  0  0  0
    1.1500   14.6940  -11.5270 C   0  0  0  0  0  0  0  0  0  0  0  0
    3.5170   14.5160  -10.6080 C   0  0  0  0  0  0  0  0  0  0  0  0
    0.5340   14.3010   -6.0370 C   0  0  1  0  0  0  0  0  0  0  0  0
    1.8010   13.6530   -6.6570 C   0  0  0  0  0  0  0  0  0  0  0  0
    2.5150   12.8850   -5.5140 C   0  0  0  0  0  0  0  0  0  0  0  0
    1.4770   12.8370   -4.3690 C   0  0  1  0  0  0  0  0  0  0  0  0
    0.5250   11.6560   -4.7380 C   0  0  0  0  0  0  0  0  0  0  0  0
    2.0510   12.6860   -2.9220 C   0  0  2  0  0  0  0  0  0  0  0  0
    2.8270   11.3830   -2.6620 C   0  0  0  0  0  0  0  0  0  0  0  0
    2.0080   10.2430   -2.1540 C   0  0  0  0  0  0  0  0  0  0  0  0
    0.7640   10.3380   -1.6470 C   0  0  0  0  0  0  0  0  0  0  0  0
    0.0940   11.7050   -1.4560 C   0  0  1  0  0  0  0  0  0  0  0  0
   -0.5510   11.7720   -0.0470 C   0  0  0  0  0  0  0  0  0  0  0  0
   -1.5060   10.6120    0.2160 C   0  0  0  0  0  0  0  0  0  0  0  0
   -0.7890    9.2720    0.0730 C   0  0  2  0  0  0  0  0  0  0  0  0
    0.1790    9.1530    1.1210 O   0  0  0  0  0  0  0  0  0  0  0  0
   -0.0920    9.0940   -1.3050 C   0  0  0  0  0  0  0  0  0  0  0  0
   -1.1620    8.9210   -2.4110 C   0  0  0  0  0  0  0  0  0  0  0  0
    0.7110    7.7660   -1.2650 C   0  0  0  0  0  0  0  0  0  0  0  0
    0.9990   12.9710   -1.7740 C   0  0  1  0  0  0  0  0  0  0  0  0
    1.8190   13.3710   -0.5100 C   0  0  0  0  0  0  0  0  0  0  0  0
    0.0690   14.1980   -2.1070 C   0  0  0  0  0  0  0  0  0  0  0  0
   -0.3670   14.3610   -3.5750 C   0  0  0  0  0  0  0  0  0  0  0  0
    0.8370   14.2660   -4.5180 C   0  0  2  0  0  0  0  0  0  0  0  0
    1.8010   15.4550   -4.1850 C   0  0  0  0  0  0  0  0  0  0  0  0
   -0.6774   16.2216   -4.7634 H   0  0  0  0  0  0  0  0  0  0  0  0
   -0.8941   17.4259   -6.0785 H   0  0  0  0  0  0  0  0  0  0  0  0
   -1.8612   15.9121   -6.0785 H   0  0  0  0  0  0  0  0  0  0  0  0
    1.1001   16.2992   -6.6320 H   0  0  0  0  0  0  0  0  0  0  0  0
    0.0990   14.4692   -8.4537 H   0  0  0  0  0  0  0  0  0  0  0  0
   -1.2856   15.6331   -8.1864 H   0  0  0  0  0  0  0  0  0  0  0  0
   -0.1484   16.5573   -9.9963 H   0  0  0  0  0  0  0  0  0  0  0  0
    0.4782   17.4690   -8.5599 H   0  0  0  0  0  0  0  0  0  0  0  0
    2.1301   16.0596   -8.3650 H   0  0  0  0  0  0  0  0  0  0  0  0
    0.3303   14.2717  -10.9272 H   0  0  0  0  0  0  0  0  0  0  0  0
    0.7606   15.5037  -12.1616 H   0  0  0  0  0  0  0  0  0  0  0  0
    1.5832   13.9068  -12.1616 H   0  0  0  0  0  0  0  0  0  0  0  0
    3.8333   14.3418   -9.5690 H   0  0  0  0  0  0  0  0  0  0  0  0
    3.4073   13.5511  -11.1246 H   0  0  0  0  0  0  0  0  0  0  0  0
    4.2739   15.1245  -11.1246 H   0  0  0  0  0  0  0  0  0  0  0  0
   -0.4074   13.7713   -6.2449 H   0  0  0  0  0  0  0  0  0  0  0  0
    1.5164   12.9578   -7.4606 H   0  0  0  0  0  0  0  0  0  0  0  0
    2.4620   14.4163   -7.0934 H   0  0  0  0  0  0  0  0  0  0  0  0
    2.7835   11.8686   -5.8376 H   0  0  0  0  0  0  0  0  0  0  0  0
    3.4528   13.3710   -5.2070 H   0  0  0  0  0  0  0  0  0  0  0  0
    0.1476   11.1878   -3.8170 H   0  0  0  0  0  0  0  0  0  0  0  0
   -0.3209   12.0377   -5.3285 H   0  0  0  0  0  0  0  0  0  0  0  0
    1.0776   10.9104   -5.3285 H   0  0  0  0  0  0  0  0  0  0  0  0
    2.7972   13.4930   -2.8781 H   0  0  0  0  0  0  0  0  0  0  0  0
    3.2938   11.0710   -3.6079 H   0  0  0  0  0  0  0  0  0  0  0  0
    3.5520   11.6142   -1.8677 H   0  0  0  0  0  0  0  0  0  0  0  0
    2.4588    9.2405   -2.1975 H   0  0  0  0  0  0  0  0  0  0  0  0
   -0.6869   11.7721   -2.2278 H   0  0  0  0  0  0  0  0  0  0  0  0
    0.2485   11.7484    0.7081 H   0  0  0  0  0  0  0  0  0  0  0  0
   -1.1340   12.7031    0.0089 H   0  0  0  0  0  0  0  0  0  0  0  0
   -1.9058   10.6992    1.2371 H   0  0  0  0  0  0  0  0  0  0  0  0
   -2.3213   10.6544   -0.5212 H   0  0  0  0  0  0  0  0  0  0  0  0
   -1.5503    8.4812    0.1436 H   0  0  0  0  0  0  0  0  0  0  0  0
    1.0590    9.2500    0.7200 H   0  0  0  0  0  0  0  0  0  0  0  0
   -2.1466    8.7618   -1.9470 H   0  0  0  0  0  0  0  0  0  0  0  0
   -1.1931    9.8258   -3.0358 H   0  0  0  0  0  0  0  0  0  0  0  0
   -0.9064    8.0525   -3.0358 H   0  0  0  0  0  0  0  0  0  0  0  0
    0.8868    7.4752   -0.2188 H   0  0  0  0  0  0  0  0  0  0  0  0
    0.1390    6.9762   -1.7739 H   0  0  0  0  0  0  0  0  0  0  0  0
    1.6761    7.9056   -1.7739 H   0  0  0  0  0  0  0  0  0  0  0  0
    1.2561   13.0964    0.3943 H   0  0  0  0  0  0  0  0  0  0  0  0
    2.7835   12.8422   -0.5162 H   0  0  0  0  0  0  0  0  0  0  0  0
    1.9960   14.4566   -0.5162 H   0  0  0  0  0  0  0  0  0  0  0  0
   -0.8420   14.0999   -1.4983 H   0  0  0  0  0  0  0  0  0  0  0  0
    0.6770   15.0879   -1.8870 H   0  0  0  0  0  0  0  0  0  0  0  0
   -1.0854   13.5671   -3.8274 H   0  0  0  0  0  0  0  0  0  0  0  0
   -0.8300   15.3515   -3.6957 H   0  0  0  0  0  0  0  0  0  0  0  0
    1.8878   15.5621   -3.0937 H   0  0  0  0  0  0  0  0  0  0  0  0
    2.7937   15.2533   -4.6137 H   0  0  0  0  0  0  0  0  0  0  0  0
    1.3984   16.3846   -4.6137 H   0  0  0  0  0  0  0  0  0  0  0  0
  1  2  1  0
  2  3  1  0
  3  4  1  0
  4  5  1  0
  5  6  1  0
  6  7  1  0
  7  8  1  0
  7  9  1  0
  2 10  1  0
 10 11  1  0
 11 12  1  0
 12 13  1  0
 13 14  1  6
 13 15  1  0
 15 16  1  0
 16 17  1  0
 17 18  2  0
 18 19  1  0
 19 20  1  0
 20 21  1  0
 21 22  1  0
 22 23  1  0
 22 24  1  0
 24 25  1  0
 24 26  1  0
 19 27  1  0
 27 28  1  1
 27 29  1  0
 29 30  1  0
 30 31  1  0
 31 32  1  1
  7  5  1  0
 31 10  1  0
 31 13  1  0
 27 15  1  0
 24 18  1  0
  1 33  1  0
  1 34  1  0
  1 35  1  0
  2 36  1  6
  3 37  1  0
  3 38  1  0
  4 39  1  0
  4 40  1  0
  5 41  1  1
  8 42  1  0
  8 43  1  0
  8 44  1  0
  9 45  1  0
  9 46  1  0
  9 47  1  0
 10 48  1  1
 11 49  1  0
 11 50  1  0
 12 51  1  0
 12 52  1  0
 14 53  1  0
 14 54  1  0
 14 55  1  0
 15 56  1  6
 16 57  1  0
 16 58  1  0
 17 59  1  0
 19 60  1  6
 20 61  1  0
 20 62  1  0
 21 63  1  0
 21 64  1  0
 22 65  1  1
 23 66  1  0
 25 67  1  0
 25 68  1  0
 25 69  1  0
 26 70  1  0
 26 71  1  0
 26 72  1  0
 28 73  1  0
 28 74  1  0
 28 75  1  0
 29 76  1  0
 29 77  1  0
 30 78  1  0
 30 79  1  0
 32 80  1  0
 32 81  1  0
 32 82  1  0
M  END
>  <meeko>  (8) 
{"is_sidechain": [false], "intermolecular_energy": 2.731, "internal_energy": -0.839}

$$$$
EPH_relaxed_0001_pdb2pqr_Repair_221_r2_0001_out
     RDKit          3D

 82 86  0  0  0  0  0  0  0  0999 V2000
   -2.1990    7.8170   -2.1510 C   0  0  0  0  0  0  0  0  0  0  0  0
   -2.3610    8.5020   -0.7910 C   0  0  2  0  0  0  0  0  0  0  0  0
   -3.8320    8.5360   -0.3300 C   0  0  0  0  0  0  0  0  0  0  0  0
   -4.6400    7.3080   -0.7570 C   0  0  0  0  0  0  0  0  0  0  0  0
   -6.0820    7.6440   -0.9850 C   0  0  2  0  0  0  0  0  0  0  0  0
   -6.9740    6.5230   -0.9350 O   0  0  0  0  0  0  0  0  0  0  0  0
   -6.8650    7.1900   -2.2030 C   0  0  0  0  0  0  0  0  0  0  0  0
   -6.2290    6.3600   -3.2740 C   0  0  0  0  0  0  0  0  0  0  0  0
   -8.0930    7.9530   -2.5910 C   0  0  0  0  0  0  0  0  0  0  0  0
   -1.8020    9.9180   -0.8530 C   0  0  1  0  0  0  0  0  0  0  0  0
   -1.3520   10.4440    0.5370 C   0  0  0  0  0  0  0  0  0  0  0  0
   -0.1090   11.3390    0.2950 C   0  0  0  0  0  0  0  0  0  0  0  0
   -0.0840   11.5680   -1.2340 C   0  0  1  0  0  0  0  0  0  0  0  0
   -1.1140   12.7130   -1.4850 C   0  0  0  0  0  0  0  0  0  0  0  0
    1.3100   11.8970   -1.8610 C   0  0  2  0  0  0  0  0  0  0  0  0
    1.9570   13.2020   -1.3640 C   0  0  0  0  0  0  0  0  0  0  0  0
    1.6250   14.4210   -2.1580 C   0  0  0  0  0  0  0  0  0  0  0  0
    1.0750   14.4280   -3.3870 C   0  0  0  0  0  0  0  0  0  0  0  0
    0.8180   13.1180   -4.1430 C   0  0  1  0  0  0  0  0  0  0  0  0
    1.3180   13.2580   -5.6050 C   0  0  0  0  0  0  0  0  0  0  0  0
    0.7180   14.4680   -6.3150 C   0  0  0  0  0  0  0  0  0  0  0  0
    1.0440   15.7570   -5.5640 C   0  0  2  0  0  0  0  0  0  0  0  0
    2.4540   15.9900   -5.6380 O   0  0  0  0  0  0  0  0  0  0  0  0
    0.5960   15.7300   -4.0760 C   0  0  0  0  0  0  0  0  0  0  0  0
   -0.9500   15.7810   -3.9970 C   0  0  0  0  0  0  0  0  0  0  0  0
    1.1090   17.0290   -3.3990 C   0  0  0  0  0  0  0  0  0  0  0  0
    1.3510   11.7960   -3.4390 C   0  0  1  0  0  0  0  0  0  0  0  0
    2.8400   11.5480   -3.8310 C   0  0  0  0  0  0  0  0  0  0  0  0
    0.5380   10.5620   -3.9820 C   0  0  0  0  0  0  0  0  0  0  0  0
   -0.7700   10.2140   -3.2460 C   0  0  0  0  0  0  0  0  0  0  0  0
   -0.5470   10.1500   -1.7320 C   0  0  2  0  0  0  0  0  0  0  0  0
    0.4690    8.9910   -1.4460 C   0  0  0  0  0  0  0  0  0  0  0  0
   -1.9482    6.7567   -1.9999 H   0  0  0  0  0  0  0  0  0  0  0  0
   -3.1402    7.8944   -2.7150 H   0  0  0  0  0  0  0  0  0  0  0  0
   -1.3922    8.3078   -2.7150 H   0  0  0  0  0  0  0  0  0  0  0  0
   -1.7974    7.9117   -0.0535 H   0  0  0  0  0  0  0  0  0  0  0  0
   -3.8503    8.5989    0.7680 H   0  0  0  0  0  0  0  0  0  0  0  0
   -4.2984    9.4097   -0.8087 H   0  0  0  0  0  0  0  0  0  0  0  0
   -4.2154    6.9089   -1.6900 H   0  0  0  0  0  0  0  0  0  0  0  0
   -4.5854    6.5641    0.0515 H   0  0  0  0  0  0  0  0  0  0  0  0
   -5.9491    8.6317   -0.5193 H   0  0  0  0  0  0  0  0  0  0  0  0
   -5.6219    5.5677   -2.8119 H   0  0  0  0  0  0  0  0  0  0  0  0
   -7.0118    5.9049   -3.8986 H   0  0  0  0  0  0  0  0  0  0  0  0
   -5.5860    6.9975   -3.8986 H   0  0  0  0  0  0  0  0  0  0  0  0
   -8.6221    8.2818   -1.6844 H   0  0  0  0  0  0  0  0  0  0  0  0
   -7.8056    8.8318   -3.1869 H   0  0  0  0  0  0  0  0  0  0  0  0
   -8.7536    7.3061   -3.1869 H   0  0  0  0  0  0  0  0  0  0  0  0
   -2.6675   10.4388   -1.2884 H   0  0  0  0  0  0  0  0  0  0  0  0
   -2.1585   11.0325    0.9987 H   0  0  0  0  0  0  0  0  0  0  0  0
   -1.1138    9.6121    1.2162 H   0  0  0  0  0  0  0  0  0  0  0  0
   -0.2093   12.2953    0.8292 H   0  0  0  0  0  0  0  0  0  0  0  0
    0.8176   10.8735    0.6620 H   0  0  0  0  0  0  0  0  0  0  0  0
   -1.4676   13.1061   -0.5204 H   0  0  0  0  0  0  0  0  0  0  0  0
   -0.6325   13.5207   -2.0558 H   0  0  0  0  0  0  0  0  0  0  0  0
   -1.9680   12.3194   -2.0558 H   0  0  0  0  0  0  0  0  0  0  0  0
    1.9411   11.0839   -1.4731 H   0  0  0  0  0  0  0  0  0  0  0  0
    1.6282   13.3712   -0.3280 H   0  0  0  0  0  0  0  0  0  0  0  0
    3.0432   13.0603   -1.4641 H   0  0  0  0  0  0  0  0  0  0  0  0
    1.8484   15.3962   -1.7007 H   0  0  0  0  0  0  0  0  0  0  0  0
   -0.2719   12.9693   -4.1341 H   0  0  0  0  0  0  0  0  0  0  0  0
    2.4130   13.3623   -5.5948 H   0  0  0  0  0  0  0  0  0  0  0  0
    1.0022   12.3584   -6.1536 H   0  0  0  0  0  0  0  0  0  0  0  0
    1.1309   14.5298   -7.3327 H   0  0  0  0  0  0  0  0  0  0  0  0
   -0.3749   14.3486   -6.3505 H   0  0  0  0  0  0  0  0  0  0  0  0
    0.4812   16.5702   -6.0457 H   0  0  0  0  0  0  0  0  0  0  0  0
    2.5950   16.9510   -5.6150 H   0  0  0  0  0  0  0  0  0  0  0  0
   -1.2631   15.7913   -2.9426 H   0  0  0  0  0  0  0  0  0  0  0  0
   -1.3128   16.6916   -4.4962 H   0  0  0  0  0  0  0  0  0  0  0  0
   -1.3720   14.8963   -4.4962 H   0  0  0  0  0  0  0  0  0  0  0  0
    1.0640   16.9151   -2.3058 H   0  0  0  0  0  0  0  0  0  0  0  0
    2.1486   17.2164   -3.7057 H   0  0  0  0  0  0  0  0  0  0  0  0
    0.4779   17.8762   -3.7057 H   0  0  0  0  0  0  0  0  0  0  0  0
    3.4472   11.4469   -2.9194 H   0  0  0  0  0  0  0  0  0  0  0  0
    2.9140   10.6252   -4.4251 H   0  0  0  0  0  0  0  0  0  0  0  0
    3.2091   12.3970   -4.4251 H   0  0  0  0  0  0  0  0  0  0  0  0
    0.2844   10.7668   -5.0326 H   0  0  0  0  0  0  0  0  0  0  0  0
    1.1952    9.6936   -3.8274 H   0  0  0  0  0  0  0  0  0  0  0  0
   -1.5230   10.9849   -3.4665 H   0  0  0  0  0  0  0  0  0  0  0  0
   -1.1153    9.2284   -3.5916 H   0  0  0  0  0  0  0  0  0  0  0  0
    0.5819    8.8622   -0.3594 H   0  0  0  0  0  0  0  0  0  0  0  0
    0.0936    8.0567   -1.8889 H   0  0  0  0  0  0  0  0  0  0  0  0
    1.4444    9.2408   -1.8889 H   0  0  0  0  0  0  0  0  0  0  0  0
  1  2  1  0
  2  3  1  0
  3  4  1  0
  4  5  1  0
  5  6  1  0
  6  7  1  0
  7  8  1  0
  7  9  1  0
  2 10  1  0
 10 11  1  0
 11 12  1  0
 12 13  1  0
 13 14  1  1
 13 15  1  0
 15 16  1  0
 16 17  1  0
 17 18  2  0
 18 19  1  0
 19 20  1  0
 20 21  1  0
 21 22  1  0
 22 23  1  0
 22 24  1  0
 24 25  1  0
 24 26  1  0
 19 27  1  0
 27 28  1  1
 27 29  1  0
 29 30  1  0
 30 31  1  0
 31 32  1  6
  7  5  1  0
 31 10  1  0
 31 13  1  0
 27 15  1  0
 24 18  1  0
  1 33  1  0
  1 34  1  0
  1 35  1  0
  2 36  1  1
  3 37  1  0
  3 38  1  0
  4 39  1  0
  4 40  1  0
  5 41  1  1
  8 42  1  0
  8 43  1  0
  8 44  1  0
  9 45  1  0
  9 46  1  0
  9 47  1  0
 10 48  1  6
 11 49  1  0
 11 50  1  0
 12 51  1  0
 12 52  1  0
 14 53  1  0
 14 54  1  0
 14 55  1  0
 15 56  1  1
 16 57  1  0
 16 58  1  0
 17 59  1  0
 19 60  1  6
 20 61  1  0
 20 62  1  0
 21 63  1  0
 21 64  1  0
 22 65  1  6
 23 66  1  0
 25 67  1  0
 25 68  1  0
 25 69  1  0
 26 70  1  0
 26 71  1  0
 26 72  1  0
 28 73  1  0
 28 74  1  0
 28 75  1  0
 29 76  1  0
 29 77  1  0
 30 78  1  0
 30 79  1  0
 32 80  1  0
 32 81  1  0
 32 82  1  0
M  END
>  <meeko>  (9) 
{"is_sidechain": [false], "intermolecular_energy": 2.731, "internal_energy": -0.839}

$$$$
EPH_relaxed_0001_pdb2pqr_Repair_221_r2_0001_out
     RDKit          3D

 82 86  0  0  0  0  0  0  0  0999 V2000
   -0.5270   19.6950   -2.3290 C   0  0  0  0  0  0  0  0  0  0  0  0
   -0.4250   18.6640   -1.2030 C   0  0  2  0  0  0  0  0  0  0  0  0
    0.2560   19.2410    0.0540 C   0  0  0  0  0  0  0  0  0  0  0  0
    1.7730   19.3980   -0.0850 C   0  0  0  0  0  0  0  0  0  0  0  0
    2.4460   19.4830    1.2510 C   0  0  2  0  0  0  0  0  0  0  0  0
    3.6910   20.1930    1.2500 O   0  0  0  0  0  0  0  0  0  0  0  0
    3.7600   18.7950    1.5710 C   0  0  0  0  0  0  0  0  0  0  0  0
    4.4770   17.9700    0.5500 C   0  0  0  0  0  0  0  0  0  0  0  0
    4.0930   18.5210    3.0050 C   0  0  0  0  0  0  0  0  0  0  0  0
    0.3350   17.4350   -1.6890 C   0  0  1  0  0  0  0  0  0  0  0  0
    1.8320   17.7320   -1.9710 C   0  0  0  0  0  0  0  0  0  0  0  0
    2.6220   16.4570   -1.5820 C   0  0  0  0  0  0  0  0  0  0  0  0
    1.5400   15.3660   -1.4070 C   0  0  1  0  0  0  0  0  0  0  0  0
    1.2230   14.8790   -2.8560 C   0  0  0  0  0  0  0  0  0  0  0  0
    1.9070   14.1730   -0.4650 C   0  0  2  0  0  0  0  0  0  0  0  0
    3.1020   13.3210   -0.9270 C   0  0  0  0  0  0  0  0  0  0  0  0
    2.7590   12.1600   -1.8000 C   0  0  0  0  0  0  0  0  0  0  0  0
    1.5270   11.6450   -1.9670 C   0  0  0  0  0  0  0  0  0  0  0  0
    0.3340   12.1770   -1.1620 C   0  0  1  0  0  0  0  0  0  0  0  0
   -0.4800   10.9860   -0.5930 C   0  0  0  0  0  0  0  0  0  0  0  0
   -0.9020    9.9960   -1.6740 C   0  0  0  0  0  0  0  0  0  0  0  0
    0.3150    9.4440   -2.4130 C   0  0  2  0  0  0  0  0  0  0  0  0
    1.0810    8.6450   -1.5070 O   0  0  0  0  0  0  0  0  0  0  0  0
    1.2170   10.5540   -3.0220 C   0  0  0  0  0  0  0  0  0  0  0  0
    0.4870   11.2230   -4.2120 C   0  0  0  0  0  0  0  0  0  0  0  0
    2.4790    9.8710   -3.6150 C   0  0  0  0  0  0  0  0  0  0  0  0
    0.6750   13.2670   -0.0560 C   0  0  1  0  0  0  0  0  0  0  0  0
    1.0640   12.5650    1.2810 C   0  0  0  0  0  0  0  0  0  0  0  0
   -0.6170   14.1150    0.2460 C   0  0  0  0  0  0  0  0  0  0  0  0
   -0.8610   15.3500   -0.6430 C   0  0  0  0  0  0  0  0  0  0  0  0
    0.3990   16.2150   -0.7370 C   0  0  2  0  0  0  0  0  0  0  0  0
    0.7300   16.7370    0.7030 C   0  0  0  0  0  0  0  0  0  0  0  0
   -0.6266   20.7015   -1.8966 H   0  0  0  0  0  0  0  0  0  0  0  0
    0.3799   19.6507   -2.9499 H   0  0  0  0  0  0  0  0  0  0  0  0
   -1.4077   19.4739   -2.9499 H   0  0  0  0  0  0  0  0  0  0  0  0
   -1.4500   18.3801   -0.9222 H   0  0  0  0  0  0  0  0  0  0  0  0
   -0.1780   20.2303    0.2609 H   0  0  0  0  0  0  0  0  0  0  0  0
    0.0803   18.5263    0.8715 H   0  0  0  0  0  0  0  0  0  0  0  0
    2.1726   18.5307   -0.6309 H   0  0  0  0  0  0  0  0  0  0  0  0
    1.9726   20.3327   -0.6296 H   0  0  0  0  0  0  0  0  0  0  0  0
    1.4742   19.4942    1.7662 H   0  0  0  0  0  0  0  0  0  0  0  0
    5.1172   17.2334    1.0576 H   0  0  0  0  0  0  0  0  0  0  0  0
    3.7427   17.4458   -0.0792 H   0  0  0  0  0  0  0  0  0  0  0  0
    5.0985   18.6241   -0.0792 H   0  0  0  0  0  0  0  0  0  0  0  0
    3.4076   19.0849    3.6548 H   0  0  0  0  0  0  0  0  0  0  0  0
    3.9873   17.4448    3.2068 H   0  0  0  0  0  0  0  0  0  0  0  0
    5.1287   18.8319    3.2068 H   0  0  0  0  0  0  0  0  0  0  0  0
   -0.2645   17.1871   -2.5773 H   0  0  0  0  0  0  0  0  0  0  0  0
    1.9789   17.9580   -3.0375 H   0  0  0  0  0  0  0  0  0  0  0  0
    2.1775   18.6021   -1.3935 H   0  0  0  0  0  0  0  0  0  0  0  0
    3.3280   16.1795   -2.3785 H   0  0  0  0  0  0  0  0  0  0  0  0
    3.2218   16.5996   -0.6710 H   0  0  0  0  0  0  0  0  0  0  0  0
    0.6234   13.9579   -2.8103 H   0  0  0  0  0  0  0  0  0  0  0  0
    0.6584   15.6579   -3.3893 H   0  0  0  0  0  0  0  0  0  0  0  0
    2.1638   14.6780   -3.3893 H   0  0  0  0  0  0  0  0  0  0  0  0
    2.2418   14.6875    0.4478 H   0  0  0  0  0  0  0  0  0  0  0  0
    3.7893   13.9741   -1.4848 H   0  0  0  0  0  0  0  0  0  0  0  0
    3.5423   12.8946   -0.0136 H   0  0  0  0  0  0  0  0  0  0  0  0
    3.5826   11.6853   -2.3535 H   0  0  0  0  0  0  0  0  0  0  0  0
   -0.2838   12.7446   -1.8735 H   0  0  0  0  0  0  0  0  0  0  0  0
    0.1389   10.4574    0.1469 H   0  0  0  0  0  0  0  0  0  0  0  0
   -1.3949   11.3939   -0.1384 H   0  0  0  0  0  0  0  0  0  0  0  0
   -1.4476    9.1632   -1.2064 H   0  0  0  0  0  0  0  0  0  0  0  0
   -1.5450   10.5187   -2.3974 H   0  0  0  0  0  0  0  0  0  0  0  0
   -0.0556    8.8431   -3.2565 H   0  0  0  0  0  0  0  0  0  0  0  0
    1.9070    9.1220   -1.3200 H   0  0  0  0  0  0  0  0  0  0  0  0
   -0.2736   11.9201   -3.8305 H   0  0  0  0  0  0  0  0  0  0  0  0
    1.2148   11.7743   -4.8255 H   0  0  0  0  0  0  0  0  0  0  0  0
    0.0011   10.4500   -4.8255 H   0  0  0  0  0  0  0  0  0  0  0  0
    3.1254    9.5212   -2.7966 H   0  0  0  0  0  0  0  0  0  0  0  0
    2.1754    9.0141   -4.2343 H   0  0  0  0  0  0  0  0  0  0  0  0
    3.0303   10.5939   -4.2343 H   0  0  0  0  0  0  0  0  0  0  0  0
    0.7245   13.1777    2.1291 H   0  0  0  0  0  0  0  0  0  0  0  0
    0.5854   11.5757    1.3285 H   0  0  0  0  0  0  0  0  0  0  0  0
    2.1566   12.4464    1.3285 H   0  0  0  0  0  0  0  0  0  0  0  0
   -1.4855   13.4489    0.1360 H   0  0  0  0  0  0  0  0  0  0  0  0
   -0.4683   14.5150    1.2599 H   0  0  0  0  0  0  0  0  0  0  0  0
   -1.1447   15.0166   -1.6521 H   0  0  0  0  0  0  0  0  0  0  0  0
   -1.6664   15.9508   -0.1954 H   0  0  0  0  0  0  0  0  0  0  0  0
    0.2971   16.0543    1.4490 H   0  0  0  0  0  0  0  0  0  0  0  0
    1.8211   16.7806    0.8354 H   0  0  0  0  0  0  0  0  0  0  0  0
    0.3041   17.7425    0.8354 H   0  0  0  0  0  0  0  0  0  0  0  0
  1  2  1  0
  2  3  1  0
  3  4  1  0
  4  5  1  0
  5  6  1  0
  6  7  1  0
  7  8  1  0
  7  9  1  0
  2 10  1  0
 10 11  1  0
 11 12  1  0
 12 13  1  0
 13 14  1  6
 13 15  1  0
 15 16  1  0
 16 17  1  0
 17 18  2  0
 18 19  1  0
 19 20  1  0
 20 21  1  0
 21 22  1  0
 22 23  1  0
 22 24  1  0
 24 25  1  0
 24 26  1  0
 19 27  1  0
 27 28  1  1
 27 29  1  0
 29 30  1  0
 30 31  1  0
 31 32  1  1
  7  5  1  0
 31 10  1  0
 31 13  1  0
 27 15  1  0
 24 18  1  0
  1 33  1  0
  1 34  1  0
  1 35  1  0
  2 36  1  1
  3 37  1  0
  3 38  1  0
  4 39  1  0
  4 40  1  0
  5 41  1  1
  8 42  1  0
  8 43  1  0
  8 44  1  0
  9 45  1  0
  9 46  1  0
  9 47  1  0
 10 48  1  6
 11 49  1  0
 11 50  1  0
 12 51  1  0
 12 52  1  0
 14 53  1  0
 14 54  1  0
 14 55  1  0
 15 56  1  1
 16 57  1  0
 16 58  1  0
 17 59  1  0
 19 60  1  6
 20 61  1  0
 20 62  1  0
 21 63  1  0
 21 64  1  0
 22 65  1  6
 23 66  1  0
 25 67  1  0
 25 68  1  0
 25 69  1  0
 26 70  1  0
 26 71  1  0
 26 72  1  0
 28 73  1  0
 28 74  1  0
 28 75  1  0
 29 76  1  0
 29 77  1  0
 30 78  1  0
 30 79  1  0
 32 80  1  0
 32 81  1  0
 32 82  1  0
M  END
>  <meeko>  (10) 
{"is_sidechain": [false], "intermolecular_energy": 2.731, "internal_energy": -0.839}

$$$$
EPH_relaxed_0001_pdb2pqr_Repair_221_r2_0001_out
     RDKit          3D

 82 86  0  0  0  0  0  0  0  0999 V2000
    0.2280    9.8670   -4.5850 C   0  0  0  0  0  0  0  0  0  0  0  0
    1.2660   10.5860   -3.7180 C   0  0  2  0  0  0  0  0  0  0  0  0
    1.6890    9.7410   -2.4990 C   0  0  0  0  0  0  0  0  0  0  0  0
    0.6660    8.6730   -2.1060 C   0  0  0  0  0  0  0  0  0  0  0  0
   -0.1860    9.1180   -0.9560 C   0  0  2  0  0  0  0  0  0  0  0  0
   -0.7510    8.0520   -0.1810 O   0  0  0  0  0  0  0  0  0  0  0  0
   -1.6840    8.8870   -0.8860 C   0  0  0  0  0  0  0  0  0  0  0  0
   -2.4170    8.1850   -1.9860 C   0  0  0  0  0  0  0  0  0  0  0  0
   -2.5030    9.7650    0.0080 C   0  0  0  0  0  0  0  0  0  0  0  0
    0.7150   11.9290   -3.2550 C   0  0  1  0  0  0  0  0  0  0  0  0
   -0.7690   11.8440   -2.8080 C   0  0  0  0  0  0  0  0  0  0  0  0
   -0.9390   12.8420   -1.6330 C   0  0  0  0  0  0  0  0  0  0  0  0
    0.3470   13.7000   -1.6600 C   0  0  1  0  0  0  0  0  0  0  0  0
    0.0930   14.7680   -2.7700 C   0  0  0  0  0  0  0  0  0  0  0  0
    0.7650   14.3620   -0.3070 C   0  0  2  0  0  0  0  0  0  0  0  0
   -0.2440   15.3740    0.2640 C   0  0  0  0  0  0  0  0  0  0  0  0
   -0.0420   16.7880   -0.1670 C   0  0  0  0  0  0  0  0  0  0  0  0
    1.0700   17.2780   -0.7460 C   0  0  0  0  0  0  0  0  0  0  0  0
    2.3130   16.3990   -0.9330 C   0  0  1  0  0  0  0  0  0  0  0  0
    3.5740   17.1820   -0.4800 C   0  0  0  0  0  0  0  0  0  0  0  0
    3.7050   18.5330   -1.1750 C   0  0  0  0  0  0  0  0  0  0  0  0
    2.4750   19.4010   -0.9180 C   0  0  2  0  0  0  0  0  0  0  0  0
    2.4340   19.7410    0.4720 O   0  0  0  0  0  0  0  0  0  0  0  0
    1.1430   18.7120   -1.3270 C   0  0  0  0  0  0  0  0  0  0  0  0
    1.0600   18.6160   -2.8700 C   0  0  0  0  0  0  0  0  0  0  0  0
   -0.0260   19.6330   -0.8850 C   0  0  0  0  0  0  0  0  0  0  0  0
    2.2360   14.9450   -0.2970 C   0  0  1  0  0  0  0  0  0  0  0  0
    2.6860   14.9920    1.1950 C   0  0  0  0  0  0  0  0  0  0  0  0
    3.2570   14.0040   -1.0390 C   0  0  0  0  0  0  0  0  0  0  0  0
    2.7480   13.2860   -2.3030 C   0  0  0  0  0  0  0  0  0  0  0  0
    1.4040   12.6000   -2.0400 C   0  0  2  0  0  0  0  0  0  0  0  0
    1.6320   11.5040   -0.9430 C   0  0  0  0  0  0  0  0  0  0  0  0
   -0.5031    9.3606   -3.9376 H   0  0  0  0  0  0  0  0  0  0  0  0
   -0.2906   10.6003   -5.2200 H   0  0  0  0  0  0  0  0  0  0  0  0
    0.7322    9.1237   -5.2200 H   0  0  0  0  0  0  0  0  0  0  0  0
    2.1617   10.7451   -4.3364 H   0  0  0  0  0  0  0  0  0  0  0  0
    2.6395    9.2408   -2.7362 H   0  0  0  0  0  0  0  0  0  0  0  0
    1.7786   10.4297   -1.6460 H   0  0  0  0  0  0  0  0  0  0  0  0
    0.0180    8.4649   -2.9702 H   0  0  0  0  0  0  0  0  0  0  0  0
    1.2139    7.7703   -1.7977 H   0  0  0  0  0  0  0  0  0  0  0  0
    0.4287   10.0199   -0.8194 H   0  0  0  0  0  0  0  0  0  0  0  0
   -3.1471    7.4858   -1.5522 H   0  0  0  0  0  0  0  0  0  0  0  0
   -2.9426    8.9253   -2.6071 H   0  0  0  0  0  0  0  0  0  0  0  0
   -1.7001    7.6280   -2.6071 H   0  0  0  0  0  0  0  0  0  0  0  0
   -2.2811    9.5271    1.0588 H   0  0  0  0  0  0  0  0  0  0  0  0
   -2.2581   10.8191   -0.1889 H   0  0  0  0  0  0  0  0  0  0  0  0
   -3.5716    9.5939   -0.1889 H   0  0  0  0  0  0  0  0  0  0  0  0
    0.8921   12.5238   -4.1632 H   0  0  0  0  0  0  0  0  0  0  0  0
   -1.4321   12.1221   -3.6404 H   0  0  0  0  0  0  0  0  0  0  0  0
   -1.0310   10.8213   -2.4992 H   0  0  0  0  0  0  0  0  0  0  0  0
   -1.8287   13.4711   -1.7836 H   0  0  0  0  0  0  0  0  0  0  0  0
   -1.0791   12.3311   -0.6690 H   0  0  0  0  0  0  0  0  0  0  0  0
   -0.1373   15.7362   -2.3014 H   0  0  0  0  0  0  0  0  0  0  0  0
    0.9924   14.8680   -3.3953 H   0  0  0  0  0  0  0  0  0  0  0  0
   -0.7551   14.4523   -3.3953 H   0  0  0  0  0  0  0  0  0  0  0  0
    0.7557   13.5073    0.3854 H   0  0  0  0  0  0  0  0  0  0  0  0
   -1.2515   15.0636   -0.0501 H   0  0  0  0  0  0  0  0  0  0  0  0
   -0.1000   15.3648    1.3545 H   0  0  0  0  0  0  0  0  0  0  0  0
   -0.8721   17.4895    0.0028 H   0  0  0  0  0  0  0  0  0  0  0  0
    2.3743   16.1840   -2.0100 H   0  0  0  0  0  0  0  0  0  0  0  0
    3.5145   17.3484    0.6057 H   0  0  0  0  0  0  0  0  0  0  0  0
    4.4548   16.5810   -0.7500 H   0  0  0  0  0  0  0  0  0  0  0  0
    4.5969   19.0501   -0.7915 H   0  0  0  0  0  0  0  0  0  0  0  0
    3.7946   18.3632   -2.2581 H   0  0  0  0  0  0  0  0  0  0  0  0
    2.5681   20.3002   -1.5447 H   0  0  0  0  0  0  0  0  0  0  0  0
    2.6570   18.9410    0.9770 H   0  0  0  0  0  0  0  0  0  0  0  0
    0.3643   17.8114   -3.1504 H   0  0  0  0  0  0  0  0  0  0  0  0
    0.6989   19.5716   -3.2779 H   0  0  0  0  0  0  0  0  0  0  0  0
    2.0578   18.3968   -3.2779 H   0  0  0  0  0  0  0  0  0  0  0  0
   -0.0702   19.6678    0.2136 H   0  0  0  0  0  0  0  0  0  0  0  0
    0.1378   20.6474   -1.2777 H   0  0  0  0  0  0  0  0  0  0  0  0
   -0.9739   19.2364   -1.2777 H   0  0  0  0  0  0  0  0  0  0  0  0
    1.8047   14.9000    1.8468 H   0  0  0  0  0  0  0  0  0  0  0  0
    3.3787   14.1613    1.3954 H   0  0  0  0  0  0  0  0  0  0  0  0
    3.1921   15.9479    1.3954 H   0  0  0  0  0  0  0  0  0  0  0  0
    4.1229   14.6166   -1.3303 H   0  0  0  0  0  0  0  0  0  0  0  0
    3.4809   13.2003   -0.3221 H   0  0  0  0  0  0  0  0  0  0  0  0
    2.6240   14.0229   -3.1102 H   0  0  0  0  0  0  0  0  0  0  0  0
    3.4826   12.5196   -2.5909 H   0  0  0  0  0  0  0  0  0  0  0  0
    1.5375   11.9583    0.0544 H   0  0  0  0  0  0  0  0  0  0  0  0
    0.8799   10.7094   -1.0567 H   0  0  0  0  0  0  0  0  0  0  0  0
    2.6386   11.0752   -1.0567 H   0  0  0  0  0  0  0  0  0  0  0  0
  1  2  1  0
  2  3  1  0
  3  4  1  0
  4  5  1  0
  5  6  1  0
  6  7  1  0
  7  8  1  0
  7  9  1  0
  2 10  1  0
 10 11  1  0
 11 12  1  0
 12 13  1  0
 13 14  1  6
 13 15  1  0
 15 16  1  0
 16 17  1  0
 17 18  2  0
 18 19  1  0
 19 20  1  0
 20 21  1  0
 21 22  1  0
 22 23  1  0
 22 24  1  0
 24 25  1  0
 24 26  1  0
 19 27  1  0
 27 28  1  1
 27 29  1  0
 29 30  1  0
 30 31  1  0
 31 32  1  1
  7  5  1  0
 31 10  1  0
 31 13  1  0
 27 15  1  0
 24 18  1  0
  1 33  1  0
  1 34  1  0
  1 35  1  0
  2 36  1  6
  3 37  1  0
  3 38  1  0
  4 39  1  0
  4 40  1  0
  5 41  1  1
  8 42  1  0
  8 43  1  0
  8 44  1  0
  9 45  1  0
  9 46  1  0
  9 47  1  0
 10 48  1  6
 11 49  1  0
 11 50  1  0
 12 51  1  0
 12 52  1  0
 14 53  1  0
 14 54  1  0
 14 55  1  0
 15 56  1  1
 16 57  1  0
 16 58  1  0
 17 59  1  0
 19 60  1  6
 20 61  1  0
 20 62  1  0
 21 63  1  0
 21 64  1  0
 22 65  1  6
 23 66  1  0
 25 67  1  0
 25 68  1  0
 25 69  1  0
 26 70  1  0
 26 71  1  0
 26 72  1  0
 28 73  1  0
 28 74  1  0
 28 75  1  0
 29 76  1  0
 29 77  1  0
 30 78  1  0
 30 79  1  0
 32 80  1  0
 32 81  1  0
 32 82  1  0
M  END
>  <meeko>  (11) 
{"is_sidechain": [false], "intermolecular_energy": 2.731, "internal_energy": -0.839}

$$$$
EPH_relaxed_0001_pdb2pqr_Repair_221_r2_0001_out
     RDKit          3D

 82 86  0  0  0  0  0  0  0  0999 V2000
    0.9120   14.9090   -2.6350 C   0  0  0  0  0  0  0  0  0  0  0  0
    1.1660   14.2360   -3.9870 C   0  0  2  0  0  0  0  0  0  0  0  0
    0.4550   14.9680   -5.1430 C   0  0  0  0  0  0  0  0  0  0  0  0
    0.9720   14.5760   -6.5300 C   0  0  0  0  0  0  0  0  0  0  0  0
    0.7500   15.6670   -7.5330 C   0  0  2  0  0  0  0  0  0  0  0  0
    0.3970   15.2120   -8.8450 O   0  0  0  0  0  0  0  0  0  0  0  0
    1.6530   15.8990   -8.7300 C   0  0  0  0  0  0  0  0  0  0  0  0
    2.8460   15.0330   -8.9870 C   0  0  0  0  0  0  0  0  0  0  0  0
    1.6610   17.2530   -9.3690 C   0  0  0  0  0  0  0  0  0  0  0  0
    0.7150   12.7810   -3.9360 C   0  0  1  0  0  0  0  0  0  0  0  0
    1.8420   11.7920   -4.3390 C   0  0  0  0  0  0  0  0  0  0  0  0
    1.6530   10.5210   -3.4710 C   0  0  0  0  0  0  0  0  0  0  0  0
    0.2480   10.6820   -2.8450 C   0  0  1  0  0  0  0  0  0  0  0  0
   -0.7430   10.2200   -3.9590 C   0  0  0  0  0  0  0  0  0  0  0  0
   -0.0000    9.9220   -1.5010 C   0  0  2  0  0  0  0  0  0  0  0  0
    0.1030    8.3890   -1.5890 C   0  0  0  0  0  0  0  0  0  0  0  0
   -1.1740    7.6810   -1.9000 C   0  0  0  0  0  0  0  0  0  0  0  0
   -2.4060    8.2180   -1.8200 C   0  0  0  0  0  0  0  0  0  0  0  0
   -2.6110    9.6420   -1.2880 C   0  0  1  0  0  0  0  0  0  0  0  0
   -3.7770    9.6500   -0.2650 C   0  0  0  0  0  0  0  0  0  0  0  0
   -5.0590    9.0500   -0.8350 C   0  0  0  0  0  0  0  0  0  0  0  0
   -4.8290    7.6140   -1.3000 C   0  0  2  0  0  0  0  0  0  0  0  0
   -4.5560    6.7970   -0.1570 O   0  0  0  0  0  0  0  0  0  0  0  0
   -3.6700    7.4810   -2.3270 C   0  0  0  0  0  0  0  0  0  0  0  0
   -4.0930    8.1130   -3.6760 C   0  0  0  0  0  0  0  0  0  0  0  0
   -3.4500    5.9690   -2.6050 C   0  0  0  0  0  0  0  0  0  0  0  0
   -1.3110   10.3700   -0.7360 C   0  0  1  0  0  0  0  0  0  0  0  0
   -1.0950   10.0080    0.7660 C   0  0  0  0  0  0  0  0  0  0  0  0
   -1.5310   11.9280   -0.7890 C   0  0  0  0  0  0  0  0  0  0  0  0
   -1.1550   12.6380   -2.1040 C   0  0  0  0  0  0  0  0  0  0  0  0
    0.2460   12.2290   -2.5660 C   0  0  2  0  0  0  0  0  0  0  0  0
    1.2670   12.7000   -1.4750 C   0  0  0  0  0  0  0  0  0  0  0  0
    1.1745   14.2135   -1.8242 H   0  0  0  0  0  0  0  0  0  0  0  0
    1.5298   15.8156   -2.5549 H   0  0  0  0  0  0  0  0  0  0  0  0
   -0.1507   15.1813   -2.5549 H   0  0  0  0  0  0  0  0  0  0  0  0
    2.2475   14.2834   -4.1822 H   0  0  0  0  0  0  0  0  0  0  0  0
   -0.6188   14.7344   -5.0938 H   0  0  0  0  0  0  0  0  0  0  0  0
    0.6570   16.0418   -5.0162 H   0  0  0  0  0  0  0  0  0  0  0  0
    2.0500   14.3675   -6.4628 H   0  0  0  0  0  0  0  0  0  0  0  0
    0.4183   13.6859   -6.8634 H   0  0  0  0  0  0  0  0  0  0  0  0
    0.3742   16.3421   -6.7501 H   0  0  0  0  0  0  0  0  0  0  0  0
    3.2825   14.7162   -8.0283 H   0  0  0  0  0  0  0  0  0  0  0  0
    2.5386   14.1463   -9.5608 H   0  0  0  0  0  0  0  0  0  0  0  0
    3.5939   15.6000   -9.5608 H   0  0  0  0  0  0  0  0  0  0  0  0
    1.6656   18.0272   -8.5876 H   0  0  0  0  0  0  0  0  0  0  0  0
    2.5598   17.3580   -9.9944 H   0  0  0  0  0  0  0  0  0  0  0  0
    0.7635   17.3686   -9.9944 H   0  0  0  0  0  0  0  0  0  0  0  0
   -0.1341   12.8265   -4.6338 H   0  0  0  0  0  0  0  0  0  0  0  0
    1.7593   11.5378   -5.4060 H   0  0  0  0  0  0  0  0  0  0  0  0
    2.8348   12.2371   -4.1769 H   0  0  0  0  0  0  0  0  0  0  0  0
    1.6994    9.6152   -4.0934 H   0  0  0  0  0  0  0  0  0  0  0  0
    2.4396   10.4150   -2.7094 H   0  0  0  0  0  0  0  0  0  0  0  0
   -1.6466    9.7987   -3.4942 H   0  0  0  0  0  0  0  0  0  0  0  0
   -1.0199   11.0819   -4.5839 H   0  0  0  0  0  0  0  0  0  0  0  0
   -0.2609    9.4538   -4.5839 H   0  0  0  0  0  0  0  0  0  0  0  0
    0.8542   10.2437   -0.8871 H   0  0  0  0  0  0  0  0  0  0  0  0
    0.8294    8.1418   -2.3772 H   0  0  0  0  0  0  0  0  0  0  0  0
    0.4051    8.0463   -0.5884 H   0  0  0  0  0  0  0  0  0  0  0  0
   -1.1023    6.6316   -2.2218 H   0  0  0  0  0  0  0  0  0  0  0  0
   -2.8756   10.2569   -2.1608 H   0  0  0  0  0  0  0  0  0  0  0  0
   -3.4761    9.0660    0.6173 H   0  0  0  0  0  0  0  0  0  0  0  0
   -3.9857   10.6981   -0.0045 H   0  0  0  0  0  0  0  0  0  0  0  0
   -5.8365    9.0564   -0.0569 H   0  0  0  0  0  0  0  0  0  0  0  0
   -5.3751    9.6528   -1.6992 H   0  0  0  0  0  0  0  0  0  0  0  0
   -5.7432    7.2835   -1.8147 H   0  0  0  0  0  0  0  0  0  0  0  0
   -4.8090    5.8850   -0.3800 H   0  0  0  0  0  0  0  0  0  0  0  0
   -4.6957    9.0134   -3.4861 H   0  0  0  0  0  0  0  0  0  0  0  0
   -3.1955    8.3868   -4.2501 H   0  0  0  0  0  0  0  0  0  0  0  0
   -4.6883    7.3877   -4.2501 H   0  0  0  0  0  0  0  0  0  0  0  0
   -3.3713    5.4283   -1.6503 H   0  0  0  0  0  0  0  0  0  0  0  0
   -4.3002    5.5745   -3.1808 H   0  0  0  0  0  0  0  0  0  0  0  0
   -2.5226    5.8332   -3.1808 H   0  0  0  0  0  0  0  0  0  0  0  0
   -1.5559   10.7804    1.3993 H   0  0  0  0  0  0  0  0  0  0  0  0
   -1.5597    9.0340    0.9789 H   0  0  0  0  0  0  0  0  0  0  0  0
   -0.0171    9.9544    0.9789 H   0  0  0  0  0  0  0  0  0  0  0  0
   -2.5975   12.1202   -0.6001 H   0  0  0  0  0  0  0  0  0  0  0  0
   -0.8474   12.3413   -0.0328 H   0  0  0  0  0  0  0  0  0  0  0  0
   -1.8841   12.3656   -2.8813 H   0  0  0  0  0  0  0  0  0  0  0  0
   -1.1643   13.7243   -1.9313 H   0  0  0  0  0  0  0  0  0  0  0  0
    0.8502   12.5077   -0.4754 H   0  0  0  0  0  0  0  0  0  0  0  0
    2.2101   12.1459   -1.5918 H   0  0  0  0  0  0  0  0  0  0  0  0
    1.4576   13.7770   -1.5918 H   0  0  0  0  0  0  0  0  0  0  0  0
  1  2  1  0
  2  3  1  0
  3  4  1  0
  4  5  1  0
  5  6  1  0
  6  7  1  0
  7  8  1  0
  7  9  1  0
  2 10  1  0
 10 11  1  0
 11 12  1  0
 12 13  1  0
 13 14  1  6
 13 15  1  0
 15 16  1  0
 16 17  1  0
 17 18  2  0
 18 19  1  0
 19 20  1  0
 20 21  1  0
 21 22  1  0
 22 23  1  0
 22 24  1  0
 24 25  1  0
 24 26  1  0
 19 27  1  0
 27 28  1  1
 27 29  1  0
 29 30  1  0
 30 31  1  0
 31 32  1  1
  7  5  1  0
 31 10  1  0
 31 13  1  0
 27 15  1  0
 24 18  1  0
  1 33  1  0
  1 34  1  0
  1 35  1  0
  2 36  1  6
  3 37  1  0
  3 38  1  0
  4 39  1  0
  4 40  1  0
  5 41  1  1
  8 42  1  0
  8 43  1  0
  8 44  1  0
  9 45  1  0
  9 46  1  0
  9 47  1  0
 10 48  1  6
 11 49  1  0
 11 50  1  0
 12 51  1  0
 12 52  1  0
 14 53  1  0
 14 54  1  0
 14 55  1  0
 15 56  1  1
 16 57  1  0
 16 58  1  0
 17 59  1  0
 19 60  1  6
 20 61  1  0
 20 62  1  0
 21 63  1  0
 21 64  1  0
 22 65  1  6
 23 66  1  0
 25 67  1  0
 25 68  1  0
 25 69  1  0
 26 70  1  0
 26 71  1  0
 26 72  1  0
 28 73  1  0
 28 74  1  0
 28 75  1  0
 29 76  1  0
 29 77  1  0
 30 78  1  0
 30 79  1  0
 32 80  1  0
 32 81  1  0
 32 82  1  0
M  END
>  <meeko>  (12) 
{"is_sidechain": [false], "intermolecular_energy": 2.731, "internal_energy": -0.839}

$$$$
EPH_relaxed_0001_pdb2pqr_Repair_221_r2_0001_out
     RDKit          3D

 82 86  0  0  0  0  0  0  0  0999 V2000
    0.1220    9.2740   -0.1370 C   0  0  0  0  0  0  0  0  0  0  0  0
   -0.8770   10.3730   -0.5090 C   0  0  2  0  0  0  0  0  0  0  0  0
   -1.1200   10.4460   -2.0300 C   0  0  0  0  0  0  0  0  0  0  0  0
    0.0840   10.0070   -2.8670 C   0  0  0  0  0  0  0  0  0  0  0  0
    0.3220   10.9320   -4.0220 C   0  0  2  0  0  0  0  0  0  0  0  0
    0.9310   10.3170   -5.1660 O   0  0  0  0  0  0  0  0  0  0  0  0
    1.7050   11.3300   -4.5040 C   0  0  0  0  0  0  0  0  0  0  0  0
    2.9420   10.8130   -3.8380 C   0  0  0  0  0  0  0  0  0  0  0  0
    1.8510   12.5910   -5.2960 C   0  0  0  0  0  0  0  0  0  0  0  0
   -0.3830   11.7200    0.0050 C   0  0  1  0  0  0  0  0  0  0  0  0
    0.6780   11.5780    1.1290 C   0  0  0  0  0  0  0  0  0  0  0  0
    1.6800   12.7470    0.9490 C   0  0  0  0  0  0  0  0  0  0  0  0
    0.9880   13.7030   -0.0500 C   0  0  1  0  0  0  0  0  0  0  0  0
   -0.0160   14.5290    0.8140 C   0  0  0  0  0  0  0  0  0  0  0  0
    1.9300   14.6310   -0.8850 C   0  0  2  0  0  0  0  0  0  0  0  0
    2.7610   15.6290   -0.0600 C   0  0  0  0  0  0  0  0  0  0  0  0
    2.1200   16.9570    0.1680 C   0  0  0  0  0  0  0  0  0  0  0  0
    1.0570   17.4380   -0.5030 C   0  0  0  0  0  0  0  0  0  0  0  0
    0.4490   16.6600   -1.6770 C   0  0  1  0  0  0  0  0  0  0  0  0
    0.2050   17.6250   -2.8670 C   0  0  0  0  0  0  0  0  0  0  0  0
   -0.6330   18.8380   -2.4750 C   0  0  0  0  0  0  0  0  0  0  0  0
    0.0340   19.6180   -1.3450 C   0  0  2  0  0  0  0  0  0  0  0  0
    1.2480   20.1940   -1.8360 O   0  0  0  0  0  0  0  0  0  0  0  0
    0.3370   18.7470   -0.0940 C   0  0  0  0  0  0  0  0  0  0  0  0
   -0.9890   18.3720    0.6130 C   0  0  0  0  0  0  0  0  0  0  0  0
    1.1350   19.6190    0.9130 C   0  0  0  0  0  0  0  0  0  0  0  0
    1.2220   15.3410   -2.1090 C   0  0  1  0  0  0  0  0  0  0  0  0
    2.3470   15.6940   -3.1300 C   0  0  0  0  0  0  0  0  0  0  0  0
    0.2240   14.3830   -2.8610 C   0  0  0  0  0  0  0  0  0  0  0  0
   -0.5910   13.4070   -1.9910 C   0  0  0  0  0  0  0  0  0  0  0  0
    0.3160   12.6570   -1.0120 C   0  0  2  0  0  0  0  0  0  0  0  0
    1.3220   11.7990   -1.8530 C   0  0  0  0  0  0  0  0  0  0  0  0
    0.1918    9.1973    0.9581 H   0  0  0  0  0  0  0  0  0  0  0  0
   -0.2186    8.3135   -0.5509 H   0  0  0  0  0  0  0  0  0  0  0  0
    1.1106    9.5217   -0.5509 H   0  0  0  0  0  0  0  0  0  0  0  0
   -1.8367   10.1230   -0.0331 H   0  0  0  0  0  0  0  0  0  0  0  0
   -1.9711    9.7945   -2.2774 H   0  0  0  0  0  0  0  0  0  0  0  0
   -1.3141   11.5008   -2.2744 H   0  0  0  0  0  0  0  0  0  0  0  0
    0.9788    9.9978   -2.2272 H   0  0  0  0  0  0  0  0  0  0  0  0
   -0.1239    9.0039   -3.2677 H   0  0  0  0  0  0  0  0  0  0  0  0
   -0.5676   11.5243   -3.7617 H   0  0  0  0  0  0  0  0  0  0  0  0
    2.8193   10.8643   -2.7461 H   0  0  0  0  0  0  0  0  0  0  0  0
    3.1115    9.7687   -4.1393 H   0  0  0  0  0  0  0  0  0  0  0  0
    3.8042   11.4261   -4.1393 H   0  0  0  0  0  0  0  0  0  0  0  0
    1.9499   13.4453   -4.6102 H   0  0  0  0  0  0  0  0  0  0  0  0
    2.7474   12.5241   -5.9300 H   0  0  0  0  0  0  0  0  0  0  0  0
    0.9630   12.7307   -5.9300 H   0  0  0  0  0  0  0  0  0  0  0  0
   -1.3406   12.1578    0.3234 H   0  0  0  0  0  0  0  0  0  0  0  0
    0.1955   11.6413    2.1155 H   0  0  0  0  0  0  0  0  0  0  0  0
    1.1900   10.6063    1.0682 H   0  0  0  0  0  0  0  0  0  0  0  0
    1.8624   13.2534    1.9083 H   0  0  0  0  0  0  0  0  0  0  0  0
    2.6607   12.4041    0.5875 H   0  0  0  0  0  0  0  0  0  0  0  0
    0.1915   14.3583    1.8807 H   0  0  0  0  0  0  0  0  0  0  0  0
    0.0972   15.5989    0.5851 H   0  0  0  0  0  0  0  0  0  0  0  0
   -1.0441   14.2118    0.5851 H   0  0  0  0  0  0  0  0  0  0  0  0
    2.6528   13.9163   -1.3055 H   0  0  0  0  0  0  0  0  0  0  0  0
    2.9608   15.1750    0.9218 H   0  0  0  0  0  0  0  0  0  0  0  0
    3.6699   15.8267   -0.6472 H   0  0  0  0  0  0  0  0  0  0  0  0
    2.5529   17.5972    0.9508 H   0  0  0  0  0  0  0  0  0  0  0  0
   -0.5114   16.2644   -1.3148 H   0  0  0  0  0  0  0  0  0  0  0  0
    1.1780   17.9751   -3.2421 H   0  0  0  0  0  0  0  0  0  0  0  0
   -0.3507   17.0706   -3.6376 H   0  0  0  0  0  0  0  0  0  0  0  0
   -0.7455   19.4959   -3.3494 H   0  0  0  0  0  0  0  0  0  0  0  0
   -1.6167   18.4886   -2.1283 H   0  0  0  0  0  0  0  0  0  0  0  0
   -0.6722   20.3966   -1.0207 H   0  0  0  0  0  0  0  0  0  0  0  0
    1.9300   19.5010   -1.8210 H   0  0  0  0  0  0  0  0  0  0  0  0
   -0.8474   18.4121    1.7031 H   0  0  0  0  0  0  0  0  0  0  0  0
   -1.7751   19.0831    0.3190 H   0  0  0  0  0  0  0  0  0  0  0  0
   -1.2863   17.3546    0.3190 H   0  0  0  0  0  0  0  0  0  0  0  0
    0.8694   19.3287    1.9402 H   0  0  0  0  0  0  0  0  0  0  0  0
    2.2130   19.4666    0.7561 H   0  0  0  0  0  0  0  0  0  0  0  0
    0.8879   20.6793    0.7561 H   0  0  0  0  0  0  0  0  0  0  0  0
    3.2592   15.9802   -2.5860 H   0  0  0  0  0  0  0  0  0  0  0  0
    2.5565   14.8184   -3.7620 H   0  0  0  0  0  0  0  0  0  0  0  0
    2.0187   16.5323   -3.7620 H   0  0  0  0  0  0  0  0  0  0  0  0
   -0.4897   15.0126   -3.4125 H   0  0  0  0  0  0  0  0  0  0  0  0
    0.8590   13.7441   -3.4924 H   0  0  0  0  0  0  0  0  0  0  0  0
   -1.3431   13.9738   -1.4226 H   0  0  0  0  0  0  0  0  0  0  0  0
   -1.0785   12.6733   -2.6498 H   0  0  0  0  0  0  0  0  0  0  0  0
    1.9809   11.2370   -1.1747 H   0  0  0  0  0  0  0  0  0  0  0  0
    0.7628   11.0955   -2.4873 H   0  0  0  0  0  0  0  0  0  0  0  0
    1.9285   12.4622   -2.4873 H   0  0  0  0  0  0  0  0  0  0  0  0
  1  2  1  0
  2  3  1  0
  3  4  1  0
  4  5  1  0
  5  6  1  0
  6  7  1  0
  7  8  1  0
  7  9  1  0
  2 10  1  0
 10 11  1  0
 11 12  1  0
 12 13  1  0
 13 14  1  1
 13 15  1  0
 15 16  1  0
 16 17  1  0
 17 18  2  0
 18 19  1  0
 19 20  1  0
 20 21  1  0
 21 22  1  0
 22 23  1  0
 22 24  1  0
 24 25  1  0
 24 26  1  0
 19 27  1  0
 27 28  1  6
 27 29  1  0
 29 30  1  0
 30 31  1  0
 31 32  1  6
  7  5  1  0
 31 10  1  0
 31 13  1  0
 27 15  1  0
 24 18  1  0
  1 33  1  0
  1 34  1  0
  1 35  1  0
  2 36  1  1
  3 37  1  0
  3 38  1  0
  4 39  1  0
  4 40  1  0
  5 41  1  6
  8 42  1  0
  8 43  1  0
  8 44  1  0
  9 45  1  0
  9 46  1  0
  9 47  1  0
 10 48  1  1
 11 49  1  0
 11 50  1  0
 12 51  1  0
 12 52  1  0
 14 53  1  0
 14 54  1  0
 14 55  1  0
 15 56  1  6
 16 57  1  0
 16 58  1  0
 17 59  1  0
 19 60  1  1
 20 61  1  0
 20 62  1  0
 21 63  1  0
 21 64  1  0
 22 65  1  1
 23 66  1  0
 25 67  1  0
 25 68  1  0
 25 69  1  0
 26 70  1  0
 26 71  1  0
 26 72  1  0
 28 73  1  0
 28 74  1  0
 28 75  1  0
 29 76  1  0
 29 77  1  0
 30 78  1  0
 30 79  1  0
 32 80  1  0
 32 81  1  0
 32 82  1  0
M  END
>  <meeko>  (13) 
{"is_sidechain": [false], "intermolecular_energy": 2.731, "internal_energy": -0.839}

$$$$
EPH_relaxed_0001_pdb2pqr_Repair_221_r2_0001_out
     RDKit          3D

 82 86  0  0  0  0  0  0  0  0999 V2000
   -2.4760    7.8090    0.0310 C   0  0  0  0  0  0  0  0  0  0  0  0
   -3.1740    9.1670   -0.0760 C   0  0  2  0  0  0  0  0  0  0  0  0
   -4.6270    9.0360   -0.5740 C   0  0  0  0  0  0  0  0  0  0  0  0
   -5.1150    7.5880   -0.6750 C   0  0  0  0  0  0  0  0  0  0  0  0
   -5.9720    7.3750   -1.8860 C   0  0  2  0  0  0  0  0  0  0  0  0
   -6.8970    8.4350   -2.1590 O   0  0  0  0  0  0  0  0  0  0  0  0
   -7.4730    7.1630   -1.8210 C   0  0  0  0  0  0  0  0  0  0  0  0
   -8.2050    7.1540   -0.5160 C   0  0  0  0  0  0  0  0  0  0  0  0
   -8.1500    6.4840   -2.9710 C   0  0  0  0  0  0  0  0  0  0  0  0
   -2.3860   10.0850   -1.0030 C   0  0  1  0  0  0  0  0  0  0  0  0
   -3.0130   11.5000   -1.1170 C   0  0  0  0  0  0  0  0  0  0  0  0
   -1.8370   12.5000   -1.2610 C   0  0  0  0  0  0  0  0  0  0  0  0
   -0.6050   11.6130   -1.5580 C   0  0  1  0  0  0  0  0  0  0  0  0
   -0.6940   11.3030   -3.0850 C   0  0  0  0  0  0  0  0  0  0  0  0
    0.7860   12.2110   -1.1710 C   0  0  2  0  0  0  0  0  0  0  0  0
    1.1730   13.5010   -1.9160 C   0  0  0  0  0  0  0  0  0  0  0  0
    1.9280   13.2990   -3.1880 C   0  0  0  0  0  0  0  0  0  0  0  0
    2.5290   12.1570   -3.5690 C   0  0  0  0  0  0  0  0  0  0  0  0
    2.5660   10.9380   -2.6380 C   0  0  1  0  0  0  0  0  0  0  0  0
    4.0020   10.3520   -2.6100 C   0  0  0  0  0  0  0  0  0  0  0  0
    4.5320   10.0360   -4.0050 C   0  0  0  0  0  0  0  0  0  0  0  0
    4.5340   11.2850   -4.8830 C   0  0  2  0  0  0  0  0  0  0  0  0
    5.4910   12.2130   -4.3630 O   0  0  0  0  0  0  0  0  0  0  0  0
    3.1410   11.9680   -4.9790 C   0  0  0  0  0  0  0  0  0  0  0  0
    2.1820   11.0820   -5.8110 C   0  0  0  0  0  0  0  0  0  0  0  0
    3.3120   13.2900   -5.7760 C   0  0  0  0  0  0  0  0  0  0  0  0
    1.9690   11.1600   -1.1820 C   0  0  1  0  0  0  0  0  0  0  0  0
    3.0730   11.7220   -0.2340 C   0  0  0  0  0  0  0  0  0  0  0  0
    1.5380    9.7680   -0.5850 C   0  0  0  0  0  0  0  0  0  0  0  0
    0.1100    9.2870   -0.9050 C   0  0  0  0  0  0  0  0  0  0  0  0
   -0.9160   10.3890   -0.6220 C   0  0  2  0  0  0  0  0  0  0  0  0
   -0.8650   10.7080    0.9110 C   0  0  0  0  0  0  0  0  0  0  0  0
   -2.3419    7.5482    1.0912 H   0  0  0  0  0  0  0  0  0  0  0  0
   -3.0910    7.0409   -0.4606 H   0  0  0  0  0  0  0  0  0  0  0  0
   -1.4934    7.8620   -0.4606 H   0  0  0  0  0  0  0  0  0  0  0  0
   -3.2097    9.6008    0.9342 H   0  0  0  0  0  0  0  0  0  0  0  0
   -5.2834    9.5758    0.1244 H   0  0  0  0  0  0  0  0  0  0  0  0
   -4.6579    9.4572   -1.5897 H   0  0  0  0  0  0  0  0  0  0  0  0
   -4.2423    6.9210   -0.7341 H   0  0  0  0  0  0  0  0  0  0  0  0
   -5.7203    7.3672    0.2166 H   0  0  0  0  0  0  0  0  0  0  0  0
   -5.1683    6.8139   -2.3853 H   0  0  0  0  0  0  0  0  0  0  0  0
   -7.4799    7.1629    0.3112 H   0  0  0  0  0  0  0  0  0  0  0  0
   -8.8476    8.0443   -0.4499 H   0  0  0  0  0  0  0  0  0  0  0  0
   -8.8255    6.2482   -0.4499 H   0  0  0  0  0  0  0  0  0  0  0  0
   -8.8782    5.7537   -2.5885 H   0  0  0  0  0  0  0  0  0  0  0  0
   -8.6706    7.2339   -3.5847 H   0  0  0  0  0  0  0  0  0  0  0  0
   -7.3986    5.9656   -3.5847 H   0  0  0  0  0  0  0  0  0  0  0  0
   -2.4193    9.4872   -1.9258 H   0  0  0  0  0  0  0  0  0  0  0  0
   -3.6669   11.5546   -1.9999 H   0  0  0  0  0  0  0  0  0  0  0  0
   -3.6241   11.7336   -0.2327 H   0  0  0  0  0  0  0  0  0  0  0  0
   -2.0211   13.1992   -2.0900 H   0  0  0  0  0  0  0  0  0  0  0  0
   -1.7003   13.1158   -0.3599 H   0  0  0  0  0  0  0  0  0  0  0  0
   -0.9949   10.2549   -3.2294 H   0  0  0  0  0  0  0  0  0  0  0  0
   -1.4382   11.9657   -3.5509 H   0  0  0  0  0  0  0  0  0  0  0  0
    0.2884   11.4700   -3.5509 H   0  0  0  0  0  0  0  0  0  0  0  0
    0.6314   12.5071   -0.1229 H   0  0  0  0  0  0  0  0  0  0  0  0
    0.2483   14.0477   -2.1525 H   0  0  0  0  0  0  0  0  0  0  0  0
    1.8490   14.0502   -1.2440 H   0  0  0  0  0  0  0  0  0  0  0  0
    1.9991   14.1573   -3.8724 H   0  0  0  0  0  0  0  0  0  0  0  0
    1.8712   10.2030   -3.0705 H   0  0  0  0  0  0  0  0  0  0  0  0
    4.6723   11.0838   -2.1355 H   0  0  0  0  0  0  0  0  0  0  0  0
    3.9669    9.4091   -2.0446 H   0  0  0  0  0  0  0  0  0  0  0  0
    5.5597    9.6528   -3.9215 H   0  0  0  0  0  0  0  0  0  0  0  0
    3.8773    9.2825   -4.4673 H   0  0  0  0  0  0  0  0  0  0  0  0
    4.8001   10.9710   -5.9031 H   0  0  0  0  0  0  0  0  0  0  0  0
    5.0710   13.0890   -4.3460 H   0  0  0  0  0  0  0  0  0  0  0  0
    1.5455   10.4940   -5.1334 H   0  0  0  0  0  0  0  0  0  0  0  0
    1.5501   11.7210   -6.4454 H   0  0  0  0  0  0  0  0  0  0  0  0
    2.7690   10.4016   -6.4454 H   0  0  0  0  0  0  0  0  0  0  0  0
    3.4206   14.1299   -5.0740 H   0  0  0  0  0  0  0  0  0  0  0  0
    4.2090   13.2230   -6.4092 H   0  0  0  0  0  0  0  0  0  0  0  0
    2.4275   13.4534   -6.4092 H   0  0  0  0  0  0  0  0  0  0  0  0
    2.7708   11.5682    0.8124 H   0  0  0  0  0  0  0  0  0  0  0  0
    4.0208   11.1967   -0.4230 H   0  0  0  0  0  0  0  0  0  0  0  0
    3.2059   12.7975   -0.4230 H   0  0  0  0  0  0  0  0  0  0  0  0
    2.2379    9.0107   -0.9679 H   0  0  0  0  0  0  0  0  0  0  0  0
    1.5579    9.9043    0.5063 H   0  0  0  0  0  0  0  0  0  0  0  0
    0.0540    9.0074   -1.9674 H   0  0  0  0  0  0  0  0  0  0  0  0
   -0.1199    8.4213   -0.2665 H   0  0  0  0  0  0  0  0  0  0  0  0
   -1.0133    9.7806    1.4836 H   0  0  0  0  0  0  0  0  0  0  0  0
    0.1139   11.1419    1.1629 H   0  0  0  0  0  0  0  0  0  0  0  0
   -1.6598   11.4255    1.1629 H   0  0  0  0  0  0  0  0  0  0  0  0
  1  2  1  0
  2  3  1  0
  3  4  1  0
  4  5  1  0
  5  6  1  0
  6  7  1  0
  7  8  1  0
  7  9  1  0
  2 10  1  0
 10 11  1  0
 11 12  1  0
 12 13  1  0
 13 14  1  6
 13 15  1  0
 15 16  1  0
 16 17  1  0
 17 18  2  0
 18 19  1  0
 19 20  1  0
 20 21  1  0
 21 22  1  0
 22 23  1  0
 22 24  1  0
 24 25  1  0
 24 26  1  0
 19 27  1  0
 27 28  1  1
 27 29  1  0
 29 30  1  0
 30 31  1  0
 31 32  1  1
  7  5  1  0
 31 10  1  0
 31 13  1  0
 27 15  1  0
 24 18  1  0
  1 33  1  0
  1 34  1  0
  1 35  1  0
  2 36  1  1
  3 37  1  0
  3 38  1  0
  4 39  1  0
  4 40  1  0
  5 41  1  6
  8 42  1  0
  8 43  1  0
  8 44  1  0
  9 45  1  0
  9 46  1  0
  9 47  1  0
 10 48  1  6
 11 49  1  0
 11 50  1  0
 12 51  1  0
 12 52  1  0
 14 53  1  0
 14 54  1  0
 14 55  1  0
 15 56  1  1
 16 57  1  0
 16 58  1  0
 17 59  1  0
 19 60  1  6
 20 61  1  0
 20 62  1  0
 21 63  1  0
 21 64  1  0
 22 65  1  6
 23 66  1  0
 25 67  1  0
 25 68  1  0
 25 69  1  0
 26 70  1  0
 26 71  1  0
 26 72  1  0
 28 73  1  0
 28 74  1  0
 28 75  1  0
 29 76  1  0
 29 77  1  0
 30 78  1  0
 30 79  1  0
 32 80  1  0
 32 81  1  0
 32 82  1  0
M  END
>  <meeko>  (14) 
{"is_sidechain": [false], "intermolecular_energy": 2.731, "internal_energy": -0.839}

$$$$
EPH_relaxed_0001_pdb2pqr_Repair_221_r2_0001_out
     RDKit          3D

 82 86  0  0  0  0  0  0  0  0999 V2000
   -1.8560   14.5790    0.2290 C   0  0  0  0  0  0  0  0  0  0  0  0
   -0.4990   15.2700    0.3900 C   0  0  2  0  0  0  0  0  0  0  0  0
   -0.3650   16.5060   -0.5220 C   0  0  0  0  0  0  0  0  0  0  0  0
    1.0810   16.9670   -0.7250 C   0  0  0  0  0  0  0  0  0  0  0  0
    1.3150   18.3290   -0.1440 C   0  0  2  0  0  0  0  0  0  0  0  0
    2.1900   19.1650   -0.9120 O   0  0  0  0  0  0  0  0  0  0  0  0
    2.6560   18.7900    0.3940 C   0  0  0  0  0  0  0  0  0  0  0  0
    3.8530   17.8920    0.3790 C   0  0  0  0  0  0  0  0  0  0  0  0
    2.6830   19.9230    1.3720 C   0  0  0  0  0  0  0  0  0  0  0  0
    0.6250   14.2830    0.0990 C   0  0  1  0  0  0  0  0  0  0  0  0
    0.8090   13.2360    1.2300 C   0  0  0  0  0  0  0  0  0  0  0  0
    1.2250   11.9080    0.5470 C   0  0  0  0  0  0  0  0  0  0  0  0
    1.5890   12.3120   -0.9020 C   0  0  1  0  0  0  0  0  0  0  0  0
    3.0450   12.8670   -0.8090 C   0  0  0  0  0  0  0  0  0  0  0  0
    1.4670   11.1890   -1.9830 C   0  0  2  0  0  0  0  0  0  0  0  0
    2.3980    9.9820   -1.7790 C   0  0  0  0  0  0  0  0  0  0  0  0
    3.7320   10.0860   -2.4410 C   0  0  0  0  0  0  0  0  0  0  0  0
    4.0620   10.9700   -3.4000 C   0  0  0  0  0  0  0  0  0  0  0  0
    3.0140   11.9270   -3.9840 C   0  0  1  0  0  0  0  0  0  0  0  0
    3.1200   11.9300   -5.5310 C   0  0  0  0  0  0  0  0  0  0  0  0
    4.5310   12.2410   -6.0210 C   0  0  0  0  0  0  0  0  0  0  0  0
    5.5350   11.2330   -5.4660 C   0  0  2  0  0  0  0  0  0  0  0  0
    5.2600    9.9490   -6.0330 O   0  0  0  0  0  0  0  0  0  0  0  0
    5.5130   11.1360   -3.9150 C   0  0  0  0  0  0  0  0  0  0  0  0
    6.1000   12.4320   -3.3040 C   0  0  0  0  0  0  0  0  0  0  0  0
    6.4680    9.9870   -3.4950 C   0  0  0  0  0  0  0  0  0  0  0  0
    1.5240   11.7170   -3.4740 C   0  0  1  0  0  0  0  0  0  0  0  0
    0.8070   10.6470   -4.3530 C   0  0  0  0  0  0  0  0  0  0  0  0
    0.7210   13.0580   -3.6650 C   0  0  0  0  0  0  0  0  0  0  0  0
    0.7850   14.0760   -2.5100 C   0  0  0  0  0  0  0  0  0  0  0  0
    0.4870   13.4010   -1.1680 C   0  0  2  0  0  0  0  0  0  0  0  0
   -0.9790   12.8520   -1.2230 C   0  0  0  0  0  0  0  0  0  0  0  0
   -2.2781   14.3641    1.2218 H   0  0  0  0  0  0  0  0  0  0  0  0
   -2.5399   15.2386   -0.3252 H   0  0  0  0  0  0  0  0  0  0  0  0
   -1.7248   13.6379   -0.3252 H   0  0  0  0  0  0  0  0  0  0  0  0
   -0.4267   15.6186    1.4308 H   0  0  0  0  0  0  0  0  0  0  0  0
   -0.7924   16.2601   -1.5053 H   0  0  0  0  0  0  0  0  0  0  0  0
   -0.8988   17.3305   -0.0267 H   0  0  0  0  0  0  0  0  0  0  0  0
    1.7560   16.2497   -0.2353 H   0  0  0  0  0  0  0  0  0  0  0  0
    1.2766   17.0170   -1.8063 H   0  0  0  0  0  0  0  0  0  0  0  0
    0.3027   18.3451    0.2861 H   0  0  0  0  0  0  0  0  0  0  0  0
    4.1546   17.6657    1.4124 H   0  0  0  0  0  0  0  0  0  0  0  0
    3.6031   16.9566   -0.1432 H   0  0  0  0  0  0  0  0  0  0  0  0
    4.6811   18.3935   -0.1432 H   0  0  0  0  0  0  0  0  0  0  0  0
    2.6735   19.5232    2.3967 H   0  0  0  0  0  0  0  0  0  0  0  0
    3.5956   20.5178    1.2190 H   0  0  0  0  0  0  0  0  0  0  0  0
    1.7998   20.5606    1.2190 H   0  0  0  0  0  0  0  0  0  0  0  0
    1.4615   14.9870   -0.0217 H   0  0  0  0  0  0  0  0  0  0  0  0
    1.5936   13.5654    1.9271 H   0  0  0  0  0  0  0  0  0  0  0  0
   -0.1195   13.1098    1.8061 H   0  0  0  0  0  0  0  0  0  0  0  0
    2.0933   11.4647    1.0564 H   0  0  0  0  0  0  0  0  0  0  0  0
    0.4259   11.1528    0.5814 H   0  0  0  0  0  0  0  0  0  0  0  0
    3.3293   12.9754    0.2481 H   0  0  0  0  0  0  0  0  0  0  0  0
    3.7358   12.1691   -1.3048 H   0  0  0  0  0  0  0  0  0  0  0  0
    3.0960   13.8476   -1.3048 H   0  0  0  0  0  0  0  0  0  0  0  0
    0.4477   10.8107   -1.8158 H   0  0  0  0  0  0  0  0  0  0  0  0
    2.5635    9.8593   -0.6985 H   0  0  0  0  0  0  0  0  0  0  0  0
    1.8920    9.1250   -2.2475 H   0  0  0  0  0  0  0  0  0  0  0  0
    4.5111    9.3801   -2.1173 H   0  0  0  0  0  0  0  0  0  0  0  0
    3.2609   12.9247   -3.5921 H   0  0  0  0  0  0  0  0  0  0  0  0
    2.8272   10.9383   -5.9063 H   0  0  0  0  0  0  0  0  0  0  0  0
    2.4540   12.7194   -5.9094 H   0  0  0  0  0  0  0  0  0  0  0  0
    4.5481   12.1986   -7.1200 H   0  0  0  0  0  0  0  0  0  0  0  0
    4.8113   13.2454   -5.6709 H   0  0  0  0  0  0  0  0  0  0  0  0
    6.5406   11.5823   -5.7432 H   0  0  0  0  0  0  0  0  0  0  0  0
    5.3380   10.0300   -6.9990 H   0  0  0  0  0  0  0  0  0  0  0  0
    6.0702   12.3661   -2.2064 H   0  0  0  0  0  0  0  0  0  0  0  0
    7.1416   12.5547   -3.6358 H   0  0  0  0  0  0  0  0  0  0  0  0
    5.5053   13.2959   -3.6358 H   0  0  0  0  0  0  0  0  0  0  0  0
    6.5142    9.9314   -2.3974 H   0  0  0  0  0  0  0  0  0  0  0  0
    6.0926    9.0335   -3.8950 H   0  0  0  0  0  0  0  0  0  0  0  0
    7.4740   10.1817   -3.8950 H   0  0  0  0  0  0  0  0  0  0  0  0
    0.3130    9.9098   -3.7031 H   0  0  0  0  0  0  0  0  0  0  0  0
    0.0550   11.1382   -4.9880 H   0  0  0  0  0  0  0  0  0  0  0  0
    1.5472   10.1383   -4.9880 H   0  0  0  0  0  0  0  0  0  0  0  0
    1.1097   13.5532   -4.5671 H   0  0  0  0  0  0  0  0  0  0  0  0
   -0.3349   12.7555   -3.7243 H   0  0  0  0  0  0  0  0  0  0  0  0
    1.7918   14.5178   -2.4750 H   0  0  0  0  0  0  0  0  0  0  0  0
    0.0288   14.8551   -2.6866 H   0  0  0  0  0  0  0  0  0  0  0  0
   -1.3563   12.7107   -0.1994 H   0  0  0  0  0  0  0  0  0  0  0  0
   -1.6201   13.5710   -1.7541 H   0  0  0  0  0  0  0  0  0  0  0  0
   -0.9901   11.8888   -1.7541 H   0  0  0  0  0  0  0  0  0  0  0  0
  1  2  1  0
  2  3  1  0
  3  4  1  0
  4  5  1  0
  5  6  1  0
  6  7  1  0
  7  8  1  0
  7  9  1  0
  2 10  1  0
 10 11  1  0
 11 12  1  0
 12 13  1  0
 13 14  1  1
 13 15  1  0
 15 16  1  0
 16 17  1  0
 17 18  2  0
 18 19  1  0
 19 20  1  0
 20 21  1  0
 21 22  1  0
 22 23  1  0
 22 24  1  0
 24 25  1  0
 24 26  1  0
 19 27  1  0
 27 28  1  6
 27 29  1  0
 29 30  1  0
 30 31  1  0
 31 32  1  6
  7  5  1  0
 31 10  1  0
 31 13  1  0
 27 15  1  0
 24 18  1  0
  1 33  1  0
  1 34  1  0
  1 35  1  0
  2 36  1  1
  3 37  1  0
  3 38  1  0
  4 39  1  0
  4 40  1  0
  5 41  1  1
  8 42  1  0
  8 43  1  0
  8 44  1  0
  9 45  1  0
  9 46  1  0
  9 47  1  0
 10 48  1  6
 11 49  1  0
 11 50  1  0
 12 51  1  0
 12 52  1  0
 14 53  1  0
 14 54  1  0
 14 55  1  0
 15 56  1  1
 16 57  1  0
 16 58  1  0
 17 59  1  0
 19 60  1  1
 20 61  1  0
 20 62  1  0
 21 63  1  0
 21 64  1  0
 22 65  1  1
 23 66  1  0
 25 67  1  0
 25 68  1  0
 25 69  1  0
 26 70  1  0
 26 71  1  0
 26 72  1  0
 28 73  1  0
 28 74  1  0
 28 75  1  0
 29 76  1  0
 29 77  1  0
 30 78  1  0
 30 79  1  0
 32 80  1  0
 32 81  1  0
 32 82  1  0
M  END
>  <meeko>  (15) 
{"is_sidechain": [false], "intermolecular_energy": 2.731, "internal_energy": -0.839}

$$$$
EPH_relaxed_0001_pdb2pqr_Repair_221_r2_0001_out
     RDKit          3D

 82 86  0  0  0  0  0  0  0  0999 V2000
    4.2150   16.8260    0.6450 C   0  0  0  0  0  0  0  0  0  0  0  0
    2.9750   17.3300   -0.0990 C   0  0  2  0  0  0  0  0  0  0  0  0
    2.4510   18.6600    0.4800 C   0  0  0  0  0  0  0  0  0  0  0  0
    2.2200   19.7430   -0.5770 C   0  0  0  0  0  0  0  0  0  0  0  0
    1.5180   19.1990   -1.7840 C   0  0  2  0  0  0  0  0  0  0  0  0
    1.0560   20.1950   -2.7070 O   0  0  0  0  0  0  0  0  0  0  0  0
    0.0410   19.4110   -2.0590 C   0  0  0  0  0  0  0  0  0  0  0  0
   -0.8230   20.1930   -1.1200 C   0  0  0  0  0  0  0  0  0  0  0  0
   -0.6610   18.4570   -2.9750 C   0  0  0  0  0  0  0  0  0  0  0  0
    1.8770   16.2740   -0.0550 C   0  0  1  0  0  0  0  0  0  0  0  0
    0.4530   16.8910   -0.0720 C   0  0  0  0  0  0  0  0  0  0  0  0
   -0.4460   15.9190   -0.8780 C   0  0  0  0  0  0  0  0  0  0  0  0
    0.3970   14.6290   -1.0130 C   0  0  1  0  0  0  0  0  0  0  0  0
    0.2040   13.8810    0.3430 C   0  0  0  0  0  0  0  0  0  0  0  0
    0.0620   13.7090   -2.2320 C   0  0  2  0  0  0  0  0  0  0  0  0
   -1.3620   13.1250   -2.2370 C   0  0  0  0  0  0  0  0  0  0  0  0
   -1.5120   11.8040   -1.5580 C   0  0  0  0  0  0  0  0  0  0  0  0
   -0.5030   10.9810   -1.2180 C   0  0  0  0  0  0  0  0  0  0  0  0
    0.9460   11.3080   -1.6040 C   0  0  1  0  0  0  0  0  0  0  0  0
    1.6220   10.0440   -2.1960 C   0  0  0  0  0  0  0  0  0  0  0  0
    1.5240    8.8380   -1.2660 C   0  0  0  0  0  0  0  0  0  0  0  0
    0.0670    8.5080   -0.9520 C   0  0  2  0  0  0  0  0  0  0  0  0
   -0.5720    8.0600   -2.1500 O   0  0  0  0  0  0  0  0  0  0  0  0
   -0.7190    9.7110   -0.3580 C   0  0  0  0  0  0  0  0  0  0  0  0
   -0.2170   10.0040    1.0770 C   0  0  0  0  0  0  0  0  0  0  0  0
   -2.2060    9.2870   -0.2200 C   0  0  0  0  0  0  0  0  0  0  0  0
    1.1460   12.5920   -2.5180 C   0  0  1  0  0  0  0  0  0  0  0  0
    0.9980   12.2040   -4.0210 C   0  0  0  0  0  0  0  0  0  0  0  0
    2.6160   13.1260   -2.3400 C   0  0  0  0  0  0  0  0  0  0  0  0
    2.8590   14.1240   -1.1920 C   0  0  0  0  0  0  0  0  0  0  0  0
    1.8240   15.2540   -1.2200 C   0  0  2  0  0  0  0  0  0  0  0  0
    2.0080   16.0380   -2.5630 C   0  0  0  0  0  0  0  0  0  0  0  0
    4.0451   16.8950    1.7296 H   0  0  0  0  0  0  0  0  0  0  0  0
    4.4071   15.7784    0.3699 H   0  0  0  0  0  0  0  0  0  0  0  0
    5.0835   17.4425    0.3699 H   0  0  0  0  0  0  0  0  0  0  0  0
    3.2686   17.5172   -1.1424 H   0  0  0  0  0  0  0  0  0  0  0  0
    1.4967   18.4643    0.9909 H   0  0  0  0  0  0  0  0  0  0  0  0
    3.2239   19.0390    1.1649 H   0  0  0  0  0  0  0  0  0  0  0  0
    1.6065   20.5439   -0.1386 H   0  0  0  0  0  0  0  0  0  0  0  0
    3.2007   20.1267   -0.8947 H   0  0  0  0  0  0  0  0  0  0  0  0
    2.1432   18.2941   -1.7694 H   0  0  0  0  0  0  0  0  0  0  0  0
   -0.5522   19.9479   -0.0824 H   0  0  0  0  0  0  0  0  0  0  0  0
   -0.6732   21.2688   -1.2937 H   0  0  0  0  0  0  0  0  0  0  0  0
   -1.8786   19.9370   -1.2937 H   0  0  0  0  0  0  0  0  0  0  0  0
   -1.2089   17.7124   -2.3789 H   0  0  0  0  0  0  0  0  0  0  0  0
   -1.3683   19.0112   -3.6095 H   0  0  0  0  0  0  0  0  0  0  0  0
    0.0785   17.9466   -3.6095 H   0  0  0  0  0  0  0  0  0  0  0  0
    2.1502   15.7636    0.8803 H   0  0  0  0  0  0  0  0  0  0  0  0
    0.0729   16.9949    0.9550 H   0  0  0  0  0  0  0  0  0  0  0  0
    0.4616   17.8916   -0.5288 H   0  0  0  0  0  0  0  0  0  0  0  0
   -1.3819   15.7164   -0.3366 H   0  0  0  0  0  0  0  0  0  0  0  0
   -0.7357   16.3322   -1.8554 H   0  0  0  0  0  0  0  0  0  0  0  0
    0.3838   14.5778    1.1749 H   0  0  0  0  0  0  0  0  0  0  0  0
   -0.8236   13.4934    0.4049 H   0  0  0  0  0  0  0  0  0  0  0  0
    0.9157   13.0446    0.4049 H   0  0  0  0  0  0  0  0  0  0  0  0
    0.0988   14.4132   -3.0763 H   0  0  0  0  0  0  0  0  0  0  0  0
   -2.0257   13.8433   -1.7334 H   0  0  0  0  0  0  0  0  0  0  0  0
   -1.6173   12.9548   -3.2933 H   0  0  0  0  0  0  0  0  0  0  0  0
   -2.5334   11.4757   -1.3151 H   0  0  0  0  0  0  0  0  0  0  0  0
    1.4515   11.5987   -0.6713 H   0  0  0  0  0  0  0  0  0  0  0  0
    1.1316    9.7953   -3.1487 H   0  0  0  0  0  0  0  0  0  0  0  0
    2.6890   10.2711   -2.3370 H   0  0  0  0  0  0  0  0  0  0  0  0
    1.9931    7.9697   -1.7518 H   0  0  0  0  0  0  0  0  0  0  0  0
    2.0404    9.0777   -0.3248 H   0  0  0  0  0  0  0  0  0  0  0  0
    0.0646    7.7216   -0.1829 H   0  0  0  0  0  0  0  0  0  0  0  0
   -1.2590    8.7090   -2.3790 H   0  0  0  0  0  0  0  0  0  0  0  0
   -0.9283    9.5888    1.8062 H   0  0  0  0  0  0  0  0  0  0  0  0
    0.7697    9.5400    1.2222 H   0  0  0  0  0  0  0  0  0  0  0  0
   -0.1358   11.0913    1.2222 H   0  0  0  0  0  0  0  0  0  0  0  0
   -2.4686    9.2121    0.8456 H   0  0  0  0  0  0  0  0  0  0  0  0
   -2.8478   10.0379   -0.7039 H   0  0  0  0  0  0  0  0  0  0  0  0
   -2.3553    8.3105   -0.7039 H   0  0  0  0  0  0  0  0  0  0  0  0
    0.6069   11.1788   -4.0982 H   0  0  0  0  0  0  0  0  0  0  0  0
    0.3022   12.8999   -4.5125 H   0  0  0  0  0  0  0  0  0  0  0  0
    1.9805   12.2597   -4.5125 H   0  0  0  0  0  0  0  0  0  0  0  0
    3.2673   12.2563   -2.1682 H   0  0  0  0  0  0  0  0  0  0  0  0
    2.8309   13.6887   -3.2604 H   0  0  0  0  0  0  0  0  0  0  0  0
    2.7859   13.5927   -0.2316 H   0  0  0  0  0  0  0  0  0  0  0  0
    3.8605   14.5622   -1.3140 H   0  0  0  0  0  0  0  0  0  0  0  0
    2.2543   17.0875   -2.3441 H   0  0  0  0  0  0  0  0  0  0  0  0
    2.8239   15.5834   -3.1441 H   0  0  0  0  0  0  0  0  0  0  0  0
    1.0751   15.9938   -3.1441 H   0  0  0  0  0  0  0  0  0  0  0  0
  1  2  1  0
  2  3  1  0
  3  4  1  0
  4  5  1  0
  5  6  1  0
  6  7  1  0
  7  8  1  0
  7  9  1  0
  2 10  1  0
 10 11  1  0
 11 12  1  0
 12 13  1  0
 13 14  1  1
 13 15  1  0
 15 16  1  0
 16 17  1  0
 17 18  2  0
 18 19  1  0
 19 20  1  0
 20 21  1  0
 21 22  1  0
 22 23  1  0
 22 24  1  0
 24 25  1  0
 24 26  1  0
 19 27  1  0
 27 28  1  6
 27 29  1  0
 29 30  1  0
 30 31  1  0
 31 32  1  6
  7  5  1  0
 31 10  1  0
 31 13  1  0
 27 15  1  0
 24 18  1  0
  1 33  1  0
  1 34  1  0
  1 35  1  0
  2 36  1  6
  3 37  1  0
  3 38  1  0
  4 39  1  0
  4 40  1  0
  5 41  1  6
  8 42  1  0
  8 43  1  0
  8 44  1  0
  9 45  1  0
  9 46  1  0
  9 47  1  0
 10 48  1  1
 11 49  1  0
 11 50  1  0
 12 51  1  0
 12 52  1  0
 14 53  1  0
 14 54  1  0
 14 55  1  0
 15 56  1  6
 16 57  1  0
 16 58  1  0
 17 59  1  0
 19 60  1  1
 20 61  1  0
 20 62  1  0
 21 63  1  0
 21 64  1  0
 22 65  1  1
 23 66  1  0
 25 67  1  0
 25 68  1  0
 25 69  1  0
 26 70  1  0
 26 71  1  0
 26 72  1  0
 28 73  1  0
 28 74  1  0
 28 75  1  0
 29 76  1  0
 29 77  1  0
 30 78  1  0
 30 79  1  0
 32 80  1  0
 32 81  1  0
 32 82  1  0
M  END
>  <meeko>  (16) 
{"is_sidechain": [false], "intermolecular_energy": 2.731, "internal_energy": -0.839}

$$$$
