EPH_relaxed_0001_pdb2pqr_Repair_156_r2_0001_out
     RDKit          3D

 82 86  0  0  0  0  0  0  0  0999 V2000
   -1.6920    8.5890   -1.8810 C   0  0  0  0  0  0  0  0  0  0  0  0
   -2.0750    9.1150   -0.4950 C   0  0  2  0  0  0  0  0  0  0  0  0
   -3.5690    9.4830   -0.4050 C   0  0  0  0  0  0  0  0  0  0  0  0
   -4.4950    8.2710   -0.2710 C   0  0  0  0  0  0  0  0  0  0  0  0
   -5.1830    7.9530   -1.5640 C   0  0  2  0  0  0  0  0  0  0  0  0
   -6.3560    8.7340   -1.8250 O   0  0  0  0  0  0  0  0  0  0  0  0
   -6.5620    7.3240   -1.6450 C   0  0  0  0  0  0  0  0  0  0  0  0
   -7.3340    6.9740   -0.4110 C   0  0  0  0  0  0  0  0  0  0  0  0
   -6.9470    6.6050   -2.9000 C   0  0  0  0  0  0  0  0  0  0  0  0
   -1.2180   10.3260   -0.1440 C   0  0  1  0  0  0  0  0  0  0  0  0
   -0.1880   10.0240    0.9780 C   0  0  0  0  0  0  0  0  0  0  0  0
    1.0810   10.8540    0.6540 C   0  0  0  0  0  0  0  0  0  0  0  0
    0.6280   11.8480   -0.4410 C   0  0  1  0  0  0  0  0  0  0  0  0
   -0.0820   13.0020    0.3340 C   0  0  0  0  0  0  0  0  0  0  0  0
    1.7490   12.3910   -1.3860 C   0  0  2  0  0  0  0  0  0  0  0  0
    2.8490   13.2110   -0.6900 C   0  0  0  0  0  0  0  0  0  0  0  0
    2.5960   14.6800   -0.6090 C   0  0  0  0  0  0  0  0  0  0  0  0
    1.6730   15.3550   -1.3200 C   0  0  0  0  0  0  0  0  0  0  0  0
    0.8310   14.6480   -2.3900 C   0  0  1  0  0  0  0  0  0  0  0  0
    0.8050   15.5090   -3.6800 C   0  0  0  0  0  0  0  0  0  0  0  0
    0.3380   16.9380   -3.4200 C   0  0  0  0  0  0  0  0  0  0  0  0
    1.2350   17.6260   -2.3940 C   0  0  2  0  0  0  0  0  0  0  0  0
    2.5370   17.7970   -2.9610 O   0  0  0  0  0  0  0  0  0  0  0  0
    1.3460   16.8450   -1.0550 C   0  0  0  0  0  0  0  0  0  0  0  0
   -0.0010   16.9200   -0.2960 C   0  0  0  0  0  0  0  0  0  0  0  0
    2.3880   17.5720   -0.1630 C   0  0  0  0  0  0  0  0  0  0  0  0
    1.2060   13.1300   -2.6760 C   0  0  1  0  0  0  0  0  0  0  0  0
    2.3410   13.0550   -3.7430 C   0  0  0  0  0  0  0  0  0  0  0  0
   -0.0410   12.4020   -3.3030 C   0  0  0  0  0  0  0  0  0  0  0  0
   -1.0510   11.7820   -2.3180 C   0  0  0  0  0  0  0  0  0  0  0  0
   -0.3370   10.9240   -1.2690 C   0  0  2  0  0  0  0  0  0  0  0  0
    0.3680    9.7420   -2.0170 C   0  0  0  0  0  0  0  0  0  0  0  0
   -1.0477    7.7041   -1.7722 H   0  0  0  0  0  0  0  0  0  0  0  0
   -2.6026    8.3138   -2.4333 H   0  0  0  0  0  0  0  0  0  0  0  0
   -1.1505    9.3712   -2.4333 H   0  0  0  0  0  0  0  0  0  0  0  0
   -1.8909    8.3066    0.2279 H   0  0  0  0  0  0  0  0  0  0  0  0
   -3.7149   10.1301    0.4725 H   0  0  0  0  0  0  0  0  0  0  0  0
   -3.8331    9.9865   -1.3467 H   0  0  0  0  0  0  0  0  0  0  0  0
   -3.8993    7.3999    0.0394 H   0  0  0  0  0  0  0  0  0  0  0  0
   -5.2651    8.5091    0.4775 H   0  0  0  0  0  0  0  0  0  0  0  0
   -4.2248    7.6940   -2.0380 H   0  0  0  0  0  0  0  0  0  0  0  0
   -6.7445    7.2413    0.4784 H   0  0  0  0  0  0  0  0  0  0  0  0
   -8.2832    7.5298   -0.4024 H   0  0  0  0  0  0  0  0  0  0  0  0
   -7.5415    5.8938   -0.4024 H   0  0  0  0  0  0  0  0  0  0  0  0
   -7.4518    5.6623   -2.6423 H   0  0  0  0  0  0  0  0  0  0  0  0
   -7.6278    7.2361   -3.4900 H   0  0  0  0  0  0  0  0  0  0  0  0
   -6.0443    6.3882   -3.4900 H   0  0  0  0  0  0  0  0  0  0  0  0
   -2.0095   11.0381    0.1324 H   0  0  0  0  0  0  0  0  0  0  0  0
   -0.5951   10.3203    1.9560 H   0  0  0  0  0  0  0  0  0  0  0  0
    0.0433    8.9496    1.0237 H   0  0  0  0  0  0  0  0  0  0  0  0
    1.4310   11.3928    1.5468 H   0  0  0  0  0  0  0  0  0  0  0  0
    1.9191   10.2229    0.3236 H   0  0  0  0  0  0  0  0  0  0  0  0
    0.0210   12.8345    1.4163 H   0  0  0  0  0  0  0  0  0  0  0  0
    0.3813   13.9630    0.0659 H   0  0  0  0  0  0  0  0  0  0  0  0
   -1.1487   13.0217    0.0659 H   0  0  0  0  0  0  0  0  0  0  0  0
    2.2376   11.4669   -1.7284 H   0  0  0  0  0  0  0  0  0  0  0  0
    2.9605   12.8285    0.3353 H   0  0  0  0  0  0  0  0  0  0  0  0
    3.7525   13.0918   -1.3060 H   0  0  0  0  0  0  0  0  0  0  0  0
    3.2159   15.2600    0.0905 H   0  0  0  0  0  0  0  0  0  0  0  0
   -0.1844   14.5674   -1.9747 H   0  0  0  0  0  0  0  0  0  0  0  0
    1.8199   15.5411   -4.1031 H   0  0  0  0  0  0  0  0  0  0  0  0
    0.0907   15.0457   -4.3765 H   0  0  0  0  0  0  0  0  0  0  0  0
    0.3690   17.5042   -4.3626 H   0  0  0  0  0  0  0  0  0  0  0  0
   -0.6880   16.9060   -3.0246 H   0  0  0  0  0  0  0  0  0  0  0  0
    0.7763   18.5963   -2.1532 H   0  0  0  0  0  0  0  0  0  0  0  0
    2.8400   18.6940   -2.7380 H   0  0  0  0  0  0  0  0  0  0  0  0
    0.1877   16.9095    0.7876 H   0  0  0  0  0  0  0  0  0  0  0  0
   -0.5240   17.8487   -0.5681 H   0  0  0  0  0  0  0  0  0  0  0  0
   -0.6239   16.0551   -0.5681 H   0  0  0  0  0  0  0  0  0  0  0  0
    2.1454   17.4027    0.8965 H   0  0  0  0  0  0  0  0  0  0  0  0
    3.3924   17.1776   -0.3767 H   0  0  0  0  0  0  0  0  0  0  0  0
    2.3646   18.6508   -0.3767 H   0  0  0  0  0  0  0  0  0  0  0  0
    3.3158   12.9906   -3.2375 H   0  0  0  0  0  0  0  0  0  0  0  0
    2.1946   12.1646   -4.3721 H   0  0  0  0  0  0  0  0  0  0  0  0
    2.3131   13.9569   -4.3721 H   0  0  0  0  0  0  0  0  0  0  0  0
   -0.5825   13.1376   -3.9159 H   0  0  0  0  0  0  0  0  0  0  0  0
    0.3739   11.5513   -3.8636 H   0  0  0  0  0  0  0  0  0  0  0  0
   -1.6000   12.5886   -1.8101 H   0  0  0  0  0  0  0  0  0  0  0  0
   -1.7440   11.1412   -2.8829 H   0  0  0  0  0  0  0  0  0  0  0  0
    0.7867    9.0400   -1.2809 H   0  0  0  0  0  0  0  0  0  0  0  0
   -0.3652    9.2179   -2.6477 H   0  0  0  0  0  0  0  0  0  0  0  0
    1.1775   10.1381   -2.6477 H   0  0  0  0  0  0  0  0  0  0  0  0
  1  2  1  0
  2  3  1  0
  3  4  1  0
  4  5  1  0
  5  6  1  0
  6  7  1  0
  7  8  1  0
  7  9  1  0
  2 10  1  0
 10 11  1  0
 11 12  1  0
 12 13  1  0
 13 14  1  1
 13 15  1  0
 15 16  1  0
 16 17  1  0
 17 18  2  0
 18 19  1  0
 19 20  1  0
 20 21  1  0
 21 22  1  0
 22 23  1  0
 22 24  1  0
 24 25  1  0
 24 26  1  0
 19 27  1  0
 27 28  1  6
 27 29  1  0
 29 30  1  0
 30 31  1  0
 31 32  1  6
  7  5  1  0
 31 10  1  0
 31 13  1  0
 27 15  1  0
 24 18  1  0
  1 33  1  0
  1 34  1  0
  1 35  1  0
  2 36  1  1
  3 37  1  0
  3 38  1  0
  4 39  1  0
  4 40  1  0
  5 41  1  6
  8 42  1  0
  8 43  1  0
  8 44  1  0
  9 45  1  0
  9 46  1  0
  9 47  1  0
 10 48  1  1
 11 49  1  0
 11 50  1  0
 12 51  1  0
 12 52  1  0
 14 53  1  0
 14 54  1  0
 14 55  1  0
 15 56  1  6
 16 57  1  0
 16 58  1  0
 17 59  1  0
 19 60  1  1
 20 61  1  0
 20 62  1  0
 21 63  1  0
 21 64  1  0
 22 65  1  1
 23 66  1  0
 25 67  1  0
 25 68  1  0
 25 69  1  0
 26 70  1  0
 26 71  1  0
 26 72  1  0
 28 73  1  0
 28 74  1  0
 28 75  1  0
 29 76  1  0
 29 77  1  0
 30 78  1  0
 30 79  1  0
 32 80  1  0
 32 81  1  0
 32 82  1  0
M  END
>  <meeko>  (1) 
{"is_sidechain": [false], "intermolecular_energy": 2.731, "internal_energy": -0.839}

$$$$
EPH_relaxed_0001_pdb2pqr_Repair_156_r2_0001_out
     RDKit          3D

 82 86  0  0  0  0  0  0  0  0999 V2000
    4.2380   17.5800   -0.6150 C   0  0  0  0  0  0  0  0  0  0  0  0
    2.8830   18.1430   -0.1790 C   0  0  2  0  0  0  0  0  0  0  0  0
    2.9530   18.8190    1.2050 C   0  0  0  0  0  0  0  0  0  0  0  0
    4.3100   18.6640    1.8970 C   0  0  0  0  0  0  0  0  0  0  0  0
    4.3200   19.3120    3.2490 C   0  0  2  0  0  0  0  0  0  0  0  0
    5.4280   20.1900    3.4840 O   0  0  0  0  0  0  0  0  0  0  0  0
    5.3620   19.0160    4.3110 C   0  0  0  0  0  0  0  0  0  0  0  0
    6.4680   18.0380    4.0670 C   0  0  0  0  0  0  0  0  0  0  0  0
    5.0290   19.3040    5.7410 C   0  0  0  0  0  0  0  0  0  0  0  0
    1.8390   17.0310   -0.1630 C   0  0  1  0  0  0  0  0  0  0  0  0
    0.4060   17.5540   -0.4440 C   0  0  0  0  0  0  0  0  0  0  0  0
   -0.3240   16.4470   -1.2480 C   0  0  0  0  0  0  0  0  0  0  0  0
    0.5870   15.2050   -1.1170 C   0  0  1  0  0  0  0  0  0  0  0  0
    0.2390   14.5970    0.2780 C   0  0  0  0  0  0  0  0  0  0  0  0
    0.4720   14.1390   -2.2560 C   0  0  2  0  0  0  0  0  0  0  0  0
   -0.9080   13.4720   -2.3870 C   0  0  0  0  0  0  0  0  0  0  0  0
   -1.0920   12.2250   -1.5860 C   0  0  0  0  0  0  0  0  0  0  0  0
   -0.1050   11.5070   -1.0190 C   0  0  0  0  0  0  0  0  0  0  0  0
    1.3670   11.8790   -1.2400 C   0  0  1  0  0  0  0  0  0  0  0  0
    2.1780   10.6030   -1.5840 C   0  0  0  0  0  0  0  0  0  0  0  0
    2.0050    9.5010   -0.5430 C   0  0  0  0  0  0  0  0  0  0  0  0
    0.5350    9.1180   -0.3940 C   0  0  2  0  0  0  0  0  0  0  0  0
    0.0930    8.5030   -1.6090 O   0  0  0  0  0  0  0  0  0  0  0  0
   -0.3820   10.3260   -0.0560 C   0  0  0  0  0  0  0  0  0  0  0  0
   -0.1030   10.8030    1.3910 C   0  0  0  0  0  0  0  0  0  0  0  0
   -1.8530    9.8290   -0.0740 C   0  0  0  0  0  0  0  0  0  0  0  0
    1.6360   13.0670   -2.2610 C   0  0  1  0  0  0  0  0  0  0  0  0
    1.7220   12.5100   -3.7150 C   0  0  0  0  0  0  0  0  0  0  0  0
    3.0400   13.7070   -1.9470 C   0  0  0  0  0  0  0  0  0  0  0  0
    3.0710   14.8360   -0.8990 C   0  0  0  0  0  0  0  0  0  0  0  0
    2.0000   15.8900   -1.1980 C   0  0  2  0  0  0  0  0  0  0  0  0
    2.3370   16.5350   -2.5860 C   0  0  0  0  0  0  0  0  0  0  0  0
    4.8354   17.3318    0.2747 H   0  0  0  0  0  0  0  0  0  0  0  0
    4.0816   16.6724   -1.2165 H   0  0  0  0  0  0  0  0  0  0  0  0
    4.7708   18.3312   -1.2165 H   0  0  0  0  0  0  0  0  0  0  0  0
    2.5947   18.9139   -0.9088 H   0  0  0  0  0  0  0  0  0  0  0  0
    2.7483   19.8923    1.0781 H   0  0  0  0  0  0  0  0  0  0  0  0
    2.2076   18.3226    1.8436 H   0  0  0  0  0  0  0  0  0  0  0  0
    4.5305   17.5926    2.0135 H   0  0  0  0  0  0  0  0  0  0  0  0
    5.0708   19.1575    1.2745 H   0  0  0  0  0  0  0  0  0  0  0  0
    3.2204   19.3231    3.2775 H   0  0  0  0  0  0  0  0  0  0  0  0
    6.8657   17.6863    5.0304 H   0  0  0  0  0  0  0  0  0  0  0  0
    6.0807   17.1815    3.4956 H   0  0  0  0  0  0  0  0  0  0  0  0
    7.2706   18.5272    3.4956 H   0  0  0  0  0  0  0  0  0  0  0  0
    5.6971   18.7262    6.3966 H   0  0  0  0  0  0  0  0  0  0  0  0
    5.1601   20.3781    5.9389 H   0  0  0  0  0  0  0  0  0  0  0  0
    3.9850   19.0194    5.9389 H   0  0  0  0  0  0  0  0  0  0  0  0
    1.9991   16.6416    0.8532 H   0  0  0  0  0  0  0  0  0  0  0  0
   -0.1204   17.7442    0.5030 H   0  0  0  0  0  0  0  0  0  0  0  0
    0.4334   18.4985   -1.0071 H   0  0  0  0  0  0  0  0  0  0  0  0
   -1.3173   16.2470   -0.8197 H   0  0  0  0  0  0  0  0  0  0  0  0
   -0.4900   16.7339   -2.2969 H   0  0  0  0  0  0  0  0  0  0  0  0
    0.6176   15.2585    1.0711 H   0  0  0  0  0  0  0  0  0  0  0  0
   -0.8524   14.4982    0.3730 H   0  0  0  0  0  0  0  0  0  0  0  0
    0.7066   13.6059    0.3730 H   0  0  0  0  0  0  0  0  0  0  0  0
    0.5968   14.7482   -3.1634 H   0  0  0  0  0  0  0  0  0  0  0  0
   -1.6686   14.1984   -2.0648 H   0  0  0  0  0  0  0  0  0  0  0  0
   -1.0030   13.1734   -3.4414 H   0  0  0  0  0  0  0  0  0  0  0  0
   -2.1214   11.8627   -1.4478 H   0  0  0  0  0  0  0  0  0  0  0  0
    1.7204   12.2997   -0.2871 H   0  0  0  0  0  0  0  0  0  0  0  0
    1.8401   10.2228   -2.5593 H   0  0  0  0  0  0  0  0  0  0  0  0
    3.2425   10.8794   -1.6037 H   0  0  0  0  0  0  0  0  0  0  0  0
    2.5777    8.6159   -0.8570 H   0  0  0  0  0  0  0  0  0  0  0  0
    2.3713    9.8720    0.4256 H   0  0  0  0  0  0  0  0  0  0  0  0
    0.4603    8.4213    0.4539 H   0  0  0  0  0  0  0  0  0  0  0  0
   -0.6240    7.8880   -1.3830 H   0  0  0  0  0  0  0  0  0  0  0  0
   -0.5261   10.0796    2.1035 H   0  0  0  0  0  0  0  0  0  0  0  0
    0.9829   10.8806    1.5485 H   0  0  0  0  0  0  0  0  0  0  0  0
   -0.5676   11.7875    1.5485 H   0  0  0  0  0  0  0  0  0  0  0  0
   -2.2117    9.7078    0.9588 H   0  0  0  0  0  0  0  0  0  0  0  0
   -2.4821   10.5645   -0.5968 H   0  0  0  0  0  0  0  0  0  0  0  0
   -1.9072    8.8627   -0.5968 H   0  0  0  0  0  0  0  0  0  0  0  0
    1.8898   11.4234   -3.6821 H   0  0  0  0  0  0  0  0  0  0  0  0
    0.7808   12.7198   -4.2443 H   0  0  0  0  0  0  0  0  0  0  0  0
    2.5561   12.9939   -4.2443 H   0  0  0  0  0  0  0  0  0  0  0  0
    3.6996   12.9027   -1.5891 H   0  0  0  0  0  0  0  0  0  0  0  0
    3.3574   14.1796   -2.8882 H   0  0  0  0  0  0  0  0  0  0  0  0
    2.8864   14.4077    0.0972 H   0  0  0  0  0  0  0  0  0  0  0  0
    4.0585   15.3194   -0.9327 H   0  0  0  0  0  0  0  0  0  0  0  0
    2.8412   17.5000   -2.4292 H   0  0  0  0  0  0  0  0  0  0  0  0
    2.9992   15.8629   -3.1515 H   0  0  0  0  0  0  0  0  0  0  0  0
    1.4071   16.6948   -3.1515 H   0  0  0  0  0  0  0  0  0  0  0  0
  1  2  1  0
  2  3  1  0
  3  4  1  0
  4  5  1  0
  5  6  1  0
  6  7  1  0
  7  8  1  0
  7  9  1  0
  2 10  1  0
 10 11  1  0
 11 12  1  0
 12 13  1  0
 13 14  1  1
 13 15  1  0
 15 16  1  0
 16 17  1  0
 17 18  2  0
 18 19  1  0
 19 20  1  0
 20 21  1  0
 21 22  1  0
 22 23  1  0
 22 24  1  0
 24 25  1  0
 24 26  1  0
 19 27  1  0
 27 28  1  6
 27 29  1  0
 29 30  1  0
 30 31  1  0
 31 32  1  6
  7  5  1  0
 31 10  1  0
 31 13  1  0
 27 15  1  0
 24 18  1  0
  1 33  1  0
  1 34  1  0
  1 35  1  0
  2 36  1  6
  3 37  1  0
  3 38  1  0
  4 39  1  0
  4 40  1  0
  5 41  1  1
  8 42  1  0
  8 43  1  0
  8 44  1  0
  9 45  1  0
  9 46  1  0
  9 47  1  0
 10 48  1  1
 11 49  1  0
 11 50  1  0
 12 51  1  0
 12 52  1  0
 14 53  1  0
 14 54  1  0
 14 55  1  0
 15 56  1  6
 16 57  1  0
 16 58  1  0
 17 59  1  0
 19 60  1  1
 20 61  1  0
 20 62  1  0
 21 63  1  0
 21 64  1  0
 22 65  1  1
 23 66  1  0
 25 67  1  0
 25 68  1  0
 25 69  1  0
 26 70  1  0
 26 71  1  0
 26 72  1  0
 28 73  1  0
 28 74  1  0
 28 75  1  0
 29 76  1  0
 29 77  1  0
 30 78  1  0
 30 79  1  0
 32 80  1  0
 32 81  1  0
 32 82  1  0
M  END
>  <meeko>  (2) 
{"is_sidechain": [false], "intermolecular_energy": 2.731, "internal_energy": -0.839}

$$$$
EPH_relaxed_0001_pdb2pqr_Repair_156_r2_0001_out
     RDKit          3D

 82 86  0  0  0  0  0  0  0  0999 V2000
    2.4550   17.9680   -2.6260 C   0  0  0  0  0  0  0  0  0  0  0  0
    1.1060   17.6450   -1.9790 C   0  0  2  0  0  0  0  0  0  0  0  0
    1.1620   17.7380   -0.4410 C   0  0  0  0  0  0  0  0  0  0  0  0
    0.8180   19.1270    0.1040 C   0  0  0  0  0  0  0  0  0  0  0  0
   -0.6200   19.2200    0.5170 C   0  0  2  0  0  0  0  0  0  0  0  0
   -1.4890   18.2780   -0.1240 O   0  0  0  0  0  0  0  0  0  0  0  0
   -1.7310   19.6640   -0.4150 C   0  0  0  0  0  0  0  0  0  0  0  0
   -1.4520   20.0460   -1.8360 C   0  0  0  0  0  0  0  0  0  0  0  0
   -2.9970   20.1940    0.1820 C   0  0  0  0  0  0  0  0  0  0  0  0
    0.6480   16.2530   -2.4000 C   0  0  1  0  0  0  0  0  0  0  0  0
    0.7290   16.0360   -3.9340 C   0  0  0  0  0  0  0  0  0  0  0  0
    1.1210   14.5520   -4.1560 C   0  0  0  0  0  0  0  0  0  0  0  0
    0.9280   13.8870   -2.7730 C   0  0  1  0  0  0  0  0  0  0  0  0
   -0.6030   13.5990   -2.6760 C   0  0  0  0  0  0  0  0  0  0  0  0
    1.7750   12.6020   -2.5000 C   0  0  2  0  0  0  0  0  0  0  0  0
    1.4800   11.4150   -3.4340 C   0  0  0  0  0  0  0  0  0  0  0  0
    0.4200   10.4780   -2.9580 C   0  0  0  0  0  0  0  0  0  0  0  0
   -0.0670   10.4190   -1.7040 C   0  0  0  0  0  0  0  0  0  0  0  0
    0.5240   11.2900   -0.5880 C   0  0  1  0  0  0  0  0  0  0  0  0
    0.7580   10.4230    0.6760 C   0  0  0  0  0  0  0  0  0  0  0  0
   -0.5000    9.6820    1.1190 C   0  0  0  0  0  0  0  0  0  0  0  0
   -1.0230    8.7820    0.0030 C   0  0  2  0  0  0  0  0  0  0  0  0
   -0.0780    7.7320   -0.2250 O   0  0  0  0  0  0  0  0  0  0  0  0
   -1.2880    9.5440   -1.3260 C   0  0  0  0  0  0  0  0  0  0  0  0
   -2.5170   10.4710   -1.1590 C   0  0  0  0  0  0  0  0  0  0  0  0
   -1.6760    8.4990   -2.4070 C   0  0  0  0  0  0  0  0  0  0  0  0
    1.8000   12.1510   -0.9830 C   0  0  1  0  0  0  0  0  0  0  0  0
    3.0940   11.3030   -0.7920 C   0  0  0  0  0  0  0  0  0  0  0  0
    1.9200   13.3740    0.0020 C   0  0  0  0  0  0  0  0  0  0  0  0
    1.1560   14.6550   -0.3840 C   0  0  0  0  0  0  0  0  0  0  0  0
    1.4370   15.0440   -1.8380 C   0  0  2  0  0  0  0  0  0  0  0  0
    2.9670   15.3610   -1.9610 C   0  0  0  0  0  0  0  0  0  0  0  0
    3.2045   18.1475   -1.8411 H   0  0  0  0  0  0  0  0  0  0  0  0
    2.7741   17.1209   -3.2509 H   0  0  0  0  0  0  0  0  0  0  0  0
    2.3559   18.8678   -3.2509 H   0  0  0  0  0  0  0  0  0  0  0  0
    0.3830   18.3965   -2.3289 H   0  0  0  0  0  0  0  0  0  0  0  0
    0.4472   17.0140   -0.0229 H   0  0  0  0  0  0  0  0  0  0  0  0
    2.1989   17.5233   -0.1432 H   0  0  0  0  0  0  0  0  0  0  0  0
    1.4538   19.3348    0.9772 H   0  0  0  0  0  0  0  0  0  0  0  0
    0.9934   19.8621   -0.6953 H   0  0  0  0  0  0  0  0  0  0  0  0
   -0.3328   19.5427    1.5286 H   0  0  0  0  0  0  0  0  0  0  0  0
   -0.8033   20.9341   -1.8563 H   0  0  0  0  0  0  0  0  0  0  0  0
   -0.9486   19.2125   -2.3477 H   0  0  0  0  0  0  0  0  0  0  0  0
   -2.3992   20.2719   -2.3477 H   0  0  0  0  0  0  0  0  0  0  0  0
   -2.9256   20.1641    1.2793 H   0  0  0  0  0  0  0  0  0  0  0  0
   -3.1511   21.2322   -0.1473 H   0  0  0  0  0  0  0  0  0  0  0  0
   -3.8448   19.5752   -0.1473 H   0  0  0  0  0  0  0  0  0  0  0  0
   -0.3712   16.2616   -1.9862 H   0  0  0  0  0  0  0  0  0  0  0  0
   -0.2465   16.2436   -4.3979 H   0  0  0  0  0  0  0  0  0  0  0  0
    1.4673   16.7120   -4.3900 H   0  0  0  0  0  0  0  0  0  0  0  0
    0.4658   14.0852   -4.9063 H   0  0  0  0  0  0  0  0  0  0  0  0
    2.1493   14.4436   -4.5314 H   0  0  0  0  0  0  0  0  0  0  0  0
   -0.8993   13.5433   -1.6181 H   0  0  0  0  0  0  0  0  0  0  0  0
   -1.1604   14.4081   -3.1708 H   0  0  0  0  0  0  0  0  0  0  0  0
   -0.8283   12.6427   -3.1708 H   0  0  0  0  0  0  0  0  0  0  0  0
    2.7932   12.9341   -2.7509 H   0  0  0  0  0  0  0  0  0  0  0  0
    1.1649   11.8186   -4.4076 H   0  0  0  0  0  0  0  0  0  0  0  0
    2.4081   10.8264   -3.4810 H   0  0  0  0  0  0  0  0  0  0  0  0
    0.0011    9.7761   -3.6941 H   0  0  0  0  0  0  0  0  0  0  0  0
   -0.2281   12.0640   -0.3753 H   0  0  0  0  0  0  0  0  0  0  0  0
    1.5432    9.6846    0.4565 H   0  0  0  0  0  0  0  0  0  0  0  0
    1.0532   11.0975    1.4933 H   0  0  0  0  0  0  0  0  0  0  0  0
   -0.2637    9.0650    1.9984 H   0  0  0  0  0  0  0  0  0  0  0  0
   -1.2753   10.4221    1.3662 H   0  0  0  0  0  0  0  0  0  0  0  0
   -1.9922    8.3792    0.3323 H   0  0  0  0  0  0  0  0  0  0  0  0
   -0.4290    7.1690   -0.9350 H   0  0  0  0  0  0  0  0  0  0  0  0
   -2.7187   10.6232   -0.0884 H   0  0  0  0  0  0  0  0  0  0  0  0
   -2.3118   11.4412   -1.6350 H   0  0  0  0  0  0  0  0  0  0  0  0
   -3.3935   10.0071   -1.6350 H   0  0  0  0  0  0  0  0  0  0  0  0
   -2.0189    7.5754   -1.9178 H   0  0  0  0  0  0  0  0  0  0  0  0
   -2.4839    8.9033   -3.0345 H   0  0  0  0  0  0  0  0  0  0  0  0
   -0.8000    8.2780   -3.0345 H   0  0  0  0  0  0  0  0  0  0  0  0
    3.2921   11.1732    0.2822 H   0  0  0  0  0  0  0  0  0  0  0  0
    2.9592   10.3175   -1.2617 H   0  0  0  0  0  0  0  0  0  0  0  0
    3.9438   11.8199   -1.2617 H   0  0  0  0  0  0  0  0  0  0  0  0
    1.5476   13.0478    0.9843 H   0  0  0  0  0  0  0  0  0  0  0  0
    2.9830   13.6561   -0.0179 H   0  0  0  0  0  0  0  0  0  0  0  0
    0.0769   14.4814   -0.2601 H   0  0  0  0  0  0  0  0  0  0  0  0
    1.4919   15.4738    0.2692 H   0  0  0  0  0  0  0  0  0  0  0  0
    3.4046   15.4517   -0.9559 H   0  0  0  0  0  0  0  0  0  0  0  0
    3.4673   14.5474   -2.5067 H   0  0  0  0  0  0  0  0  0  0  0  0
    3.1029   16.3064   -2.5067 H   0  0  0  0  0  0  0  0  0  0  0  0
  1  2  1  0
  2  3  1  0
  3  4  1  0
  4  5  1  0
  5  6  1  0
  6  7  1  0
  7  8  1  0
  7  9  1  0
  2 10  1  0
 10 11  1  0
 11 12  1  0
 12 13  1  0
 13 14  1  1
 13 15  1  0
 15 16  1  0
 16 17  1  0
 17 18  2  0
 18 19  1  0
 19 20  1  0
 20 21  1  0
 21 22  1  0
 22 23  1  0
 22 24  1  0
 24 25  1  0
 24 26  1  0
 19 27  1  0
 27 28  1  6
 27 29  1  0
 29 30  1  0
 30 31  1  0
 31 32  1  1
  7  5  1  0
 31 10  1  0
 31 13  1  0
 27 15  1  0
 24 18  1  0
  1 33  1  0
  1 34  1  0
  1 35  1  0
  2 36  1  6
  3 37  1  0
  3 38  1  0
  4 39  1  0
  4 40  1  0
  5 41  1  1
  8 42  1  0
  8 43  1  0
  8 44  1  0
  9 45  1  0
  9 46  1  0
  9 47  1  0
 10 48  1  1
 11 49  1  0
 11 50  1  0
 12 51  1  0
 12 52  1  0
 14 53  1  0
 14 54  1  0
 14 55  1  0
 15 56  1  6
 16 57  1  0
 16 58  1  0
 17 59  1  0
 19 60  1  1
 20 61  1  0
 20 62  1  0
 21 63  1  0
 21 64  1  0
 22 65  1  1
 23 66  1  0
 25 67  1  0
 25 68  1  0
 25 69  1  0
 26 70  1  0
 26 71  1  0
 26 72  1  0
 28 73  1  0
 28 74  1  0
 28 75  1  0
 29 76  1  0
 29 77  1  0
 30 78  1  0
 30 79  1  0
 32 80  1  0
 32 81  1  0
 32 82  1  0
M  END
>  <meeko>  (3) 
{"is_sidechain": [false], "intermolecular_energy": 2.731, "internal_energy": -0.839}

$$$$
EPH_relaxed_0001_pdb2pqr_Repair_156_r2_0001_out
     RDKit          3D

 82 86  0  0  0  0  0  0  0  0999 V2000
    0.3860   18.4930   -0.2520 C   0  0  0  0  0  0  0  0  0  0  0  0
    1.4510   17.3980   -0.3510 C   0  0  2  0  0  0  0  0  0  0  0  0
    2.7270   17.8910   -1.0630 C   0  0  0  0  0  0  0  0  0  0  0  0
    3.9360   18.0250   -0.1340 C   0  0  0  0  0  0  0  0  0  0  0  0
    3.5430   18.5390    1.2180 C   0  0  2  0  0  0  0  0  0  0  0  0
    3.7250   19.9500    1.3990 O   0  0  0  0  0  0  0  0  0  0  0  0
    4.5350   19.0960    2.2230 C   0  0  0  0  0  0  0  0  0  0  0  0
    5.9980   19.1650    1.9180 C   0  0  0  0  0  0  0  0  0  0  0  0
    4.1520   19.1150    3.6700 C   0  0  0  0  0  0  0  0  0  0  0  0
    0.8830   16.1860   -1.0810 C   0  0  1  0  0  0  0  0  0  0  0  0
    0.7610   16.4130   -2.6110 C   0  0  0  0  0  0  0  0  0  0  0  0
    1.0570   15.0510   -3.2910 C   0  0  0  0  0  0  0  0  0  0  0  0
    1.0120   14.0220   -2.1370 C   0  0  1  0  0  0  0  0  0  0  0  0
   -0.5060   13.7270   -1.9220 C   0  0  0  0  0  0  0  0  0  0  0  0
    1.8300   12.7070   -2.3520 C   0  0  2  0  0  0  0  0  0  0  0  0
    1.3680   11.8360   -3.5330 C   0  0  0  0  0  0  0  0  0  0  0  0
    0.3370   10.8080   -3.2030 C   0  0  0  0  0  0  0  0  0  0  0  0
    0.0100   10.3990   -1.9630 C   0  0  0  0  0  0  0  0  0  0  0  0
    0.7740   10.9140   -0.7360 C   0  0  1  0  0  0  0  0  0  0  0  0
    1.1280    9.7220    0.1910 C   0  0  0  0  0  0  0  0  0  0  0  0
   -0.0950    8.8920    0.5710 C   0  0  0  0  0  0  0  0  0  0  0  0
   -0.7930    8.3500   -0.6730 C   0  0  2  0  0  0  0  0  0  0  0  0
    0.0690    7.4020   -1.3090 O   0  0  0  0  0  0  0  0  0  0  0  0
   -1.1900    9.4590   -1.6860 C   0  0  0  0  0  0  0  0  0  0  0  0
   -2.3470   10.3080   -1.1030 C   0  0  0  0  0  0  0  0  0  0  0  0
   -1.7560    8.7670   -2.9550 C   0  0  0  0  0  0  0  0  0  0  0  0
    2.0260   11.8440   -1.0400 C   0  0  1  0  0  0  0  0  0  0  0  0
    3.2960   10.9690   -1.2680 C   0  0  0  0  0  0  0  0  0  0  0  0
    2.3220   12.7360    0.2240 C   0  0  0  0  0  0  0  0  0  0  0  0
    1.5720   14.0780    0.3190 C   0  0  0  0  0  0  0  0  0  0  0  0
    1.6840   14.8630   -0.9920 C   0  0  2  0  0  0  0  0  0  0  0  0
    3.1980   15.1930   -1.2230 C   0  0  0  0  0  0  0  0  0  0  0  0
    0.1777   18.7072    0.8066 H   0  0  0  0  0  0  0  0  0  0  0  0
    0.7513   19.4055   -0.7457 H   0  0  0  0  0  0  0  0  0  0  0  0
   -0.5363   18.1531   -0.7457 H   0  0  0  0  0  0  0  0  0  0  0  0
    1.7330   17.1169    0.6744 H   0  0  0  0  0  0  0  0  0  0  0  0
    2.9787   17.1757   -1.8598 H   0  0  0  0  0  0  0  0  0  0  0  0
    2.5093   18.8955   -1.4549 H   0  0  0  0  0  0  0  0  0  0  0  0
    4.4065   17.0376   -0.0169 H   0  0  0  0  0  0  0  0  0  0  0  0
    4.6357   18.7447   -0.5840 H   0  0  0  0  0  0  0  0  0  0  0  0
    2.7545   17.7768    1.3040 H   0  0  0  0  0  0  0  0  0  0  0  0
    6.5678   19.1919    2.8586 H   0  0  0  0  0  0  0  0  0  0  0  0
    6.2933   18.2798    1.3356 H   0  0  0  0  0  0  0  0  0  0  0  0
    6.2087   20.0741    1.3356 H   0  0  0  0  0  0  0  0  0  0  0  0
    5.0594   19.0700    4.2901 H   0  0  0  0  0  0  0  0  0  0  0  0
    3.6021   20.0415    3.8916 H   0  0  0  0  0  0  0  0  0  0  0  0
    3.5131   18.2474    3.8916 H   0  0  0  0  0  0  0  0  0  0  0  0
   -0.0747   16.0830   -0.5498 H   0  0  0  0  0  0  0  0  0  0  0  0
   -0.2552   16.7497   -2.8640 H   0  0  0  0  0  0  0  0  0  0  0  0
    1.4650   17.1860   -2.9527 H   0  0  0  0  0  0  0  0  0  0  0  0
    0.2925   14.8201   -4.0474 H   0  0  0  0  0  0  0  0  0  0  0  0
    2.0237   15.0477   -3.8159 H   0  0  0  0  0  0  0  0  0  0  0  0
   -0.7223   13.6850   -0.8443 H   0  0  0  0  0  0  0  0  0  0  0  0
   -1.1039   14.5257   -2.3851 H   0  0  0  0  0  0  0  0  0  0  0  0
   -0.7613   12.7624   -2.3851 H   0  0  0  0  0  0  0  0  0  0  0  0
    2.8218   13.0903   -2.6339 H   0  0  0  0  0  0  0  0  0  0  0  0
    0.9501   12.5014   -4.3029 H   0  0  0  0  0  0  0  0  0  0  0  0
    2.2564   11.2795   -3.8662 H   0  0  0  0  0  0  0  0  0  0  0  0
   -0.2007   10.3459   -4.0440 H   0  0  0  0  0  0  0  0  0  0  0  0
    0.0889   11.5999   -0.2162 H   0  0  0  0  0  0  0  0  0  0  0  0
    1.8471    9.0723   -0.3293 H   0  0  0  0  0  0  0  0  0  0  0  0
    1.5521   10.1349    1.1182 H   0  0  0  0  0  0  0  0  0  0  0  0
    0.2237    8.0488    1.2014 H   0  0  0  0  0  0  0  0  0  0  0  0
   -0.8003    9.5352    1.1177 H   0  0  0  0  0  0  0  0  0  0  0  0
   -1.7303    7.8766   -0.3451 H   0  0  0  0  0  0  0  0  0  0  0  0
    0.9640    7.7810   -1.3220 H   0  0  0  0  0  0  0  0  0  0  0  0
   -2.3062   10.2780   -0.0042 H   0  0  0  0  0  0  0  0  0  0  0  0
   -2.2469   11.3485   -1.4454 H   0  0  0  0  0  0  0  0  0  0  0  0
   -3.3096    9.9003   -1.4454 H   0  0  0  0  0  0  0  0  0  0  0  0
   -2.4265    7.9473   -2.6575 H   0  0  0  0  0  0  0  0  0  0  0  0
   -2.3165    9.5003   -3.5534 H   0  0  0  0  0  0  0  0  0  0  0  0
   -0.9261    8.3630   -3.5534 H   0  0  0  0  0  0  0  0  0  0  0  0
    3.7196   10.6772   -0.2957 H   0  0  0  0  0  0  0  0  0  0  0  0
    3.0227   10.0666   -1.8346 H   0  0  0  0  0  0  0  0  0  0  0  0
    4.0418   11.5458   -1.8346 H   0  0  0  0  0  0  0  0  0  0  0  0
    2.0626   12.1461    1.1155 H   0  0  0  0  0  0  0  0  0  0  0  0
    3.3852   13.0060    0.1427 H   0  0  0  0  0  0  0  0  0  0  0  0
    0.5106   13.8827    0.5319 H   0  0  0  0  0  0  0  0  0  0  0  0
    2.0229   14.6754    1.1251 H   0  0  0  0  0  0  0  0  0  0  0  0
    3.7017   15.3028   -0.2513 H   0  0  0  0  0  0  0  0  0  0  0  0
    3.6689   14.3764   -1.7899 H   0  0  0  0  0  0  0  0  0  0  0  0
    3.2864   16.1315   -1.7899 H   0  0  0  0  0  0  0  0  0  0  0  0
  1  2  1  0
  2  3  1  0
  3  4  1  0
  4  5  1  0
  5  6  1  0
  6  7  1  0
  7  8  1  0
  7  9  1  0
  2 10  1  0
 10 11  1  0
 11 12  1  0
 12 13  1  0
 13 14  1  1
 13 15  1  0
 15 16  1  0
 16 17  1  0
 17 18  2  0
 18 19  1  0
 19 20  1  0
 20 21  1  0
 21 22  1  0
 22 23  1  0
 22 24  1  0
 24 25  1  0
 24 26  1  0
 19 27  1  0
 27 28  1  6
 27 29  1  0
 29 30  1  0
 30 31  1  0
 31 32  1  6
  7  5  1  0
 31 10  1  0
 31 13  1  0
 27 15  1  0
 24 18  1  0
  1 33  1  0
  1 34  1  0
  1 35  1  0
  2 36  1  1
  3 37  1  0
  3 38  1  0
  4 39  1  0
  4 40  1  0
  5 41  1  1
  8 42  1  0
  8 43  1  0
  8 44  1  0
  9 45  1  0
  9 46  1  0
  9 47  1  0
 10 48  1  1
 11 49  1  0
 11 50  1  0
 12 51  1  0
 12 52  1  0
 14 53  1  0
 14 54  1  0
 14 55  1  0
 15 56  1  6
 16 57  1  0
 16 58  1  0
 17 59  1  0
 19 60  1  1
 20 61  1  0
 20 62  1  0
 21 63  1  0
 21 64  1  0
 22 65  1  1
 23 66  1  0
 25 67  1  0
 25 68  1  0
 25 69  1  0
 26 70  1  0
 26 71  1  0
 26 72  1  0
 28 73  1  0
 28 74  1  0
 28 75  1  0
 29 76  1  0
 29 77  1  0
 30 78  1  0
 30 79  1  0
 32 80  1  0
 32 81  1  0
 32 82  1  0
M  END
>  <meeko>  (4) 
{"is_sidechain": [false], "intermolecular_energy": 2.731, "internal_energy": -0.839}

$$$$
EPH_relaxed_0001_pdb2pqr_Repair_156_r2_0001_out
     RDKit          3D

 82 86  0  0  0  0  0  0  0  0999 V2000
    3.6780   17.6630    1.0150 C   0  0  0  0  0  0  0  0  0  0  0  0
    2.8390   17.9940   -0.2230 C   0  0  2  0  0  0  0  0  0  0  0  0
    2.1710   19.3800   -0.1180 C   0  0  0  0  0  0  0  0  0  0  0  0
    1.1170   19.4730    0.9880 C   0  0  0  0  0  0  0  0  0  0  0  0
   -0.1520   20.0990    0.4940 C   0  0  2  0  0  0  0  0  0  0  0  0
   -1.1940   20.1940    1.4730 O   0  0  0  0  0  0  0  0  0  0  0  0
   -1.4580   19.3410    0.3480 C   0  0  0  0  0  0  0  0  0  0  0  0
   -1.5600   17.8890    0.6970 C   0  0  0  0  0  0  0  0  0  0  0  0
   -2.4970   19.8780   -0.5860 C   0  0  0  0  0  0  0  0  0  0  0  0
    1.7790   16.9200   -0.4350 C   0  0  1  0  0  0  0  0  0  0  0  0
    0.5550   17.4380   -1.2360 C   0  0  0  0  0  0  0  0  0  0  0  0
    0.0610   16.2580   -2.1110 C   0  0  0  0  0  0  0  0  0  0  0  0
    0.7960   15.0190   -1.5470 C   0  0  1  0  0  0  0  0  0  0  0  0
   -0.0320   14.6000   -0.2920 C   0  0  0  0  0  0  0  0  0  0  0  0
    0.9930   13.8230   -2.5340 C   0  0  2  0  0  0  0  0  0  0  0  0
   -0.3070   13.1790   -3.0460 C   0  0  0  0  0  0  0  0  0  0  0  0
   -0.8250   12.0470   -2.2220 C   0  0  0  0  0  0  0  0  0  0  0  0
   -0.1290   11.3810   -1.2820 C   0  0  0  0  0  0  0  0  0  0  0  0
    1.3550   11.6870   -1.0360 C   0  0  1  0  0  0  0  0  0  0  0  0
    2.1490   10.3580   -0.9470 C   0  0  0  0  0  0  0  0  0  0  0  0
    1.5710    9.3990    0.0900 C   0  0  0  0  0  0  0  0  0  0  0  0
    0.1130    9.0740   -0.2210 C   0  0  2  0  0  0  0  0  0  0  0  0
    0.0570    8.3240   -1.4380 O   0  0  0  0  0  0  0  0  0  0  0  0
   -0.7840   10.3370   -0.3440 C   0  0  0  0  0  0  0  0  0  0  0  0
   -0.9670   10.9840    1.0510 C   0  0  0  0  0  0  0  0  0  0  0  0
   -2.1960    9.8780   -0.7980 C   0  0  0  0  0  0  0  0  0  0  0  0
    2.0210   12.7310   -2.0320 C   0  0  1  0  0  0  0  0  0  0  0  0
    2.5450   11.9940   -3.3030 C   0  0  0  0  0  0  0  0  0  0  0  0
    3.2820   13.3700   -1.3380 C   0  0  0  0  0  0  0  0  0  0  0  0
    3.0390   14.6200   -0.4720 C   0  0  0  0  0  0  0  0  0  0  0  0
    2.1970   15.6550   -1.2250 C   0  0  2  0  0  0  0  0  0  0  0  0
    3.0140   16.1120   -2.4820 C   0  0  0  0  0  0  0  0  0  0  0  0
    3.0991   17.8914    1.9220 H   0  0  0  0  0  0  0  0  0  0  0  0
    3.9391   16.5945    1.0060 H   0  0  0  0  0  0  0  0  0  0  0  0
    4.5983   18.2654    1.0060 H   0  0  0  0  0  0  0  0  0  0  0  0
    3.5197   18.0200   -1.0867 H   0  0  0  0  0  0  0  0  0  0  0  0
    2.9523   20.1277    0.0832 H   0  0  0  0  0  0  0  0  0  0  0  0
    1.6530   19.5602   -1.0715 H   0  0  0  0  0  0  0  0  0  0  0  0
    0.8953   18.4600    1.3551 H   0  0  0  0  0  0  0  0  0  0  0  0
    1.5200   20.1050    1.7931 H   0  0  0  0  0  0  0  0  0  0  0  0
    0.4089   20.7428   -0.1995 H   0  0  0  0  0  0  0  0  0  0  0  0
   -1.5680   17.7745    1.7910 H   0  0  0  0  0  0  0  0  0  0  0  0
   -2.4894   17.4756    0.2782 H   0  0  0  0  0  0  0  0  0  0  0  0
   -0.6975   17.3498    0.2782 H   0  0  0  0  0  0  0  0  0  0  0  0
   -3.3264   20.3067   -0.0044 H   0  0  0  0  0  0  0  0  0  0  0  0
   -2.0517   20.6589   -1.2200 H   0  0  0  0  0  0  0  0  0  0  0  0
   -2.8765   19.0631   -1.2200 H   0  0  0  0  0  0  0  0  0  0  0  0
    1.5703   16.6579    0.6127 H   0  0  0  0  0  0  0  0  0  0  0  0
   -0.2407   17.7577   -0.5471 H   0  0  0  0  0  0  0  0  0  0  0  0
    0.8276   18.3035   -1.8577 H   0  0  0  0  0  0  0  0  0  0  0  0
   -1.0287   16.1374   -2.0209 H   0  0  0  0  0  0  0  0  0  0  0  0
    0.2690   16.4156   -3.1796 H   0  0  0  0  0  0  0  0  0  0  0  0
    0.5175   14.8781    0.6194 H   0  0  0  0  0  0  0  0  0  0  0  0
   -1.0041   15.1147   -0.3055 H   0  0  0  0  0  0  0  0  0  0  0  0
   -0.1930   13.5119   -0.3055 H   0  0  0  0  0  0  0  0  0  0  0  0
    1.4486   14.3111   -3.4082 H   0  0  0  0  0  0  0  0  0  0  0  0
   -1.0825   13.9584   -3.0787 H   0  0  0  0  0  0  0  0  0  0  0  0
   -0.0683   12.7536   -4.0319 H   0  0  0  0  0  0  0  0  0  0  0  0
   -1.8636   11.7303   -2.3980 H   0  0  0  0  0  0  0  0  0  0  0  0
    1.4021   12.2148   -0.0720 H   0  0  0  0  0  0  0  0  0  0  0  0
    2.1272    9.8677   -1.9314 H   0  0  0  0  0  0  0  0  0  0  0  0
    3.1763   10.6029   -0.6392 H   0  0  0  0  0  0  0  0  0  0  0  0
    2.1564    8.4677    0.0850 H   0  0  0  0  0  0  0  0  0  0  0  0
    1.6207    9.8791    1.0785 H   0  0  0  0  0  0  0  0  0  0  0  0
   -0.2817    8.4904    0.6238 H   0  0  0  0  0  0  0  0  0  0  0  0
   -0.2790    7.4370   -1.2220 H   0  0  0  0  0  0  0  0  0  0  0  0
   -0.7561   10.2382    1.8316 H   0  0  0  0  0  0  0  0  0  0  0  0
   -0.2732   11.8311    1.1562 H   0  0  0  0  0  0  0  0  0  0  0  0
   -2.0017   11.3422    1.1562 H   0  0  0  0  0  0  0  0  0  0  0  0
   -2.8179    9.6759    0.0865 H   0  0  0  0  0  0  0  0  0  0  0  0
   -2.6629   10.6706   -1.4011 H   0  0  0  0  0  0  0  0  0  0  0  0
   -2.1076    8.9623   -1.4011 H   0  0  0  0  0  0  0  0  0  0  0  0
    3.1578   11.1321   -3.0005 H   0  0  0  0  0  0  0  0  0  0  0  0
    1.6914   11.6447   -3.9024 H   0  0  0  0  0  0  0  0  0  0  0  0
    3.1553   12.6855   -3.9024 H   0  0  0  0  0  0  0  0  0  0  0  0
    3.7325   12.6010   -0.6933 H   0  0  0  0  0  0  0  0  0  0  0  0
    3.9227   13.7122   -2.1641 H   0  0  0  0  0  0  0  0  0  0  0  0
    2.5093   14.3244    0.4456 H   0  0  0  0  0  0  0  0  0  0  0  0
    4.0119   15.0711   -0.2273 H   0  0  0  0  0  0  0  0  0  0  0  0
    3.9311   16.6250   -2.1566 H   0  0  0  0  0  0  0  0  0  0  0  0
    3.2806   15.2320   -3.0858 H   0  0  0  0  0  0  0  0  0  0  0  0
    2.4037   16.7997   -3.0858 H   0  0  0  0  0  0  0  0  0  0  0  0
  1  2  1  0
  2  3  1  0
  3  4  1  0
  4  5  1  0
  5  6  1  0
  6  7  1  0
  7  8  1  0
  7  9  1  0
  2 10  1  0
 10 11  1  0
 11 12  1  0
 12 13  1  0
 13 14  1  1
 13 15  1  0
 15 16  1  0
 16 17  1  0
 17 18  2  0
 18 19  1  0
 19 20  1  0
 20 21  1  0
 21 22  1  0
 22 23  1  0
 22 24  1  0
 24 25  1  0
 24 26  1  0
 19 27  1  0
 27 28  1  6
 27 29  1  0
 29 30  1  0
 30 31  1  0
 31 32  1  6
  7  5  1  0
 31 10  1  0
 31 13  1  0
 27 15  1  0
 24 18  1  0
  1 33  1  0
  1 34  1  0
  1 35  1  0
  2 36  1  6
  3 37  1  0
  3 38  1  0
  4 39  1  0
  4 40  1  0
  5 41  1  6
  8 42  1  0
  8 43  1  0
  8 44  1  0
  9 45  1  0
  9 46  1  0
  9 47  1  0
 10 48  1  1
 11 49  1  0
 11 50  1  0
 12 51  1  0
 12 52  1  0
 14 53  1  0
 14 54  1  0
 14 55  1  0
 15 56  1  6
 16 57  1  0
 16 58  1  0
 17 59  1  0
 19 60  1  1
 20 61  1  0
 20 62  1  0
 21 63  1  0
 21 64  1  0
 22 65  1  1
 23 66  1  0
 25 67  1  0
 25 68  1  0
 25 69  1  0
 26 70  1  0
 26 71  1  0
 26 72  1  0
 28 73  1  0
 28 74  1  0
 28 75  1  0
 29 76  1  0
 29 77  1  0
 30 78  1  0
 30 79  1  0
 32 80  1  0
 32 81  1  0
 32 82  1  0
M  END
>  <meeko>  (5) 
{"is_sidechain": [false], "intermolecular_energy": 2.731, "internal_energy": -0.839}

$$$$
EPH_relaxed_0001_pdb2pqr_Repair_156_r2_0001_out
     RDKit          3D

 82 86  0  0  0  0  0  0  0  0999 V2000
   -5.1410    5.8740   -1.7370 C   0  0  0  0  0  0  0  0  0  0  0  0
   -5.4470    7.3730   -1.7980 C   0  0  2  0  0  0  0  0  0  0  0  0
   -5.2210    8.0670   -0.4400 C   0  0  0  0  0  0  0  0  0  0  0  0
   -4.1290    9.1390   -0.4710 C   0  0  0  0  0  0  0  0  0  0  0  0
   -2.8120    8.5760   -0.9140 C   0  0  2  0  0  0  0  0  0  0  0  0
   -1.7410    8.7490    0.0230 O   0  0  0  0  0  0  0  0  0  0  0  0
   -1.6010    9.4330   -1.2320 C   0  0  0  0  0  0  0  0  0  0  0  0
   -1.6490   10.9240   -1.1220 C   0  0  0  0  0  0  0  0  0  0  0  0
   -0.5330    8.8630   -2.1130 C   0  0  0  0  0  0  0  0  0  0  0  0
   -6.8820    7.5920   -2.2630 C   0  0  1  0  0  0  0  0  0  0  0  0
   -7.1840    6.8960   -3.6170 C   0  0  0  0  0  0  0  0  0  0  0  0
   -8.6560    6.4160   -3.5550 C   0  0  0  0  0  0  0  0  0  0  0  0
   -9.2480    7.1330   -2.3190 C   0  0  1  0  0  0  0  0  0  0  0  0
   -9.6060    8.5670   -2.8200 C   0  0  0  0  0  0  0  0  0  0  0  0
  -10.4720    6.4380   -1.6370 C   0  0  2  0  0  0  0  0  0  0  0  0
  -11.7240    6.3070   -2.5210 C   0  0  0  0  0  0  0  0  0  0  0  0
  -12.6840    7.4470   -2.4400 C   0  0  0  0  0  0  0  0  0  0  0  0
  -12.6940    8.3950   -1.4850 C   0  0  0  0  0  0  0  0  0  0  0  0
  -11.7300    8.3220   -0.2930 C   0  0  1  0  0  0  0  0  0  0  0  0
  -12.5090    8.5960    1.0200 C   0  0  0  0  0  0  0  0  0  0  0  0
  -13.2860    9.9090    0.9770 C   0  0  0  0  0  0  0  0  0  0  0  0
  -14.2740    9.9200   -0.1860 C   0  0  2  0  0  0  0  0  0  0  0  0
  -15.2870    8.9400    0.0610 O   0  0  0  0  0  0  0  0  0  0  0  0
  -13.6050    9.6450   -1.5620 C   0  0  0  0  0  0  0  0  0  0  0  0
  -12.7320   10.8580   -1.9670 C   0  0  0  0  0  0  0  0  0  0  0  0
  -14.7290    9.5430   -2.6280 C   0  0  0  0  0  0  0  0  0  0  0  0
  -10.8310    7.0150   -0.2080 C   0  0  1  0  0  0  0  0  0  0  0  0
  -11.6010    5.8880    0.5470 C   0  0  0  0  0  0  0  0  0  0  0  0
   -9.5490    7.3280    0.6510 C   0  0  0  0  0  0  0  0  0  0  0  0
   -8.3320    7.9010   -0.1010 C   0  0  0  0  0  0  0  0  0  0  0  0
   -8.0150    7.0680   -1.3460 C   0  0  2  0  0  0  0  0  0  0  0  0
   -7.6300    5.6250   -0.8710 C   0  0  0  0  0  0  0  0  0  0  0  0
   -5.0760    5.5555   -0.6861 H   0  0  0  0  0  0  0  0  0  0  0  0
   -5.9436    5.3151   -2.2405 H   0  0  0  0  0  0  0  0  0  0  0  0
   -4.1836    5.6744   -2.2405 H   0  0  0  0  0  0  0  0  0  0  0  0
   -4.7499    7.8243   -2.5193 H   0  0  0  0  0  0  0  0  0  0  0  0
   -6.1643    8.5410   -0.1310 H   0  0  0  0  0  0  0  0  0  0  0  0
   -4.8900    7.2913    0.2662 H   0  0  0  0  0  0  0  0  0  0  0  0
   -4.4297    9.9342   -1.1690 H   0  0  0  0  0  0  0  0  0  0  0  0
   -4.0076    9.5345    0.5482 H   0  0  0  0  0  0  0  0  0  0  0  0
   -3.3161    7.7739   -1.4731 H   0  0  0  0  0  0  0  0  0  0  0  0
   -1.6583   11.2133   -0.0608 H   0  0  0  0  0  0  0  0  0  0  0  0
   -0.7643   11.3565   -1.6122 H   0  0  0  0  0  0  0  0  0  0  0  0
   -2.5597   11.2987   -1.6122 H   0  0  0  0  0  0  0  0  0  0  0  0
    0.2669    8.4361   -1.4902 H   0  0  0  0  0  0  0  0  0  0  0  0
   -0.9635    8.0747   -2.7480 H   0  0  0  0  0  0  0  0  0  0  0  0
   -0.1177    9.6594   -2.7480 H   0  0  0  0  0  0  0  0  0  0  0  0
   -6.9002    8.6915   -2.2922 H   0  0  0  0  0  0  0  0  0  0  0  0
   -7.0521    7.6069   -4.4460 H   0  0  0  0  0  0  0  0  0  0  0  0
   -6.5003    6.0514   -3.7878 H   0  0  0  0  0  0  0  0  0  0  0  0
   -9.1975    6.7048   -4.4679 H   0  0  0  0  0  0  0  0  0  0  0  0
   -8.7352    5.3214   -3.4802 H   0  0  0  0  0  0  0  0  0  0  0  0
   -9.7708    9.2269   -1.9555 H   0  0  0  0  0  0  0  0  0  0  0  0
   -8.7784    8.9600   -3.4288 H   0  0  0  0  0  0  0  0  0  0  0  0
  -10.5212    8.5249   -3.4288 H   0  0  0  0  0  0  0  0  0  0  0  0
  -10.1060    5.4120   -1.4844 H   0  0  0  0  0  0  0  0  0  0  0  0
  -11.3939    6.2143   -3.5662 H   0  0  0  0  0  0  0  0  0  0  0  0
  -12.2671    5.4251   -2.1505 H   0  0  0  0  0  0  0  0  0  0  0  0
  -13.4483    7.5183   -3.2279 H   0  0  0  0  0  0  0  0  0  0  0  0
  -10.9836    9.1134   -0.4561 H   0  0  0  0  0  0  0  0  0  0  0  0
  -13.2182    7.7720    1.1876 H   0  0  0  0  0  0  0  0  0  0  0  0
  -11.7739    8.6699    1.8349 H   0  0  0  0  0  0  0  0  0  0  0  0
  -13.8387   10.0313    1.9201 H   0  0  0  0  0  0  0  0  0  0  0  0
  -12.5726   10.7349    0.8395 H   0  0  0  0  0  0  0  0  0  0  0  0
  -14.7042   10.9307   -0.2436 H   0  0  0  0  0  0  0  0  0  0  0  0
  -16.1500    9.3800   -0.0240 H   0  0  0  0  0  0  0  0  0  0  0  0
  -12.3668   11.3654   -1.0619 H   0  0  0  0  0  0  0  0  0  0  0  0
  -11.8755   10.5105   -2.5634 H   0  0  0  0  0  0  0  0  0  0  0  0
  -13.3335   11.5598   -2.5634 H   0  0  0  0  0  0  0  0  0  0  0  0
  -15.7037    9.4546   -2.1258 H   0  0  0  0  0  0  0  0  0  0  0  0
  -14.7210   10.4456   -3.2567 H   0  0  0  0  0  0  0  0  0  0  0  0
  -14.5587    8.6566   -3.2567 H   0  0  0  0  0  0  0  0  0  0  0  0
  -11.4988    6.0376    1.6320 H   0  0  0  0  0  0  0  0  0  0  0  0
  -12.6652    5.9225    0.2707 H   0  0  0  0  0  0  0  0  0  0  0  0
  -11.1820    4.9092    0.2707 H   0  0  0  0  0  0  0  0  0  0  0  0
   -9.8358    8.0563    1.4238 H   0  0  0  0  0  0  0  0  0  0  0  0
   -9.2161    6.3533    1.0372 H   0  0  0  0  0  0  0  0  0  0  0  0
   -8.5516    8.9348   -0.4061 H   0  0  0  0  0  0  0  0  0  0  0  0
   -7.4608    7.8743    0.5700 H   0  0  0  0  0  0  0  0  0  0  0  0
   -7.6210    5.5911    0.2284 H   0  0  0  0  0  0  0  0  0  0  0  0
   -8.3672    4.9040   -1.2540 H   0  0  0  0  0  0  0  0  0  0  0  0
   -6.6316    5.3671   -1.2540 H   0  0  0  0  0  0  0  0  0  0  0  0
  1  2  1  0
  2  3  1  0
  3  4  1  0
  4  5  1  0
  5  6  1  0
  6  7  1  0
  7  8  1  0
  7  9  1  0
  2 10  1  0
 10 11  1  0
 11 12  1  0
 12 13  1  0
 13 14  1  6
 13 15  1  0
 15 16  1  0
 16 17  1  0
 17 18  2  0
 18 19  1  0
 19 20  1  0
 20 21  1  0
 21 22  1  0
 22 23  1  0
 22 24  1  0
 24 25  1  0
 24 26  1  0
 19 27  1  0
 27 28  1  1
 27 29  1  0
 29 30  1  0
 30 31  1  0
 31 32  1  1
  7  5  1  0
 31 10  1  0
 31 13  1  0
 27 15  1  0
 24 18  1  0
  1 33  1  0
  1 34  1  0
  1 35  1  0
  2 36  1  6
  3 37  1  0
  3 38  1  0
  4 39  1  0
  4 40  1  0
  5 41  1  6
  8 42  1  0
  8 43  1  0
  8 44  1  0
  9 45  1  0
  9 46  1  0
  9 47  1  0
 10 48  1  6
 11 49  1  0
 11 50  1  0
 12 51  1  0
 12 52  1  0
 14 53  1  0
 14 54  1  0
 14 55  1  0
 15 56  1  1
 16 57  1  0
 16 58  1  0
 17 59  1  0
 19 60  1  6
 20 61  1  0
 20 62  1  0
 21 63  1  0
 21 64  1  0
 22 65  1  6
 23 66  1  0
 25 67  1  0
 25 68  1  0
 25 69  1  0
 26 70  1  0
 26 71  1  0
 26 72  1  0
 28 73  1  0
 28 74  1  0
 28 75  1  0
 29 76  1  0
 29 77  1  0
 30 78  1  0
 30 79  1  0
 32 80  1  0
 32 81  1  0
 32 82  1  0
M  END
>  <meeko>  (6) 
{"is_sidechain": [false], "intermolecular_energy": 2.731, "internal_energy": -0.839}

$$$$
EPH_relaxed_0001_pdb2pqr_Repair_156_r2_0001_out
     RDKit          3D

 82 86  0  0  0  0  0  0  0  0999 V2000
    0.4400    8.8260   -2.3450 C   0  0  0  0  0  0  0  0  0  0  0  0
    1.1840    9.9670   -3.0450 C   0  0  2  0  0  0  0  0  0  0  0  0
    2.6840    9.9870   -2.6900 C   0  0  0  0  0  0  0  0  0  0  0  0
    3.5710   10.5700   -3.7930 C   0  0  0  0  0  0  0  0  0  0  0  0
    4.9670   10.8170   -3.3090 C   0  0  2  0  0  0  0  0  0  0  0  0
    5.5550   12.0390   -3.7750 O   0  0  0  0  0  0  0  0  0  0  0  0
    6.1800   10.8250   -4.2220 C   0  0  0  0  0  0  0  0  0  0  0  0
    6.0510   10.5790   -5.6920 C   0  0  0  0  0  0  0  0  0  0  0  0
    7.5290   10.5850   -3.6200 C   0  0  0  0  0  0  0  0  0  0  0  0
    0.5450   11.3030   -2.6840 C   0  0  1  0  0  0  0  0  0  0  0  0
   -0.8200   11.1370   -1.9650 C   0  0  0  0  0  0  0  0  0  0  0  0
   -0.9250   12.2880   -0.9320 C   0  0  0  0  0  0  0  0  0  0  0  0
    0.2160   13.2600   -1.3140 C   0  0  1  0  0  0  0  0  0  0  0  0
   -0.3550   14.1030   -2.4980 C   0  0  0  0  0  0  0  0  0  0  0  0
    0.7600   14.1720   -0.1670 C   0  0  2  0  0  0  0  0  0  0  0  0
   -0.2650   15.1520    0.4300 C   0  0  0  0  0  0  0  0  0  0  0  0
   -0.3240   16.4920   -0.2260 C   0  0  0  0  0  0  0  0  0  0  0  0
    0.6040   16.9950   -1.0610 C   0  0  0  0  0  0  0  0  0  0  0  0
    1.9040   16.2320   -1.3460 C   0  0  1  0  0  0  0  0  0  0  0  0
    3.1080   17.2040   -1.2450 C   0  0  0  0  0  0  0  0  0  0  0  0
    2.9450   18.4320   -2.1370 C   0  0  0  0  0  0  0  0  0  0  0  0
    1.6720   19.1960   -1.7840 C   0  0  2  0  0  0  0  0  0  0  0  0
    1.8150   19.7510   -0.4730 O   0  0  0  0  0  0  0  0  0  0  0  0
    0.3920   18.3160   -1.8420 C   0  0  0  0  0  0  0  0  0  0  0  0
    0.0690   17.9630   -3.3150 C   0  0  0  0  0  0  0  0  0  0  0  0
   -0.7990   19.1690   -1.3280 C   0  0  0  0  0  0  0  0  0  0  0  0
    2.1240   14.8990   -0.5080 C   0  0  1  0  0  0  0  0  0  0  0  0
    2.8030   15.2340    0.8550 C   0  0  0  0  0  0  0  0  0  0  0  0
    3.1230   13.9630   -1.2840 C   0  0  0  0  0  0  0  0  0  0  0  0
    2.5110   13.0000   -2.3200 C   0  0  0  0  0  0  0  0  0  0  0  0
    1.3310   12.2290   -1.7210 C   0  0  2  0  0  0  0  0  0  0  0  0
    1.8780   11.3560   -0.5420 C   0  0  0  0  0  0  0  0  0  0  0  0
    0.5208    8.9499   -1.2550 H   0  0  0  0  0  0  0  0  0  0  0  0
   -0.6199    8.8449   -2.6386 H   0  0  0  0  0  0  0  0  0  0  0  0
    0.8847    7.8637   -2.6386 H   0  0  0  0  0  0  0  0  0  0  0  0
    1.1042    9.7976   -4.1290 H   0  0  0  0  0  0  0  0  0  0  0  0
    2.8175   10.5922   -1.7812 H   0  0  0  0  0  0  0  0  0  0  0  0
    2.9941    8.9412   -2.5480 H   0  0  0  0  0  0  0  0  0  0  0  0
    3.6054    9.8621   -4.6342 H   0  0  0  0  0  0  0  0  0  0  0  0
    3.1411   11.5331   -4.1055 H   0  0  0  0  0  0  0  0  0  0  0  0
    4.7575   10.2935   -2.3645 H   0  0  0  0  0  0  0  0  0  0  0  0
    5.5461    9.6162   -5.8597 H   0  0  0  0  0  0  0  0  0  0  0  0
    5.4606   11.3871   -6.1486 H   0  0  0  0  0  0  0  0  0  0  0  0
    7.0514   10.5528   -6.1486 H   0  0  0  0  0  0  0  0  0  0  0  0
    7.4488   10.5993   -2.5230 H   0  0  0  0  0  0  0  0  0  0  0  0
    7.9075    9.6054   -3.9473 H   0  0  0  0  0  0  0  0  0  0  0  0
    8.2222   11.3739   -3.9473 H   0  0  0  0  0  0  0  0  0  0  0  0
    0.4900   11.7583   -3.6839 H   0  0  0  0  0  0  0  0  0  0  0  0
   -1.6421   11.2051   -2.6927 H   0  0  0  0  0  0  0  0  0  0  0  0
   -0.8895   10.1563   -1.4716 H   0  0  0  0  0  0  0  0  0  0  0  0
   -1.9020   12.7880   -1.0056 H   0  0  0  0  0  0  0  0  0  0  0  0
   -0.8375   11.9283    0.1038 H   0  0  0  0  0  0  0  0  0  0  0  0
   -0.9300   14.9520   -2.0998 H   0  0  0  0  0  0  0  0  0  0  0  0
    0.4750   14.4791   -3.1141 H   0  0  0  0  0  0  0  0  0  0  0  0
   -1.0122   13.4717   -3.1141 H   0  0  0  0  0  0  0  0  0  0  0  0
    0.9763   13.4445    0.6292 H   0  0  0  0  0  0  0  0  0  0  0  0
   -1.2609   14.6914    0.3521 H   0  0  0  0  0  0  0  0  0  0  0  0
    0.0564   15.3345    1.4660 H   0  0  0  0  0  0  0  0  0  0  0  0
   -1.1997   17.1211   -0.0085 H   0  0  0  0  0  0  0  0  0  0  0  0
    1.8148   15.8540   -2.3752 H   0  0  0  0  0  0  0  0  0  0  0  0
    3.2059   17.5368   -0.2012 H   0  0  0  0  0  0  0  0  0  0  0  0
    4.0038   16.6623   -1.5828 H   0  0  0  0  0  0  0  0  0  0  0  0
    3.8124   19.0945   -1.9999 H   0  0  0  0  0  0  0  0  0  0  0  0
    2.8770   18.0999   -3.1835 H   0  0  0  0  0  0  0  0  0  0  0  0
    1.5432   19.9864   -2.5381 H   0  0  0  0  0  0  0  0  0  0  0  0
    2.2310   20.6250   -0.5670 H   0  0  0  0  0  0  0  0  0  0  0  0
   -0.6733   17.1517   -3.3433 H   0  0  0  0  0  0  0  0  0  0  0  0
   -0.3372   18.8496   -3.8239 H   0  0  0  0  0  0  0  0  0  0  0  0
    0.9881   17.6370   -3.8239 H   0  0  0  0  0  0  0  0  0  0  0  0
   -0.8011   19.1705   -0.2280 H   0  0  0  0  0  0  0  0  0  0  0  0
   -0.6969   20.2006   -1.6959 H   0  0  0  0  0  0  0  0  0  0  0  0
   -1.7428   18.7402   -1.6959 H   0  0  0  0  0  0  0  0  0  0  0  0
    2.1496   14.9117    1.6791 H   0  0  0  0  0  0  0  0  0  0  0  0
    3.7666   14.7079    0.9237 H   0  0  0  0  0  0  0  0  0  0  0  0
    2.9718   16.3188    0.9237 H   0  0  0  0  0  0  0  0  0  0  0  0
    3.8408   14.6077   -1.8123 H   0  0  0  0  0  0  0  0  0  0  0  0
    3.5659   13.3139   -0.5143 H   0  0  0  0  0  0  0  0  0  0  0  0
    2.1597   13.5794   -3.1865 H   0  0  0  0  0  0  0  0  0  0  0  0
    3.2823   12.2783   -2.6268 H   0  0  0  0  0  0  0  0  0  0  0  0
    1.5914   11.8133    0.4165 H   0  0  0  0  0  0  0  0  0  0  0  0
    1.4523   10.3438   -0.6071 H   0  0  0  0  0  0  0  0  0  0  0  0
    2.9745   11.2975   -0.6071 H   0  0  0  0  0  0  0  0  0  0  0  0
  1  2  1  0
  2  3  1  0
  3  4  1  0
  4  5  1  0
  5  6  1  0
  6  7  1  0
  7  8  1  0
  7  9  1  0
  2 10  1  0
 10 11  1  0
 11 12  1  0
 12 13  1  0
 13 14  1  6
 13 15  1  0
 15 16  1  0
 16 17  1  0
 17 18  2  0
 18 19  1  0
 19 20  1  0
 20 21  1  0
 21 22  1  0
 22 23  1  0
 22 24  1  0
 24 25  1  0
 24 26  1  0
 19 27  1  0
 27 28  1  1
 27 29  1  0
 29 30  1  0
 30 31  1  0
 31 32  1  1
  7  5  1  0
 31 10  1  0
 31 13  1  0
 27 15  1  0
 24 18  1  0
  1 33  1  0
  1 34  1  0
  1 35  1  0
  2 36  1  6
  3 37  1  0
  3 38  1  0
  4 39  1  0
  4 40  1  0
  5 41  1  1
  8 42  1  0
  8 43  1  0
  8 44  1  0
  9 45  1  0
  9 46  1  0
  9 47  1  0
 10 48  1  6
 11 49  1  0
 11 50  1  0
 12 51  1  0
 12 52  1  0
 14 53  1  0
 14 54  1  0
 14 55  1  0
 15 56  1  1
 16 57  1  0
 16 58  1  0
 17 59  1  0
 19 60  1  6
 20 61  1  0
 20 62  1  0
 21 63  1  0
 21 64  1  0
 22 65  1  6
 23 66  1  0
 25 67  1  0
 25 68  1  0
 25 69  1  0
 26 70  1  0
 26 71  1  0
 26 72  1  0
 28 73  1  0
 28 74  1  0
 28 75  1  0
 29 76  1  0
 29 77  1  0
 30 78  1  0
 30 79  1  0
 32 80  1  0
 32 81  1  0
 32 82  1  0
M  END
>  <meeko>  (7) 
{"is_sidechain": [false], "intermolecular_energy": 2.731, "internal_energy": -0.839}

$$$$
EPH_relaxed_0001_pdb2pqr_Repair_156_r2_0001_out
     RDKit          3D

 82 86  0  0  0  0  0  0  0  0999 V2000
    2.9060   18.9500   -0.9790 C   0  0  0  0  0  0  0  0  0  0  0  0
    2.7300   17.9380   -2.1140 C   0  0  2  0  0  0  0  0  0  0  0  0
    1.3710   18.0940   -2.8260 C   0  0  0  0  0  0  0  0  0  0  0  0
    0.6120   19.3640   -2.4320 C   0  0  0  0  0  0  0  0  0  0  0  0
   -0.7310   19.0490   -1.8480 C   0  0  2  0  0  0  0  0  0  0  0  0
   -1.5610   20.1920   -1.6010 O   0  0  0  0  0  0  0  0  0  0  0  0
   -1.1480   19.4470   -0.4440 C   0  0  0  0  0  0  0  0  0  0  0  0
   -0.2210   20.1940    0.4620 C   0  0  0  0  0  0  0  0  0  0  0  0
   -2.2600   18.6900    0.2130 C   0  0  0  0  0  0  0  0  0  0  0  0
    2.8740   16.5200   -1.5730 C   0  0  1  0  0  0  0  0  0  0  0  0
    3.5980   16.4750   -0.2010 C   0  0  0  0  0  0  0  0  0  0  0  0
    2.9500   15.3230    0.6090 C   0  0  0  0  0  0  0  0  0  0  0  0
    2.1160   14.5370   -0.4300 C   0  0  1  0  0  0  0  0  0  0  0  0
    3.1460   13.6160   -1.1570 C   0  0  0  0  0  0  0  0  0  0  0  0
    0.9070   13.7210    0.1310 C   0  0  2  0  0  0  0  0  0  0  0  0
    1.2770   12.5960    1.1130 C   0  0  0  0  0  0  0  0  0  0  0  0
    1.5270   11.2620    0.4900 C   0  0  0  0  0  0  0  0  0  0  0  0
    1.1830   10.9070   -0.7610 C   0  0  0  0  0  0  0  0  0  0  0  0
    0.3850   11.8600   -1.6600 C   0  0  1  0  0  0  0  0  0  0  0  0
   -0.7750   11.0830   -2.3360 C   0  0  0  0  0  0  0  0  0  0  0  0
   -0.2920    9.8440   -3.0840 C   0  0  0  0  0  0  0  0  0  0  0  0
    0.4460    8.8940   -2.1450 C   0  0  2  0  0  0  0  0  0  0  0  0
   -0.4850    8.3690   -1.1940 O   0  0  0  0  0  0  0  0  0  0  0  0
    1.6310    9.5680   -1.3990 C   0  0  0  0  0  0  0  0  0  0  0  0
    2.7750    9.8650   -2.4000 C   0  0  0  0  0  0  0  0  0  0  0  0
    2.2000    8.5430   -0.3820 C   0  0  0  0  0  0  0  0  0  0  0  0
   -0.1010   13.2110   -0.9780 C   0  0  1  0  0  0  0  0  0  0  0  0
   -1.4700   12.9860   -0.2660 C   0  0  0  0  0  0  0  0  0  0  0  0
   -0.3540   14.2890   -2.0970 C   0  0  0  0  0  0  0  0  0  0  0  0
    0.8530   15.1460   -2.5230 C   0  0  0  0  0  0  0  0  0  0  0  0
    1.5720   15.7260   -1.3020 C   0  0  2  0  0  0  0  0  0  0  0  0
    0.5680   16.6750   -0.5620 C   0  0  0  0  0  0  0  0  0  0  0  0
    2.8164   18.4348   -0.0112 H   0  0  0  0  0  0  0  0  0  0  0  0
    3.8989   19.4173   -1.0551 H   0  0  0  0  0  0  0  0  0  0  0  0
    2.1292   19.7251   -1.0551 H   0  0  0  0  0  0  0  0  0  0  0  0
    3.5168   18.1346   -2.8572 H   0  0  0  0  0  0  0  0  0  0  0  0
    1.5483   18.1180   -3.9114 H   0  0  0  0  0  0  0  0  0  0  0  0
    0.7485   17.2398   -2.5212 H   0  0  0  0  0  0  0  0  0  0  0  0
    1.2038   19.9162   -1.6872 H   0  0  0  0  0  0  0  0  0  0  0  0
    0.4582   19.9666   -3.3393 H   0  0  0  0  0  0  0  0  0  0  0  0
   -0.7635   18.0885   -2.3832 H   0  0  0  0  0  0  0  0  0  0  0  0
   -0.4828   19.9830    1.5093 H   0  0  0  0  0  0  0  0  0  0  0  0
    0.8143   19.8748    0.2714 H   0  0  0  0  0  0  0  0  0  0  0  0
   -0.3128   21.2735    0.2714 H   0  0  0  0  0  0  0  0  0  0  0  0
   -2.1561   18.7607    1.3058 H   0  0  0  0  0  0  0  0  0  0  0  0
   -3.2259   19.1190   -0.0920 H   0  0  0  0  0  0  0  0  0  0  0  0
   -2.2150   17.6341   -0.0920 H   0  0  0  0  0  0  0  0  0  0  0  0
    3.4278   16.0608   -2.4052 H   0  0  0  0  0  0  0  0  0  0  0  0
    4.6709   16.2799   -0.3451 H   0  0  0  0  0  0  0  0  0  0  0  0
    3.5002   17.4340    0.3288 H   0  0  0  0  0  0  0  0  0  0  0  0
    3.7226   14.6789    1.0543 H   0  0  0  0  0  0  0  0  0  0  0  0
    2.3359   15.6934    1.4431 H   0  0  0  0  0  0  0  0  0  0  0  0
    3.7479   13.0778   -0.4099 H   0  0  0  0  0  0  0  0  0  0  0  0
    2.6092   12.8911   -1.7866 H   0  0  0  0  0  0  0  0  0  0  0  0
    3.8066   14.2302   -1.7866 H   0  0  0  0  0  0  0  0  0  0  0  0
    0.3720   14.4741    0.7281 H   0  0  0  0  0  0  0  0  0  0  0  0
    2.1898   12.8979    1.6475 H   0  0  0  0  0  0  0  0  0  0  0  0
    0.4043   12.4663    1.7699 H   0  0  0  0  0  0  0  0  0  0  0  0
    2.0354   10.5058    1.1062 H   0  0  0  0  0  0  0  0  0  0  0  0
    1.0892   12.2194   -2.4249 H   0  0  0  0  0  0  0  0  0  0  0  0
   -1.4892   10.7703   -1.5600 H   0  0  0  0  0  0  0  0  0  0  0  0
   -1.2433   11.7548   -3.0704 H   0  0  0  0  0  0  0  0  0  0  0  0
   -1.1594    9.3226   -3.5150 H   0  0  0  0  0  0  0  0  0  0  0  0
    0.3998   10.1606   -3.8785 H   0  0  0  0  0  0  0  0  0  0  0  0
    0.8786    8.0920   -2.7611 H   0  0  0  0  0  0  0  0  0  0  0  0
   -1.0020    7.6760   -1.6400 H   0  0  0  0  0  0  0  0  0  0  0  0
    3.6946   10.1037   -1.8456 H   0  0  0  0  0  0  0  0  0  0  0  0
    2.9471    8.9818   -3.0327 H   0  0  0  0  0  0  0  0  0  0  0  0
    2.4958   10.7204   -3.0327 H   0  0  0  0  0  0  0  0  0  0  0  0
    2.0046    8.8950    0.6417 H   0  0  0  0  0  0  0  0  0  0  0  0
    1.7141    7.5678   -0.5334 H   0  0  0  0  0  0  0  0  0  0  0  0
    3.2846    8.4397   -0.5334 H   0  0  0  0  0  0  0  0  0  0  0  0
   -1.3246   13.0099    0.8241 H   0  0  0  0  0  0  0  0  0  0  0  0
   -2.1712   13.7810   -0.5599 H   0  0  0  0  0  0  0  0  0  0  0  0
   -1.8799   12.0084   -0.5599 H   0  0  0  0  0  0  0  0  0  0  0  0
   -0.7192   13.7615   -2.9905 H   0  0  0  0  0  0  0  0  0  0  0  0
   -1.0690   14.9989   -1.6556 H   0  0  0  0  0  0  0  0  0  0  0  0
    1.5566   14.5195   -3.0908 H   0  0  0  0  0  0  0  0  0  0  0  0
    0.4903   15.9781   -3.1443 H   0  0  0  0  0  0  0  0  0  0  0  0
    0.6890   16.5606    0.5253 H   0  0  0  0  0  0  0  0  0  0  0  0
    0.7721   17.7179   -0.8460 H   0  0  0  0  0  0  0  0  0  0  0  0
   -0.4618   16.4125   -0.8460 H   0  0  0  0  0  0  0  0  0  0  0  0
  1  2  1  0
  2  3  1  0
  3  4  1  0
  4  5  1  0
  5  6  1  0
  6  7  1  0
  7  8  1  0
  7  9  1  0
  2 10  1  0
 10 11  1  0
 11 12  1  0
 12 13  1  0
 13 14  1  6
 13 15  1  0
 15 16  1  0
 16 17  1  0
 17 18  2  0
 18 19  1  0
 19 20  1  0
 20 21  1  0
 21 22  1  0
 22 23  1  0
 22 24  1  0
 24 25  1  0
 24 26  1  0
 19 27  1  0
 27 28  1  1
 27 29  1  0
 29 30  1  0
 30 31  1  0
 31 32  1  1
  7  5  1  0
 31 10  1  0
 31 13  1  0
 27 15  1  0
 24 18  1  0
  1 33  1  0
  1 34  1  0
  1 35  1  0
  2 36  1  6
  3 37  1  0
  3 38  1  0
  4 39  1  0
  4 40  1  0
  5 41  1  6
  8 42  1  0
  8 43  1  0
  8 44  1  0
  9 45  1  0
  9 46  1  0
  9 47  1  0
 10 48  1  6
 11 49  1  0
 11 50  1  0
 12 51  1  0
 12 52  1  0
 14 53  1  0
 14 54  1  0
 14 55  1  0
 15 56  1  1
 16 57  1  0
 16 58  1  0
 17 59  1  0
 19 60  1  6
 20 61  1  0
 20 62  1  0
 21 63  1  0
 21 64  1  0
 22 65  1  6
 23 66  1  0
 25 67  1  0
 25 68  1  0
 25 69  1  0
 26 70  1  0
 26 71  1  0
 26 72  1  0
 28 73  1  0
 28 74  1  0
 28 75  1  0
 29 76  1  0
 29 77  1  0
 30 78  1  0
 30 79  1  0
 32 80  1  0
 32 81  1  0
 32 82  1  0
M  END
>  <meeko>  (8) 
{"is_sidechain": [false], "intermolecular_energy": 2.731, "internal_energy": -0.839}

$$$$
EPH_relaxed_0001_pdb2pqr_Repair_156_r2_0001_out
     RDKit          3D

 82 86  0  0  0  0  0  0  0  0999 V2000
    0.1210   17.7690   -2.5730 C   0  0  0  0  0  0  0  0  0  0  0  0
   -0.1240   16.8800   -1.3510 C   0  0  2  0  0  0  0  0  0  0  0  0
   -0.1760   17.6940   -0.0420 C   0  0  0  0  0  0  0  0  0  0  0  0
    0.4620   19.0810   -0.1540 C   0  0  0  0  0  0  0  0  0  0  0  0
    1.6200   19.2370    0.7850 C   0  0  2  0  0  0  0  0  0  0  0  0
    2.6030   20.1940    0.3700 O   0  0  0  0  0  0  0  0  0  0  0  0
    3.0390   18.8270    0.4380 C   0  0  0  0  0  0  0  0  0  0  0  0
    3.3760   18.2290   -0.8910 C   0  0  0  0  0  0  0  0  0  0  0  0
    3.9980   18.5550    1.5550 C   0  0  0  0  0  0  0  0  0  0  0  0
    0.9610   15.8140   -1.2580 C   0  0  1  0  0  0  0  0  0  0  0  0
    1.1610   15.2890    0.1890 C   0  0  0  0  0  0  0  0  0  0  0  0
    1.5140   13.7840    0.0740 C   0  0  0  0  0  0  0  0  0  0  0  0
    1.8300   13.5710   -1.4250 C   0  0  1  0  0  0  0  0  0  0  0  0
    3.3030   14.0580   -1.5970 C   0  0  0  0  0  0  0  0  0  0  0  0
    1.6350   12.1190   -1.9730 C   0  0  2  0  0  0  0  0  0  0  0  0
    2.5410   11.0530   -1.3330 C   0  0  0  0  0  0  0  0  0  0  0  0
    3.8500   10.8340   -2.0170 C   0  0  0  0  0  0  0  0  0  0  0  0
    4.1650   11.2560   -3.2550 C   0  0  0  0  0  0  0  0  0  0  0  0
    3.1210   11.9480   -4.1410 C   0  0  1  0  0  0  0  0  0  0  0  0
    3.1660   11.3370   -5.5670 C   0  0  0  0  0  0  0  0  0  0  0  0
    4.5640   11.3730   -6.1750 C   0  0  0  0  0  0  0  0  0  0  0  0
    5.5620   10.6250   -5.2950 C   0  0  2  0  0  0  0  0  0  0  0  0
    5.2290    9.2340   -5.3020 O   0  0  0  0  0  0  0  0  0  0  0  0
    5.5980   11.1470   -3.8310 C   0  0  0  0  0  0  0  0  0  0  0  0
    6.2440   12.5540   -3.7960 C   0  0  0  0  0  0  0  0  0  0  0  0
    6.5380   10.2180   -3.0170 C   0  0  0  0  0  0  0  0  0  0  0  0
    1.6470   12.0160   -3.5520 C   0  0  1  0  0  0  0  0  0  0  0  0
    0.8670   10.7160   -3.9180 C   0  0  0  0  0  0  0  0  0  0  0  0
    0.8740   13.2050   -4.2350 C   0  0  0  0  0  0  0  0  0  0  0  0
    1.0110   14.5920   -3.5780 C   0  0  0  0  0  0  0  0  0  0  0  0
    0.7490   14.5120   -2.0710 C   0  0  2  0  0  0  0  0  0  0  0  0
   -0.7320   14.0450   -1.8660 C   0  0  0  0  0  0  0  0  0  0  0  0
    0.3996   18.7800   -2.2410 H   0  0  0  0  0  0  0  0  0  0  0  0
    0.9356   17.3443   -3.1780 H   0  0  0  0  0  0  0  0  0  0  0  0
   -0.7962   17.8215   -3.1780 H   0  0  0  0  0  0  0  0  0  0  0  0
   -1.1056   16.4011   -1.4816 H   0  0  0  0  0  0  0  0  0  0  0  0
   -1.2298   17.8189    0.2476 H   0  0  0  0  0  0  0  0  0  0  0  0
    0.4019   17.1340    0.7079 H   0  0  0  0  0  0  0  0  0  0  0  0
    0.8168   19.2278   -1.1848 H   0  0  0  0  0  0  0  0  0  0  0  0
   -0.2982   19.8302    0.1122 H   0  0  0  0  0  0  0  0  0  0  0  0
    0.9784   19.0152    1.6505 H   0  0  0  0  0  0  0  0  0  0  0  0
    3.9110   17.2797   -0.7409 H   0  0  0  0  0  0  0  0  0  0  0  0
    2.4500   18.0428   -1.4547 H   0  0  0  0  0  0  0  0  0  0  0  0
    4.0149   18.9247   -1.4547 H   0  0  0  0  0  0  0  0  0  0  0  0
    3.4885   18.6995    2.5191 H   0  0  0  0  0  0  0  0  0  0  0  0
    4.3600   17.5188    1.4833 H   0  0  0  0  0  0  0  0  0  0  0  0
    4.8502   19.2469    1.4833 H   0  0  0  0  0  0  0  0  0  0  0  0
    1.8111   16.3795   -1.6672 H   0  0  0  0  0  0  0  0  0  0  0  0
    1.9809   15.8339    0.6797 H   0  0  0  0  0  0  0  0  0  0  0  0
    0.2528   15.4367    0.7918 H   0  0  0  0  0  0  0  0  0  0  0  0
    2.3900   13.5421    0.6938 H   0  0  0  0  0  0  0  0  0  0  0  0
    0.6972   13.1359    0.4244 H   0  0  0  0  0  0  0  0  0  0  0  0
    3.7575   14.2083   -0.6066 H   0  0  0  0  0  0  0  0  0  0  0  0
    3.8767   13.3017   -2.1528 H   0  0  0  0  0  0  0  0  0  0  0  0
    3.3128   15.0072   -2.1528 H   0  0  0  0  0  0  0  0  0  0  0  0
    0.6131   11.8777   -1.6450 H   0  0  0  0  0  0  0  0  0  0  0  0
    2.7462   11.3592   -0.2966 H   0  0  0  0  0  0  0  0  0  0  0  0
    1.9939   10.1019   -1.4115 H   0  0  0  0  0  0  0  0  0  0  0  0
    4.6220   10.2809   -1.4618 H   0  0  0  0  0  0  0  0  0  0  0  0
    3.4097   13.0087   -4.1799 H   0  0  0  0  0  0  0  0  0  0  0  0
    2.8319   10.2904   -5.5128 H   0  0  0  0  0  0  0  0  0  0  0  0
    2.5070   11.9397   -6.2093 H   0  0  0  0  0  0  0  0  0  0  0  0
    4.5365   10.9017   -7.1686 H   0  0  0  0  0  0  0  0  0  0  0  0
    4.8847   12.4222   -6.2552 H   0  0  0  0  0  0  0  0  0  0  0  0
    6.5649   10.7954   -5.7134 H   0  0  0  0  0  0  0  0  0  0  0  0
    5.9930    8.7470   -4.9480 H   0  0  0  0  0  0  0  0  0  0  0  0
    6.3872   12.8658   -2.7509 H   0  0  0  0  0  0  0  0  0  0  0  0
    7.2181   12.5230   -4.3061 H   0  0  0  0  0  0  0  0  0  0  0  0
    5.5856   13.2725   -4.3061 H   0  0  0  0  0  0  0  0  0  0  0  0
    6.3732   10.3809   -1.9417 H   0  0  0  0  0  0  0  0  0  0  0  0
    6.3221    9.1686   -3.2662 H   0  0  0  0  0  0  0  0  0  0  0  0
    7.5848   10.4462   -3.2662 H   0  0  0  0  0  0  0  0  0  0  0  0
    0.5584   10.2017   -2.9959 H   0  0  0  0  0  0  0  0  0  0  0  0
   -0.0239   10.9768   -4.5081 H   0  0  0  0  0  0  0  0  0  0  0  0
    1.5164   10.0526   -4.5081 H   0  0  0  0  0  0  0  0  0  0  0  0
    1.2396   13.2891   -5.2690 H   0  0  0  0  0  0  0  0  0  0  0  0
   -0.1912   12.9467   -4.1419 H   0  0  0  0  0  0  0  0  0  0  0  0
    2.0297   14.9712   -3.7467 H   0  0  0  0  0  0  0  0  0  0  0  0
    0.2694   15.2685   -4.0279 H   0  0  0  0  0  0  0  0  0  0  0  0
   -0.9492   13.9765   -0.7898 H   0  0  0  0  0  0  0  0  0  0  0  0
   -1.4135   14.7718   -2.3321 H   0  0  0  0  0  0  0  0  0  0  0  0
   -0.8733   13.0587   -2.3321 H   0  0  0  0  0  0  0  0  0  0  0  0
  1  2  1  0
  2  3  1  0
  3  4  1  0
  4  5  1  0
  5  6  1  0
  6  7  1  0
  7  8  1  0
  7  9  1  0
  2 10  1  0
 10 11  1  0
 11 12  1  0
 12 13  1  0
 13 14  1  1
 13 15  1  0
 15 16  1  0
 16 17  1  0
 17 18  2  0
 18 19  1  0
 19 20  1  0
 20 21  1  0
 21 22  1  0
 22 23  1  0
 22 24  1  0
 24 25  1  0
 24 26  1  0
 19 27  1  0
 27 28  1  1
 27 29  1  0
 29 30  1  0
 30 31  1  0
 31 32  1  6
  7  5  1  0
 31 10  1  0
 31 13  1  0
 27 15  1  0
 24 18  1  0
  1 33  1  0
  1 34  1  0
  1 35  1  0
  2 36  1  6
  3 37  1  0
  3 38  1  0
  4 39  1  0
  4 40  1  0
  5 41  1  1
  8 42  1  0
  8 43  1  0
  8 44  1  0
  9 45  1  0
  9 46  1  0
  9 47  1  0
 10 48  1  6
 11 49  1  0
 11 50  1  0
 12 51  1  0
 12 52  1  0
 14 53  1  0
 14 54  1  0
 14 55  1  0
 15 56  1  1
 16 57  1  0
 16 58  1  0
 17 59  1  0
 19 60  1  6
 20 61  1  0
 20 62  1  0
 21 63  1  0
 21 64  1  0
 22 65  1  6
 23 66  1  0
 25 67  1  0
 25 68  1  0
 25 69  1  0
 26 70  1  0
 26 71  1  0
 26 72  1  0
 28 73  1  0
 28 74  1  0
 28 75  1  0
 29 76  1  0
 29 77  1  0
 30 78  1  0
 30 79  1  0
 32 80  1  0
 32 81  1  0
 32 82  1  0
M  END
>  <meeko>  (9) 
{"is_sidechain": [false], "intermolecular_energy": 2.731, "internal_energy": -0.839}

$$$$
EPH_relaxed_0001_pdb2pqr_Repair_156_r2_0001_out
     RDKit          3D

 82 86  0  0  0  0  0  0  0  0999 V2000
    1.1450   10.2680   -4.2360 C   0  0  0  0  0  0  0  0  0  0  0  0
    1.7460   11.5170   -4.8880 C   0  0  2  0  0  0  0  0  0  0  0  0
    3.2860   11.5260   -4.8150 C   0  0  0  0  0  0  0  0  0  0  0  0
    3.8690   10.3820   -3.9810 C   0  0  0  0  0  0  0  0  0  0  0  0
    5.2160   10.7330   -3.4240 C   0  0  2  0  0  0  0  0  0  0  0  0
    5.7460   11.9830   -3.8820 O   0  0  0  0  0  0  0  0  0  0  0  0
    6.4760   10.8070   -4.2650 C   0  0  0  0  0  0  0  0  0  0  0  0
    6.4510   10.5260   -5.7350 C   0  0  0  0  0  0  0  0  0  0  0  0
    7.8010   10.6710   -3.5820 C   0  0  0  0  0  0  0  0  0  0  0  0
    1.1860   12.7690   -4.2240 C   0  0  1  0  0  0  0  0  0  0  0  0
   -0.3630   12.7500   -4.1210 C   0  0  0  0  0  0  0  0  0  0  0  0
   -0.7320   13.4600   -2.7940 C   0  0  0  0  0  0  0  0  0  0  0  0
    0.5760   14.1520   -2.3450 C   0  0  1  0  0  0  0  0  0  0  0  0
    0.6400   15.4700   -3.1790 C   0  0  0  0  0  0  0  0  0  0  0  0
    0.7200   14.4310   -0.8130 C   0  0  2  0  0  0  0  0  0  0  0  0
   -0.3300   15.3890   -0.2230 C   0  0  0  0  0  0  0  0  0  0  0  0
    0.0470   16.8340   -0.2360 C   0  0  0  0  0  0  0  0  0  0  0  0
    1.2870   17.3170   -0.4370 C   0  0  0  0  0  0  0  0  0  0  0  0
    2.4860   16.3720   -0.5830 C   0  0  1  0  0  0  0  0  0  0  0  0
    3.6580   16.8820    0.2970 C   0  0  0  0  0  0  0  0  0  0  0  0
    4.0200   18.3350    0.0030 C   0  0  0  0  0  0  0  0  0  0  0  0
    2.8180   19.2510    0.2160 C   0  0  2  0  0  0  0  0  0  0  0  0
    2.4870   19.2620    1.6080 O   0  0  0  0  0  0  0  0  0  0  0  0
    1.5720   18.8290   -0.6130 C   0  0  0  0  0  0  0  0  0  0  0  0
    1.8300   19.1040   -2.1150 C   0  0  0  0  0  0  0  0  0  0  0  0
    0.3910   19.7480   -0.2000 C   0  0  0  0  0  0  0  0  0  0  0  0
    2.1830   14.8280   -0.3610 C   0  0  1  0  0  0  0  0  0  0  0  0
    2.2910   14.4770    1.1550 C   0  0  0  0  0  0  0  0  0  0  0  0
    3.2870   13.9770   -1.0930 C   0  0  0  0  0  0  0  0  0  0  0  0
    3.0310   13.6320   -2.5730 C   0  0  0  0  0  0  0  0  0  0  0  0
    1.6240   13.0590   -2.7660 C   0  0  2  0  0  0  0  0  0  0  0  0
    1.5370   11.7200   -1.9560 C   0  0  0  0  0  0  0  0  0  0  0  0
    1.1925   10.3668   -3.1415 H   0  0  0  0  0  0  0  0  0  0  0  0
    0.0961   10.1596   -4.5492 H   0  0  0  0  0  0  0  0  0  0  0  0
    1.7148    9.3807   -4.5492 H   0  0  0  0  0  0  0  0  0  0  0  0
    1.4662   11.5029   -5.9517 H   0  0  0  0  0  0  0  0  0  0  0  0
    3.6827   11.4473   -5.8380 H   0  0  0  0  0  0  0  0  0  0  0  0
    3.5791   12.4649   -4.3225 H   0  0  0  0  0  0  0  0  0  0  0  0
    3.1847   10.1633   -3.1480 H   0  0  0  0  0  0  0  0  0  0  0  0
    3.9860    9.5055   -4.6352 H   0  0  0  0  0  0  0  0  0  0  0  0
    4.9874   10.2133   -2.4818 H   0  0  0  0  0  0  0  0  0  0  0  0
    6.3546    9.4427   -5.8996 H   0  0  0  0  0  0  0  0  0  0  0  0
    5.5954   11.0440   -6.1928 H   0  0  0  0  0  0  0  0  0  0  0  0
    7.3846   10.8848   -6.1928 H   0  0  0  0  0  0  0  0  0  0  0  0
    7.6548   10.6860   -2.4919 H   0  0  0  0  0  0  0  0  0  0  0  0
    8.2692    9.7201   -3.8761 H   0  0  0  0  0  0  0  0  0  0  0  0
    8.4526   11.5070   -3.8761 H   0  0  0  0  0  0  0  0  0  0  0  0
    1.5970   13.5337   -4.8996 H   0  0  0  0  0  0  0  0  0  0  0  0
   -0.8058   13.2862   -4.9733 H   0  0  0  0  0  0  0  0  0  0  0  0
   -0.7471   11.7194   -4.1374 H   0  0  0  0  0  0  0  0  0  0  0  0
   -1.5271   14.2020   -2.9587 H   0  0  0  0  0  0  0  0  0  0  0  0
   -1.1136   12.7584   -2.0376 H   0  0  0  0  0  0  0  0  0  0  0  0
    0.6819   16.3330   -2.4982 H   0  0  0  0  0  0  0  0  0  0  0  0
    1.5387   15.4593   -3.8132 H   0  0  0  0  0  0  0  0  0  0  0  0
   -0.2555   15.5464   -3.8132 H   0  0  0  0  0  0  0  0  0  0  0  0
    0.5067   13.4457   -0.3728 H   0  0  0  0  0  0  0  0  0  0  0  0
   -1.2582   15.2745   -0.8021 H   0  0  0  0  0  0  0  0  0  0  0  0
   -0.4348   15.1111    0.8361 H   0  0  0  0  0  0  0  0  0  0  0  0
   -0.7569   17.5655   -0.0670 H   0  0  0  0  0  0  0  0  0  0  0  0
    2.7735   16.4075   -1.6442 H   0  0  0  0  0  0  0  0  0  0  0  0
    3.3676   16.7978    1.3546 H   0  0  0  0  0  0  0  0  0  0  0  0
    4.5399   16.2651    0.0695 H   0  0  0  0  0  0  0  0  0  0  0  0
    4.8333   18.6463    0.6750 H   0  0  0  0  0  0  0  0  0  0  0  0
    4.3379   18.4118   -1.0473 H   0  0  0  0  0  0  0  0  0  0  0  0
    3.1027   20.2547   -0.1327 H   0  0  0  0  0  0  0  0  0  0  0  0
    3.2110   19.7110    2.0780 H   0  0  0  0  0  0  0  0  0  0  0  0
    2.5793   19.9027   -2.2181 H   0  0  0  0  0  0  0  0  0  0  0  0
    2.2020   18.1878   -2.5969 H   0  0  0  0  0  0  0  0  0  0  0  0
    0.8920   19.4168   -2.5969 H   0  0  0  0  0  0  0  0  0  0  0  0
    0.3298   19.7956    0.8973 H   0  0  0  0  0  0  0  0  0  0  0  0
    0.5547   20.7586   -0.6023 H   0  0  0  0  0  0  0  0  0  0  0  0
   -0.5484   19.3410   -0.6023 H   0  0  0  0  0  0  0  0  0  0  0  0
    2.0200   15.3579    1.7555 H   0  0  0  0  0  0  0  0  0  0  0  0
    1.6062   13.6487    1.3893 H   0  0  0  0  0  0  0  0  0  0  0  0
    3.3230   14.1769    1.3893 H   0  0  0  0  0  0  0  0  0  0  0  0
    4.2303   14.5405   -1.0410 H   0  0  0  0  0  0  0  0  0  0  0  0
    3.2984   13.0095   -0.5698 H   0  0  0  0  0  0  0  0  0  0  0  0
    3.1342   14.5446   -3.1784 H   0  0  0  0  0  0  0  0  0  0  0  0
    3.7645   12.8757   -2.8891 H   0  0  0  0  0  0  0  0  0  0  0  0
    1.5514   11.9416   -0.8786 H   0  0  0  0  0  0  0  0  0  0  0  0
    0.6030   11.1976   -2.2104 H   0  0  0  0  0  0  0  0  0  0  0  0
    2.3955   11.0811   -2.2104 H   0  0  0  0  0  0  0  0  0  0  0  0
  1  2  1  0
  2  3  1  0
  3  4  1  0
  4  5  1  0
  5  6  1  0
  6  7  1  0
  7  8  1  0
  7  9  1  0
  2 10  1  0
 10 11  1  0
 11 12  1  0
 12 13  1  0
 13 14  1  6
 13 15  1  0
 15 16  1  0
 16 17  1  0
 17 18  2  0
 18 19  1  0
 19 20  1  0
 20 21  1  0
 21 22  1  0
 22 23  1  0
 22 24  1  0
 24 25  1  0
 24 26  1  0
 19 27  1  0
 27 28  1  1
 27 29  1  0
 29 30  1  0
 30 31  1  0
 31 32  1  1
  7  5  1  0
 31 10  1  0
 31 13  1  0
 27 15  1  0
 24 18  1  0
  1 33  1  0
  1 34  1  0
  1 35  1  0
  2 36  1  6
  3 37  1  0
  3 38  1  0
  4 39  1  0
  4 40  1  0
  5 41  1  1
  8 42  1  0
  8 43  1  0
  8 44  1  0
  9 45  1  0
  9 46  1  0
  9 47  1  0
 10 48  1  6
 11 49  1  0
 11 50  1  0
 12 51  1  0
 12 52  1  0
 14 53  1  0
 14 54  1  0
 14 55  1  0
 15 56  1  1
 16 57  1  0
 16 58  1  0
 17 59  1  0
 19 60  1  6
 20 61  1  0
 20 62  1  0
 21 63  1  0
 21 64  1  0
 22 65  1  6
 23 66  1  0
 25 67  1  0
 25 68  1  0
 25 69  1  0
 26 70  1  0
 26 71  1  0
 26 72  1  0
 28 73  1  0
 28 74  1  0
 28 75  1  0
 29 76  1  0
 29 77  1  0
 30 78  1  0
 30 79  1  0
 32 80  1  0
 32 81  1  0
 32 82  1  0
M  END
>  <meeko>  (10) 
{"is_sidechain": [false], "intermolecular_energy": 2.731, "internal_energy": -0.839}

$$$$
EPH_relaxed_0001_pdb2pqr_Repair_156_r2_0001_out
     RDKit          3D

 82 86  0  0  0  0  0  0  0  0999 V2000
   -3.7220    7.2140   -3.4250 C   0  0  0  0  0  0  0  0  0  0  0  0
   -3.7480    7.2870   -1.8960 C   0  0  2  0  0  0  0  0  0  0  0  0
   -5.1640    7.0610   -1.3280 C   0  0  0  0  0  0  0  0  0  0  0  0
   -6.2810    7.2990   -2.3480 C   0  0  0  0  0  0  0  0  0  0  0  0
   -7.6070    7.5020   -1.6800 C   0  0  2  0  0  0  0  0  0  0  0  0
   -8.1770    6.3170   -1.1090 O   0  0  0  0  0  0  0  0  0  0  0  0
   -8.9040    6.9090   -2.1980 C   0  0  0  0  0  0  0  0  0  0  0  0
   -8.9380    6.0680   -3.4350 C   0  0  0  0  0  0  0  0  0  0  0  0
  -10.1960    7.5440   -1.7860 C   0  0  0  0  0  0  0  0  0  0  0  0
   -3.2090    8.6350   -1.4310 C   0  0  1  0  0  0  0  0  0  0  0  0
   -3.8250    9.0910   -0.0810 C   0  0  0  0  0  0  0  0  0  0  0  0
   -2.7100    9.8480    0.6860 C   0  0  0  0  0  0  0  0  0  0  0  0
   -1.6070   10.0920   -0.3710 C   0  0  1  0  0  0  0  0  0  0  0  0
   -2.0850   11.3450   -1.1680 C   0  0  0  0  0  0  0  0  0  0  0  0
   -0.1540   10.2760    0.1780 C   0  0  2  0  0  0  0  0  0  0  0  0
    0.0490   11.4960    1.0920 C   0  0  0  0  0  0  0  0  0  0  0  0
    0.4530   12.7540    0.3980 C   0  0  0  0  0  0  0  0  0  0  0  0
    0.9210   12.8360   -0.8620 C   0  0  0  0  0  0  0  0  0  0  0  0
    1.1770   11.5710   -1.6910 C   0  0  1  0  0  0  0  0  0  0  0  0
    2.5640   11.6740   -2.3770 C   0  0  0  0  0  0  0  0  0  0  0  0
    2.7180   12.9500   -3.1980 C   0  0  0  0  0  0  0  0  0  0  0  0
    2.5140   14.1870   -2.3270 C   0  0  2  0  0  0  0  0  0  0  0  0
    3.5840   14.2660   -1.3810 O   0  0  0  0  0  0  0  0  0  0  0  0
    1.1520   14.1900   -1.5770 C   0  0  0  0  0  0  0  0  0  0  0  0
    0.0010   14.4080   -2.5890 C   0  0  0  0  0  0  0  0  0  0  0  0
    1.1330   15.4180   -0.6270 C   0  0  0  0  0  0  0  0  0  0  0  0
    0.9730   10.1900   -0.9310 C   0  0  1  0  0  0  0  0  0  0  0  0
    2.2880    9.7870   -0.1980 C   0  0  0  0  0  0  0  0  0  0  0  0
    0.6880    9.0590   -1.9880 C   0  0  0  0  0  0  0  0  0  0  0  0
   -0.7810    8.8460   -2.3990 C   0  0  0  0  0  0  0  0  0  0  0  0
   -1.6860    8.7390   -1.1680 C   0  0  2  0  0  0  0  0  0  0  0  0
   -1.2430    7.4730   -0.3570 C   0  0  0  0  0  0  0  0  0  0  0  0
   -3.3683    6.2208   -3.7387 H   0  0  0  0  0  0  0  0  0  0  0  0
   -4.7356    7.3830   -3.8174 H   0  0  0  0  0  0  0  0  0  0  0  0
   -3.0434    7.9857   -3.8174 H   0  0  0  0  0  0  0  0  0  0  0  0
   -3.1066    6.4787   -1.5148 H   0  0  0  0  0  0  0  0  0  0  0  0
   -5.2339    6.0225   -0.9723 H   0  0  0  0  0  0  0  0  0  0  0  0
   -5.3064    7.7921   -0.5185 H   0  0  0  0  0  0  0  0  0  0  0  0
   -6.0389    8.1943   -2.9395 H   0  0  0  0  0  0  0  0  0  0  0  0
   -6.3535    6.4096   -2.9912 H   0  0  0  0  0  0  0  0  0  0  0  0
   -7.3291    8.5249   -1.3860 H   0  0  0  0  0  0  0  0  0  0  0  0
   -8.9810    5.0052   -3.1547 H   0  0  0  0  0  0  0  0  0  0  0  0
   -9.8264    6.3265   -4.0299 H   0  0  0  0  0  0  0  0  0  0  0  0
   -8.0316    6.2540   -4.0299 H   0  0  0  0  0  0  0  0  0  0  0  0
  -10.2563    7.5736   -0.6881 H   0  0  0  0  0  0  0  0  0  0  0  0
  -10.2443    8.5685   -2.1836 H   0  0  0  0  0  0  0  0  0  0  0  0
  -11.0366    6.9564   -2.1836 H   0  0  0  0  0  0  0  0  0  0  0  0
   -3.4840    9.2532   -2.2983 H   0  0  0  0  0  0  0  0  0  0  0  0
   -4.6809    9.7581   -0.2612 H   0  0  0  0  0  0  0  0  0  0  0  0
   -4.1883    8.2295    0.4986 H   0  0  0  0  0  0  0  0  0  0  0  0
   -3.0888   10.8027    1.0797 H   0  0  0  0  0  0  0  0  0  0  0  0
   -2.3398    9.2801    1.5523 H   0  0  0  0  0  0  0  0  0  0  0  0
   -2.3862   12.1345   -0.4638 H   0  0  0  0  0  0  0  0  0  0  0  0
   -1.2638   11.7121   -1.8011 H   0  0  0  0  0  0  0  0  0  0  0  0
   -2.9421   11.0719   -1.8011 H   0  0  0  0  0  0  0  0  0  0  0  0
   -0.0332    9.3952    0.8258 H   0  0  0  0  0  0  0  0  0  0  0  0
   -0.8978   11.6874    1.6182 H   0  0  0  0  0  0  0  0  0  0  0  0
    0.8821   11.2380    1.7623 H   0  0  0  0  0  0  0  0  0  0  0  0
    0.3607   13.6931    0.9632 H   0  0  0  0  0  0  0  0  0  0  0  0
    0.3845   11.5416   -2.4532 H   0  0  0  0  0  0  0  0  0  0  0  0
    3.3432   11.6582   -1.6007 H   0  0  0  0  0  0  0  0  0  0  0  0
    2.6600   10.8211   -3.0650 H   0  0  0  0  0  0  0  0  0  0  0  0
    3.7279   12.9785   -3.6330 H   0  0  0  0  0  0  0  0  0  0  0  0
    1.9570   12.9505   -3.9923 H   0  0  0  0  0  0  0  0  0  0  0  0
    2.5074   15.0623   -2.9931 H   0  0  0  0  0  0  0  0  0  0  0  0
    3.2260   14.0240   -0.5100 H   0  0  0  0  0  0  0  0  0  0  0  0
   -0.9377   14.5858   -2.0439 H   0  0  0  0  0  0  0  0  0  0  0  0
    0.2286   15.2790   -3.2211 H   0  0  0  0  0  0  0  0  0  0  0  0
   -0.1057   13.5141   -3.2211 H   0  0  0  0  0  0  0  0  0  0  0  0
    1.1383   15.0735    0.4177 H   0  0  0  0  0  0  0  0  0  0  0  0
    2.0216   16.0391   -0.8128 H   0  0  0  0  0  0  0  0  0  0  0  0
    0.2256   16.0113   -0.8128 H   0  0  0  0  0  0  0  0  0  0  0  0
    2.1310    9.8351    0.8897 H   0  0  0  0  0  0  0  0  0  0  0  0
    2.5674    8.7620   -0.4832 H   0  0  0  0  0  0  0  0  0  0  0  0
    3.0937   10.4794   -0.4832 H   0  0  0  0  0  0  0  0  0  0  0  0
    1.2559    9.3032   -2.8978 H   0  0  0  0  0  0  0  0  0  0  0  0
    0.9873    8.1224   -1.4948 H   0  0  0  0  0  0  0  0  0  0  0  0
   -1.1094    9.6969   -3.0139 H   0  0  0  0  0  0  0  0  0  0  0  0
   -0.8527    7.9079   -2.9690 H   0  0  0  0  0  0  0  0  0  0  0  0
   -1.3166    7.6833    0.7202 H   0  0  0  0  0  0  0  0  0  0  0  0
   -1.8985    6.6269   -0.6110 H   0  0  0  0  0  0  0  0  0  0  0  0
   -0.2030    7.2202   -0.6110 H   0  0  0  0  0  0  0  0  0  0  0  0
  1  2  1  0
  2  3  1  0
  3  4  1  0
  4  5  1  0
  5  6  1  0
  6  7  1  0
  7  8  1  0
  7  9  1  0
  2 10  1  0
 10 11  1  0
 11 12  1  0
 12 13  1  0
 13 14  1  6
 13 15  1  0
 15 16  1  0
 16 17  1  0
 17 18  2  0
 18 19  1  0
 19 20  1  0
 20 21  1  0
 21 22  1  0
 22 23  1  0
 22 24  1  0
 24 25  1  0
 24 26  1  0
 19 27  1  0
 27 28  1  1
 27 29  1  0
 29 30  1  0
 30 31  1  0
 31 32  1  1
  7  5  1  0
 31 10  1  0
 31 13  1  0
 27 15  1  0
 24 18  1  0
  1 33  1  0
  1 34  1  0
  1 35  1  0
  2 36  1  1
  3 37  1  0
  3 38  1  0
  4 39  1  0
  4 40  1  0
  5 41  1  1
  8 42  1  0
  8 43  1  0
  8 44  1  0
  9 45  1  0
  9 46  1  0
  9 47  1  0
 10 48  1  6
 11 49  1  0
 11 50  1  0
 12 51  1  0
 12 52  1  0
 14 53  1  0
 14 54  1  0
 14 55  1  0
 15 56  1  1
 16 57  1  0
 16 58  1  0
 17 59  1  0
 19 60  1  6
 20 61  1  0
 20 62  1  0
 21 63  1  0
 21 64  1  0
 22 65  1  6
 23 66  1  0
 25 67  1  0
 25 68  1  0
 25 69  1  0
 26 70  1  0
 26 71  1  0
 26 72  1  0
 28 73  1  0
 28 74  1  0
 28 75  1  0
 29 76  1  0
 29 77  1  0
 30 78  1  0
 30 79  1  0
 32 80  1  0
 32 81  1  0
 32 82  1  0
M  END
>  <meeko>  (11) 
{"is_sidechain": [false], "intermolecular_energy": 2.731, "internal_energy": -0.839}

$$$$
EPH_relaxed_0001_pdb2pqr_Repair_156_r2_0001_out
     RDKit          3D

 82 86  0  0  0  0  0  0  0  0999 V2000
   -0.8400   16.3620   -5.8300 C   0  0  0  0  0  0  0  0  0  0  0  0
    0.2370   15.6520   -6.6550 C   0  0  2  0  0  0  0  0  0  0  0  0
   -0.1840   15.4730   -8.1280 C   0  0  0  0  0  0  0  0  0  0  0  0
    0.4510   16.4920   -9.0780 C   0  0  0  0  0  0  0  0  0  0  0  0
    1.8540   16.1100   -9.4440 C   0  0  2  0  0  0  0  0  0  0  0  0
    2.3230   16.6670  -10.6790 O   0  0  0  0  0  0  0  0  0  0  0  0
    2.1990   15.2360  -10.6350 C   0  0  0  0  0  0  0  0  0  0  0  0
    1.1360   14.6900  -11.5360 C   0  0  0  0  0  0  0  0  0  0  0  0
    3.5120   14.5170  -10.6390 C   0  0  0  0  0  0  0  0  0  0  0  0
    0.5580   14.2970   -6.0360 C   0  0  1  0  0  0  0  0  0  0  0  0
    1.8200   13.6400   -6.6560 C   0  0  0  0  0  0  0  0  0  0  0  0
    2.5310   12.8710   -5.5140 C   0  0  0  0  0  0  0  0  0  0  0  0
    1.4950   12.8320   -4.3660 C   0  0  1  0  0  0  0  0  0  0  0  0
    0.5360   11.6550   -4.7320 C   0  0  0  0  0  0  0  0  0  0  0  0
    2.0700   12.6790   -2.9200 C   0  0  2  0  0  0  0  0  0  0  0  0
    2.8400   11.3730   -2.6580 C   0  0  0  0  0  0  0  0  0  0  0  0
    2.0150   10.2390   -2.1470 C   0  0  0  0  0  0  0  0  0  0  0  0
    0.7730   10.3410   -1.6390 C   0  0  0  0  0  0  0  0  0  0  0  0
    0.1110   11.7120   -1.4490 C   0  0  1  0  0  0  0  0  0  0  0  0
   -0.5310   11.7860   -0.0390 C   0  0  0  0  0  0  0  0  0  0  0  0
   -1.4920   10.6320    0.2280 C   0  0  0  0  0  0  0  0  0  0  0  0
   -0.7830    9.2880    0.0870 C   0  0  2  0  0  0  0  0  0  0  0  0
    0.1860    9.1660    1.1330 O   0  0  0  0  0  0  0  0  0  0  0  0
   -0.0890    9.1030   -1.2920 C   0  0  0  0  0  0  0  0  0  0  0  0
   -1.1620    8.9330   -2.3960 C   0  0  0  0  0  0  0  0  0  0  0  0
    0.7060    7.7700   -1.2510 C   0  0  0  0  0  0  0  0  0  0  0  0
    1.0230   12.9730   -1.7710 C   0  0  1  0  0  0  0  0  0  0  0  0
    1.8460   13.3710   -0.5090 C   0  0  0  0  0  0  0  0  0  0  0  0
    0.0990   14.2040   -2.1050 C   0  0  0  0  0  0  0  0  0  0  0  0
   -0.3390   14.3670   -3.5730 C   0  0  0  0  0  0  0  0  0  0  0  0
    0.8620   14.2630   -4.5180 C   0  0  2  0  0  0  0  0  0  0  0  0
    1.8340   15.4470   -4.1880 C   0  0  0  0  0  0  0  0  0  0  0  0
   -0.6314   16.2245   -4.7588 H   0  0  0  0  0  0  0  0  0  0  0  0
   -0.8368   17.4357   -6.0693 H   0  0  0  0  0  0  0  0  0  0  0  0
   -1.8255   15.9359   -6.0693 H   0  0  0  0  0  0  0  0  0  0  0  0
    1.1350   16.2872   -6.6432 H   0  0  0  0  0  0  0  0  0  0  0  0
    0.1107   14.4644   -8.4533 H   0  0  0  0  0  0  0  0  0  0  0  0
   -1.2723   15.6271   -8.1722 H   0  0  0  0  0  0  0  0  0  0  0  0
   -0.1536   16.5493   -9.9952 H   0  0  0  0  0  0  0  0  0  0  0  0
    0.4832   17.4648   -8.5655 H   0  0  0  0  0  0  0  0  0  0  0  0
    2.1422   16.0592   -8.3836 H   0  0  0  0  0  0  0  0  0  0  0  0
    0.3202   14.2710  -10.9286 H   0  0  0  0  0  0  0  0  0  0  0  0
    0.7429   15.4978  -12.1708 H   0  0  0  0  0  0  0  0  0  0  0  0
    1.5636   13.8999  -12.1708 H   0  0  0  0  0  0  0  0  0  0  0  0
    3.8360   14.3396   -9.6029 H   0  0  0  0  0  0  0  0  0  0  0  0
    3.4010   13.5538  -11.1585 H   0  0  0  0  0  0  0  0  0  0  0  0
    4.2638   15.1293  -11.1585 H   0  0  0  0  0  0  0  0  0  0  0  0
   -0.3864   13.7722   -6.2424 H   0  0  0  0  0  0  0  0  0  0  0  0
    1.5300   12.9447   -7.4575 H   0  0  0  0  0  0  0  0  0  0  0  0
    2.4849   14.3986   -7.0948 H   0  0  0  0  0  0  0  0  0  0  0  0
    2.7925   11.8522   -5.8359 H   0  0  0  0  0  0  0  0  0  0  0  0
    3.4725   13.3520   -5.2102 H   0  0  0  0  0  0  0  0  0  0  0  0
    0.1573   11.1902   -3.8097 H   0  0  0  0  0  0  0  0  0  0  0  0
   -0.3087   12.0402   -5.3220 H   0  0  0  0  0  0  0  0  0  0  0  0
    1.0839   10.9055   -5.3220 H   0  0  0  0  0  0  0  0  0  0  0  0
    2.8213   13.4815   -2.8800 H   0  0  0  0  0  0  0  0  0  0  0  0
    3.3045   11.0566   -3.6036 H   0  0  0  0  0  0  0  0  0  0  0  0
    3.5675   11.6020   -1.8653 H   0  0  0  0  0  0  0  0  0  0  0  0
    2.4602    9.2340   -2.1892 H   0  0  0  0  0  0  0  0  0  0  0  0
   -0.6711   11.7813   -2.2194 H   0  0  0  0  0  0  0  0  0  0  0  0
    0.2697   11.7595    0.7147 H   0  0  0  0  0  0  0  0  0  0  0  0
   -1.1085   12.7206    0.0160 H   0  0  0  0  0  0  0  0  0  0  0  0
   -1.8898   10.7238    1.2495 H   0  0  0  0  0  0  0  0  0  0  0  0
   -2.3081   10.6773   -0.5081 H   0  0  0  0  0  0  0  0  0  0  0  0
   -1.5488    8.5018    0.1609 H   0  0  0  0  0  0  0  0  0  0  0  0
    0.8290    9.8860    1.0240 H   0  0  0  0  0  0  0  0  0  0  0  0
   -2.1461    8.7771   -1.9299 H   0  0  0  0  0  0  0  0  0  0  0  0
   -1.1915    9.8377   -3.0211 H   0  0  0  0  0  0  0  0  0  0  0  0
   -0.9104    8.0635   -3.0211 H   0  0  0  0  0  0  0  0  0  0  0  0
    0.8797    7.4787   -0.2046 H   0  0  0  0  0  0  0  0  0  0  0  0
    0.1294    6.9834   -1.7597 H   0  0  0  0  0  0  0  0  0  0  0  0
    1.6721    7.9035   -1.7597 H   0  0  0  0  0  0  0  0  0  0  0  0
    1.2835   13.0990    0.3963 H   0  0  0  0  0  0  0  0  0  0  0  0
    2.8087   12.8389   -0.5163 H   0  0  0  0  0  0  0  0  0  0  0  0
    2.0267   14.4560   -0.5163 H   0  0  0  0  0  0  0  0  0  0  0  0
   -0.8114   14.1118   -1.4946 H   0  0  0  0  0  0  0  0  0  0  0  0
    0.7124   15.0910   -1.8880 H   0  0  0  0  0  0  0  0  0  0  0  0
   -1.0627   13.5770   -3.8225 H   0  0  0  0  0  0  0  0  0  0  0  0
   -0.7961   15.3601   -3.6945 H   0  0  0  0  0  0  0  0  0  0  0  0
    1.9229   15.5552   -3.0970 H   0  0  0  0  0  0  0  0  0  0  0  0
    2.8249   15.2386   -4.6177 H   0  0  0  0  0  0  0  0  0  0  0  0
    1.4365   16.3783   -4.6177 H   0  0  0  0  0  0  0  0  0  0  0  0
  1  2  1  0
  2  3  1  0
  3  4  1  0
  4  5  1  0
  5  6  1  0
  6  7  1  0
  7  8  1  0
  7  9  1  0
  2 10  1  0
 10 11  1  0
 11 12  1  0
 12 13  1  0
 13 14  1  6
 13 15  1  0
 15 16  1  0
 16 17  1  0
 17 18  2  0
 18 19  1  0
 19 20  1  0
 20 21  1  0
 21 22  1  0
 22 23  1  0
 22 24  1  0
 24 25  1  0
 24 26  1  0
 19 27  1  0
 27 28  1  1
 27 29  1  0
 29 30  1  0
 30 31  1  0
 31 32  1  1
  7  5  1  0
 31 10  1  0
 31 13  1  0
 27 15  1  0
 24 18  1  0
  1 33  1  0
  1 34  1  0
  1 35  1  0
  2 36  1  6
  3 37  1  0
  3 38  1  0
  4 39  1  0
  4 40  1  0
  5 41  1  1
  8 42  1  0
  8 43  1  0
  8 44  1  0
  9 45  1  0
  9 46  1  0
  9 47  1  0
 10 48  1  1
 11 49  1  0
 11 50  1  0
 12 51  1  0
 12 52  1  0
 14 53  1  0
 14 54  1  0
 14 55  1  0
 15 56  1  6
 16 57  1  0
 16 58  1  0
 17 59  1  0
 19 60  1  6
 20 61  1  0
 20 62  1  0
 21 63  1  0
 21 64  1  0
 22 65  1  1
 23 66  1  0
 25 67  1  0
 25 68  1  0
 25 69  1  0
 26 70  1  0
 26 71  1  0
 26 72  1  0
 28 73  1  0
 28 74  1  0
 28 75  1  0
 29 76  1  0
 29 77  1  0
 30 78  1  0
 30 79  1  0
 32 80  1  0
 32 81  1  0
 32 82  1  0
M  END
>  <meeko>  (12) 
{"is_sidechain": [false], "intermolecular_energy": 2.731, "internal_energy": -0.839}

$$$$
EPH_relaxed_0001_pdb2pqr_Repair_156_r2_0001_out
     RDKit          3D

 82 86  0  0  0  0  0  0  0  0999 V2000
    0.0380    9.4210   -2.5740 C   0  0  0  0  0  0  0  0  0  0  0  0
    1.1550   10.3970   -2.9520 C   0  0  2  0  0  0  0  0  0  0  0  0
    2.5380    9.7160   -2.9780 C   0  0  0  0  0  0  0  0  0  0  0  0
    3.5230   10.3590   -3.9580 C   0  0  0  0  0  0  0  0  0  0  0  0
    4.8930   10.4850   -3.3650 C   0  0  2  0  0  0  0  0  0  0  0  0
    5.4780   11.7880   -3.4810 O   0  0  0  0  0  0  0  0  0  0  0  0
    6.1430   10.7300   -4.1890 C   0  0  0  0  0  0  0  0  0  0  0  0
    6.0810   10.8620   -5.6790 C   0  0  0  0  0  0  0  0  0  0  0  0
    7.4700   10.3540   -3.6070 C   0  0  0  0  0  0  0  0  0  0  0  0
    1.1710   11.5710   -1.9800 C   0  0  1  0  0  0  0  0  0  0  0  0
    2.2460   11.4150   -0.8730 C   0  0  0  0  0  0  0  0  0  0  0  0
    2.7800   12.8380   -0.5640 C   0  0  0  0  0  0  0  0  0  0  0  0
    1.7740   13.7890   -1.2530 C   0  0  1  0  0  0  0  0  0  0  0  0
    0.5730   13.8890   -0.2620 C   0  0  0  0  0  0  0  0  0  0  0  0
    2.3170   15.2020   -1.6450 C   0  0  2  0  0  0  0  0  0  0  0  0
    2.7780   16.0750   -0.4650 C   0  0  0  0  0  0  0  0  0  0  0  0
    1.7260   16.9530    0.1270 C   0  0  0  0  0  0  0  0  0  0  0  0
    0.5440   17.2520   -0.4440 C   0  0  0  0  0  0  0  0  0  0  0  0
    0.2080   16.7660   -1.8590 C   0  0  1  0  0  0  0  0  0  0  0  0
   -0.3850   17.9390   -2.6830 C   0  0  0  0  0  0  0  0  0  0  0  0
   -1.5780   18.5940   -1.9930 C   0  0  0  0  0  0  0  0  0  0  0  0
   -1.1890   19.1170   -0.6120 C   0  0  2  0  0  0  0  0  0  0  0  0
   -0.2600   20.1940   -0.7720 O   0  0  0  0  0  0  0  0  0  0  0  0
   -0.5700   18.0250    0.3040 C   0  0  0  0  0  0  0  0  0  0  0  0
   -1.6660   17.0140    0.7230 C   0  0  0  0  0  0  0  0  0  0  0  0
   -0.0930   18.7140    1.6120 C   0  0  0  0  0  0  0  0  0  0  0  0
    1.3750   16.0090   -2.6280 C   0  0  1  0  0  0  0  0  0  0  0  0
    2.2810   17.0400   -3.3670 C   0  0  0  0  0  0  0  0  0  0  0  0
    0.7460   15.0910   -3.7420 C   0  0  0  0  0  0  0  0  0  0  0  0
    0.3400   13.6660   -3.3210 C   0  0  0  0  0  0  0  0  0  0  0  0
    1.4770   12.9730   -2.5630 C   0  0  2  0  0  0  0  0  0  0  0  0
    2.6930   12.8390   -3.5430 C   0  0  0  0  0  0  0  0  0  0  0  0
   -0.0367    9.3557   -1.4785 H   0  0  0  0  0  0  0  0  0  0  0  0
   -0.9170    9.7793   -2.9859 H   0  0  0  0  0  0  0  0  0  0  0  0
    0.2650    8.4266   -2.9859 H   0  0  0  0  0  0  0  0  0  0  0  0
    0.9465   10.7594   -3.9695 H   0  0  0  0  0  0  0  0  0  0  0  0
    2.9697    9.7681   -1.9676 H   0  0  0  0  0  0  0  0  0  0  0  0
    2.3799    8.6807   -3.3144 H   0  0  0  0  0  0  0  0  0  0  0  0
    3.5824    9.7369   -4.8632 H   0  0  0  0  0  0  0  0  0  0  0  0
    3.1587   11.3691   -4.1966 H   0  0  0  0  0  0  0  0  0  0  0  0
    4.6527    9.7387   -2.5935 H   0  0  0  0  0  0  0  0  0  0  0  0
    5.6270   11.8286   -5.9429 H   0  0  0  0  0  0  0  0  0  0  0  0
    7.0982   10.8090   -6.0944 H   0  0  0  0  0  0  0  0  0  0  0  0
    5.4723   10.0454   -6.0944 H   0  0  0  0  0  0  0  0  0  0  0  0
    7.4071   10.3718   -2.5089 H   0  0  0  0  0  0  0  0  0  0  0  0
    7.7441    9.3428   -3.9422 H   0  0  0  0  0  0  0  0  0  0  0  0
    8.2338   11.0711   -3.9422 H   0  0  0  0  0  0  0  0  0  0  0  0
    0.1306   11.5304   -1.6250 H   0  0  0  0  0  0  0  0  0  0  0  0
    1.7986   10.9740    0.0300 H   0  0  0  0  0  0  0  0  0  0  0  0
    3.0588   10.7511   -1.2026 H   0  0  0  0  0  0  0  0  0  0  0  0
    2.8033   13.0171    0.5211 H   0  0  0  0  0  0  0  0  0  0  0  0
    3.8086   12.9856   -0.9249 H   0  0  0  0  0  0  0  0  0  0  0  0
    0.9472   13.8578    0.7719 H   0  0  0  0  0  0  0  0  0  0  0  0
    0.0371   14.8349   -0.4296 H   0  0  0  0  0  0  0  0  0  0  0  0
   -0.1120   13.0448   -0.4296 H   0  0  0  0  0  0  0  0  0  0  0  0
    3.2294   14.9555   -2.2079 H   0  0  0  0  0  0  0  0  0  0  0  0
    3.1492   15.4078    0.3269 H   0  0  0  0  0  0  0  0  0  0  0  0
    3.5470   16.7504   -0.8680 H   0  0  0  0  0  0  0  0  0  0  0  0
    1.9341   17.3930    1.1134 H   0  0  0  0  0  0  0  0  0  0  0  0
   -0.5478   15.9762   -1.7370 H   0  0  0  0  0  0  0  0  0  0  0  0
    0.3977   18.6978   -2.8300 H   0  0  0  0  0  0  0  0  0  0  0  0
   -0.7369   17.5296   -3.6414 H   0  0  0  0  0  0  0  0  0  0  0  0
   -1.9341   19.4331   -2.6087 H   0  0  0  0  0  0  0  0  0  0  0  0
   -2.3714   17.8416   -1.8732 H   0  0  0  0  0  0  0  0  0  0  0  0
   -2.1101   19.4572   -0.1162 H   0  0  0  0  0  0  0  0  0  0  0  0
    0.3650   20.1570   -0.0280 H   0  0  0  0  0  0  0  0  0  0  0  0
   -1.7192   16.9649    1.8206 H   0  0  0  0  0  0  0  0  0  0  0  0
   -2.6375   17.3397    0.3230 H   0  0  0  0  0  0  0  0  0  0  0  0
   -1.4196   16.0194    0.3230 H   0  0  0  0  0  0  0  0  0  0  0  0
   -0.4775   18.1587    2.4802 H   0  0  0  0  0  0  0  0  0  0  0  0
    1.0066   18.7244    1.6410 H   0  0  0  0  0  0  0  0  0  0  0  0
   -0.4703   19.7469    1.6410 H   0  0  0  0  0  0  0  0  0  0  0  0
    2.8187   17.6518   -2.6277 H   0  0  0  0  0  0  0  0  0  0  0  0
    3.0065   16.5050   -3.9974 H   0  0  0  0  0  0  0  0  0  0  0  0
    1.6572   17.6907   -3.9974 H   0  0  0  0  0  0  0  0  0  0  0  0
   -0.1555   15.5960   -4.1193 H   0  0  0  0  0  0  0  0  0  0  0  0
    1.5441   14.9545   -4.4866 H   0  0  0  0  0  0  0  0  0  0  0  0
   -0.5450   13.7215   -2.6701 H   0  0  0  0  0  0  0  0  0  0  0  0
    0.1160   13.0832   -4.2266 H   0  0  0  0  0  0  0  0  0  0  0  0
    3.6219   12.7366   -2.9628 H   0  0  0  0  0  0  0  0  0  0  0  0
    2.5568   11.9504   -4.1769 H   0  0  0  0  0  0  0  0  0  0  0  0
    2.7536   13.7359   -4.1769 H   0  0  0  0  0  0  0  0  0  0  0  0
  1  2  1  0
  2  3  1  0
  3  4  1  0
  4  5  1  0
  5  6  1  0
  6  7  1  0
  7  8  1  0
  7  9  1  0
  2 10  1  0
 10 11  1  0
 11 12  1  0
 12 13  1  0
 13 14  1  1
 13 15  1  0
 15 16  1  0
 16 17  1  0
 17 18  2  0
 18 19  1  0
 19 20  1  0
 20 21  1  0
 21 22  1  0
 22 23  1  0
 22 24  1  0
 24 25  1  0
 24 26  1  0
 19 27  1  0
 27 28  1  6
 27 29  1  0
 29 30  1  0
 30 31  1  0
 31 32  1  6
  7  5  1  0
 31 10  1  0
 31 13  1  0
 27 15  1  0
 24 18  1  0
  1 33  1  0
  1 34  1  0
  1 35  1  0
  2 36  1  6
  3 37  1  0
  3 38  1  0
  4 39  1  0
  4 40  1  0
  5 41  1  1
  8 42  1  0
  8 43  1  0
  8 44  1  0
  9 45  1  0
  9 46  1  0
  9 47  1  0
 10 48  1  1
 11 49  1  0
 11 50  1  0
 12 51  1  0
 12 52  1  0
 14 53  1  0
 14 54  1  0
 14 55  1  0
 15 56  1  6
 16 57  1  0
 16 58  1  0
 17 59  1  0
 19 60  1  1
 20 61  1  0
 20 62  1  0
 21 63  1  0
 21 64  1  0
 22 65  1  1
 23 66  1  0
 25 67  1  0
 25 68  1  0
 25 69  1  0
 26 70  1  0
 26 71  1  0
 26 72  1  0
 28 73  1  0
 28 74  1  0
 28 75  1  0
 29 76  1  0
 29 77  1  0
 30 78  1  0
 30 79  1  0
 32 80  1  0
 32 81  1  0
 32 82  1  0
M  END
>  <meeko>  (13) 
{"is_sidechain": [false], "intermolecular_energy": 2.731, "internal_energy": -0.839}

$$$$
EPH_relaxed_0001_pdb2pqr_Repair_156_r2_0001_out
     RDKit          3D

 82 86  0  0  0  0  0  0  0  0999 V2000
   -2.3910    7.8300   -2.2530 C   0  0  0  0  0  0  0  0  0  0  0  0
   -2.2430    8.3860   -0.8340 C   0  0  2  0  0  0  0  0  0  0  0  0
   -3.5690    8.3320   -0.0480 C   0  0  0  0  0  0  0  0  0  0  0  0
   -4.8120    8.4870   -0.9270 C   0  0  0  0  0  0  0  0  0  0  0  0
   -5.7450    7.3230   -0.7790 C   0  0  2  0  0  0  0  0  0  0  0  0
   -5.8080    6.4570   -1.9190 O   0  0  0  0  0  0  0  0  0  0  0  0
   -7.0170    7.1610   -1.5900 C   0  0  0  0  0  0  0  0  0  0  0  0
   -7.4270    8.1770   -2.6100 C   0  0  0  0  0  0  0  0  0  0  0  0
   -8.1010    6.2800   -1.0530 C   0  0  0  0  0  0  0  0  0  0  0  0
   -1.7280    9.8190   -0.8880 C   0  0  1  0  0  0  0  0  0  0  0  0
   -1.3180   10.3600    0.5080 C   0  0  0  0  0  0  0  0  0  0  0  0
   -0.1000   11.2940    0.2860 C   0  0  0  0  0  0  0  0  0  0  0  0
   -0.0560   11.5210   -1.2430 C   0  0  1  0  0  0  0  0  0  0  0  0
   -1.1180   12.6330   -1.5140 C   0  0  0  0  0  0  0  0  0  0  0  0
    1.3370   11.8940   -1.8470 C   0  0  2  0  0  0  0  0  0  0  0  0
    1.9340   13.2190   -1.3410 C   0  0  0  0  0  0  0  0  0  0  0  0
    1.5770   14.4260   -2.1440 C   0  0  0  0  0  0  0  0  0  0  0  0
    1.0470   14.4140   -3.3810 C   0  0  0  0  0  0  0  0  0  0  0  0
    0.8450   13.0960   -4.1390 C   0  0  1  0  0  0  0  0  0  0  0  0
    1.3650   13.2490   -5.5930 C   0  0  0  0  0  0  0  0  0  0  0  0
    0.7400   14.4390   -6.3150 C   0  0  0  0  0  0  0  0  0  0  0  0
    1.0110   15.7380   -5.5620 C   0  0  2  0  0  0  0  0  0  0  0  0
    2.4140   16.0150   -5.6120 O   0  0  0  0  0  0  0  0  0  0  0  0
    0.5390   15.6990   -4.0810 C   0  0  0  0  0  0  0  0  0  0  0  0
   -1.0080   15.7020   -4.0280 C   0  0  0  0  0  0  0  0  0  0  0  0
    0.9990   17.0150   -3.3980 C   0  0  0  0  0  0  0  0  0  0  0  0
    1.4080   11.7920   -3.4250 C   0  0  1  0  0  0  0  0  0  0  0  0
    2.9100   11.5910   -3.7910 C   0  0  0  0  0  0  0  0  0  0  0  0
    0.6430   10.5320   -3.9780 C   0  0  0  0  0  0  0  0  0  0  0  0
   -0.6650   10.1440   -3.2640 C   0  0  0  0  0  0  0  0  0  0  0  0
   -0.4660   10.0890   -1.7460 C   0  0  2  0  0  0  0  0  0  0  0  0
    0.5800    8.9630   -1.4420 C   0  0  0  0  0  0  0  0  0  0  0  0
   -2.6737    6.7681   -2.2031 H   0  0  0  0  0  0  0  0  0  0  0  0
   -3.1708    8.3923   -2.7876 H   0  0  0  0  0  0  0  0  0  0  0  0
   -1.4349    7.9302   -2.7876 H   0  0  0  0  0  0  0  0  0  0  0  0
   -1.5185    7.7505   -0.3037 H   0  0  0  0  0  0  0  0  0  0  0  0
   -3.6274    7.3624    0.4682 H   0  0  0  0  0  0  0  0  0  0  0  0
   -3.5625    9.1805    0.6520 H   0  0  0  0  0  0  0  0  0  0  0  0
   -5.3410    9.4069   -0.6372 H   0  0  0  0  0  0  0  0  0  0  0  0
   -4.4859    8.5335   -1.9765 H   0  0  0  0  0  0  0  0  0  0  0  0
   -5.5483    7.2735    0.3021 H   0  0  0  0  0  0  0  0  0  0  0  0
   -7.7919    9.0812   -2.1008 H   0  0  0  0  0  0  0  0  0  0  0  0
   -6.5623    8.4343   -3.2394 H   0  0  0  0  0  0  0  0  0  0  0  0
   -8.2281    7.7621   -3.2394 H   0  0  0  0  0  0  0  0  0  0  0  0
   -8.0778    6.2989    0.0466 H   0  0  0  0  0  0  0  0  0  0  0  0
   -9.0775    6.6438   -1.4054 H   0  0  0  0  0  0  0  0  0  0  0  0
   -7.9445    5.2498   -1.4054 H   0  0  0  0  0  0  0  0  0  0  0  0
   -2.6022   10.3122   -1.3380 H   0  0  0  0  0  0  0  0  0  0  0  0
   -2.1504   10.9229    0.9555 H   0  0  0  0  0  0  0  0  0  0  0  0
   -1.0647    9.5365    1.1918 H   0  0  0  0  0  0  0  0  0  0  0  0
   -0.2401   12.2475    0.8163 H   0  0  0  0  0  0  0  0  0  0  0  0
    0.8345   10.8592    0.6702 H   0  0  0  0  0  0  0  0  0  0  0  0
   -1.4917   13.0243   -0.5563 H   0  0  0  0  0  0  0  0  0  0  0  0
   -0.6557   13.4494   -2.0883 H   0  0  0  0  0  0  0  0  0  0  0  0
   -1.9548   12.2087   -2.0883 H   0  0  0  0  0  0  0  0  0  0  0  0
    1.9873   11.1020   -1.4471 H   0  0  0  0  0  0  0  0  0  0  0  0
    1.5820   13.3793   -0.3112 H   0  0  0  0  0  0  0  0  0  0  0  0
    3.0258   13.1116   -1.4211 H   0  0  0  0  0  0  0  0  0  0  0  0
    1.7630   15.4085   -1.6856 H   0  0  0  0  0  0  0  0  0  0  0  0
   -0.2398   12.9141   -4.1474 H   0  0  0  0  0  0  0  0  0  0  0  0
    2.4560   13.3868   -5.5648 H   0  0  0  0  0  0  0  0  0  0  0  0
    1.0864   12.3393   -6.1450 H   0  0  0  0  0  0  0  0  0  0  0  0
    1.1686   14.5126   -7.3254 H   0  0  0  0  0  0  0  0  0  0  0  0
   -0.3478   14.2850   -6.3687 H   0  0  0  0  0  0  0  0  0  0  0  0
    0.4306   16.5318   -6.0549 H   0  0  0  0  0  0  0  0  0  0  0  0
    2.8740   15.2900   -5.1580 H   0  0  0  0  0  0  0  0  0  0  0  0
   -1.3389   15.7026   -2.9790 H   0  0  0  0  0  0  0  0  0  0  0  0
   -1.3905   16.6009   -4.5337 H   0  0  0  0  0  0  0  0  0  0  0  0
   -1.3939   14.8046   -4.5337 H   0  0  0  0  0  0  0  0  0  0  0  0
    0.9571   16.8951   -2.3054 H   0  0  0  0  0  0  0  0  0  0  0  0
    2.0308   17.2448   -3.7023 H   0  0  0  0  0  0  0  0  0  0  0  0
    0.3351   17.8376   -3.7023 H   0  0  0  0  0  0  0  0  0  0  0  0
    3.5046   11.5114   -2.8690 H   0  0  0  0  0  0  0  0  0  0  0  0
    3.0235   10.6697   -4.3811 H   0  0  0  0  0  0  0  0  0  0  0  0
    3.2617   12.4501   -4.3811 H   0  0  0  0  0  0  0  0  0  0  0  0
    0.4008   10.7266   -5.0332 H   0  0  0  0  0  0  0  0  0  0  0  0
    1.3245    9.6852   -3.8095 H   0  0  0  0  0  0  0  0  0  0  0  0
   -1.4381   10.8905   -3.4987 H   0  0  0  0  0  0  0  0  0  0  0  0
   -0.9730    9.1475   -3.6136 H   0  0  0  0  0  0  0  0  0  0  0  0
    0.6878    8.8469   -0.3535 H   0  0  0  0  0  0  0  0  0  0  0  0
    0.2353    8.0145   -1.8795 H   0  0  0  0  0  0  0  0  0  0  0  0
    1.5513    9.2370   -1.8795 H   0  0  0  0  0  0  0  0  0  0  0  0
  1  2  1  0
  2  3  1  0
  3  4  1  0
  4  5  1  0
  5  6  1  0
  6  7  1  0
  7  8  1  0
  7  9  1  0
  2 10  1  0
 10 11  1  0
 11 12  1  0
 12 13  1  0
 13 14  1  1
 13 15  1  0
 15 16  1  0
 16 17  1  0
 17 18  2  0
 18 19  1  0
 19 20  1  0
 20 21  1  0
 21 22  1  0
 22 23  1  0
 22 24  1  0
 24 25  1  0
 24 26  1  0
 19 27  1  0
 27 28  1  1
 27 29  1  0
 29 30  1  0
 30 31  1  0
 31 32  1  6
  7  5  1  0
 31 10  1  0
 31 13  1  0
 27 15  1  0
 24 18  1  0
  1 33  1  0
  1 34  1  0
  1 35  1  0
  2 36  1  1
  3 37  1  0
  3 38  1  0
  4 39  1  0
  4 40  1  0
  5 41  1  1
  8 42  1  0
  8 43  1  0
  8 44  1  0
  9 45  1  0
  9 46  1  0
  9 47  1  0
 10 48  1  6
 11 49  1  0
 11 50  1  0
 12 51  1  0
 12 52  1  0
 14 53  1  0
 14 54  1  0
 14 55  1  0
 15 56  1  1
 16 57  1  0
 16 58  1  0
 17 59  1  0
 19 60  1  6
 20 61  1  0
 20 62  1  0
 21 63  1  0
 21 64  1  0
 22 65  1  6
 23 66  1  0
 25 67  1  0
 25 68  1  0
 25 69  1  0
 26 70  1  0
 26 71  1  0
 26 72  1  0
 28 73  1  0
 28 74  1  0
 28 75  1  0
 29 76  1  0
 29 77  1  0
 30 78  1  0
 30 79  1  0
 32 80  1  0
 32 81  1  0
 32 82  1  0
M  END
>  <meeko>  (14) 
{"is_sidechain": [false], "intermolecular_energy": 2.731, "internal_energy": -0.839}

$$$$
EPH_relaxed_0001_pdb2pqr_Repair_156_r2_0001_out
     RDKit          3D

 82 86  0  0  0  0  0  0  0  0999 V2000
    1.5900   10.7250   -4.7770 C   0  0  0  0  0  0  0  0  0  0  0  0
    0.8430   10.5480   -3.4530 C   0  0  2  0  0  0  0  0  0  0  0  0
   -0.3090    9.5290   -3.5680 C   0  0  0  0  0  0  0  0  0  0  0  0
   -0.2570    8.4190   -2.5140 C   0  0  0  0  0  0  0  0  0  0  0  0
    0.0340    8.9650   -1.1480 C   0  0  2  0  0  0  0  0  0  0  0  0
   -0.3030    8.0860   -0.0680 O   0  0  0  0  0  0  0  0  0  0  0  0
   -1.0450    9.3140   -0.1400 C   0  0  0  0  0  0  0  0  0  0  0  0
   -2.4960    9.1320   -0.4550 C   0  0  0  0  0  0  0  0  0  0  0  0
   -0.7160   10.2820    0.9540 C   0  0  0  0  0  0  0  0  0  0  0  0
    0.3040   11.8910   -2.9760 C   0  0  1  0  0  0  0  0  0  0  0  0
   -1.0690   11.7650   -2.2640 C   0  0  0  0  0  0  0  0  0  0  0  0
   -1.0880   12.8300   -1.1370 C   0  0  0  0  0  0  0  0  0  0  0  0
    0.1200   13.7450   -1.4450 C   0  0  1  0  0  0  0  0  0  0  0  0
   -0.3890   14.7230   -2.5490 C   0  0  0  0  0  0  0  0  0  0  0  0
    0.7310   14.5150   -0.2290 C   0  0  2  0  0  0  0  0  0  0  0  0
   -0.2190   15.5130    0.4560 C   0  0  0  0  0  0  0  0  0  0  0  0
   -0.1800   16.9040   -0.0850 C   0  0  0  0  0  0  0  0  0  0  0  0
    0.7810   17.4070   -0.8830 C   0  0  0  0  0  0  0  0  0  0  0  0
    2.0210   16.5780   -1.2400 C   0  0  1  0  0  0  0  0  0  0  0  0
    3.2930   17.4490   -1.0670 C   0  0  0  0  0  0  0  0  0  0  0  0
    3.2190   18.7550   -1.8510 C   0  0  0  0  0  0  0  0  0  0  0  0
    2.0050   19.5780   -1.4260 C   0  0  2  0  0  0  0  0  0  0  0  0
    2.1910   20.0080   -0.0740 O   0  0  0  0  0  0  0  0  0  0  0  0
    0.6650   18.8010   -1.5480 C   0  0  0  0  0  0  0  0  0  0  0  0
    0.3150   18.5980   -3.0430 C   0  0  0  0  0  0  0  0  0  0  0  0
   -0.4600   19.6920   -0.9560 C   0  0  0  0  0  0  0  0  0  0  0  0
    2.1440   15.1670   -0.5180 C   0  0  1  0  0  0  0  0  0  0  0  0
    2.8480   15.3360    0.8630 C   0  0  0  0  0  0  0  0  0  0  0  0
    3.0710   14.2290   -1.3780 C   0  0  0  0  0  0  0  0  0  0  0  0
    2.3890   13.4040   -2.4860 C   0  0  0  0  0  0  0  0  0  0  0  0
    1.1560   12.6740   -1.9450 C   0  0  2  0  0  0  0  0  0  0  0  0
    1.6400   11.6660   -0.8470 C   0  0  0  0  0  0  0  0  0  0  0  0
    2.6420   10.9743   -4.5740 H   0  0  0  0  0  0  0  0  0  0  0  0
    1.5395    9.7900   -5.3543 H   0  0  0  0  0  0  0  0  0  0  0  0
    1.1254   11.5379   -5.3543 H   0  0  0  0  0  0  0  0  0  0  0  0
    1.5609   10.1538   -2.7187 H   0  0  0  0  0  0  0  0  0  0  0  0
   -1.2616   10.0680   -3.4580 H   0  0  0  0  0  0  0  0  0  0  0  0
   -0.2121    9.0440   -4.5505 H   0  0  0  0  0  0  0  0  0  0  0  0
   -1.2279    7.9023   -2.4921 H   0  0  0  0  0  0  0  0  0  0  0  0
    0.5524    7.7254   -2.7858 H   0  0  0  0  0  0  0  0  0  0  0  0
    0.8962    9.5302   -1.5315 H   0  0  0  0  0  0  0  0  0  0  0  0
   -3.0683    9.0602    0.4816 H   0  0  0  0  0  0  0  0  0  0  0  0
   -2.8551    9.9921   -1.0391 H   0  0  0  0  0  0  0  0  0  0  0  0
   -2.6315    8.2098   -1.0391 H   0  0  0  0  0  0  0  0  0  0  0  0
   -0.8793    9.8016    1.9300 H   0  0  0  0  0  0  0  0  0  0  0  0
    0.3369   10.5887    0.8678 H   0  0  0  0  0  0  0  0  0  0  0  0
   -1.3639   11.1668    0.8678 H   0  0  0  0  0  0  0  0  0  0  0  0
    0.2819   12.4312   -3.9339 H   0  0  0  0  0  0  0  0  0  0  0  0
   -1.8845   11.9541   -2.9776 H   0  0  0  0  0  0  0  0  0  0  0  0
   -1.2101   10.7539   -1.8543 H   0  0  0  0  0  0  0  0  0  0  0  0
   -2.0260   13.4040   -1.1609 H   0  0  0  0  0  0  0  0  0  0  0  0
   -1.0253   12.3791   -0.1356 H   0  0  0  0  0  0  0  0  0  0  0  0
   -0.8474   15.6038   -2.0756 H   0  0  0  0  0  0  0  0  0  0  0  0
    0.4575   15.0420   -3.1749 H   0  0  0  0  0  0  0  0  0  0  0  0
   -1.1359   14.2127   -3.1749 H   0  0  0  0  0  0  0  0  0  0  0  0
    0.8947   13.7092    0.5017 H   0  0  0  0  0  0  0  0  0  0  0  0
   -1.2460   15.1344    0.3469 H   0  0  0  0  0  0  0  0  0  0  0  0
    0.1156   15.5834    1.5015 H   0  0  0  0  0  0  0  0  0  0  0  0
   -1.0065   17.5750    0.1918 H   0  0  0  0  0  0  0  0  0  0  0  0
    1.9035   16.2943   -2.2963 H   0  0  0  0  0  0  0  0  0  0  0  0
    3.4162   17.6850    0.0003 H   0  0  0  0  0  0  0  0  0  0  0  0
    4.1465   16.8742   -1.4559 H   0  0  0  0  0  0  0  0  0  0  0  0
    4.1327   19.3387   -1.6653 H   0  0  0  0  0  0  0  0  0  0  0  0
    3.1254   18.5176   -2.9210 H   0  0  0  0  0  0  0  0  0  0  0  0
    1.9322   20.4366   -2.1097 H   0  0  0  0  0  0  0  0  0  0  0  0
    2.4910   20.9330   -0.0980 H   0  0  0  0  0  0  0  0  0  0  0  0
   -0.6338   18.0477   -3.1260 H   0  0  0  0  0  0  0  0  0  0  0  0
    0.2145   19.5780   -3.5324 H   0  0  0  0  0  0  0  0  0  0  0  0
    1.1157   18.0241   -3.5324 H   0  0  0  0  0  0  0  0  0  0  0  0
   -0.4157   19.6569    0.1425 H   0  0  0  0  0  0  0  0  0  0  0  0
   -0.3231   20.7293   -1.2955 H   0  0  0  0  0  0  0  0  0  0  0  0
   -1.4384   19.3211   -1.2955 H   0  0  0  0  0  0  0  0  0  0  0  0
    2.1204   15.1613    1.6693 H   0  0  0  0  0  0  0  0  0  0  0  0
    3.6698   14.6096    0.9470 H   0  0  0  0  0  0  0  0  0  0  0  0
    3.2505   16.3563    0.9470 H   0  0  0  0  0  0  0  0  0  0  0  0
    3.8332   14.8620   -1.8559 H   0  0  0  0  0  0  0  0  0  0  0  0
    3.4663   13.4868   -0.6689 H   0  0  0  0  0  0  0  0  0  0  0  0
    2.0804   14.0782   -3.2985 H   0  0  0  0  0  0  0  0  0  0  0  0
    3.1048   12.6560   -2.8576 H   0  0  0  0  0  0  0  0  0  0  0  0
    1.4387   12.0852    0.1499 H   0  0  0  0  0  0  0  0  0  0  0  0
    1.1009   10.7139   -0.9601 H   0  0  0  0  0  0  0  0  0  0  0  0
    2.7202   11.4914   -0.9601 H   0  0  0  0  0  0  0  0  0  0  0  0
  1  2  1  0
  2  3  1  0
  3  4  1  0
  4  5  1  0
  5  6  1  0
  6  7  1  0
  7  8  1  0
  7  9  1  0
  2 10  1  0
 10 11  1  0
 11 12  1  0
 12 13  1  0
 13 14  1  6
 13 15  1  0
 15 16  1  0
 16 17  1  0
 17 18  2  0
 18 19  1  0
 19 20  1  0
 20 21  1  0
 21 22  1  0
 22 23  1  0
 22 24  1  0
 24 25  1  0
 24 26  1  0
 19 27  1  0
 27 28  1  1
 27 29  1  0
 29 30  1  0
 30 31  1  0
 31 32  1  1
  7  5  1  0
 31 10  1  0
 31 13  1  0
 27 15  1  0
 24 18  1  0
  1 33  1  0
  1 34  1  0
  1 35  1  0
  2 36  1  1
  3 37  1  0
  3 38  1  0
  4 39  1  0
  4 40  1  0
  5 41  1  6
  8 42  1  0
  8 43  1  0
  8 44  1  0
  9 45  1  0
  9 46  1  0
  9 47  1  0
 10 48  1  6
 11 49  1  0
 11 50  1  0
 12 51  1  0
 12 52  1  0
 14 53  1  0
 14 54  1  0
 14 55  1  0
 15 56  1  1
 16 57  1  0
 16 58  1  0
 17 59  1  0
 19 60  1  6
 20 61  1  0
 20 62  1  0
 21 63  1  0
 21 64  1  0
 22 65  1  6
 23 66  1  0
 25 67  1  0
 25 68  1  0
 25 69  1  0
 26 70  1  0
 26 71  1  0
 26 72  1  0
 28 73  1  0
 28 74  1  0
 28 75  1  0
 29 76  1  0
 29 77  1  0
 30 78  1  0
 30 79  1  0
 32 80  1  0
 32 81  1  0
 32 82  1  0
M  END
>  <meeko>  (15) 
{"is_sidechain": [false], "intermolecular_energy": 2.731, "internal_energy": -0.839}

$$$$
EPH_relaxed_0001_pdb2pqr_Repair_156_r2_0001_out
     RDKit          3D

 82 86  0  0  0  0  0  0  0  0999 V2000
    0.9430   14.9610   -2.6490 C   0  0  0  0  0  0  0  0  0  0  0  0
    1.1960   14.2810   -3.9970 C   0  0  2  0  0  0  0  0  0  0  0  0
    0.4760   15.0000   -5.1550 C   0  0  0  0  0  0  0  0  0  0  0  0
    0.9850   14.5970   -6.5420 C   0  0  0  0  0  0  0  0  0  0  0  0
    0.7820   15.6910   -7.5460 C   0  0  2  0  0  0  0  0  0  0  0  0
    0.4180   15.2400   -8.8570 O   0  0  0  0  0  0  0  0  0  0  0  0
    1.6870   15.9040   -8.7450 C   0  0  0  0  0  0  0  0  0  0  0  0
    2.8630   15.0160   -9.0020 C   0  0  0  0  0  0  0  0  0  0  0  0
    1.7180   17.2560   -9.3870 C   0  0  0  0  0  0  0  0  0  0  0  0
    0.7560   12.8230   -3.9350 C   0  0  1  0  0  0  0  0  0  0  0  0
    1.8920   11.8390   -4.3200 C   0  0  0  0  0  0  0  0  0  0  0  0
    1.7060   10.5760   -3.4400 C   0  0  0  0  0  0  0  0  0  0  0  0
    0.2960   10.7320   -2.8250 C   0  0  1  0  0  0  0  0  0  0  0  0
   -0.6840   10.2520   -3.9420 C   0  0  0  0  0  0  0  0  0  0  0  0
    0.0430    9.9840   -1.4760 C   0  0  2  0  0  0  0  0  0  0  0  0
    0.1580    8.4520   -1.5480 C   0  0  0  0  0  0  0  0  0  0  0  0
   -1.1120    7.7310   -1.8600 C   0  0  0  0  0  0  0  0  0  0  0  0
   -2.3480    8.2610   -1.7940 C   0  0  0  0  0  0  0  0  0  0  0  0
   -2.5670    9.6880   -1.2780 C   0  0  1  0  0  0  0  0  0  0  0  0
   -3.7410    9.6980   -0.2640 C   0  0  0  0  0  0  0  0  0  0  0  0
   -5.0140    9.0830   -0.8360 C   0  0  0  0  0  0  0  0  0  0  0  0
   -4.7700    7.6440   -1.2850 C   0  0  2  0  0  0  0  0  0  0  0  0
   -4.5000    6.8410   -0.1320 O   0  0  0  0  0  0  0  0  0  0  0  0
   -3.6030    7.5090   -2.3020 C   0  0  0  0  0  0  0  0  0  0  0  0
   -4.0220    8.1240   -3.6600 C   0  0  0  0  0  0  0  0  0  0  0  0
   -3.3710    5.9960   -2.5640 C   0  0  0  0  0  0  0  0  0  0  0  0
   -1.2760   10.4310   -0.7240 C   0  0  1  0  0  0  0  0  0  0  0  0
   -1.0680   10.0860    0.7820 C   0  0  0  0  0  0  0  0  0  0  0  0
   -1.5070   11.9870   -0.7950 C   0  0  0  0  0  0  0  0  0  0  0  0
   -1.1270   12.6860   -2.1140 C   0  0  0  0  0  0  0  0  0  0  0  0
    0.2810   12.2820   -2.5630 C   0  0  2  0  0  0  0  0  0  0  0  0
    1.2910   12.7720   -1.4700 C   0  0  0  0  0  0  0  0  0  0  0  0
    1.2008   14.2680   -1.8346 H   0  0  0  0  0  0  0  0  0  0  0  0
    1.5650   15.8650   -2.5719 H   0  0  0  0  0  0  0  0  0  0  0  0
   -0.1186   15.2386   -2.5719 H   0  0  0  0  0  0  0  0  0  0  0  0
    2.2764   14.3349   -4.1965 H   0  0  0  0  0  0  0  0  0  0  0  0
   -0.5968   14.7638   -5.0968 H   0  0  0  0  0  0  0  0  0  0  0  0
    0.6762   16.0754   -5.0393 H   0  0  0  0  0  0  0  0  0  0  0  0
    2.0591   14.3691   -6.4753 H   0  0  0  0  0  0  0  0  0  0  0  0
    0.4153   13.7166   -6.8741 H   0  0  0  0  0  0  0  0  0  0  0  0
    0.4206   16.3746   -6.7636 H   0  0  0  0  0  0  0  0  0  0  0  0
    3.2935   14.6910   -8.0433 H   0  0  0  0  0  0  0  0  0  0  0  0
    2.5389   14.1353   -9.5758 H   0  0  0  0  0  0  0  0  0  0  0  0
    3.6214   15.5688   -9.5758 H   0  0  0  0  0  0  0  0  0  0  0  0
    1.7358   18.0318   -8.6074 H   0  0  0  0  0  0  0  0  0  0  0  0
    2.6184   17.3442  -10.0127 H   0  0  0  0  0  0  0  0  0  0  0  0
    0.8226   17.3854  -10.0127 H   0  0  0  0  0  0  0  0  0  0  0  0
   -0.0879   12.8547   -4.6399 H   0  0  0  0  0  0  0  0  0  0  0  0
    1.8183   11.5731   -5.3848 H   0  0  0  0  0  0  0  0  0  0  0  0
    2.8805   12.2929   -4.1562 H   0  0  0  0  0  0  0  0  0  0  0  0
    1.7635    9.6642   -4.0526 H   0  0  0  0  0  0  0  0  0  0  0  0
    2.4879   10.4845   -2.6718 H   0  0  0  0  0  0  0  0  0  0  0  0
   -1.5803    9.8130   -3.4795 H   0  0  0  0  0  0  0  0  0  0  0  0
   -0.9761   11.1090   -4.5666 H   0  0  0  0  0  0  0  0  0  0  0  0
   -0.1859    9.4959   -4.5666 H   0  0  0  0  0  0  0  0  0  0  0  0
    0.8902   10.3178   -0.8589 H   0  0  0  0  0  0  0  0  0  0  0  0
    0.8912    8.2025   -2.3291 H   0  0  0  0  0  0  0  0  0  0  0  0
    0.4563    8.1216   -0.5421 H   0  0  0  0  0  0  0  0  0  0  0  0
   -1.0309    6.6786   -2.1697 H   0  0  0  0  0  0  0  0  0  0  0  0
   -2.8295   10.2924   -2.1588 H   0  0  0  0  0  0  0  0  0  0  0  0
   -3.4424    9.1256    0.6266 H   0  0  0  0  0  0  0  0  0  0  0  0
   -3.9594   10.7474   -0.0169 H   0  0  0  0  0  0  0  0  0  0  0  0
   -5.7967    9.0913   -0.0632 H   0  0  0  0  0  0  0  0  0  0  0  0
   -5.3289    9.6747   -1.7082 H   0  0  0  0  0  0  0  0  0  0  0  0
   -5.6778    7.3016   -1.8034 H   0  0  0  0  0  0  0  0  0  0  0  0
   -4.7240    7.3690    0.6530 H   0  0  0  0  0  0  0  0  0  0  0  0
   -4.6333    9.0212   -3.4832 H   0  0  0  0  0  0  0  0  0  0  0  0
   -3.1229    8.3995   -4.2307 H   0  0  0  0  0  0  0  0  0  0  0  0
   -4.6074    7.3881   -4.2307 H   0  0  0  0  0  0  0  0  0  0  0  0
   -3.2897    5.4658   -1.6036 H   0  0  0  0  0  0  0  0  0  0  0  0
   -4.2173    5.5891   -3.1370 H   0  0  0  0  0  0  0  0  0  0  0  0
   -2.4417    5.8614   -3.1370 H   0  0  0  0  0  0  0  0  0  0  0  0
   -1.5364   10.8629    1.4042 H   0  0  0  0  0  0  0  0  0  0  0  0
   -1.5296    9.1121    1.0022 H   0  0  0  0  0  0  0  0  0  0  0  0
    0.0087   10.0396    1.0022 H   0  0  0  0  0  0  0  0  0  0  0  0
   -2.5762   12.1732   -0.6157 H   0  0  0  0  0  0  0  0  0  0  0  0
   -0.8317   12.4131   -0.0384 H   0  0  0  0  0  0  0  0  0  0  0  0
   -1.8489   12.4007   -2.8934 H   0  0  0  0  0  0  0  0  0  0  0  0
   -1.1448   13.7739   -1.9522 H   0  0  0  0  0  0  0  0  0  0  0  0
    0.8764   12.5709   -0.4712 H   0  0  0  0  0  0  0  0  0  0  0  0
    2.2449   12.2365   -1.5857 H   0  0  0  0  0  0  0  0  0  0  0  0
    1.4608   13.8526   -1.5857 H   0  0  0  0  0  0  0  0  0  0  0  0
  1  2  1  0
  2  3  1  0
  3  4  1  0
  4  5  1  0
  5  6  1  0
  6  7  1  0
  7  8  1  0
  7  9  1  0
  2 10  1  0
 10 11  1  0
 11 12  1  0
 12 13  1  0
 13 14  1  6
 13 15  1  0
 15 16  1  0
 16 17  1  0
 17 18  2  0
 18 19  1  0
 19 20  1  0
 20 21  1  0
 21 22  1  0
 22 23  1  0
 22 24  1  0
 24 25  1  0
 24 26  1  0
 19 27  1  0
 27 28  1  1
 27 29  1  0
 29 30  1  0
 30 31  1  0
 31 32  1  1
  7  5  1  0
 31 10  1  0
 31 13  1  0
 27 15  1  0
 24 18  1  0
  1 33  1  0
  1 34  1  0
  1 35  1  0
  2 36  1  6
  3 37  1  0
  3 38  1  0
  4 39  1  0
  4 40  1  0
  5 41  1  1
  8 42  1  0
  8 43  1  0
  8 44  1  0
  9 45  1  0
  9 46  1  0
  9 47  1  0
 10 48  1  6
 11 49  1  0
 11 50  1  0
 12 51  1  0
 12 52  1  0
 14 53  1  0
 14 54  1  0
 14 55  1  0
 15 56  1  1
 16 57  1  0
 16 58  1  0
 17 59  1  0
 19 60  1  6
 20 61  1  0
 20 62  1  0
 21 63  1  0
 21 64  1  0
 22 65  1  6
 23 66  1  0
 25 67  1  0
 25 68  1  0
 25 69  1  0
 26 70  1  0
 26 71  1  0
 26 72  1  0
 28 73  1  0
 28 74  1  0
 28 75  1  0
 29 76  1  0
 29 77  1  0
 30 78  1  0
 30 79  1  0
 32 80  1  0
 32 81  1  0
 32 82  1  0
M  END
>  <meeko>  (16) 
{"is_sidechain": [false], "intermolecular_energy": 2.731, "internal_energy": -0.839}

$$$$
EPH_relaxed_0001_pdb2pqr_Repair_156_r2_0001_out
     RDKit          3D

 82 86  0  0  0  0  0  0  0  0999 V2000
   -2.4460    7.7300   -0.0660 C   0  0  0  0  0  0  0  0  0  0  0  0
   -3.0750    9.1260   -0.0590 C   0  0  2  0  0  0  0  0  0  0  0  0
   -4.5650    9.0940   -0.4520 C   0  0  0  0  0  0  0  0  0  0  0  0
   -5.1540    7.6820   -0.5160 C   0  0  0  0  0  0  0  0  0  0  0  0
   -5.9050    7.4510   -1.7920 C   0  0  2  0  0  0  0  0  0  0  0  0
   -6.8490    8.4770   -2.1260 O   0  0  0  0  0  0  0  0  0  0  0  0
   -7.3960    7.1770   -1.8490 C   0  0  0  0  0  0  0  0  0  0  0  0
   -8.2260    7.1200   -0.6050 C   0  0  0  0  0  0  0  0  0  0  0  0
   -7.9520    6.4870   -3.0550 C   0  0  0  0  0  0  0  0  0  0  0  0
   -2.3080   10.0460   -1.0010 C   0  0  1  0  0  0  0  0  0  0  0  0
   -2.9560   11.4510   -1.1240 C   0  0  0  0  0  0  0  0  0  0  0  0
   -1.7960   12.4660   -1.2870 C   0  0  0  0  0  0  0  0  0  0  0  0
   -0.5530   11.5950   -1.5850 C   0  0  1  0  0  0  0  0  0  0  0  0
   -0.6490   11.2680   -3.1080 C   0  0  0  0  0  0  0  0  0  0  0  0
    0.8320   12.2160   -1.2140 C   0  0  2  0  0  0  0  0  0  0  0  0
    1.1950   13.5040   -1.9750 C   0  0  0  0  0  0  0  0  0  0  0  0
    1.9430   13.3010   -3.2510 C   0  0  0  0  0  0  0  0  0  0  0  0
    2.5570   12.1640   -3.6250 C   0  0  0  0  0  0  0  0  0  0  0  0
    2.6190   10.9550   -2.6820 C   0  0  1  0  0  0  0  0  0  0  0  0
    4.0640   10.3890   -2.6600 C   0  0  0  0  0  0  0  0  0  0  0  0
    4.5880   10.0680   -4.0560 C   0  0  0  0  0  0  0  0  0  0  0  0
    4.5640   11.3080   -4.9470 C   0  0  2  0  0  0  0  0  0  0  0  0
    5.5120   12.2540   -4.4430 O   0  0  0  0  0  0  0  0  0  0  0  0
    3.1610   11.9700   -5.0380 C   0  0  0  0  0  0  0  0  0  0  0  0
    2.2090   11.0620   -5.8540 C   0  0  0  0  0  0  0  0  0  0  0  0
    3.3070   13.2870   -5.8480 C   0  0  0  0  0  0  0  0  0  0  0  0
    2.0300   11.1820   -1.2240 C   0  0  1  0  0  0  0  0  0  0  0  0
    3.1330   11.7690   -0.2900 C   0  0  0  0  0  0  0  0  0  0  0  0
    1.6240    9.7900   -0.6110 C   0  0  0  0  0  0  0  0  0  0  0  0
    0.2010    9.2860   -0.9150 C   0  0  0  0  0  0  0  0  0  0  0  0
   -0.8390   10.3750   -0.6340 C   0  0  2  0  0  0  0  0  0  0  0  0
   -0.7810   10.7090    0.8950 C   0  0  0  0  0  0  0  0  0  0  0  0
   -2.2934    7.3914    0.9694 H   0  0  0  0  0  0  0  0  0  0  0  0
   -3.1152    7.0289   -0.5862 H   0  0  0  0  0  0  0  0  0  0  0  0
   -1.4775    7.7668   -0.5862 H   0  0  0  0  0  0  0  0  0  0  0  0
   -3.0134    9.5112    0.9695 H   0  0  0  0  0  0  0  0  0  0  0  0
   -5.1327    9.6738    0.2907 H   0  0  0  0  0  0  0  0  0  0  0  0
   -4.6402    9.5200   -1.4634 H   0  0  0  0  0  0  0  0  0  0  0  0
   -4.3350    6.9509   -0.4472 H   0  0  0  0  0  0  0  0  0  0  0  0
   -5.8578    7.5662    0.3214 H   0  0  0  0  0  0  0  0  0  0  0  0
   -5.0421    6.9294   -2.2317 H   0  0  0  0  0  0  0  0  0  0  0  0
   -7.5693    7.1651    0.2763 H   0  0  0  0  0  0  0  0  0  0  0  0
   -8.9209    7.9725   -0.5885 H   0  0  0  0  0  0  0  0  0  0  0  0
   -8.7978    6.1805   -0.5885 H   0  0  0  0  0  0  0  0  0  0  0  0
   -8.6126    5.6672   -2.7364 H   0  0  0  0  0  0  0  0  0  0  0  0
   -8.5254    7.2069   -3.6575 H   0  0  0  0  0  0  0  0  0  0  0  0
   -7.1267    6.0798   -3.6575 H   0  0  0  0  0  0  0  0  0  0  0  0
   -2.3402    9.4389   -1.9177 H   0  0  0  0  0  0  0  0  0  0  0  0
   -3.6174   11.4875   -2.0022 H   0  0  0  0  0  0  0  0  0  0  0  0
   -3.5635   11.6847   -0.2372 H   0  0  0  0  0  0  0  0  0  0  0  0
   -1.9968   13.1542   -2.1213 H   0  0  0  0  0  0  0  0  0  0  0  0
   -1.6614   13.0922   -0.3927 H   0  0  0  0  0  0  0  0  0  0  0  0
   -0.9566   10.2201   -3.2393 H   0  0  0  0  0  0  0  0  0  0  0  0
   -1.3908   11.9297   -3.5791 H   0  0  0  0  0  0  0  0  0  0  0  0
    0.3328   11.4237   -3.5791 H   0  0  0  0  0  0  0  0  0  0  0  0
    0.6811   12.5196   -0.1675 H   0  0  0  0  0  0  0  0  0  0  0  0
    0.2607   14.0351   -2.2094 H   0  0  0  0  0  0  0  0  0  0  0  0
    1.8686   14.0688   -1.3137 H   0  0  0  0  0  0  0  0  0  0  0  0
    1.9966   14.1535   -3.9441 H   0  0  0  0  0  0  0  0  0  0  0  0
    1.9312   10.2062   -3.1018 H   0  0  0  0  0  0  0  0  0  0  0  0
    4.7276   11.1343   -2.1971 H   0  0  0  0  0  0  0  0  0  0  0  0
    4.0462    9.4507   -2.0862 H   0  0  0  0  0  0  0  0  0  0  0  0
    5.6222    9.7017   -3.9768 H   0  0  0  0  0  0  0  0  0  0  0  0
    3.9411    9.3003   -4.5056 H   0  0  0  0  0  0  0  0  0  0  0  0
    4.8251   10.9882   -5.9666 H   0  0  0  0  0  0  0  0  0  0  0  0
    5.6870   12.9000   -5.1490 H   0  0  0  0  0  0  0  0  0  0  0  0
    1.5880   10.4697   -5.1659 H   0  0  0  0  0  0  0  0  0  0  0  0
    1.5614   11.6855   -6.4879 H   0  0  0  0  0  0  0  0  0  0  0  0
    2.8012   10.3857   -6.4879 H   0  0  0  0  0  0  0  0  0  0  0  0
    3.4011   14.1355   -5.1544 H   0  0  0  0  0  0  0  0  0  0  0  0
    4.2043   13.2302   -6.4817 H   0  0  0  0  0  0  0  0  0  0  0  0
    2.4190   13.4281   -6.4817 H   0  0  0  0  0  0  0  0  0  0  0  0
    2.8441   11.6153    0.7602 H   0  0  0  0  0  0  0  0  0  0  0  0
    4.0883   11.2600   -0.4858 H   0  0  0  0  0  0  0  0  0  0  0  0
    3.2444   12.8457   -0.4858 H   0  0  0  0  0  0  0  0  0  0  0  0
    2.3316    9.0392   -0.9926 H   0  0  0  0  0  0  0  0  0  0  0  0
    1.6508    9.9366    0.4789 H   0  0  0  0  0  0  0  0  0  0  0  0
    0.1408    8.9959   -1.9744 H   0  0  0  0  0  0  0  0  0  0  0  0
   -0.0111    8.4232   -0.2665 H   0  0  0  0  0  0  0  0  0  0  0  0
   -0.9407    9.7896    1.4775 H   0  0  0  0  0  0  0  0  0  0  0  0
    0.2041   11.1323    1.1407 H   0  0  0  0  0  0  0  0  0  0  0  0
   -1.5657   11.4397    1.1407 H   0  0  0  0  0  0  0  0  0  0  0  0
  1  2  1  0
  2  3  1  0
  3  4  1  0
  4  5  1  0
  5  6  1  0
  6  7  1  0
  7  8  1  0
  7  9  1  0
  2 10  1  0
 10 11  1  0
 11 12  1  0
 12 13  1  0
 13 14  1  6
 13 15  1  0
 15 16  1  0
 16 17  1  0
 17 18  2  0
 18 19  1  0
 19 20  1  0
 20 21  1  0
 21 22  1  0
 22 23  1  0
 22 24  1  0
 24 25  1  0
 24 26  1  0
 19 27  1  0
 27 28  1  1
 27 29  1  0
 29 30  1  0
 30 31  1  0
 31 32  1  1
  7  5  1  0
 31 10  1  0
 31 13  1  0
 27 15  1  0
 24 18  1  0
  1 33  1  0
  1 34  1  0
  1 35  1  0
  2 36  1  1
  3 37  1  0
  3 38  1  0
  4 39  1  0
  4 40  1  0
  5 41  1  6
  8 42  1  0
  8 43  1  0
  8 44  1  0
  9 45  1  0
  9 46  1  0
  9 47  1  0
 10 48  1  6
 11 49  1  0
 11 50  1  0
 12 51  1  0
 12 52  1  0
 14 53  1  0
 14 54  1  0
 14 55  1  0
 15 56  1  1
 16 57  1  0
 16 58  1  0
 17 59  1  0
 19 60  1  6
 20 61  1  0
 20 62  1  0
 21 63  1  0
 21 64  1  0
 22 65  1  6
 23 66  1  0
 25 67  1  0
 25 68  1  0
 25 69  1  0
 26 70  1  0
 26 71  1  0
 26 72  1  0
 28 73  1  0
 28 74  1  0
 28 75  1  0
 29 76  1  0
 29 77  1  0
 30 78  1  0
 30 79  1  0
 32 80  1  0
 32 81  1  0
 32 82  1  0
M  END
>  <meeko>  (17) 
{"is_sidechain": [false], "intermolecular_energy": 2.731, "internal_energy": -0.839}

$$$$
EPH_relaxed_0001_pdb2pqr_Repair_156_r2_0001_out
     RDKit          3D

 82 86  0  0  0  0  0  0  0  0999 V2000
    0.7130    8.1050   -2.4070 C   0  0  0  0  0  0  0  0  0  0  0  0
   -0.7150    8.4390   -1.9650 C   0  0  2  0  0  0  0  0  0  0  0  0
   -1.7710    7.8480   -2.9200 C   0  0  0  0  0  0  0  0  0  0  0  0
   -3.0710    7.4380   -2.2230 C   0  0  0  0  0  0  0  0  0  0  0  0
   -3.9590    6.6400   -3.1290 C   0  0  2  0  0  0  0  0  0  0  0  0
   -4.8590    7.4220   -3.9250 O   0  0  0  0  0  0  0  0  0  0  0  0
   -5.4630    6.5480   -2.9570 C   0  0  0  0  0  0  0  0  0  0  0  0
   -6.1670    7.2640   -1.8470 C   0  0  0  0  0  0  0  0  0  0  0  0
   -6.1830    5.3830   -3.5630 C   0  0  0  0  0  0  0  0  0  0  0  0
   -0.8890    9.9500   -1.8670 C   0  0  1  0  0  0  0  0  0  0  0  0
   -2.3470   10.3620   -1.5330 C   0  0  0  0  0  0  0  0  0  0  0  0
   -2.2600   11.6230   -0.6340 C   0  0  0  0  0  0  0  0  0  0  0  0
   -0.7890   12.0860   -0.7520 C   0  0  1  0  0  0  0  0  0  0  0  0
   -0.7260   12.8830   -2.0930 C   0  0  0  0  0  0  0  0  0  0  0  0
   -0.2300   12.9230    0.4440 C   0  0  2  0  0  0  0  0  0  0  0  0
   -0.9370   14.2680    0.6860 C   0  0  0  0  0  0  0  0  0  0  0  0
   -0.3520   15.4350   -0.0390 C   0  0  0  0  0  0  0  0  0  0  0  0
    0.8600   15.4660   -0.6230 C   0  0  0  0  0  0  0  0  0  0  0  0
    1.8220   14.2760   -0.5040 C   0  0  1  0  0  0  0  0  0  0  0  0
    3.2390   14.7910   -0.1400 C   0  0  0  0  0  0  0  0  0  0  0  0
    3.7430   15.8540   -1.1120 C   0  0  0  0  0  0  0  0  0  0  0  0
    2.7900   17.0450   -1.1590 C   0  0  2  0  0  0  0  0  0  0  0  0
    2.8200   17.7100    0.1080 O   0  0  0  0  0  0  0  0  0  0  0  0
    1.3280   16.6480   -1.5070 C   0  0  0  0  0  0  0  0  0  0  0  0
    1.2470   16.2080   -2.9900 C   0  0  0  0  0  0  0  0  0  0  0  0
    0.4450   17.9190   -1.3820 C   0  0  0  0  0  0  0  0  0  0  0  0
    1.3430   13.0900    0.4390 C   0  0  1  0  0  0  0  0  0  0  0  0
    1.7650   13.3770    1.9120 C   0  0  0  0  0  0  0  0  0  0  0  0
    2.0840   11.7660    0.0150 C   0  0  0  0  0  0  0  0  0  0  0  0
    1.4190   10.9210   -1.0890 C   0  0  0  0  0  0  0  0  0  0  0  0
   -0.0640   10.6910   -0.7850 C   0  0  2  0  0  0  0  0  0  0  0  0
   -0.1590    9.8720    0.5470 C   0  0  0  0  0  0  0  0  0  0  0  0
    1.3462    7.9569   -1.5198 H   0  0  0  0  0  0  0  0  0  0  0  0
    0.7046    7.1846   -3.0093 H   0  0  0  0  0  0  0  0  0  0  0  0
    1.1137    8.9337   -3.0093 H   0  0  0  0  0  0  0  0  0  0  0  0
   -0.8709    7.9822   -0.9766 H   0  0  0  0  0  0  0  0  0  0  0  0
   -2.0097    8.6029   -3.6837 H   0  0  0  0  0  0  0  0  0  0  0  0
   -1.3370    6.9348   -3.3533 H   0  0  0  0  0  0  0  0  0  0  0  0
   -2.8253    6.8306   -1.3394 H   0  0  0  0  0  0  0  0  0  0  0  0
   -3.6089    8.3534   -1.9355 H   0  0  0  0  0  0  0  0  0  0  0  0
   -3.1824    5.8707   -3.2520 H   0  0  0  0  0  0  0  0  0  0  0  0
   -5.8002    6.8910   -0.8793 H   0  0  0  0  0  0  0  0  0  0  0  0
   -5.9686    8.3433   -1.9230 H   0  0  0  0  0  0  0  0  0  0  0  0
   -7.2495    7.0839   -1.9230 H   0  0  0  0  0  0  0  0  0  0  0  0
   -6.5799    4.7408   -2.7630 H   0  0  0  0  0  0  0  0  0  0  0  0
   -7.0130    5.7484   -4.1856 H   0  0  0  0  0  0  0  0  0  0  0  0
   -5.4850    4.8041   -4.1856 H   0  0  0  0  0  0  0  0  0  0  0  0
   -0.5431   10.2422   -2.8695 H   0  0  0  0  0  0  0  0  0  0  0  0
   -2.8968   10.5928   -2.4574 H   0  0  0  0  0  0  0  0  0  0  0  0
   -2.8805    9.5476   -1.0210 H   0  0  0  0  0  0  0  0  0  0  0  0
   -2.9435   12.4054   -0.9954 H   0  0  0  0  0  0  0  0  0  0  0  0
   -2.5492   11.4141    0.4065 H   0  0  0  0  0  0  0  0  0  0  0  0
   -0.6410   13.9582   -1.8769 H   0  0  0  0  0  0  0  0  0  0  0  0
    0.1491   12.5554   -2.6735 H   0  0  0  0  0  0  0  0  0  0  0  0
   -1.6417   12.6969   -2.6735 H   0  0  0  0  0  0  0  0  0  0  0  0
   -0.4813   12.2932    1.3101 H   0  0  0  0  0  0  0  0  0  0  0  0
   -1.9855   14.1626    0.3705 H   0  0  0  0  0  0  0  0  0  0  0  0
   -0.8195   14.4853    1.7579 H   0  0  0  0  0  0  0  0  0  0  0  0
   -0.9639   16.3470   -0.1010 H   0  0  0  0  0  0  0  0  0  0  0  0
    1.8413   13.7992   -1.4951 H   0  0  0  0  0  0  0  0  0  0  0  0
    3.2080   15.2238    0.8708 H   0  0  0  0  0  0  0  0  0  0  0  0
    3.9289   13.9359   -0.1933 H   0  0  0  0  0  0  0  0  0  0  0  0
    4.7350   16.1993   -0.7854 H   0  0  0  0  0  0  0  0  0  0  0  0
    3.8019   15.4113   -2.1172 H   0  0  0  0  0  0  0  0  0  0  0  0
    3.1336   17.7101   -1.9650 H   0  0  0  0  0  0  0  0  0  0  0  0
    2.0470   18.2980    0.1500 H   0  0  0  0  0  0  0  0  0  0  0  0
    1.0481   15.1274   -3.0415 H   0  0  0  0  0  0  0  0  0  0  0  0
    0.4344   16.7547   -3.4908 H   0  0  0  0  0  0  0  0  0  0  0  0
    2.2010   16.4295   -3.4908 H   0  0  0  0  0  0  0  0  0  0  0  0
    0.2841   18.1506   -0.3188 H   0  0  0  0  0  0  0  0  0  0  0  0
    0.9503   18.7659   -1.8693 H   0  0  0  0  0  0  0  0  0  0  0  0
   -0.5250   17.7410   -1.8693 H   0  0  0  0  0  0  0  0  0  0  0  0
    1.0540   12.8934    2.5980 H   0  0  0  0  0  0  0  0  0  0  0  0
    2.7745   12.9774    2.0887 H   0  0  0  0  0  0  0  0  0  0  0  0
    1.7643   14.4627    2.0887 H   0  0  0  0  0  0  0  0  0  0  0  0
    3.0877   12.0448   -0.3384 H   0  0  0  0  0  0  0  0  0  0  0  0
    2.0717   11.1292    0.9119 H   0  0  0  0  0  0  0  0  0  0  0  0
    1.5118   11.4477   -2.0503 H   0  0  0  0  0  0  0  0  0  0  0  0
    1.9232    9.9444   -1.1347 H   0  0  0  0  0  0  0  0  0  0  0  0
   -0.0796   10.5563    1.4046 H   0  0  0  0  0  0  0  0  0  0  0  0
   -1.1242    9.3458    0.5859 H   0  0  0  0  0  0  0  0  0  0  0  0
    0.6601    9.1388    0.5859 H   0  0  0  0  0  0  0  0  0  0  0  0
  1  2  1  0
  2  3  1  0
  3  4  1  0
  4  5  1  0
  5  6  1  0
  6  7  1  0
  7  8  1  0
  7  9  1  0
  2 10  1  0
 10 11  1  0
 11 12  1  0
 12 13  1  0
 13 14  1  6
 13 15  1  0
 15 16  1  0
 16 17  1  0
 17 18  2  0
 18 19  1  0
 19 20  1  0
 20 21  1  0
 21 22  1  0
 22 23  1  0
 22 24  1  0
 24 25  1  0
 24 26  1  0
 19 27  1  0
 27 28  1  1
 27 29  1  0
 29 30  1  0
 30 31  1  0
 31 32  1  1
  7  5  1  0
 31 10  1  0
 31 13  1  0
 27 15  1  0
 24 18  1  0
  1 33  1  0
  1 34  1  0
  1 35  1  0
  2 36  1  1
  3 37  1  0
  3 38  1  0
  4 39  1  0
  4 40  1  0
  5 41  1  6
  8 42  1  0
  8 43  1  0
  8 44  1  0
  9 45  1  0
  9 46  1  0
  9 47  1  0
 10 48  1  6
 11 49  1  0
 11 50  1  0
 12 51  1  0
 12 52  1  0
 14 53  1  0
 14 54  1  0
 14 55  1  0
 15 56  1  1
 16 57  1  0
 16 58  1  0
 17 59  1  0
 19 60  1  6
 20 61  1  0
 20 62  1  0
 21 63  1  0
 21 64  1  0
 22 65  1  6
 23 66  1  0
 25 67  1  0
 25 68  1  0
 25 69  1  0
 26 70  1  0
 26 71  1  0
 26 72  1  0
 28 73  1  0
 28 74  1  0
 28 75  1  0
 29 76  1  0
 29 77  1  0
 30 78  1  0
 30 79  1  0
 32 80  1  0
 32 81  1  0
 32 82  1  0
M  END
>  <meeko>  (18) 
{"is_sidechain": [false], "intermolecular_energy": 2.731, "internal_energy": -0.839}

$$$$
EPH_relaxed_0001_pdb2pqr_Repair_156_r2_0001_out
     RDKit          3D

 82 86  0  0  0  0  0  0  0  0999 V2000
    3.1390   14.8390   -7.5320 C   0  0  0  0  0  0  0  0  0  0  0  0
    1.6150   14.8830   -7.3920 C   0  0  2  0  0  0  0  0  0  0  0  0
    1.0050   16.1310   -8.0610 C   0  0  0  0  0  0  0  0  0  0  0  0
    1.9340   16.7990   -9.0790 C   0  0  0  0  0  0  0  0  0  0  0  0
    1.5990   16.3950  -10.4830 C   0  0  2  0  0  0  0  0  0  0  0  0
    1.0060   15.0960  -10.6070 O   0  0  0  0  0  0  0  0  0  0  0  0
    2.2960   15.2650  -11.2170 C   0  0  0  0  0  0  0  0  0  0  0  0
    3.3840   14.4680  -10.5690 C   0  0  0  0  0  0  0  0  0  0  0  0
    2.2610   15.2550  -12.7140 C   0  0  0  0  0  0  0  0  0  0  0  0
    1.2280   14.8400   -5.9180 C   0  0  1  0  0  0  0  0  0  0  0  0
   -0.0300   15.6950   -5.6060 C   0  0  0  0  0  0  0  0  0  0  0  0
   -0.8090   14.9530   -4.4900 C   0  0  0  0  0  0  0  0  0  0  0  0
    0.1800   13.8850   -3.9680 C   0  0  1  0  0  0  0  0  0  0  0  0
    1.1140   14.6520   -2.9800 C   0  0  0  0  0  0  0  0  0  0  0  0
   -0.4560   12.6230   -3.2990 C   0  0  2  0  0  0  0  0  0  0  0  0
   -1.2760   12.9020   -2.0270 C   0  0  0  0  0  0  0  0  0  0  0  0
   -0.5080   12.8460   -0.7480 C   0  0  0  0  0  0  0  0  0  0  0  0
    0.7160   12.3080   -0.5930 C   0  0  0  0  0  0  0  0  0  0  0  0
    1.4130   11.5900   -1.7560 C   0  0  1  0  0  0  0  0  0  0  0  0
    2.0020   10.2450   -1.2550 C   0  0  0  0  0  0  0  0  0  0  0  0
    2.9150   10.4200   -0.0450 C   0  0  0  0  0  0  0  0  0  0  0  0
    2.1690   11.0840    1.1090 C   0  0  2  0  0  0  0  0  0  0  0  0
    1.1570   10.1890    1.5800 O   0  0  0  0  0  0  0  0  0  0  0  0
    1.5240   12.4440    0.7210 C   0  0  0  0  0  0  0  0  0  0  0  0
    2.6330   13.5020    0.5020 C   0  0  0  0  0  0  0  0  0  0  0  0
    0.6860   12.9380    1.9310 C   0  0  0  0  0  0  0  0  0  0  0  0
    0.5550   11.4250   -3.0830 C   0  0  1  0  0  0  0  0  0  0  0  0
   -0.3040   10.1260   -3.0030 C   0  0  0  0  0  0  0  0  0  0  0  0
    1.5300   11.2370   -4.3050 C   0  0  0  0  0  0  0  0  0  0  0  0
    2.0290   12.5190   -4.9990 C   0  0  0  0  0  0  0  0  0  0  0  0
    0.8630   13.4590   -5.3180 C   0  0  2  0  0  0  0  0  0  0  0  0
   -0.0820   12.7230   -6.3280 C   0  0  0  0  0  0  0  0  0  0  0  0
    3.5988   14.8257   -6.5328 H   0  0  0  0  0  0  0  0  0  0  0  0
    3.4307   13.9321   -8.0819 H   0  0  0  0  0  0  0  0  0  0  0  0
    3.4825   15.7276   -8.0819 H   0  0  0  0  0  0  0  0  0  0  0  0
    1.2096   14.0010   -7.9094 H   0  0  0  0  0  0  0  0  0  0  0  0
    0.0812   15.8317   -8.5777 H   0  0  0  0  0  0  0  0  0  0  0  0
    0.8201   16.8657   -7.2635 H   0  0  0  0  0  0  0  0  0  0  0  0
    1.8354   17.8909   -8.9890 H   0  0  0  0  0  0  0  0  0  0  0  0
    2.9642   16.4776   -8.8660 H   0  0  0  0  0  0  0  0  0  0  0  0
    1.3954   17.4399  -10.7601 H   0  0  0  0  0  0  0  0  0  0  0  0
    3.2883   14.5381   -9.4754 H   0  0  0  0  0  0  0  0  0  0  0  0
    3.3010   13.4154  -10.8776 H   0  0  0  0  0  0  0  0  0  0  0  0
    4.3625   14.8645  -10.8776 H   0  0  0  0  0  0  0  0  0  0  0  0
    1.2555   14.9677  -13.0553 H   0  0  0  0  0  0  0  0  0  0  0  0
    2.5041   16.2586  -13.0932 H   0  0  0  0  0  0  0  0  0  0  0  0
    2.9976   14.5314  -13.0932 H   0  0  0  0  0  0  0  0  0  0  0  0
    2.1629   15.2089   -5.4710 H   0  0  0  0  0  0  0  0  0  0  0  0
    0.2683   16.6953   -5.2590 H   0  0  0  0  0  0  0  0  0  0  0  0
   -0.6526   15.8240   -6.5036 H   0  0  0  0  0  0  0  0  0  0  0  0
   -1.0906   15.6479   -3.6851 H   0  0  0  0  0  0  0  0  0  0  0  0
   -1.7455   14.5094   -4.8592 H   0  0  0  0  0  0  0  0  0  0  0  0
    0.8261   14.4156   -1.9450 H   0  0  0  0  0  0  0  0  0  0  0  0
    2.1570   14.3463   -3.1494 H   0  0  0  0  0  0  0  0  0  0  0  0
    1.0170   15.7345   -3.1494 H   0  0  0  0  0  0  0  0  0  0  0  0
   -1.1825   12.2953   -4.0572 H   0  0  0  0  0  0  0  0  0  0  0  0
   -1.7123   13.9077   -2.1177 H   0  0  0  0  0  0  0  0  0  0  0  0
   -2.0264   12.0999   -1.9667 H   0  0  0  0  0  0  0  0  0  0  0  0
   -0.9828   13.2815    0.1436 H   0  0  0  0  0  0  0  0  0  0  0  0
    2.2264   12.2553   -2.0812 H   0  0  0  0  0  0  0  0  0  0  0  0
    1.1722    9.5785   -0.9770 H   0  0  0  0  0  0  0  0  0  0  0  0
    2.6064    9.8210   -2.0705 H   0  0  0  0  0  0  0  0  0  0  0  0
    3.2755    9.4328    0.2798 H   0  0  0  0  0  0  0  0  0  0  0  0
    3.7604   11.0623   -0.3327 H   0  0  0  0  0  0  0  0  0  0  0  0
    2.9062   11.3001    1.8963 H   0  0  0  0  0  0  0  0  0  0  0  0
    0.9830   10.4040    2.5120 H   0  0  0  0  0  0  0  0  0  0  0  0
    3.0018   13.8538    1.4768 H   0  0  0  0  0  0  0  0  0  0  0  0
    3.4625   13.0521   -0.0632 H   0  0  0  0  0  0  0  0  0  0  0  0
    2.2226   14.3518   -0.0632 H   0  0  0  0  0  0  0  0  0  0  0  0
    1.1844   12.6442    2.8666 H   0  0  0  0  0  0  0  0  0  0  0  0
    0.5960   14.0336    1.8919 H   0  0  0  0  0  0  0  0  0  0  0  0
   -0.3162   12.4862    1.8919 H   0  0  0  0  0  0  0  0  0  0  0  0
   -0.4766    9.8649   -1.9485 H   0  0  0  0  0  0  0  0  0  0  0  0
   -1.2698   10.2938   -3.5021 H   0  0  0  0  0  0  0  0  0  0  0  0
    0.2285    9.3030   -3.5021 H   0  0  0  0  0  0  0  0  0  0  0  0
    2.4128   10.6882   -3.9451 H   0  0  0  0  0  0  0  0  0  0  0  0
    0.9381   10.7088   -5.0670 H   0  0  0  0  0  0  0  0  0  0  0  0
    2.7365   13.0361   -4.3341 H   0  0  0  0  0  0  0  0  0  0  0  0
    2.5214   12.2385   -5.9418 H   0  0  0  0  0  0  0  0  0  0  0  0
   -0.8306   12.1400   -5.7715 H   0  0  0  0  0  0  0  0  0  0  0  0
   -0.5913   13.4647   -6.9608 H   0  0  0  0  0  0  0  0  0  0  0  0
    0.5124   12.0476   -6.9608 H   0  0  0  0  0  0  0  0  0  0  0  0
  1  2  1  0
  2  3  1  0
  3  4  1  0
  4  5  1  0
  5  6  1  0
  6  7  1  0
  7  8  1  0
  7  9  1  0
  2 10  1  0
 10 11  1  0
 11 12  1  0
 12 13  1  0
 13 14  1  1
 13 15  1  0
 15 16  1  0
 16 17  1  0
 17 18  2  0
 18 19  1  0
 19 20  1  0
 20 21  1  0
 21 22  1  0
 22 23  1  0
 22 24  1  0
 24 25  1  0
 24 26  1  0
 19 27  1  0
 27 28  1  1
 27 29  1  0
 29 30  1  0
 30 31  1  0
 31 32  1  6
  7  5  1  0
 31 10  1  0
 31 13  1  0
 27 15  1  0
 24 18  1  0
  1 33  1  0
  1 34  1  0
  1 35  1  0
  2 36  1  6
  3 37  1  0
  3 38  1  0
  4 39  1  0
  4 40  1  0
  5 41  1  6
  8 42  1  0
  8 43  1  0
  8 44  1  0
  9 45  1  0
  9 46  1  0
  9 47  1  0
 10 48  1  1
 11 49  1  0
 11 50  1  0
 12 51  1  0
 12 52  1  0
 14 53  1  0
 14 54  1  0
 14 55  1  0
 15 56  1  6
 16 57  1  0
 16 58  1  0
 17 59  1  0
 19 60  1  6
 20 61  1  0
 20 62  1  0
 21 63  1  0
 21 64  1  0
 22 65  1  1
 23 66  1  0
 25 67  1  0
 25 68  1  0
 25 69  1  0
 26 70  1  0
 26 71  1  0
 26 72  1  0
 28 73  1  0
 28 74  1  0
 28 75  1  0
 29 76  1  0
 29 77  1  0
 30 78  1  0
 30 79  1  0
 32 80  1  0
 32 81  1  0
 32 82  1  0
M  END
>  <meeko>  (19) 
{"is_sidechain": [false], "intermolecular_energy": 2.731, "internal_energy": -0.839}

$$$$
