EPH_relaxed_0001_pdb2pqr_Repair_177_r2_0001_out
     RDKit          3D

 82 86  0  0  0  0  0  0  0  0999 V2000
    3.8290   17.9420    0.6710 C   0  0  0  0  0  0  0  0  0  0  0  0
    2.9630   18.3260   -0.5330 C   0  0  2  0  0  0  0  0  0  0  0  0
    2.2240   19.6620   -0.3140 C   0  0  0  0  0  0  0  0  0  0  0  0
    1.2040   19.6210    0.8270 C   0  0  0  0  0  0  0  0  0  0  0  0
   -0.1250   20.1700    0.4020 C   0  0  2  0  0  0  0  0  0  0  0  0
   -1.1200   20.1940    1.4340 O   0  0  0  0  0  0  0  0  0  0  0  0
   -1.3870   19.3330    0.3160 C   0  0  0  0  0  0  0  0  0  0  0  0
   -1.3810   17.8750    0.6560 C   0  0  0  0  0  0  0  0  0  0  0  0
   -2.5030   19.8100   -0.5590 C   0  0  0  0  0  0  0  0  0  0  0  0
    1.9590   17.2180   -0.8260 C   0  0  1  0  0  0  0  0  0  0  0  0
    0.8280   17.6740   -1.7840 C   0  0  0  0  0  0  0  0  0  0  0  0
    0.4660   16.4500   -2.6650 C   0  0  0  0  0  0  0  0  0  0  0  0
    1.1560   15.2530   -1.9700 C   0  0  1  0  0  0  0  0  0  0  0  0
    0.1950   14.8580   -0.8050 C   0  0  0  0  0  0  0  0  0  0  0  0
    1.4940   14.0270   -2.8790 C   0  0  2  0  0  0  0  0  0  0  0  0
    0.2780   13.3300   -3.5140 C   0  0  0  0  0  0  0  0  0  0  0  0
   -0.3090   12.2160   -2.7130 C   0  0  0  0  0  0  0  0  0  0  0  0
    0.2860   11.6040   -1.6720 C   0  0  0  0  0  0  0  0  0  0  0  0
    1.7220   11.9570   -1.2660 C   0  0  1  0  0  0  0  0  0  0  0  0
    2.5300   10.6530   -1.0320 C   0  0  0  0  0  0  0  0  0  0  0  0
    1.8540    9.7180   -0.0330 C   0  0  0  0  0  0  0  0  0  0  0  0
    0.4500    9.3440   -0.5000 C   0  0  2  0  0  0  0  0  0  0  0  0
    0.5550    8.5480   -1.6850 O   0  0  0  0  0  0  0  0  0  0  0  0
   -0.4530   10.5780   -0.7770 C   0  0  0  0  0  0  0  0  0  0  0  0
   -0.8140   11.2700    0.5600 C   0  0  0  0  0  0  0  0  0  0  0  0
   -1.7910   10.0660   -1.3760 C   0  0  0  0  0  0  0  0  0  0  0  0
    2.4790   12.9810   -2.2170 C   0  0  1  0  0  0  0  0  0  0  0  0
    3.1650   12.2120   -3.3880 C   0  0  0  0  0  0  0  0  0  0  0  0
    3.6350   13.6780   -1.4060 C   0  0  0  0  0  0  0  0  0  0  0  0
    3.2640   14.9520   -0.6240 C   0  0  0  0  0  0  0  0  0  0  0  0
    2.4950   15.9360   -1.5110 C   0  0  2  0  0  0  0  0  0  0  0  0
    3.4440   16.3680   -2.6800 C   0  0  0  0  0  0  0  0  0  0  0  0
    3.2912   18.1805    1.6004 H   0  0  0  0  0  0  0  0  0  0  0  0
    4.0447   16.8639    0.6385 H   0  0  0  0  0  0  0  0  0  0  0  0
    4.7729   18.5059    0.6385 H   0  0  0  0  0  0  0  0  0  0  0  0
    3.6340   18.4568   -1.3947 H   0  0  0  0  0  0  0  0  0  0  0  0
    2.9695   20.4379   -0.0857 H   0  0  0  0  0  0  0  0  0  0  0  0
    1.6654   19.8756   -1.2372 H   0  0  0  0  0  0  0  0  0  0  0  0
    1.0721   18.5778    1.1501 H   0  0  0  0  0  0  0  0  0  0  0  0
    1.5849   20.2432    1.6503 H   0  0  0  0  0  0  0  0  0  0  0  0
    0.3586   20.8513   -0.3135 H   0  0  0  0  0  0  0  0  0  0  0  0
   -1.3805   17.7534    1.7493 H   0  0  0  0  0  0  0  0  0  0  0  0
   -2.2772   17.3965    0.2343 H   0  0  0  0  0  0  0  0  0  0  0  0
   -0.4809   17.4038    0.2343 H   0  0  0  0  0  0  0  0  0  0  0  0
   -3.3342   20.1653    0.0678 H   0  0  0  0  0  0  0  0  0  0  0  0
   -2.1447   20.6336   -1.1941 H   0  0  0  0  0  0  0  0  0  0  0  0
   -2.8506   18.9818   -1.1941 H   0  0  0  0  0  0  0  0  0  0  0  0
    1.6333   16.9890    0.1994 H   0  0  0  0  0  0  0  0  0  0  0  0
   -0.0502   17.9975   -1.2061 H   0  0  0  0  0  0  0  0  0  0  0  0
    1.1535   18.5232   -2.4029 H   0  0  0  0  0  0  0  0  0  0  0  0
   -0.6238   16.3042   -2.6987 H   0  0  0  0  0  0  0  0  0  0  0  0
    0.7947   16.5739   -3.7074 H   0  0  0  0  0  0  0  0  0  0  0  0
    0.6852   15.0595    0.1589 H   0  0  0  0  0  0  0  0  0  0  0  0
   -0.7301   15.4488   -0.8765 H   0  0  0  0  0  0  0  0  0  0  0  0
   -0.0472   13.7874   -0.8765 H   0  0  0  0  0  0  0  0  0  0  0  0
    2.0386   14.4951   -3.7123 H   0  0  0  0  0  0  0  0  0  0  0  0
   -0.5052   14.0868   -3.6684 H   0  0  0  0  0  0  0  0  0  0  0  0
    0.6414   12.8749   -4.4472 H   0  0  0  0  0  0  0  0  0  0  0  0
   -1.3122   11.8655   -2.9971 H   0  0  0  0  0  0  0  0  0  0  0  0
    1.6420   12.5203   -0.3246 H   0  0  0  0  0  0  0  0  0  0  0  0
    2.6359   10.1265   -1.9920 H   0  0  0  0  0  0  0  0  0  0  0  0
    3.5082   10.9360   -0.6159 H   0  0  0  0  0  0  0  0  0  0  0  0
    2.4557    8.8027    0.0675 H   0  0  0  0  0  0  0  0  0  0  0  0
    1.7760   10.2352    0.9347 H   0  0  0  0  0  0  0  0  0  0  0  0
   -0.0297    8.7819    0.3148 H   0  0  0  0  0  0  0  0  0  0  0  0
    0.5880    9.1540   -2.4440 H   0  0  0  0  0  0  0  0  0  0  0  0
   -0.4852   10.6398    1.3995 H   0  0  0  0  0  0  0  0  0  0  0  0
   -0.3103   12.2464    0.6152 H   0  0  0  0  0  0  0  0  0  0  0  0
   -1.9029   11.4155    0.6152 H   0  0  0  0  0  0  0  0  0  0  0  0
   -2.4806    9.8021   -0.5606 H   0  0  0  0  0  0  0  0  0  0  0  0
   -2.2411   10.8554   -1.9959 H   0  0  0  0  0  0  0  0  0  0  0  0
   -1.5991    9.1778   -1.9959 H   0  0  0  0  0  0  0  0  0  0  0  0
    3.8445   11.4503   -2.9781 H   0  0  0  0  0  0  0  0  0  0  0  0
    2.3969   11.7238   -4.0058 H   0  0  0  0  0  0  0  0  0  0  0  0
    3.7373   12.9196   -4.0058 H   0  0  0  0  0  0  0  0  0  0  0  0
    4.0233   12.9452   -0.6834 H   0  0  0  0  0  0  0  0  0  0  0  0
    4.3609   14.0067   -2.1642 H   0  0  0  0  0  0  0  0  0  0  0  0
    2.6359   14.6762    0.2359 H   0  0  0  0  0  0  0  0  0  0  0  0
    4.1909   15.4371   -0.2842 H   0  0  0  0  0  0  0  0  0  0  0  0
    4.3705   16.7898   -2.2633 H   0  0  0  0  0  0  0  0  0  0  0  0
    3.6860   15.4914   -3.2988 H   0  0  0  0  0  0  0  0  0  0  0  0
    2.9418   17.1262   -3.2988 H   0  0  0  0  0  0  0  0  0  0  0  0
  1  2  1  0
  2  3  1  0
  3  4  1  0
  4  5  1  0
  5  6  1  0
  6  7  1  0
  7  8  1  0
  7  9  1  0
  2 10  1  0
 10 11  1  0
 11 12  1  0
 12 13  1  0
 13 14  1  1
 13 15  1  0
 15 16  1  0
 16 17  1  0
 17 18  2  0
 18 19  1  0
 19 20  1  0
 20 21  1  0
 21 22  1  0
 22 23  1  0
 22 24  1  0
 24 25  1  0
 24 26  1  0
 19 27  1  0
 27 28  1  6
 27 29  1  0
 29 30  1  0
 30 31  1  0
 31 32  1  6
  7  5  1  0
 31 10  1  0
 31 13  1  0
 27 15  1  0
 24 18  1  0
  1 33  1  0
  1 34  1  0
  1 35  1  0
  2 36  1  6
  3 37  1  0
  3 38  1  0
  4 39  1  0
  4 40  1  0
  5 41  1  6
  8 42  1  0
  8 43  1  0
  8 44  1  0
  9 45  1  0
  9 46  1  0
  9 47  1  0
 10 48  1  1
 11 49  1  0
 11 50  1  0
 12 51  1  0
 12 52  1  0
 14 53  1  0
 14 54  1  0
 14 55  1  0
 15 56  1  6
 16 57  1  0
 16 58  1  0
 17 59  1  0
 19 60  1  1
 20 61  1  0
 20 62  1  0
 21 63  1  0
 21 64  1  0
 22 65  1  1
 23 66  1  0
 25 67  1  0
 25 68  1  0
 25 69  1  0
 26 70  1  0
 26 71  1  0
 26 72  1  0
 28 73  1  0
 28 74  1  0
 28 75  1  0
 29 76  1  0
 29 77  1  0
 30 78  1  0
 30 79  1  0
 32 80  1  0
 32 81  1  0
 32 82  1  0
M  END
>  <meeko>  (1) 
{"is_sidechain": [false], "intermolecular_energy": 2.731, "internal_energy": -0.839}

$$$$
EPH_relaxed_0001_pdb2pqr_Repair_177_r2_0001_out
     RDKit          3D

 82 86  0  0  0  0  0  0  0  0999 V2000
    4.5390   17.6170   -0.7150 C   0  0  0  0  0  0  0  0  0  0  0  0
    3.1650   18.2110   -0.3940 C   0  0  2  0  0  0  0  0  0  0  0  0
    3.1180   18.8380    1.0140 C   0  0  0  0  0  0  0  0  0  0  0  0
    4.4250   18.6910    1.7970 C   0  0  0  0  0  0  0  0  0  0  0  0
    4.3100   19.2580    3.1800 C   0  0  2  0  0  0  0  0  0  0  0  0
    5.3370   20.1940    3.5300 O   0  0  0  0  0  0  0  0  0  0  0  0
    5.3090   18.9730    4.2860 C   0  0  0  0  0  0  0  0  0  0  0  0
    6.4940   18.0890    4.0590 C   0  0  0  0  0  0  0  0  0  0  0  0
    4.8730   19.1540    5.7070 C   0  0  0  0  0  0  0  0  0  0  0  0
    2.0910   17.1360   -0.5210 C   0  0  1  0  0  0  0  0  0  0  0  0
    0.7680   17.6810   -1.1210 C   0  0  0  0  0  0  0  0  0  0  0  0
    0.1670   16.5440   -1.9860 C   0  0  0  0  0  0  0  0  0  0  0  0
    0.9770   15.2860   -1.5950 C   0  0  1  0  0  0  0  0  0  0  0  0
    0.3290   14.7890   -0.2650 C   0  0  0  0  0  0  0  0  0  0  0  0
    1.0460   14.1480   -2.6640 C   0  0  2  0  0  0  0  0  0  0  0  0
   -0.3070   13.5150   -3.0320 C   0  0  0  0  0  0  0  0  0  0  0  0
   -0.7030   12.3340   -2.2090 C   0  0  0  0  0  0  0  0  0  0  0  0
    0.1160   11.6280   -1.4090 C   0  0  0  0  0  0  0  0  0  0  0  0
    1.6180   11.9380   -1.3480 C   0  0  1  0  0  0  0  0  0  0  0  0
    2.4240   10.6160   -1.4390 C   0  0  0  0  0  0  0  0  0  0  0  0
    1.9960    9.5960   -0.3890 C   0  0  0  0  0  0  0  0  0  0  0  0
    0.5110    9.2690   -0.5190 C   0  0  2  0  0  0  0  0  0  0  0  0
    0.2960    8.5850   -1.7570 O   0  0  0  0  0  0  0  0  0  0  0  0
   -0.4010   10.5260   -0.4510 C   0  0  0  0  0  0  0  0  0  0  0  0
   -0.3990   11.0940    0.9890 C   0  0  0  0  0  0  0  0  0  0  0  0
   -1.8590   10.0740   -0.7370 C   0  0  0  0  0  0  0  0  0  0  0  0
    2.1390   13.0430   -2.3650 C   0  0  1  0  0  0  0  0  0  0  0  0
    2.4910   12.3820   -3.7330 C   0  0  0  0  0  0  0  0  0  0  0  0
    3.4780   13.6590   -1.8120 C   0  0  0  0  0  0  0  0  0  0  0  0
    3.3470   14.8580   -0.8530 C   0  0  0  0  0  0  0  0  0  0  0  0
    2.4060   15.9210   -1.4290 C   0  0  2  0  0  0  0  0  0  0  0  0
    3.0440   16.4550   -2.7560 C   0  0  0  0  0  0  0  0  0  0  0  0
    5.0677   17.3884    0.2222 H   0  0  0  0  0  0  0  0  0  0  0  0
    4.4119   16.6935   -1.2989 H   0  0  0  0  0  0  0  0  0  0  0  0
    5.1247   18.3423   -1.2989 H   0  0  0  0  0  0  0  0  0  0  0  0
    2.9745   19.0149   -1.1203 H   0  0  0  0  0  0  0  0  0  0  0  0
    2.8945   19.9100    0.9095 H   0  0  0  0  0  0  0  0  0  0  0  0
    2.3424   18.3007    1.5794 H   0  0  0  0  0  0  0  0  0  0  0  0
    4.6788   17.6232    1.8696 H   0  0  0  0  0  0  0  0  0  0  0  0
    5.2091   19.2473    1.2626 H   0  0  0  0  0  0  0  0  0  0  0  0
    3.2126   19.1921    3.1417 H   0  0  0  0  0  0  0  0  0  0  0  0
    6.9106   17.7782    5.0284 H   0  0  0  0  0  0  0  0  0  0  0  0
    6.1844   17.1995    3.4908 H   0  0  0  0  0  0  0  0  0  0  0  0
    7.2585   18.6392    3.4908 H   0  0  0  0  0  0  0  0  0  0  0  0
    5.6752   18.8210    6.3819 H   0  0  0  0  0  0  0  0  0  0  0  0
    4.6561   20.2165    5.8915 H   0  0  0  0  0  0  0  0  0  0  0  0
    3.9674   18.5575    5.8915 H   0  0  0  0  0  0  0  0  0  0  0  0
    2.0261   16.8150    0.5291 H   0  0  0  0  0  0  0  0  0  0  0  0
    0.0704   17.9529   -0.3151 H   0  0  0  0  0  0  0  0  0  0  0  0
    0.9501   18.5822   -1.7248 H   0  0  0  0  0  0  0  0  0  0  0  0
   -0.9001   16.4052   -1.7578 H   0  0  0  0  0  0  0  0  0  0  0  0
    0.2288   16.7618   -3.0624 H   0  0  0  0  0  0  0  0  0  0  0  0
    0.8780   15.2101    0.5901 H   0  0  0  0  0  0  0  0  0  0  0  0
   -0.7205   15.1160   -0.2239 H   0  0  0  0  0  0  0  0  0  0  0  0
    0.3727   13.6906   -0.2239 H   0  0  0  0  0  0  0  0  0  0  0  0
    1.3766   14.6891   -3.5629 H   0  0  0  0  0  0  0  0  0  0  0  0
   -1.0846   14.2847   -2.9183 H   0  0  0  0  0  0  0  0  0  0  0  0
   -0.2002   13.1458   -4.0627 H   0  0  0  0  0  0  0  0  0  0  0  0
   -1.7541   12.0139   -2.2613 H   0  0  0  0  0  0  0  0  0  0  0  0
    1.7915   12.4132   -0.3713 H   0  0  0  0  0  0  0  0  0  0  0  0
    2.2729   10.1790   -2.4371 H   0  0  0  0  0  0  0  0  0  0  0  0
    3.4819   10.8571   -1.2582 H   0  0  0  0  0  0  0  0  0  0  0  0
    2.5807    8.6740   -0.5236 H   0  0  0  0  0  0  0  0  0  0  0  0
    2.1752   10.0232    0.6087 H   0  0  0  0  0  0  0  0  0  0  0  0
    0.2365    8.6355    0.3373 H   0  0  0  0  0  0  0  0  0  0  0  0
   -0.6610    8.5770   -1.9270 H   0  0  0  0  0  0  0  0  0  0  0  0
   -0.4019   10.2638    1.7106 H   0  0  0  0  0  0  0  0  0  0  0  0
    0.5013   11.7078    1.1398 H   0  0  0  0  0  0  0  0  0  0  0  0
   -1.2950   11.7141    1.1398 H   0  0  0  0  0  0  0  0  0  0  0  0
   -2.3857    9.9107    0.2148 H   0  0  0  0  0  0  0  0  0  0  0  0
   -2.3780   10.8534   -1.3142 H   0  0  0  0  0  0  0  0  0  0  0  0
   -1.8461    9.1377   -1.3142 H   0  0  0  0  0  0  0  0  0  0  0  0
    3.0013   11.4236   -3.5566 H   0  0  0  0  0  0  0  0  0  0  0  0
    1.5672   12.2059   -4.3036 H   0  0  0  0  0  0  0  0  0  0  0  0
    3.1527   13.0502   -4.3036 H   0  0  0  0  0  0  0  0  0  0  0  0
    4.0149   12.8619   -1.2769 H   0  0  0  0  0  0  0  0  0  0  0  0
    4.0003   14.0533   -2.6962 H   0  0  0  0  0  0  0  0  0  0  0  0
    2.9468   14.5068    0.1096 H   0  0  0  0  0  0  0  0  0  0  0  0
    4.3416   15.3075   -0.7157 H   0  0  0  0  0  0  0  0  0  0  0  0
    3.8672   17.1440   -2.5158 H   0  0  0  0  0  0  0  0  0  0  0  0
    3.4329   15.6093   -3.3421 H   0  0  0  0  0  0  0  0  0  0  0  0
    2.2800   16.9868   -3.3421 H   0  0  0  0  0  0  0  0  0  0  0  0
  1  2  1  0
  2  3  1  0
  3  4  1  0
  4  5  1  0
  5  6  1  0
  6  7  1  0
  7  8  1  0
  7  9  1  0
  2 10  1  0
 10 11  1  0
 11 12  1  0
 12 13  1  0
 13 14  1  1
 13 15  1  0
 15 16  1  0
 16 17  1  0
 17 18  2  0
 18 19  1  0
 19 20  1  0
 20 21  1  0
 21 22  1  0
 22 23  1  0
 22 24  1  0
 24 25  1  0
 24 26  1  0
 19 27  1  0
 27 28  1  6
 27 29  1  0
 29 30  1  0
 30 31  1  0
 31 32  1  6
  7  5  1  0
 31 10  1  0
 31 13  1  0
 27 15  1  0
 24 18  1  0
  1 33  1  0
  1 34  1  0
  1 35  1  0
  2 36  1  6
  3 37  1  0
  3 38  1  0
  4 39  1  0
  4 40  1  0
  5 41  1  1
  8 42  1  0
  8 43  1  0
  8 44  1  0
  9 45  1  0
  9 46  1  0
  9 47  1  0
 10 48  1  1
 11 49  1  0
 11 50  1  0
 12 51  1  0
 12 52  1  0
 14 53  1  0
 14 54  1  0
 14 55  1  0
 15 56  1  6
 16 57  1  0
 16 58  1  0
 17 59  1  0
 19 60  1  1
 20 61  1  0
 20 62  1  0
 21 63  1  0
 21 64  1  0
 22 65  1  1
 23 66  1  0
 25 67  1  0
 25 68  1  0
 25 69  1  0
 26 70  1  0
 26 71  1  0
 26 72  1  0
 28 73  1  0
 28 74  1  0
 28 75  1  0
 29 76  1  0
 29 77  1  0
 30 78  1  0
 30 79  1  0
 32 80  1  0
 32 81  1  0
 32 82  1  0
M  END
>  <meeko>  (2) 
{"is_sidechain": [false], "intermolecular_energy": 2.731, "internal_energy": -0.839}

$$$$
EPH_relaxed_0001_pdb2pqr_Repair_177_r2_0001_out
     RDKit          3D

 82 86  0  0  0  0  0  0  0  0999 V2000
    2.2500   18.6510   -1.5390 C   0  0  0  0  0  0  0  0  0  0  0  0
    2.0470   17.5800   -0.4640 C   0  0  2  0  0  0  0  0  0  0  0  0
    3.3840   17.0740    0.1120 C   0  0  0  0  0  0  0  0  0  0  0  0
    4.3370   18.1960    0.5340 C   0  0  0  0  0  0  0  0  0  0  0  0
    3.9740   18.7570    1.8750 C   0  0  2  0  0  0  0  0  0  0  0  0
    4.3680   20.1200    2.0810 O   0  0  0  0  0  0  0  0  0  0  0  0
    4.9990   19.1430    2.9250 C   0  0  0  0  0  0  0  0  0  0  0  0
    6.4660   18.9830    2.6800 C   0  0  0  0  0  0  0  0  0  0  0  0
    4.5650   19.2140    4.3560 C   0  0  0  0  0  0  0  0  0  0  0  0
    1.2510   16.4130   -1.0370 C   0  0  1  0  0  0  0  0  0  0  0  0
    0.6400   16.7320   -2.4270 C   0  0  0  0  0  0  0  0  0  0  0  0
    0.6740   15.4150   -3.2440 C   0  0  0  0  0  0  0  0  0  0  0  0
    0.9900   14.3170   -2.2010 C   0  0  1  0  0  0  0  0  0  0  0  0
   -0.3790   14.0060   -1.5190 C   0  0  0  0  0  0  0  0  0  0  0  0
    1.6710   13.0200   -2.7480 C   0  0  2  0  0  0  0  0  0  0  0  0
    0.8340   12.2220   -3.7620 C   0  0  0  0  0  0  0  0  0  0  0  0
   -0.0500   11.1720   -3.1730 C   0  0  0  0  0  0  0  0  0  0  0  0
    0.0390   10.6880   -1.9200 C   0  0  0  0  0  0  0  0  0  0  0  0
    1.1700   11.1290   -0.9830 C   0  0  1  0  0  0  0  0  0  0  0  0
    1.7870    9.8840   -0.2940 C   0  0  0  0  0  0  0  0  0  0  0  0
    0.7420    9.0300    0.4160 C   0  0  0  0  0  0  0  0  0  0  0  0
   -0.3340    8.5620   -0.5600 C   0  0  2  0  0  0  0  0  0  0  0  0
    0.2570    7.6570   -1.4980 O   0  0  0  0  0  0  0  0  0  0  0  0
   -1.0210    9.7300   -1.3220 C   0  0  0  0  0  0  0  0  0  0  0  0
   -1.9090   10.5380   -0.3440 C   0  0  0  0  0  0  0  0  0  0  0  0
   -1.9820    9.1140   -2.3730 C   0  0  0  0  0  0  0  0  0  0  0  0
    2.2700   12.0800   -1.6250 C   0  0  1  0  0  0  0  0  0  0  0  0
    3.3810   11.2240   -2.3060 C   0  0  0  0  0  0  0  0  0  0  0  0
    2.9780   12.8940   -0.4780 C   0  0  0  0  0  0  0  0  0  0  0  0
    2.3230   14.2260   -0.0650 C   0  0  0  0  0  0  0  0  0  0  0  0
    2.0150   15.0890   -1.2920 C   0  0  2  0  0  0  0  0  0  0  0  0
    3.3750   15.4370   -1.9860 C   0  0  0  0  0  0  0  0  0  0  0  0
    2.4342   19.6230   -1.0580 H   0  0  0  0  0  0  0  0  0  0  0  0
    3.1132   18.3825   -2.1657 H   0  0  0  0  0  0  0  0  0  0  0  0
    1.3484   18.7170   -2.1657 H   0  0  0  0  0  0  0  0  0  0  0  0
    1.4866   18.0424    0.3619 H   0  0  0  0  0  0  0  0  0  0  0  0
    3.1690   16.4514    0.9930 H   0  0  0  0  0  0  0  0  0  0  0  0
    3.8858   16.5103   -0.6883 H   0  0  0  0  0  0  0  0  0  0  0  0
    5.3605   17.7956    0.5804 H   0  0  0  0  0  0  0  0  0  0  0  0
    4.2632   19.0053   -0.2074 H   0  0  0  0  0  0  0  0  0  0  0  0
    3.0721   18.1288    1.9199 H   0  0  0  0  0  0  0  0  0  0  0  0
    6.9944   18.9254    3.6430 H   0  0  0  0  0  0  0  0  0  0  0  0
    6.6438   18.0601    2.1084 H   0  0  0  0  0  0  0  0  0  0  0  0
    6.8385   19.8458    2.1084 H   0  0  0  0  0  0  0  0  0  0  0  0
    5.4370   19.0713    5.0111 H   0  0  0  0  0  0  0  0  0  0  0  0
    4.1145   20.1978    4.5542 H   0  0  0  0  0  0  0  0  0  0  0  0
    3.8245   18.4251    4.5542 H   0  0  0  0  0  0  0  0  0  0  0  0
    0.5175   16.2751   -0.2289 H   0  0  0  0  0  0  0  0  0  0  0  0
   -0.3971   17.0808   -2.3138 H   0  0  0  0  0  0  0  0  0  0  0  0
    1.2071   17.5262   -2.9346 H   0  0  0  0  0  0  0  0  0  0  0  0
   -0.2995   15.2288   -3.7212 H   0  0  0  0  0  0  0  0  0  0  0  0
    1.4165   15.4462   -4.0550 H   0  0  0  0  0  0  0  0  0  0  0  0
   -0.2587   14.0333   -0.4259 H   0  0  0  0  0  0  0  0  0  0  0  0
   -1.1205   14.7586   -1.8252 H   0  0  0  0  0  0  0  0  0  0  0  0
   -0.7226   13.0069   -1.8252 H   0  0  0  0  0  0  0  0  0  0  0  0
    2.5233   13.4219   -3.3155 H   0  0  0  0  0  0  0  0  0  0  0  0
    0.1988   12.9319   -4.3120 H   0  0  0  0  0  0  0  0  0  0  0  0
    1.5549   11.6902   -4.4004 H   0  0  0  0  0  0  0  0  0  0  0  0
   -0.8403   10.7595   -3.8174 H   0  0  0  0  0  0  0  0  0  0  0  0
    0.7041   11.7797   -0.2283 H   0  0  0  0  0  0  0  0  0  0  0  0
    2.2851    9.2689   -1.0579 H   0  0  0  0  0  0  0  0  0  0  0  0
    2.4981   10.2410    0.4655 H   0  0  0  0  0  0  0  0  0  0  0  0
    1.2347    8.1511    0.8573 H   0  0  0  0  0  0  0  0  0  0  0  0
    0.2654    9.6374    1.1995 H   0  0  0  0  0  0  0  0  0  0  0  0
   -1.1204    8.0670    0.0287 H   0  0  0  0  0  0  0  0  0  0  0  0
   -0.4570    7.3070   -2.0580 H   0  0  0  0  0  0  0  0  0  0  0  0
   -1.6348   10.2885    0.6916 H   0  0  0  0  0  0  0  0  0  0  0  0
   -1.7570   11.6140   -0.5145 H   0  0  0  0  0  0  0  0  0  0  0  0
   -2.9660   10.2854   -0.5145 H   0  0  0  0  0  0  0  0  0  0  0  0
   -2.8005    8.5893   -1.8584 H   0  0  0  0  0  0  0  0  0  0  0  0
   -2.3981    9.9141   -3.0028 H   0  0  0  0  0  0  0  0  0  0  0  0
   -1.4287    8.4018   -3.0028 H   0  0  0  0  0  0  0  0  0  0  0  0
    4.0011   10.7462   -1.5332 H   0  0  0  0  0  0  0  0  0  0  0  0
    2.9147   10.4495   -2.9326 H   0  0  0  0  0  0  0  0  0  0  0  0
    4.0110   11.8724   -2.9326 H   0  0  0  0  0  0  0  0  0  0  0  0
    3.0139   12.2504    0.4134 H   0  0  0  0  0  0  0  0  0  0  0  0
    3.9610   13.1712   -0.8865 H   0  0  0  0  0  0  0  0  0  0  0  0
    1.3859   14.0152    0.4711 H   0  0  0  0  0  0  0  0  0  0  0  0
    3.0223   14.7746    0.5831 H   0  0  0  0  0  0  0  0  0  0  0  0
    4.1387   15.6324   -1.2188 H   0  0  0  0  0  0  0  0  0  0  0  0
    3.6935   14.5914   -2.6133 H   0  0  0  0  0  0  0  0  0  0  0  0
    3.2482   16.3316   -2.6133 H   0  0  0  0  0  0  0  0  0  0  0  0
  1  2  1  0
  2  3  1  0
  3  4  1  0
  4  5  1  0
  5  6  1  0
  6  7  1  0
  7  8  1  0
  7  9  1  0
  2 10  1  0
 10 11  1  0
 11 12  1  0
 12 13  1  0
 13 14  1  1
 13 15  1  0
 15 16  1  0
 16 17  1  0
 17 18  2  0
 18 19  1  0
 19 20  1  0
 20 21  1  0
 21 22  1  0
 22 23  1  0
 22 24  1  0
 24 25  1  0
 24 26  1  0
 19 27  1  0
 27 28  1  6
 27 29  1  0
 29 30  1  0
 30 31  1  0
 31 32  1  6
  7  5  1  0
 31 10  1  0
 31 13  1  0
 27 15  1  0
 24 18  1  0
  1 33  1  0
  1 34  1  0
  1 35  1  0
  2 36  1  1
  3 37  1  0
  3 38  1  0
  4 39  1  0
  4 40  1  0
  5 41  1  1
  8 42  1  0
  8 43  1  0
  8 44  1  0
  9 45  1  0
  9 46  1  0
  9 47  1  0
 10 48  1  1
 11 49  1  0
 11 50  1  0
 12 51  1  0
 12 52  1  0
 14 53  1  0
 14 54  1  0
 14 55  1  0
 15 56  1  6
 16 57  1  0
 16 58  1  0
 17 59  1  0
 19 60  1  1
 20 61  1  0
 20 62  1  0
 21 63  1  0
 21 64  1  0
 22 65  1  1
 23 66  1  0
 25 67  1  0
 25 68  1  0
 25 69  1  0
 26 70  1  0
 26 71  1  0
 26 72  1  0
 28 73  1  0
 28 74  1  0
 28 75  1  0
 29 76  1  0
 29 77  1  0
 30 78  1  0
 30 79  1  0
 32 80  1  0
 32 81  1  0
 32 82  1  0
M  END
>  <meeko>  (3) 
{"is_sidechain": [false], "intermolecular_energy": 2.731, "internal_energy": -0.839}

$$$$
EPH_relaxed_0001_pdb2pqr_Repair_177_r2_0001_out
     RDKit          3D

 82 86  0  0  0  0  0  0  0  0999 V2000
   -1.5950    8.6790   -1.8900 C   0  0  0  0  0  0  0  0  0  0  0  0
   -2.0050    9.1670   -0.4970 C   0  0  2  0  0  0  0  0  0  0  0  0
   -3.5060    9.5090   -0.4200 C   0  0  0  0  0  0  0  0  0  0  0  0
   -4.4130    8.2790   -0.3200 C   0  0  0  0  0  0  0  0  0  0  0  0
   -5.1020    7.9910   -1.6190 C   0  0  2  0  0  0  0  0  0  0  0  0
   -6.3310    8.7020   -1.8150 O   0  0  0  0  0  0  0  0  0  0  0  0
   -6.4340    7.2730   -1.7180 C   0  0  0  0  0  0  0  0  0  0  0  0
   -7.1570    6.7960   -0.4970 C   0  0  0  0  0  0  0  0  0  0  0  0
   -6.7930    6.6050   -3.0090 C   0  0  0  0  0  0  0  0  0  0  0  0
   -1.1730   10.3840   -0.1080 C   0  0  1  0  0  0  0  0  0  0  0  0
   -0.1810   10.0850    1.0480 C   0  0  0  0  0  0  0  0  0  0  0  0
    1.0910   10.9280    0.7760 C   0  0  0  0  0  0  0  0  0  0  0  0
    0.6680   11.9250   -0.3290 C   0  0  1  0  0  0  0  0  0  0  0  0
   -0.0800   13.0680    0.4270 C   0  0  0  0  0  0  0  0  0  0  0  0
    1.8170   12.4860   -1.2300 C   0  0  2  0  0  0  0  0  0  0  0  0
    2.8840   13.3110   -0.4890 C   0  0  0  0  0  0  0  0  0  0  0  0
    2.6130   14.7770   -0.4080 C   0  0  0  0  0  0  0  0  0  0  0  0
    1.7100   15.4480   -1.1480 C   0  0  0  0  0  0  0  0  0  0  0  0
    0.9140   14.7400   -2.2520 C   0  0  1  0  0  0  0  0  0  0  0  0
    0.9260   15.6090   -3.5370 C   0  0  0  0  0  0  0  0  0  0  0  0
    0.4370   17.0320   -3.2850 C   0  0  0  0  0  0  0  0  0  0  0  0
    1.2890   17.7220   -2.2230 C   0  0  2  0  0  0  0  0  0  0  0  0
    2.6090   17.9090   -2.7420 O   0  0  0  0  0  0  0  0  0  0  0  0
    1.3590   16.9330   -0.8860 C   0  0  0  0  0  0  0  0  0  0  0  0
   -0.0150   16.9900   -0.1750 C   0  0  0  0  0  0  0  0  0  0  0  0
    2.3610   17.6640    0.0480 C   0  0  0  0  0  0  0  0  0  0  0  0
    1.3140   13.2280   -2.5340 C   0  0  1  0  0  0  0  0  0  0  0  0
    2.4870   13.1700   -3.5590 C   0  0  0  0  0  0  0  0  0  0  0  0
    0.0970   12.4920   -3.2100 C   0  0  0  0  0  0  0  0  0  0  0  0
   -0.9410   11.8560   -2.2660 C   0  0  0  0  0  0  0  0  0  0  0  0
   -0.2580   10.9980   -1.1970 C   0  0  2  0  0  0  0  0  0  0  0  0
    0.4850    9.8270   -1.9260 C   0  0  0  0  0  0  0  0  0  0  0  0
   -0.8902    7.8401   -1.7919 H   0  0  0  0  0  0  0  0  0  0  0  0
   -2.4878    8.3455   -2.4392 H   0  0  0  0  0  0  0  0  0  0  0  0
   -1.1125    9.5010   -2.4392 H   0  0  0  0  0  0  0  0  0  0  0  0
   -1.8172    8.3458    0.2103 H   0  0  0  0  0  0  0  0  0  0  0  0
   -3.6740   10.1375    0.4670 H   0  0  0  0  0  0  0  0  0  0  0  0
   -3.7666   10.0255   -1.3556 H   0  0  0  0  0  0  0  0  0  0  0  0
   -3.8026    7.4079   -0.0395 H   0  0  0  0  0  0  0  0  0  0  0  0
   -5.1831    8.4818    0.4389 H   0  0  0  0  0  0  0  0  0  0  0  0
   -4.1372    7.8286   -2.1218 H   0  0  0  0  0  0  0  0  0  0  0  0
   -6.6280    7.1450    0.4021 H   0  0  0  0  0  0  0  0  0  0  0  0
   -8.1817    7.1959   -0.4980 H   0  0  0  0  0  0  0  0  0  0  0  0
   -7.1925    5.6966   -0.4980 H   0  0  0  0  0  0  0  0  0  0  0  0
   -7.3042    5.6537   -2.7999 H   0  0  0  0  0  0  0  0  0  0  0  0
   -7.4604    7.2604   -3.5878 H   0  0  0  0  0  0  0  0  0  0  0  0
   -5.8781    6.4101   -3.5878 H   0  0  0  0  0  0  0  0  0  0  0  0
   -1.9811   11.0864    0.1441 H   0  0  0  0  0  0  0  0  0  0  0  0
   -0.6260   10.3713    2.0124 H   0  0  0  0  0  0  0  0  0  0  0  0
    0.0589    9.0125    1.0947 H   0  0  0  0  0  0  0  0  0  0  0  0
    1.4033   11.4642    1.6843 H   0  0  0  0  0  0  0  0  0  0  0  0
    1.9467   10.3069    0.4728 H   0  0  0  0  0  0  0  0  0  0  0  0
    0.0193   12.9162    1.5119 H   0  0  0  0  0  0  0  0  0  0  0  0
    0.3584   14.0384    0.1509 H   0  0  0  0  0  0  0  0  0  0  0  0
   -1.1447   13.0547    0.1509 H   0  0  0  0  0  0  0  0  0  0  0  0
    2.3264   11.5690   -1.5612 H   0  0  0  0  0  0  0  0  0  0  0  0
    2.9622   12.9225    0.5371 H   0  0  0  0  0  0  0  0  0  0  0  0
    3.8107   13.2043   -1.0719 H   0  0  0  0  0  0  0  0  0  0  0  0
    3.2008   15.3582    0.3177 H   0  0  0  0  0  0  0  0  0  0  0  0
   -0.1147   14.6471   -1.8737 H   0  0  0  0  0  0  0  0  0  0  0  0
    1.9549   15.6529   -3.9235 H   0  0  0  0  0  0  0  0  0  0  0  0
    0.2412   15.1438   -4.2613 H   0  0  0  0  0  0  0  0  0  0  0  0
    0.4970   17.6045   -4.2224 H   0  0  0  0  0  0  0  0  0  0  0  0
   -0.6021   16.9877   -2.9269 H   0  0  0  0  0  0  0  0  0  0  0  0
    0.8126   18.6863   -1.9925 H   0  0  0  0  0  0  0  0  0  0  0  0
    3.2240   17.4310   -2.1600 H   0  0  0  0  0  0  0  0  0  0  0  0
    0.1355   16.9838    0.9146 H   0  0  0  0  0  0  0  0  0  0  0  0
   -0.5412   17.9107   -0.4672 H   0  0  0  0  0  0  0  0  0  0  0  0
   -0.6156   16.1160   -0.4672 H   0  0  0  0  0  0  0  0  0  0  0  0
    2.0936   17.4689    1.0970 H   0  0  0  0  0  0  0  0  0  0  0  0
    3.3790   17.2949   -0.1457 H   0  0  0  0  0  0  0  0  0  0  0  0
    2.3203   18.7461   -0.1457 H   0  0  0  0  0  0  0  0  0  0  0  0
    3.4440   13.1227   -3.0187 H   0  0  0  0  0  0  0  0  0  0  0  0
    2.3780   12.2761   -4.1908 H   0  0  0  0  0  0  0  0  0  0  0  0
    2.4667   14.0702   -4.1908 H   0  0  0  0  0  0  0  0  0  0  0  0
   -0.4295   13.2265   -3.8372 H   0  0  0  0  0  0  0  0  0  0  0  0
    0.5400   11.6491   -3.7607 H   0  0  0  0  0  0  0  0  0  0  0  0
   -1.5158   12.6541   -1.7734 H   0  0  0  0  0  0  0  0  0  0  0  0
   -1.6063   11.2119   -2.8598 H   0  0  0  0  0  0  0  0  0  0  0  0
    0.9174    9.1455   -1.1786 H   0  0  0  0  0  0  0  0  0  0  0  0
   -0.2287    9.2755   -2.5556 H   0  0  0  0  0  0  0  0  0  0  0  0
    1.2880   10.2379   -2.5556 H   0  0  0  0  0  0  0  0  0  0  0  0
  1  2  1  0
  2  3  1  0
  3  4  1  0
  4  5  1  0
  5  6  1  0
  6  7  1  0
  7  8  1  0
  7  9  1  0
  2 10  1  0
 10 11  1  0
 11 12  1  0
 12 13  1  0
 13 14  1  1
 13 15  1  0
 15 16  1  0
 16 17  1  0
 17 18  2  0
 18 19  1  0
 19 20  1  0
 20 21  1  0
 21 22  1  0
 22 23  1  0
 22 24  1  0
 24 25  1  0
 24 26  1  0
 19 27  1  0
 27 28  1  6
 27 29  1  0
 29 30  1  0
 30 31  1  0
 31 32  1  6
  7  5  1  0
 31 10  1  0
 31 13  1  0
 27 15  1  0
 24 18  1  0
  1 33  1  0
  1 34  1  0
  1 35  1  0
  2 36  1  1
  3 37  1  0
  3 38  1  0
  4 39  1  0
  4 40  1  0
  5 41  1  6
  8 42  1  0
  8 43  1  0
  8 44  1  0
  9 45  1  0
  9 46  1  0
  9 47  1  0
 10 48  1  1
 11 49  1  0
 11 50  1  0
 12 51  1  0
 12 52  1  0
 14 53  1  0
 14 54  1  0
 14 55  1  0
 15 56  1  6
 16 57  1  0
 16 58  1  0
 17 59  1  0
 19 60  1  1
 20 61  1  0
 20 62  1  0
 21 63  1  0
 21 64  1  0
 22 65  1  1
 23 66  1  0
 25 67  1  0
 25 68  1  0
 25 69  1  0
 26 70  1  0
 26 71  1  0
 26 72  1  0
 28 73  1  0
 28 74  1  0
 28 75  1  0
 29 76  1  0
 29 77  1  0
 30 78  1  0
 30 79  1  0
 32 80  1  0
 32 81  1  0
 32 82  1  0
M  END
>  <meeko>  (4) 
{"is_sidechain": [false], "intermolecular_energy": 2.731, "internal_energy": -0.839}

$$$$
EPH_relaxed_0001_pdb2pqr_Repair_177_r2_0001_out
     RDKit          3D

 82 86  0  0  0  0  0  0  0  0999 V2000
    3.6250   17.7150   -0.8800 C   0  0  0  0  0  0  0  0  0  0  0  0
    3.3330   17.2950   -2.3240 C   0  0  2  0  0  0  0  0  0  0  0  0
    2.0510   17.9530   -2.8720 C   0  0  0  0  0  0  0  0  0  0  0  0
    1.4630   19.0210   -1.9460 C   0  0  0  0  0  0  0  0  0  0  0  0
    0.1120   18.6260   -1.4310 C   0  0  2  0  0  0  0  0  0  0  0  0
   -0.7640   19.7240   -1.1440 O   0  0  0  0  0  0  0  0  0  0  0  0
   -0.3650   18.9220   -0.0210 C   0  0  0  0  0  0  0  0  0  0  0  0
    0.5050   19.6410    0.9620 C   0  0  0  0  0  0  0  0  0  0  0  0
   -1.4710   18.0900    0.5490 C   0  0  0  0  0  0  0  0  0  0  0  0
    3.2190   15.7780   -2.4110 C   0  0  1  0  0  0  0  0  0  0  0  0
    4.6010   15.0780   -2.4940 C   0  0  0  0  0  0  0  0  0  0  0  0
    4.4730   13.7400   -1.7220 C   0  0  0  0  0  0  0  0  0  0  0  0
    2.9520   13.5580   -1.5070 C   0  0  1  0  0  0  0  0  0  0  0  0
    2.4240   12.9760   -2.8560 C   0  0  0  0  0  0  0  0  0  0  0  0
    2.5270   12.6730   -0.2910 C   0  0  2  0  0  0  0  0  0  0  0  0
    2.9860   11.2060   -0.3590 C   0  0  0  0  0  0  0  0  0  0  0  0
    2.0280   10.2680   -1.0160 C   0  0  0  0  0  0  0  0  0  0  0  0
    0.7330   10.5270   -1.2760 C   0  0  0  0  0  0  0  0  0  0  0  0
    0.0830   11.8370   -0.8100 C   0  0  1  0  0  0  0  0  0  0  0  0
   -1.2860   11.5290   -0.1500 C   0  0  0  0  0  0  0  0  0  0  0  0
   -2.2030   10.7130   -1.0570 C   0  0  0  0  0  0  0  0  0  0  0  0
   -1.5450    9.3930   -1.4510 C   0  0  2  0  0  0  0  0  0  0  0  0
   -1.4150    8.5760   -0.2840 O   0  0  0  0  0  0  0  0  0  0  0  0
   -0.1530    9.5770   -2.1180 C   0  0  0  0  0  0  0  0  0  0  0  0
   -0.3290   10.1960   -3.5260 C   0  0  0  0  0  0  0  0  0  0  0  0
    0.4620    8.1680   -2.3370 C   0  0  0  0  0  0  0  0  0  0  0  0
    0.9940   12.7820    0.0860 C   0  0  1  0  0  0  0  0  0  0  0  0
    0.8730   12.3720    1.5850 C   0  0  0  0  0  0  0  0  0  0  0  0
    0.4570   14.2590   -0.0150 C   0  0  0  0  0  0  0  0  0  0  0  0
    1.0050   15.1210   -1.1680 C   0  0  0  0  0  0  0  0  0  0  0  0
    2.5330   15.0470   -1.2280 C   0  0  2  0  0  0  0  0  0  0  0  0
    3.0940   15.6470    0.1060 C   0  0  0  0  0  0  0  0  0  0  0  0
    3.1369   17.0129   -0.1881 H   0  0  0  0  0  0  0  0  0  0  0  0
    4.7113   17.7042   -0.7075 H   0  0  0  0  0  0  0  0  0  0  0  0
    3.2365   18.7295   -0.7075 H   0  0  0  0  0  0  0  0  0  0  0  0
    4.1723   17.6404   -2.9455 H   0  0  0  0  0  0  0  0  0  0  0  0
    2.2876   18.4230   -3.8380 H   0  0  0  0  0  0  0  0  0  0  0  0
    1.2965   17.1580   -2.9655 H   0  0  0  0  0  0  0  0  0  0  0  0
    2.1416   19.1654   -1.0924 H   0  0  0  0  0  0  0  0  0  0  0  0
    1.3514   19.9510   -2.5228 H   0  0  0  0  0  0  0  0  0  0  0  0
    0.1301   17.7003   -2.0250 H   0  0  0  0  0  0  0  0  0  0  0  0
    0.1931   19.3832    1.9849 H   0  0  0  0  0  0  0  0  0  0  0  0
    1.5528   19.3418    0.8118 H   0  0  0  0  0  0  0  0  0  0  0  0
    0.4085   20.7264    0.8118 H   0  0  0  0  0  0  0  0  0  0  0  0
   -1.4263   18.1236    1.6476 H   0  0  0  0  0  0  0  0  0  0  0  0
   -2.4397   18.4852    0.2092 H   0  0  0  0  0  0  0  0  0  0  0  0
   -1.3598   17.0497    0.2092 H   0  0  0  0  0  0  0  0  0  0  0  0
    2.6007   15.6918   -3.3167 H   0  0  0  0  0  0  0  0  0  0  0  0
    4.8653   14.8853   -3.5442 H   0  0  0  0  0  0  0  0  0  0  0  0
    5.3899   15.7099   -2.0601 H   0  0  0  0  0  0  0  0  0  0  0  0
    4.8837   12.9090   -2.3143 H   0  0  0  0  0  0  0  0  0  0  0  0
    5.0302   13.7504   -0.7736 H   0  0  0  0  0  0  0  0  0  0  0  0
    1.6979   12.1756   -2.6508 H   0  0  0  0  0  0  0  0  0  0  0  0
    1.9359   13.7746   -3.4338 H   0  0  0  0  0  0  0  0  0  0  0  0
    3.2662   12.5677   -3.4338 H   0  0  0  0  0  0  0  0  0  0  0  0
    3.0924   13.1246    0.5375 H   0  0  0  0  0  0  0  0  0  0  0  0
    3.9328   11.1716   -0.9179 H   0  0  0  0  0  0  0  0  0  0  0  0
    3.0774   10.8670    0.6835 H   0  0  0  0  0  0  0  0  0  0  0  0
    2.4133    9.2814   -1.3128 H   0  0  0  0  0  0  0  0  0  0  0  0
   -0.0675   12.4417   -1.7165 H   0  0  0  0  0  0  0  0  0  0  0  0
   -1.1112   10.9622    0.7764 H   0  0  0  0  0  0  0  0  0  0  0  0
   -1.7834   12.4894    0.0505 H   0  0  0  0  0  0  0  0  0  0  0  0
   -3.1421   10.5024   -0.5242 H   0  0  0  0  0  0  0  0  0  0  0  0
   -2.4013   11.2933   -1.9702 H   0  0  0  0  0  0  0  0  0  0  0  0
   -2.1911    8.9138   -2.2012 H   0  0  0  0  0  0  0  0  0  0  0  0
   -1.7570    7.6920   -0.5030 H   0  0  0  0  0  0  0  0  0  0  0  0
   -0.6287   11.2499   -3.4284 H   0  0  0  0  0  0  0  0  0  0  0  0
    0.6222   10.1346   -4.0750 H   0  0  0  0  0  0  0  0  0  0  0  0
   -1.1056    9.6433   -4.0750 H   0  0  0  0  0  0  0  0  0  0  0  0
    0.6657    7.7013   -1.3620 H   0  0  0  0  0  0  0  0  0  0  0  0
   -0.2452    7.5430   -2.9021 H   0  0  0  0  0  0  0  0  0  0  0  0
    1.4011    8.2616   -2.9021 H   0  0  0  0  0  0  0  0  0  0  0  0
    1.1268   13.2321    2.2220 H   0  0  0  0  0  0  0  0  0  0  0  0
   -0.1580   12.0515    1.7954 H   0  0  0  0  0  0  0  0  0  0  0  0
    1.5648   11.5431    1.7954 H   0  0  0  0  0  0  0  0  0  0  0  0
   -0.6360   14.2085   -0.1279 H   0  0  0  0  0  0  0  0  0  0  0  0
    0.8037   14.7543    0.9040 H   0  0  0  0  0  0  0  0  0  0  0  0
    0.5893   14.7566   -2.1190 H   0  0  0  0  0  0  0  0  0  0  0  0
    0.7106   16.1667   -0.9952 H   0  0  0  0  0  0  0  0  0  0  0  0
    2.6222   15.1424    0.9620 H   0  0  0  0  0  0  0  0  0  0  0  0
    4.1829   15.4966    0.1463 H   0  0  0  0  0  0  0  0  0  0  0  0
    2.8708   16.7234    0.1463 H   0  0  0  0  0  0  0  0  0  0  0  0
  1  2  1  0
  2  3  1  0
  3  4  1  0
  4  5  1  0
  5  6  1  0
  6  7  1  0
  7  8  1  0
  7  9  1  0
  2 10  1  0
 10 11  1  0
 11 12  1  0
 12 13  1  0
 13 14  1  6
 13 15  1  0
 15 16  1  0
 16 17  1  0
 17 18  2  0
 18 19  1  0
 19 20  1  0
 20 21  1  0
 21 22  1  0
 22 23  1  0
 22 24  1  0
 24 25  1  0
 24 26  1  0
 19 27  1  0
 27 28  1  1
 27 29  1  0
 29 30  1  0
 30 31  1  0
 31 32  1  1
  7  5  1  0
 31 10  1  0
 31 13  1  0
 27 15  1  0
 24 18  1  0
  1 33  1  0
  1 34  1  0
  1 35  1  0
  2 36  1  6
  3 37  1  0
  3 38  1  0
  4 39  1  0
  4 40  1  0
  5 41  1  6
  8 42  1  0
  8 43  1  0
  8 44  1  0
  9 45  1  0
  9 46  1  0
  9 47  1  0
 10 48  1  6
 11 49  1  0
 11 50  1  0
 12 51  1  0
 12 52  1  0
 14 53  1  0
 14 54  1  0
 14 55  1  0
 15 56  1  1
 16 57  1  0
 16 58  1  0
 17 59  1  0
 19 60  1  6
 20 61  1  0
 20 62  1  0
 21 63  1  0
 21 64  1  0
 22 65  1  6
 23 66  1  0
 25 67  1  0
 25 68  1  0
 25 69  1  0
 26 70  1  0
 26 71  1  0
 26 72  1  0
 28 73  1  0
 28 74  1  0
 28 75  1  0
 29 76  1  0
 29 77  1  0
 30 78  1  0
 30 79  1  0
 32 80  1  0
 32 81  1  0
 32 82  1  0
M  END
>  <meeko>  (5) 
{"is_sidechain": [false], "intermolecular_energy": 2.731, "internal_energy": -0.839}

$$$$
EPH_relaxed_0001_pdb2pqr_Repair_177_r2_0001_out
     RDKit          3D

 82 86  0  0  0  0  0  0  0  0999 V2000
   -0.8590    7.9130   -0.7180 C   0  0  0  0  0  0  0  0  0  0  0  0
   -1.2650    9.2310   -0.0520 C   0  0  2  0  0  0  0  0  0  0  0  0
   -2.5350    9.8340   -0.6840 C   0  0  0  0  0  0  0  0  0  0  0  0
   -3.8360    9.2880   -0.0910 C   0  0  0  0  0  0  0  0  0  0  0  0
   -4.1360    7.9070   -0.5920 C   0  0  2  0  0  0  0  0  0  0  0  0
   -4.2160    7.7910   -2.0180 O   0  0  0  0  0  0  0  0  0  0  0  0
   -5.4290    7.5330   -1.2930 C   0  0  0  0  0  0  0  0  0  0  0  0
   -6.5070    8.5430   -1.5310 C   0  0  0  0  0  0  0  0  0  0  0  0
   -5.8460    6.0960   -1.3060 C   0  0  0  0  0  0  0  0  0  0  0  0
   -0.1160   10.2300   -0.1360 C   0  0  1  0  0  0  0  0  0  0  0  0
    1.2750    9.5520   -0.0210 C   0  0  0  0  0  0  0  0  0  0  0  0
    2.2380   10.3480   -0.9380 C   0  0  0  0  0  0  0  0  0  0  0  0
    1.4640   11.6410   -1.2870 C   0  0  1  0  0  0  0  0  0  0  0  0
    1.6660   12.5750   -0.0530 C   0  0  0  0  0  0  0  0  0  0  0  0
    1.8700   12.3500   -2.6200 C   0  0  2  0  0  0  0  0  0  0  0  0
    3.3200   12.8600   -2.6730 C   0  0  0  0  0  0  0  0  0  0  0  0
    3.5230   14.2600   -2.1950 C   0  0  0  0  0  0  0  0  0  0  0  0
    2.5500   15.1710   -2.0090 C   0  0  0  0  0  0  0  0  0  0  0  0
    1.0950   14.8570   -2.3820 C   0  0  1  0  0  0  0  0  0  0  0  0
    0.4950   16.0480   -3.1750 C   0  0  0  0  0  0  0  0  0  0  0  0
    0.6340   17.3740   -2.4330 C   0  0  0  0  0  0  0  0  0  0  0  0
    2.0990   17.6790   -2.1310 C   0  0  2  0  0  0  0  0  0  0  0  0
    2.7850   17.9120   -3.3650 O   0  0  0  0  0  0  0  0  0  0  0  0
    2.8120   16.5440   -1.3440 C   0  0  0  0  0  0  0  0  0  0  0  0
    2.2660   16.4950    0.1050 C   0  0  0  0  0  0  0  0  0  0  0  0
    4.3150   16.9140   -1.2290 C   0  0  0  0  0  0  0  0  0  0  0  0
    0.8490   13.4610   -3.1000 C   0  0  1  0  0  0  0  0  0  0  0  0
    1.0460   13.6120   -4.6390 C   0  0  0  0  0  0  0  0  0  0  0  0
   -0.6500   13.0290   -2.8850 C   0  0  0  0  0  0  0  0  0  0  0  0
   -0.9650   12.2270   -1.6080 C   0  0  0  0  0  0  0  0  0  0  0  0
    0.0110   11.0590   -1.4380 C   0  0  2  0  0  0  0  0  0  0  0  0
   -0.1850   10.0910   -2.6540 C   0  0  0  0  0  0  0  0  0  0  0  0
   -0.6290    7.1664    0.0564 H   0  0  0  0  0  0  0  0  0  0  0  0
   -1.6865    7.5485   -1.3444 H   0  0  0  0  0  0  0  0  0  0  0  0
    0.0302    8.0774   -1.3444 H   0  0  0  0  0  0  0  0  0  0  0  0
   -1.4930    9.0135    1.0019 H   0  0  0  0  0  0  0  0  0  0  0  0
   -2.5146   10.9233   -0.5326 H   0  0  0  0  0  0  0  0  0  0  0  0
   -2.5263    9.5580   -1.7488 H   0  0  0  0  0  0  0  0  0  0  0  0
   -3.7434    9.2576    1.0047 H   0  0  0  0  0  0  0  0  0  0  0  0
   -4.6582    9.9509   -0.3984 H   0  0  0  0  0  0  0  0  0  0  0  0
   -3.6006    7.4579    0.2575 H   0  0  0  0  0  0  0  0  0  0  0  0
   -6.8915    8.9033   -0.5654 H   0  0  0  0  0  0  0  0  0  0  0  0
   -6.0969    9.3895   -2.1013 H   0  0  0  0  0  0  0  0  0  0  0  0
   -7.3251    8.0787   -2.1013 H   0  0  0  0  0  0  0  0  0  0  0  0
   -5.9507    5.7352   -0.2721 H   0  0  0  0  0  0  0  0  0  0  0  0
   -6.8095    5.9985   -1.8277 H   0  0  0  0  0  0  0  0  0  0  0  0
   -5.0844    5.4979   -1.8277 H   0  0  0  0  0  0  0  0  0  0  0  0
   -0.3818   10.8878    0.7046 H   0  0  0  0  0  0  0  0  0  0  0  0
    1.6283    9.5866    1.0201 H   0  0  0  0  0  0  0  0  0  0  0  0
    1.2254    8.4954   -0.3230 H   0  0  0  0  0  0  0  0  0  0  0  0
    3.1719   10.5856   -0.4075 H   0  0  0  0  0  0  0  0  0  0  0  0
    2.5262    9.7793   -1.8344 H   0  0  0  0  0  0  0  0  0  0  0  0
    1.5401   11.9930    0.8719 H   0  0  0  0  0  0  0  0  0  0  0  0
    2.6780   13.0053   -0.0806 H   0  0  0  0  0  0  0  0  0  0  0  0
    0.9223   13.3850   -0.0806 H   0  0  0  0  0  0  0  0  0  0  0  0
    1.8157   11.5286   -3.3496 H   0  0  0  0  0  0  0  0  0  0  0  0
    3.9367   12.1956   -2.0499 H   0  0  0  0  0  0  0  0  0  0  0  0
    3.6041   12.8577   -3.7357 H   0  0  0  0  0  0  0  0  0  0  0  0
    4.5546   14.5731   -1.9765 H   0  0  0  0  0  0  0  0  0  0  0  0
    0.5574   14.7331   -1.4303 H   0  0  0  0  0  0  0  0  0  0  0  0
    1.0167   16.1276   -4.1402 H   0  0  0  0  0  0  0  0  0  0  0  0
   -0.5789   15.8520   -3.3103 H   0  0  0  0  0  0  0  0  0  0  0  0
    0.2194   18.1803   -3.0559 H   0  0  0  0  0  0  0  0  0  0  0  0
    0.0867   17.3030   -1.4815 H   0  0  0  0  0  0  0  0  0  0  0  0
    2.1240   18.5706   -1.4873 H   0  0  0  0  0  0  0  0  0  0  0  0
    3.0060   18.8580   -3.4050 H   0  0  0  0  0  0  0  0  0  0  0  0
    3.1029   16.5701    0.8149 H   0  0  0  0  0  0  0  0  0  0  0  0
    1.5734   17.3346    0.2645 H   0  0  0  0  0  0  0  0  0  0  0  0
    1.7340   15.5455    0.2645 H   0  0  0  0  0  0  0  0  0  0  0  0
    4.5954   16.9830   -0.1676 H   0  0  0  0  0  0  0  0  0  0  0  0
    4.9221   16.1385   -1.7190 H   0  0  0  0  0  0  0  0  0  0  0  0
    4.4927   17.8827   -1.7190 H   0  0  0  0  0  0  0  0  0  0  0  0
    1.9049   14.2704   -4.8359 H   0  0  0  0  0  0  0  0  0  0  0  0
    1.2324   12.6233   -5.0836 H   0  0  0  0  0  0  0  0  0  0  0  0
    0.1396   14.0489   -5.0836 H   0  0  0  0  0  0  0  0  0  0  0  0
   -1.2601   13.9440   -2.8624 H   0  0  0  0  0  0  0  0  0  0  0  0
   -0.8750   12.3456   -3.7171 H   0  0  0  0  0  0  0  0  0  0  0  0
   -0.8844   12.8928   -0.7361 H   0  0  0  0  0  0  0  0  0  0  0  0
   -1.9844   11.8223   -1.6912 H   0  0  0  0  0  0  0  0  0  0  0  0
   -0.3906    9.0754   -2.2848 H   0  0  0  0  0  0  0  0  0  0  0  0
   -1.0313   10.4372   -3.2655 H   0  0  0  0  0  0  0  0  0  0  0  0
    0.7293   10.0807   -3.2655 H   0  0  0  0  0  0  0  0  0  0  0  0
  1  2  1  0
  2  3  1  0
  3  4  1  0
  4  5  1  0
  5  6  1  0
  6  7  1  0
  7  8  1  0
  7  9  1  0
  2 10  1  0
 10 11  1  0
 11 12  1  0
 12 13  1  0
 13 14  1  1
 13 15  1  0
 15 16  1  0
 16 17  1  0
 17 18  2  0
 18 19  1  0
 19 20  1  0
 20 21  1  0
 21 22  1  0
 22 23  1  0
 22 24  1  0
 24 25  1  0
 24 26  1  0
 19 27  1  0
 27 28  1  6
 27 29  1  0
 29 30  1  0
 30 31  1  0
 31 32  1  6
  7  5  1  0
 31 10  1  0
 31 13  1  0
 27 15  1  0
 24 18  1  0
  1 33  1  0
  1 34  1  0
  1 35  1  0
  2 36  1  1
  3 37  1  0
  3 38  1  0
  4 39  1  0
  4 40  1  0
  5 41  1  1
  8 42  1  0
  8 43  1  0
  8 44  1  0
  9 45  1  0
  9 46  1  0
  9 47  1  0
 10 48  1  1
 11 49  1  0
 11 50  1  0
 12 51  1  0
 12 52  1  0
 14 53  1  0
 14 54  1  0
 14 55  1  0
 15 56  1  6
 16 57  1  0
 16 58  1  0
 17 59  1  0
 19 60  1  1
 20 61  1  0
 20 62  1  0
 21 63  1  0
 21 64  1  0
 22 65  1  1
 23 66  1  0
 25 67  1  0
 25 68  1  0
 25 69  1  0
 26 70  1  0
 26 71  1  0
 26 72  1  0
 28 73  1  0
 28 74  1  0
 28 75  1  0
 29 76  1  0
 29 77  1  0
 30 78  1  0
 30 79  1  0
 32 80  1  0
 32 81  1  0
 32 82  1  0
M  END
>  <meeko>  (6) 
{"is_sidechain": [false], "intermolecular_energy": 2.731, "internal_energy": -0.839}

$$$$
EPH_relaxed_0001_pdb2pqr_Repair_177_r2_0001_out
     RDKit          3D

 82 86  0  0  0  0  0  0  0  0999 V2000
    3.1950    9.9800   -3.7070 C   0  0  0  0  0  0  0  0  0  0  0  0
    2.8900   11.1190   -4.6850 C   0  0  2  0  0  0  0  0  0  0  0  0
    4.1720   11.8280   -5.1680 C   0  0  0  0  0  0  0  0  0  0  0  0
    5.4620   11.1030   -4.7740 C   0  0  0  0  0  0  0  0  0  0  0  0
    5.7580   11.2540   -3.3130 C   0  0  2  0  0  0  0  0  0  0  0  0
    6.7330   12.2570   -3.0000 O   0  0  0  0  0  0  0  0  0  0  0  0
    7.0970   10.9020   -2.6910 C   0  0  0  0  0  0  0  0  0  0  0  0
    8.2260   10.3720   -3.5170 C   0  0  0  0  0  0  0  0  0  0  0  0
    7.1490   10.6130   -1.2230 C   0  0  0  0  0  0  0  0  0  0  0  0
    1.9520   12.1270   -4.0320 C   0  0  1  0  0  0  0  0  0  0  0  0
    0.5650   11.5190   -3.6910 C   0  0  0  0  0  0  0  0  0  0  0  0
    0.0940   12.1900   -2.3760 C   0  0  0  0  0  0  0  0  0  0  0  0
    1.0530   13.3880   -2.1840 C   0  0  1  0  0  0  0  0  0  0  0  0
    0.4850   14.5100   -3.1080 C   0  0  0  0  0  0  0  0  0  0  0  0
    1.2440   13.8910   -0.7160 C   0  0  2  0  0  0  0  0  0  0  0  0
   -0.0280   14.4310   -0.0400 C   0  0  0  0  0  0  0  0  0  0  0  0
   -0.2700   15.8940   -0.2120 C   0  0  0  0  0  0  0  0  0  0  0  0
    0.6380   16.7920   -0.6350 C   0  0  0  0  0  0  0  0  0  0  0  0
    2.0920   16.3790   -0.8980 C   0  0  1  0  0  0  0  0  0  0  0  0
    3.0490   17.4120   -0.2470 C   0  0  0  0  0  0  0  0  0  0  0  0
    2.7590   18.8410   -0.6940 C   0  0  0  0  0  0  0  0  0  0  0  0
    1.3220   19.2350   -0.3630 C   0  0  2  0  0  0  0  0  0  0  0  0
    1.1750   19.2930    1.0590 O   0  0  0  0  0  0  0  0  0  0  0  0
    0.2670   18.2610   -0.9590 C   0  0  0  0  0  0  0  0  0  0  0  0
    0.2200   18.4230   -2.4980 C   0  0  0  0  0  0  0  0  0  0  0  0
   -1.1290   18.6910   -0.4340 C   0  0  0  0  0  0  0  0  0  0  0  0
    2.4650   14.8800   -0.5230 C   0  0  1  0  0  0  0  0  0  0  0  0
    2.8760   14.7940    0.9780 C   0  0  0  0  0  0  0  0  0  0  0  0
    3.7270   14.4420   -1.3550 C   0  0  0  0  0  0  0  0  0  0  0  0
    3.4660   13.8410   -2.7500 C   0  0  0  0  0  0  0  0  0  0  0  0
    2.3980   12.7450   -2.6840 C   0  0  2  0  0  0  0  0  0  0  0  0
    2.9510   11.5930   -1.7780 C   0  0  0  0  0  0  0  0  0  0  0  0
    3.0967   10.3469   -2.6747 H   0  0  0  0  0  0  0  0  0  0  0  0
    2.4861    9.1553   -3.8720 H   0  0  0  0  0  0  0  0  0  0  0  0
    4.2212    9.6199   -3.8720 H   0  0  0  0  0  0  0  0  0  0  0  0
    2.4045   10.6769   -5.5675 H   0  0  0  0  0  0  0  0  0  0  0  0
    4.1360   11.9014   -6.2650 H   0  0  0  0  0  0  0  0  0  0  0  0
    4.1964   12.8145   -4.6820 H   0  0  0  0  0  0  0  0  0  0  0  0
    5.3554   10.0334   -5.0075 H   0  0  0  0  0  0  0  0  0  0  0  0
    6.2929   11.5490   -5.3403 H   0  0  0  0  0  0  0  0  0  0  0  0
    4.7264   10.9766   -3.0508 H   0  0  0  0  0  0  0  0  0  0  0  0
    9.0211    9.9987   -2.8548 H   0  0  0  0  0  0  0  0  0  0  0  0
    7.8619    9.5507   -4.1518 H   0  0  0  0  0  0  0  0  0  0  0  0
    8.6252   11.1768   -4.1518 H   0  0  0  0  0  0  0  0  0  0  0  0
    6.9816   11.5431   -0.6600 H   0  0  0  0  0  0  0  0  0  0  0  0
    6.3678    9.8827   -0.9652 H   0  0  0  0  0  0  0  0  0  0  0  0
    8.1357   10.2008   -0.9652 H   0  0  0  0  0  0  0  0  0  0  0  0
    1.9401   12.9002   -4.8143 H   0  0  0  0  0  0  0  0  0  0  0  0
   -0.1498   11.7286   -4.5004 H   0  0  0  0  0  0  0  0  0  0  0  0
    0.6299   10.4269   -3.5760 H   0  0  0  0  0  0  0  0  0  0  0  0
   -0.9461   12.5360   -2.4675 H   0  0  0  0  0  0  0  0  0  0  0  0
    0.1168   11.4965   -1.5224 H   0  0  0  0  0  0  0  0  0  0  0  0
    0.0742   15.3215   -2.4893 H   0  0  0  0  0  0  0  0  0  0  0  0
    1.2915   14.9054   -3.7430 H   0  0  0  0  0  0  0  0  0  0  0  0
   -0.3111   14.0940   -3.7430 H   0  0  0  0  0  0  0  0  0  0  0  0
    1.4960   12.9637   -0.1807 H   0  0  0  0  0  0  0  0  0  0  0  0
   -0.8905   13.8923   -0.4593 H   0  0  0  0  0  0  0  0  0  0  0  0
    0.1097   14.2704    1.0395 H   0  0  0  0  0  0  0  0  0  0  0  0
   -1.2758   16.2695    0.0274 H   0  0  0  0  0  0  0  0  0  0  0  0
    2.2191   16.3895   -1.9906 H   0  0  0  0  0  0  0  0  0  0  0  0
    2.9384   17.3552    0.8460 H   0  0  0  0  0  0  0  0  0  0  0  0
    4.0729   17.1644   -0.5639 H   0  0  0  0  0  0  0  0  0  0  0  0
    3.4480   19.5263   -0.1786 H   0  0  0  0  0  0  0  0  0  0  0  0
    2.8981   18.9032   -1.7834 H   0  0  0  0  0  0  0  0  0  0  0  0
    1.1356   20.2175   -0.8212 H   0  0  0  0  0  0  0  0  0  0  0  0
    1.3580   18.4050    1.4100 H   0  0  0  0  0  0  0  0  0  0  0  0
   -0.0784   19.4515   -2.7495 H   0  0  0  0  0  0  0  0  0  0  0  0
    1.2151   18.2166   -2.9190 H   0  0  0  0  0  0  0  0  0  0  0  0
   -0.5101   17.7161   -2.9190 H   0  0  0  0  0  0  0  0  0  0  0  0
   -1.1235   18.6893    0.6660 H   0  0  0  0  0  0  0  0  0  0  0  0
   -1.3620   19.7026   -0.7980 H   0  0  0  0  0  0  0  0  0  0  0  0
   -1.8908   17.9859   -0.7980 H   0  0  0  0  0  0  0  0  0  0  0  0
    1.9951   14.9783    1.6105 H   0  0  0  0  0  0  0  0  0  0  0  0
    3.2775   13.7924    1.1914 H   0  0  0  0  0  0  0  0  0  0  0  0
    3.6454   15.5506    1.1914 H   0  0  0  0  0  0  0  0  0  0  0  0
    4.3618   15.3303   -1.4889 H   0  0  0  0  0  0  0  0  0  0  0  0
    4.1871   13.6296   -0.7734 H   0  0  0  0  0  0  0  0  0  0  0  0
    3.1227   14.6376   -3.4265 H   0  0  0  0  0  0  0  0  0  0  0  0
    4.4015   13.3971   -3.1211 H   0  0  0  0  0  0  0  0  0  0  0  0
    2.8209   11.8641   -0.7199 H   0  0  0  0  0  0  0  0  0  0  0  0
    2.4005   10.6643   -1.9889 H   0  0  0  0  0  0  0  0  0  0  0  0
    4.0199   11.4416   -1.9889 H   0  0  0  0  0  0  0  0  0  0  0  0
  1  2  1  0
  2  3  1  0
  3  4  1  0
  4  5  1  0
  5  6  1  0
  6  7  1  0
  7  8  1  0
  7  9  1  0
  2 10  1  0
 10 11  1  0
 11 12  1  0
 12 13  1  0
 13 14  1  6
 13 15  1  0
 15 16  1  0
 16 17  1  0
 17 18  2  0
 18 19  1  0
 19 20  1  0
 20 21  1  0
 21 22  1  0
 22 23  1  0
 22 24  1  0
 24 25  1  0
 24 26  1  0
 19 27  1  0
 27 28  1  1
 27 29  1  0
 29 30  1  0
 30 31  1  0
 31 32  1  1
  7  5  1  0
 31 10  1  0
 31 13  1  0
 27 15  1  0
 24 18  1  0
  1 33  1  0
  1 34  1  0
  1 35  1  0
  2 36  1  6
  3 37  1  0
  3 38  1  0
  4 39  1  0
  4 40  1  0
  5 41  1  1
  8 42  1  0
  8 43  1  0
  8 44  1  0
  9 45  1  0
  9 46  1  0
  9 47  1  0
 10 48  1  6
 11 49  1  0
 11 50  1  0
 12 51  1  0
 12 52  1  0
 14 53  1  0
 14 54  1  0
 14 55  1  0
 15 56  1  1
 16 57  1  0
 16 58  1  0
 17 59  1  0
 19 60  1  6
 20 61  1  0
 20 62  1  0
 21 63  1  0
 21 64  1  0
 22 65  1  6
 23 66  1  0
 25 67  1  0
 25 68  1  0
 25 69  1  0
 26 70  1  0
 26 71  1  0
 26 72  1  0
 28 73  1  0
 28 74  1  0
 28 75  1  0
 29 76  1  0
 29 77  1  0
 30 78  1  0
 30 79  1  0
 32 80  1  0
 32 81  1  0
 32 82  1  0
M  END
>  <meeko>  (7) 
{"is_sidechain": [false], "intermolecular_energy": 2.731, "internal_energy": -0.839}

$$$$
EPH_relaxed_0001_pdb2pqr_Repair_177_r2_0001_out
     RDKit          3D

 82 86  0  0  0  0  0  0  0  0999 V2000
   -1.4610    7.3490   -3.0890 C   0  0  0  0  0  0  0  0  0  0  0  0
   -2.3080    7.7940   -1.8930 C   0  0  2  0  0  0  0  0  0  0  0  0
   -3.8150    7.8010   -2.2190 C   0  0  0  0  0  0  0  0  0  0  0  0
   -4.3090    6.5090   -2.8740 C   0  0  0  0  0  0  0  0  0  0  0  0
   -5.6780    6.6740   -3.4610 C   0  0  2  0  0  0  0  0  0  0  0  0
   -6.4370    7.7610   -2.9170 O   0  0  0  0  0  0  0  0  0  0  0  0
   -6.9580    6.4440   -2.6790 C   0  0  0  0  0  0  0  0  0  0  0  0
   -6.9300    6.0280   -1.2420 C   0  0  0  0  0  0  0  0  0  0  0  0
   -8.2150    6.1480   -3.4360 C   0  0  0  0  0  0  0  0  0  0  0  0
   -1.8680    9.1780   -1.4310 C   0  0  1  0  0  0  0  0  0  0  0  0
   -2.5530    9.6120   -0.1080 C   0  0  0  0  0  0  0  0  0  0  0  0
   -1.5120   10.4470    0.6820 C   0  0  0  0  0  0  0  0  0  0  0  0
   -0.3920   10.7450   -0.3430 C   0  0  1  0  0  0  0  0  0  0  0  0
   -0.9210   11.9570   -1.1740 C   0  0  0  0  0  0  0  0  0  0  0  0
    1.0280   11.0250    0.2470 C   0  0  2  0  0  0  0  0  0  0  0  0
    1.1260   12.2670    1.1500 C   0  0  0  0  0  0  0  0  0  0  0  0
    1.4740   13.5390    0.4490 C   0  0  0  0  0  0  0  0  0  0  0  0
    1.9760   13.6340   -0.7960 C   0  0  0  0  0  0  0  0  0  0  0  0
    2.3360   12.3770   -1.5980 C   0  0  1  0  0  0  0  0  0  0  0  0
    3.7350   12.5560   -2.2420 C   0  0  0  0  0  0  0  0  0  0  0  0
    3.8370   13.8290   -3.0760 C   0  0  0  0  0  0  0  0  0  0  0  0
    3.5290   15.0620   -2.2300 C   0  0  2  0  0  0  0  0  0  0  0  0
    4.5620   15.2190   -1.2520 O   0  0  0  0  0  0  0  0  0  0  0  0
    2.1470   14.9900   -1.5230 C   0  0  0  0  0  0  0  0  0  0  0  0
    1.0170   15.1240   -2.5740 C   0  0  0  0  0  0  0  0  0  0  0  0
    2.0220   16.2270   -0.5920 C   0  0  0  0  0  0  0  0  0  0  0  0
    2.1920   10.9960   -0.8240 C   0  0  1  0  0  0  0  0  0  0  0  0
    3.5060   10.6840   -0.0450 C   0  0  0  0  0  0  0  0  0  0  0  0
    2.0120    9.8350   -1.8720 C   0  0  0  0  0  0  0  0  0  0  0  0
    0.5720    9.5270   -2.3270 C   0  0  0  0  0  0  0  0  0  0  0  0
   -0.3630    9.3800   -1.1230 C   0  0  2  0  0  0  0  0  0  0  0  0
    0.1310    8.1550   -0.2800 C   0  0  0  0  0  0  0  0  0  0  0  0
   -0.5413    6.8658   -2.7275 H   0  0  0  0  0  0  0  0  0  0  0  0
   -2.0344    6.6357   -3.6993 H   0  0  0  0  0  0  0  0  0  0  0  0
   -1.1990    8.2259   -3.6993 H   0  0  0  0  0  0  0  0  0  0  0  0
   -2.1490    7.0646   -1.0851 H   0  0  0  0  0  0  0  0  0  0  0  0
   -4.3722    7.9505   -1.2824 H   0  0  0  0  0  0  0  0  0  0  0  0
   -3.9836    8.6127   -2.9420 H   0  0  0  0  0  0  0  0  0  0  0  0
   -3.6098    6.2250   -3.6742 H   0  0  0  0  0  0  0  0  0  0  0  0
   -4.3594    5.7293   -2.0997 H   0  0  0  0  0  0  0  0  0  0  0  0
   -5.3302    6.2981   -4.4345 H   0  0  0  0  0  0  0  0  0  0  0  0
   -6.9900    6.9198   -0.6009 H   0  0  0  0  0  0  0  0  0  0  0  0
   -7.7858    5.3689   -1.0343 H   0  0  0  0  0  0  0  0  0  0  0  0
   -5.9936    5.4895   -1.0343 H   0  0  0  0  0  0  0  0  0  0  0  0
   -9.0334    5.9553   -2.7267 H   0  0  0  0  0  0  0  0  0  0  0  0
   -8.4735    7.0098   -4.0688 H   0  0  0  0  0  0  0  0  0  0  0  0
   -8.0618    5.2614   -4.0688 H   0  0  0  0  0  0  0  0  0  0  0  0
   -2.1531    9.7667   -2.3154 H   0  0  0  0  0  0  0  0  0  0  0  0
   -3.4424   10.2220   -0.3244 H   0  0  0  0  0  0  0  0  0  0  0  0
   -2.8802    8.7370    0.4728 H   0  0  0  0  0  0  0  0  0  0  0  0
   -1.9615   11.3816    1.0488 H   0  0  0  0  0  0  0  0  0  0  0  0
   -1.1358    9.9146    1.5680 H   0  0  0  0  0  0  0  0  0  0  0  0
   -1.2659   12.7473   -0.4910 H   0  0  0  0  0  0  0  0  0  0  0  0
   -0.1117   12.3480   -1.8081 H   0  0  0  0  0  0  0  0  0  0  0  0
   -1.7580   11.6294   -1.8081 H   0  0  0  0  0  0  0  0  0  0  0  0
    1.1826   10.1608    0.9098 H   0  0  0  0  0  0  0  0  0  0  0  0
    0.1529   12.4061    1.6436 H   0  0  0  0  0  0  0  0  0  0  0  0
    1.9509   12.0699    1.8505 H   0  0  0  0  0  0  0  0  0  0  0  0
    1.3057   14.4779    0.9968 H   0  0  0  0  0  0  0  0  0  0  0  0
    1.5722   12.2894   -2.3848 H   0  0  0  0  0  0  0  0  0  0  0  0
    4.4887   12.5974   -1.4419 H   0  0  0  0  0  0  0  0  0  0  0  0
    3.9045   11.7021   -2.9144 H   0  0  0  0  0  0  0  0  0  0  0  0
    4.8570   13.9146   -3.4789 H   0  0  0  0  0  0  0  0  0  0  0  0
    3.1037   13.7724   -3.8939 H   0  0  0  0  0  0  0  0  0  0  0  0
    3.4892   15.9267   -2.9087 H   0  0  0  0  0  0  0  0  0  0  0  0
    4.1550   15.1150   -0.3750 H   0  0  0  0  0  0  0  0  0  0  0  0
    0.0508   15.2386   -2.0609 H   0  0  0  0  0  0  0  0  0  0  0  0
    1.2047   16.0062   -3.2037 H   0  0  0  0  0  0  0  0  0  0  0  0
    0.9931   14.2224   -3.2037 H   0  0  0  0  0  0  0  0  0  0  0  0
    2.0550   15.9005    0.4579 H   0  0  0  0  0  0  0  0  0  0  0  0
    2.8548   16.9186   -0.7873 H   0  0  0  0  0  0  0  0  0  0  0  0
    1.0676   16.7380   -0.7873 H   0  0  0  0  0  0  0  0  0  0  0  0
    3.3109   10.7303    1.0366 H   0  0  0  0  0  0  0  0  0  0  0  0
    3.8596    9.6769   -0.3110 H   0  0  0  0  0  0  0  0  0  0  0  0
    4.2746   11.4246   -0.3110 H   0  0  0  0  0  0  0  0  0  0  0  0
    2.5940   10.1010   -2.7667 H   0  0  0  0  0  0  0  0  0  0  0  0
    2.3515    8.9253   -1.3551 H   0  0  0  0  0  0  0  0  0  0  0  0
    0.2123   10.3485   -2.9639 H   0  0  0  0  0  0  0  0  0  0  0  0
    0.5756    8.5798   -2.8863 H   0  0  0  0  0  0  0  0  0  0  0  0
    0.0379    8.3858    0.7915 H   0  0  0  0  0  0  0  0  0  0  0  0
   -0.4820    7.2737   -0.5198 H   0  0  0  0  0  0  0  0  0  0  0  0
    1.1839    7.9455   -0.5198 H   0  0  0  0  0  0  0  0  0  0  0  0
  1  2  1  0
  2  3  1  0
  3  4  1  0
  4  5  1  0
  5  6  1  0
  6  7  1  0
  7  8  1  0
  7  9  1  0
  2 10  1  0
 10 11  1  0
 11 12  1  0
 12 13  1  0
 13 14  1  6
 13 15  1  0
 15 16  1  0
 16 17  1  0
 17 18  2  0
 18 19  1  0
 19 20  1  0
 20 21  1  0
 21 22  1  0
 22 23  1  0
 22 24  1  0
 24 25  1  0
 24 26  1  0
 19 27  1  0
 27 28  1  1
 27 29  1  0
 29 30  1  0
 30 31  1  0
 31 32  1  1
  7  5  1  0
 31 10  1  0
 31 13  1  0
 27 15  1  0
 24 18  1  0
  1 33  1  0
  1 34  1  0
  1 35  1  0
  2 36  1  1
  3 37  1  0
  3 38  1  0
  4 39  1  0
  4 40  1  0
  5 41  1  6
  8 42  1  0
  8 43  1  0
  8 44  1  0
  9 45  1  0
  9 46  1  0
  9 47  1  0
 10 48  1  6
 11 49  1  0
 11 50  1  0
 12 51  1  0
 12 52  1  0
 14 53  1  0
 14 54  1  0
 14 55  1  0
 15 56  1  1
 16 57  1  0
 16 58  1  0
 17 59  1  0
 19 60  1  6
 20 61  1  0
 20 62  1  0
 21 63  1  0
 21 64  1  0
 22 65  1  6
 23 66  1  0
 25 67  1  0
 25 68  1  0
 25 69  1  0
 26 70  1  0
 26 71  1  0
 26 72  1  0
 28 73  1  0
 28 74  1  0
 28 75  1  0
 29 76  1  0
 29 77  1  0
 30 78  1  0
 30 79  1  0
 32 80  1  0
 32 81  1  0
 32 82  1  0
M  END
>  <meeko>  (8) 
{"is_sidechain": [false], "intermolecular_energy": 2.731, "internal_energy": -0.839}

$$$$
EPH_relaxed_0001_pdb2pqr_Repair_177_r2_0001_out
     RDKit          3D

 82 86  0  0  0  0  0  0  0  0999 V2000
    4.4910   17.5610   -2.5170 C   0  0  0  0  0  0  0  0  0  0  0  0
    3.1200   17.0860   -2.0280 C   0  0  2  0  0  0  0  0  0  0  0  0
    2.8670   17.4650   -0.5550 C   0  0  0  0  0  0  0  0  0  0  0  0
    3.9530   18.3600    0.0470 C   0  0  0  0  0  0  0  0  0  0  0  0
    3.6010   18.8050    1.4340 C   0  0  2  0  0  0  0  0  0  0  0  0
    3.9390   20.1660    1.7310 O   0  0  0  0  0  0  0  0  0  0  0  0
    4.6340   19.1600    2.4860 C   0  0  0  0  0  0  0  0  0  0  0  0
    6.1010   19.0870    2.1960 C   0  0  0  0  0  0  0  0  0  0  0  0
    4.2350   19.1060    3.9280 C   0  0  0  0  0  0  0  0  0  0  0  0
    2.9980   15.5780   -2.2060 C   0  0  1  0  0  0  0  0  0  0  0  0
    4.3700   14.8920   -2.4460 C   0  0  0  0  0  0  0  0  0  0  0  0
    4.3030   13.5050   -1.7570 C   0  0  0  0  0  0  0  0  0  0  0  0
    2.8040   13.3010   -1.4340 C   0  0  1  0  0  0  0  0  0  0  0  0
    2.1690   12.8070   -2.7720 C   0  0  0  0  0  0  0  0  0  0  0  0
    2.4770   12.3350   -0.2490 C   0  0  2  0  0  0  0  0  0  0  0  0
    2.9280   10.8780   -0.4510 C   0  0  0  0  0  0  0  0  0  0  0  0
    1.9200    9.9820   -1.0910 C   0  0  0  0  0  0  0  0  0  0  0  0
    0.6090   10.2510   -1.2290 C   0  0  0  0  0  0  0  0  0  0  0  0
   -0.0010   11.5240   -0.6270 C   0  0  1  0  0  0  0  0  0  0  0  0
   -1.3140   11.1660    0.1190 C   0  0  0  0  0  0  0  0  0  0  0  0
   -2.3000   10.4070   -0.7650 C   0  0  0  0  0  0  0  0  0  0  0  0
   -1.6770    9.1200   -1.2970 C   0  0  2  0  0  0  0  0  0  0  0  0
   -1.4540    8.2280   -0.2010 O   0  0  0  0  0  0  0  0  0  0  0  0
   -0.3420    9.3550   -2.0590 C   0  0  0  0  0  0  0  0  0  0  0  0
   -0.6300   10.0650   -3.4050 C   0  0  0  0  0  0  0  0  0  0  0  0
    0.2520    7.9660   -2.4200 C   0  0  0  0  0  0  0  0  0  0  0  0
    0.9780   12.4120    0.2550 C   0  0  1  0  0  0  0  0  0  0  0  0
    0.9780   11.9020    1.7280 C   0  0  0  0  0  0  0  0  0  0  0  0
    0.4360   13.8890    0.2960 C   0  0  0  0  0  0  0  0  0  0  0  0
    0.8900   14.8280   -0.8380 C   0  0  0  0  0  0  0  0  0  0  0  0
    2.4090   14.7670   -1.0240 C   0  0  2  0  0  0  0  0  0  0  0  0
    3.0750   15.2790    0.2980 C   0  0  0  0  0  0  0  0  0  0  0  0
    5.1323   17.7832   -1.6513 H   0  0  0  0  0  0  0  0  0  0  0  0
    4.9569   16.7719   -3.1255 H   0  0  0  0  0  0  0  0  0  0  0  0
    4.3688   18.4692   -3.1255 H   0  0  0  0  0  0  0  0  0  0  0  0
    2.3572   17.5942   -2.6361 H   0  0  0  0  0  0  0  0  0  0  0  0
    1.9059   17.9965   -0.4936 H   0  0  0  0  0  0  0  0  0  0  0  0
    2.8671   16.5283    0.0218 H   0  0  0  0  0  0  0  0  0  0  0  0
    4.8982   17.7985    0.0822 H   0  0  0  0  0  0  0  0  0  0  0  0
    4.0484   19.2549   -0.5856 H   0  0  0  0  0  0  0  0  0  0  0  0
    2.7294   18.1342    1.4527 H   0  0  0  0  0  0  0  0  0  0  0  0
    6.6609   19.0591    3.1424 H   0  0  0  0  0  0  0  0  0  0  0  0
    6.3153   18.1771    1.6163 H   0  0  0  0  0  0  0  0  0  0  0  0
    6.4046   19.9711    1.6163 H   0  0  0  0  0  0  0  0  0  0  0  0
    5.1271   19.2267    4.5601 H   0  0  0  0  0  0  0  0  0  0  0  0
    3.5219   19.9158    4.1417 H   0  0  0  0  0  0  0  0  0  0  0  0
    3.7628   18.1358    4.1417 H   0  0  0  0  0  0  0  0  0  0  0  0
    2.3084   15.5487   -3.0625 H   0  0  0  0  0  0  0  0  0  0  0  0
    4.5495   14.7710   -3.5245 H   0  0  0  0  0  0  0  0  0  0  0  0
    5.1916   15.4976   -2.0357 H   0  0  0  0  0  0  0  0  0  0  0  0
    4.6649   12.7173   -2.4341 H   0  0  0  0  0  0  0  0  0  0  0  0
    4.9338   13.4556   -0.8572 H   0  0  0  0  0  0  0  0  0  0  0  0
    1.3184   12.1452   -2.5518 H   0  0  0  0  0  0  0  0  0  0  0  0
    1.8191   13.6727   -3.3534 H   0  0  0  0  0  0  0  0  0  0  0  0
    2.9221   12.2550   -3.3534 H   0  0  0  0  0  0  0  0  0  0  0  0
    3.1070   12.7326    0.5603 H   0  0  0  0  0  0  0  0  0  0  0  0
    3.8273   10.8852   -1.0844 H   0  0  0  0  0  0  0  0  0  0  0  0
    3.1019   10.4706    0.5559 H   0  0  0  0  0  0  0  0  0  0  0  0
    2.2799    9.0194   -1.4834 H   0  0  0  0  0  0  0  0  0  0  0  0
   -0.2224   12.1862   -1.4770 H   0  0  0  0  0  0  0  0  0  0  0  0
   -1.0661   10.5402    0.9890 H   0  0  0  0  0  0  0  0  0  0  0  0
   -1.7937   12.1083    0.4223 H   0  0  0  0  0  0  0  0  0  0  0  0
   -3.1939   10.1569   -0.1747 H   0  0  0  0  0  0  0  0  0  0  0  0
   -2.5692   11.0458   -1.6191 H   0  0  0  0  0  0  0  0  0  0  0  0
   -2.3815    8.6885   -2.0233 H   0  0  0  0  0  0  0  0  0  0  0  0
   -0.9960    7.4430   -0.5480 H   0  0  0  0  0  0  0  0  0  0  0  0
   -1.0370   11.0683   -3.2106 H   0  0  0  0  0  0  0  0  0  0  0  0
    0.3035   10.1531   -3.9802 H   0  0  0  0  0  0  0  0  0  0  0  0
   -1.3611    9.4779   -3.9802 H   0  0  0  0  0  0  0  0  0  0  0  0
    0.4870    7.4165   -1.4965 H   0  0  0  0  0  0  0  0  0  0  0  0
   -0.4810    7.3958   -3.0096 H   0  0  0  0  0  0  0  0  0  0  0  0
    1.1706    8.1021   -3.0096 H   0  0  0  0  0  0  0  0  0  0  0  0
    2.0151   11.7820    2.0745 H   0  0  0  0  0  0  0  0  0  0  0  0
    0.4595   12.6307    2.3683 H   0  0  0  0  0  0  0  0  0  0  0  0
    0.4595   10.9333    1.7806 H   0  0  0  0  0  0  0  0  0  0  0  0
   -0.6626   13.8411    0.2684 H   0  0  0  0  0  0  0  0  0  0  0  0
    0.8559   14.3240    1.2149 H   0  0  0  0  0  0  0  0  0  0  0  0
    0.4001   14.5241   -1.7748 H   0  0  0  0  0  0  0  0  0  0  0  0
    0.6097   15.8584   -0.5740 H   0  0  0  0  0  0  0  0  0  0  0  0
    2.5370   14.8654    1.1637 H   0  0  0  0  0  0  0  0  0  0  0  0
    4.1253   14.9536    0.3294 H   0  0  0  0  0  0  0  0  0  0  0  0
    3.0305   16.3777    0.3294 H   0  0  0  0  0  0  0  0  0  0  0  0
  1  2  1  0
  2  3  1  0
  3  4  1  0
  4  5  1  0
  5  6  1  0
  6  7  1  0
  7  8  1  0
  7  9  1  0
  2 10  1  0
 10 11  1  0
 11 12  1  0
 12 13  1  0
 13 14  1  6
 13 15  1  0
 15 16  1  0
 16 17  1  0
 17 18  2  0
 18 19  1  0
 19 20  1  0
 20 21  1  0
 21 22  1  0
 22 23  1  0
 22 24  1  0
 24 25  1  0
 24 26  1  0
 19 27  1  0
 27 28  1  1
 27 29  1  0
 29 30  1  0
 30 31  1  0
 31 32  1  1
  7  5  1  0
 31 10  1  0
 31 13  1  0
 27 15  1  0
 24 18  1  0
  1 33  1  0
  1 34  1  0
  1 35  1  0
  2 36  1  6
  3 37  1  0
  3 38  1  0
  4 39  1  0
  4 40  1  0
  5 41  1  1
  8 42  1  0
  8 43  1  0
  8 44  1  0
  9 45  1  0
  9 46  1  0
  9 47  1  0
 10 48  1  6
 11 49  1  0
 11 50  1  0
 12 51  1  0
 12 52  1  0
 14 53  1  0
 14 54  1  0
 14 55  1  0
 15 56  1  1
 16 57  1  0
 16 58  1  0
 17 59  1  0
 19 60  1  6
 20 61  1  0
 20 62  1  0
 21 63  1  0
 21 64  1  0
 22 65  1  6
 23 66  1  0
 25 67  1  0
 25 68  1  0
 25 69  1  0
 26 70  1  0
 26 71  1  0
 26 72  1  0
 28 73  1  0
 28 74  1  0
 28 75  1  0
 29 76  1  0
 29 77  1  0
 30 78  1  0
 30 79  1  0
 32 80  1  0
 32 81  1  0
 32 82  1  0
M  END
>  <meeko>  (9) 
{"is_sidechain": [false], "intermolecular_energy": 2.731, "internal_energy": -0.839}

$$$$
EPH_relaxed_0001_pdb2pqr_Repair_177_r2_0001_out
     RDKit          3D

 82 86  0  0  0  0  0  0  0  0999 V2000
    0.7650   18.1540   -0.0370 C   0  0  0  0  0  0  0  0  0  0  0  0
    1.7670   17.1130   -0.5440 C   0  0  2  0  0  0  0  0  0  0  0  0
    2.7560   17.7080   -1.5650 C   0  0  0  0  0  0  0  0  0  0  0  0
    4.2250   17.4380   -1.2280 C   0  0  0  0  0  0  0  0  0  0  0  0
    5.1390   17.9040   -2.3210 C   0  0  2  0  0  0  0  0  0  0  0  0
    4.6840   17.6090   -3.6480 O   0  0  0  0  0  0  0  0  0  0  0  0
    5.8980   16.9610   -3.2350 C   0  0  0  0  0  0  0  0  0  0  0  0
    5.7790   15.4750   -3.0980 C   0  0  0  0  0  0  0  0  0  0  0  0
    7.1210   17.4700   -3.9330 C   0  0  0  0  0  0  0  0  0  0  0  0
    1.0240   15.9350   -1.1630 C   0  0  1  0  0  0  0  0  0  0  0  0
    0.5710   16.2140   -2.6210 C   0  0  0  0  0  0  0  0  0  0  0  0
    0.6780   14.8700   -3.3880 C   0  0  0  0  0  0  0  0  0  0  0  0
    0.8640   13.8050   -2.2820 C   0  0  1  0  0  0  0  0  0  0  0  0
   -0.5750   13.5290   -1.7440 C   0  0  0  0  0  0  0  0  0  0  0  0
    1.5840   12.4840   -2.7100 C   0  0  2  0  0  0  0  0  0  0  0  0
    0.8520   11.6600   -3.7840 C   0  0  0  0  0  0  0  0  0  0  0  0
   -0.1040   10.6390   -3.2620 C   0  0  0  0  0  0  0  0  0  0  0  0
   -0.1590   10.1950   -1.9930 C   0  0  0  0  0  0  0  0  0  0  0  0
    0.8700   10.6570   -0.9520 C   0  0  1  0  0  0  0  0  0  0  0  0
    1.3920    9.4290   -0.1600 C   0  0  0  0  0  0  0  0  0  0  0  0
    0.2640    8.6090    0.4580 C   0  0  0  0  0  0  0  0  0  0  0  0
   -0.7050    8.1190   -0.6150 C   0  0  2  0  0  0  0  0  0  0  0  0
   -0.0270    7.1780   -1.4530 O   0  0  0  0  0  0  0  0  0  0  0  0
   -1.2890    9.2670   -1.4830 C   0  0  0  0  0  0  0  0  0  0  0  0
   -2.2680   10.1150   -0.6340 C   0  0  0  0  0  0  0  0  0  0  0  0
   -2.1380    8.6260   -2.6140 C   0  0  0  0  0  0  0  0  0  0  0  0
    2.0450   11.5760   -1.4990 C   0  0  1  0  0  0  0  0  0  0  0  0
    3.2130   10.6880   -2.0280 C   0  0  0  0  0  0  0  0  0  0  0  0
    2.6340   12.4200   -0.3080 C   0  0  0  0  0  0  0  0  0  0  0  0
    1.9550   13.7710   -0.0110 C   0  0  0  0  0  0  0  0  0  0  0  0
    1.7930   14.5960   -1.2910 C   0  0  2  0  0  0  0  0  0  0  0  0
    3.2260   14.9090   -1.8430 C   0  0  0  0  0  0  0  0  0  0  0  0
    0.7632   18.1559    1.0630 H   0  0  0  0  0  0  0  0  0  0  0  0
    1.0531   19.1498   -0.4049 H   0  0  0  0  0  0  0  0  0  0  0  0
   -0.2411   17.9041   -0.4049 H   0  0  0  0  0  0  0  0  0  0  0  0
    2.3534   16.7694    0.3209 H   0  0  0  0  0  0  0  0  0  0  0  0
    2.5403   17.2726   -2.5519 H   0  0  0  0  0  0  0  0  0  0  0  0
    2.6176   18.7991   -1.5485 H   0  0  0  0  0  0  0  0  0  0  0  0
    4.4809   17.9683   -0.2989 H   0  0  0  0  0  0  0  0  0  0  0  0
    4.3561   16.3521   -1.1109 H   0  0  0  0  0  0  0  0  0  0  0  0
    5.4616   18.7647   -1.7168 H   0  0  0  0  0  0  0  0  0  0  0  0
    5.7574   15.2056   -2.0317 H   0  0  0  0  0  0  0  0  0  0  0  0
    4.8508   15.1354   -3.5808 H   0  0  0  0  0  0  0  0  0  0  0  0
    6.6413   14.9920   -3.5808 H   0  0  0  0  0  0  0  0  0  0  0  0
    7.8668   17.7804   -3.1864 H   0  0  0  0  0  0  0  0  0  0  0  0
    7.5424   16.6726   -4.5627 H   0  0  0  0  0  0  0  0  0  0  0  0
    6.8522   18.3310   -4.5627 H   0  0  0  0  0  0  0  0  0  0  0  0
    0.2061   15.8304   -0.4350 H   0  0  0  0  0  0  0  0  0  0  0  0
   -0.4681   16.5749   -2.6323 H   0  0  0  0  0  0  0  0  0  0  0  0
    1.1990   16.9866   -3.0886 H   0  0  0  0  0  0  0  0  0  0  0  0
   -0.2395   14.6767   -3.9632 H   0  0  0  0  0  0  0  0  0  0  0  0
    1.5049   14.8677   -4.1134 H   0  0  0  0  0  0  0  0  0  0  0  0
   -0.5620   13.5315   -0.6441 H   0  0  0  0  0  0  0  0  0  0  0  0
   -1.2578   14.3126   -2.1044 H   0  0  0  0  0  0  0  0  0  0  0  0
   -0.9194   12.5484   -2.1044 H   0  0  0  0  0  0  0  0  0  0  0  0
    2.4979   12.8594   -3.1936 H   0  0  0  0  0  0  0  0  0  0  0  0
    0.2898   12.3570   -4.4228 H   0  0  0  0  0  0  0  0  0  0  0  0
    1.6312   11.1005   -4.3223 H   0  0  0  0  0  0  0  0  0  0  0  0
   -0.8249   10.2134   -3.9756 H   0  0  0  0  0  0  0  0  0  0  0  0
    0.3333   11.3372   -0.2743 H   0  0  0  0  0  0  0  0  0  0  0  0
    1.9624    8.7842   -0.8448 H   0  0  0  0  0  0  0  0  0  0  0  0
    2.0208    9.8039    0.6610 H   0  0  0  0  0  0  0  0  0  0  0  0
    0.6937    7.7406    0.9787 H   0  0  0  0  0  0  0  0  0  0  0  0
   -0.2875    9.2467    1.1645 H   0  0  0  0  0  0  0  0  0  0  0  0
   -1.5574    7.6507   -0.1011 H   0  0  0  0  0  0  0  0  0  0  0  0
    0.0440    7.5720   -2.3390 H   0  0  0  0  0  0  0  0  0  0  0  0
   -2.0700    9.9435    0.4344 H   0  0  0  0  0  0  0  0  0  0  0  0
   -2.1266   11.1808   -0.8667 H   0  0  0  0  0  0  0  0  0  0  0  0
   -3.3027    9.8230   -0.8667 H   0  0  0  0  0  0  0  0  0  0  0  0
   -2.9414    8.0194   -2.1705 H   0  0  0  0  0  0  0  0  0  0  0  0
   -2.5782    9.4190   -3.2364 H   0  0  0  0  0  0  0  0  0  0  0  0
   -1.4959    7.9854   -3.2364 H   0  0  0  0  0  0  0  0  0  0  0  0
    3.7676   10.2664   -1.1767 H   0  0  0  0  0  0  0  0  0  0  0  0
    2.8040    9.8707   -2.6402 H   0  0  0  0  0  0  0  0  0  0  0  0
    3.8912   11.3007   -2.6402 H   0  0  0  0  0  0  0  0  0  0  0  0
    2.5643   11.8055    0.6017 H   0  0  0  0  0  0  0  0  0  0  0  0
    3.6591   12.6746   -0.6151 H   0  0  0  0  0  0  0  0  0  0  0  0
    0.9626   13.5866    0.4263 H   0  0  0  0  0  0  0  0  0  0  0  0
    2.5867   14.3341    0.6917 H   0  0  0  0  0  0  0  0  0  0  0  0
    3.9181   15.0602   -1.0015 H   0  0  0  0  0  0  0  0  0  0  0  0
    3.5745   14.0658   -2.4575 H   0  0  0  0  0  0  0  0  0  0  0  0
    3.1912   15.8207   -2.4575 H   0  0  0  0  0  0  0  0  0  0  0  0
  1  2  1  0
  2  3  1  0
  3  4  1  0
  4  5  1  0
  5  6  1  0
  6  7  1  0
  7  8  1  0
  7  9  1  0
  2 10  1  0
 10 11  1  0
 11 12  1  0
 12 13  1  0
 13 14  1  1
 13 15  1  0
 15 16  1  0
 16 17  1  0
 17 18  2  0
 18 19  1  0
 19 20  1  0
 20 21  1  0
 21 22  1  0
 22 23  1  0
 22 24  1  0
 24 25  1  0
 24 26  1  0
 19 27  1  0
 27 28  1  6
 27 29  1  0
 29 30  1  0
 30 31  1  0
 31 32  1  6
  7  5  1  0
 31 10  1  0
 31 13  1  0
 27 15  1  0
 24 18  1  0
  1 33  1  0
  1 34  1  0
  1 35  1  0
  2 36  1  1
  3 37  1  0
  3 38  1  0
  4 39  1  0
  4 40  1  0
  5 41  1  6
  8 42  1  0
  8 43  1  0
  8 44  1  0
  9 45  1  0
  9 46  1  0
  9 47  1  0
 10 48  1  1
 11 49  1  0
 11 50  1  0
 12 51  1  0
 12 52  1  0
 14 53  1  0
 14 54  1  0
 14 55  1  0
 15 56  1  6
 16 57  1  0
 16 58  1  0
 17 59  1  0
 19 60  1  1
 20 61  1  0
 20 62  1  0
 21 63  1  0
 21 64  1  0
 22 65  1  1
 23 66  1  0
 25 67  1  0
 25 68  1  0
 25 69  1  0
 26 70  1  0
 26 71  1  0
 26 72  1  0
 28 73  1  0
 28 74  1  0
 28 75  1  0
 29 76  1  0
 29 77  1  0
 30 78  1  0
 30 79  1  0
 32 80  1  0
 32 81  1  0
 32 82  1  0
M  END
>  <meeko>  (10) 
{"is_sidechain": [false], "intermolecular_energy": 2.731, "internal_energy": -0.839}

$$$$
EPH_relaxed_0001_pdb2pqr_Repair_177_r2_0001_out
     RDKit          3D

 82 86  0  0  0  0  0  0  0  0999 V2000
   -1.7150   10.3910    1.5610 C   0  0  0  0  0  0  0  0  0  0  0  0
   -2.2100   10.0610    0.1500 C   0  0  2  0  0  0  0  0  0  0  0  0
   -2.9660    8.7180    0.0990 C   0  0  0  0  0  0  0  0  0  0  0  0
   -4.3650    8.8220   -0.5140 C   0  0  0  0  0  0  0  0  0  0  0  0
   -4.9000    7.4770   -0.9040 C   0  0  2  0  0  0  0  0  0  0  0  0
   -4.9550    7.2420   -2.3170 O   0  0  0  0  0  0  0  0  0  0  0  0
   -6.2170    7.2800   -1.6320 C   0  0  0  0  0  0  0  0  0  0  0  0
   -7.0810    8.4420   -2.0110 C   0  0  0  0  0  0  0  0  0  0  0  0
   -6.8930    5.9480   -1.5390 C   0  0  0  0  0  0  0  0  0  0  0  0
   -1.0350   10.0350   -0.8210 C   0  0  1  0  0  0  0  0  0  0  0  0
   -1.3020    9.1370   -2.0580 C   0  0  0  0  0  0  0  0  0  0  0  0
   -0.5990    9.8140   -3.2620 C   0  0  0  0  0  0  0  0  0  0  0  0
    0.3170   10.8860   -2.6270 C   0  0  1  0  0  0  0  0  0  0  0  0
    1.5870   10.1040   -2.1630 C   0  0  0  0  0  0  0  0  0  0  0  0
    0.6890   12.1030   -3.5340 C   0  0  2  0  0  0  0  0  0  0  0  0
    1.4900   11.7530   -4.8000 C   0  0  0  0  0  0  0  0  0  0  0  0
    2.9740   11.7770   -4.6420 C   0  0  0  0  0  0  0  0  0  0  0  0
    3.6430   12.3400   -3.6190 C   0  0  0  0  0  0  0  0  0  0  0  0
    2.9000   13.1210   -2.5270 C   0  0  1  0  0  0  0  0  0  0  0  0
    3.6360   14.4600   -2.2570 C   0  0  0  0  0  0  0  0  0  0  0  0
    5.1120   14.2610   -1.9290 C   0  0  0  0  0  0  0  0  0  0  0  0
    5.8290   13.5330   -3.0630 C   0  0  2  0  0  0  0  0  0  0  0  0
    5.8530   14.3820   -4.2140 O   0  0  0  0  0  0  0  0  0  0  0  0
    5.1710   12.1730   -3.4310 C   0  0  0  0  0  0  0  0  0  0  0  0
    5.4120   11.1530   -2.2910 C   0  0  0  0  0  0  0  0  0  0  0  0
    5.9040   11.6100   -4.6790 C   0  0  0  0  0  0  0  0  0  0  0  0
    1.3400   13.3170   -2.7550 C   0  0  1  0  0  0  0  0  0  0  0  0
    1.0840   14.5900   -3.6200 C   0  0  0  0  0  0  0  0  0  0  0  0
    0.6460   13.5780   -1.3660 C   0  0  0  0  0  0  0  0  0  0  0  0
    0.1940   12.3380   -0.5710 C   0  0  0  0  0  0  0  0  0  0  0  0
   -0.6090   11.3820   -1.4580 C   0  0  2  0  0  0  0  0  0  0  0  0
   -1.9040   12.1330   -1.9210 C   0  0  0  0  0  0  0  0  0  0  0  0
   -2.3916    9.9399    2.3018 H   0  0  0  0  0  0  0  0  0  0  0  0
   -0.7007    9.9878    1.6974 H   0  0  0  0  0  0  0  0  0  0  0  0
   -1.6971   11.4824    1.6974 H   0  0  0  0  0  0  0  0  0  0  0  0
   -2.9179   10.8496   -0.1449 H   0  0  0  0  0  0  0  0  0  0  0  0
   -2.3757    8.0098   -0.5010 H   0  0  0  0  0  0  0  0  0  0  0  0
   -3.0948    8.3820    1.1385 H   0  0  0  0  0  0  0  0  0  0  0  0
   -5.0442    9.2761    0.2225 H   0  0  0  0  0  0  0  0  0  0  0  0
   -4.2972    9.4406   -1.4210 H   0  0  0  0  0  0  0  0  0  0  0  0
   -4.4849    7.0209    0.0069 H   0  0  0  0  0  0  0  0  0  0  0  0
   -7.4493    8.9374   -1.1005 H   0  0  0  0  0  0  0  0  0  0  0  0
   -6.4936    9.1572   -2.6055 H   0  0  0  0  0  0  0  0  0  0  0  0
   -7.9351    8.0854   -2.6055 H   0  0  0  0  0  0  0  0  0  0  0  0
   -7.0295    5.6791   -0.4811 H   0  0  0  0  0  0  0  0  0  0  0  0
   -7.8741    5.9994   -2.0338 H   0  0  0  0  0  0  0  0  0  0  0  0
   -6.2723    5.1865   -2.0338 H   0  0  0  0  0  0  0  0  0  0  0  0
   -0.2460    9.6717   -0.1461 H   0  0  0  0  0  0  0  0  0  0  0  0
   -0.8868    8.1318   -1.8931 H   0  0  0  0  0  0  0  0  0  0  0  0
   -2.3811    9.0276   -2.2411 H   0  0  0  0  0  0  0  0  0  0  0  0
   -0.0047    9.0808   -3.8271 H   0  0  0  0  0  0  0  0  0  0  0  0
   -1.3166   10.2475   -3.9741 H   0  0  0  0  0  0  0  0  0  0  0  0
    1.6228   10.0820   -1.0638 H   0  0  0  0  0  0  0  0  0  0  0  0
    1.5454    9.0749   -2.5492 H   0  0  0  0  0  0  0  0  0  0  0  0
    2.4872   10.6044   -2.5492 H   0  0  0  0  0  0  0  0  0  0  0  0
   -0.2956   12.4423   -3.8883 H   0  0  0  0  0  0  0  0  0  0  0  0
    1.1983   10.7412   -5.1180 H   0  0  0  0  0  0  0  0  0  0  0  0
    1.2497   12.5328   -5.5377 H   0  0  0  0  0  0  0  0  0  0  0  0
    3.5717   11.2934   -5.4287 H   0  0  0  0  0  0  0  0  0  0  0  0
    2.9309   12.4900   -1.6265 H   0  0  0  0  0  0  0  0  0  0  0  0
    3.5563   15.0930   -3.1531 H   0  0  0  0  0  0  0  0  0  0  0  0
    3.1610   14.9317   -1.3842 H   0  0  0  0  0  0  0  0  0  0  0  0
    5.5828   15.2435   -1.7774 H   0  0  0  0  0  0  0  0  0  0  0  0
    5.1900   13.6524   -1.0161 H   0  0  0  0  0  0  0  0  0  0  0  0
    6.8477   13.3053   -2.7160 H   0  0  0  0  0  0  0  0  0  0  0  0
    6.6680   14.1880   -4.7070 H   0  0  0  0  0  0  0  0  0  0  0  0
    5.2935   11.6545   -1.3192 H   0  0  0  0  0  0  0  0  0  0  0  0
    4.6828   10.3335   -2.3720 H   0  0  0  0  0  0  0  0  0  0  0  0
    6.4309   10.7465   -2.3720 H   0  0  0  0  0  0  0  0  0  0  0  0
    6.7380   10.9694   -4.3564 H   0  0  0  0  0  0  0  0  0  0  0  0
    5.1995   11.0186   -5.2823 H   0  0  0  0  0  0  0  0  0  0  0  0
    6.2937   12.4432   -5.2823 H   0  0  0  0  0  0  0  0  0  0  0  0
    0.9105   15.4529   -2.9602 H   0  0  0  0  0  0  0  0  0  0  0  0
    1.9610   14.7844   -4.2548 H   0  0  0  0  0  0  0  0  0  0  0  0
    0.2000   14.4303   -4.2548 H   0  0  0  0  0  0  0  0  0  0  0  0
    1.3572   14.1347   -0.7381 H   0  0  0  0  0  0  0  0  0  0  0  0
   -0.2808   14.1202   -1.6048 H   0  0  0  0  0  0  0  0  0  0  0  0
    1.0813   11.8133   -0.1872 H   0  0  0  0  0  0  0  0  0  0  0  0
   -0.4470   12.6680    0.2598 H   0  0  0  0  0  0  0  0  0  0  0  0
   -2.4721   12.4625   -1.0386 H   0  0  0  0  0  0  0  0  0  0  0  0
   -1.6239   13.0088   -2.5247 H   0  0  0  0  0  0  0  0  0  0  0  0
   -2.5251   11.4549   -2.5247 H   0  0  0  0  0  0  0  0  0  0  0  0
  1  2  1  0
  2  3  1  0
  3  4  1  0
  4  5  1  0
  5  6  1  0
  6  7  1  0
  7  8  1  0
  7  9  1  0
  2 10  1  0
 10 11  1  0
 11 12  1  0
 12 13  1  0
 13 14  1  1
 13 15  1  0
 15 16  1  0
 16 17  1  0
 17 18  2  0
 18 19  1  0
 19 20  1  0
 20 21  1  0
 21 22  1  0
 22 23  1  0
 22 24  1  0
 24 25  1  0
 24 26  1  0
 19 27  1  0
 27 28  1  6
 27 29  1  0
 29 30  1  0
 30 31  1  0
 31 32  1  6
  7  5  1  0
 31 10  1  0
 31 13  1  0
 27 15  1  0
 24 18  1  0
  1 33  1  0
  1 34  1  0
  1 35  1  0
  2 36  1  6
  3 37  1  0
  3 38  1  0
  4 39  1  0
  4 40  1  0
  5 41  1  1
  8 42  1  0
  8 43  1  0
  8 44  1  0
  9 45  1  0
  9 46  1  0
  9 47  1  0
 10 48  1  1
 11 49  1  0
 11 50  1  0
 12 51  1  0
 12 52  1  0
 14 53  1  0
 14 54  1  0
 14 55  1  0
 15 56  1  6
 16 57  1  0
 16 58  1  0
 17 59  1  0
 19 60  1  1
 20 61  1  0
 20 62  1  0
 21 63  1  0
 21 64  1  0
 22 65  1  1
 23 66  1  0
 25 67  1  0
 25 68  1  0
 25 69  1  0
 26 70  1  0
 26 71  1  0
 26 72  1  0
 28 73  1  0
 28 74  1  0
 28 75  1  0
 29 76  1  0
 29 77  1  0
 30 78  1  0
 30 79  1  0
 32 80  1  0
 32 81  1  0
 32 82  1  0
M  END
>  <meeko>  (11) 
{"is_sidechain": [false], "intermolecular_energy": 2.731, "internal_energy": -0.839}

$$$$
EPH_relaxed_0001_pdb2pqr_Repair_177_r2_0001_out
     RDKit          3D

 82 86  0  0  0  0  0  0  0  0999 V2000
    3.1370   10.4880   -3.1320 C   0  0  0  0  0  0  0  0  0  0  0  0
    3.5990   10.8300   -1.7130 C   0  0  2  0  0  0  0  0  0  0  0  0
    2.6120   10.3230   -0.6420 C   0  0  0  0  0  0  0  0  0  0  0  0
    1.4920    9.4440   -1.2050 C   0  0  0  0  0  0  0  0  0  0  0  0
    0.2340    9.5650   -0.3990 C   0  0  2  0  0  0  0  0  0  0  0  0
   -0.3650    8.3150   -0.0340 O   0  0  0  0  0  0  0  0  0  0  0  0
   -1.1320    9.1520   -0.9140 C   0  0  0  0  0  0  0  0  0  0  0  0
   -1.3100    8.5870   -2.2890 C   0  0  0  0  0  0  0  0  0  0  0  0
   -2.3480    9.7460   -0.2740 C   0  0  0  0  0  0  0  0  0  0  0  0
    3.7860   12.3370   -1.5770 C   0  0  1  0  0  0  0  0  0  0  0  0
    5.0190   12.8590   -2.3620 C   0  0  0  0  0  0  0  0  0  0  0  0
    4.6460   14.2670   -2.8950 C   0  0  0  0  0  0  0  0  0  0  0  0
    3.3570   14.6440   -2.1290 C   0  0  1  0  0  0  0  0  0  0  0  0
    3.8510   15.1620   -0.7420 C   0  0  0  0  0  0  0  0  0  0  0  0
    2.4150   15.6780   -2.8280 C   0  0  2  0  0  0  0  0  0  0  0  0
    3.0310   17.0690   -3.0590 C   0  0  0  0  0  0  0  0  0  0  0  0
    2.8230   18.0510   -1.9540 C   0  0  0  0  0  0  0  0  0  0  0  0
    1.9330   17.9230   -0.9520 C   0  0  0  0  0  0  0  0  0  0  0  0
    0.9490   16.7460   -0.9170 C   0  0  1  0  0  0  0  0  0  0  0  0
   -0.4750   17.2710   -0.5960 C   0  0  0  0  0  0  0  0  0  0  0  0
   -0.5170   18.1040    0.6810 C   0  0  0  0  0  0  0  0  0  0  0  0
    0.4300   19.2970    0.5850 C   0  0  2  0  0  0  0  0  0  0  0  0
   -0.0580   20.1940   -0.4170 O   0  0  0  0  0  0  0  0  0  0  0  0
    1.8940   18.8920    0.2550 C   0  0  0  0  0  0  0  0  0  0  0  0
    2.5230   18.1740    1.4750 C   0  0  0  0  0  0  0  0  0  0  0  0
    2.7150   20.1940    0.0470 C   0  0  0  0  0  0  0  0  0  0  0  0
    0.9750   15.7840   -2.1820 C   0  0  1  0  0  0  0  0  0  0  0  0
    0.0290   16.3380   -3.2910 C   0  0  0  0  0  0  0  0  0  0  0  0
    0.3990   14.3780   -1.7700 C   0  0  0  0  0  0  0  0  0  0  0  0
    1.4010   13.3580   -1.1960 C   0  0  0  0  0  0  0  0  0  0  0  0
    2.6410   13.2450   -2.0890 C   0  0  2  0  0  0  0  0  0  0  0  0
    2.1780   12.7060   -3.4850 C   0  0  0  0  0  0  0  0  0  0  0  0
    2.2538    9.8342   -3.0825 H   0  0  0  0  0  0  0  0  0  0  0  0
    2.8783   11.4139   -3.6665 H   0  0  0  0  0  0  0  0  0  0  0  0
    3.9470    9.9702   -3.6665 H   0  0  0  0  0  0  0  0  0  0  0  0
    4.5585   10.3189   -1.5453 H   0  0  0  0  0  0  0  0  0  0  0  0
    3.1747    9.7364    0.0991 H   0  0  0  0  0  0  0  0  0  0  0  0
    2.1338   11.2094   -0.1998 H   0  0  0  0  0  0  0  0  0  0  0  0
    1.2832    9.7521   -2.2401 H   0  0  0  0  0  0  0  0  0  0  0  0
    1.8253    8.3965   -1.1652 H   0  0  0  0  0  0  0  0  0  0  0  0
    0.5961   10.4910    0.0716 H   0  0  0  0  0  0  0  0  0  0  0  0
   -1.6398    7.5402   -2.2154 H   0  0  0  0  0  0  0  0  0  0  0  0
   -2.0671    9.1727   -2.8309 H   0  0  0  0  0  0  0  0  0  0  0  0
   -0.3539    8.6330   -2.8309 H   0  0  0  0  0  0  0  0  0  0  0  0
   -2.2475    9.6969    0.8203 H   0  0  0  0  0  0  0  0  0  0  0  0
   -2.4508   10.7958   -0.5860 H   0  0  0  0  0  0  0  0  0  0  0  0
   -3.2392    9.1818   -0.5860 H   0  0  0  0  0  0  0  0  0  0  0  0
    3.8660   12.4147   -0.4827 H   0  0  0  0  0  0  0  0  0  0  0  0
    5.8920   12.9250   -1.6961 H   0  0  0  0  0  0  0  0  0  0  0  0
    5.2785   12.1799   -3.1875 H   0  0  0  0  0  0  0  0  0  0  0  0
    5.4491   14.9881   -2.6826 H   0  0  0  0  0  0  0  0  0  0  0  0
    4.5014   14.2759   -3.9854 H   0  0  0  0  0  0  0  0  0  0  0  0
    3.3310   14.6167    0.0594 H   0  0  0  0  0  0  0  0  0  0  0  0
    4.9350   14.9973   -0.6540 H   0  0  0  0  0  0  0  0  0  0  0  0
    3.6351   16.2370   -0.6540 H   0  0  0  0  0  0  0  0  0  0  0  0
    2.2840   15.2388   -3.8280 H   0  0  0  0  0  0  0  0  0  0  0  0
    4.1144   16.9415   -3.2007 H   0  0  0  0  0  0  0  0  0  0  0  0
    2.5174   17.4867   -3.9375 H   0  0  0  0  0  0  0  0  0  0  0  0
    3.4496   18.9551   -1.9589 H   0  0  0  0  0  0  0  0  0  0  0  0
    1.2932   16.0847   -0.1082 H   0  0  0  0  0  0  0  0  0  0  0  0
   -0.8186   17.8940   -1.4349 H   0  0  0  0  0  0  0  0  0  0  0  0
   -1.1271   16.3978   -0.4467 H   0  0  0  0  0  0  0  0  0  0  0  0
   -1.5423   18.4699    0.8386 H   0  0  0  0  0  0  0  0  0  0  0  0
   -0.2008   17.4714    1.5235 H   0  0  0  0  0  0  0  0  0  0  0  0
    0.4530   19.7798    1.5731 H   0  0  0  0  0  0  0  0  0  0  0  0
    0.3660   19.9550   -1.2580 H   0  0  0  0  0  0  0  0  0  0  0  0
    2.1337   18.6184    2.4028 H   0  0  0  0  0  0  0  0  0  0  0  0
    2.2654   17.1050    1.4442 H   0  0  0  0  0  0  0  0  0  0  0  0
    3.6166   18.2887    1.4442 H   0  0  0  0  0  0  0  0  0  0  0  0
    2.9829   20.6188    1.0256 H   0  0  0  0  0  0  0  0  0  0  0  0
    3.6315   19.9636   -0.5160 H   0  0  0  0  0  0  0  0  0  0  0  0
    2.1121   20.9217   -0.5160 H   0  0  0  0  0  0  0  0  0  0  0  0
   -0.8299   16.8410   -2.8227 H   0  0  0  0  0  0  0  0  0  0  0  0
    0.5787   17.0569   -3.9163 H   0  0  0  0  0  0  0  0  0  0  0  0
   -0.3291   15.5069   -3.9163 H   0  0  0  0  0  0  0  0  0  0  0  0
   -0.3773   14.5464   -1.0090 H   0  0  0  0  0  0  0  0  0  0  0  0
    0.0366   13.9296   -2.7068 H   0  0  0  0  0  0  0  0  0  0  0  0
    1.7095   13.6829   -0.1914 H   0  0  0  0  0  0  0  0  0  0  0  0
    0.9117   12.3739   -1.1492 H   0  0  0  0  0  0  0  0  0  0  0  0
    1.4674   11.8787   -3.3413 H   0  0  0  0  0  0  0  0  0  0  0  0
    1.6894   13.5156   -4.0470 H   0  0  0  0  0  0  0  0  0  0  0  0
    3.0520   12.3451   -4.0470 H   0  0  0  0  0  0  0  0  0  0  0  0
  1  2  1  0
  2  3  1  0
  3  4  1  0
  4  5  1  0
  5  6  1  0
  6  7  1  0
  7  8  1  0
  7  9  1  0
  2 10  1  0
 10 11  1  0
 11 12  1  0
 12 13  1  0
 13 14  1  1
 13 15  1  0
 15 16  1  0
 16 17  1  0
 17 18  2  0
 18 19  1  0
 19 20  1  0
 20 21  1  0
 21 22  1  0
 22 23  1  0
 22 24  1  0
 24 25  1  0
 24 26  1  0
 19 27  1  0
 27 28  1  6
 27 29  1  0
 29 30  1  0
 30 31  1  0
 31 32  1  6
  7  5  1  0
 31 10  1  0
 31 13  1  0
 27 15  1  0
 24 18  1  0
  1 33  1  0
  1 34  1  0
  1 35  1  0
  2 36  1  1
  3 37  1  0
  3 38  1  0
  4 39  1  0
  4 40  1  0
  5 41  1  1
  8 42  1  0
  8 43  1  0
  8 44  1  0
  9 45  1  0
  9 46  1  0
  9 47  1  0
 10 48  1  1
 11 49  1  0
 11 50  1  0
 12 51  1  0
 12 52  1  0
 14 53  1  0
 14 54  1  0
 14 55  1  0
 15 56  1  6
 16 57  1  0
 16 58  1  0
 17 59  1  0
 19 60  1  1
 20 61  1  0
 20 62  1  0
 21 63  1  0
 21 64  1  0
 22 65  1  1
 23 66  1  0
 25 67  1  0
 25 68  1  0
 25 69  1  0
 26 70  1  0
 26 71  1  0
 26 72  1  0
 28 73  1  0
 28 74  1  0
 28 75  1  0
 29 76  1  0
 29 77  1  0
 30 78  1  0
 30 79  1  0
 32 80  1  0
 32 81  1  0
 32 82  1  0
M  END
>  <meeko>  (12) 
{"is_sidechain": [false], "intermolecular_energy": 2.731, "internal_energy": -0.839}

$$$$
EPH_relaxed_0001_pdb2pqr_Repair_177_r2_0001_out
     RDKit          3D

 82 86  0  0  0  0  0  0  0  0999 V2000
    0.4210    8.9610   -2.4750 C   0  0  0  0  0  0  0  0  0  0  0  0
    1.2310   10.1210   -3.0620 C   0  0  2  0  0  0  0  0  0  0  0  0
    2.7040   10.0890   -2.6080 C   0  0  0  0  0  0  0  0  0  0  0  0
    3.6890   10.5700   -3.6770 C   0  0  0  0  0  0  0  0  0  0  0  0
    5.0550   10.8050   -3.1070 C   0  0  2  0  0  0  0  0  0  0  0  0
    5.6320   12.0750   -3.4390 O   0  0  0  0  0  0  0  0  0  0  0  0
    6.3080   10.9170   -3.9560 C   0  0  0  0  0  0  0  0  0  0  0  0
    6.2540   10.7960   -5.4470 C   0  0  0  0  0  0  0  0  0  0  0  0
    7.6340   10.6560   -3.3130 C   0  0  0  0  0  0  0  0  0  0  0  0
    0.5950   11.4490   -2.6720 C   0  0  1  0  0  0  0  0  0  0  0  0
   -0.6650   11.2700   -1.7830 C   0  0  0  0  0  0  0  0  0  0  0  0
   -0.6820   12.4580   -0.7870 C   0  0  0  0  0  0  0  0  0  0  0  0
    0.3670   13.4490   -1.3440 C   0  0  1  0  0  0  0  0  0  0  0  0
   -0.3760   14.2250   -2.4770 C   0  0  0  0  0  0  0  0  0  0  0  0
    1.0160   14.4240   -0.3080 C   0  0  2  0  0  0  0  0  0  0  0  0
    0.0370   15.3940    0.3770 C   0  0  0  0  0  0  0  0  0  0  0  0
   -0.1510   16.7040   -0.3150 C   0  0  0  0  0  0  0  0  0  0  0  0
    0.6470   17.2010   -1.2780 C   0  0  0  0  0  0  0  0  0  0  0  0
    1.9290   16.4680   -1.6950 C   0  0  1  0  0  0  0  0  0  0  0  0
    3.1000   17.4820   -1.7810 C   0  0  0  0  0  0  0  0  0  0  0  0
    2.7830   18.6670   -2.6890 C   0  0  0  0  0  0  0  0  0  0  0  0
    1.5370   19.4040   -2.2080 C   0  0  2  0  0  0  0  0  0  0  0  0
    1.8210   20.0160   -0.9460 O   0  0  0  0  0  0  0  0  0  0  0  0
    0.2930   18.4820   -2.0730 C   0  0  0  0  0  0  0  0  0  0  0  0
   -0.1970   18.0600   -3.4800 C   0  0  0  0  0  0  0  0  0  0  0  0
   -0.8550   19.3180   -1.4460 C   0  0  0  0  0  0  0  0  0  0  0  0
    2.2990   15.1790   -0.8440 C   0  0  1  0  0  0  0  0  0  0  0  0
    3.1300   15.5900    0.4110 C   0  0  0  0  0  0  0  0  0  0  0  0
    3.2280   14.2430   -1.7040 C   0  0  0  0  0  0  0  0  0  0  0  0
    2.5280   13.2210   -2.6190 C   0  0  0  0  0  0  0  0  0  0  0  0
    1.4590   12.4380   -1.8500 C   0  0  2  0  0  0  0  0  0  0  0  0
    2.1800   11.6310   -0.7180 C   0  0  0  0  0  0  0  0  0  0  0  0
    0.4546    9.0092   -1.3766 H   0  0  0  0  0  0  0  0  0  0  0  0
   -0.6230    9.0346   -2.8134 H   0  0  0  0  0  0  0  0  0  0  0  0
    0.8497    8.0062   -2.8134 H   0  0  0  0  0  0  0  0  0  0  0  0
    1.2203   10.0111   -4.1564 H   0  0  0  0  0  0  0  0  0  0  0  0
    2.8088   10.7348   -1.7237 H   0  0  0  0  0  0  0  0  0  0  0  0
    2.9510    9.0389   -2.3930 H   0  0  0  0  0  0  0  0  0  0  0  0
    3.7586    9.8073   -4.4665 H   0  0  0  0  0  0  0  0  0  0  0  0
    3.3176   11.5233   -4.0812 H   0  0  0  0  0  0  0  0  0  0  0  0
    4.8157   10.1981   -2.2214 H   0  0  0  0  0  0  0  0  0  0  0  0
    5.8198    9.8230   -5.7204 H   0  0  0  0  0  0  0  0  0  0  0  0
    5.6311   11.6041   -5.8581 H   0  0  0  0  0  0  0  0  0  0  0  0
    7.2714   10.8720   -5.8581 H   0  0  0  0  0  0  0  0  0  0  0  0
    7.5217   10.6781   -2.2190 H   0  0  0  0  0  0  0  0  0  0  0  0
    8.0040    9.6678   -3.6237 H   0  0  0  0  0  0  0  0  0  0  0  0
    8.3509   11.4303   -3.6237 H   0  0  0  0  0  0  0  0  0  0  0  0
    0.4017   11.8613   -3.6733 H   0  0  0  0  0  0  0  0  0  0  0  0
   -1.5723   11.2839   -2.4047 H   0  0  0  0  0  0  0  0  0  0  0  0
   -0.6390   10.3081   -1.2501 H   0  0  0  0  0  0  0  0  0  0  0  0
   -1.6779   12.9239   -0.7552 H   0  0  0  0  0  0  0  0  0  0  0  0
   -0.4534   12.1431    0.2419 H   0  0  0  0  0  0  0  0  0  0  0  0
   -1.0709   14.9508   -2.0295 H   0  0  0  0  0  0  0  0  0  0  0  0
    0.3585   14.7566   -3.0999 H   0  0  0  0  0  0  0  0  0  0  0  0
   -0.9390   13.5143   -3.0999 H   0  0  0  0  0  0  0  0  0  0  0  0
    1.3569   13.7375    0.4810 H   0  0  0  0  0  0  0  0  0  0  0  0
   -0.9434   14.8992    0.4405 H   0  0  0  0  0  0  0  0  0  0  0  0
    0.4763   15.6280    1.3579 H   0  0  0  0  0  0  0  0  0  0  0  0
   -1.0146   17.3142   -0.0120 H   0  0  0  0  0  0  0  0  0  0  0  0
    1.7275   16.0450   -2.6902 H   0  0  0  0  0  0  0  0  0  0  0  0
    3.3142   17.8597   -0.7703 H   0  0  0  0  0  0  0  0  0  0  0  0
    3.9662   16.9560   -2.2089 H   0  0  0  0  0  0  0  0  0  0  0  0
    3.6360   19.3616   -2.6855 H   0  0  0  0  0  0  0  0  0  0  0  0
    2.5978   18.2906   -3.7059 H   0  0  0  0  0  0  0  0  0  0  0  0
    1.2870   20.1587   -2.9682 H   0  0  0  0  0  0  0  0  0  0  0  0
    1.0360   20.5230   -0.6810 H   0  0  0  0  0  0  0  0  0  0  0  0
   -1.0271   17.3451   -3.3801 H   0  0  0  0  0  0  0  0  0  0  0  0
   -0.5421   18.9481   -4.0297 H   0  0  0  0  0  0  0  0  0  0  0  0
    0.6301   17.5870   -4.0297 H   0  0  0  0  0  0  0  0  0  0  0  0
   -0.7875   19.2689   -0.3492 H   0  0  0  0  0  0  0  0  0  0  0  0
   -0.7667   20.3648   -1.7723 H   0  0  0  0  0  0  0  0  0  0  0  0
   -1.8242   18.9127   -1.7723 H   0  0  0  0  0  0  0  0  0  0  0  0
    2.5776   15.3168    1.3221 H   0  0  0  0  0  0  0  0  0  0  0  0
    4.0973   15.0664    0.3978 H   0  0  0  0  0  0  0  0  0  0  0  0
    3.3010   16.6766    0.3978 H   0  0  0  0  0  0  0  0  0  0  0  0
    3.8517   14.8875   -2.3409 H   0  0  0  0  0  0  0  0  0  0  0  0
    3.7854   13.6398   -0.9723 H   0  0  0  0  0  0  0  0  0  0  0  0
    2.0518   13.7537   -3.4553 H   0  0  0  0  0  0  0  0  0  0  0  0
    3.2810   12.5117   -2.9930 H   0  0  0  0  0  0  0  0  0  0  0  0
    1.8494   12.0011    0.2637 H   0  0  0  0  0  0  0  0  0  0  0  0
    1.9288   10.5641   -0.8113 H   0  0  0  0  0  0  0  0  0  0  0  0
    3.2683   11.7609   -0.8113 H   0  0  0  0  0  0  0  0  0  0  0  0
  1  2  1  0
  2  3  1  0
  3  4  1  0
  4  5  1  0
  5  6  1  0
  6  7  1  0
  7  8  1  0
  7  9  1  0
  2 10  1  0
 10 11  1  0
 11 12  1  0
 12 13  1  0
 13 14  1  6
 13 15  1  0
 15 16  1  0
 16 17  1  0
 17 18  2  0
 18 19  1  0
 19 20  1  0
 20 21  1  0
 21 22  1  0
 22 23  1  0
 22 24  1  0
 24 25  1  0
 24 26  1  0
 19 27  1  0
 27 28  1  1
 27 29  1  0
 29 30  1  0
 30 31  1  0
 31 32  1  1
  7  5  1  0
 31 10  1  0
 31 13  1  0
 27 15  1  0
 24 18  1  0
  1 33  1  0
  1 34  1  0
  1 35  1  0
  2 36  1  6
  3 37  1  0
  3 38  1  0
  4 39  1  0
  4 40  1  0
  5 41  1  1
  8 42  1  0
  8 43  1  0
  8 44  1  0
  9 45  1  0
  9 46  1  0
  9 47  1  0
 10 48  1  6
 11 49  1  0
 11 50  1  0
 12 51  1  0
 12 52  1  0
 14 53  1  0
 14 54  1  0
 14 55  1  0
 15 56  1  1
 16 57  1  0
 16 58  1  0
 17 59  1  0
 19 60  1  6
 20 61  1  0
 20 62  1  0
 21 63  1  0
 21 64  1  0
 22 65  1  6
 23 66  1  0
 25 67  1  0
 25 68  1  0
 25 69  1  0
 26 70  1  0
 26 71  1  0
 26 72  1  0
 28 73  1  0
 28 74  1  0
 28 75  1  0
 29 76  1  0
 29 77  1  0
 30 78  1  0
 30 79  1  0
 32 80  1  0
 32 81  1  0
 32 82  1  0
M  END
>  <meeko>  (13) 
{"is_sidechain": [false], "intermolecular_energy": 2.731, "internal_energy": -0.839}

$$$$
EPH_relaxed_0001_pdb2pqr_Repair_177_r2_0001_out
     RDKit          3D

 82 86  0  0  0  0  0  0  0  0999 V2000
    0.8850    8.7220   -0.4080 C   0  0  0  0  0  0  0  0  0  0  0  0
   -0.1740    9.5240   -1.1700 C   0  0  2  0  0  0  0  0  0  0  0  0
   -0.9190    8.6630   -2.2090 C   0  0  0  0  0  0  0  0  0  0  0  0
   -2.3710    8.3590   -1.8300 C   0  0  0  0  0  0  0  0  0  0  0  0
   -2.9090    7.1860   -2.5920 C   0  0  2  0  0  0  0  0  0  0  0  0
   -3.8980    7.5140   -3.5760 O   0  0  0  0  0  0  0  0  0  0  0  0
   -4.3420    6.7010   -2.4770 C   0  0  0  0  0  0  0  0  0  0  0  0
   -5.3260    7.3790   -1.5770 C   0  0  0  0  0  0  0  0  0  0  0  0
   -4.6510    5.2870   -2.8610 C   0  0  0  0  0  0  0  0  0  0  0  0
    0.4750   10.7220   -1.8550 C   0  0  1  0  0  0  0  0  0  0  0  0
    0.1290   10.8060   -3.3650 C   0  0  0  0  0  0  0  0  0  0  0  0
    0.0260   12.3120   -3.7170 C   0  0  0  0  0  0  0  0  0  0  0  0
    0.6370   13.0400   -2.4970 C   0  0  1  0  0  0  0  0  0  0  0  0
    2.1800   12.9650   -2.7160 C   0  0  0  0  0  0  0  0  0  0  0  0
    0.1580   14.5100   -2.2590 C   0  0  2  0  0  0  0  0  0  0  0  0
    0.5020   15.4990   -3.3860 C   0  0  0  0  0  0  0  0  0  0  0  0
    1.8130   16.2000   -3.2410 C   0  0  0  0  0  0  0  0  0  0  0  0
    2.5480   16.2600   -2.1150 C   0  0  0  0  0  0  0  0  0  0  0  0
    2.0270   15.6620   -0.8020 C   0  0  1  0  0  0  0  0  0  0  0  0
    2.2480   16.6760    0.3520 C   0  0  0  0  0  0  0  0  0  0  0  0
    3.6980   17.1370    0.4550 C   0  0  0  0  0  0  0  0  0  0  0  0
    4.1620   17.7770   -0.8500 C   0  0  2  0  0  0  0  0  0  0  0  0
    3.4370   18.9950   -1.0490 O   0  0  0  0  0  0  0  0  0  0  0  0
    3.9780   16.8520   -2.0860 C   0  0  0  0  0  0  0  0  0  0  0  0
    4.9880   15.6800   -2.0130 C   0  0  0  0  0  0  0  0  0  0  0  0
    4.3500   17.6680   -3.3530 C   0  0  0  0  0  0  0  0  0  0  0  0
    0.5430   15.0940   -0.8390 C   0  0  1  0  0  0  0  0  0  0  0  0
   -0.4730   16.2390   -0.5390 C   0  0  0  0  0  0  0  0  0  0  0  0
    0.3690   14.0340    0.3120 C   0  0  0  0  0  0  0  0  0  0  0  0
    0.7460   12.5780   -0.0220 C   0  0  0  0  0  0  0  0  0  0  0  0
    0.0950   12.1310   -1.3350 C   0  0  2  0  0  0  0  0  0  0  0  0
   -1.4590   12.1750   -1.1380 C   0  0  0  0  0  0  0  0  0  0  0  0
    0.7272    8.8415    0.6740 H   0  0  0  0  0  0  0  0  0  0  0  0
    0.8020    7.6582   -0.6754 H   0  0  0  0  0  0  0  0  0  0  0  0
    1.8865    9.0902   -0.6754 H   0  0  0  0  0  0  0  0  0  0  0  0
   -0.9167    9.8717   -0.4368 H   0  0  0  0  0  0  0  0  0  0  0  0
   -0.9158    9.1984   -3.1699 H   0  0  0  0  0  0  0  0  0  0  0  0
   -0.3927    7.6986   -2.2637 H   0  0  0  0  0  0  0  0  0  0  0  0
   -2.4195    8.1375   -0.7536 H   0  0  0  0  0  0  0  0  0  0  0  0
   -2.9819    9.2392   -2.0793 H   0  0  0  0  0  0  0  0  0  0  0  0
   -1.9445    6.6628   -2.5146 H   0  0  0  0  0  0  0  0  0  0  0  0
   -5.0534    7.1912   -0.5280 H   0  0  0  0  0  0  0  0  0  0  0  0
   -5.3145    8.4618   -1.7706 H   0  0  0  0  0  0  0  0  0  0  0  0
   -6.3337    6.9826   -1.7706 H   0  0  0  0  0  0  0  0  0  0  0  0
   -4.7834    4.6810   -1.9526 H   0  0  0  0  0  0  0  0  0  0  0  0
   -5.5757    5.2624   -3.4562 H   0  0  0  0  0  0  0  0  0  0  0  0
   -3.8208    4.8789   -3.4562 H   0  0  0  0  0  0  0  0  0  0  0  0
    1.5315   10.5116   -1.6322 H   0  0  0  0  0  0  0  0  0  0  0  0
    0.9212   10.3307   -3.9622 H   0  0  0  0  0  0  0  0  0  0  0  0
   -0.8141   10.2838   -3.5838 H   0  0  0  0  0  0  0  0  0  0  0  0
    0.5969   12.5374   -4.6298 H   0  0  0  0  0  0  0  0  0  0  0  0
   -1.0101   12.6247   -3.9137 H   0  0  0  0  0  0  0  0  0  0  0  0
    2.6880   12.9403   -1.7406 H   0  0  0  0  0  0  0  0  0  0  0  0
    2.4263   12.0538   -3.2809 H   0  0  0  0  0  0  0  0  0  0  0  0
    2.5135   13.8480   -3.2809 H   0  0  0  0  0  0  0  0  0  0  0  0
   -0.9371   14.4079   -2.2765 H   0  0  0  0  0  0  0  0  0  0  0  0
    0.5175   14.9418   -4.3343 H   0  0  0  0  0  0  0  0  0  0  0  0
   -0.2684   16.2832   -3.3486 H   0  0  0  0  0  0  0  0  0  0  0  0
    2.2117   16.7106   -4.1300 H   0  0  0  0  0  0  0  0  0  0  0  0
    2.6239   14.7556   -0.6227 H   0  0  0  0  0  0  0  0  0  0  0  0
    1.6101   17.5548    0.1763 H   0  0  0  0  0  0  0  0  0  0  0  0
    1.9902   16.1709    1.2946 H   0  0  0  0  0  0  0  0  0  0  0  0
    3.7845   17.8734    1.2675 H   0  0  0  0  0  0  0  0  0  0  0  0
    4.3307   16.2609    0.6601 H   0  0  0  0  0  0  0  0  0  0  0  0
    5.2416   17.9670   -0.7585 H   0  0  0  0  0  0  0  0  0  0  0  0
    4.0700   19.7290   -0.9760 H   0  0  0  0  0  0  0  0  0  0  0  0
    5.1952   15.4396   -0.9598 H   0  0  0  0  0  0  0  0  0  0  0  0
    4.5627   14.7977   -2.5137 H   0  0  0  0  0  0  0  0  0  0  0  0
    5.9234   15.9704   -2.5137 H   0  0  0  0  0  0  0  0  0  0  0  0
    4.7890   18.6310   -3.0531 H   0  0  0  0  0  0  0  0  0  0  0  0
    5.0795   17.1031   -3.9519 H   0  0  0  0  0  0  0  0  0  0  0  0
    3.4451   17.8482   -3.9519 H   0  0  0  0  0  0  0  0  0  0  0  0
   -0.5794   16.3590    0.5492 H   0  0  0  0  0  0  0  0  0  0  0  0
   -0.1062   17.1788   -0.9773 H   0  0  0  0  0  0  0  0  0  0  0  0
   -1.4498   15.9866   -0.9773 H   0  0  0  0  0  0  0  0  0  0  0  0
    0.9958   14.3546    1.1572 H   0  0  0  0  0  0  0  0  0  0  0  0
   -0.7106   14.0111    0.5215 H   0  0  0  0  0  0  0  0  0  0  0  0
    1.8392   12.5022   -0.1182 H   0  0  0  0  0  0  0  0  0  0  0  0
    0.3850   11.9273    0.7881 H   0  0  0  0  0  0  0  0  0  0  0  0
   -1.6923   12.1816   -0.0630 H   0  0  0  0  0  0  0  0  0  0  0  0
   -1.8624   13.0849   -1.6063 H   0  0  0  0  0  0  0  0  0  0  0  0
   -1.9132   11.2894   -1.6063 H   0  0  0  0  0  0  0  0  0  0  0  0
  1  2  1  0
  2  3  1  0
  3  4  1  0
  4  5  1  0
  5  6  1  0
  6  7  1  0
  7  8  1  0
  7  9  1  0
  2 10  1  0
 10 11  1  0
 11 12  1  0
 12 13  1  0
 13 14  1  6
 13 15  1  0
 15 16  1  0
 16 17  1  0
 17 18  2  0
 18 19  1  0
 19 20  1  0
 20 21  1  0
 21 22  1  0
 22 23  1  0
 22 24  1  0
 24 25  1  0
 24 26  1  0
 19 27  1  0
 27 28  1  1
 27 29  1  0
 29 30  1  0
 30 31  1  0
 31 32  1  1
  7  5  1  0
 31 10  1  0
 31 13  1  0
 27 15  1  0
 24 18  1  0
  1 33  1  0
  1 34  1  0
  1 35  1  0
  2 36  1  1
  3 37  1  0
  3 38  1  0
  4 39  1  0
  4 40  1  0
  5 41  1  6
  8 42  1  0
  8 43  1  0
  8 44  1  0
  9 45  1  0
  9 46  1  0
  9 47  1  0
 10 48  1  6
 11 49  1  0
 11 50  1  0
 12 51  1  0
 12 52  1  0
 14 53  1  0
 14 54  1  0
 14 55  1  0
 15 56  1  1
 16 57  1  0
 16 58  1  0
 17 59  1  0
 19 60  1  1
 20 61  1  0
 20 62  1  0
 21 63  1  0
 21 64  1  0
 22 65  1  1
 23 66  1  0
 25 67  1  0
 25 68  1  0
 25 69  1  0
 26 70  1  0
 26 71  1  0
 26 72  1  0
 28 73  1  0
 28 74  1  0
 28 75  1  0
 29 76  1  0
 29 77  1  0
 30 78  1  0
 30 79  1  0
 32 80  1  0
 32 81  1  0
 32 82  1  0
M  END
>  <meeko>  (14) 
{"is_sidechain": [false], "intermolecular_energy": 2.731, "internal_energy": -0.839}

$$$$
EPH_relaxed_0001_pdb2pqr_Repair_177_r2_0001_out
     RDKit          3D

 82 86  0  0  0  0  0  0  0  0999 V2000
   -5.0490    5.9420   -1.9040 C   0  0  0  0  0  0  0  0  0  0  0  0
   -5.4040    7.4310   -1.8770 C   0  0  2  0  0  0  0  0  0  0  0  0
   -5.1930    8.0540   -0.4830 C   0  0  0  0  0  0  0  0  0  0  0  0
   -4.1260    9.1510   -0.4530 C   0  0  0  0  0  0  0  0  0  0  0  0
   -2.7920    8.6400   -0.9050 C   0  0  2  0  0  0  0  0  0  0  0  0
   -1.7170    8.8810    0.0120 O   0  0  0  0  0  0  0  0  0  0  0  0
   -1.6260    9.5430   -1.2600 C   0  0  0  0  0  0  0  0  0  0  0  0
   -1.7400   11.0330   -1.1790 C   0  0  0  0  0  0  0  0  0  0  0  0
   -0.5460    9.0030   -2.1450 C   0  0  0  0  0  0  0  0  0  0  0  0
   -6.8480    7.6290   -2.3230 C   0  0  1  0  0  0  0  0  0  0  0  0
   -7.1600    6.9210   -3.6690 C   0  0  0  0  0  0  0  0  0  0  0  0
   -8.6250    6.4220   -3.5820 C   0  0  0  0  0  0  0  0  0  0  0  0
   -9.2090    7.1390   -2.3420 C   0  0  1  0  0  0  0  0  0  0  0  0
   -9.5920    8.5650   -2.8480 C   0  0  0  0  0  0  0  0  0  0  0  0
  -10.4140    6.4330   -1.6380 C   0  0  2  0  0  0  0  0  0  0  0  0
  -11.6760    6.2800   -2.5040 C   0  0  0  0  0  0  0  0  0  0  0  0
  -12.6500    7.4090   -2.4160 C   0  0  0  0  0  0  0  0  0  0  0  0
  -12.6580    8.3630   -1.4670 C   0  0  0  0  0  0  0  0  0  0  0  0
  -11.6770    8.3100   -0.2890 C   0  0  1  0  0  0  0  0  0  0  0  0
  -12.4410    8.5820    1.0340 C   0  0  0  0  0  0  0  0  0  0  0  0
  -13.2350    9.8850    0.9930 C   0  0  0  0  0  0  0  0  0  0  0  0
  -14.2400    9.8750   -0.1560 C   0  0  2  0  0  0  0  0  0  0  0  0
  -15.2360    8.8840    0.1120 O   0  0  0  0  0  0  0  0  0  0  0  0
  -13.5860    9.6000   -1.5390 C   0  0  0  0  0  0  0  0  0  0  0  0
  -12.7350   10.8220   -1.9650 C   0  0  0  0  0  0  0  0  0  0  0  0
  -14.7240    9.4770   -2.5880 C   0  0  0  0  0  0  0  0  0  0  0  0
  -10.7600    7.0140   -0.2080 C   0  0  1  0  0  0  0  0  0  0  0  0
  -11.5040    5.8830    0.5640 C   0  0  0  0  0  0  0  0  0  0  0  0
   -9.4700    7.3490    0.6300 C   0  0  0  0  0  0  0  0  0  0  0  0
   -8.2720    7.9330   -0.1420 C   0  0  0  0  0  0  0  0  0  0  0  0
   -7.9610    7.0960   -1.3870 C   0  0  2  0  0  0  0  0  0  0  0  0
   -7.5510    5.6620   -0.9080 C   0  0  0  0  0  0  0  0  0  0  0  0
   -4.9597    5.5676   -0.8735 H   0  0  0  0  0  0  0  0  0  0  0  0
   -5.8398    5.3860   -2.4289 H   0  0  0  0  0  0  0  0  0  0  0  0
   -4.0924    5.8026   -2.4289 H   0  0  0  0  0  0  0  0  0  0  0  0
   -4.7256    7.9452   -2.5737 H   0  0  0  0  0  0  0  0  0  0  0  0
   -6.1468    8.4884   -0.1490 H   0  0  0  0  0  0  0  0  0  0  0  0
   -4.8434    7.2481    0.1791 H   0  0  0  0  0  0  0  0  0  0  0  0
   -4.4379    9.9698   -1.1180 H   0  0  0  0  0  0  0  0  0  0  0  0
   -4.0248    9.5022    0.5845 H   0  0  0  0  0  0  0  0  0  0  0  0
   -3.2672    7.8046   -1.4400 H   0  0  0  0  0  0  0  0  0  0  0  0
   -1.7636   11.3421   -0.1236 H   0  0  0  0  0  0  0  0  0  0  0  0
   -0.8745   11.4946   -1.6769 H   0  0  0  0  0  0  0  0  0  0  0  0
   -2.6656   11.3575   -1.6769 H   0  0  0  0  0  0  0  0  0  0  0  0
    0.2669    8.5966   -1.5253 H   0  0  0  0  0  0  0  0  0  0  0  0
   -0.9573    8.2045   -2.7800 H   0  0  0  0  0  0  0  0  0  0  0  0
   -0.1540    9.8112   -2.7800 H   0  0  0  0  0  0  0  0  0  0  0  0
   -6.8809    8.7279   -2.3584 H   0  0  0  0  0  0  0  0  0  0  0  0
   -7.0497    7.6287   -4.5039 H   0  0  0  0  0  0  0  0  0  0  0  0
   -6.4675    6.0848   -3.8455 H   0  0  0  0  0  0  0  0  0  0  0  0
   -9.1835    6.6976   -4.4887 H   0  0  0  0  0  0  0  0  0  0  0  0
   -8.6882    5.3270   -3.4987 H   0  0  0  0  0  0  0  0  0  0  0  0
   -9.7692    9.2247   -1.9858 H   0  0  0  0  0  0  0  0  0  0  0  0
   -8.7710    8.9706   -3.4574 H   0  0  0  0  0  0  0  0  0  0  0  0
  -10.5058    8.5047   -3.4574 H   0  0  0  0  0  0  0  0  0  0  0  0
  -10.0328    5.4128   -1.4832 H   0  0  0  0  0  0  0  0  0  0  0  0
  -11.3591    6.1853   -3.5531 H   0  0  0  0  0  0  0  0  0  0  0  0
  -12.2023    5.3931   -2.1214 H   0  0  0  0  0  0  0  0  0  0  0  0
  -13.4267    7.4654   -3.1929 H   0  0  0  0  0  0  0  0  0  0  0  0
  -10.9436    9.1100   -0.4681 H   0  0  0  0  0  0  0  0  0  0  0  0
  -13.1372    7.7502    1.2168 H   0  0  0  0  0  0  0  0  0  0  0  0
  -11.6958    8.6698    1.8384 H   0  0  0  0  0  0  0  0  0  0  0  0
  -13.7756   10.0073    1.9432 H   0  0  0  0  0  0  0  0  0  0  0  0
  -12.5341   10.7188    0.8394 H   0  0  0  0  0  0  0  0  0  0  0  0
  -14.6853   10.8791   -0.2145 H   0  0  0  0  0  0  0  0  0  0  0  0
  -15.9240    8.9670   -0.5700 H   0  0  0  0  0  0  0  0  0  0  0  0
  -12.3705   11.3454   -1.0688 H   0  0  0  0  0  0  0  0  0  0  0  0
  -11.8780   10.4810   -2.5644 H   0  0  0  0  0  0  0  0  0  0  0  0
  -13.3521   11.5075   -2.5644 H   0  0  0  0  0  0  0  0  0  0  0  0
  -15.6894    9.3727   -2.0712 H   0  0  0  0  0  0  0  0  0  0  0  0
  -14.7409   10.3785   -3.2180 H   0  0  0  0  0  0  0  0  0  0  0  0
  -14.5479    8.5927   -3.2180 H   0  0  0  0  0  0  0  0  0  0  0  0
  -11.3967    6.0461    1.6465 H   0  0  0  0  0  0  0  0  0  0  0  0
  -12.5706    5.8959    0.2952 H   0  0  0  0  0  0  0  0  0  0  0  0
  -11.0699    4.9087    0.2952 H   0  0  0  0  0  0  0  0  0  0  0  0
   -9.7553    8.0782    1.4026 H   0  0  0  0  0  0  0  0  0  0  0  0
   -9.1187    6.3809    1.0166 H   0  0  0  0  0  0  0  0  0  0  0  0
   -8.5096    8.9618   -0.4503 H   0  0  0  0  0  0  0  0  0  0  0  0
   -7.3912    7.9220    0.5169 H   0  0  0  0  0  0  0  0  0  0  0  0
   -7.5422    5.6313    0.1915 H   0  0  0  0  0  0  0  0  0  0  0  0
   -8.2750    4.9270   -1.2896 H   0  0  0  0  0  0  0  0  0  0  0  0
   -6.5479    5.4208   -1.2896 H   0  0  0  0  0  0  0  0  0  0  0  0
  1  2  1  0
  2  3  1  0
  3  4  1  0
  4  5  1  0
  5  6  1  0
  6  7  1  0
  7  8  1  0
  7  9  1  0
  2 10  1  0
 10 11  1  0
 11 12  1  0
 12 13  1  0
 13 14  1  6
 13 15  1  0
 15 16  1  0
 16 17  1  0
 17 18  2  0
 18 19  1  0
 19 20  1  0
 20 21  1  0
 21 22  1  0
 22 23  1  0
 22 24  1  0
 24 25  1  0
 24 26  1  0
 19 27  1  0
 27 28  1  1
 27 29  1  0
 29 30  1  0
 30 31  1  0
 31 32  1  1
  7  5  1  0
 31 10  1  0
 31 13  1  0
 27 15  1  0
 24 18  1  0
  1 33  1  0
  1 34  1  0
  1 35  1  0
  2 36  1  6
  3 37  1  0
  3 38  1  0
  4 39  1  0
  4 40  1  0
  5 41  1  6
  8 42  1  0
  8 43  1  0
  8 44  1  0
  9 45  1  0
  9 46  1  0
  9 47  1  0
 10 48  1  6
 11 49  1  0
 11 50  1  0
 12 51  1  0
 12 52  1  0
 14 53  1  0
 14 54  1  0
 14 55  1  0
 15 56  1  1
 16 57  1  0
 16 58  1  0
 17 59  1  0
 19 60  1  6
 20 61  1  0
 20 62  1  0
 21 63  1  0
 21 64  1  0
 22 65  1  6
 23 66  1  0
 25 67  1  0
 25 68  1  0
 25 69  1  0
 26 70  1  0
 26 71  1  0
 26 72  1  0
 28 73  1  0
 28 74  1  0
 28 75  1  0
 29 76  1  0
 29 77  1  0
 30 78  1  0
 30 79  1  0
 32 80  1  0
 32 81  1  0
 32 82  1  0
M  END
>  <meeko>  (15) 
{"is_sidechain": [false], "intermolecular_energy": 2.731, "internal_energy": -0.839}

$$$$
EPH_relaxed_0001_pdb2pqr_Repair_177_r2_0001_out
     RDKit          3D

 82 86  0  0  0  0  0  0  0  0999 V2000
    3.8230   19.1290    0.4300 C   0  0  0  0  0  0  0  0  0  0  0  0
    2.6090   18.9520   -0.4860 C   0  0  2  0  0  0  0  0  0  0  0  0
    1.2880   18.8810    0.3070 C   0  0  0  0  0  0  0  0  0  0  0  0
    0.4950   20.1910    0.3000 C   0  0  0  0  0  0  0  0  0  0  0  0
   -0.9780   19.9470    0.4340 C   0  0  2  0  0  0  0  0  0  0  0  0
   -1.4400   18.7280   -0.1610 O   0  0  0  0  0  0  0  0  0  0  0  0
   -1.9360   19.9450   -0.7420 C   0  0  0  0  0  0  0  0  0  0  0  0
   -1.4570   20.1920   -2.1390 C   0  0  0  0  0  0  0  0  0  0  0  0
   -3.3900   20.1880   -0.4820 C   0  0  0  0  0  0  0  0  0  0  0  0
    2.7760   17.6970   -1.3340 C   0  0  1  0  0  0  0  0  0  0  0  0
    4.1900   17.5850   -1.9630 C   0  0  0  0  0  0  0  0  0  0  0  0
    4.5480   16.0770   -1.9920 C   0  0  0  0  0  0  0  0  0  0  0  0
    3.2150   15.3530   -1.6930 C   0  0  1  0  0  0  0  0  0  0  0  0
    2.4570   15.3280   -3.0570 C   0  0  0  0  0  0  0  0  0  0  0  0
    3.3290   13.9230   -1.0700 C   0  0  2  0  0  0  0  0  0  0  0  0
    4.0300   12.8790   -1.9560 C   0  0  0  0  0  0  0  0  0  0  0  0
    3.1320   12.1060   -2.8640 C   0  0  0  0  0  0  0  0  0  0  0  0
    1.7910   12.0390   -2.7650 C   0  0  0  0  0  0  0  0  0  0  0  0
    1.0520   12.7080   -1.5990 C   0  0  1  0  0  0  0  0  0  0  0  0
    0.0100   11.7210   -1.0120 C   0  0  0  0  0  0  0  0  0  0  0  0
   -0.9440   11.1770   -2.0710 C   0  0  0  0  0  0  0  0  0  0  0  0
   -0.1750   10.4680   -3.1840 C   0  0  2  0  0  0  0  0  0  0  0  0
    0.4330    9.2910   -2.6450 O   0  0  0  0  0  0  0  0  0  0  0  0
    0.9100   11.3620   -3.8450 C   0  0  0  0  0  0  0  0  0  0  0  0
    0.2300   12.4730   -4.6830 C   0  0  0  0  0  0  0  0  0  0  0  0
    1.7050   10.4850   -4.8500 C   0  0  0  0  0  0  0  0  0  0  0  0
    1.9720   13.3630   -0.4800 C   0  0  1  0  0  0  0  0  0  0  0  0
    2.3580   12.2920    0.5850 C   0  0  0  0  0  0  0  0  0  0  0  0
    1.1480   14.4690    0.2800 C   0  0  0  0  0  0  0  0  0  0  0  0
    1.1710   15.8880   -0.3190 C   0  0  0  0  0  0  0  0  0  0  0  0
    2.6060   16.3310   -0.6230 C   0  0  2  0  0  0  0  0  0  0  0  0
    3.3870   16.3870    0.7340 C   0  0  0  0  0  0  0  0  0  0  0  0
    3.4998   19.0819    1.4804 H   0  0  0  0  0  0  0  0  0  0  0  0
    4.5503   18.3274    0.2339 H   0  0  0  0  0  0  0  0  0  0  0  0
    4.2911   20.1049    0.2339 H   0  0  0  0  0  0  0  0  0  0  0  0
    2.5550   19.8363   -1.1380 H   0  0  0  0  0  0  0  0  0  0  0  0
    0.6602   18.0926   -0.1338 H   0  0  0  0  0  0  0  0  0  0  0  0
    1.5523   18.6706    1.3539 H   0  0  0  0  0  0  0  0  0  0  0  0
    0.8310   20.8158    1.1407 H   0  0  0  0  0  0  0  0  0  0  0  0
    0.6735   20.6952   -0.6612 H   0  0  0  0  0  0  0  0  0  0  0  0
   -0.9997   20.4684    1.4023 H   0  0  0  0  0  0  0  0  0  0  0  0
   -0.4797   20.6959   -2.1078 H   0  0  0  0  0  0  0  0  0  0  0  0
   -1.3581   19.2325   -2.6677 H   0  0  0  0  0  0  0  0  0  0  0  0
   -2.1813   20.8290   -2.6677 H   0  0  0  0  0  0  0  0  0  0  0  0
   -3.5685   20.2178    0.6030 H   0  0  0  0  0  0  0  0  0  0  0  0
   -3.6869   21.1482   -0.9290 H   0  0  0  0  0  0  0  0  0  0  0  0
   -3.9830   19.3765   -0.9290 H   0  0  0  0  0  0  0  0  0  0  0  0
    1.9590   17.8508   -2.0543 H   0  0  0  0  0  0  0  0  0  0  0  0
    4.1835   17.9926   -2.9847 H   0  0  0  0  0  0  0  0  0  0  0  0
    4.9281   18.1552   -1.3799 H   0  0  0  0  0  0  0  0  0  0  0  0
    4.9331   15.7884   -2.9811 H   0  0  0  0  0  0  0  0  0  0  0  0
    5.3334   15.8210   -1.2656 H   0  0  0  0  0  0  0  0  0  0  0  0
    1.3730   15.2922   -2.8735 H   0  0  0  0  0  0  0  0  0  0  0  0
    2.7023   16.2347   -3.6295 H   0  0  0  0  0  0  0  0  0  0  0  0
    2.7615   14.4394   -3.6295 H   0  0  0  0  0  0  0  0  0  0  0  0
    4.0027   14.0908   -0.2168 H   0  0  0  0  0  0  0  0  0  0  0  0
    4.7714   13.4032   -2.5769 H   0  0  0  0  0  0  0  0  0  0  0  0
    4.4721   12.1437   -1.2676 H   0  0  0  0  0  0  0  0  0  0  0  0
    3.6056   11.5441   -3.6825 H   0  0  0  0  0  0  0  0  0  0  0  0
    0.5381   13.5821   -2.0254 H   0  0  0  0  0  0  0  0  0  0  0  0
    0.5445   10.8767   -0.5522 H   0  0  0  0  0  0  0  0  0  0  0  0
   -0.5910   12.2713   -0.2732 H   0  0  0  0  0  0  0  0  0  0  0  0
   -1.6359   10.4632   -1.6000 H   0  0  0  0  0  0  0  0  0  0  0  0
   -1.5002   12.0189   -2.5090 H   0  0  0  0  0  0  0  0  0  0  0  0
   -0.8964   10.2159   -3.9752 H   0  0  0  0  0  0  0  0  0  0  0  0
   -0.2500    8.8040   -2.1540 H   0  0  0  0  0  0  0  0  0  0  0  0
   -0.2239   13.2146   -4.0092 H   0  0  0  0  0  0  0  0  0  0  0  0
    0.9815   12.9656   -5.3175 H   0  0  0  0  0  0  0  0  0  0  0  0
   -0.5506   12.0279   -5.3175 H   0  0  0  0  0  0  0  0  0  0  0  0
    2.3435    9.7806   -4.2967 H   0  0  0  0  0  0  0  0  0  0  0  0
    1.0019    9.9234   -5.4826 H   0  0  0  0  0  0  0  0  0  0  0  0
    2.3328   11.1298   -5.4826 H   0  0  0  0  0  0  0  0  0  0  0  0
    2.2086   12.7066    1.5928 H   0  0  0  0  0  0  0  0  0  0  0  0
    1.7240   11.4023    0.4568 H   0  0  0  0  0  0  0  0  0  0  0  0
    3.4138   12.0114    0.4568 H   0  0  0  0  0  0  0  0  0  0  0  0
    0.0993   14.1387    0.3127 H   0  0  0  0  0  0  0  0  0  0  0  0
    1.6328   14.5640    1.2628 H   0  0  0  0  0  0  0  0  0  0  0  0
    0.5871   15.8947   -1.2512 H   0  0  0  0  0  0  0  0  0  0  0  0
    0.7360   16.5849    0.4125 H   0  0  0  0  0  0  0  0  0  0  0  0
    2.6738   16.3359    1.5699 H   0  0  0  0  0  0  0  0  0  0  0  0
    4.0820   15.5364    0.7924 H   0  0  0  0  0  0  0  0  0  0  0  0
    3.9535   17.3281    0.7924 H   0  0  0  0  0  0  0  0  0  0  0  0
  1  2  1  0
  2  3  1  0
  3  4  1  0
  4  5  1  0
  5  6  1  0
  6  7  1  0
  7  8  1  0
  7  9  1  0
  2 10  1  0
 10 11  1  0
 11 12  1  0
 12 13  1  0
 13 14  1  6
 13 15  1  0
 15 16  1  0
 16 17  1  0
 17 18  2  0
 18 19  1  0
 19 20  1  0
 20 21  1  0
 21 22  1  0
 22 23  1  0
 22 24  1  0
 24 25  1  0
 24 26  1  0
 19 27  1  0
 27 28  1  1
 27 29  1  0
 29 30  1  0
 30 31  1  0
 31 32  1  1
  7  5  1  0
 31 10  1  0
 31 13  1  0
 27 15  1  0
 24 18  1  0
  1 33  1  0
  1 34  1  0
  1 35  1  0
  2 36  1  6
  3 37  1  0
  3 38  1  0
  4 39  1  0
  4 40  1  0
  5 41  1  1
  8 42  1  0
  8 43  1  0
  8 44  1  0
  9 45  1  0
  9 46  1  0
  9 47  1  0
 10 48  1  6
 11 49  1  0
 11 50  1  0
 12 51  1  0
 12 52  1  0
 14 53  1  0
 14 54  1  0
 14 55  1  0
 15 56  1  1
 16 57  1  0
 16 58  1  0
 17 59  1  0
 19 60  1  6
 20 61  1  0
 20 62  1  0
 21 63  1  0
 21 64  1  0
 22 65  1  6
 23 66  1  0
 25 67  1  0
 25 68  1  0
 25 69  1  0
 26 70  1  0
 26 71  1  0
 26 72  1  0
 28 73  1  0
 28 74  1  0
 28 75  1  0
 29 76  1  0
 29 77  1  0
 30 78  1  0
 30 79  1  0
 32 80  1  0
 32 81  1  0
 32 82  1  0
M  END
>  <meeko>  (16) 
{"is_sidechain": [false], "intermolecular_energy": 2.731, "internal_energy": -0.839}

$$$$
EPH_relaxed_0001_pdb2pqr_Repair_177_r2_0001_out
     RDKit          3D

 82 86  0  0  0  0  0  0  0  0999 V2000
    0.3890    9.9830   -2.1150 C   0  0  0  0  0  0  0  0  0  0  0  0
    1.0730   10.1190   -0.7520 C   0  0  2  0  0  0  0  0  0  0  0  0
    0.0570   10.1590    0.4070 C   0  0  0  0  0  0  0  0  0  0  0  0
    0.6610   10.6030    1.7410 C   0  0  0  0  0  0  0  0  0  0  0  0
   -0.1250   11.7170    2.3630 C   0  0  2  0  0  0  0  0  0  0  0  0
    0.4610   13.0170    2.2180 O   0  0  0  0  0  0  0  0  0  0  0  0
    0.3570   12.5140    3.5600 C   0  0  0  0  0  0  0  0  0  0  0  0
    1.6760   12.2300    4.2070 C   0  0  0  0  0  0  0  0  0  0  0  0
   -0.6550   13.2330    4.3960 C   0  0  0  0  0  0  0  0  0  0  0  0
    1.9380   11.3740   -0.7290 C   0  0  1  0  0  0  0  0  0  0  0  0
    3.3260   11.1550   -1.3890 C   0  0  0  0  0  0  0  0  0  0  0  0
    3.7020   12.4860   -2.0910 C   0  0  0  0  0  0  0  0  0  0  0  0
    2.6900   13.5170   -1.5390 C   0  0  1  0  0  0  0  0  0  0  0  0
    3.2660   13.9400   -0.1510 C   0  0  0  0  0  0  0  0  0  0  0  0
    2.4030   14.7570   -2.4460 C   0  0  2  0  0  0  0  0  0  0  0  0
    3.6170   15.6620   -2.7190 C   0  0  0  0  0  0  0  0  0  0  0  0
    3.8160   16.7750   -1.7440 C   0  0  0  0  0  0  0  0  0  0  0  0
    2.8990   17.2130   -0.8600 C   0  0  0  0  0  0  0  0  0  0  0  0
    1.4770   16.6370   -0.8490 C   0  0  1  0  0  0  0  0  0  0  0  0
    0.4500   17.7960   -0.7670 C   0  0  0  0  0  0  0  0  0  0  0  0
    0.7120   18.7270    0.4130 C   0  0  0  0  0  0  0  0  0  0  0  0
    2.1140   19.3250    0.3360 C   0  0  2  0  0  0  0  0  0  0  0  0
    2.1820   20.1940   -0.7990 O   0  0  0  0  0  0  0  0  0  0  0  0
    3.2330   18.2510    0.2390 C   0  0  0  0  0  0  0  0  0  0  0  0
    3.3570   17.5050    1.5910 C   0  0  0  0  0  0  0  0  0  0  0  0
    4.5840   18.9870    0.0240 C   0  0  0  0  0  0  0  0  0  0  0  0
    1.1390   15.6030   -2.0080 C   0  0  1  0  0  0  0  0  0  0  0  0
    0.6520   16.3660   -3.2770 C   0  0  0  0  0  0  0  0  0  0  0  0
   -0.0600   14.6920   -1.5500 C   0  0  0  0  0  0  0  0  0  0  0  0
    0.2970   13.4180   -0.7590 C   0  0  0  0  0  0  0  0  0  0  0  0
    1.3980   12.6240   -1.4670 C   0  0  2  0  0  0  0  0  0  0  0  0
    0.8400   12.1660   -2.8580 C   0  0  0  0  0  0  0  0  0  0  0  0
   -0.6803    9.7704   -1.9690 H   0  0  0  0  0  0  0  0  0  0  0  0
    0.5028   10.9214   -2.6776 H   0  0  0  0  0  0  0  0  0  0  0  0
    0.8531    9.1596   -2.6776 H   0  0  0  0  0  0  0  0  0  0  0  0
    1.7031    9.2290   -0.6075 H   0  0  0  0  0  0  0  0  0  0  0  0
   -0.7471   10.8603    0.1396 H   0  0  0  0  0  0  0  0  0  0  0  0
   -0.3106    9.1317    0.5472 H   0  0  0  0  0  0  0  0  0  0  0  0
    0.6711    9.7459    2.4304 H   0  0  0  0  0  0  0  0  0  0  0  0
    1.6809   10.9683    1.5505 H   0  0  0  0  0  0  0  0  0  0  0  0
   -1.0714   11.1958    2.1565 H   0  0  0  0  0  0  0  0  0  0  0  0
    1.5608   12.2548    5.3007 H   0  0  0  0  0  0  0  0  0  0  0  0
    2.0294   11.2352    3.8980 H   0  0  0  0  0  0  0  0  0  0  0  0
    2.4075   12.9912    3.8980 H   0  0  0  0  0  0  0  0  0  0  0  0
   -0.4307   13.0736    5.4610 H   0  0  0  0  0  0  0  0  0  0  0  0
   -0.6189   14.3091    4.1707 H   0  0  0  0  0  0  0  0  0  0  0  0
   -1.6592   12.8447    4.1707 H   0  0  0  0  0  0  0  0  0  0  0  0
    1.9640   11.5599    0.3549 H   0  0  0  0  0  0  0  0  0  0  0  0
    4.0749   10.9061   -0.6227 H   0  0  0  0  0  0  0  0  0  0  0  0
    3.2946   10.3237   -2.1087 H   0  0  0  0  0  0  0  0  0  0  0  0
    4.7319   12.7800   -1.8402 H   0  0  0  0  0  0  0  0  0  0  0  0
    3.6603   12.4059   -3.1873 H   0  0  0  0  0  0  0  0  0  0  0  0
    2.6581   13.4936    0.6497 H   0  0  0  0  0  0  0  0  0  0  0  0
    4.3045   13.5883   -0.0624 H   0  0  0  0  0  0  0  0  0  0  0  0
    3.2413   15.0361   -0.0624 H   0  0  0  0  0  0  0  0  0  0  0  0
    2.1559   14.2896   -3.4106 H   0  0  0  0  0  0  0  0  0  0  0  0
    4.5194   15.0331   -2.7055 H   0  0  0  0  0  0  0  0  0  0  0  0
    3.4271   16.1401   -3.6913 H   0  0  0  0  0  0  0  0  0  0  0  0
    4.7934   17.2796   -1.7479 H   0  0  0  0  0  0  0  0  0  0  0  0
    1.4084   16.0128    0.0542 H   0  0  0  0  0  0  0  0  0  0  0  0
    0.5038   18.3813   -1.6968 H   0  0  0  0  0  0  0  0  0  0  0  0
   -0.5459   17.3505   -0.6263 H   0  0  0  0  0  0  0  0  0  0  0  0
   -0.0277   19.5411    0.4002 H   0  0  0  0  0  0  0  0  0  0  0  0
    0.6290   18.1460    1.3434 H   0  0  0  0  0  0  0  0  0  0  0  0
    2.2894   19.8774    1.2709 H   0  0  0  0  0  0  0  0  0  0  0  0
    1.8540   21.0670   -0.5210 H   0  0  0  0  0  0  0  0  0  0  0  0
    3.2379   18.2213    2.4173 H   0  0  0  0  0  0  0  0  0  0  0  0
    2.5746   16.7347    1.6579 H   0  0  0  0  0  0  0  0  0  0  0  0
    4.3465   17.0293    1.6579 H   0  0  0  0  0  0  0  0  0  0  0  0
    5.0289   19.2294    1.0004 H   0  0  0  0  0  0  0  0  0  0  0  0
    5.2695   18.3377   -0.5403 H   0  0  0  0  0  0  0  0  0  0  0  0
    4.4102   19.9151   -0.5403 H   0  0  0  0  0  0  0  0  0  0  0  0
    0.0832   17.2572   -2.9733 H   0  0  0  0  0  0  0  0  0  0  0  0
    1.5216   16.6729   -3.8766 H   0  0  0  0  0  0  0  0  0  0  0  0
    0.0075   15.7064   -3.8766 H   0  0  0  0  0  0  0  0  0  0  0  0
   -0.7191   15.3034   -0.9161 H   0  0  0  0  0  0  0  0  0  0  0  0
   -0.5202   14.3323   -2.4821 H   0  0  0  0  0  0  0  0  0  0  0  0
    0.6474   13.7034    0.2439 H   0  0  0  0  0  0  0  0  0  0  0  0
   -0.6006   12.7862   -0.6879 H   0  0  0  0  0  0  0  0  0  0  0  0
   -0.0021   11.4748   -2.7057 H   0  0  0  0  0  0  0  0  0  0  0  0
    0.4954   13.0451   -3.4223 H   0  0  0  0  0  0  0  0  0  0  0  0
    1.6350   11.6566   -3.4223 H   0  0  0  0  0  0  0  0  0  0  0  0
  1  2  1  0
  2  3  1  0
  3  4  1  0
  4  5  1  0
  5  6  1  0
  6  7  1  0
  7  8  1  0
  7  9  1  0
  2 10  1  0
 10 11  1  0
 11 12  1  0
 12 13  1  0
 13 14  1  1
 13 15  1  0
 15 16  1  0
 16 17  1  0
 17 18  2  0
 18 19  1  0
 19 20  1  0
 20 21  1  0
 21 22  1  0
 22 23  1  0
 22 24  1  0
 24 25  1  0
 24 26  1  0
 19 27  1  0
 27 28  1  6
 27 29  1  0
 29 30  1  0
 30 31  1  0
 31 32  1  6
  7  5  1  0
 31 10  1  0
 31 13  1  0
 27 15  1  0
 24 18  1  0
  1 33  1  0
  1 34  1  0
  1 35  1  0
  2 36  1  1
  3 37  1  0
  3 38  1  0
  4 39  1  0
  4 40  1  0
  5 41  1  1
  8 42  1  0
  8 43  1  0
  8 44  1  0
  9 45  1  0
  9 46  1  0
  9 47  1  0
 10 48  1  1
 11 49  1  0
 11 50  1  0
 12 51  1  0
 12 52  1  0
 14 53  1  0
 14 54  1  0
 14 55  1  0
 15 56  1  6
 16 57  1  0
 16 58  1  0
 17 59  1  0
 19 60  1  1
 20 61  1  0
 20 62  1  0
 21 63  1  0
 21 64  1  0
 22 65  1  1
 23 66  1  0
 25 67  1  0
 25 68  1  0
 25 69  1  0
 26 70  1  0
 26 71  1  0
 26 72  1  0
 28 73  1  0
 28 74  1  0
 28 75  1  0
 29 76  1  0
 29 77  1  0
 30 78  1  0
 30 79  1  0
 32 80  1  0
 32 81  1  0
 32 82  1  0
M  END
>  <meeko>  (17) 
{"is_sidechain": [false], "intermolecular_energy": 2.731, "internal_energy": -0.839}

$$$$
EPH_relaxed_0001_pdb2pqr_Repair_177_r2_0001_out
     RDKit          3D

 82 86  0  0  0  0  0  0  0  0999 V2000
    0.4800   10.4790   -3.8890 C   0  0  0  0  0  0  0  0  0  0  0  0
    1.3140   10.2500   -2.6250 C   0  0  2  0  0  0  0  0  0  0  0  0
    0.8610    8.9970   -1.8500 C   0  0  0  0  0  0  0  0  0  0  0  0
   -0.5750    8.5660   -2.1600 C   0  0  0  0  0  0  0  0  0  0  0  0
   -1.4530    8.6500   -0.9480 C   0  0  2  0  0  0  0  0  0  0  0  0
   -2.8420    8.8690   -1.2290 O   0  0  0  0  0  0  0  0  0  0  0  0
   -2.1660    9.9190   -0.5180 C   0  0  0  0  0  0  0  0  0  0  0  0
   -2.0310   11.1910   -1.2940 C   0  0  0  0  0  0  0  0  0  0  0  0
   -2.5920   10.0500    0.9110 C   0  0  0  0  0  0  0  0  0  0  0  0
    1.2370   11.4760   -1.7240 C   0  0  1  0  0  0  0  0  0  0  0  0
    1.4970   11.1380   -0.2310 C   0  0  0  0  0  0  0  0  0  0  0  0
    2.2490   12.3490    0.3780 C   0  0  0  0  0  0  0  0  0  0  0  0
    2.1040   13.4700   -0.6790 C   0  0  1  0  0  0  0  0  0  0  0  0
    0.6820   14.0680   -0.4360 C   0  0  0  0  0  0  0  0  0  0  0  0
    3.2060   14.5780   -0.6660 C   0  0  2  0  0  0  0  0  0  0  0  0
    3.2820   15.4090    0.6260 C   0  0  0  0  0  0  0  0  0  0  0  0
    2.4400   16.6420    0.6420 C   0  0  0  0  0  0  0  0  0  0  0  0
    1.8770   17.2180   -0.4360 C   0  0  0  0  0  0  0  0  0  0  0  0
    2.1460   16.6810   -1.8480 C   0  0  1  0  0  0  0  0  0  0  0  0
    2.4730   17.8620   -2.7980 C   0  0  0  0  0  0  0  0  0  0  0  0
    1.3950   18.9420   -2.7810 C   0  0  0  0  0  0  0  0  0  0  0  0
    1.1970   19.4920   -1.3710 C   0  0  2  0  0  0  0  0  0  0  0  0
    2.3810   20.1950   -0.9800 O   0  0  0  0  0  0  0  0  0  0  0  0
    0.8720   18.3910   -0.3230 C   0  0  0  0  0  0  0  0  0  0  0  0
   -0.5520   17.8370   -0.5750 C   0  0  0  0  0  0  0  0  0  0  0  0
    0.8370   19.0600    1.0770 C   0  0  0  0  0  0  0  0  0  0  0  0
    3.2090   15.5030   -1.9500 C   0  0  1  0  0  0  0  0  0  0  0  0
    4.6470   16.0940   -2.0700 C   0  0  0  0  0  0  0  0  0  0  0  0
    2.9510   14.6910   -3.2740 C   0  0  0  0  0  0  0  0  0  0  0  0
    1.9390   13.5320   -3.1920 C   0  0  0  0  0  0  0  0  0  0  0  0
    2.2420   12.6240   -1.9970 C   0  0  2  0  0  0  0  0  0  0  0  0
    3.6560   11.9900   -2.2230 C   0  0  0  0  0  0  0  0  0  0  0  0
   -0.5450   10.7605   -3.6060 H   0  0  0  0  0  0  0  0  0  0  0  0
    0.9308   11.2866   -4.4844 H   0  0  0  0  0  0  0  0  0  0  0  0
    0.4552    9.5544   -4.4844 H   0  0  0  0  0  0  0  0  0  0  0  0
    2.3549   10.0845   -2.9399 H   0  0  0  0  0  0  0  0  0  0  0  0
    1.5356    8.1671   -2.1072 H   0  0  0  0  0  0  0  0  0  0  0  0
    0.8960    9.2511   -0.7803 H   0  0  0  0  0  0  0  0  0  0  0  0
   -0.9833    9.2228   -2.9422 H   0  0  0  0  0  0  0  0  0  0  0  0
   -0.5537    7.5188   -2.4961 H   0  0  0  0  0  0  0  0  0  0  0  0
   -0.8084    7.9448   -0.4028 H   0  0  0  0  0  0  0  0  0  0  0  0
   -1.9411   12.0376   -0.5975 H   0  0  0  0  0  0  0  0  0  0  0  0
   -1.1332   11.1405   -1.9275 H   0  0  0  0  0  0  0  0  0  0  0  0
   -2.9194   11.3301   -1.9275 H   0  0  0  0  0  0  0  0  0  0  0  0
   -1.7500    9.7911    1.5698 H   0  0  0  0  0  0  0  0  0  0  0  0
   -2.9055   11.0861    1.1066 H   0  0  0  0  0  0  0  0  0  0  0  0
   -3.4335    9.3691    1.1066 H   0  0  0  0  0  0  0  0  0  0  0  0
    0.2139   11.8088   -1.9531 H   0  0  0  0  0  0  0  0  0  0  0  0
    0.5429   10.9819    0.2937 H   0  0  0  0  0  0  0  0  0  0  0  0
    2.0885   10.2158   -0.1323 H   0  0  0  0  0  0  0  0  0  0  0  0
    1.7902   12.6519    1.3308 H   0  0  0  0  0  0  0  0  0  0  0  0
    3.3014   12.1181    0.5996 H   0  0  0  0  0  0  0  0  0  0  0  0
    0.4969   14.1458    0.6455 H   0  0  0  0  0  0  0  0  0  0  0  0
    0.6219   15.0676   -0.8912 H   0  0  0  0  0  0  0  0  0  0  0  0
   -0.0744   13.4118   -0.8912 H   0  0  0  0  0  0  0  0  0  0  0  0
    4.1339   13.9879   -0.6948 H   0  0  0  0  0  0  0  0  0  0  0  0
    2.9626   14.7685    1.4613 H   0  0  0  0  0  0  0  0  0  0  0  0
    4.3243   15.7513    0.7067 H   0  0  0  0  0  0  0  0  0  0  0  0
    2.2652   17.1198    1.6173 H   0  0  0  0  0  0  0  0  0  0  0  0
    1.2152   16.1909   -2.1697 H   0  0  0  0  0  0  0  0  0  0  0  0
    3.4274   18.3114   -2.4864 H   0  0  0  0  0  0  0  0  0  0  0  0
    2.5290   17.4620   -3.8212 H   0  0  0  0  0  0  0  0  0  0  0  0
    1.6968   19.7626   -3.4485 H   0  0  0  0  0  0  0  0  0  0  0  0
    0.4477   18.4983   -3.1213 H   0  0  0  0  0  0  0  0  0  0  0  0
    0.3267   20.1642   -1.3985 H   0  0  0  0  0  0  0  0  0  0  0  0
    2.6610   19.8420   -0.1180 H   0  0  0  0  0  0  0  0  0  0  0  0
   -1.0464   17.6446    0.3886 H   0  0  0  0  0  0  0  0  0  0  0  0
   -1.1362   18.5735   -1.1463 H   0  0  0  0  0  0  0  0  0  0  0  0
   -0.4849   16.8994   -1.1463 H   0  0  0  0  0  0  0  0  0  0  0  0
    0.8776   18.2838    1.8554 H   0  0  0  0  0  0  0  0  0  0  0  0
    1.7012   19.7321    1.1839 H   0  0  0  0  0  0  0  0  0  0  0  0
   -0.0926   19.6382    1.1839 H   0  0  0  0  0  0  0  0  0  0  0  0
    5.0590   16.2633   -1.0642 H   0  0  0  0  0  0  0  0  0  0  0  0
    5.2896   15.3871   -2.6152 H   0  0  0  0  0  0  0  0  0  0  0  0
    4.6068   17.0485   -2.6152 H   0  0  0  0  0  0  0  0  0  0  0  0
    2.5856   15.3988   -4.0326 H   0  0  0  0  0  0  0  0  0  0  0  0
    3.9140   14.2160   -3.5127 H   0  0  0  0  0  0  0  0  0  0  0  0
    0.9258   13.9460   -3.0817 H   0  0  0  0  0  0  0  0  0  0  0  0
    2.0129   12.9357   -4.1134 H   0  0  0  0  0  0  0  0  0  0  0  0
    4.1236   11.7803   -1.2497 H   0  0  0  0  0  0  0  0  0  0  0  0
    3.5513   11.0526   -2.7890 H   0  0  0  0  0  0  0  0  0  0  0  0
    4.2862   12.6917   -2.7890 H   0  0  0  0  0  0  0  0  0  0  0  0
  1  2  1  0
  2  3  1  0
  3  4  1  0
  4  5  1  0
  5  6  1  0
  6  7  1  0
  7  8  1  0
  7  9  1  0
  2 10  1  0
 10 11  1  0
 11 12  1  0
 12 13  1  0
 13 14  1  6
 13 15  1  0
 15 16  1  0
 16 17  1  0
 17 18  2  0
 18 19  1  0
 19 20  1  0
 20 21  1  0
 21 22  1  0
 22 23  1  0
 22 24  1  0
 24 25  1  0
 24 26  1  0
 19 27  1  0
 27 28  1  6
 27 29  1  0
 29 30  1  0
 30 31  1  0
 31 32  1  6
  7  5  1  0
 31 10  1  0
 31 13  1  0
 27 15  1  0
 24 18  1  0
  1 33  1  0
  1 34  1  0
  1 35  1  0
  2 36  1  6
  3 37  1  0
  3 38  1  0
  4 39  1  0
  4 40  1  0
  5 41  1  1
  8 42  1  0
  8 43  1  0
  8 44  1  0
  9 45  1  0
  9 46  1  0
  9 47  1  0
 10 48  1  1
 11 49  1  0
 11 50  1  0
 12 51  1  0
 12 52  1  0
 14 53  1  0
 14 54  1  0
 14 55  1  0
 15 56  1  6
 16 57  1  0
 16 58  1  0
 17 59  1  0
 19 60  1  6
 20 61  1  0
 20 62  1  0
 21 63  1  0
 21 64  1  0
 22 65  1  6
 23 66  1  0
 25 67  1  0
 25 68  1  0
 25 69  1  0
 26 70  1  0
 26 71  1  0
 26 72  1  0
 28 73  1  0
 28 74  1  0
 28 75  1  0
 29 76  1  0
 29 77  1  0
 30 78  1  0
 30 79  1  0
 32 80  1  0
 32 81  1  0
 32 82  1  0
M  END
>  <meeko>  (18) 
{"is_sidechain": [false], "intermolecular_energy": 2.731, "internal_energy": -0.839}

$$$$
