EPH_relaxed_0001_pdb2pqr_Repair_39_r2_0001_out
     RDKit          3D

 82 86  0  0  0  0  0  0  0  0999 V2000
   -1.7050    8.5810   -1.8500 C   0  0  0  0  0  0  0  0  0  0  0  0
   -2.0960    9.1150   -0.4690 C   0  0  2  0  0  0  0  0  0  0  0  0
   -3.5900    9.4880   -0.3920 C   0  0  0  0  0  0  0  0  0  0  0  0
   -4.5170    8.2830   -0.2110 C   0  0  0  0  0  0  0  0  0  0  0  0
   -5.1940    7.9070   -1.4930 C   0  0  2  0  0  0  0  0  0  0  0  0
   -6.3450    8.6980   -1.8170 O   0  0  0  0  0  0  0  0  0  0  0  0
   -6.5860    7.3050   -1.5590 C   0  0  0  0  0  0  0  0  0  0  0  0
   -7.3830    7.0440   -0.3200 C   0  0  0  0  0  0  0  0  0  0  0  0
   -6.9710    6.5240   -2.7770 C   0  0  0  0  0  0  0  0  0  0  0  0
   -1.2380   10.3240   -0.1170 C   0  0  1  0  0  0  0  0  0  0  0  0
   -0.2110   10.0220    1.0070 C   0  0  0  0  0  0  0  0  0  0  0  0
    1.0600   10.8490    0.6860 C   0  0  0  0  0  0  0  0  0  0  0  0
    0.6130   11.8420   -0.4120 C   0  0  1  0  0  0  0  0  0  0  0  0
   -0.0970   12.9990    0.3590 C   0  0  0  0  0  0  0  0  0  0  0  0
    1.7360   12.3820   -1.3550 C   0  0  2  0  0  0  0  0  0  0  0  0
    2.8370   13.2000   -0.6580 C   0  0  0  0  0  0  0  0  0  0  0  0
    2.5860   14.6700   -0.5790 C   0  0  0  0  0  0  0  0  0  0  0  0
    1.6660   15.3460   -1.2930 C   0  0  0  0  0  0  0  0  0  0  0  0
    0.8260   14.6390   -2.3640 C   0  0  1  0  0  0  0  0  0  0  0  0
    0.8050   15.4980   -3.6560 C   0  0  0  0  0  0  0  0  0  0  0  0
    0.3400   16.9290   -3.3990 C   0  0  0  0  0  0  0  0  0  0  0  0
    1.2350   17.6170   -2.3720 C   0  0  2  0  0  0  0  0  0  0  0  0
    2.5400   17.7840   -2.9360 O   0  0  0  0  0  0  0  0  0  0  0  0
    1.3420   16.8370   -1.0320 C   0  0  0  0  0  0  0  0  0  0  0  0
   -0.0080   16.9150   -0.2750 C   0  0  0  0  0  0  0  0  0  0  0  0
    2.3830   17.5640   -0.1380 C   0  0  0  0  0  0  0  0  0  0  0  0
    1.1990   13.1200   -2.6480 C   0  0  1  0  0  0  0  0  0  0  0  0
    2.3360   13.0410   -3.7110 C   0  0  0  0  0  0  0  0  0  0  0  0
   -0.0490   12.3940   -3.2760 C   0  0  0  0  0  0  0  0  0  0  0  0
   -1.0620   11.7770   -2.2930 C   0  0  0  0  0  0  0  0  0  0  0  0
   -0.3530   10.9190   -1.2410 C   0  0  2  0  0  0  0  0  0  0  0  0
    0.3520    9.7340   -1.9860 C   0  0  0  0  0  0  0  0  0  0  0  0
   -1.0589    7.6986   -1.7324 H   0  0  0  0  0  0  0  0  0  0  0  0
   -2.6123    8.2998   -2.4048 H   0  0  0  0  0  0  0  0  0  0  0  0
   -1.1630    9.3610   -2.4048 H   0  0  0  0  0  0  0  0  0  0  0  0
   -1.9194    8.3096    0.2591 H   0  0  0  0  0  0  0  0  0  0  0  0
   -3.7345   10.1684    0.4602 H   0  0  0  0  0  0  0  0  0  0  0  0
   -3.8544    9.9554   -1.3520 H   0  0  0  0  0  0  0  0  0  0  0  0
   -3.9238    7.4270    0.1432 H   0  0  0  0  0  0  0  0  0  0  0  0
   -5.2931    8.5543    0.5197 H   0  0  0  0  0  0  0  0  0  0  0  0
   -4.2354    7.5998   -1.9365 H   0  0  0  0  0  0  0  0  0  0  0  0
   -6.7621    7.2473    0.5650 H   0  0  0  0  0  0  0  0  0  0  0  0
   -8.2659    7.6999   -0.3070 H   0  0  0  0  0  0  0  0  0  0  0  0
   -7.7069    5.9929   -0.3070 H   0  0  0  0  0  0  0  0  0  0  0  0
   -7.4383    5.5760   -2.4721 H   0  0  0  0  0  0  0  0  0  0  0  0
   -7.6844    7.1082   -3.3769 H   0  0  0  0  0  0  0  0  0  0  0  0
   -6.0732    6.3140   -3.3769 H   0  0  0  0  0  0  0  0  0  0  0  0
   -2.0291   11.0374    0.1574 H   0  0  0  0  0  0  0  0  0  0  0  0
   -0.6200   10.3199    1.9837 H   0  0  0  0  0  0  0  0  0  0  0  0
    0.0186    8.9472    1.0536 H   0  0  0  0  0  0  0  0  0  0  0  0
    1.4079   11.3886    1.5792 H   0  0  0  0  0  0  0  0  0  0  0  0
    1.8980   10.2157    0.3593 H   0  0  0  0  0  0  0  0  0  0  0  0
    0.0041   12.8342    1.4419 H   0  0  0  0  0  0  0  0  0  0  0  0
    0.3678   13.9588    0.0892 H   0  0  0  0  0  0  0  0  0  0  0  0
   -1.1632   13.0193    0.0892 H   0  0  0  0  0  0  0  0  0  0  0  0
    2.2221   11.4557   -1.6951 H   0  0  0  0  0  0  0  0  0  0  0  0
    2.9463   12.8182    0.3678 H   0  0  0  0  0  0  0  0  0  0  0  0
    3.7415   13.0782   -1.2720 H   0  0  0  0  0  0  0  0  0  0  0  0
    3.2050   15.2495    0.1217 H   0  0  0  0  0  0  0  0  0  0  0  0
   -0.1902   14.5610   -1.9502 H   0  0  0  0  0  0  0  0  0  0  0  0
    1.8210   15.5274   -4.0766 H   0  0  0  0  0  0  0  0  0  0  0  0
    0.0917   15.0350   -4.3537 H   0  0  0  0  0  0  0  0  0  0  0  0
    0.3745   17.4937   -4.3424 H   0  0  0  0  0  0  0  0  0  0  0  0
   -0.6870   16.8993   -3.0060 H   0  0  0  0  0  0  0  0  0  0  0  0
    0.7771   18.5884   -2.1341 H   0  0  0  0  0  0  0  0  0  0  0  0
    2.9420   18.5650   -2.5200 H   0  0  0  0  0  0  0  0  0  0  0  0
    0.1783   16.9042    0.8090 H   0  0  0  0  0  0  0  0  0  0  0  0
   -0.5285   17.8447   -0.5484 H   0  0  0  0  0  0  0  0  0  0  0  0
   -0.6321   16.0514   -0.5484 H   0  0  0  0  0  0  0  0  0  0  0  0
    2.1393   17.3938    0.9211 H   0  0  0  0  0  0  0  0  0  0  0  0
    3.3878   17.1702   -0.3509 H   0  0  0  0  0  0  0  0  0  0  0  0
    2.3593   18.6429   -0.3509 H   0  0  0  0  0  0  0  0  0  0  0  0
    3.3092   12.9734   -3.2027 H   0  0  0  0  0  0  0  0  0  0  0  0
    2.1884   12.1509   -4.3403 H   0  0  0  0  0  0  0  0  0  0  0  0
    2.3129   13.9429   -4.3403 H   0  0  0  0  0  0  0  0  0  0  0  0
   -0.5878   13.1303   -3.8904 H   0  0  0  0  0  0  0  0  0  0  0  0
    0.3652   11.5417   -3.8346 H   0  0  0  0  0  0  0  0  0  0  0  0
   -1.6109   12.5852   -1.7876 H   0  0  0  0  0  0  0  0  0  0  0  0
   -1.7543   11.1365   -2.8591 H   0  0  0  0  0  0  0  0  0  0  0  0
    0.7690    9.0331   -1.2479 H   0  0  0  0  0  0  0  0  0  0  0  0
   -0.3810    9.2094   -2.6165 H   0  0  0  0  0  0  0  0  0  0  0  0
    1.1628   10.1278   -2.6165 H   0  0  0  0  0  0  0  0  0  0  0  0
  1  2  1  0
  2  3  1  0
  3  4  1  0
  4  5  1  0
  5  6  1  0
  6  7  1  0
  7  8  1  0
  7  9  1  0
  2 10  1  0
 10 11  1  0
 11 12  1  0
 12 13  1  0
 13 14  1  1
 13 15  1  0
 15 16  1  0
 16 17  1  0
 17 18  2  0
 18 19  1  0
 19 20  1  0
 20 21  1  0
 21 22  1  0
 22 23  1  0
 22 24  1  0
 24 25  1  0
 24 26  1  0
 19 27  1  0
 27 28  1  6
 27 29  1  0
 29 30  1  0
 30 31  1  0
 31 32  1  6
  7  5  1  0
 31 10  1  0
 31 13  1  0
 27 15  1  0
 24 18  1  0
  1 33  1  0
  1 34  1  0
  1 35  1  0
  2 36  1  1
  3 37  1  0
  3 38  1  0
  4 39  1  0
  4 40  1  0
  5 41  1  6
  8 42  1  0
  8 43  1  0
  8 44  1  0
  9 45  1  0
  9 46  1  0
  9 47  1  0
 10 48  1  1
 11 49  1  0
 11 50  1  0
 12 51  1  0
 12 52  1  0
 14 53  1  0
 14 54  1  0
 14 55  1  0
 15 56  1  6
 16 57  1  0
 16 58  1  0
 17 59  1  0
 19 60  1  1
 20 61  1  0
 20 62  1  0
 21 63  1  0
 21 64  1  0
 22 65  1  1
 23 66  1  0
 25 67  1  0
 25 68  1  0
 25 69  1  0
 26 70  1  0
 26 71  1  0
 26 72  1  0
 28 73  1  0
 28 74  1  0
 28 75  1  0
 29 76  1  0
 29 77  1  0
 30 78  1  0
 30 79  1  0
 32 80  1  0
 32 81  1  0
 32 82  1  0
M  END
>  <meeko>  (1) 
{"is_sidechain": [false], "intermolecular_energy": 2.731, "internal_energy": -0.839}

$$$$
EPH_relaxed_0001_pdb2pqr_Repair_39_r2_0001_out
     RDKit          3D

 82 86  0  0  0  0  0  0  0  0999 V2000
    2.3370   18.0340   -2.6820 C   0  0  0  0  0  0  0  0  0  0  0  0
    1.0480   17.6400   -1.9560 C   0  0  2  0  0  0  0  0  0  0  0  0
    1.2050   17.6930   -0.4230 C   0  0  0  0  0  0  0  0  0  0  0  0
    0.8620   19.0550    0.1850 C   0  0  0  0  0  0  0  0  0  0  0  0
   -0.5920   19.1560    0.5350 C   0  0  2  0  0  0  0  0  0  0  0  0
   -1.4470   18.2670   -0.1950 O   0  0  0  0  0  0  0  0  0  0  0  0
   -1.6500   19.6710   -0.4230 C   0  0  0  0  0  0  0  0  0  0  0  0
   -1.2970   20.1200   -1.8060 C   0  0  0  0  0  0  0  0  0  0  0  0
   -2.9340   20.1930    0.1420 C   0  0  0  0  0  0  0  0  0  0  0  0
    0.6140   16.2440   -2.3880 C   0  0  1  0  0  0  0  0  0  0  0  0
    0.7440   16.0250   -3.9180 C   0  0  0  0  0  0  0  0  0  0  0  0
    1.1540   14.5440   -4.1240 C   0  0  0  0  0  0  0  0  0  0  0  0
    0.9240   13.8800   -2.7470 C   0  0  1  0  0  0  0  0  0  0  0  0
   -0.6070   13.5800   -2.6970 C   0  0  0  0  0  0  0  0  0  0  0  0
    1.7720   12.6020   -2.4450 C   0  0  2  0  0  0  0  0  0  0  0  0
    1.5150   11.4110   -3.3850 C   0  0  0  0  0  0  0  0  0  0  0  0
    0.4480   10.4660   -2.9400 C   0  0  0  0  0  0  0  0  0  0  0  0
   -0.0760   10.4060   -1.7020 C   0  0  0  0  0  0  0  0  0  0  0  0
    0.4730   11.2840   -0.5700 C   0  0  1  0  0  0  0  0  0  0  0  0
    0.6750   10.4210    0.7030 C   0  0  0  0  0  0  0  0  0  0  0  0
   -0.5900    9.6710    1.1080 C   0  0  0  0  0  0  0  0  0  0  0  0
   -1.0720    8.7650   -0.0220 C   0  0  2  0  0  0  0  0  0  0  0  0
   -0.1120    7.7220   -0.2170 O   0  0  0  0  0  0  0  0  0  0  0  0
   -1.3010    9.5220   -1.3590 C   0  0  0  0  0  0  0  0  0  0  0  0
   -2.5420   10.4400   -1.2320 C   0  0  0  0  0  0  0  0  0  0  0  0
   -1.6480    8.4730   -2.4490 C   0  0  0  0  0  0  0  0  0  0  0  0
    1.7530   12.1550   -0.9270 C   0  0  1  0  0  0  0  0  0  0  0  0
    3.0480   11.3170   -0.6940 C   0  0  0  0  0  0  0  0  0  0  0  0
    1.8330   13.3800    0.0590 C   0  0  0  0  0  0  0  0  0  0  0  0
    1.0720   14.6540   -0.3530 C   0  0  0  0  0  0  0  0  0  0  0  0
    1.3950   15.0430   -1.7990 C   0  0  2  0  0  0  0  0  0  0  0  0
    2.9250   15.3720   -1.8760 C   0  0  0  0  0  0  0  0  0  0  0  0
    3.1160   18.2721   -1.9428 H   0  0  0  0  0  0  0  0  0  0  0  0
    2.6731   17.1976   -3.3124 H   0  0  0  0  0  0  0  0  0  0  0  0
    2.1480   18.9154   -3.3124 H   0  0  0  0  0  0  0  0  0  0  0  0
    0.2751   18.3718   -2.2335 H   0  0  0  0  0  0  0  0  0  0  0  0
    0.5396   16.9375    0.0203 H   0  0  0  0  0  0  0  0  0  0  0  0
    2.2653   17.5008   -0.2021 H   0  0  0  0  0  0  0  0  0  0  0  0
    1.4591   19.1985    1.0976 H   0  0  0  0  0  0  0  0  0  0  0  0
    1.0896   19.8305   -0.5612 H   0  0  0  0  0  0  0  0  0  0  0  0
   -0.3471   19.4194    1.5745 H   0  0  0  0  0  0  0  0  0  0  0  0
   -0.6181   20.9836   -1.7490 H   0  0  0  0  0  0  0  0  0  0  0  0
   -0.8007   19.2981   -2.3428 H   0  0  0  0  0  0  0  0  0  0  0  0
   -2.2128   20.4083   -2.3428 H   0  0  0  0  0  0  0  0  0  0  0  0
   -2.8859   20.1734    1.2408 H   0  0  0  0  0  0  0  0  0  0  0  0
   -3.0916   21.2266   -0.1998 H   0  0  0  0  0  0  0  0  0  0  0  0
   -3.7681   19.5626   -0.1998 H   0  0  0  0  0  0  0  0  0  0  0  0
   -0.4177   16.2449   -2.0064 H   0  0  0  0  0  0  0  0  0  0  0  0
   -0.2183   16.2240   -4.4124 H   0  0  0  0  0  0  0  0  0  0  0  0
    1.4906   16.7059   -4.3527 H   0  0  0  0  0  0  0  0  0  0  0  0
    0.5259   14.0706   -4.8930 H   0  0  0  0  0  0  0  0  0  0  0  0
    2.1943   14.4432   -4.4669 H   0  0  0  0  0  0  0  0  0  0  0  0
   -0.9340   13.5159   -1.6487 H   0  0  0  0  0  0  0  0  0  0  0  0
   -1.1556   14.3877   -3.2035 H   0  0  0  0  0  0  0  0  0  0  0  0
   -0.8102   12.6250   -3.2035 H   0  0  0  0  0  0  0  0  0  0  0  0
    2.7952   12.9407   -2.6651 H   0  0  0  0  0  0  0  0  0  0  0  0
    1.2268   11.8103   -4.3686 H   0  0  0  0  0  0  0  0  0  0  0  0
    2.4487   10.8297   -3.4019 H   0  0  0  0  0  0  0  0  0  0  0  0
    0.0574    9.7594   -3.6871 H   0  0  0  0  0  0  0  0  0  0  0  0
   -0.2918   12.0520   -0.3823 H   0  0  0  0  0  0  0  0  0  0  0  0
    1.4725    9.6885    0.5095 H   0  0  0  0  0  0  0  0  0  0  0  0
    0.9395   11.0992    1.5277 H   0  0  0  0  0  0  0  0  0  0  0  0
   -0.3761    9.0571    1.9953 H   0  0  0  0  0  0  0  0  0  0  0  0
   -1.3781   10.4056    1.3296 H   0  0  0  0  0  0  0  0  0  0  0  0
   -2.0483    8.3556    0.2766 H   0  0  0  0  0  0  0  0  0  0  0  0
    0.1500    7.3950    0.6600 H   0  0  0  0  0  0  0  0  0  0  0  0
   -2.7674   10.6067   -0.1683 H   0  0  0  0  0  0  0  0  0  0  0  0
   -2.3358   11.4047   -1.7187 H   0  0  0  0  0  0  0  0  0  0  0  0
   -3.4041    9.9605   -1.7187 H   0  0  0  0  0  0  0  0  0  0  0  0
   -1.9587    7.5337   -1.9682 H   0  0  0  0  0  0  0  0  0  0  0  0
   -2.4683    8.8530   -3.0757 H   0  0  0  0  0  0  0  0  0  0  0  0
   -0.7629    8.2889   -3.0757 H   0  0  0  0  0  0  0  0  0  0  0  0
    3.2223   11.2042    0.3862 H   0  0  0  0  0  0  0  0  0  0  0  0
    2.9295   10.3239   -1.1520 H   0  0  0  0  0  0  0  0  0  0  0  0
    3.9054   11.8320   -1.1520 H   0  0  0  0  0  0  0  0  0  0  0  0
    1.4326   13.0525    1.0298 H   0  0  0  0  0  0  0  0  0  0  0  0
    2.8940   13.6701    0.0721 H   0  0  0  0  0  0  0  0  0  0  0  0
   -0.0091   14.4724   -0.2623 H   0  0  0  0  0  0  0  0  0  0  0  0
    1.3815   15.4765    0.3086 H   0  0  0  0  0  0  0  0  0  0  0  0
    3.3329   15.4597   -0.8582 H   0  0  0  0  0  0  0  0  0  0  0  0
    3.4469   14.5656   -2.4119 H   0  0  0  0  0  0  0  0  0  0  0  0
    3.0693   16.3217   -2.4119 H   0  0  0  0  0  0  0  0  0  0  0  0
  1  2  1  0
  2  3  1  0
  3  4  1  0
  4  5  1  0
  5  6  1  0
  6  7  1  0
  7  8  1  0
  7  9  1  0
  2 10  1  0
 10 11  1  0
 11 12  1  0
 12 13  1  0
 13 14  1  1
 13 15  1  0
 15 16  1  0
 16 17  1  0
 17 18  2  0
 18 19  1  0
 19 20  1  0
 20 21  1  0
 21 22  1  0
 22 23  1  0
 22 24  1  0
 24 25  1  0
 24 26  1  0
 19 27  1  0
 27 28  1  6
 27 29  1  0
 29 30  1  0
 30 31  1  0
 31 32  1  1
  7  5  1  0
 31 10  1  0
 31 13  1  0
 27 15  1  0
 24 18  1  0
  1 33  1  0
  1 34  1  0
  1 35  1  0
  2 36  1  6
  3 37  1  0
  3 38  1  0
  4 39  1  0
  4 40  1  0
  5 41  1  1
  8 42  1  0
  8 43  1  0
  8 44  1  0
  9 45  1  0
  9 46  1  0
  9 47  1  0
 10 48  1  1
 11 49  1  0
 11 50  1  0
 12 51  1  0
 12 52  1  0
 14 53  1  0
 14 54  1  0
 14 55  1  0
 15 56  1  6
 16 57  1  0
 16 58  1  0
 17 59  1  0
 19 60  1  1
 20 61  1  0
 20 62  1  0
 21 63  1  0
 21 64  1  0
 22 65  1  1
 23 66  1  0
 25 67  1  0
 25 68  1  0
 25 69  1  0
 26 70  1  0
 26 71  1  0
 26 72  1  0
 28 73  1  0
 28 74  1  0
 28 75  1  0
 29 76  1  0
 29 77  1  0
 30 78  1  0
 30 79  1  0
 32 80  1  0
 32 81  1  0
 32 82  1  0
M  END
>  <meeko>  (2) 
{"is_sidechain": [false], "intermolecular_energy": 2.731, "internal_energy": -0.839}

$$$$
EPH_relaxed_0001_pdb2pqr_Repair_39_r2_0001_out
     RDKit          3D

 82 86  0  0  0  0  0  0  0  0999 V2000
    4.1860   17.5870   -0.0180 C   0  0  0  0  0  0  0  0  0  0  0  0
    2.7760   18.1750   -0.1130 C   0  0  2  0  0  0  0  0  0  0  0  0
    2.4750   19.1520    1.0410 C   0  0  0  0  0  0  0  0  0  0  0  0
    3.7080   19.9060    1.5450 C   0  0  0  0  0  0  0  0  0  0  0  0
    4.2520   19.3010    2.8040 C   0  0  2  0  0  0  0  0  0  0  0  0
    5.0330   20.1940    3.6090 O   0  0  0  0  0  0  0  0  0  0  0  0
    5.7310   19.0690    3.0490 C   0  0  0  0  0  0  0  0  0  0  0  0
    6.7590   19.4390    2.0260 C   0  0  0  0  0  0  0  0  0  0  0  0
    6.1370   18.0460    4.0640 C   0  0  0  0  0  0  0  0  0  0  0  0
    1.7450   17.0520   -0.1270 C   0  0  1  0  0  0  0  0  0  0  0  0
    0.3170   17.5560   -0.4660 C   0  0  0  0  0  0  0  0  0  0  0  0
   -0.3700   16.4350   -1.2870 C   0  0  0  0  0  0  0  0  0  0  0  0
    0.5490   15.2040   -1.1120 C   0  0  1  0  0  0  0  0  0  0  0  0
    0.1550   14.6030    0.2740 C   0  0  0  0  0  0  0  0  0  0  0  0
    0.4880   14.1290   -2.2460 C   0  0  2  0  0  0  0  0  0  0  0  0
   -0.8790   13.4450   -2.4230 C   0  0  0  0  0  0  0  0  0  0  0  0
   -1.0790   12.2030   -1.6190 C   0  0  0  0  0  0  0  0  0  0  0  0
   -0.1060   11.5000   -1.0100 C   0  0  0  0  0  0  0  0  0  0  0  0
    1.3680   11.8870   -1.1790 C   0  0  1  0  0  0  0  0  0  0  0  0
    2.2060   10.6170   -1.4820 C   0  0  0  0  0  0  0  0  0  0  0  0
    2.0060    9.5210   -0.4390 C   0  0  0  0  0  0  0  0  0  0  0  0
    0.5350    9.1230   -0.3420 C   0  0  2  0  0  0  0  0  0  0  0  0
    0.1460    8.4940   -1.5670 O   0  0  0  0  0  0  0  0  0  0  0  0
   -0.4070   10.3240   -0.0490 C   0  0  0  0  0  0  0  0  0  0  0  0
   -0.1870   10.8140    1.4040 C   0  0  0  0  0  0  0  0  0  0  0  0
   -1.8710    9.8100   -0.1170 C   0  0  0  0  0  0  0  0  0  0  0  0
    1.6620   13.0700   -2.1990 C   0  0  1  0  0  0  0  0  0  0  0  0
    1.8080   12.5020   -3.6440 C   0  0  0  0  0  0  0  0  0  0  0  0
    3.0470   13.7270   -1.8380 C   0  0  0  0  0  0  0  0  0  0  0  0
    3.0260   14.8650   -0.7990 C   0  0  0  0  0  0  0  0  0  0  0  0
    1.9560   15.9050   -1.1460 C   0  0  2  0  0  0  0  0  0  0  0  0
    2.3380   16.5420   -2.5260 C   0  0  0  0  0  0  0  0  0  0  0  0
    4.4644   17.4709    1.0398 H   0  0  0  0  0  0  0  0  0  0  0  0
    4.2078   16.6048   -0.5128 H   0  0  0  0  0  0  0  0  0  0  0  0
    4.8992   18.2627   -0.5128 H   0  0  0  0  0  0  0  0  0  0  0  0
    2.7178   18.7455   -1.0517 H   0  0  0  0  0  0  0  0  0  0  0  0
    1.7372   19.8882    0.6894 H   0  0  0  0  0  0  0  0  0  0  0  0
    2.0993   18.5508    1.8820 H   0  0  0  0  0  0  0  0  0  0  0  0
    4.4869   19.8745    0.7689 H   0  0  0  0  0  0  0  0  0  0  0  0
    3.4105   20.9423    1.7634 H   0  0  0  0  0  0  0  0  0  0  0  0
    3.3770   18.6403    2.8924 H   0  0  0  0  0  0  0  0  0  0  0  0
    7.6778   19.7697    2.5324 H   0  0  0  0  0  0  0  0  0  0  0  0
    6.9815   18.5645    1.3969 H   0  0  0  0  0  0  0  0  0  0  0  0
    6.3732   20.2547    1.3969 H   0  0  0  0  0  0  0  0  0  0  0  0
    5.9771   18.4490    5.0750 H   0  0  0  0  0  0  0  0  0  0  0  0
    5.5313   17.1374    3.9314 H   0  0  0  0  0  0  0  0  0  0  0  0
    7.2009   17.8000    3.9314 H   0  0  0  0  0  0  0  0  0  0  0  0
    1.8723   16.6730    0.8978 H   0  0  0  0  0  0  0  0  0  0  0  0
   -0.2466   17.7476    0.4590 H   0  0  0  0  0  0  0  0  0  0  0  0
    0.3550   18.4961   -1.0359 H   0  0  0  0  0  0  0  0  0  0  0  0
   -1.3763   16.2272   -0.8943 H   0  0  0  0  0  0  0  0  0  0  0  0
   -0.4998   16.7117   -2.3437 H   0  0  0  0  0  0  0  0  0  0  0  0
    0.5672   15.2318    1.0769 H   0  0  0  0  0  0  0  0  0  0  0  0
   -0.9410   14.5693    0.3608 H   0  0  0  0  0  0  0  0  0  0  0  0
    0.5612   13.5844    0.3608 H   0  0  0  0  0  0  0  0  0  0  0  0
    0.6398   14.7333   -3.1525 H   0  0  0  0  0  0  0  0  0  0  0  0
   -1.6593   14.1652   -2.1358 H   0  0  0  0  0  0  0  0  0  0  0  0
   -0.9310   13.1367   -3.4776 H   0  0  0  0  0  0  0  0  0  0  0  0
   -2.1089   11.8308   -1.5155 H   0  0  0  0  0  0  0  0  0  0  0  0
    1.6806   12.3194   -0.2171 H   0  0  0  0  0  0  0  0  0  0  0  0
    1.9094   10.2254   -2.4662 H   0  0  0  0  0  0  0  0  0  0  0  0
    3.2674   10.9053   -1.4639 H   0  0  0  0  0  0  0  0  0  0  0  0
    2.5995    8.6398   -0.7242 H   0  0  0  0  0  0  0  0  0  0  0  0
    2.3319    9.9034    0.5396 H   0  0  0  0  0  0  0  0  0  0  0  0
    0.4357    8.4323    0.5084 H   0  0  0  0  0  0  0  0  0  0  0  0
    0.8440    7.8620   -1.8090 H   0  0  0  0  0  0  0  0  0  0  0  0
   -0.5334   10.0426    2.1075 H   0  0  0  0  0  0  0  0  0  0  0  0
    0.8836   11.0058    1.5681 H   0  0  0  0  0  0  0  0  0  0  0  0
   -0.7551   11.7416    1.5681 H   0  0  0  0  0  0  0  0  0  0  0  0
   -2.2595    9.6736    0.9030 H   0  0  0  0  0  0  0  0  0  0  0  0
   -2.4927   10.5436   -0.6511 H   0  0  0  0  0  0  0  0  0  0  0  0
   -1.8977    8.8487   -0.6511 H   0  0  0  0  0  0  0  0  0  0  0  0
    2.0816   11.4377   -3.5937 H   0  0  0  0  0  0  0  0  0  0  0  0
    0.8528   12.6102   -4.1788 H   0  0  0  0  0  0  0  0  0  0  0  0
    2.5926   13.0574   -4.1788 H   0  0  0  0  0  0  0  0  0  0  0  0
    3.7008   12.9327   -1.4485 H   0  0  0  0  0  0  0  0  0  0  0  0
    3.3957   14.1948   -2.7705 H   0  0  0  0  0  0  0  0  0  0  0  0
    2.8087   14.4424    0.1931 H   0  0  0  0  0  0  0  0  0  0  0  0
    4.0087   15.3592   -0.8003 H   0  0  0  0  0  0  0  0  0  0  0  0
    2.8970   17.4742   -2.3573 H   0  0  0  0  0  0  0  0  0  0  0  0
    2.9628   15.8375   -3.0946 H   0  0  0  0  0  0  0  0  0  0  0  0
    1.4223   16.7614   -3.0946 H   0  0  0  0  0  0  0  0  0  0  0  0
  1  2  1  0
  2  3  1  0
  3  4  1  0
  4  5  1  0
  5  6  1  0
  6  7  1  0
  7  8  1  0
  7  9  1  0
  2 10  1  0
 10 11  1  0
 11 12  1  0
 12 13  1  0
 13 14  1  1
 13 15  1  0
 15 16  1  0
 16 17  1  0
 17 18  2  0
 18 19  1  0
 19 20  1  0
 20 21  1  0
 21 22  1  0
 22 23  1  0
 22 24  1  0
 24 25  1  0
 24 26  1  0
 19 27  1  0
 27 28  1  6
 27 29  1  0
 29 30  1  0
 30 31  1  0
 31 32  1  6
  7  5  1  0
 31 10  1  0
 31 13  1  0
 27 15  1  0
 24 18  1  0
  1 33  1  0
  1 34  1  0
  1 35  1  0
  2 36  1  6
  3 37  1  0
  3 38  1  0
  4 39  1  0
  4 40  1  0
  5 41  1  1
  8 42  1  0
  8 43  1  0
  8 44  1  0
  9 45  1  0
  9 46  1  0
  9 47  1  0
 10 48  1  1
 11 49  1  0
 11 50  1  0
 12 51  1  0
 12 52  1  0
 14 53  1  0
 14 54  1  0
 14 55  1  0
 15 56  1  6
 16 57  1  0
 16 58  1  0
 17 59  1  0
 19 60  1  1
 20 61  1  0
 20 62  1  0
 21 63  1  0
 21 64  1  0
 22 65  1  1
 23 66  1  0
 25 67  1  0
 25 68  1  0
 25 69  1  0
 26 70  1  0
 26 71  1  0
 26 72  1  0
 28 73  1  0
 28 74  1  0
 28 75  1  0
 29 76  1  0
 29 77  1  0
 30 78  1  0
 30 79  1  0
 32 80  1  0
 32 81  1  0
 32 82  1  0
M  END
>  <meeko>  (3) 
{"is_sidechain": [false], "intermolecular_energy": 2.731, "internal_energy": -0.839}

$$$$
EPH_relaxed_0001_pdb2pqr_Repair_39_r2_0001_out
     RDKit          3D

 82 86  0  0  0  0  0  0  0  0999 V2000
    0.4110   18.4330   -0.0680 C   0  0  0  0  0  0  0  0  0  0  0  0
    1.4900   17.3620   -0.2520 C   0  0  2  0  0  0  0  0  0  0  0  0
    2.7250   17.9050   -0.9980 C   0  0  0  0  0  0  0  0  0  0  0  0
    3.9520   18.0920   -0.1020 C   0  0  0  0  0  0  0  0  0  0  0  0
    3.5720   18.5680    1.2670 C   0  0  2  0  0  0  0  0  0  0  0  0
    3.7860   19.9670    1.4950 O   0  0  0  0  0  0  0  0  0  0  0  0
    4.5760   19.0680    2.2880 C   0  0  0  0  0  0  0  0  0  0  0  0
    6.0410   19.1140    1.9840 C   0  0  0  0  0  0  0  0  0  0  0  0
    4.1950   19.0470    3.7360 C   0  0  0  0  0  0  0  0  0  0  0  0
    0.9130   16.1660   -1.0010 C   0  0  1  0  0  0  0  0  0  0  0  0
    0.7830   16.4220   -2.5260 C   0  0  0  0  0  0  0  0  0  0  0  0
    1.0690   15.0720   -3.2320 C   0  0  0  0  0  0  0  0  0  0  0  0
    1.0250   14.0210   -2.0970 C   0  0  1  0  0  0  0  0  0  0  0  0
   -0.4930   13.7300   -1.8790 C   0  0  0  0  0  0  0  0  0  0  0  0
    1.8360   12.7070   -2.3410 C   0  0  2  0  0  0  0  0  0  0  0  0
    1.3640   11.8600   -3.5350 C   0  0  0  0  0  0  0  0  0  0  0  0
    0.3300   10.8310   -3.2180 C   0  0  0  0  0  0  0  0  0  0  0  0
    0.0090   10.4000   -1.9840 C   0  0  0  0  0  0  0  0  0  0  0  0
    0.7820   10.8890   -0.7520 C   0  0  1  0  0  0  0  0  0  0  0  0
    1.1360    9.6790    0.1510 C   0  0  0  0  0  0  0  0  0  0  0  0
   -0.0880    8.8480    0.5230 C   0  0  0  0  0  0  0  0  0  0  0  0
   -0.7970    8.3310   -0.7270 C   0  0  2  0  0  0  0  0  0  0  0  0
    0.0580    7.3920   -1.3860 O   0  0  0  0  0  0  0  0  0  0  0  0
   -1.1940    9.4610   -1.7180 C   0  0  0  0  0  0  0  0  0  0  0  0
   -2.3440   10.3040   -1.1120 C   0  0  0  0  0  0  0  0  0  0  0  0
   -1.7710    8.7950   -2.9960 C   0  0  0  0  0  0  0  0  0  0  0  0
    2.0360   11.8200   -1.0460 C   0  0  1  0  0  0  0  0  0  0  0  0
    3.3010   10.9430   -1.2970 C   0  0  0  0  0  0  0  0  0  0  0  0
    2.3440   12.6860    0.2320 C   0  0  0  0  0  0  0  0  0  0  0  0
    1.6000   14.0300    0.3560 C   0  0  0  0  0  0  0  0  0  0  0  0
    1.7080   14.8380   -0.9400 C   0  0  2  0  0  0  0  0  0  0  0  0
    3.2220   15.1660   -1.1750 C   0  0  0  0  0  0  0  0  0  0  0  0
    0.2411   18.6016    1.0056 H   0  0  0  0  0  0  0  0  0  0  0  0
    0.7411   19.3708   -0.5387 H   0  0  0  0  0  0  0  0  0  0  0  0
   -0.5243   18.0959   -0.5387 H   0  0  0  0  0  0  0  0  0  0  0  0
    1.8203   17.0491    0.7495 H   0  0  0  0  0  0  0  0  0  0  0  0
    2.9849   17.1982   -1.7998 H   0  0  0  0  0  0  0  0  0  0  0  0
    2.4554   18.8986   -1.3855 H   0  0  0  0  0  0  0  0  0  0  0  0
    4.4773   17.1297   -0.0117 H   0  0  0  0  0  0  0  0  0  0  0  0
    4.5993   18.8532   -0.5620 H   0  0  0  0  0  0  0  0  0  0  0  0
    2.7669   17.8210    1.3286 H   0  0  0  0  0  0  0  0  0  0  0  0
    6.6104   19.1319    2.9250 H   0  0  0  0  0  0  0  0  0  0  0  0
    6.3228   18.2243    1.4018 H   0  0  0  0  0  0  0  0  0  0  0  0
    6.2664   20.0197    1.4018 H   0  0  0  0  0  0  0  0  0  0  0  0
    5.1030   19.0971    4.3548 H   0  0  0  0  0  0  0  0  0  0  0  0
    3.5516   19.9110    3.9584 H   0  0  0  0  0  0  0  0  0  0  0  0
    3.6505   18.1175    3.9584 H   0  0  0  0  0  0  0  0  0  0  0  0
   -0.0422   16.0571   -0.4665 H   0  0  0  0  0  0  0  0  0  0  0  0
   -0.2331   16.7676   -2.7668 H   0  0  0  0  0  0  0  0  0  0  0  0
    1.4881   17.1984   -2.8577 H   0  0  0  0  0  0  0  0  0  0  0  0
    0.2996   14.8588   -3.9887 H   0  0  0  0  0  0  0  0  0  0  0  0
    2.0332   15.0741   -3.7614 H   0  0  0  0  0  0  0  0  0  0  0  0
   -0.7073   13.6889   -0.8009 H   0  0  0  0  0  0  0  0  0  0  0  0
   -1.0898   14.5301   -2.3413 H   0  0  0  0  0  0  0  0  0  0  0  0
   -0.7516   12.7659   -2.3413 H   0  0  0  0  0  0  0  0  0  0  0  0
    2.8277   13.0909   -2.6221 H   0  0  0  0  0  0  0  0  0  0  0  0
    0.9452   12.5411   -4.2904 H   0  0  0  0  0  0  0  0  0  0  0  0
    2.2481   11.3057   -3.8832 H   0  0  0  0  0  0  0  0  0  0  0  0
   -0.2155   10.3877   -4.0641 H   0  0  0  0  0  0  0  0  0  0  0  0
    0.1027   11.5678   -0.2155 H   0  0  0  0  0  0  0  0  0  0  0  0
    1.8491    9.0357   -0.3853 H   0  0  0  0  0  0  0  0  0  0  0  0
    1.5674   10.0732    1.0829 H   0  0  0  0  0  0  0  0  0  0  0  0
    0.2307    7.9921    1.1361 H   0  0  0  0  0  0  0  0  0  0  0  0
   -0.7870    9.4846    1.0852 H   0  0  0  0  0  0  0  0  0  0  0  0
   -1.7342    7.8555   -0.4020 H   0  0  0  0  0  0  0  0  0  0  0  0
    0.6970    7.0650   -0.7300 H   0  0  0  0  0  0  0  0  0  0  0  0
   -2.2890   10.2637   -0.0141 H   0  0  0  0  0  0  0  0  0  0  0  0
   -2.2488   11.3478   -1.4458 H   0  0  0  0  0  0  0  0  0  0  0  0
   -3.3107    9.8991   -1.4458 H   0  0  0  0  0  0  0  0  0  0  0  0
   -2.4664    7.9924   -2.7092 H   0  0  0  0  0  0  0  0  0  0  0  0
   -2.3066    9.5484   -3.5922 H   0  0  0  0  0  0  0  0  0  0  0  0
   -0.9489    8.3722   -3.5922 H   0  0  0  0  0  0  0  0  0  0  0  0
    3.7356   10.6417   -0.3324 H   0  0  0  0  0  0  0  0  0  0  0  0
    3.0181   10.0462   -1.8678 H   0  0  0  0  0  0  0  0  0  0  0  0
    4.0415   11.5225   -1.8678 H   0  0  0  0  0  0  0  0  0  0  0  0
    2.0873   12.0808    1.1140 H   0  0  0  0  0  0  0  0  0  0  0  0
    3.4081   12.9524    0.1498 H   0  0  0  0  0  0  0  0  0  0  0  0
    0.5390   13.8354    0.5713 H   0  0  0  0  0  0  0  0  0  0  0  0
    2.0581   14.6105    1.1704 H   0  0  0  0  0  0  0  0  0  0  0  0
    3.7283   15.2757   -0.2046 H   0  0  0  0  0  0  0  0  0  0  0  0
    3.6905   14.3485   -1.7427 H   0  0  0  0  0  0  0  0  0  0  0  0
    3.3101   16.1041   -1.7427 H   0  0  0  0  0  0  0  0  0  0  0  0
  1  2  1  0
  2  3  1  0
  3  4  1  0
  4  5  1  0
  5  6  1  0
  6  7  1  0
  7  8  1  0
  7  9  1  0
  2 10  1  0
 10 11  1  0
 11 12  1  0
 12 13  1  0
 13 14  1  1
 13 15  1  0
 15 16  1  0
 16 17  1  0
 17 18  2  0
 18 19  1  0
 19 20  1  0
 20 21  1  0
 21 22  1  0
 22 23  1  0
 22 24  1  0
 24 25  1  0
 24 26  1  0
 19 27  1  0
 27 28  1  6
 27 29  1  0
 29 30  1  0
 30 31  1  0
 31 32  1  6
  7  5  1  0
 31 10  1  0
 31 13  1  0
 27 15  1  0
 24 18  1  0
  1 33  1  0
  1 34  1  0
  1 35  1  0
  2 36  1  1
  3 37  1  0
  3 38  1  0
  4 39  1  0
  4 40  1  0
  5 41  1  1
  8 42  1  0
  8 43  1  0
  8 44  1  0
  9 45  1  0
  9 46  1  0
  9 47  1  0
 10 48  1  1
 11 49  1  0
 11 50  1  0
 12 51  1  0
 12 52  1  0
 14 53  1  0
 14 54  1  0
 14 55  1  0
 15 56  1  6
 16 57  1  0
 16 58  1  0
 17 59  1  0
 19 60  1  1
 20 61  1  0
 20 62  1  0
 21 63  1  0
 21 64  1  0
 22 65  1  1
 23 66  1  0
 25 67  1  0
 25 68  1  0
 25 69  1  0
 26 70  1  0
 26 71  1  0
 26 72  1  0
 28 73  1  0
 28 74  1  0
 28 75  1  0
 29 76  1  0
 29 77  1  0
 30 78  1  0
 30 79  1  0
 32 80  1  0
 32 81  1  0
 32 82  1  0
M  END
>  <meeko>  (4) 
{"is_sidechain": [false], "intermolecular_energy": 2.731, "internal_energy": -0.839}

$$$$
EPH_relaxed_0001_pdb2pqr_Repair_39_r2_0001_out
     RDKit          3D

 82 86  0  0  0  0  0  0  0  0999 V2000
    3.6250   17.9700    0.7230 C   0  0  0  0  0  0  0  0  0  0  0  0
    2.6530   18.3390   -0.4010 C   0  0  2  0  0  0  0  0  0  0  0  0
    1.9120   19.6610   -0.1180 C   0  0  0  0  0  0  0  0  0  0  0  0
    0.8430   19.5460    0.9720 C   0  0  0  0  0  0  0  0  0  0  0  0
   -0.4500   20.1740    0.5480 C   0  0  2  0  0  0  0  0  0  0  0  0
   -1.4700   20.1830    1.5560 O   0  0  0  0  0  0  0  0  0  0  0  0
   -1.7430   19.3970    0.3850 C   0  0  0  0  0  0  0  0  0  0  0  0
   -1.8060   17.9240    0.6410 C   0  0  0  0  0  0  0  0  0  0  0  0
   -2.8160   19.9700   -0.4880 C   0  0  0  0  0  0  0  0  0  0  0  0
    1.6480   17.2120   -0.6090 C   0  0  1  0  0  0  0  0  0  0  0  0
    0.4190   17.6540   -1.4480 C   0  0  0  0  0  0  0  0  0  0  0  0
   -0.0020   16.4320   -2.3030 C   0  0  0  0  0  0  0  0  0  0  0  0
    0.7760   15.2420   -1.6930 C   0  0  1  0  0  0  0  0  0  0  0  0
   -0.0580   14.8150   -0.4450 C   0  0  0  0  0  0  0  0  0  0  0  0
    1.0490   14.0340   -2.6470 C   0  0  2  0  0  0  0  0  0  0  0  0
   -0.2090   13.3180   -3.1690 C   0  0  0  0  0  0  0  0  0  0  0  0
   -0.6930   12.1830   -2.3280 C   0  0  0  0  0  0  0  0  0  0  0  0
    0.0120   11.5730   -1.3570 C   0  0  0  0  0  0  0  0  0  0  0  0
    1.4740   11.9520   -1.0890 C   0  0  1  0  0  0  0  0  0  0  0  0
    2.3260   10.6630   -0.9500 C   0  0  0  0  0  0  0  0  0  0  0  0
    1.7700    9.7040    0.0980 C   0  0  0  0  0  0  0  0  0  0  0  0
    0.3350    9.3050   -0.2350 C   0  0  2  0  0  0  0  0  0  0  0  0
    0.3400    8.5240   -1.4340 O   0  0  0  0  0  0  0  0  0  0  0  0
   -0.6150   10.5230   -0.4080 C   0  0  0  0  0  0  0  0  0  0  0  0
   -0.8580   11.1930    0.9670 C   0  0  0  0  0  0  0  0  0  0  0  0
   -1.9950    9.9890   -0.8800 C   0  0  0  0  0  0  0  0  0  0  0  0
    2.1150   13.0020   -2.0960 C   0  0  1  0  0  0  0  0  0  0  0  0
    2.6990   12.2600   -3.3370 C   0  0  0  0  0  0  0  0  0  0  0  0
    3.3300   13.7140   -1.3920 C   0  0  0  0  0  0  0  0  0  0  0  0
    3.0110   14.9720   -0.5620 C   0  0  0  0  0  0  0  0  0  0  0  0
    2.1400   15.9490   -1.3590 C   0  0  2  0  0  0  0  0  0  0  0  0
    2.9620   16.4130   -2.6090 C   0  0  0  0  0  0  0  0  0  0  0  0
    3.1460   18.1518    1.6964 H   0  0  0  0  0  0  0  0  0  0  0  0
    3.8949   16.9069    0.6401 H   0  0  0  0  0  0  0  0  0  0  0  0
    4.5324   18.5862    0.6401 H   0  0  0  0  0  0  0  0  0  0  0  0
    3.2451   18.4830   -1.3168 H   0  0  0  0  0  0  0  0  0  0  0  0
    2.6506   20.4124    0.1978 H   0  0  0  0  0  0  0  0  0  0  0  0
    1.3952   19.9451   -1.0465 H   0  0  0  0  0  0  0  0  0  0  0  0
    0.6683   18.4819    1.1892 H   0  0  0  0  0  0  0  0  0  0  0  0
    1.2053   20.0761    1.8652 H   0  0  0  0  0  0  0  0  0  0  0  0
    0.0796   20.8731   -0.1159 H   0  0  0  0  0  0  0  0  0  0  0  0
   -1.8139   17.7403    1.7255 H   0  0  0  0  0  0  0  0  0  0  0  0
   -2.7226   17.5128    0.1928 H   0  0  0  0  0  0  0  0  0  0  0  0
   -0.9279   17.4361    0.1928 H   0  0  0  0  0  0  0  0  0  0  0  0
   -3.6122   20.3952    0.1408 H   0  0  0  0  0  0  0  0  0  0  0  0
   -2.3890   20.7602   -1.1231 H   0  0  0  0  0  0  0  0  0  0  0  0
   -3.2351   19.1756   -1.1231 H   0  0  0  0  0  0  0  0  0  0  0  0
    1.4292   16.9653    0.4404 H   0  0  0  0  0  0  0  0  0  0  0  0
   -0.4051   17.9535   -0.7838 H   0  0  0  0  0  0  0  0  0  0  0  0
    0.6655   18.5158   -2.0856 H   0  0  0  0  0  0  0  0  0  0  0  0
   -1.0868   16.2638   -2.2323 H   0  0  0  0  0  0  0  0  0  0  0  0
    0.2216   16.5731   -3.3707 H   0  0  0  0  0  0  0  0  0  0  0  0
    0.4843   15.0926    0.4709 H   0  0  0  0  0  0  0  0  0  0  0  0
   -1.0324   15.3251   -0.4631 H   0  0  0  0  0  0  0  0  0  0  0  0
   -0.2138   13.7262   -0.4631 H   0  0  0  0  0  0  0  0  0  0  0  0
    1.5002   14.5219   -3.5236 H   0  0  0  0  0  0  0  0  0  0  0  0
   -1.0185   14.0597   -3.2371 H   0  0  0  0  0  0  0  0  0  0  0  0
    0.0707   12.8802   -4.1386 H   0  0  0  0  0  0  0  0  0  0  0  0
   -1.7118   11.8142   -2.5180 H   0  0  0  0  0  0  0  0  0  0  0  0
    1.4750   12.5046   -0.1379 H   0  0  0  0  0  0  0  0  0  0  0  0
    2.3483   10.1486   -1.9221 H   0  0  0  0  0  0  0  0  0  0  0  0
    3.3340   10.9624   -0.6270 H   0  0  0  0  0  0  0  0  0  0  0  0
    2.3971    8.8007    0.1282 H   0  0  0  0  0  0  0  0  0  0  0  0
    1.7763   10.2093    1.0750 H   0  0  0  0  0  0  0  0  0  0  0  0
   -0.0518    8.7243    0.6154 H   0  0  0  0  0  0  0  0  0  0  0  0
    1.2540    8.4980   -1.7640 H   0  0  0  0  0  0  0  0  0  0  0  0
   -0.6016   10.4860    1.7698 H   0  0  0  0  0  0  0  0  0  0  0  0
   -0.2282   12.0906    1.0539 H   0  0  0  0  0  0  0  0  0  0  0  0
   -1.9168   11.4782    1.0539 H   0  0  0  0  0  0  0  0  0  0  0  0
   -2.6147    9.7492   -0.0034 H   0  0  0  0  0  0  0  0  0  0  0  0
   -2.4979   10.7574   -1.4854 H   0  0  0  0  0  0  0  0  0  0  0  0
   -1.8497    9.0822   -1.4854 H   0  0  0  0  0  0  0  0  0  0  0  0
    3.3468   11.4370   -3.0008 H   0  0  0  0  0  0  0  0  0  0  0  0
    1.8753   11.8543   -3.9428 H   0  0  0  0  0  0  0  0  0  0  0  0
    3.2869   12.9653   -3.9428 H   0  0  0  0  0  0  0  0  0  0  0  0
    3.8007   12.9819   -0.7194 H   0  0  0  0  0  0  0  0  0  0  0  0
    3.9729   14.0655   -2.2125 H   0  0  0  0  0  0  0  0  0  0  0  0
    2.4746   14.6742    0.3510 H   0  0  0  0  0  0  0  0  0  0  0  0
    3.9566   15.4730   -0.3071 H   0  0  0  0  0  0  0  0  0  0  0  0
    3.8752   16.9285   -2.2766 H   0  0  0  0  0  0  0  0  0  0  0  0
    3.2356   15.5361   -3.2141 H   0  0  0  0  0  0  0  0  0  0  0  0
    2.3526   17.1003   -3.2141 H   0  0  0  0  0  0  0  0  0  0  0  0
  1  2  1  0
  2  3  1  0
  3  4  1  0
  4  5  1  0
  5  6  1  0
  6  7  1  0
  7  8  1  0
  7  9  1  0
  2 10  1  0
 10 11  1  0
 11 12  1  0
 12 13  1  0
 13 14  1  1
 13 15  1  0
 15 16  1  0
 16 17  1  0
 17 18  2  0
 18 19  1  0
 19 20  1  0
 20 21  1  0
 21 22  1  0
 22 23  1  0
 22 24  1  0
 24 25  1  0
 24 26  1  0
 19 27  1  0
 27 28  1  6
 27 29  1  0
 29 30  1  0
 30 31  1  0
 31 32  1  6
  7  5  1  0
 31 10  1  0
 31 13  1  0
 27 15  1  0
 24 18  1  0
  1 33  1  0
  1 34  1  0
  1 35  1  0
  2 36  1  6
  3 37  1  0
  3 38  1  0
  4 39  1  0
  4 40  1  0
  5 41  1  6
  8 42  1  0
  8 43  1  0
  8 44  1  0
  9 45  1  0
  9 46  1  0
  9 47  1  0
 10 48  1  1
 11 49  1  0
 11 50  1  0
 12 51  1  0
 12 52  1  0
 14 53  1  0
 14 54  1  0
 14 55  1  0
 15 56  1  6
 16 57  1  0
 16 58  1  0
 17 59  1  0
 19 60  1  1
 20 61  1  0
 20 62  1  0
 21 63  1  0
 21 64  1  0
 22 65  1  1
 23 66  1  0
 25 67  1  0
 25 68  1  0
 25 69  1  0
 26 70  1  0
 26 71  1  0
 26 72  1  0
 28 73  1  0
 28 74  1  0
 28 75  1  0
 29 76  1  0
 29 77  1  0
 30 78  1  0
 30 79  1  0
 32 80  1  0
 32 81  1  0
 32 82  1  0
M  END
>  <meeko>  (5) 
{"is_sidechain": [false], "intermolecular_energy": 2.731, "internal_energy": -0.839}

$$$$
EPH_relaxed_0001_pdb2pqr_Repair_39_r2_0001_out
     RDKit          3D

 82 86  0  0  0  0  0  0  0  0999 V2000
  -14.7370    5.8380    0.7170 C   0  0  0  0  0  0  0  0  0  0  0  0
  -14.0740    7.1730    0.3680 C   0  0  2  0  0  0  0  0  0  0  0  0
  -15.1080    8.2500   -0.0200 C   0  0  0  0  0  0  0  0  0  0  0  0
  -14.5580    9.6780    0.0330 C   0  0  0  0  0  0  0  0  0  0  0  0
  -15.2810   10.5860   -0.9160 C   0  0  2  0  0  0  0  0  0  0  0  0
  -15.2220   10.1840   -2.2910 O   0  0  0  0  0  0  0  0  0  0  0  0
  -14.5800   11.4270   -1.9660 C   0  0  0  0  0  0  0  0  0  0  0  0
  -13.0920   11.4020   -2.1210 C   0  0  0  0  0  0  0  0  0  0  0  0
  -15.2870   12.6300   -2.5080 C   0  0  0  0  0  0  0  0  0  0  0  0
  -13.0760    6.9770   -0.7670 C   0  0  1  0  0  0  0  0  0  0  0  0
  -13.3850    7.8710   -1.9970 C   0  0  0  0  0  0  0  0  0  0  0  0
  -12.0200    8.2780   -2.6090 C   0  0  0  0  0  0  0  0  0  0  0  0
  -10.9930    7.3480   -1.9240 C   0  0  1  0  0  0  0  0  0  0  0  0
  -11.0850    6.0010   -2.7080 C   0  0  0  0  0  0  0  0  0  0  0  0
   -9.5220    7.8750   -1.8540 C   0  0  2  0  0  0  0  0  0  0  0  0
   -8.8440    8.0990   -3.2160 C   0  0  0  0  0  0  0  0  0  0  0  0
   -8.0990    6.9240   -3.7590 C   0  0  0  0  0  0  0  0  0  0  0  0
   -7.7390    5.8340   -3.0570 C   0  0  0  0  0  0  0  0  0  0  0  0
   -7.9950    5.7500   -1.5470 C   0  0  1  0  0  0  0  0  0  0  0  0
   -6.7170    5.2370   -0.8320 C   0  0  0  0  0  0  0  0  0  0  0  0
   -6.2120    3.9200   -1.4130 C   0  0  0  0  0  0  0  0  0  0  0  0
   -5.9130    4.0590   -2.9030 C   0  0  2  0  0  0  0  0  0  0  0  0
   -4.8030    4.9460   -3.0690 O   0  0  0  0  0  0  0  0  0  0  0  0
   -7.1250    4.5790   -3.7250 C   0  0  0  0  0  0  0  0  0  0  0  0
   -8.2170    3.4820   -3.7930 C   0  0  0  0  0  0  0  0  0  0  0  0
   -6.6490    4.8090   -5.1850 C   0  0  0  0  0  0  0  0  0  0  0  0
   -8.5880    7.0600   -0.8700 C   0  0  1  0  0  0  0  0  0  0  0  0
   -7.4280    8.0190   -0.4610 C   0  0  0  0  0  0  0  0  0  0  0  0
   -9.3250    6.6620    0.4630 C   0  0  0  0  0  0  0  0  0  0  0  0
  -10.8090    6.2660    0.3440 C   0  0  0  0  0  0  0  0  0  0  0  0
  -11.5900    7.3010   -0.4700 C   0  0  2  0  0  0  0  0  0  0  0  0
  -11.5330    8.6620    0.3050 C   0  0  0  0  0  0  0  0  0  0  0  0
  -14.7906    5.7300    1.8104 H   0  0  0  0  0  0  0  0  0  0  0  0
  -15.7528    5.8119    0.2957 H   0  0  0  0  0  0  0  0  0  0  0  0
  -14.1440    5.0129    0.2957 H   0  0  0  0  0  0  0  0  0  0  0  0
  -13.5489    7.5271    1.2674 H   0  0  0  0  0  0  0  0  0  0  0  0
  -15.4519    8.0480   -1.0451 H   0  0  0  0  0  0  0  0  0  0  0  0
  -15.9241    8.1921    0.7153 H   0  0  0  0  0  0  0  0  0  0  0  0
  -14.6729   10.0666    1.0556 H   0  0  0  0  0  0  0  0  0  0  0  0
  -13.4983    9.6486   -0.2606 H   0  0  0  0  0  0  0  0  0  0  0  0
  -16.0259   10.8367   -0.1464 H   0  0  0  0  0  0  0  0  0  0  0  0
  -12.6199   11.3941   -1.1275 H   0  0  0  0  0  0  0  0  0  0  0  0
  -12.7962   10.4988   -2.6747 H   0  0  0  0  0  0  0  0  0  0  0  0
  -12.7660   12.2948   -2.6747 H   0  0  0  0  0  0  0  0  0  0  0  0
  -15.6504   13.2484   -1.6740 H   0  0  0  0  0  0  0  0  0  0  0  0
  -14.5907   13.2179   -3.1241 H   0  0  0  0  0  0  0  0  0  0  0  0
  -16.1394   12.3077   -3.1241 H   0  0  0  0  0  0  0  0  0  0  0  0
  -13.2000    5.8973   -0.9368 H   0  0  0  0  0  0  0  0  0  0  0  0
  -13.9781    7.3095   -2.7339 H   0  0  0  0  0  0  0  0  0  0  0  0
  -13.9665    8.7577   -1.7044 H   0  0  0  0  0  0  0  0  0  0  0  0
  -12.0203    8.1212   -3.6978 H   0  0  0  0  0  0  0  0  0  0  0  0
  -11.7914    9.3420   -2.4486 H   0  0  0  0  0  0  0  0  0  0  0  0
  -11.1421    5.1651   -1.9953 H   0  0  0  0  0  0  0  0  0  0  0  0
  -11.9849    6.0056   -3.3406 H   0  0  0  0  0  0  0  0  0  0  0  0
  -10.1928    5.8832   -3.3406 H   0  0  0  0  0  0  0  0  0  0  0  0
   -9.6504    8.8760   -1.4165 H   0  0  0  0  0  0  0  0  0  0  0  0
   -9.6232    8.3727   -3.9426 H   0  0  0  0  0  0  0  0  0  0  0  0
   -8.0938    8.8875   -3.0563 H   0  0  0  0  0  0  0  0  0  0  0  0
   -7.8210    6.9520   -4.8229 H   0  0  0  0  0  0  0  0  0  0  0  0
   -8.8117    5.0246   -1.4178 H   0  0  0  0  0  0  0  0  0  0  0  0
   -5.9264    5.9947   -0.9358 H   0  0  0  0  0  0  0  0  0  0  0  0
   -6.9720    5.0610    0.2235 H   0  0  0  0  0  0  0  0  0  0  0  0
   -5.2920    3.6242   -0.8875 H   0  0  0  0  0  0  0  0  0  0  0  0
   -6.9930    3.1565   -1.2818 H   0  0  0  0  0  0  0  0  0  0  0  0
   -5.6806    3.0552   -3.2882 H   0  0  0  0  0  0  0  0  0  0  0  0
   -4.6960    5.1090   -4.0220 H   0  0  0  0  0  0  0  0  0  0  0  0
   -8.5075    3.1901   -2.7730 H   0  0  0  0  0  0  0  0  0  0  0  0
   -9.0959    3.8721   -4.3271 H   0  0  0  0  0  0  0  0  0  0  0  0
   -7.8228    2.6049   -4.3271 H   0  0  0  0  0  0  0  0  0  0  0  0
   -5.6586    5.2876   -5.1767 H   0  0  0  0  0  0  0  0  0  0  0  0
   -6.5848    3.8425   -5.7063 H   0  0  0  0  0  0  0  0  0  0  0  0
   -7.3664    5.4599   -5.7063 H   0  0  0  0  0  0  0  0  0  0  0  0
   -7.3649    8.0712    0.6359 H   0  0  0  0  0  0  0  0  0  0  0  0
   -6.4782    7.6389   -0.8652 H   0  0  0  0  0  0  0  0  0  0  0  0
   -7.6228    9.0233   -0.8652 H   0  0  0  0  0  0  0  0  0  0  0  0
   -8.7864    5.8076    0.8988 H   0  0  0  0  0  0  0  0  0  0  0  0
   -9.3185    7.5734    1.0789 H   0  0  0  0  0  0  0  0  0  0  0  0
  -10.8814    5.2878   -0.1539 H   0  0  0  0  0  0  0  0  0  0  0  0
  -11.2406    6.2171    1.3546 H   0  0  0  0  0  0  0  0  0  0  0  0
  -11.5411    8.4680    1.3877 H   0  0  0  0  0  0  0  0  0  0  0  0
  -10.6116    9.1990    0.0356 H   0  0  0  0  0  0  0  0  0  0  0  0
  -12.4063    9.2742    0.0356 H   0  0  0  0  0  0  0  0  0  0  0  0
  1  2  1  0
  2  3  1  0
  3  4  1  0
  4  5  1  0
  5  6  1  0
  6  7  1  0
  7  8  1  0
  7  9  1  0
  2 10  1  0
 10 11  1  0
 11 12  1  0
 12 13  1  0
 13 14  1  6
 13 15  1  0
 15 16  1  0
 16 17  1  0
 17 18  2  0
 18 19  1  0
 19 20  1  0
 20 21  1  0
 21 22  1  0
 22 23  1  0
 22 24  1  0
 24 25  1  0
 24 26  1  0
 19 27  1  0
 27 28  1  1
 27 29  1  0
 29 30  1  0
 30 31  1  0
 31 32  1  1
  7  5  1  0
 31 10  1  0
 31 13  1  0
 27 15  1  0
 24 18  1  0
  1 33  1  0
  1 34  1  0
  1 35  1  0
  2 36  1  1
  3 37  1  0
  3 38  1  0
  4 39  1  0
  4 40  1  0
  5 41  1  1
  8 42  1  0
  8 43  1  0
  8 44  1  0
  9 45  1  0
  9 46  1  0
  9 47  1  0
 10 48  1  6
 11 49  1  0
 11 50  1  0
 12 51  1  0
 12 52  1  0
 14 53  1  0
 14 54  1  0
 14 55  1  0
 15 56  1  1
 16 57  1  0
 16 58  1  0
 17 59  1  0
 19 60  1  6
 20 61  1  0
 20 62  1  0
 21 63  1  0
 21 64  1  0
 22 65  1  6
 23 66  1  0
 25 67  1  0
 25 68  1  0
 25 69  1  0
 26 70  1  0
 26 71  1  0
 26 72  1  0
 28 73  1  0
 28 74  1  0
 28 75  1  0
 29 76  1  0
 29 77  1  0
 30 78  1  0
 30 79  1  0
 32 80  1  0
 32 81  1  0
 32 82  1  0
M  END
>  <meeko>  (6) 
{"is_sidechain": [false], "intermolecular_energy": 2.731, "internal_energy": -0.839}

$$$$
EPH_relaxed_0001_pdb2pqr_Repair_39_r2_0001_out
     RDKit          3D

 82 86  0  0  0  0  0  0  0  0999 V2000
    3.8510   17.3810    0.2700 C   0  0  0  0  0  0  0  0  0  0  0  0
    3.2520   16.8340   -1.0290 C   0  0  2  0  0  0  0  0  0  0  0  0
    2.7190   17.9580   -1.9410 C   0  0  0  0  0  0  0  0  0  0  0  0
    2.0040   19.0790   -1.1820 C   0  0  0  0  0  0  0  0  0  0  0  0
    0.5130   18.9530   -1.2830 C   0  0  2  0  0  0  0  0  0  0  0  0
   -0.1810   20.1940   -1.4620 O   0  0  0  0  0  0  0  0  0  0  0  0
   -0.4440   19.4910   -0.2370 C   0  0  0  0  0  0  0  0  0  0  0  0
    0.0520   20.1940    0.9870 C   0  0  0  0  0  0  0  0  0  0  0  0
   -1.8210   18.9080   -0.1600 C   0  0  0  0  0  0  0  0  0  0  0  0
    2.1350   15.8470   -0.7120 C   0  0  1  0  0  0  0  0  0  0  0  0
    0.7960   16.5520   -0.3640 C   0  0  0  0  0  0  0  0  0  0  0  0
   -0.3390   15.6540   -0.9200 C   0  0  0  0  0  0  0  0  0  0  0  0
    0.3560   14.3170   -1.2690 C   0  0  1  0  0  0  0  0  0  0  0  0
    0.4650   13.5550    0.0880 C   0  0  0  0  0  0  0  0  0  0  0  0
   -0.3360   13.4450   -2.3670 C   0  0  2  0  0  0  0  0  0  0  0  0
   -1.7490   12.9510   -2.0130 C   0  0  0  0  0  0  0  0  0  0  0  0
   -1.8080   11.6280   -1.3230 C   0  0  0  0  0  0  0  0  0  0  0  0
   -0.8010   10.7370   -1.2530 C   0  0  0  0  0  0  0  0  0  0  0  0
    0.5200   10.9820   -1.9930 C   0  0  1  0  0  0  0  0  0  0  0  0
    0.9410    9.6900   -2.7430 C   0  0  0  0  0  0  0  0  0  0  0  0
    1.0030    8.4740   -1.8240 C   0  0  0  0  0  0  0  0  0  0  0  0
   -0.3450    8.2290   -1.1510 C   0  0  2  0  0  0  0  0  0  0  0  0
   -1.2950    7.8450   -2.1500 O   0  0  0  0  0  0  0  0  0  0  0  0
   -0.8750    9.4650   -0.3730 C   0  0  0  0  0  0  0  0  0  0  0  0
   -0.0080    9.6970    0.8890 C   0  0  0  0  0  0  0  0  0  0  0  0
   -2.3030    9.1320    0.1370 C   0  0  0  0  0  0  0  0  0  0  0  0
    0.5650   12.2690   -2.9240 C   0  0  1  0  0  0  0  0  0  0  0  0
    0.0170   11.9210   -4.3410 C   0  0  0  0  0  0  0  0  0  0  0  0
    2.0640   12.7070   -3.1230 C   0  0  0  0  0  0  0  0  0  0  0  0
    2.6540   13.6650   -2.0700 C   0  0  0  0  0  0  0  0  0  0  0  0
    1.7220   14.8570   -1.8290 C   0  0  2  0  0  0  0  0  0  0  0  0
    1.6110   15.6550   -3.1730 C   0  0  0  0  0  0  0  0  0  0  0  0
    3.3448   16.9188    1.1303 H   0  0  0  0  0  0  0  0  0  0  0  0
    4.9248   17.1453    0.3064 H   0  0  0  0  0  0  0  0  0  0  0  0
    3.7136   18.4718    0.3064 H   0  0  0  0  0  0  0  0  0  0  0  0
    4.0577   16.3204   -1.5740 H   0  0  0  0  0  0  0  0  0  0  0  0
    3.5685   18.3948   -2.4865 H   0  0  0  0  0  0  0  0  0  0  0  0
    1.9780   17.5019   -2.6140 H   0  0  0  0  0  0  0  0  0  0  0  0
    2.2947   19.0338   -0.1221 H   0  0  0  0  0  0  0  0  0  0  0  0
    2.2985   20.0393   -1.6306 H   0  0  0  0  0  0  0  0  0  0  0  0
    0.6046   17.9665   -1.7610 H   0  0  0  0  0  0  0  0  0  0  0  0
   -0.3156   19.6730    1.8834 H   0  0  0  0  0  0  0  0  0  0  0  0
    1.1520   20.1951    0.9888 H   0  0  0  0  0  0  0  0  0  0  0  0
   -0.3157   21.2307    0.9888 H   0  0  0  0  0  0  0  0  0  0  0  0
   -2.1091   18.7860    0.8946 H   0  0  0  0  0  0  0  0  0  0  0  0
   -2.5329   19.5819   -0.6590 H   0  0  0  0  0  0  0  0  0  0  0  0
   -1.8326   17.9278   -0.6590 H   0  0  0  0  0  0  0  0  0  0  0  0
    2.6026   15.3010    0.1206 H   0  0  0  0  0  0  0  0  0  0  0  0
    0.6957   16.6580    0.7263 H   0  0  0  0  0  0  0  0  0  0  0  0
    0.7539   17.5596   -0.8033 H   0  0  0  0  0  0  0  0  0  0  0  0
   -1.1191   15.4992   -0.1601 H   0  0  0  0  0  0  0  0  0  0  0  0
   -0.8381   16.1042   -1.7908 H   0  0  0  0  0  0  0  0  0  0  0  0
    0.3629   14.2689    0.9186 H   0  0  0  0  0  0  0  0  0  0  0  0
   -0.3346   12.8022    0.1511 H   0  0  0  0  0  0  0  0  0  0  0  0
    1.4436   13.0566    0.1511 H   0  0  0  0  0  0  0  0  0  0  0  0
   -0.4681   14.1630   -3.1898 H   0  0  0  0  0  0  0  0  0  0  0  0
   -2.2155   13.6987   -1.3548 H   0  0  0  0  0  0  0  0  0  0  0  0
   -2.2738   12.8184   -2.9706 H   0  0  0  0  0  0  0  0  0  0  0  0
   -2.7539   11.3587   -0.8304 H   0  0  0  0  0  0  0  0  0  0  0  0
    1.2623   11.2228   -1.2177 H   0  0  0  0  0  0  0  0  0  0  0  0
    0.2106    9.4918   -3.5413 H   0  0  0  0  0  0  0  0  0  0  0  0
    1.9502    9.8534   -3.1490 H   0  0  0  0  0  0  0  0  0  0  0  0
    1.2756    7.5884   -2.4168 H   0  0  0  0  0  0  0  0  0  0  0  0
    1.7557    8.6616   -1.0441 H   0  0  0  0  0  0  0  0  0  0  0  0
   -0.2033    7.4294   -0.4090 H   0  0  0  0  0  0  0  0  0  0  0  0
   -1.9370    7.2470   -1.7310 H   0  0  0  0  0  0  0  0  0  0  0  0
   -0.6192    9.5335    1.7889 H   0  0  0  0  0  0  0  0  0  0  0  0
    0.8377    8.9935    0.8873 H   0  0  0  0  0  0  0  0  0  0  0  0
    0.3733   10.7288    0.8873 H   0  0  0  0  0  0  0  0  0  0  0  0
   -2.3085    9.1307    1.2370 H   0  0  0  0  0  0  0  0  0  0  0  0
   -3.0101    9.8893   -0.2323 H   0  0  0  0  0  0  0  0  0  0  0  0
   -2.6022    8.1400   -0.2323 H   0  0  0  0  0  0  0  0  0  0  0  0
   -0.9078   11.3337   -4.2424 H   0  0  0  0  0  0  0  0  0  0  0  0
   -0.1954   12.8500   -4.8903 H   0  0  0  0  0  0  0  0  0  0  0  0
    0.7675   11.3337   -4.8903 H   0  0  0  0  0  0  0  0  0  0  0  0
    2.6795   11.7953   -3.1253 H   0  0  0  0  0  0  0  0  0  0  0  0
    2.0754   13.2736   -4.0658 H   0  0  0  0  0  0  0  0  0  0  0  0
    2.7923   13.1196   -1.1248 H   0  0  0  0  0  0  0  0  0  0  0  0
    3.6180   14.0432   -2.4412 H   0  0  0  0  0  0  0  0  0  0  0  0
    1.4625   16.7228   -2.9543 H   0  0  0  0  0  0  0  0  0  0  0  0
    2.5359   15.5250   -3.7541 H   0  0  0  0  0  0  0  0  0  0  0  0
    0.7567   15.2775   -3.7541 H   0  0  0  0  0  0  0  0  0  0  0  0
  1  2  1  0
  2  3  1  0
  3  4  1  0
  4  5  1  0
  5  6  1  0
  6  7  1  0
  7  8  1  0
  7  9  1  0
  2 10  1  0
 10 11  1  0
 11 12  1  0
 12 13  1  0
 13 14  1  1
 13 15  1  0
 15 16  1  0
 16 17  1  0
 17 18  2  0
 18 19  1  0
 19 20  1  0
 20 21  1  0
 21 22  1  0
 22 23  1  0
 22 24  1  0
 24 25  1  0
 24 26  1  0
 19 27  1  0
 27 28  1  6
 27 29  1  0
 29 30  1  0
 30 31  1  0
 31 32  1  6
  7  5  1  0
 31 10  1  0
 31 13  1  0
 27 15  1  0
 24 18  1  0
  1 33  1  0
  1 34  1  0
  1 35  1  0
  2 36  1  6
  3 37  1  0
  3 38  1  0
  4 39  1  0
  4 40  1  0
  5 41  1  6
  8 42  1  0
  8 43  1  0
  8 44  1  0
  9 45  1  0
  9 46  1  0
  9 47  1  0
 10 48  1  1
 11 49  1  0
 11 50  1  0
 12 51  1  0
 12 52  1  0
 14 53  1  0
 14 54  1  0
 14 55  1  0
 15 56  1  6
 16 57  1  0
 16 58  1  0
 17 59  1  0
 19 60  1  1
 20 61  1  0
 20 62  1  0
 21 63  1  0
 21 64  1  0
 22 65  1  1
 23 66  1  0
 25 67  1  0
 25 68  1  0
 25 69  1  0
 26 70  1  0
 26 71  1  0
 26 72  1  0
 28 73  1  0
 28 74  1  0
 28 75  1  0
 29 76  1  0
 29 77  1  0
 30 78  1  0
 30 79  1  0
 32 80  1  0
 32 81  1  0
 32 82  1  0
M  END
>  <meeko>  (7) 
{"is_sidechain": [false], "intermolecular_energy": 2.731, "internal_energy": -0.839}

$$$$
EPH_relaxed_0001_pdb2pqr_Repair_39_r2_0001_out
     RDKit          3D

 82 86  0  0  0  0  0  0  0  0999 V2000
   -0.2050   10.3900   -3.6320 C   0  0  0  0  0  0  0  0  0  0  0  0
    0.9360   10.2200   -2.6260 C   0  0  2  0  0  0  0  0  0  0  0  0
    0.7720    8.9490   -1.7700 C   0  0  0  0  0  0  0  0  0  0  0  0
    0.0780    9.1960   -0.4270 C   0  0  0  0  0  0  0  0  0  0  0  0
   -1.3320    8.6890   -0.4300 C   0  0  2  0  0  0  0  0  0  0  0  0
   -2.0030    8.7910   -1.6930 O   0  0  0  0  0  0  0  0  0  0  0  0
   -2.5430    9.5830   -0.6240 C   0  0  0  0  0  0  0  0  0  0  0  0
   -2.3980   11.0590   -0.8270 C   0  0  0  0  0  0  0  0  0  0  0  0
   -3.8720    9.1040   -0.1300 C   0  0  0  0  0  0  0  0  0  0  0  0
    1.0220   11.4470   -1.7250 C   0  0  1  0  0  0  0  0  0  0  0  0
    2.0920   11.2960   -0.6110 C   0  0  0  0  0  0  0  0  0  0  0  0
    2.7070   12.7020   -0.3880 C   0  0  0  0  0  0  0  0  0  0  0  0
    1.7540   13.6670   -1.1320 C   0  0  1  0  0  0  0  0  0  0  0  0
    0.5640   13.8930   -0.1480 C   0  0  0  0  0  0  0  0  0  0  0  0
    2.3750   15.0210   -1.6080 C   0  0  2  0  0  0  0  0  0  0  0  0
    2.8890   15.9350   -0.4820 C   0  0  0  0  0  0  0  0  0  0  0  0
    1.8910   16.9050    0.0580 C   0  0  0  0  0  0  0  0  0  0  0  0
    0.7260   17.2360   -0.5300 C   0  0  0  0  0  0  0  0  0  0  0  0
    0.3570   16.6860   -1.9140 C   0  0  1  0  0  0  0  0  0  0  0  0
   -0.1720   17.8400   -2.8050 C   0  0  0  0  0  0  0  0  0  0  0  0
   -1.3220   18.6020   -2.1550 C   0  0  0  0  0  0  0  0  0  0  0  0
   -0.8990   19.1830   -0.8080 C   0  0  2  0  0  0  0  0  0  0  0  0
    0.0880   20.1940   -1.0320 O   0  0  0  0  0  0  0  0  0  0  0  0
   -0.3400   18.1140    0.1720 C   0  0  0  0  0  0  0  0  0  0  0  0
   -1.4900   17.1940    0.6500 C   0  0  0  0  0  0  0  0  0  0  0  0
    0.1810   18.8510    1.4350 C   0  0  0  0  0  0  0  0  0  0  0  0
    1.4760   15.8200   -2.6360 C   0  0  1  0  0  0  0  0  0  0  0  0
    2.4370   16.7520   -3.4360 C   0  0  0  0  0  0  0  0  0  0  0  0
    0.7920   14.8750   -3.6940 C   0  0  0  0  0  0  0  0  0  0  0  0
    0.3070   13.5030   -3.1880 C   0  0  0  0  0  0  0  0  0  0  0  0
    1.4060   12.7930   -2.3910 C   0  0  2  0  0  0  0  0  0  0  0  0
    2.6080   12.5320   -3.3610 C   0  0  0  0  0  0  0  0  0  0  0  0
   -1.1525   10.5312   -3.0914 H   0  0  0  0  0  0  0  0  0  0  0  0
   -0.0089   11.2688   -4.2638 H   0  0  0  0  0  0  0  0  0  0  0  0
   -0.2736    9.4922   -4.2638 H   0  0  0  0  0  0  0  0  0  0  0  0
    1.8686   10.1132   -3.1995 H   0  0  0  0  0  0  0  0  0  0  0  0
    0.1761    8.2210   -2.3400 H   0  0  0  0  0  0  0  0  0  0  0  0
    1.7837    8.5799   -1.5458 H   0  0  0  0  0  0  0  0  0  0  0  0
    0.6406    8.6802    0.3651 H   0  0  0  0  0  0  0  0  0  0  0  0
    0.0517   10.2812   -0.2492 H   0  0  0  0  0  0  0  0  0  0  0  0
   -1.0863    7.9339    0.3312 H   0  0  0  0  0  0  0  0  0  0  0  0
   -2.3487   11.5605    0.1508 H   0  0  0  0  0  0  0  0  0  0  0  0
   -1.4755   11.2627   -1.3905 H   0  0  0  0  0  0  0  0  0  0  0  0
   -3.2632   11.4384   -1.3905 H   0  0  0  0  0  0  0  0  0  0  0  0
   -3.8756    9.1027    0.9700 H   0  0  0  0  0  0  0  0  0  0  0  0
   -4.6632    9.7735   -0.4984 H   0  0  0  0  0  0  0  0  0  0  0  0
   -4.0541    8.0837   -0.4984 H   0  0  0  0  0  0  0  0  0  0  0  0
   -0.0176   11.4868   -1.3676 H   0  0  0  0  0  0  0  0  0  0  0  0
    1.6243   10.9355    0.3171 H   0  0  0  0  0  0  0  0  0  0  0  0
    2.8644   10.5685   -0.9012 H   0  0  0  0  0  0  0  0  0  0  0  0
    2.7449   12.9437    0.6845 H   0  0  0  0  0  0  0  0  0  0  0  0
    3.7407   12.7687   -0.7581 H   0  0  0  0  0  0  0  0  0  0  0  0
    0.9268   13.8241    0.8881 H   0  0  0  0  0  0  0  0  0  0  0  0
    0.1308   14.8895   -0.3193 H   0  0  0  0  0  0  0  0  0  0  0  0
   -0.2044   13.1247   -0.3193 H   0  0  0  0  0  0  0  0  0  0  0  0
    3.2698   14.6905   -2.1558 H   0  0  0  0  0  0  0  0  0  0  0  0
    3.2251   15.2958    0.3478 H   0  0  0  0  0  0  0  0  0  0  0  0
    3.6930   16.5409   -0.9252 H   0  0  0  0  0  0  0  0  0  0  0  0
    2.1273   17.3899    1.0166 H   0  0  0  0  0  0  0  0  0  0  0  0
   -0.4418   15.9487   -1.7460 H   0  0  0  0  0  0  0  0  0  0  0  0
    0.6521   18.5427   -2.9976 H   0  0  0  0  0  0  0  0  0  0  0  0
   -0.5513   17.3949   -3.7367 H   0  0  0  0  0  0  0  0  0  0  0  0
   -1.6317   19.4221   -2.8195 H   0  0  0  0  0  0  0  0  0  0  0  0
   -2.1566   17.9046   -1.9902 H   0  0  0  0  0  0  0  0  0  0  0  0
   -1.7976   19.6036   -0.3330 H   0  0  0  0  0  0  0  0  0  0  0  0
    0.9620   19.7770   -0.9470 H   0  0  0  0  0  0  0  0  0  0  0  0
   -1.5123   17.1761    1.7496 H   0  0  0  0  0  0  0  0  0  0  0  0
   -2.4484   17.5775    0.2700 H   0  0  0  0  0  0  0  0  0  0  0  0
   -1.3263   16.1748    0.2700 H   0  0  0  0  0  0  0  0  0  0  0  0
   -0.1830   18.3361    2.3363 H   0  0  0  0  0  0  0  0  0  0  0  0
    1.2810   18.8511    1.4318 H   0  0  0  0  0  0  0  0  0  0  0  0
   -0.1858   19.8880    1.4318 H   0  0  0  0  0  0  0  0  0  0  0  0
    3.0448   17.3415   -2.7338 H   0  0  0  0  0  0  0  0  0  0  0  0
    3.0973   16.1412   -4.0692 H   0  0  0  0  0  0  0  0  0  0  0  0
    1.8467   17.4307   -4.0692 H   0  0  0  0  0  0  0  0  0  0  0  0
   -0.0805   15.4072   -4.1009 H   0  0  0  0  0  0  0  0  0  0  0  0
    1.5781   14.6494   -4.4296 H   0  0  0  0  0  0  0  0  0  0  0  0
   -0.5706   13.6478   -2.5407 H   0  0  0  0  0  0  0  0  0  0  0  0
    0.0460   12.8808   -4.0568 H   0  0  0  0  0  0  0  0  0  0  0  0
    3.5169   12.3346   -2.7737 H   0  0  0  0  0  0  0  0  0  0  0  0
    2.3850   11.6613   -3.9952 H   0  0  0  0  0  0  0  0  0  0  0  0
    2.7662   13.4167   -3.9952 H   0  0  0  0  0  0  0  0  0  0  0  0
  1  2  1  0
  2  3  1  0
  3  4  1  0
  4  5  1  0
  5  6  1  0
  6  7  1  0
  7  8  1  0
  7  9  1  0
  2 10  1  0
 10 11  1  0
 11 12  1  0
 12 13  1  0
 13 14  1  1
 13 15  1  0
 15 16  1  0
 16 17  1  0
 17 18  2  0
 18 19  1  0
 19 20  1  0
 20 21  1  0
 21 22  1  0
 22 23  1  0
 22 24  1  0
 24 25  1  0
 24 26  1  0
 19 27  1  0
 27 28  1  6
 27 29  1  0
 29 30  1  0
 30 31  1  0
 31 32  1  6
  7  5  1  0
 31 10  1  0
 31 13  1  0
 27 15  1  0
 24 18  1  0
  1 33  1  0
  1 34  1  0
  1 35  1  0
  2 36  1  6
  3 37  1  0
  3 38  1  0
  4 39  1  0
  4 40  1  0
  5 41  1  1
  8 42  1  0
  8 43  1  0
  8 44  1  0
  9 45  1  0
  9 46  1  0
  9 47  1  0
 10 48  1  1
 11 49  1  0
 11 50  1  0
 12 51  1  0
 12 52  1  0
 14 53  1  0
 14 54  1  0
 14 55  1  0
 15 56  1  6
 16 57  1  0
 16 58  1  0
 17 59  1  0
 19 60  1  1
 20 61  1  0
 20 62  1  0
 21 63  1  0
 21 64  1  0
 22 65  1  1
 23 66  1  0
 25 67  1  0
 25 68  1  0
 25 69  1  0
 26 70  1  0
 26 71  1  0
 26 72  1  0
 28 73  1  0
 28 74  1  0
 28 75  1  0
 29 76  1  0
 29 77  1  0
 30 78  1  0
 30 79  1  0
 32 80  1  0
 32 81  1  0
 32 82  1  0
M  END
>  <meeko>  (8) 
{"is_sidechain": [false], "intermolecular_energy": 2.731, "internal_energy": -0.839}

$$$$
EPH_relaxed_0001_pdb2pqr_Repair_39_r2_0001_out
     RDKit          3D

 82 86  0  0  0  0  0  0  0  0999 V2000
   -5.0140    8.3070   -1.0040 C   0  0  0  0  0  0  0  0  0  0  0  0
   -5.6110    7.1350   -1.7880 C   0  0  2  0  0  0  0  0  0  0  0  0
   -4.7520    6.7570   -3.0110 C   0  0  0  0  0  0  0  0  0  0  0  0
   -4.3330    5.2850   -3.0380 C   0  0  0  0  0  0  0  0  0  0  0  0
   -5.3420    4.4080   -2.3600 C   0  0  2  0  0  0  0  0  0  0  0  0
   -5.2560    3.0190   -2.7030 O   0  0  0  0  0  0  0  0  0  0  0  0
   -6.4600    3.6950   -3.0980 C   0  0  0  0  0  0  0  0  0  0  0  0
   -6.6270    3.8280   -4.5790 C   0  0  0  0  0  0  0  0  0  0  0  0
   -7.6700    3.2710   -2.3250 C   0  0  0  0  0  0  0  0  0  0  0  0
   -7.0290    7.4740   -2.2320 C   0  0  1  0  0  0  0  0  0  0  0  0
   -7.3950    6.8400   -3.6000 C   0  0  0  0  0  0  0  0  0  0  0  0
   -8.8990    6.4700   -3.5340 C   0  0  0  0  0  0  0  0  0  0  0  0
   -9.4240    7.1970   -2.2740 C   0  0  1  0  0  0  0  0  0  0  0  0
   -9.6760    8.6670   -2.7350 C   0  0  0  0  0  0  0  0  0  0  0  0
  -10.6910    6.5790   -1.5970 C   0  0  2  0  0  0  0  0  0  0  0  0
  -11.9570    6.5660   -2.4710 C   0  0  0  0  0  0  0  0  0  0  0  0
  -12.8270    7.7740   -2.3510 C   0  0  0  0  0  0  0  0  0  0  0  0
  -12.7560    8.6940   -1.3710 C   0  0  0  0  0  0  0  0  0  0  0  0
  -11.7910    8.5160   -0.1920 C   0  0  1  0  0  0  0  0  0  0  0  0
  -12.5360    8.8130    1.1360 C   0  0  0  0  0  0  0  0  0  0  0  0
  -13.2100   10.1820    1.1350 C   0  0  0  0  0  0  0  0  0  0  0  0
  -14.2050   10.2990   -0.0170 C   0  0  2  0  0  0  0  0  0  0  0  0
  -15.2870    9.3920    0.2150 O   0  0  0  0  0  0  0  0  0  0  0  0
  -13.5700   10.0110   -1.4060 C   0  0  0  0  0  0  0  0  0  0  0  0
  -12.6120   11.1650   -1.7890 C   0  0  0  0  0  0  0  0  0  0  0  0
  -14.7080   10.0230   -2.4620 C   0  0  0  0  0  0  0  0  0  0  0  0
  -10.9930    7.1430   -0.1500 C   0  0  1  0  0  0  0  0  0  0  0  0
  -11.8390    6.0580    0.5830 C   0  0  0  0  0  0  0  0  0  0  0  0
   -9.6830    7.3350    0.7030 C   0  0  0  0  0  0  0  0  0  0  0  0
   -8.4330    7.8340   -0.0470 C   0  0  0  0  0  0  0  0  0  0  0  0
   -8.1910    7.0130   -1.3170 C   0  0  2  0  0  0  0  0  0  0  0  0
   -7.9120    5.5330   -0.8830 C   0  0  0  0  0  0  0  0  0  0  0  0
   -5.1121    8.1145    0.0746 H   0  0  0  0  0  0  0  0  0  0  0  0
   -3.9502    8.4166   -1.2617 H   0  0  0  0  0  0  0  0  0  0  0  0
   -5.5508    9.2319   -1.2617 H   0  0  0  0  0  0  0  0  0  0  0  0
   -5.6306    6.2640   -1.1164 H   0  0  0  0  0  0  0  0  0  0  0  0
   -5.3315    6.9698   -3.9214 H   0  0  0  0  0  0  0  0  0  0  0  0
   -3.8291    7.3527   -2.9518 H   0  0  0  0  0  0  0  0  0  0  0  0
   -4.2277    4.9636   -4.0847 H   0  0  0  0  0  0  0  0  0  0  0  0
   -3.3792    5.1904   -2.4983 H   0  0  0  0  0  0  0  0  0  0  0  0
   -5.3393    5.0536   -1.4694 H   0  0  0  0  0  0  0  0  0  0  0  0
   -7.4709    4.5001   -4.7939 H   0  0  0  0  0  0  0  0  0  0  0  0
   -5.7069    4.2434   -5.0159 H   0  0  0  0  0  0  0  0  0  0  0  0
   -6.8260    2.8383   -5.0159 H   0  0  0  0  0  0  0  0  0  0  0  0
   -7.4610    3.3442   -1.2475 H   0  0  0  0  0  0  0  0  0  0  0  0
   -8.5160    3.9262   -2.5798 H   0  0  0  0  0  0  0  0  0  0  0  0
   -7.9220    2.2310   -2.5798 H   0  0  0  0  0  0  0  0  0  0  0  0
   -6.9633    8.5720   -2.2323 H   0  0  0  0  0  0  0  0  0  0  0  0
   -7.2177    7.5614   -4.4113 H   0  0  0  0  0  0  0  0  0  0  0  0
   -6.7784    5.9515   -3.8009 H   0  0  0  0  0  0  0  0  0  0  0  0
   -9.4255    6.8222   -4.4333 H   0  0  0  0  0  0  0  0  0  0  0  0
   -9.0597    5.3829   -3.4860 H   0  0  0  0  0  0  0  0  0  0  0  0
   -9.7869    9.3141   -1.8524 H   0  0  0  0  0  0  0  0  0  0  0  0
   -8.8241    9.0131   -3.3387 H   0  0  0  0  0  0  0  0  0  0  0  0
  -10.5945    8.7096   -3.3387 H   0  0  0  0  0  0  0  0  0  0  0  0
  -10.4022    5.5247   -1.4744 H   0  0  0  0  0  0  0  0  0  0  0  0
  -11.6439    6.4755   -3.5216 H   0  0  0  0  0  0  0  0  0  0  0  0
  -12.5624    5.7184   -2.1174 H   0  0  0  0  0  0  0  0  0  0  0  0
  -13.5900    7.9246   -3.1289 H   0  0  0  0  0  0  0  0  0  0  0  0
  -10.9880    9.2526   -0.3426 H   0  0  0  0  0  0  0  0  0  0  0  0
  -13.3049    8.0415    1.2892 H   0  0  0  0  0  0  0  0  0  0  0  0
  -11.7909    8.8081    1.9452 H   0  0  0  0  0  0  0  0  0  0  0  0
  -13.7433   10.3215    2.0869 H   0  0  0  0  0  0  0  0  0  0  0  0
  -12.4365   10.9542    1.0109 H   0  0  0  0  0  0  0  0  0  0  0  0
  -14.5585   11.3403   -0.0437 H   0  0  0  0  0  0  0  0  0  0  0  0
  -15.0990    8.5760   -0.2790 H   0  0  0  0  0  0  0  0  0  0  0  0
  -12.2212   11.6358   -0.8749 H   0  0  0  0  0  0  0  0  0  0  0  0
  -11.7760   10.7660   -2.3821 H   0  0  0  0  0  0  0  0  0  0  0  0
  -13.1581   11.9133   -2.3821 H   0  0  0  0  0  0  0  0  0  0  0  0
  -15.6821   10.0333   -1.9512 H   0  0  0  0  0  0  0  0  0  0  0  0
  -14.6146   10.9202   -3.0915 H   0  0  0  0  0  0  0  0  0  0  0  0
  -14.6336    9.1240   -3.0915 H   0  0  0  0  0  0  0  0  0  0  0  0
  -11.7381    6.1874    1.6707 H   0  0  0  0  0  0  0  0  0  0  0  0
  -12.8962    6.1628    0.2978 H   0  0  0  0  0  0  0  0  0  0  0  0
  -11.4796    5.0583    0.2978 H   0  0  0  0  0  0  0  0  0  0  0  0
   -9.9068    8.0620    1.4976 H   0  0  0  0  0  0  0  0  0  0  0  0
   -9.4217    6.3279    1.0601 H   0  0  0  0  0  0  0  0  0  0  0  0
   -8.5762    8.8892   -0.3226 H   0  0  0  0  0  0  0  0  0  0  0  0
   -7.5604    7.7233    0.6135 H   0  0  0  0  0  0  0  0  0  0  0  0
   -7.8999    5.4690    0.2151 H   0  0  0  0  0  0  0  0  0  0  0  0
   -8.7027    4.8793   -1.2797 H   0  0  0  0  0  0  0  0  0  0  0  0
   -6.9375    5.2120   -1.2797 H   0  0  0  0  0  0  0  0  0  0  0  0
  1  2  1  0
  2  3  1  0
  3  4  1  0
  4  5  1  0
  5  6  1  0
  6  7  1  0
  7  8  1  0
  7  9  1  0
  2 10  1  0
 10 11  1  0
 11 12  1  0
 12 13  1  0
 13 14  1  6
 13 15  1  0
 15 16  1  0
 16 17  1  0
 17 18  2  0
 18 19  1  0
 19 20  1  0
 20 21  1  0
 21 22  1  0
 22 23  1  0
 22 24  1  0
 24 25  1  0
 24 26  1  0
 19 27  1  0
 27 28  1  1
 27 29  1  0
 29 30  1  0
 30 31  1  0
 31 32  1  1
  7  5  1  0
 31 10  1  0
 31 13  1  0
 27 15  1  0
 24 18  1  0
  1 33  1  0
  1 34  1  0
  1 35  1  0
  2 36  1  1
  3 37  1  0
  3 38  1  0
  4 39  1  0
  4 40  1  0
  5 41  1  1
  8 42  1  0
  8 43  1  0
  8 44  1  0
  9 45  1  0
  9 46  1  0
  9 47  1  0
 10 48  1  6
 11 49  1  0
 11 50  1  0
 12 51  1  0
 12 52  1  0
 14 53  1  0
 14 54  1  0
 14 55  1  0
 15 56  1  1
 16 57  1  0
 16 58  1  0
 17 59  1  0
 19 60  1  6
 20 61  1  0
 20 62  1  0
 21 63  1  0
 21 64  1  0
 22 65  1  6
 23 66  1  0
 25 67  1  0
 25 68  1  0
 25 69  1  0
 26 70  1  0
 26 71  1  0
 26 72  1  0
 28 73  1  0
 28 74  1  0
 28 75  1  0
 29 76  1  0
 29 77  1  0
 30 78  1  0
 30 79  1  0
 32 80  1  0
 32 81  1  0
 32 82  1  0
M  END
>  <meeko>  (9) 
{"is_sidechain": [false], "intermolecular_energy": 2.731, "internal_energy": -0.839}

$$$$
EPH_relaxed_0001_pdb2pqr_Repair_39_r2_0001_out
     RDKit          3D

 82 86  0  0  0  0  0  0  0  0999 V2000
   -5.1470    5.9060   -1.7810 C   0  0  0  0  0  0  0  0  0  0  0  0
   -5.4570    7.4050   -1.8320 C   0  0  2  0  0  0  0  0  0  0  0  0
   -5.2230    8.0930   -0.4720 C   0  0  0  0  0  0  0  0  0  0  0  0
   -4.1470    9.1820   -0.5110 C   0  0  0  0  0  0  0  0  0  0  0  0
   -2.7960    8.6150   -0.8260 C   0  0  2  0  0  0  0  0  0  0  0  0
   -1.7760    8.9310    0.1310 O   0  0  0  0  0  0  0  0  0  0  0  0
   -1.5950    9.4680   -1.1900 C   0  0  0  0  0  0  0  0  0  0  0  0
   -1.6890   10.9600   -1.2580 C   0  0  0  0  0  0  0  0  0  0  0  0
   -0.4710    8.8340   -1.9490 C   0  0  0  0  0  0  0  0  0  0  0  0
   -6.8950    7.6230   -2.2860 C   0  0  1  0  0  0  0  0  0  0  0  0
   -7.2070    6.9300   -3.6390 C   0  0  0  0  0  0  0  0  0  0  0  0
   -8.6790    6.4470   -3.5650 C   0  0  0  0  0  0  0  0  0  0  0  0
   -9.2620    7.1610   -2.3230 C   0  0  1  0  0  0  0  0  0  0  0  0
   -9.6250    8.5960   -2.8190 C   0  0  0  0  0  0  0  0  0  0  0  0
  -10.4790    6.4630   -1.6330 C   0  0  2  0  0  0  0  0  0  0  0  0
  -11.7380    6.3320   -2.5080 C   0  0  0  0  0  0  0  0  0  0  0  0
  -12.6990    7.4710   -2.4170 C   0  0  0  0  0  0  0  0  0  0  0  0
  -12.7020    8.4170   -1.4600 C   0  0  0  0  0  0  0  0  0  0  0  0
  -11.7300    8.3430   -0.2760 C   0  0  1  0  0  0  0  0  0  0  0  0
  -12.4990    8.6130    1.0440 C   0  0  0  0  0  0  0  0  0  0  0  0
  -13.2770    9.9250    1.0100 C   0  0  0  0  0  0  0  0  0  0  0  0
  -14.2740    9.9370   -0.1460 C   0  0  2  0  0  0  0  0  0  0  0  0
  -15.2840    8.9550    0.1070 O   0  0  0  0  0  0  0  0  0  0  0  0
  -13.6150    9.6660   -1.5270 C   0  0  0  0  0  0  0  0  0  0  0  0
  -12.7480   10.8810   -1.9370 C   0  0  0  0  0  0  0  0  0  0  0  0
  -14.7480    9.5650   -2.5840 C   0  0  0  0  0  0  0  0  0  0  0  0
  -10.8280    7.0360   -0.2000 C   0  0  1  0  0  0  0  0  0  0  0  0
  -11.5900    5.9070    0.5580 C   0  0  0  0  0  0  0  0  0  0  0  0
   -9.5390    7.3490    0.6490 C   0  0  0  0  0  0  0  0  0  0  0  0
   -8.3300    7.9260   -0.1110 C   0  0  0  0  0  0  0  0  0  0  0  0
   -8.0210    7.0960   -1.3610 C   0  0  2  0  0  0  0  0  0  0  0  0
   -7.6300    5.6530   -0.8920 C   0  0  0  0  0  0  0  0  0  0  0  0
   -5.0798    5.5810   -0.7323 H   0  0  0  0  0  0  0  0  0  0  0  0
   -5.9488    5.3483   -2.2870 H   0  0  0  0  0  0  0  0  0  0  0  0
   -4.1898    5.7121   -2.2870 H   0  0  0  0  0  0  0  0  0  0  0  0
   -4.7658    7.8616   -2.5557 H   0  0  0  0  0  0  0  0  0  0  0  0
   -6.1689    8.5507   -0.1469 H   0  0  0  0  0  0  0  0  0  0  0  0
   -4.8712    7.3177    0.2245 H   0  0  0  0  0  0  0  0  0  0  0  0
   -4.4133    9.9188   -1.2831 H   0  0  0  0  0  0  0  0  0  0  0  0
   -4.0986    9.6521    0.4823 H   0  0  0  0  0  0  0  0  0  0  0  0
   -3.2507    7.7371   -1.3082 H   0  0  0  0  0  0  0  0  0  0  0  0
   -1.7150   11.3726   -0.2386 H   0  0  0  0  0  0  0  0  0  0  0  0
   -0.8142   11.3585   -1.7927 H   0  0  0  0  0  0  0  0  0  0  0  0
   -2.6069   11.2456   -1.7927 H   0  0  0  0  0  0  0  0  0  0  0  0
    0.2622    8.4204   -1.2410 H   0  0  0  0  0  0  0  0  0  0  0  0
   -0.8659    8.0256   -2.5819 H   0  0  0  0  0  0  0  0  0  0  0  0
    0.0166    9.5902   -2.5819 H   0  0  0  0  0  0  0  0  0  0  0  0
   -6.9140    8.7225   -2.3132 H   0  0  0  0  0  0  0  0  0  0  0  0
   -7.0835    7.6432   -4.4673 H   0  0  0  0  0  0  0  0  0  0  0  0
   -6.5232    6.0872   -3.8182 H   0  0  0  0  0  0  0  0  0  0  0  0
   -9.2287    6.7362   -4.4729 H   0  0  0  0  0  0  0  0  0  0  0  0
   -8.7555    5.3522   -3.4910 H   0  0  0  0  0  0  0  0  0  0  0  0
   -9.7911    9.2525   -1.9521 H   0  0  0  0  0  0  0  0  0  0  0  0
   -8.7991    8.9936   -3.4272 H   0  0  0  0  0  0  0  0  0  0  0  0
  -10.5406    8.5531   -3.4272 H   0  0  0  0  0  0  0  0  0  0  0  0
  -10.1099    5.4374   -1.4851 H   0  0  0  0  0  0  0  0  0  0  0  0
  -11.4158    6.2420   -3.5559 H   0  0  0  0  0  0  0  0  0  0  0  0
  -12.2770    5.4484   -2.1354 H   0  0  0  0  0  0  0  0  0  0  0  0
  -13.4698    7.5430   -3.1984 H   0  0  0  0  0  0  0  0  0  0  0  0
  -10.9866    9.1362   -0.4435 H   0  0  0  0  0  0  0  0  0  0  0  0
  -13.2062    7.7880    1.2152 H   0  0  0  0  0  0  0  0  0  0  0  0
  -11.7577    8.6853    1.8535 H   0  0  0  0  0  0  0  0  0  0  0  0
  -13.8227   10.0448    1.9576 H   0  0  0  0  0  0  0  0  0  0  0  0
  -12.5656   10.7521    0.8693 H   0  0  0  0  0  0  0  0  0  0  0  0
  -14.7061   10.9472   -0.1987 H   0  0  0  0  0  0  0  0  0  0  0  0
  -14.9070    8.0840   -0.1060 H   0  0  0  0  0  0  0  0  0  0  0  0
  -12.3831   11.3924   -1.0341 H   0  0  0  0  0  0  0  0  0  0  0  0
  -11.8913   10.5353   -2.5341 H   0  0  0  0  0  0  0  0  0  0  0  0
  -13.3535   11.5787   -2.5341 H   0  0  0  0  0  0  0  0  0  0  0  0
  -15.7187    9.4785   -2.0739 H   0  0  0  0  0  0  0  0  0  0  0  0
  -14.7437   10.4671   -3.2135 H   0  0  0  0  0  0  0  0  0  0  0  0
  -14.5842    8.6779   -3.2135 H   0  0  0  0  0  0  0  0  0  0  0  0
  -11.4871    6.0594    1.6425 H   0  0  0  0  0  0  0  0  0  0  0  0
  -12.6548    5.9349    0.2832 H   0  0  0  0  0  0  0  0  0  0  0  0
  -11.1659    4.9300    0.2832 H   0  0  0  0  0  0  0  0  0  0  0  0
   -9.8206    8.0746    1.4263 H   0  0  0  0  0  0  0  0  0  0  0  0
   -9.2011    6.3737    1.0294 H   0  0  0  0  0  0  0  0  0  0  0  0
   -8.5543    8.9600   -0.4120 H   0  0  0  0  0  0  0  0  0  0  0  0
   -7.4534    7.8998    0.5529 H   0  0  0  0  0  0  0  0  0  0  0  0
   -7.6197    5.6149    0.2073 H   0  0  0  0  0  0  0  0  0  0  0  0
   -8.3648    4.9306   -1.2770 H   0  0  0  0  0  0  0  0  0  0  0  0
   -6.6310    5.4004   -1.2770 H   0  0  0  0  0  0  0  0  0  0  0  0
  1  2  1  0
  2  3  1  0
  3  4  1  0
  4  5  1  0
  5  6  1  0
  6  7  1  0
  7  8  1  0
  7  9  1  0
  2 10  1  0
 10 11  1  0
 11 12  1  0
 12 13  1  0
 13 14  1  6
 13 15  1  0
 15 16  1  0
 16 17  1  0
 17 18  2  0
 18 19  1  0
 19 20  1  0
 20 21  1  0
 21 22  1  0
 22 23  1  0
 22 24  1  0
 24 25  1  0
 24 26  1  0
 19 27  1  0
 27 28  1  1
 27 29  1  0
 29 30  1  0
 30 31  1  0
 31 32  1  1
  7  5  1  0
 31 10  1  0
 31 13  1  0
 27 15  1  0
 24 18  1  0
  1 33  1  0
  1 34  1  0
  1 35  1  0
  2 36  1  6
  3 37  1  0
  3 38  1  0
  4 39  1  0
  4 40  1  0
  5 41  1  6
  8 42  1  0
  8 43  1  0
  8 44  1  0
  9 45  1  0
  9 46  1  0
  9 47  1  0
 10 48  1  6
 11 49  1  0
 11 50  1  0
 12 51  1  0
 12 52  1  0
 14 53  1  0
 14 54  1  0
 14 55  1  0
 15 56  1  1
 16 57  1  0
 16 58  1  0
 17 59  1  0
 19 60  1  6
 20 61  1  0
 20 62  1  0
 21 63  1  0
 21 64  1  0
 22 65  1  6
 23 66  1  0
 25 67  1  0
 25 68  1  0
 25 69  1  0
 26 70  1  0
 26 71  1  0
 26 72  1  0
 28 73  1  0
 28 74  1  0
 28 75  1  0
 29 76  1  0
 29 77  1  0
 30 78  1  0
 30 79  1  0
 32 80  1  0
 32 81  1  0
 32 82  1  0
M  END
>  <meeko>  (10) 
{"is_sidechain": [false], "intermolecular_energy": 2.731, "internal_energy": -0.839}

$$$$
EPH_relaxed_0001_pdb2pqr_Repair_39_r2_0001_out
     RDKit          3D

 82 86  0  0  0  0  0  0  0  0999 V2000
    0.4170    8.8720   -2.5250 C   0  0  0  0  0  0  0  0  0  0  0  0
    1.1800   10.0330   -3.1710 C   0  0  2  0  0  0  0  0  0  0  0  0
    2.6720   10.0340   -2.7830 C   0  0  0  0  0  0  0  0  0  0  0  0
    3.5870   10.6250   -3.8590 C   0  0  0  0  0  0  0  0  0  0  0  0
    4.9810   10.8330   -3.3480 C   0  0  2  0  0  0  0  0  0  0  0  0
    5.5990   12.0530   -3.7760 O   0  0  0  0  0  0  0  0  0  0  0  0
    6.2070   10.8370   -4.2420 C   0  0  0  0  0  0  0  0  0  0  0  0
    6.0960   10.6290   -5.7200 C   0  0  0  0  0  0  0  0  0  0  0  0
    7.5420   10.5560   -3.6260 C   0  0  0  0  0  0  0  0  0  0  0  0
    0.5380   11.3580   -2.7780 C   0  0  1  0  0  0  0  0  0  0  0  0
   -0.8370   11.1740   -2.0820 C   0  0  0  0  0  0  0  0  0  0  0  0
   -0.9520   12.2950   -1.0170 C   0  0  0  0  0  0  0  0  0  0  0  0
    0.1940   13.2760   -1.3570 C   0  0  1  0  0  0  0  0  0  0  0  0
   -0.3600   14.1530   -2.5230 C   0  0  0  0  0  0  0  0  0  0  0  0
    0.7260   14.1530   -0.1760 C   0  0  2  0  0  0  0  0  0  0  0  0
   -0.3060   15.1170    0.4360 C   0  0  0  0  0  0  0  0  0  0  0  0
   -0.3540   16.4750   -0.1810 C   0  0  0  0  0  0  0  0  0  0  0  0
    0.5850   17.0010   -0.9900 C   0  0  0  0  0  0  0  0  0  0  0  0
    1.8870   16.2440   -1.2810 C   0  0  1  0  0  0  0  0  0  0  0  0
    3.0910   17.2110   -1.1370 C   0  0  0  0  0  0  0  0  0  0  0  0
    2.9410   18.4640   -1.9930 C   0  0  0  0  0  0  0  0  0  0  0  0
    1.6650   19.2200   -1.6350 C   0  0  2  0  0  0  0  0  0  0  0  0
    1.7920   19.7360   -0.3060 O   0  0  0  0  0  0  0  0  0  0  0  0
    0.3850   18.3440   -1.7350 C   0  0  0  0  0  0  0  0  0  0  0  0
    0.0800   18.0350   -3.2210 C   0  0  0  0  0  0  0  0  0  0  0  0
   -0.8110   19.1840   -1.2120 C   0  0  0  0  0  0  0  0  0  0  0  0
    2.0940   14.8870   -0.4790 C   0  0  1  0  0  0  0  0  0  0  0  0
    2.7570   15.1810    0.9010 C   0  0  0  0  0  0  0  0  0  0  0  0
    3.1020   13.9720   -1.2700 C   0  0  0  0  0  0  0  0  0  0  0  0
    2.5020   13.0410   -2.3410 C   0  0  0  0  0  0  0  0  0  0  0  0
    1.3130   12.2550   -1.7800 C   0  0  2  0  0  0  0  0  0  0  0  0
    1.8440   11.3460   -0.6190 C   0  0  0  0  0  0  0  0  0  0  0  0
    0.4746    8.9596   -1.4300 H   0  0  0  0  0  0  0  0  0  0  0  0
   -0.6362    8.9047   -2.8406 H   0  0  0  0  0  0  0  0  0  0  0  0
    0.8649    7.9182   -2.8406 H   0  0  0  0  0  0  0  0  0  0  0  0
    1.1232    9.9014   -4.2616 H   0  0  0  0  0  0  0  0  0  0  0  0
    2.7912   10.6248   -1.8628 H   0  0  0  0  0  0  0  0  0  0  0  0
    2.9701    8.9837   -2.6487 H   0  0  0  0  0  0  0  0  0  0  0  0
    3.6205    9.9363   -4.7161 H   0  0  0  0  0  0  0  0  0  0  0  0
    3.1807   11.6034   -4.1552 H   0  0  0  0  0  0  0  0  0  0  0  0
    4.7471   10.2923   -2.4191 H   0  0  0  0  0  0  0  0  0  0  0  0
    5.5866    9.6745   -5.9187 H   0  0  0  0  0  0  0  0  0  0  0  0
    5.5175   11.4527   -6.1638 H   0  0  0  0  0  0  0  0  0  0  0  0
    7.1023   10.6070   -6.1638 H   0  0  0  0  0  0  0  0  0  0  0  0
    7.4514   10.5751   -2.5299 H   0  0  0  0  0  0  0  0  0  0  0  0
    7.8928    9.5643   -3.9477 H   0  0  0  0  0  0  0  0  0  0  0  0
    8.2628   11.3221   -3.9477 H   0  0  0  0  0  0  0  0  0  0  0  0
    0.4960   11.8419   -3.7650 H   0  0  0  0  0  0  0  0  0  0  0  0
   -1.6495   11.2656   -2.8179 H   0  0  0  0  0  0  0  0  0  0  0  0
   -0.9157   10.1793   -1.6190 H   0  0  0  0  0  0  0  0  0  0  0  0
   -1.9275   12.7984   -1.0870 H   0  0  0  0  0  0  0  0  0  0  0  0
   -0.8763   11.9049    0.0087 H   0  0  0  0  0  0  0  0  0  0  0  0
   -0.9040   15.0141   -2.1076 H   0  0  0  0  0  0  0  0  0  0  0  0
    0.4761   14.5112   -3.1416 H   0  0  0  0  0  0  0  0  0  0  0  0
   -1.0426   13.5518   -3.1416 H   0  0  0  0  0  0  0  0  0  0  0  0
    0.9324   13.4027    0.6015 H   0  0  0  0  0  0  0  0  0  0  0  0
   -1.3014   14.6607    0.3312 H   0  0  0  0  0  0  0  0  0  0  0  0
    0.0014   15.2683    1.4813 H   0  0  0  0  0  0  0  0  0  0  0  0
   -1.2312   17.0994    0.0443 H   0  0  0  0  0  0  0  0  0  0  0  0
    1.8107   15.8957   -2.3216 H   0  0  0  0  0  0  0  0  0  0  0  0
    3.1768   17.5126   -0.0826 H   0  0  0  0  0  0  0  0  0  0  0  0
    3.9899   16.6780   -1.4804 H   0  0  0  0  0  0  0  0  0  0  0  0
    3.8075   19.1205   -1.8250 H   0  0  0  0  0  0  0  0  0  0  0  0
    2.8856   18.1627   -3.0495 H   0  0  0  0  0  0  0  0  0  0  0  0
    1.5469   20.0324   -2.3671 H   0  0  0  0  0  0  0  0  0  0  0  0
    2.0070   20.6820   -0.3770 H   0  0  0  0  0  0  0  0  0  0  0  0
   -0.6915   17.2533   -3.2821 H   0  0  0  0  0  0  0  0  0  0  0  0
   -0.2818   18.9470   -3.7184 H   0  0  0  0  0  0  0  0  0  0  0  0
    0.9966   17.6851   -3.7184 H   0  0  0  0  0  0  0  0  0  0  0  0
   -0.8076   19.1816   -0.1120 H   0  0  0  0  0  0  0  0  0  0  0  0
   -0.7203   20.2178   -1.5767 H   0  0  0  0  0  0  0  0  0  0  0  0
   -1.7527   18.7479   -1.5767 H   0  0  0  0  0  0  0  0  0  0  0  0
    2.0737   14.8780    1.7080 H   0  0  0  0  0  0  0  0  0  0  0  0
    3.6966   14.6152    0.9843 H   0  0  0  0  0  0  0  0  0  0  0  0
    2.9685   16.2573    0.9843 H   0  0  0  0  0  0  0  0  0  0  0  0
    3.8271   14.6308   -1.7702 H   0  0  0  0  0  0  0  0  0  0  0  0
    3.5344   13.2999   -0.5142 H   0  0  0  0  0  0  0  0  0  0  0  0
    2.1628   13.6461   -3.1947 H   0  0  0  0  0  0  0  0  0  0  0  0
    3.2761   12.3270   -2.6587 H   0  0  0  0  0  0  0  0  0  0  0  0
    1.5807   11.7967    0.3493 H   0  0  0  0  0  0  0  0  0  0  0  0
    1.3865   10.3486   -0.6957 H   0  0  0  0  0  0  0  0  0  0  0  0
    2.9375   11.2547   -0.6957 H   0  0  0  0  0  0  0  0  0  0  0  0
  1  2  1  0
  2  3  1  0
  3  4  1  0
  4  5  1  0
  5  6  1  0
  6  7  1  0
  7  8  1  0
  7  9  1  0
  2 10  1  0
 10 11  1  0
 11 12  1  0
 12 13  1  0
 13 14  1  6
 13 15  1  0
 15 16  1  0
 16 17  1  0
 17 18  2  0
 18 19  1  0
 19 20  1  0
 20 21  1  0
 21 22  1  0
 22 23  1  0
 22 24  1  0
 24 25  1  0
 24 26  1  0
 19 27  1  0
 27 28  1  1
 27 29  1  0
 29 30  1  0
 30 31  1  0
 31 32  1  1
  7  5  1  0
 31 10  1  0
 31 13  1  0
 27 15  1  0
 24 18  1  0
  1 33  1  0
  1 34  1  0
  1 35  1  0
  2 36  1  6
  3 37  1  0
  3 38  1  0
  4 39  1  0
  4 40  1  0
  5 41  1  1
  8 42  1  0
  8 43  1  0
  8 44  1  0
  9 45  1  0
  9 46  1  0
  9 47  1  0
 10 48  1  6
 11 49  1  0
 11 50  1  0
 12 51  1  0
 12 52  1  0
 14 53  1  0
 14 54  1  0
 14 55  1  0
 15 56  1  1
 16 57  1  0
 16 58  1  0
 17 59  1  0
 19 60  1  6
 20 61  1  0
 20 62  1  0
 21 63  1  0
 21 64  1  0
 22 65  1  6
 23 66  1  0
 25 67  1  0
 25 68  1  0
 25 69  1  0
 26 70  1  0
 26 71  1  0
 26 72  1  0
 28 73  1  0
 28 74  1  0
 28 75  1  0
 29 76  1  0
 29 77  1  0
 30 78  1  0
 30 79  1  0
 32 80  1  0
 32 81  1  0
 32 82  1  0
M  END
>  <meeko>  (11) 
{"is_sidechain": [false], "intermolecular_energy": 2.731, "internal_energy": -0.839}

$$$$
EPH_relaxed_0001_pdb2pqr_Repair_39_r2_0001_out
     RDKit          3D

 82 86  0  0  0  0  0  0  0  0999 V2000
   -3.9590    7.0720   -3.1280 C   0  0  0  0  0  0  0  0  0  0  0  0
   -4.2730    7.4230   -1.6710 C   0  0  2  0  0  0  0  0  0  0  0  0
   -5.7890    7.5390   -1.4160 C   0  0  0  0  0  0  0  0  0  0  0  0
   -6.4750    6.1940   -1.1570 C   0  0  0  0  0  0  0  0  0  0  0  0
   -7.1630    5.6770   -2.3840 C   0  0  2  0  0  0  0  0  0  0  0  0
   -7.8140    4.4110   -2.2160 O   0  0  0  0  0  0  0  0  0  0  0  0
   -6.7110    4.4390   -3.1370 C   0  0  0  0  0  0  0  0  0  0  0  0
   -5.5250    3.6440   -2.6900 C   0  0  0  0  0  0  0  0  0  0  0  0
   -7.1180    4.2850   -4.5690 C   0  0  0  0  0  0  0  0  0  0  0  0
   -3.5790    8.7250   -1.2890 C   0  0  1  0  0  0  0  0  0  0  0  0
   -4.0880    9.2990    0.0600 C   0  0  0  0  0  0  0  0  0  0  0  0
   -2.8710    9.9670    0.7500 C   0  0  0  0  0  0  0  0  0  0  0  0
   -1.7930   10.0490   -0.3560 C   0  0  1  0  0  0  0  0  0  0  0  0
   -2.1710   11.3110   -1.1930 C   0  0  0  0  0  0  0  0  0  0  0  0
   -0.3070   10.1020    0.1290 C   0  0  2  0  0  0  0  0  0  0  0  0
    0.0580   11.3320    0.9790 C   0  0  0  0  0  0  0  0  0  0  0  0
    0.5600   12.5100    0.2120 C   0  0  0  0  0  0  0  0  0  0  0  0
    0.9820   12.4900   -1.0660 C   0  0  0  0  0  0  0  0  0  0  0  0
    1.0710   11.1710   -1.8450 C   0  0  1  0  0  0  0  0  0  0  0  0
    2.4320   11.0990   -2.5860 C   0  0  0  0  0  0  0  0  0  0  0  0
    2.6830   12.3170   -3.4700 C   0  0  0  0  0  0  0  0  0  0  0  0
    2.6440   13.6040   -2.6490 C   0  0  2  0  0  0  0  0  0  0  0  0
    3.7550   13.6100   -1.7480 O   0  0  0  0  0  0  0  0  0  0  0  0
    1.3220   13.7810   -1.8500 C   0  0  0  0  0  0  0  0  0  0  0  0
    0.1580   14.0760   -2.8290 C   0  0  0  0  0  0  0  0  0  0  0  0
    1.4690   15.0430   -0.9580 C   0  0  0  0  0  0  0  0  0  0  0  0
    0.7580    9.8530   -1.0150 C   0  0  1  0  0  0  0  0  0  0  0  0
    2.0540    9.3450   -0.3130 C   0  0  0  0  0  0  0  0  0  0  0  0
    0.3140    8.7140   -2.0070 C   0  0  0  0  0  0  0  0  0  0  0  0
   -1.1850    8.6390   -2.3550 C   0  0  0  0  0  0  0  0  0  0  0  0
   -2.0440    8.6800   -1.0870 C   0  0  2  0  0  0  0  0  0  0  0  0
   -1.7010    7.4100   -0.2360 C   0  0  0  0  0  0  0  0  0  0  0  0
   -3.2259    6.2525   -3.1579 H   0  0  0  0  0  0  0  0  0  0  0  0
   -4.8822    6.7569   -3.6364 H   0  0  0  0  0  0  0  0  0  0  0  0
   -3.5434    7.9545   -3.6364 H   0  0  0  0  0  0  0  0  0  0  0  0
   -3.8946    6.6025   -1.0436 H   0  0  0  0  0  0  0  0  0  0  0  0
   -5.9451    8.1831   -0.5381 H   0  0  0  0  0  0  0  0  0  0  0  0
   -6.2373    7.9577   -2.3291 H   0  0  0  0  0  0  0  0  0  0  0  0
   -5.7173    5.4629   -0.8384 H   0  0  0  0  0  0  0  0  0  0  0  0
   -7.2342    6.3414   -0.3747 H   0  0  0  0  0  0  0  0  0  0  0  0
   -7.3918    6.7003   -2.7164 H   0  0  0  0  0  0  0  0  0  0  0  0
   -5.4917    3.6217   -1.5907 H   0  0  0  0  0  0  0  0  0  0  0  0
   -5.6057    2.6169   -3.0753 H   0  0  0  0  0  0  0  0  0  0  0  0
   -4.6056    4.1089   -3.0753 H   0  0  0  0  0  0  0  0  0  0  0  0
   -8.1458    3.8961   -4.6183 H   0  0  0  0  0  0  0  0  0  0  0  0
   -7.0715    5.2629   -5.0706 H   0  0  0  0  0  0  0  0  0  0  0  0
   -6.4358    3.5828   -5.0706 H   0  0  0  0  0  0  0  0  0  0  0  0
   -3.8242    9.3313   -2.1735 H   0  0  0  0  0  0  0  0  0  0  0  0
   -4.8776   10.0436   -0.1191 H   0  0  0  0  0  0  0  0  0  0  0  0
   -4.5132    8.5050    0.6916 H   0  0  0  0  0  0  0  0  0  0  0  0
   -3.1332   10.9720    1.1122 H   0  0  0  0  0  0  0  0  0  0  0  0
   -2.5262    9.4009    1.6279 H   0  0  0  0  0  0  0  0  0  0  0  0
   -2.4194   12.1402   -0.5143 H   0  0  0  0  0  0  0  0  0  0  0  0
   -1.3196   11.5988   -1.8273 H   0  0  0  0  0  0  0  0  0  0  0  0
   -3.0404   11.0834   -1.8273 H   0  0  0  0  0  0  0  0  0  0  0  0
   -0.2502    9.2402    0.8102 H   0  0  0  0  0  0  0  0  0  0  0  0
   -0.8415   11.6434    1.5303 H   0  0  0  0  0  0  0  0  0  0  0  0
    0.8865   11.0171    1.6304 H   0  0  0  0  0  0  0  0  0  0  0  0
    0.5874   13.4769    0.7358 H   0  0  0  0  0  0  0  0  0  0  0  0
    0.2485   11.1927   -2.5751 H   0  0  0  0  0  0  0  0  0  0  0  0
    3.2369   11.0337   -1.8391 H   0  0  0  0  0  0  0  0  0  0  0  0
    2.4106   10.2129   -3.2374 H   0  0  0  0  0  0  0  0  0  0  0  0
    3.6716   12.2213   -3.9427 H   0  0  0  0  0  0  0  0  0  0  0  0
    1.8941   12.3643   -4.2351 H   0  0  0  0  0  0  0  0  0  0  0  0
    2.6999   14.4467   -3.3538 H   0  0  0  0  0  0  0  0  0  0  0  0
    4.5160   13.2280   -2.2170 H   0  0  0  0  0  0  0  0  0  0  0  0
   -0.7527   14.3068   -2.2569 H   0  0  0  0  0  0  0  0  0  0  0  0
    0.4208   14.9359   -3.4626 H   0  0  0  0  0  0  0  0  0  0  0  0
   -0.0205   13.1947   -3.4626 H   0  0  0  0  0  0  0  0  0  0  0  0
    1.4348   14.7492    0.1015 H   0  0  0  0  0  0  0  0  0  0  0  0
    2.4303   15.5331   -1.1717 H   0  0  0  0  0  0  0  0  0  0  0  0
    0.6461   15.7409   -1.1717 H   0  0  0  0  0  0  0  0  0  0  0  0
    1.9240    9.3959    0.7781 H   0  0  0  0  0  0  0  0  0  0  0  0
    2.2484    8.3041   -0.6109 H   0  0  0  0  0  0  0  0  0  0  0  0
    2.9040    9.9765   -0.6109 H   0  0  0  0  0  0  0  0  0  0  0  0
    0.8668    8.8578   -2.9471 H   0  0  0  0  0  0  0  0  0  0  0  0
    0.5340    7.7733   -1.4810 H   0  0  0  0  0  0  0  0  0  0  0  0
   -1.4489    9.4928   -2.9964 H   0  0  0  0  0  0  0  0  0  0  0  0
   -1.3769    7.6909   -2.8787 H   0  0  0  0  0  0  0  0  0  0  0  0
   -1.7676    7.6566    0.8339 H   0  0  0  0  0  0  0  0  0  0  0  0
   -2.4144    6.6067   -0.4722 H   0  0  0  0  0  0  0  0  0  0  0  0
   -0.6802    7.0751   -0.4722 H   0  0  0  0  0  0  0  0  0  0  0  0
  1  2  1  0
  2  3  1  0
  3  4  1  0
  4  5  1  0
  5  6  1  0
  6  7  1  0
  7  8  1  0
  7  9  1  0
  2 10  1  0
 10 11  1  0
 11 12  1  0
 12 13  1  0
 13 14  1  6
 13 15  1  0
 15 16  1  0
 16 17  1  0
 17 18  2  0
 18 19  1  0
 19 20  1  0
 20 21  1  0
 21 22  1  0
 22 23  1  0
 22 24  1  0
 24 25  1  0
 24 26  1  0
 19 27  1  0
 27 28  1  1
 27 29  1  0
 29 30  1  0
 30 31  1  0
 31 32  1  1
  7  5  1  0
 31 10  1  0
 31 13  1  0
 27 15  1  0
 24 18  1  0
  1 33  1  0
  1 34  1  0
  1 35  1  0
  2 36  1  1
  3 37  1  0
  3 38  1  0
  4 39  1  0
  4 40  1  0
  5 41  1  6
  8 42  1  0
  8 43  1  0
  8 44  1  0
  9 45  1  0
  9 46  1  0
  9 47  1  0
 10 48  1  6
 11 49  1  0
 11 50  1  0
 12 51  1  0
 12 52  1  0
 14 53  1  0
 14 54  1  0
 14 55  1  0
 15 56  1  1
 16 57  1  0
 16 58  1  0
 17 59  1  0
 19 60  1  6
 20 61  1  0
 20 62  1  0
 21 63  1  0
 21 64  1  0
 22 65  1  6
 23 66  1  0
 25 67  1  0
 25 68  1  0
 25 69  1  0
 26 70  1  0
 26 71  1  0
 26 72  1  0
 28 73  1  0
 28 74  1  0
 28 75  1  0
 29 76  1  0
 29 77  1  0
 30 78  1  0
 30 79  1  0
 32 80  1  0
 32 81  1  0
 32 82  1  0
M  END
>  <meeko>  (12) 
{"is_sidechain": [false], "intermolecular_energy": 2.731, "internal_energy": -0.839}

$$$$
EPH_relaxed_0001_pdb2pqr_Repair_39_r2_0001_out
     RDKit          3D

 82 86  0  0  0  0  0  0  0  0999 V2000
   -0.8500   16.3510   -5.8330 C   0  0  0  0  0  0  0  0  0  0  0  0
    0.2360   15.6450   -6.6500 C   0  0  2  0  0  0  0  0  0  0  0  0
   -0.1720   15.4670   -8.1270 C   0  0  0  0  0  0  0  0  0  0  0  0
    0.4540   16.5000   -9.0670 C   0  0  0  0  0  0  0  0  0  0  0  0
    1.8540   16.1250   -9.4500 C   0  0  2  0  0  0  0  0  0  0  0  0
    2.3110   16.6970  -10.6820 O   0  0  0  0  0  0  0  0  0  0  0  0
    2.1900   15.2660  -10.6550 C   0  0  0  0  0  0  0  0  0  0  0  0
    1.1200   14.7290  -11.5530 C   0  0  0  0  0  0  0  0  0  0  0  0
    3.5030   14.5490  -10.6780 C   0  0  0  0  0  0  0  0  0  0  0  0
    0.5530   14.2890   -6.0300 C   0  0  1  0  0  0  0  0  0  0  0  0
    1.8160   13.6310   -6.6470 C   0  0  0  0  0  0  0  0  0  0  0  0
    2.5230   12.8610   -5.5020 C   0  0  0  0  0  0  0  0  0  0  0  0
    1.4840   12.8220   -4.3580 C   0  0  1  0  0  0  0  0  0  0  0  0
    0.5250   11.6470   -4.7260 C   0  0  0  0  0  0  0  0  0  0  0  0
    2.0550   12.6690   -2.9100 C   0  0  2  0  0  0  0  0  0  0  0  0
    2.8220   11.3620   -2.6460 C   0  0  0  0  0  0  0  0  0  0  0  0
    1.9950   10.2290   -2.1380 C   0  0  0  0  0  0  0  0  0  0  0  0
    0.7520   10.3330   -1.6330 C   0  0  0  0  0  0  0  0  0  0  0  0
    0.0900   11.7040   -1.4450 C   0  0  1  0  0  0  0  0  0  0  0  0
   -0.5560   11.7790   -0.0360 C   0  0  0  0  0  0  0  0  0  0  0  0
   -1.5190   10.6250    0.2280 C   0  0  0  0  0  0  0  0  0  0  0  0
   -0.8100    9.2800    0.0880 C   0  0  2  0  0  0  0  0  0  0  0  0
    0.1550    9.1570    1.1370 O   0  0  0  0  0  0  0  0  0  0  0  0
   -0.1130    9.0950   -1.2890 C   0  0  0  0  0  0  0  0  0  0  0  0
   -1.1830    8.9260   -2.3950 C   0  0  0  0  0  0  0  0  0  0  0  0
    0.6810    7.7610   -1.2460 C   0  0  0  0  0  0  0  0  0  0  0  0
    1.0040   12.9640   -1.7640 C   0  0  1  0  0  0  0  0  0  0  0  0
    1.8250   13.3610   -0.4990 C   0  0  0  0  0  0  0  0  0  0  0  0
    0.0820   14.1960   -2.1000 C   0  0  0  0  0  0  0  0  0  0  0  0
   -0.3510   14.3590   -3.5700 C   0  0  0  0  0  0  0  0  0  0  0  0
    0.8530   14.2540   -4.5110 C   0  0  2  0  0  0  0  0  0  0  0  0
    1.8250   15.4380   -4.1790 C   0  0  0  0  0  0  0  0  0  0  0  0
   -0.6461   16.2185   -4.7602 H   0  0  0  0  0  0  0  0  0  0  0  0
   -0.8524   17.4238   -6.0760 H   0  0  0  0  0  0  0  0  0  0  0  0
   -1.8315   15.9178   -6.0760 H   0  0  0  0  0  0  0  0  0  0  0  0
    1.1326   16.2820   -6.6298 H   0  0  0  0  0  0  0  0  0  0  0  0
    0.1403   14.4646   -8.4552 H   0  0  0  0  0  0  0  0  0  0  0  0
   -1.2621   15.6047   -8.1782 H   0  0  0  0  0  0  0  0  0  0  0  0
   -0.1582   16.5699   -9.9782 H   0  0  0  0  0  0  0  0  0  0  0  0
    0.4895   17.4653   -8.5407 H   0  0  0  0  0  0  0  0  0  0  0  0
    2.1516   16.0621   -8.3929 H   0  0  0  0  0  0  0  0  0  0  0  0
    0.3017   14.3183  -10.9434 H   0  0  0  0  0  0  0  0  0  0  0  0
    0.7331   15.5397  -12.1878 H   0  0  0  0  0  0  0  0  0  0  0  0
    1.5388   13.9343  -12.1878 H   0  0  0  0  0  0  0  0  0  0  0  0
    3.8388   14.3656   -9.6467 H   0  0  0  0  0  0  0  0  0  0  0  0
    3.3873   13.5888  -11.2021 H   0  0  0  0  0  0  0  0  0  0  0  0
    4.2482   15.1654  -11.2021 H   0  0  0  0  0  0  0  0  0  0  0  0
   -0.3917   13.7655   -6.2386 H   0  0  0  0  0  0  0  0  0  0  0  0
    1.5276   12.9360   -7.4494 H   0  0  0  0  0  0  0  0  0  0  0  0
    2.4828   14.3887   -7.0843 H   0  0  0  0  0  0  0  0  0  0  0  0
    2.7851   11.8422   -5.8233 H   0  0  0  0  0  0  0  0  0  0  0  0
    3.4635   13.3417   -5.1949 H   0  0  0  0  0  0  0  0  0  0  0  0
    0.1451   11.1815   -3.8046 H   0  0  0  0  0  0  0  0  0  0  0  0
   -0.3188   12.0336   -5.3164 H   0  0  0  0  0  0  0  0  0  0  0  0
    1.0728   10.8978   -5.3164 H   0  0  0  0  0  0  0  0  0  0  0  0
    2.8071   13.4706   -2.8673 H   0  0  0  0  0  0  0  0  0  0  0  0
    3.2889   11.0453   -3.5903 H   0  0  0  0  0  0  0  0  0  0  0  0
    3.5469   11.5900   -1.8507 H   0  0  0  0  0  0  0  0  0  0  0  0
    2.4389    9.2234   -2.1798 H   0  0  0  0  0  0  0  0  0  0  0  0
   -0.6901   11.7733   -2.2174 H   0  0  0  0  0  0  0  0  0  0  0  0
    0.2426   11.7519    0.7200 H   0  0  0  0  0  0  0  0  0  0  0  0
   -1.1326   12.7142    0.0178 H   0  0  0  0  0  0  0  0  0  0  0  0
   -1.9194   10.7164    1.2485 H   0  0  0  0  0  0  0  0  0  0  0  0
   -2.3333   10.6713   -0.5101 H   0  0  0  0  0  0  0  0  0  0  0  0
   -1.5761    8.4938    0.1589 H   0  0  0  0  0  0  0  0  0  0  0  0
   -0.3290    8.9950    1.9650 H   0  0  0  0  0  0  0  0  0  0  0  0
   -2.1683    8.7704   -1.9313 H   0  0  0  0  0  0  0  0  0  0  0  0
   -1.2106    9.8309   -3.0198 H   0  0  0  0  0  0  0  0  0  0  0  0
   -0.9304    8.0566   -3.0198 H   0  0  0  0  0  0  0  0  0  0  0  0
    0.8538    7.4707   -0.1992 H   0  0  0  0  0  0  0  0  0  0  0  0
    0.1040    6.9743   -1.7542 H   0  0  0  0  0  0  0  0  0  0  0  0
    1.6476    7.8931   -1.7542 H   0  0  0  0  0  0  0  0  0  0  0  0
    1.2607   13.0881    0.4049 H   0  0  0  0  0  0  0  0  0  0  0  0
    2.7877   12.8289   -0.5048 H   0  0  0  0  0  0  0  0  0  0  0  0
    2.0057   14.4460   -0.5048 H   0  0  0  0  0  0  0  0  0  0  0  0
   -0.8304   14.1044   -1.4925 H   0  0  0  0  0  0  0  0  0  0  0  0
    0.6948   15.0827   -1.8803 H   0  0  0  0  0  0  0  0  0  0  0  0
   -1.0744   13.5695   -3.8217 H   0  0  0  0  0  0  0  0  0  0  0  0
   -0.8069   15.3524   -3.6933 H   0  0  0  0  0  0  0  0  0  0  0  0
    1.9130   15.5452   -3.0878 H   0  0  0  0  0  0  0  0  0  0  0  0
    2.8163   15.2300   -4.6081 H   0  0  0  0  0  0  0  0  0  0  0  0
    1.4279   16.3698   -4.6081 H   0  0  0  0  0  0  0  0  0  0  0  0
  1  2  1  0
  2  3  1  0
  3  4  1  0
  4  5  1  0
  5  6  1  0
  6  7  1  0
  7  8  1  0
  7  9  1  0
  2 10  1  0
 10 11  1  0
 11 12  1  0
 12 13  1  0
 13 14  1  6
 13 15  1  0
 15 16  1  0
 16 17  1  0
 17 18  2  0
 18 19  1  0
 19 20  1  0
 20 21  1  0
 21 22  1  0
 22 23  1  0
 22 24  1  0
 24 25  1  0
 24 26  1  0
 19 27  1  0
 27 28  1  1
 27 29  1  0
 29 30  1  0
 30 31  1  0
 31 32  1  1
  7  5  1  0
 31 10  1  0
 31 13  1  0
 27 15  1  0
 24 18  1  0
  1 33  1  0
  1 34  1  0
  1 35  1  0
  2 36  1  6
  3 37  1  0
  3 38  1  0
  4 39  1  0
  4 40  1  0
  5 41  1  1
  8 42  1  0
  8 43  1  0
  8 44  1  0
  9 45  1  0
  9 46  1  0
  9 47  1  0
 10 48  1  1
 11 49  1  0
 11 50  1  0
 12 51  1  0
 12 52  1  0
 14 53  1  0
 14 54  1  0
 14 55  1  0
 15 56  1  6
 16 57  1  0
 16 58  1  0
 17 59  1  0
 19 60  1  6
 20 61  1  0
 20 62  1  0
 21 63  1  0
 21 64  1  0
 22 65  1  1
 23 66  1  0
 25 67  1  0
 25 68  1  0
 25 69  1  0
 26 70  1  0
 26 71  1  0
 26 72  1  0
 28 73  1  0
 28 74  1  0
 28 75  1  0
 29 76  1  0
 29 77  1  0
 30 78  1  0
 30 79  1  0
 32 80  1  0
 32 81  1  0
 32 82  1  0
M  END
>  <meeko>  (13) 
{"is_sidechain": [false], "intermolecular_energy": 2.731, "internal_energy": -0.839}

$$$$
EPH_relaxed_0001_pdb2pqr_Repair_39_r2_0001_out
     RDKit          3D

 82 86  0  0  0  0  0  0  0  0999 V2000
    0.0660    9.3150   -2.2450 C   0  0  0  0  0  0  0  0  0  0  0  0
    1.1130   10.3250   -2.7240 C   0  0  2  0  0  0  0  0  0  0  0  0
    2.5200    9.7010   -2.8190 C   0  0  0  0  0  0  0  0  0  0  0  0
    3.4460   10.4180   -3.8050 C   0  0  0  0  0  0  0  0  0  0  0  0
    4.8490   10.5050   -3.2850 C   0  0  2  0  0  0  0  0  0  0  0  0
    5.4300   11.8140   -3.3470 O   0  0  0  0  0  0  0  0  0  0  0  0
    6.0490   10.8060   -4.1630 C   0  0  0  0  0  0  0  0  0  0  0  0
    5.9020   11.0390   -5.6340 C   0  0  0  0  0  0  0  0  0  0  0  0
    7.4070   10.3940   -3.6850 C   0  0  0  0  0  0  0  0  0  0  0  0
    1.1400   11.5290   -1.7900 C   0  0  1  0  0  0  0  0  0  0  0  0
    2.2200   11.4040   -0.6840 C   0  0  0  0  0  0  0  0  0  0  0  0
    2.7630   12.8330   -0.4240 C   0  0  0  0  0  0  0  0  0  0  0  0
    1.7580   13.7670   -1.1380 C   0  0  1  0  0  0  0  0  0  0  0  0
    0.5620   13.9040   -0.1440 C   0  0  0  0  0  0  0  0  0  0  0  0
    2.3050   15.1630   -1.5780 C   0  0  2  0  0  0  0  0  0  0  0  0
    2.7760   16.0720   -0.4290 C   0  0  0  0  0  0  0  0  0  0  0  0
    1.7320   16.9740    0.1400 C   0  0  0  0  0  0  0  0  0  0  0  0
    0.5480   17.2600   -0.4340 C   0  0  0  0  0  0  0  0  0  0  0  0
    0.2020   16.7300   -1.8310 C   0  0  1  0  0  0  0  0  0  0  0  0
   -0.3900   17.8780   -2.6900 C   0  0  0  0  0  0  0  0  0  0  0  0
   -1.5750   18.5620   -2.0150 C   0  0  0  0  0  0  0  0  0  0  0  0
   -1.1760   19.1270   -0.6540 C   0  0  2  0  0  0  0  0  0  0  0  0
   -0.2440   20.1940   -0.8530 O   0  0  0  0  0  0  0  0  0  0  0  0
   -0.5580   18.0620    0.2950 C   0  0  0  0  0  0  0  0  0  0  0  0
   -1.6570   17.0710    0.7510 C   0  0  0  0  0  0  0  0  0  0  0  0
   -0.0710   18.7900    1.5760 C   0  0  0  0  0  0  0  0  0  0  0  0
    1.3620   15.9430   -2.5810 C   0  0  1  0  0  0  0  0  0  0  0  0
    2.2690   16.9450   -3.3580 C   0  0  0  0  0  0  0  0  0  0  0  0
    0.7230   14.9930   -3.6620 C   0  0  0  0  0  0  0  0  0  0  0  0
    0.3120   13.5840   -3.1930 C   0  0  0  0  0  0  0  0  0  0  0  0
    1.4490   12.9100   -2.4200 C   0  0  2  0  0  0  0  0  0  0  0  0
    2.6590   12.7390   -3.4000 C   0  0  0  0  0  0  0  0  0  0  0  0
    0.0488    9.2984   -1.1453 H   0  0  0  0  0  0  0  0  0  0  0  0
   -0.9249    9.6070   -2.6229 H   0  0  0  0  0  0  0  0  0  0  0  0
    0.3222    8.3142   -2.6229 H   0  0  0  0  0  0  0  0  0  0  0  0
    0.8243   10.6460   -3.7358 H   0  0  0  0  0  0  0  0  0  0  0  0
    2.9825    9.7339   -1.8215 H   0  0  0  0  0  0  0  0  0  0  0  0
    2.3914    8.6729   -3.1884 H   0  0  0  0  0  0  0  0  0  0  0  0
    3.4518    9.8644   -4.7555 H   0  0  0  0  0  0  0  0  0  0  0  0
    3.0690   11.4415   -3.9471 H   0  0  0  0  0  0  0  0  0  0  0  0
    4.6522    9.7084   -2.5524 H   0  0  0  0  0  0  0  0  0  0  0  0
    5.3221   11.9582   -5.8035 H   0  0  0  0  0  0  0  0  0  0  0  0
    6.8975   11.1443   -6.0899 H   0  0  0  0  0  0  0  0  0  0  0  0
    5.3783   10.1858   -6.0899 H   0  0  0  0  0  0  0  0  0  0  0  0
    7.4227   10.3892   -2.5851 H   0  0  0  0  0  0  0  0  0  0  0  0
    7.6372    9.3856   -4.0594 H   0  0  0  0  0  0  0  0  0  0  0  0
    8.1587   11.1045   -4.0594 H   0  0  0  0  0  0  0  0  0  0  0  0
    0.1017   11.5043   -1.4277 H   0  0  0  0  0  0  0  0  0  0  0  0
    1.7751   10.9950    0.2351 H   0  0  0  0  0  0  0  0  0  0  0  0
    3.0278   10.7257   -0.9962 H   0  0  0  0  0  0  0  0  0  0  0  0
    2.7933   13.0468    0.6546 H   0  0  0  0  0  0  0  0  0  0  0  0
    3.7903   12.9633   -0.7951 H   0  0  0  0  0  0  0  0  0  0  0  0
    0.9371   13.8610    0.8892 H   0  0  0  0  0  0  0  0  0  0  0  0
    0.0553   14.8661   -0.3104 H   0  0  0  0  0  0  0  0  0  0  0  0
   -0.1491   13.0814   -0.3104 H   0  0  0  0  0  0  0  0  0  0  0  0
    3.2129   14.8931   -2.1374 H   0  0  0  0  0  0  0  0  0  0  0  0
    3.1483   15.4290    0.3822 H   0  0  0  0  0  0  0  0  0  0  0  0
    3.5456   16.7304   -0.8582 H   0  0  0  0  0  0  0  0  0  0  0  0
    1.9480   17.4450    1.1103 H   0  0  0  0  0  0  0  0  0  0  0  0
   -0.5571   15.9485   -1.6793 H   0  0  0  0  0  0  0  0  0  0  0  0
    0.3957   18.6272   -2.8671 H   0  0  0  0  0  0  0  0  0  0  0  0
   -0.7500   17.4388   -3.6321 H   0  0  0  0  0  0  0  0  0  0  0  0
   -1.9296   19.3829   -2.6556 H   0  0  0  0  0  0  0  0  0  0  0  0
   -2.3718   17.8183   -1.8665 H   0  0  0  0  0  0  0  0  0  0  0  0
   -2.0931   19.4872   -0.1648 H   0  0  0  0  0  0  0  0  0  0  0  0
   -0.7360   20.9510   -1.2120 H   0  0  0  0  0  0  0  0  0  0  0  0
   -1.6904   17.0409    1.8501 H   0  0  0  0  0  0  0  0  0  0  0  0
   -2.6321   17.4011    0.3634 H   0  0  0  0  0  0  0  0  0  0  0  0
   -1.4292   16.0671    0.3634 H   0  0  0  0  0  0  0  0  0  0  0  0
   -0.4319   18.2504    2.4640 H   0  0  0  0  0  0  0  0  0  0  0  0
    1.0286   18.8184    1.5860 H   0  0  0  0  0  0  0  0  0  0  0  0
   -0.4644   19.8172    1.5860 H   0  0  0  0  0  0  0  0  0  0  0  0
    2.8292   17.5639   -2.6416 H   0  0  0  0  0  0  0  0  0  0  0  0
    2.9748   16.3863   -3.9903 H   0  0  0  0  0  0  0  0  0  0  0  0
    1.6430   17.5918   -3.9903 H   0  0  0  0  0  0  0  0  0  0  0  0
   -0.1778   15.4901   -4.0511 H   0  0  0  0  0  0  0  0  0  0  0  0
    1.5166   14.8286   -4.4058 H   0  0  0  0  0  0  0  0  0  0  0  0
   -0.5689   13.6651   -2.5392 H   0  0  0  0  0  0  0  0  0  0  0  0
    0.0798   12.9737   -4.0782 H   0  0  0  0  0  0  0  0  0  0  0  0
    3.5847   12.6082   -2.8203 H   0  0  0  0  0  0  0  0  0  0  0  0
    2.4953   11.8551   -4.0339 H   0  0  0  0  0  0  0  0  0  0  0  0
    2.7467   13.6337   -4.0339 H   0  0  0  0  0  0  0  0  0  0  0  0
  1  2  1  0
  2  3  1  0
  3  4  1  0
  4  5  1  0
  5  6  1  0
  6  7  1  0
  7  8  1  0
  7  9  1  0
  2 10  1  0
 10 11  1  0
 11 12  1  0
 12 13  1  0
 13 14  1  1
 13 15  1  0
 15 16  1  0
 16 17  1  0
 17 18  2  0
 18 19  1  0
 19 20  1  0
 20 21  1  0
 21 22  1  0
 22 23  1  0
 22 24  1  0
 24 25  1  0
 24 26  1  0
 19 27  1  0
 27 28  1  6
 27 29  1  0
 29 30  1  0
 30 31  1  0
 31 32  1  6
  7  5  1  0
 31 10  1  0
 31 13  1  0
 27 15  1  0
 24 18  1  0
  1 33  1  0
  1 34  1  0
  1 35  1  0
  2 36  1  6
  3 37  1  0
  3 38  1  0
  4 39  1  0
  4 40  1  0
  5 41  1  1
  8 42  1  0
  8 43  1  0
  8 44  1  0
  9 45  1  0
  9 46  1  0
  9 47  1  0
 10 48  1  1
 11 49  1  0
 11 50  1  0
 12 51  1  0
 12 52  1  0
 14 53  1  0
 14 54  1  0
 14 55  1  0
 15 56  1  6
 16 57  1  0
 16 58  1  0
 17 59  1  0
 19 60  1  1
 20 61  1  0
 20 62  1  0
 21 63  1  0
 21 64  1  0
 22 65  1  1
 23 66  1  0
 25 67  1  0
 25 68  1  0
 25 69  1  0
 26 70  1  0
 26 71  1  0
 26 72  1  0
 28 73  1  0
 28 74  1  0
 28 75  1  0
 29 76  1  0
 29 77  1  0
 30 78  1  0
 30 79  1  0
 32 80  1  0
 32 81  1  0
 32 82  1  0
M  END
>  <meeko>  (14) 
{"is_sidechain": [false], "intermolecular_energy": 2.731, "internal_energy": -0.839}

$$$$
EPH_relaxed_0001_pdb2pqr_Repair_39_r2_0001_out
     RDKit          3D

 82 86  0  0  0  0  0  0  0  0999 V2000
   -2.8040   10.4110   -0.6970 C   0  0  0  0  0  0  0  0  0  0  0  0
   -1.4790   10.6110   -1.4400 C   0  0  2  0  0  0  0  0  0  0  0  0
   -0.6030    9.3430   -1.4150 C   0  0  0  0  0  0  0  0  0  0  0  0
   -1.3700    8.0700   -1.0460 C   0  0  0  0  0  0  0  0  0  0  0  0
   -2.0080    7.4400   -2.2470 C   0  0  2  0  0  0  0  0  0  0  0  0
   -2.9010    8.2970   -2.9700 O   0  0  0  0  0  0  0  0  0  0  0  0
   -3.4930    7.1450   -2.3480 C   0  0  0  0  0  0  0  0  0  0  0  0
   -4.4310    7.4720   -1.2290 C   0  0  0  0  0  0  0  0  0  0  0  0
   -3.9510    6.1040   -3.3210 C   0  0  0  0  0  0  0  0  0  0  0  0
   -0.7170   11.7840   -0.8360 C   0  0  1  0  0  0  0  0  0  0  0  0
    0.4810   11.3300    0.0400 C   0  0  0  0  0  0  0  0  0  0  0  0
    1.6000   12.3860   -0.1490 C   0  0  0  0  0  0  0  0  0  0  0  0
    0.9010   13.5720   -0.8550 C   0  0  1  0  0  0  0  0  0  0  0  0
    0.1840   14.3530    0.2910 C   0  0  0  0  0  0  0  0  0  0  0  0
    1.8200   14.5090   -1.7050 C   0  0  2  0  0  0  0  0  0  0  0  0
    2.9110   15.2480   -0.9120 C   0  0  0  0  0  0  0  0  0  0  0  0
    2.5160   16.5860   -0.3790 C   0  0  0  0  0  0  0  0  0  0  0  0
    1.4400   17.2950   -0.7660 C   0  0  0  0  0  0  0  0  0  0  0  0
    0.5410   16.8030   -1.9080 C   0  0  1  0  0  0  0  0  0  0  0  0
    0.2500   17.9770   -2.8800 C   0  0  0  0  0  0  0  0  0  0  0  0
   -0.3270   19.1970   -2.1680 C   0  0  0  0  0  0  0  0  0  0  0  0
    0.6220   19.6910   -1.0790 C   0  0  2  0  0  0  0  0  0  0  0  0
    1.8110   20.1940   -1.6970 O   0  0  0  0  0  0  0  0  0  0  0  0
    0.9950   18.5920   -0.0450 C   0  0  0  0  0  0  0  0  0  0  0  0
   -0.2380   18.2620    0.8320 C   0  0  0  0  0  0  0  0  0  0  0  0
    2.0650   19.1810    0.9130 C   0  0  0  0  0  0  0  0  0  0  0  0
    1.0330   15.4940   -2.6620 C   0  0  1  0  0  0  0  0  0  0  0  0
    2.0150   15.8780   -3.8100 C   0  0  0  0  0  0  0  0  0  0  0  0
   -0.2030   14.8010   -3.3480 C   0  0  0  0  0  0  0  0  0  0  0  0
   -0.9990   13.7960   -2.4940 C   0  0  0  0  0  0  0  0  0  0  0  0
   -0.0640   12.7890   -1.8180 C   0  0  2  0  0  0  0  0  0  0  0  0
    0.6550   11.9730   -2.9450 C   0  0  0  0  0  0  0  0  0  0  0  0
   -2.6238   10.4382    0.3878 H   0  0  0  0  0  0  0  0  0  0  0  0
   -3.5038   11.2137   -0.9727 H   0  0  0  0  0  0  0  0  0  0  0  0
   -3.2357    9.4375   -0.9727 H   0  0  0  0  0  0  0  0  0  0  0  0
   -1.7178   10.8258   -2.4921 H   0  0  0  0  0  0  0  0  0  0  0  0
   -0.1628    9.2057   -2.4137 H   0  0  0  0  0  0  0  0  0  0  0  0
    0.1593    9.4951   -0.6367 H   0  0  0  0  0  0  0  0  0  0  0  0
   -0.6708    7.3505   -0.5950 H   0  0  0  0  0  0  0  0  0  0  0  0
   -2.1663    8.3424   -0.3377 H   0  0  0  0  0  0  0  0  0  0  0  0
   -1.1184    6.8168   -2.4213 H   0  0  0  0  0  0  0  0  0  0  0  0
   -3.9285    7.2968   -0.2663 H   0  0  0  0  0  0  0  0  0  0  0  0
   -4.7314    8.5279   -1.2990 H   0  0  0  0  0  0  0  0  0  0  0  0
   -5.3227    6.8317   -1.2990 H   0  0  0  0  0  0  0  0  0  0  0  0
   -4.3347    5.2319   -2.7713 H   0  0  0  0  0  0  0  0  0  0  0  0
   -4.7495    6.5192   -3.9534 H   0  0  0  0  0  0  0  0  0  0  0  0
   -3.1054    5.7958   -3.9534 H   0  0  0  0  0  0  0  0  0  0  0  0
   -1.5351   12.2723   -0.2863 H   0  0  0  0  0  0  0  0  0  0  0  0
    0.1804   11.2819    1.0970 H   0  0  0  0  0  0  0  0  0  0  0  0
    0.8290   10.3292   -0.2555 H   0  0  0  0  0  0  0  0  0  0  0  0
    2.0075   12.6985    0.8238 H   0  0  0  0  0  0  0  0  0  0  0  0
    2.4486   11.9957   -0.7300 H   0  0  0  0  0  0  0  0  0  0  0  0
    0.5304   13.9756    1.2644 H   0  0  0  0  0  0  0  0  0  0  0  0
    0.4198   15.4242    0.2080 H   0  0  0  0  0  0  0  0  0  0  0  0
   -0.9034   14.2094    0.2080 H   0  0  0  0  0  0  0  0  0  0  0  0
    2.3527   13.7946   -2.3499 H   0  0  0  0  0  0  0  0  0  0  0  0
    3.2002   14.6147   -0.0604 H   0  0  0  0  0  0  0  0  0  0  0  0
    3.7308   15.4329   -1.6217 H   0  0  0  0  0  0  0  0  0  0  0  0
    3.1592   17.0293    0.3955 H   0  0  0  0  0  0  0  0  0  0  0  0
   -0.3947   16.4682   -1.4365 H   0  0  0  0  0  0  0  0  0  0  0  0
    1.1894   18.2679   -3.3728 H   0  0  0  0  0  0  0  0  0  0  0  0
   -0.4984   17.6302   -3.6077 H   0  0  0  0  0  0  0  0  0  0  0  0
   -0.4836   20.0016   -2.9015 H   0  0  0  0  0  0  0  0  0  0  0  0
   -1.2812   18.9127   -1.7004 H   0  0  0  0  0  0  0  0  0  0  0  0
    0.0994   20.4815   -0.5205 H   0  0  0  0  0  0  0  0  0  0  0  0
    2.5710   19.7910   -1.2440 H   0  0  0  0  0  0  0  0  0  0  0  0
    0.0374   18.3357    1.8944 H   0  0  0  0  0  0  0  0  0  0  0  0
   -1.0458   18.9756    0.6123 H   0  0  0  0  0  0  0  0  0  0  0  0
   -0.5814   17.2403    0.6123 H   0  0  0  0  0  0  0  0  0  0  0  0
    1.7570   19.0115    1.9553 H   0  0  0  0  0  0  0  0  0  0  0  0
    3.0312   18.6876    0.7313 H   0  0  0  0  0  0  0  0  0  0  0  0
    2.1650   20.2613    0.7313 H   0  0  0  0  0  0  0  0  0  0  0  0
    2.9574   16.2465   -3.3785 H   0  0  0  0  0  0  0  0  0  0  0  0
    2.2174   14.9928   -4.4308 H   0  0  0  0  0  0  0  0  0  0  0  0
    1.5632   16.6657   -4.4308 H   0  0  0  0  0  0  0  0  0  0  0  0
   -0.8974   15.5943   -3.6617 H   0  0  0  0  0  0  0  0  0  0  0  0
    0.2207   14.2068   -4.1710 H   0  0  0  0  0  0  0  0  0  0  0  0
   -1.5573   14.3439   -1.7206 H   0  0  0  0  0  0  0  0  0  0  0  0
   -1.6893   13.2469   -3.1513 H   0  0  0  0  0  0  0  0  0  0  0  0
    1.3167   11.2220   -2.4887 H   0  0  0  0  0  0  0  0  0  0  0  0
   -0.0972   11.4682   -3.5689 H   0  0  0  0  0  0  0  0  0  0  0  0
    1.2505   12.6557   -3.5689 H   0  0  0  0  0  0  0  0  0  0  0  0
  1  2  1  0
  2  3  1  0
  3  4  1  0
  4  5  1  0
  5  6  1  0
  6  7  1  0
  7  8  1  0
  7  9  1  0
  2 10  1  0
 10 11  1  0
 11 12  1  0
 12 13  1  0
 13 14  1  1
 13 15  1  0
 15 16  1  0
 16 17  1  0
 17 18  2  0
 18 19  1  0
 19 20  1  0
 20 21  1  0
 21 22  1  0
 22 23  1  0
 22 24  1  0
 24 25  1  0
 24 26  1  0
 19 27  1  0
 27 28  1  6
 27 29  1  0
 29 30  1  0
 30 31  1  0
 31 32  1  6
  7  5  1  0
 31 10  1  0
 31 13  1  0
 27 15  1  0
 24 18  1  0
  1 33  1  0
  1 34  1  0
  1 35  1  0
  2 36  1  6
  3 37  1  0
  3 38  1  0
  4 39  1  0
  4 40  1  0
  5 41  1  6
  8 42  1  0
  8 43  1  0
  8 44  1  0
  9 45  1  0
  9 46  1  0
  9 47  1  0
 10 48  1  1
 11 49  1  0
 11 50  1  0
 12 51  1  0
 12 52  1  0
 14 53  1  0
 14 54  1  0
 14 55  1  0
 15 56  1  6
 16 57  1  0
 16 58  1  0
 17 59  1  0
 19 60  1  1
 20 61  1  0
 20 62  1  0
 21 63  1  0
 21 64  1  0
 22 65  1  1
 23 66  1  0
 25 67  1  0
 25 68  1  0
 25 69  1  0
 26 70  1  0
 26 71  1  0
 26 72  1  0
 28 73  1  0
 28 74  1  0
 28 75  1  0
 29 76  1  0
 29 77  1  0
 30 78  1  0
 30 79  1  0
 32 80  1  0
 32 81  1  0
 32 82  1  0
M  END
>  <meeko>  (15) 
{"is_sidechain": [false], "intermolecular_energy": 2.731, "internal_energy": -0.839}

$$$$
EPH_relaxed_0001_pdb2pqr_Repair_39_r2_0001_out
     RDKit          3D

 82 86  0  0  0  0  0  0  0  0999 V2000
   -2.2060    7.7770   -2.1260 C   0  0  0  0  0  0  0  0  0  0  0  0
   -2.3970    8.4730   -0.7750 C   0  0  2  0  0  0  0  0  0  0  0  0
   -3.8760    8.4980   -0.3390 C   0  0  0  0  0  0  0  0  0  0  0  0
   -4.6980    7.3270   -0.8850 C   0  0  0  0  0  0  0  0  0  0  0  0
   -6.0760    7.7580   -1.2890 C   0  0  2  0  0  0  0  0  0  0  0  0
   -7.1310    7.2340   -0.4720 O   0  0  0  0  0  0  0  0  0  0  0  0
   -7.1210    6.8070   -1.8440 C   0  0  0  0  0  0  0  0  0  0  0  0
   -6.8320    5.3500   -2.0260 C   0  0  0  0  0  0  0  0  0  0  0  0
   -8.2410    7.3730   -2.6600 C   0  0  0  0  0  0  0  0  0  0  0  0
   -1.8490    9.8930   -0.8400 C   0  0  1  0  0  0  0  0  0  0  0  0
   -1.4340   10.4380    0.5530 C   0  0  0  0  0  0  0  0  0  0  0  0
   -0.1950   11.3420    0.3290 C   0  0  0  0  0  0  0  0  0  0  0  0
   -0.1390   11.5540   -1.2020 C   0  0  1  0  0  0  0  0  0  0  0  0
   -1.1740   12.6870   -1.4880 C   0  0  0  0  0  0  0  0  0  0  0  0
    1.2650   11.8900   -1.8030 C   0  0  2  0  0  0  0  0  0  0  0  0
    1.8890   13.2060   -1.3060 C   0  0  0  0  0  0  0  0  0  0  0  0
    1.5630   14.4140   -2.1210 C   0  0  0  0  0  0  0  0  0  0  0  0
    1.0390   14.4030   -3.3610 C   0  0  0  0  0  0  0  0  0  0  0  0
    0.8110   13.0820   -4.1080 C   0  0  1  0  0  0  0  0  0  0  0  0
    1.3410   13.2110   -5.5600 C   0  0  0  0  0  0  0  0  0  0  0  0
    0.7460   14.4080   -6.2960 C   0  0  0  0  0  0  0  0  0  0  0  0
    1.0430   15.7070   -5.5530 C   0  0  2  0  0  0  0  0  0  0  0  0
    2.4520   15.9530   -5.5990 O   0  0  0  0  0  0  0  0  0  0  0  0
    0.5630   15.6920   -4.0750 C   0  0  0  0  0  0  0  0  0  0  0  0
   -0.9840   15.7300   -4.0290 C   0  0  0  0  0  0  0  0  0  0  0  0
    1.0500   17.0030   -3.4010 C   0  0  0  0  0  0  0  0  0  0  0  0
    1.3410   11.7730   -3.3790 C   0  0  1  0  0  0  0  0  0  0  0  0
    2.8400   11.5350   -3.7360 C   0  0  0  0  0  0  0  0  0  0  0  0
    0.5510   10.5250   -3.9250 C   0  0  0  0  0  0  0  0  0  0  0  0
   -0.7690   10.1730   -3.2130 C   0  0  0  0  0  0  0  0  0  0  0  0
   -0.5780   10.1270   -1.6940 C   0  0  2  0  0  0  0  0  0  0  0  0
    0.4410    8.9810   -1.3750 C   0  0  0  0  0  0  0  0  0  0  0  0
   -1.9182    6.7283   -1.9607 H   0  0  0  0  0  0  0  0  0  0  0  0
   -3.1474    7.8138   -2.6937 H   0  0  0  0  0  0  0  0  0  0  0  0
   -1.4152    8.2891   -2.6937 H   0  0  0  0  0  0  0  0  0  0  0  0
   -1.8408    7.8943   -0.0228 H   0  0  0  0  0  0  0  0  0  0  0  0
   -3.9148    8.4671    0.7599 H   0  0  0  0  0  0  0  0  0  0  0  0
   -4.3166    9.4190   -0.7485 H   0  0  0  0  0  0  0  0  0  0  0  0
   -4.1835    6.9088   -1.7628 H   0  0  0  0  0  0  0  0  0  0  0  0
   -4.7937    6.5742   -0.0887 H   0  0  0  0  0  0  0  0  0  0  0  0
   -5.6940    8.7254   -1.6472 H   0  0  0  0  0  0  0  0  0  0  0  0
   -6.7367    4.8693   -1.0412 H   0  0  0  0  0  0  0  0  0  0  0  0
   -7.6544    4.8801   -2.5853 H   0  0  0  0  0  0  0  0  0  0  0  0
   -5.8925    5.2296   -2.5853 H   0  0  0  0  0  0  0  0  0  0  0  0
   -9.0199    7.7666   -1.9904 H   0  0  0  0  0  0  0  0  0  0  0  0
   -7.8580    8.1857   -3.2946 H   0  0  0  0  0  0  0  0  0  0  0  0
   -8.6682    6.5825   -3.2946 H   0  0  0  0  0  0  0  0  0  0  0  0
   -2.7096   10.4012   -1.2994 H   0  0  0  0  0  0  0  0  0  0  0  0
   -2.2559   11.0236    0.9908 H   0  0  0  0  0  0  0  0  0  0  0  0
   -1.2025    9.6155    1.2458 H   0  0  0  0  0  0  0  0  0  0  0  0
   -0.3162   12.3032    0.8500 H   0  0  0  0  0  0  0  0  0  0  0  0
    0.7278   10.8901    0.7218 H   0  0  0  0  0  0  0  0  0  0  0  0
   -1.5453   13.0934   -0.5356 H   0  0  0  0  0  0  0  0  0  0  0  0
   -0.6899   13.4887   -2.0649 H   0  0  0  0  0  0  0  0  0  0  0  0
   -2.0162   12.2772   -2.0649 H   0  0  0  0  0  0  0  0  0  0  0  0
    1.8952   11.0868   -1.3934 H   0  0  0  0  0  0  0  0  0  0  0  0
    1.5360   13.3832   -0.2794 H   0  0  0  0  0  0  0  0  0  0  0  0
    2.9784   13.0735   -1.3805 H   0  0  0  0  0  0  0  0  0  0  0  0
    1.7684   15.3960   -1.6700 H   0  0  0  0  0  0  0  0  0  0  0  0
   -0.2774   12.9230   -4.1203 H   0  0  0  0  0  0  0  0  0  0  0  0
    2.4346   13.3252   -5.5273 H   0  0  0  0  0  0  0  0  0  0  0  0
    1.0448   12.3028   -6.1054 H   0  0  0  0  0  0  0  0  0  0  0  0
    1.1808   14.4628   -7.3049 H   0  0  0  0  0  0  0  0  0  0  0  0
   -0.3447   14.2780   -6.3540 H   0  0  0  0  0  0  0  0  0  0  0  0
    0.4830   16.5093   -6.0558 H   0  0  0  0  0  0  0  0  0  0  0  0
    2.8270   15.3830   -6.2920 H   0  0  0  0  0  0  0  0  0  0  0  0
   -1.3196   15.7382   -2.9815 H   0  0  0  0  0  0  0  0  0  0  0  0
   -1.3437   16.6373   -4.5364 H   0  0  0  0  0  0  0  0  0  0  0  0
   -1.3879   14.8415   -4.5364 H   0  0  0  0  0  0  0  0  0  0  0  0
    1.0082   16.8906   -2.3076 H   0  0  0  0  0  0  0  0  0  0  0  0
    2.0853   17.2109   -3.7089 H   0  0  0  0  0  0  0  0  0  0  0  0
    0.4015   17.8364   -3.7089 H   0  0  0  0  0  0  0  0  0  0  0  0
    3.4270   11.4418   -2.8104 H   0  0  0  0  0  0  0  0  0  0  0  0
    2.9344   10.6106   -4.3247 H   0  0  0  0  0  0  0  0  0  0  0  0
    3.2161   12.3847   -4.3247 H   0  0  0  0  0  0  0  0  0  0  0  0
    0.3180   10.7154   -4.9830 H   0  0  0  0  0  0  0  0  0  0  0  0
    1.2128    9.6647   -3.7465 H   0  0  0  0  0  0  0  0  0  0  0  0
   -1.5239   10.9347   -3.4577 H   0  0  0  0  0  0  0  0  0  0  0  0
   -1.0979    9.1806   -3.5551 H   0  0  0  0  0  0  0  0  0  0  0  0
    0.5392    8.8706   -0.2850 H   0  0  0  0  0  0  0  0  0  0  0  0
    0.0785    8.0370   -1.8080 H   0  0  0  0  0  0  0  0  0  0  0  0
    1.4209    9.2306   -1.8080 H   0  0  0  0  0  0  0  0  0  0  0  0
  1  2  1  0
  2  3  1  0
  3  4  1  0
  4  5  1  0
  5  6  1  0
  6  7  1  0
  7  8  1  0
  7  9  1  0
  2 10  1  0
 10 11  1  0
 11 12  1  0
 12 13  1  0
 13 14  1  1
 13 15  1  0
 15 16  1  0
 16 17  1  0
 17 18  2  0
 18 19  1  0
 19 20  1  0
 20 21  1  0
 21 22  1  0
 22 23  1  0
 22 24  1  0
 24 25  1  0
 24 26  1  0
 19 27  1  0
 27 28  1  1
 27 29  1  0
 29 30  1  0
 30 31  1  0
 31 32  1  6
  7  5  1  0
 31 10  1  0
 31 13  1  0
 27 15  1  0
 24 18  1  0
  1 33  1  0
  1 34  1  0
  1 35  1  0
  2 36  1  1
  3 37  1  0
  3 38  1  0
  4 39  1  0
  4 40  1  0
  5 41  1  6
  8 42  1  0
  8 43  1  0
  8 44  1  0
  9 45  1  0
  9 46  1  0
  9 47  1  0
 10 48  1  6
 11 49  1  0
 11 50  1  0
 12 51  1  0
 12 52  1  0
 14 53  1  0
 14 54  1  0
 14 55  1  0
 15 56  1  1
 16 57  1  0
 16 58  1  0
 17 59  1  0
 19 60  1  6
 20 61  1  0
 20 62  1  0
 21 63  1  0
 21 64  1  0
 22 65  1  6
 23 66  1  0
 25 67  1  0
 25 68  1  0
 25 69  1  0
 26 70  1  0
 26 71  1  0
 26 72  1  0
 28 73  1  0
 28 74  1  0
 28 75  1  0
 29 76  1  0
 29 77  1  0
 30 78  1  0
 30 79  1  0
 32 80  1  0
 32 81  1  0
 32 82  1  0
M  END
>  <meeko>  (16) 
{"is_sidechain": [false], "intermolecular_energy": 2.731, "internal_energy": -0.839}

$$$$
EPH_relaxed_0001_pdb2pqr_Repair_39_r2_0001_out
     RDKit          3D

 82 86  0  0  0  0  0  0  0  0999 V2000
    3.0440   19.0070   -1.0160 C   0  0  0  0  0  0  0  0  0  0  0  0
    2.7510   17.9840   -2.1170 C   0  0  2  0  0  0  0  0  0  0  0  0
    1.3520   18.1800   -2.7340 C   0  0  0  0  0  0  0  0  0  0  0  0
    0.6150   19.4150   -2.2080 C   0  0  0  0  0  0  0  0  0  0  0  0
   -0.7500   19.0690   -1.6940 C   0  0  2  0  0  0  0  0  0  0  0  0
   -1.6100   20.1940   -1.4750 O   0  0  0  0  0  0  0  0  0  0  0  0
   -1.2410   19.4420   -0.3080 C   0  0  0  0  0  0  0  0  0  0  0  0
   -0.3730   20.1950    0.6510 C   0  0  0  0  0  0  0  0  0  0  0  0
   -2.3700   18.6590    0.2870 C   0  0  0  0  0  0  0  0  0  0  0  0
    2.8830   16.5710   -1.5620 C   0  0  1  0  0  0  0  0  0  0  0  0
    3.5710   16.5370   -0.1710 C   0  0  0  0  0  0  0  0  0  0  0  0
    2.9040   15.3910    0.6310 C   0  0  0  0  0  0  0  0  0  0  0  0
    2.0970   14.5960   -0.4230 C   0  0  1  0  0  0  0  0  0  0  0  0
    3.1450   13.6700   -1.1160 C   0  0  0  0  0  0  0  0  0  0  0  0
    0.8740   13.7830    0.1120 C   0  0  2  0  0  0  0  0  0  0  0  0
    1.2200   12.6660    1.1120 C   0  0  0  0  0  0  0  0  0  0  0  0
    1.4870   11.3280    0.5070 C   0  0  0  0  0  0  0  0  0  0  0  0
    1.1750   10.9620   -0.7510 C   0  0  0  0  0  0  0  0  0  0  0  0
    0.3990   11.9080   -1.6770 C   0  0  1  0  0  0  0  0  0  0  0  0
   -0.7430   11.1250   -2.3770 C   0  0  0  0  0  0  0  0  0  0  0  0
   -0.2400    9.8810   -3.1020 C   0  0  0  0  0  0  0  0  0  0  0  0
    0.4750    8.9390   -2.1370 C   0  0  2  0  0  0  0  0  0  0  0  0
   -0.4800    8.4210   -1.2070 O   0  0  0  0  0  0  0  0  0  0  0  0
    1.6400    9.6190   -1.3660 C   0  0  0  0  0  0  0  0  0  0  0  0
    2.8090    9.9100   -2.3400 C   0  0  0  0  0  0  0  0  0  0  0  0
    2.1840    8.6020   -0.3270 C   0  0  0  0  0  0  0  0  0  0  0  0
   -0.1050   13.2640   -1.0180 C   0  0  1  0  0  0  0  0  0  0  0  0
   -1.4910   13.0430   -0.3400 C   0  0  0  0  0  0  0  0  0  0  0  0
   -0.3300   14.3330   -2.1520 C   0  0  0  0  0  0  0  0  0  0  0  0
    0.8880   15.1870   -2.5530 C   0  0  0  0  0  0  0  0  0  0  0  0
    1.5740   15.7780   -1.3180 C   0  0  2  0  0  0  0  0  0  0  0  0
    0.5510   16.7320   -0.6120 C   0  0  0  0  0  0  0  0  0  0  0  0
    2.9088   18.5351   -0.0316 H   0  0  0  0  0  0  0  0  0  0  0  0
    4.0803   19.3631   -1.1127 H   0  0  0  0  0  0  0  0  0  0  0  0
    2.3534   19.8577   -1.1127 H   0  0  0  0  0  0  0  0  0  0  0  0
    3.4891   18.1388   -2.9178 H   0  0  0  0  0  0  0  0  0  0  0  0
    1.4639   18.2802   -3.8237 H   0  0  0  0  0  0  0  0  0  0  0  0
    0.7508   17.3028   -2.4529 H   0  0  0  0  0  0  0  0  0  0  0  0
    1.2018   19.8590   -1.3904 H   0  0  0  0  0  0  0  0  0  0  0  0
    0.4983   20.1249   -3.0401 H   0  0  0  0  0  0  0  0  0  0  0  0
   -0.7400   18.1148   -2.2412 H   0  0  0  0  0  0  0  0  0  0  0  0
   -0.6623   19.9440    1.6822 H   0  0  0  0  0  0  0  0  0  0  0  0
    0.6792   19.9188    0.4878 H   0  0  0  0  0  0  0  0  0  0  0  0
   -0.4979   21.2756    0.4878 H   0  0  0  0  0  0  0  0  0  0  0  0
   -2.3078   18.7021    1.3844 H   0  0  0  0  0  0  0  0  0  0  0  0
   -3.3277   19.0878   -0.0431 H   0  0  0  0  0  0  0  0  0  0  0  0
   -2.3040   17.6118   -0.0431 H   0  0  0  0  0  0  0  0  0  0  0  0
    3.4591   16.1063   -2.3757 H   0  0  0  0  0  0  0  0  0  0  0  0
    4.6475   16.3421   -0.2857 H   0  0  0  0  0  0  0  0  0  0  0  0
    3.4580   17.4999    0.3487 H   0  0  0  0  0  0  0  0  0  0  0  0
    3.6656   14.7512    1.1007 H   0  0  0  0  0  0  0  0  0  0  0  0
    2.2687   15.7671    1.4465 H   0  0  0  0  0  0  0  0  0  0  0  0
    3.7363   13.1476   -0.3495 H   0  0  0  0  0  0  0  0  0  0  0  0
    2.6240   12.9319   -1.7434 H   0  0  0  0  0  0  0  0  0  0  0  0
    3.8134   14.2780   -1.7434 H   0  0  0  0  0  0  0  0  0  0  0  0
    0.3225   14.5402    0.6885 H   0  0  0  0  0  0  0  0  0  0  0  0
    2.1186   12.9733    1.6671 H   0  0  0  0  0  0  0  0  0  0  0  0
    0.3307   12.5404    1.7472 H   0  0  0  0  0  0  0  0  0  0  0  0
    1.9802   10.5775    1.1422 H   0  0  0  0  0  0  0  0  0  0  0  0
    1.1224   12.2624   -2.4261 H   0  0  0  0  0  0  0  0  0  0  0  0
   -1.4771   10.8179   -1.6175 H   0  0  0  0  0  0  0  0  0  0  0  0
   -1.1925   11.7907   -3.1285 H   0  0  0  0  0  0  0  0  0  0  0  0
   -1.0956    9.3552   -3.5507 H   0  0  0  0  0  0  0  0  0  0  0  0
    0.4717   10.1922   -3.8809 H   0  0  0  0  0  0  0  0  0  0  0  0
    0.9247    8.1330   -2.7355 H   0  0  0  0  0  0  0  0  0  0  0  0
   -0.4550    8.9840   -0.4150 H   0  0  0  0  0  0  0  0  0  0  0  0
    3.7184   10.1364   -1.7641 H   0  0  0  0  0  0  0  0  0  0  0  0
    2.9863    9.0286   -2.9738 H   0  0  0  0  0  0  0  0  0  0  0  0
    2.5524   10.7717   -2.9738 H   0  0  0  0  0  0  0  0  0  0  0  0
    1.9851    8.9739    0.6890 H   0  0  0  0  0  0  0  0  0  0  0  0
    1.6842    7.6321   -0.4669 H   0  0  0  0  0  0  0  0  0  0  0  0
    3.2682    8.4794   -0.4669 H   0  0  0  0  0  0  0  0  0  0  0  0
   -1.3716   13.0620    0.7533 H   0  0  0  0  0  0  0  0  0  0  0  0
   -2.1812   13.8424   -0.6474 H   0  0  0  0  0  0  0  0  0  0  0  0
   -1.8984   12.0686   -0.6474 H   0  0  0  0  0  0  0  0  0  0  0  0
   -0.6718   13.7982   -3.0504 H   0  0  0  0  0  0  0  0  0  0  0  0
   -1.0569   15.0459   -1.7355 H   0  0  0  0  0  0  0  0  0  0  0  0
    1.6067   14.5559   -3.0963 H   0  0  0  0  0  0  0  0  0  0  0  0
    0.5419   16.0135   -3.1910 H   0  0  0  0  0  0  0  0  0  0  0  0
    0.6534   16.6365    0.4791 H   0  0  0  0  0  0  0  0  0  0  0  0
    0.7533   17.7714   -0.9097 H   0  0  0  0  0  0  0  0  0  0  0  0
   -0.4718   16.4577   -0.9097 H   0  0  0  0  0  0  0  0  0  0  0  0
  1  2  1  0
  2  3  1  0
  3  4  1  0
  4  5  1  0
  5  6  1  0
  6  7  1  0
  7  8  1  0
  7  9  1  0
  2 10  1  0
 10 11  1  0
 11 12  1  0
 12 13  1  0
 13 14  1  6
 13 15  1  0
 15 16  1  0
 16 17  1  0
 17 18  2  0
 18 19  1  0
 19 20  1  0
 20 21  1  0
 21 22  1  0
 22 23  1  0
 22 24  1  0
 24 25  1  0
 24 26  1  0
 19 27  1  0
 27 28  1  1
 27 29  1  0
 29 30  1  0
 30 31  1  0
 31 32  1  1
  7  5  1  0
 31 10  1  0
 31 13  1  0
 27 15  1  0
 24 18  1  0
  1 33  1  0
  1 34  1  0
  1 35  1  0
  2 36  1  6
  3 37  1  0
  3 38  1  0
  4 39  1  0
  4 40  1  0
  5 41  1  6
  8 42  1  0
  8 43  1  0
  8 44  1  0
  9 45  1  0
  9 46  1  0
  9 47  1  0
 10 48  1  6
 11 49  1  0
 11 50  1  0
 12 51  1  0
 12 52  1  0
 14 53  1  0
 14 54  1  0
 14 55  1  0
 15 56  1  1
 16 57  1  0
 16 58  1  0
 17 59  1  0
 19 60  1  6
 20 61  1  0
 20 62  1  0
 21 63  1  0
 21 64  1  0
 22 65  1  6
 23 66  1  0
 25 67  1  0
 25 68  1  0
 25 69  1  0
 26 70  1  0
 26 71  1  0
 26 72  1  0
 28 73  1  0
 28 74  1  0
 28 75  1  0
 29 76  1  0
 29 77  1  0
 30 78  1  0
 30 79  1  0
 32 80  1  0
 32 81  1  0
 32 82  1  0
M  END
>  <meeko>  (17) 
{"is_sidechain": [false], "intermolecular_energy": 2.731, "internal_energy": -0.839}

$$$$
EPH_relaxed_0001_pdb2pqr_Repair_39_r2_0001_out
     RDKit          3D

 82 86  0  0  0  0  0  0  0  0999 V2000
    0.0670   17.6360   -2.5970 C   0  0  0  0  0  0  0  0  0  0  0  0
    0.1670   17.0810   -1.1740 C   0  0  2  0  0  0  0  0  0  0  0  0
    0.5130   18.1770   -0.1460 C   0  0  0  0  0  0  0  0  0  0  0  0
    1.9790   18.6180   -0.1870 C   0  0  0  0  0  0  0  0  0  0  0  0
    2.3960   19.2750    1.0940 C   0  0  2  0  0  0  0  0  0  0  0  0
    3.4890   20.1940    0.9670 O   0  0  0  0  0  0  0  0  0  0  0  0
    3.7340   19.0250    1.7650 C   0  0  0  0  0  0  0  0  0  0  0  0
    4.7400   18.0860    1.1760 C   0  0  0  0  0  0  0  0  0  0  0  0
    3.8650   19.3100    3.2290 C   0  0  0  0  0  0  0  0  0  0  0  0
    1.2090   15.9700   -1.1210 C   0  0  1  0  0  0  0  0  0  0  0  0
    1.4190   15.4150    0.3130 C   0  0  0  0  0  0  0  0  0  0  0  0
    1.7080   13.8980    0.1670 C   0  0  0  0  0  0  0  0  0  0  0  0
    1.9830   13.6970   -1.3420 C   0  0  1  0  0  0  0  0  0  0  0  0
    3.4700   14.1270   -1.5390 C   0  0  0  0  0  0  0  0  0  0  0  0
    1.7170   12.2640   -1.9070 C   0  0  2  0  0  0  0  0  0  0  0  0
    2.5920   11.1510   -1.3040 C   0  0  0  0  0  0  0  0  0  0  0  0
    3.8760   10.8910   -2.0200 C   0  0  0  0  0  0  0  0  0  0  0  0
    4.1820   11.3190   -3.2580 C   0  0  0  0  0  0  0  0  0  0  0  0
    3.1480   12.0670   -4.1100 C   0  0  1  0  0  0  0  0  0  0  0  0
    3.1370   11.4790   -5.5460 C   0  0  0  0  0  0  0  0  0  0  0  0
    4.5220   11.4680   -6.1850 C   0  0  0  0  0  0  0  0  0  0  0  0
    5.5070   10.6670   -5.3380 C   0  0  2  0  0  0  0  0  0  0  0  0
    5.1190    9.2900   -5.3590 O   0  0  0  0  0  0  0  0  0  0  0  0
    5.5970   11.1620   -3.8680 C   0  0  0  0  0  0  0  0  0  0  0  0
    6.3000   12.5420   -3.8250 C   0  0  0  0  0  0  0  0  0  0  0  0
    6.5150   10.1830   -3.0880 C   0  0  0  0  0  0  0  0  0  0  0  0
    1.6910   12.1850   -3.4870 C   0  0  1  0  0  0  0  0  0  0  0  0
    0.8510   10.9240   -3.8570 C   0  0  0  0  0  0  0  0  0  0  0  0
    0.9530   13.4160   -4.1350 C   0  0  0  0  0  0  0  0  0  0  0  0
    1.1600   14.7850   -3.4600 C   0  0  0  0  0  0  0  0  0  0  0  0
    0.9270   14.6910   -1.9490 C   0  0  2  0  0  0  0  0  0  0  0  0
   -0.5670   14.2810   -1.7190 C   0  0  0  0  0  0  0  0  0  0  0  0
   -0.1279   18.7178   -2.5558 H   0  0  0  0  0  0  0  0  0  0  0  0
    1.0124   17.4538   -3.1289 H   0  0  0  0  0  0  0  0  0  0  0  0
   -0.7554   17.1353   -3.1289 H   0  0  0  0  0  0  0  0  0  0  0  0
   -0.8207   16.6774   -0.9065 H   0  0  0  0  0  0  0  0  0  0  0  0
   -0.1194   19.0542   -0.3473 H   0  0  0  0  0  0  0  0  0  0  0  0
    0.3332   17.7504    0.8519 H   0  0  0  0  0  0  0  0  0  0  0  0
    2.6123   17.7349   -0.3574 H   0  0  0  0  0  0  0  0  0  0  0  0
    2.0947   19.3489   -1.0009 H   0  0  0  0  0  0  0  0  0  0  0  0
    1.3637   19.2463    1.4727 H   0  0  0  0  0  0  0  0  0  0  0  0
    5.2847   17.5775    1.9852 H   0  0  0  0  0  0  0  0  0  0  0  0
    4.2244   17.3386    0.5550 H   0  0  0  0  0  0  0  0  0  0  0  0
    5.4501   18.6518    0.5550 H   0  0  0  0  0  0  0  0  0  0  0  0
    3.4736   18.4584    3.8048 H   0  0  0  0  0  0  0  0  0  0  0  0
    4.9249   19.4654    3.4789 H   0  0  0  0  0  0  0  0  0  0  0  0
    3.2928   20.2156    3.4789 H   0  0  0  0  0  0  0  0  0  0  0  0
    2.0725   16.5069   -1.5406 H   0  0  0  0  0  0  0  0  0  0  0  0
    2.2709   15.9186    0.7932 H   0  0  0  0  0  0  0  0  0  0  0  0
    0.5312   15.5898    0.9385 H   0  0  0  0  0  0  0  0  0  0  0  0
    2.5865   13.6108    0.7635 H   0  0  0  0  0  0  0  0  0  0  0  0
    0.8732   13.2778    0.5253 H   0  0  0  0  0  0  0  0  0  0  0  0
    3.9452   14.2644   -0.5565 H   0  0  0  0  0  0  0  0  0  0  0  0
    4.0060   13.3471   -2.0997 H   0  0  0  0  0  0  0  0  0  0  0  0
    3.5070   15.0727   -2.0997 H   0  0  0  0  0  0  0  0  0  0  0  0
    0.6934   12.0606   -1.5594 H   0  0  0  0  0  0  0  0  0  0  0  0
    2.8314   11.4308   -0.2675 H   0  0  0  0  0  0  0  0  0  0  0  0
    2.0049   10.2244   -1.3857 H   0  0  0  0  0  0  0  0  0  0  0  0
    4.6367   10.2990   -1.4900 H   0  0  0  0  0  0  0  0  0  0  0  0
    3.4792   13.1156   -4.1390 H   0  0  0  0  0  0  0  0  0  0  0  0
    2.7613   10.4461   -5.5011 H   0  0  0  0  0  0  0  0  0  0  0  0
    2.4898   12.1191   -6.1636 H   0  0  0  0  0  0  0  0  0  0  0  0
    4.4538   11.0134   -7.1843 H   0  0  0  0  0  0  0  0  0  0  0  0
    4.8834   12.5044   -6.2578 H   0  0  0  0  0  0  0  0  0  0  0  0
    6.5064   10.8055   -5.7762 H   0  0  0  0  0  0  0  0  0  0  0  0
    4.4660    9.1790   -6.0700 H   0  0  0  0  0  0  0  0  0  0  0  0
    6.4533   12.8429   -2.7781 H   0  0  0  0  0  0  0  0  0  0  0  0
    7.2732   12.4737   -4.3332 H   0  0  0  0  0  0  0  0  0  0  0  0
    5.6726   13.2891   -4.3332 H   0  0  0  0  0  0  0  0  0  0  0  0
    6.3754   10.3319   -2.0071 H   0  0  0  0  0  0  0  0  0  0  0  0
    6.2549    9.1473   -3.3521 H   0  0  0  0  0  0  0  0  0  0  0  0
    7.5652   10.3760   -3.3521 H   0  0  0  0  0  0  0  0  0  0  0  0
    0.5171   10.4228   -2.9365 H   0  0  0  0  0  0  0  0  0  0  0  0
   -0.0258   11.2279   -4.4477 H   0  0  0  0  0  0  0  0  0  0  0  0
    1.4692   10.2320   -4.4477 H   0  0  0  0  0  0  0  0  0  0  0  0
    1.3003   13.5021   -5.1752 H   0  0  0  0  0  0  0  0  0  0  0  0
   -0.1197   13.1996   -4.0230 H   0  0  0  0  0  0  0  0  0  0  0  0
    2.1894   15.1256   -3.6450 H   0  0  0  0  0  0  0  0  0  0  0  0
    0.4371   15.4980   -3.8831 H   0  0  0  0  0  0  0  0  0  0  0  0
   -0.7699   14.2253   -0.6393 H   0  0  0  0  0  0  0  0  0  0  0  0
   -1.2279   15.0310   -2.1781 H   0  0  0  0  0  0  0  0  0  0  0  0
   -0.7525   13.2987   -2.1781 H   0  0  0  0  0  0  0  0  0  0  0  0
  1  2  1  0
  2  3  1  0
  3  4  1  0
  4  5  1  0
  5  6  1  0
  6  7  1  0
  7  8  1  0
  7  9  1  0
  2 10  1  0
 10 11  1  0
 11 12  1  0
 12 13  1  0
 13 14  1  1
 13 15  1  0
 15 16  1  0
 16 17  1  0
 17 18  2  0
 18 19  1  0
 19 20  1  0
 20 21  1  0
 21 22  1  0
 22 23  1  0
 22 24  1  0
 24 25  1  0
 24 26  1  0
 19 27  1  0
 27 28  1  1
 27 29  1  0
 29 30  1  0
 30 31  1  0
 31 32  1  6
  7  5  1  0
 31 10  1  0
 31 13  1  0
 27 15  1  0
 24 18  1  0
  1 33  1  0
  1 34  1  0
  1 35  1  0
  2 36  1  1
  3 37  1  0
  3 38  1  0
  4 39  1  0
  4 40  1  0
  5 41  1  1
  8 42  1  0
  8 43  1  0
  8 44  1  0
  9 45  1  0
  9 46  1  0
  9 47  1  0
 10 48  1  6
 11 49  1  0
 11 50  1  0
 12 51  1  0
 12 52  1  0
 14 53  1  0
 14 54  1  0
 14 55  1  0
 15 56  1  1
 16 57  1  0
 16 58  1  0
 17 59  1  0
 19 60  1  6
 20 61  1  0
 20 62  1  0
 21 63  1  0
 21 64  1  0
 22 65  1  6
 23 66  1  0
 25 67  1  0
 25 68  1  0
 25 69  1  0
 26 70  1  0
 26 71  1  0
 26 72  1  0
 28 73  1  0
 28 74  1  0
 28 75  1  0
 29 76  1  0
 29 77  1  0
 30 78  1  0
 30 79  1  0
 32 80  1  0
 32 81  1  0
 32 82  1  0
M  END
>  <meeko>  (18) 
{"is_sidechain": [false], "intermolecular_energy": 2.731, "internal_energy": -0.839}

$$$$
EPH_relaxed_0001_pdb2pqr_Repair_39_r2_0001_out
     RDKit          3D

 82 86  0  0  0  0  0  0  0  0999 V2000
    1.9750   10.7990   -5.1200 C   0  0  0  0  0  0  0  0  0  0  0  0
    1.3320   10.7090   -3.7330 C   0  0  2  0  0  0  0  0  0  0  0  0
    0.1760    9.6900   -3.6940 C   0  0  0  0  0  0  0  0  0  0  0  0
    0.0450    8.9600   -2.3540 C   0  0  0  0  0  0  0  0  0  0  0  0
   -1.3820    8.8880   -1.9000 C   0  0  2  0  0  0  0  0  0  0  0  0
   -2.0320   10.1580   -1.7640 O   0  0  0  0  0  0  0  0  0  0  0  0
   -1.8580    9.4010   -0.5550 C   0  0  0  0  0  0  0  0  0  0  0  0
   -0.9120   10.0250    0.4230 C   0  0  0  0  0  0  0  0  0  0  0  0
   -3.1360    8.8600    0.0060 C   0  0  0  0  0  0  0  0  0  0  0  0
    0.8310   12.0830   -3.3030 C   0  0  1  0  0  0  0  0  0  0  0  0
   -0.6880   12.0910   -2.9820 C   0  0  0  0  0  0  0  0  0  0  0  0
   -0.8930   13.0910   -1.8150 C   0  0  0  0  0  0  0  0  0  0  0  0
    0.4430   13.8650   -1.7260 C   0  0  1  0  0  0  0  0  0  0  0  0
    0.3510   14.9530   -2.8410 C   0  0  0  0  0  0  0  0  0  0  0  0
    0.7870   14.4920   -0.3350 C   0  0  2  0  0  0  0  0  0  0  0  0
   -0.2000   15.5630    0.1600 C   0  0  0  0  0  0  0  0  0  0  0  0
    0.1260   16.9640   -0.2370 C   0  0  0  0  0  0  0  0  0  0  0  0
    1.3120   17.3850   -0.7170 C   0  0  0  0  0  0  0  0  0  0  0  0
    2.5080   16.4290   -0.8090 C   0  0  1  0  0  0  0  0  0  0  0  0
    3.7730   17.1270   -0.2430 C   0  0  0  0  0  0  0  0  0  0  0  0
    4.0470   18.4710   -0.9110 C   0  0  0  0  0  0  0  0  0  0  0  0
    2.8580   19.4140   -0.7480 C   0  0  2  0  0  0  0  0  0  0  0  0
    2.7220   19.7490    0.6370 O   0  0  0  0  0  0  0  0  0  0  0  0
    1.5240   18.8140   -1.2740 C   0  0  0  0  0  0  0  0  0  0  0  0
    1.5640   18.7320   -2.8200 C   0  0  0  0  0  0  0  0  0  0  0  0
    0.3830   19.8060   -0.9210 C   0  0  0  0  0  0  0  0  0  0  0  0
    2.2860   14.9790   -0.1970 C   0  0  1  0  0  0  0  0  0  0  0  0
    2.6120   14.9900    1.3280 C   0  0  0  0  0  0  0  0  0  0  0  0
    3.3040   13.9790   -0.8620 C   0  0  0  0  0  0  0  0  0  0  0  0
    2.8580   13.3010   -2.1710 C   0  0  0  0  0  0  0  0  0  0  0  0
    1.4560   12.7020   -2.0280 C   0  0  2  0  0  0  0  0  0  0  0  0
    1.5220   11.5880   -0.9280 C   0  0  0  0  0  0  0  0  0  0  0  0
    3.0592   10.9507   -5.0124 H   0  0  0  0  0  0  0  0  0  0  0  0
    1.7883    9.8660   -5.6719 H   0  0  0  0  0  0  0  0  0  0  0  0
    1.5393   11.6449   -5.6719 H   0  0  0  0  0  0  0  0  0  0  0  0
    2.1038   10.3586   -3.0319 H   0  0  0  0  0  0  0  0  0  0  0  0
   -0.7649   10.2242   -3.8921 H   0  0  0  0  0  0  0  0  0  0  0  0
    0.3934    8.9272   -4.4562 H   0  0  0  0  0  0  0  0  0  0  0  0
    0.4360    7.9378   -2.4650 H   0  0  0  0  0  0  0  0  0  0  0  0
    0.6172    9.5207   -1.6002 H   0  0  0  0  0  0  0  0  0  0  0  0
   -1.5214    7.9254   -2.4138 H   0  0  0  0  0  0  0  0  0  0  0  0
   -1.2459    9.8048    1.4477 H   0  0  0  0  0  0  0  0  0  0  0  0
    0.0971    9.6147    0.2700 H   0  0  0  0  0  0  0  0  0  0  0  0
   -0.8920   11.1141    0.2700 H   0  0  0  0  0  0  0  0  0  0  0  0
   -3.0911    8.8790    1.1049 H   0  0  0  0  0  0  0  0  0  0  0  0
   -3.9781    9.4788   -0.3373 H   0  0  0  0  0  0  0  0  0  0  0  0
   -3.2779    7.8246   -0.3373 H   0  0  0  0  0  0  0  0  0  0  0  0
    1.1220   12.6698   -4.1867 H   0  0  0  0  0  0  0  0  0  0  0  0
   -1.2599   12.4155   -3.8639 H   0  0  0  0  0  0  0  0  0  0  0  0
   -1.0390   11.0854   -2.7069 H   0  0  0  0  0  0  0  0  0  0  0  0
   -1.7253   13.7765   -2.0326 H   0  0  0  0  0  0  0  0  0  0  0  0
   -1.1460   12.5852   -0.8715 H   0  0  0  0  0  0  0  0  0  0  0  0
    0.2670   15.9470   -2.3774 H   0  0  0  0  0  0  0  0  0  0  0  0
    1.2556   14.9151   -3.4658 H   0  0  0  0  0  0  0  0  0  0  0  0
   -0.5344   14.7638   -3.4658 H   0  0  0  0  0  0  0  0  0  0  0  0
    0.6653   13.6368    0.3460 H   0  0  0  0  0  0  0  0  0  0  0  0
   -1.1950   15.3192   -0.2408 H   0  0  0  0  0  0  0  0  0  0  0  0
   -0.1488   15.5388    1.2585 H   0  0  0  0  0  0  0  0  0  0  0  0
   -0.6692   17.7163   -0.1285 H   0  0  0  0  0  0  0  0  0  0  0  0
    2.6457   16.2164   -1.8794 H   0  0  0  0  0  0  0  0  0  0  0  0
    3.6325   17.2913    0.8355 H   0  0  0  0  0  0  0  0  0  0  0  0
    4.6339   16.4724   -0.4436 H   0  0  0  0  0  0  0  0  0  0  0  0
    4.9348   18.9280   -0.4494 H   0  0  0  0  0  0  0  0  0  0  0  0
    4.2158   18.3013   -1.9847 H   0  0  0  0  0  0  0  0  0  0  0  0
    3.0604   20.3087   -1.3551 H   0  0  0  0  0  0  0  0  0  0  0  0
    2.2470   19.0200    1.0710 H   0  0  0  0  0  0  0  0  0  0  0  0
    2.0274   17.7821   -3.1249 H   0  0  0  0  0  0  0  0  0  0  0  0
    0.5393   18.7841   -3.2166 H   0  0  0  0  0  0  0  0  0  0  0  0
    2.1537   19.5716   -3.2166 H   0  0  0  0  0  0  0  0  0  0  0  0
    0.2915   19.8856    0.1723 H   0  0  0  0  0  0  0  0  0  0  0  0
    0.6138   20.7954   -1.3426 H   0  0  0  0  0  0  0  0  0  0  0  0
   -0.5647   19.4398   -1.3426 H   0  0  0  0  0  0  0  0  0  0  0  0
    1.6751   14.9584    1.9035 H   0  0  0  0  0  0  0  0  0  0  0  0
    3.2257   14.1121    1.5781 H   0  0  0  0  0  0  0  0  0  0  0  0
    3.1651   15.9073    1.5781 H   0  0  0  0  0  0  0  0  0  0  0  0
    4.2278   14.5371   -1.0744 H   0  0  0  0  0  0  0  0  0  0  0  0
    3.4165   13.1591   -0.1374 H   0  0  0  0  0  0  0  0  0  0  0  0
    2.8495   14.0480   -2.9784 H   0  0  0  0  0  0  0  0  0  0  0  0
    3.5637   12.4901   -2.4041 H   0  0  0  0  0  0  0  0  0  0  0  0
    1.4944   12.0541    0.0680 H   0  0  0  0  0  0  0  0  0  0  0  0
    0.6624   10.9108   -1.0399 H   0  0  0  0  0  0  0  0  0  0  0  0
    2.4555   11.0171   -1.0399 H   0  0  0  0  0  0  0  0  0  0  0  0
  1  2  1  0
  2  3  1  0
  3  4  1  0
  4  5  1  0
  5  6  1  0
  6  7  1  0
  7  8  1  0
  7  9  1  0
  2 10  1  0
 10 11  1  0
 11 12  1  0
 12 13  1  0
 13 14  1  6
 13 15  1  0
 15 16  1  0
 16 17  1  0
 17 18  2  0
 18 19  1  0
 19 20  1  0
 20 21  1  0
 21 22  1  0
 22 23  1  0
 22 24  1  0
 24 25  1  0
 24 26  1  0
 19 27  1  0
 27 28  1  1
 27 29  1  0
 29 30  1  0
 30 31  1  0
 31 32  1  1
  7  5  1  0
 31 10  1  0
 31 13  1  0
 27 15  1  0
 24 18  1  0
  1 33  1  0
  1 34  1  0
  1 35  1  0
  2 36  1  1
  3 37  1  0
  3 38  1  0
  4 39  1  0
  4 40  1  0
  5 41  1  6
  8 42  1  0
  8 43  1  0
  8 44  1  0
  9 45  1  0
  9 46  1  0
  9 47  1  0
 10 48  1  6
 11 49  1  0
 11 50  1  0
 12 51  1  0
 12 52  1  0
 14 53  1  0
 14 54  1  0
 14 55  1  0
 15 56  1  1
 16 57  1  0
 16 58  1  0
 17 59  1  0
 19 60  1  6
 20 61  1  0
 20 62  1  0
 21 63  1  0
 21 64  1  0
 22 65  1  6
 23 66  1  0
 25 67  1  0
 25 68  1  0
 25 69  1  0
 26 70  1  0
 26 71  1  0
 26 72  1  0
 28 73  1  0
 28 74  1  0
 28 75  1  0
 29 76  1  0
 29 77  1  0
 30 78  1  0
 30 79  1  0
 32 80  1  0
 32 81  1  0
 32 82  1  0
M  END
>  <meeko>  (19) 
{"is_sidechain": [false], "intermolecular_energy": 2.731, "internal_energy": -0.839}

$$$$
EPH_relaxed_0001_pdb2pqr_Repair_39_r2_0001_out
     RDKit          3D

 82 86  0  0  0  0  0  0  0  0999 V2000
    0.8830    9.3790   -0.2430 C   0  0  0  0  0  0  0  0  0  0  0  0
   -0.3390   10.3010   -0.2090 C   0  0  2  0  0  0  0  0  0  0  0  0
   -1.0480   10.3760   -1.5760 C   0  0  0  0  0  0  0  0  0  0  0  0
   -0.2690    9.7060   -2.7110 C   0  0  0  0  0  0  0  0  0  0  0  0
   -0.1080   10.6190   -3.8880 C   0  0  2  0  0  0  0  0  0  0  0  0
    0.5900   10.0450   -5.0010 O   0  0  0  0  0  0  0  0  0  0  0  0
    1.2330   11.1550   -4.3540 C   0  0  0  0  0  0  0  0  0  0  0  0
    2.5040   10.7970   -3.6500 C   0  0  0  0  0  0  0  0  0  0  0  0
    1.2570   12.4030   -5.1810 C   0  0  0  0  0  0  0  0  0  0  0  0
    0.0760   11.6970    0.2400 C   0  0  1  0  0  0  0  0  0  0  0  0
    1.1850   11.6710    1.3260 C   0  0  0  0  0  0  0  0  0  0  0  0
    2.0930   12.9010    1.0680 C   0  0  0  0  0  0  0  0  0  0  0  0
    1.2970   13.7690    0.0650 C   0  0  1  0  0  0  0  0  0  0  0  0
    0.2690   14.5530    0.9410 C   0  0  0  0  0  0  0  0  0  0  0  0
    2.1380   14.7300   -0.8360 C   0  0  2  0  0  0  0  0  0  0  0  0
    2.9260   15.8140   -0.0780 C   0  0  0  0  0  0  0  0  0  0  0  0
    2.1990   17.1010    0.1310 C   0  0  0  0  0  0  0  0  0  0  0  0
    1.0800   17.4810   -0.5140 C   0  0  0  0  0  0  0  0  0  0  0  0
    0.4860   16.6200   -1.6360 C   0  0  1  0  0  0  0  0  0  0  0  0
    0.1300   17.5220   -2.8470 C   0  0  0  0  0  0  0  0  0  0  0  0
   -0.7780   18.6860   -2.4620 C   0  0  0  0  0  0  0  0  0  0  0  0
   -0.1280   19.5520   -1.3860 C   0  0  2  0  0  0  0  0  0  0  0  0
    1.0220   20.1940   -1.9430 O   0  0  0  0  0  0  0  0  0  0  0  0
    0.2840   18.7490   -0.1200 C   0  0  0  0  0  0  0  0  0  0  0  0
   -0.9850   18.3070    0.6510 C   0  0  0  0  0  0  0  0  0  0  0  0
    1.0530   19.7110    0.8260 C   0  0  0  0  0  0  0  0  0  0  0  0
    1.3360   15.3440   -2.0550 C   0  0  1  0  0  0  0  0  0  0  0  0
    2.3940   15.7390   -3.1300 C   0  0  0  0  0  0  0  0  0  0  0  0
    0.3830   14.2920   -2.7340 C   0  0  0  0  0  0  0  0  0  0  0  0
   -0.3270   13.2930   -1.8010 C   0  0  0  0  0  0  0  0  0  0  0  0
    0.6670   12.6440   -0.8340 C   0  0  2  0  0  0  0  0  0  0  0  0
    1.7010   11.8300   -1.6850 C   0  0  0  0  0  0  0  0  0  0  0  0
    1.1940    9.1443    0.7857 H   0  0  0  0  0  0  0  0  0  0  0  0
    0.6255    8.4482   -0.7696 H   0  0  0  0  0  0  0  0  0  0  0  0
    1.7074    9.8821   -0.7696 H   0  0  0  0  0  0  0  0  0  0  0  0
   -1.0543    9.8763    0.5107 H   0  0  0  0  0  0  0  0  0  0  0  0
   -2.0265    9.8815   -1.4873 H   0  0  0  0  0  0  0  0  0  0  0  0
   -1.1381   11.4417   -1.8333 H   0  0  0  0  0  0  0  0  0  0  0  0
    0.7274    9.4229   -2.3407 H   0  0  0  0  0  0  0  0  0  0  0  0
   -0.8343    8.8211   -3.0387 H   0  0  0  0  0  0  0  0  0  0  0  0
   -1.0633   11.1156   -3.6627 H   0  0  0  0  0  0  0  0  0  0  0  0
    2.3458   10.8416   -2.5623 H   0  0  0  0  0  0  0  0  0  0  0  0
    2.8068    9.7786   -3.9351 H   0  0  0  0  0  0  0  0  0  0  0  0
    3.2938   11.5076   -3.9351 H   0  0  0  0  0  0  0  0  0  0  0  0
    1.2739   13.2813   -4.5190 H   0  0  0  0  0  0  0  0  0  0  0  0
    2.1553   12.4050   -5.8158 H   0  0  0  0  0  0  0  0  0  0  0  0
    0.3594   12.4395   -5.8158 H   0  0  0  0  0  0  0  0  0  0  0  0
   -0.8982   12.0772    0.5811 H   0  0  0  0  0  0  0  0  0  0  0  0
    0.7356   11.7355    2.3279 H   0  0  0  0  0  0  0  0  0  0  0  0
    1.7631   10.7364    1.2777 H   0  0  0  0  0  0  0  0  0  0  0  0
    2.2735   13.4534    2.0020 H   0  0  0  0  0  0  0  0  0  0  0  0
    3.0821   12.6158    0.6802 H   0  0  0  0  0  0  0  0  0  0  0  0
    0.4902   14.3843    2.0052 H   0  0  0  0  0  0  0  0  0  0  0  0
    0.3410   15.6276    0.7174 H   0  0  0  0  0  0  0  0  0  0  0  0
   -0.7483   14.1993    0.7174 H   0  0  0  0  0  0  0  0  0  0  0  0
    2.8943   14.0531   -1.2600 H   0  0  0  0  0  0  0  0  0  0  0  0
    3.1948   15.4110    0.9096 H   0  0  0  0  0  0  0  0  0  0  0  0
    3.7959   16.0542   -0.7070 H   0  0  0  0  0  0  0  0  0  0  0  0
    2.6126   17.7978    0.8749 H   0  0  0  0  0  0  0  0  0  0  0  0
   -0.4291   16.1709   -1.2227 H   0  0  0  0  0  0  0  0  0  0  0  0
    1.0609   17.9262   -3.2714 H   0  0  0  0  0  0  0  0  0  0  0  0
   -0.4120   16.9027   -3.5769 H   0  0  0  0  0  0  0  0  0  0  0  0
   -0.9704   19.3023   -3.3526 H   0  0  0  0  0  0  0  0  0  0  0  0
   -1.7199   18.2800   -2.0645 H   0  0  0  0  0  0  0  0  0  0  0  0
   -0.8759   20.2900   -1.0604 H   0  0  0  0  0  0  0  0  0  0  0  0
    0.9790   21.1360   -1.7040 H   0  0  0  0  0  0  0  0  0  0  0  0
   -0.7979   18.3722    1.7330 H   0  0  0  0  0  0  0  0  0  0  0  0
   -1.8245   18.9657    0.3837 H   0  0  0  0  0  0  0  0  0  0  0  0
   -1.2336   17.2693    0.3837 H   0  0  0  0  0  0  0  0  0  0  0  0
    0.8401   19.4447    1.8718 H   0  0  0  0  0  0  0  0  0  0  0  0
    2.1333   19.6241    0.6381 H   0  0  0  0  0  0  0  0  0  0  0  0
    0.7303   20.7457    0.6381 H   0  0  0  0  0  0  0  0  0  0  0  0
    3.3127   16.0820   -2.6316 H   0  0  0  0  0  0  0  0  0  0  0  0
    2.6220   14.8654   -3.7584 H   0  0  0  0  0  0  0  0  0  0  0  0
    1.9937   16.5483   -3.7584 H   0  0  0  0  0  0  0  0  0  0  0  0
   -0.3940   14.8493   -3.2777 H   0  0  0  0  0  0  0  0  0  0  0  0
    1.0388   13.6771   -3.3679 H   0  0  0  0  0  0  0  0  0  0  0  0
   -1.0964   13.8254   -1.2225 H   0  0  0  0  0  0  0  0  0  0  0  0
   -0.7845   12.5037   -2.4156 H   0  0  0  0  0  0  0  0  0  0  0  0
    2.3854   11.2912   -1.0132 H   0  0  0  0  0  0  0  0  0  0  0  0
    1.1661   11.1080   -2.3195 H   0  0  0  0  0  0  0  0  0  0  0  0
    2.2772   12.5194   -2.3195 H   0  0  0  0  0  0  0  0  0  0  0  0
  1  2  1  0
  2  3  1  0
  3  4  1  0
  4  5  1  0
  5  6  1  0
  6  7  1  0
  7  8  1  0
  7  9  1  0
  2 10  1  0
 10 11  1  0
 11 12  1  0
 12 13  1  0
 13 14  1  1
 13 15  1  0
 15 16  1  0
 16 17  1  0
 17 18  2  0
 18 19  1  0
 19 20  1  0
 20 21  1  0
 21 22  1  0
 22 23  1  0
 22 24  1  0
 24 25  1  0
 24 26  1  0
 19 27  1  0
 27 28  1  6
 27 29  1  0
 29 30  1  0
 30 31  1  0
 31 32  1  6
  7  5  1  0
 31 10  1  0
 31 13  1  0
 27 15  1  0
 24 18  1  0
  1 33  1  0
  1 34  1  0
  1 35  1  0
  2 36  1  1
  3 37  1  0
  3 38  1  0
  4 39  1  0
  4 40  1  0
  5 41  1  6
  8 42  1  0
  8 43  1  0
  8 44  1  0
  9 45  1  0
  9 46  1  0
  9 47  1  0
 10 48  1  1
 11 49  1  0
 11 50  1  0
 12 51  1  0
 12 52  1  0
 14 53  1  0
 14 54  1  0
 14 55  1  0
 15 56  1  6
 16 57  1  0
 16 58  1  0
 17 59  1  0
 19 60  1  1
 20 61  1  0
 20 62  1  0
 21 63  1  0
 21 64  1  0
 22 65  1  1
 23 66  1  0
 25 67  1  0
 25 68  1  0
 25 69  1  0
 26 70  1  0
 26 71  1  0
 26 72  1  0
 28 73  1  0
 28 74  1  0
 28 75  1  0
 29 76  1  0
 29 77  1  0
 30 78  1  0
 30 79  1  0
 32 80  1  0
 32 81  1  0
 32 82  1  0
M  END
>  <meeko>  (20) 
{"is_sidechain": [false], "intermolecular_energy": 2.731, "internal_energy": -0.839}

$$$$
