EPH_relaxed_0001_pdb2pqr_Repair_408_r2_0001_out
     RDKit          3D

 82 86  0  0  0  0  0  0  0  0999 V2000
   -1.7980    8.7640   -1.8750 C   0  0  0  0  0  0  0  0  0  0  0  0
   -1.7500    8.9970   -0.3620 C   0  0  2  0  0  0  0  0  0  0  0  0
   -3.1590    9.1310    0.2490 C   0  0  0  0  0  0  0  0  0  0  0  0
   -4.2880    9.0570   -0.7830 C   0  0  0  0  0  0  0  0  0  0  0  0
   -4.8410    7.6690   -0.9010 C   0  0  2  0  0  0  0  0  0  0  0  0
   -4.9410    7.1760   -2.2430 O   0  0  0  0  0  0  0  0  0  0  0  0
   -6.1810    7.3540   -1.5390 C   0  0  0  0  0  0  0  0  0  0  0  0
   -7.0510    8.4340   -2.1020 C   0  0  0  0  0  0  0  0  0  0  0  0
   -6.8600    6.0690   -1.1800 C   0  0  0  0  0  0  0  0  0  0  0  0
   -0.9280   10.2420   -0.0540 C   0  0  1  0  0  0  0  0  0  0  0  0
    0.1530    9.9910    1.0320 C   0  0  0  0  0  0  0  0  0  0  0  0
    1.3770   10.8640    0.6550 C   0  0  0  0  0  0  0  0  0  0  0  0
    0.8480   11.8290   -0.4320 C   0  0  1  0  0  0  0  0  0  0  0  0
    0.1240   12.9640    0.3580 C   0  0  0  0  0  0  0  0  0  0  0  0
    1.9120   12.4040   -1.4220 C   0  0  2  0  0  0  0  0  0  0  0  0
    3.0060   13.2720   -0.7740 C   0  0  0  0  0  0  0  0  0  0  0  0
    2.7000   14.7310   -0.6970 C   0  0  0  0  0  0  0  0  0  0  0  0
    1.7270   15.3630   -1.3790 C   0  0  0  0  0  0  0  0  0  0  0  0
    0.8740   14.6150   -2.4120 C   0  0  1  0  0  0  0  0  0  0  0  0
    0.7690   15.4610   -3.7080 C   0  0  0  0  0  0  0  0  0  0  0  0
    0.2580   16.8740   -3.4440 C   0  0  0  0  0  0  0  0  0  0  0  0
    1.1650   17.6060   -2.4580 C   0  0  2  0  0  0  0  0  0  0  0  0
    2.4390   17.8200   -3.0730 O   0  0  0  0  0  0  0  0  0  0  0  0
    1.3540   16.8430   -1.1170 C   0  0  0  0  0  0  0  0  0  0  0  0
    0.0330   16.8750   -0.3090 C   0  0  0  0  0  0  0  0  0  0  0  0
    2.3990   17.6180   -0.2700 C   0  0  0  0  0  0  0  0  0  0  0  0
    1.2960   13.1090   -2.6980 C   0  0  1  0  0  0  0  0  0  0  0  0
    2.3930   13.0650   -3.8050 C   0  0  0  0  0  0  0  0  0  0  0  0
    0.0550   12.3280   -3.2720 C   0  0  0  0  0  0  0  0  0  0  0  0
   -0.8940   11.6810   -2.2460 C   0  0  0  0  0  0  0  0  0  0  0  0
   -0.1110   10.8610   -1.2160 C   0  0  2  0  0  0  0  0  0  0  0  0
    0.6110    9.6990   -1.9780 C   0  0  0  0  0  0  0  0  0  0  0  0
   -2.0162    7.7048   -2.0761 H   0  0  0  0  0  0  0  0  0  0  0  0
   -2.5858    9.3912   -2.3178 H   0  0  0  0  0  0  0  0  0  0  0  0
   -0.8265    9.0287   -2.3178 H   0  0  0  0  0  0  0  0  0  0  0  0
   -1.2747    8.1160    0.0941 H   0  0  0  0  0  0  0  0  0  0  0  0
   -3.3004    8.3186    0.9770 H   0  0  0  0  0  0  0  0  0  0  0  0
   -3.2139   10.1263    0.7142 H   0  0  0  0  0  0  0  0  0  0  0  0
   -5.0960    9.7378   -0.4769 H   0  0  0  0  0  0  0  0  0  0  0  0
   -3.8777    9.3470   -1.7615 H   0  0  0  0  0  0  0  0  0  0  0  0
   -4.3993    7.3857    0.0658 H   0  0  0  0  0  0  0  0  0  0  0  0
   -7.5088    9.0024   -1.2790 H   0  0  0  0  0  0  0  0  0  0  0  0
   -6.4423    9.1101   -2.7204 H   0  0  0  0  0  0  0  0  0  0  0  0
   -7.8412    7.9832   -2.7204 H   0  0  0  0  0  0  0  0  0  0  0  0
   -6.9101    5.9742   -0.0852 H   0  0  0  0  0  0  0  0  0  0  0  0
   -7.8785    6.0639   -1.5955 H   0  0  0  0  0  0  0  0  0  0  0  0
   -6.2903    5.2247   -1.5955 H   0  0  0  0  0  0  0  0  0  0  0  0
   -1.7358   10.9264    0.2445 H   0  0  0  0  0  0  0  0  0  0  0  0
   -0.2294   10.2820    2.0215 H   0  0  0  0  0  0  0  0  0  0  0  0
    0.4264    8.9265    1.0784 H   0  0  0  0  0  0  0  0  0  0  0  0
    1.7382   11.4248    1.5297 H   0  0  0  0  0  0  0  0  0  0  0  0
    2.2260   10.2612    0.3003 H   0  0  0  0  0  0  0  0  0  0  0  0
    0.2362   12.7881    1.4380 H   0  0  0  0  0  0  0  0  0  0  0  0
    0.5700   13.9349    0.0963 H   0  0  0  0  0  0  0  0  0  0  0  0
   -0.9444   12.9689    0.0963 H   0  0  0  0  0  0  0  0  0  0  0  0
    2.4215   11.4947   -1.7737 H   0  0  0  0  0  0  0  0  0  0  0  0
    3.1695   12.9045    0.2498 H   0  0  0  0  0  0  0  0  0  0  0  0
    3.8905   13.1803   -1.4215 H   0  0  0  0  0  0  0  0  0  0  0  0
    3.3225   15.3412   -0.0261 H   0  0  0  0  0  0  0  0  0  0  0  0
   -0.1223   14.5017   -1.9598 H   0  0  0  0  0  0  0  0  0  0  0  0
    1.7660   15.5267   -4.1680 H   0  0  0  0  0  0  0  0  0  0  0  0
    0.0481   14.9640   -4.3738 H   0  0  0  0  0  0  0  0  0  0  0  0
    0.2331   17.4310   -4.3922 H   0  0  0  0  0  0  0  0  0  0  0  0
   -0.7509   16.8076   -3.0108 H   0  0  0  0  0  0  0  0  0  0  0  0
    0.6787   18.5610   -2.2102 H   0  0  0  0  0  0  0  0  0  0  0  0
    2.6540   17.0230   -3.5880 H   0  0  0  0  0  0  0  0  0  0  0  0
    0.2611   16.8695    0.7671 H   0  0  0  0  0  0  0  0  0  0  0  0
   -0.5284   17.7870   -0.5601 H   0  0  0  0  0  0  0  0  0  0  0  0
   -0.5719   15.9912   -0.5601 H   0  0  0  0  0  0  0  0  0  0  0  0
    2.1913   17.4640    0.7992 H   0  0  0  0  0  0  0  0  0  0  0  0
    3.4081   17.2482   -0.5045 H   0  0  0  0  0  0  0  0  0  0  0  0
    2.3380   18.6910   -0.5045 H   0  0  0  0  0  0  0  0  0  0  0  0
    3.3868   13.0251   -3.3350 H   0  0  0  0  0  0  0  0  0  0  0  0
    2.2471   12.1720   -4.4305 H   0  0  0  0  0  0  0  0  0  0  0  0
    2.3191   13.9668   -4.4305 H   0  0  0  0  0  0  0  0  0  0  0  0
   -0.5359   13.0364   -3.8712 H   0  0  0  0  0  0  0  0  0  0  0  0
    0.4814   11.4876   -3.8394 H   0  0  0  0  0  0  0  0  0  0  0  0
   -1.4545   12.4716   -1.7257 H   0  0  0  0  0  0  0  0  0  0  0  0
   -1.5820   11.0089   -2.7797 H   0  0  0  0  0  0  0  0  0  0  0  0
    1.0464    8.9983   -1.2504 H   0  0  0  0  0  0  0  0  0  0  0  0
   -0.1160    9.1672   -2.6094 H   0  0  0  0  0  0  0  0  0  0  0  0
    1.4098   10.1152   -2.6094 H   0  0  0  0  0  0  0  0  0  0  0  0
  1  2  1  0
  2  3  1  0
  3  4  1  0
  4  5  1  0
  5  6  1  0
  6  7  1  0
  7  8  1  0
  7  9  1  0
  2 10  1  0
 10 11  1  0
 11 12  1  0
 12 13  1  0
 13 14  1  1
 13 15  1  0
 15 16  1  0
 16 17  1  0
 17 18  2  0
 18 19  1  0
 19 20  1  0
 20 21  1  0
 21 22  1  0
 22 23  1  0
 22 24  1  0
 24 25  1  0
 24 26  1  0
 19 27  1  0
 27 28  1  6
 27 29  1  0
 29 30  1  0
 30 31  1  0
 31 32  1  6
  7  5  1  0
 31 10  1  0
 31 13  1  0
 27 15  1  0
 24 18  1  0
  1 33  1  0
  1 34  1  0
  1 35  1  0
  2 36  1  1
  3 37  1  0
  3 38  1  0
  4 39  1  0
  4 40  1  0
  5 41  1  1
  8 42  1  0
  8 43  1  0
  8 44  1  0
  9 45  1  0
  9 46  1  0
  9 47  1  0
 10 48  1  1
 11 49  1  0
 11 50  1  0
 12 51  1  0
 12 52  1  0
 14 53  1  0
 14 54  1  0
 14 55  1  0
 15 56  1  6
 16 57  1  0
 16 58  1  0
 17 59  1  0
 19 60  1  1
 20 61  1  0
 20 62  1  0
 21 63  1  0
 21 64  1  0
 22 65  1  1
 23 66  1  0
 25 67  1  0
 25 68  1  0
 25 69  1  0
 26 70  1  0
 26 71  1  0
 26 72  1  0
 28 73  1  0
 28 74  1  0
 28 75  1  0
 29 76  1  0
 29 77  1  0
 30 78  1  0
 30 79  1  0
 32 80  1  0
 32 81  1  0
 32 82  1  0
M  END
>  <meeko>  (1) 
{"is_sidechain": [false], "intermolecular_energy": 2.731, "internal_energy": -0.839}

$$$$
EPH_relaxed_0001_pdb2pqr_Repair_408_r2_0001_out
     RDKit          3D

 82 86  0  0  0  0  0  0  0  0999 V2000
    2.3830   19.6790   -1.0100 C   0  0  0  0  0  0  0  0  0  0  0  0
    2.1600   18.8340    0.2470 C   0  0  2  0  0  0  0  0  0  0  0  0
    3.4880   18.3740    0.8810 C   0  0  0  0  0  0  0  0  0  0  0  0
    3.7680   19.0020    2.2490 C   0  0  0  0  0  0  0  0  0  0  0  0
    5.2330   19.0120    2.5660 C   0  0  2  0  0  0  0  0  0  0  0  0
    5.6680   17.9450    3.4180 O   0  0  0  0  0  0  0  0  0  0  0  0
    5.7870   19.2730    3.9540 C   0  0  0  0  0  0  0  0  0  0  0  0
    4.8840   19.5430    5.1170 C   0  0  0  0  0  0  0  0  0  0  0  0
    7.2010   19.7470    4.0830 C   0  0  0  0  0  0  0  0  0  0  0  0
    1.2960   17.6240   -0.0870 C   0  0  1  0  0  0  0  0  0  0  0  0
    0.1100   17.9770   -1.0240 C   0  0  0  0  0  0  0  0  0  0  0  0
   -0.1070   16.7530   -1.9510 C   0  0  0  0  0  0  0  0  0  0  0  0
    0.7280   15.6220   -1.3060 C   0  0  1  0  0  0  0  0  0  0  0  0
   -0.1700   15.0680   -0.1550 C   0  0  0  0  0  0  0  0  0  0  0  0
    1.2050   14.4830   -2.2640 C   0  0  2  0  0  0  0  0  0  0  0  0
    0.0780   13.6690   -2.9230 C   0  0  0  0  0  0  0  0  0  0  0  0
   -0.3640   12.4620   -2.1650 C   0  0  0  0  0  0  0  0  0  0  0  0
    0.3080   11.8860   -1.1510 C   0  0  0  0  0  0  0  0  0  0  0  0
    1.6940   12.3940   -0.7350 C   0  0  1  0  0  0  0  0  0  0  0  0
    2.6550   11.1900   -0.5550 C   0  0  0  0  0  0  0  0  0  0  0  0
    2.1050   10.1420    0.4080 C   0  0  0  0  0  0  0  0  0  0  0  0
    0.7530    9.6180   -0.0700 C   0  0  2  0  0  0  0  0  0  0  0  0
    0.9450    8.8880   -1.2850 O   0  0  0  0  0  0  0  0  0  0  0  0
   -0.2950   10.7440   -0.2960 C   0  0  0  0  0  0  0  0  0  0  0  0
   -0.7270   11.3350    1.0690 C   0  0  0  0  0  0  0  0  0  0  0  0
   -1.5650   10.0970   -0.9110 C   0  0  0  0  0  0  0  0  0  0  0  0
    2.3150   13.5390   -1.6460 C   0  0  1  0  0  0  0  0  0  0  0  0
    3.0800   12.9060   -2.8480 C   0  0  0  0  0  0  0  0  0  0  0  0
    3.3830   14.3380   -0.8110 C   0  0  0  0  0  0  0  0  0  0  0  0
    2.8670   15.5270    0.0220 C   0  0  0  0  0  0  0  0  0  0  0  0
    1.9780   16.4440   -0.8240 C   0  0  2  0  0  0  0  0  0  0  0  0
    2.8600   17.0340   -1.9770 C   0  0  0  0  0  0  0  0  0  0  0  0
    2.6537   20.7047   -0.7190 H   0  0  0  0  0  0  0  0  0  0  0  0
    3.1962   19.2405   -1.6071 H   0  0  0  0  0  0  0  0  0  0  0  0
    1.4594   19.6989   -1.6071 H   0  0  0  0  0  0  0  0  0  0  0  0
    1.6444   19.4672    0.9840 H   0  0  0  0  0  0  0  0  0  0  0  0
    3.4551   17.2811    1.0010 H   0  0  0  0  0  0  0  0  0  0  0  0
    4.2948   18.6987    0.2075 H   0  0  0  0  0  0  0  0  0  0  0  0
    3.3965   20.0374    2.2486 H   0  0  0  0  0  0  0  0  0  0  0  0
    3.2562   18.3994    3.0138 H   0  0  0  0  0  0  0  0  0  0  0  0
    5.4664   19.4500    1.5844 H   0  0  0  0  0  0  0  0  0  0  0  0
    5.4348   19.3783    6.0548 H   0  0  0  0  0  0  0  0  0  0  0  0
    4.5341   20.5850    5.0754 H   0  0  0  0  0  0  0  0  0  0  0  0
    4.0195   18.8640    5.0754 H   0  0  0  0  0  0  0  0  0  0  0  0
    7.4626   19.8347    5.1478 H   0  0  0  0  0  0  0  0  0  0  0  0
    7.8752   19.0257    3.5980 H   0  0  0  0  0  0  0  0  0  0  0  0
    7.3043   20.7289    3.5980 H   0  0  0  0  0  0  0  0  0  0  0  0
    1.0088   17.3169    0.9295 H   0  0  0  0  0  0  0  0  0  0  0  0
   -0.7967   18.1690   -0.4316 H   0  0  0  0  0  0  0  0  0  0  0  0
    0.3253   18.8829   -1.6097 H   0  0  0  0  0  0  0  0  0  0  0  0
   -1.1713   16.4774   -1.9876 H   0  0  0  0  0  0  0  0  0  0  0  0
    0.1971   16.9563   -2.9884 H   0  0  0  0  0  0  0  0  0  0  0  0
    0.2698   15.3393    0.8161 H   0  0  0  0  0  0  0  0  0  0  0  0
   -1.1778   15.5016   -0.2351 H   0  0  0  0  0  0  0  0  0  0  0  0
   -0.2346   13.9728   -0.2351 H   0  0  0  0  0  0  0  0  0  0  0  0
    1.6822   15.0458   -3.0798 H   0  0  0  0  0  0  0  0  0  0  0  0
   -0.7921   14.3307   -3.0457 H   0  0  0  0  0  0  0  0  0  0  0  0
    0.4871   13.2978   -3.8743 H   0  0  0  0  0  0  0  0  0  0  0  0
   -1.3198   12.0043   -2.4599 H   0  0  0  0  0  0  0  0  0  0  0  0
    1.5530   12.9061    0.2283 H   0  0  0  0  0  0  0  0  0  0  0  0
    2.8165   10.7180   -1.5354 H   0  0  0  0  0  0  0  0  0  0  0  0
    3.5948   11.5731   -0.1307 H   0  0  0  0  0  0  0  0  0  0  0  0
    2.8142    9.3035    0.4710 H   0  0  0  0  0  0  0  0  0  0  0  0
    1.9718   10.6081    1.3954 H   0  0  0  0  0  0  0  0  0  0  0  0
    0.3509    8.9701    0.7228 H   0  0  0  0  0  0  0  0  0  0  0  0
    0.3460    9.2650   -1.9530 H   0  0  0  0  0  0  0  0  0  0  0  0
   -0.2899   10.7371    1.8823 H   0  0  0  0  0  0  0  0  0  0  0  0
   -0.3738   12.3738    1.1471 H   0  0  0  0  0  0  0  0  0  0  0  0
   -1.8240   11.3138    1.1471 H   0  0  0  0  0  0  0  0  0  0  0  0
   -2.2311    9.7577   -0.1040 H   0  0  0  0  0  0  0  0  0  0  0  0
   -2.0896   10.8377   -1.5324 H   0  0  0  0  0  0  0  0  0  0  0  0
   -1.2742    9.2372   -1.5324 H   0  0  0  0  0  0  0  0  0  0  0  0
    3.8759   12.2474   -2.4702 H   0  0  0  0  0  0  0  0  0  0  0  0
    2.3793   12.3200   -3.4609 H   0  0  0  0  0  0  0  0  0  0  0  0
    3.5245   13.7040   -3.4609 H   0  0  0  0  0  0  0  0  0  0  0  0
    3.8617   13.6298   -0.1187 H   0  0  0  0  0  0  0  0  0  0  0  0
    4.0583   14.7816   -1.5575 H   0  0  0  0  0  0  0  0  0  0  0  0
    2.2834   15.1444    0.8723 H   0  0  0  0  0  0  0  0  0  0  0  0
    3.7311   16.1071    0.3782 H   0  0  0  0  0  0  0  0  0  0  0  0
    3.7007   17.5963   -1.5445 H   0  0  0  0  0  0  0  0  0  0  0  0
    3.2486   16.2134   -2.5980 H   0  0  0  0  0  0  0  0  0  0  0  0
    2.2499   17.7064   -2.5980 H   0  0  0  0  0  0  0  0  0  0  0  0
  1  2  1  0
  2  3  1  0
  3  4  1  0
  4  5  1  0
  5  6  1  0
  6  7  1  0
  7  8  1  0
  7  9  1  0
  2 10  1  0
 10 11  1  0
 11 12  1  0
 12 13  1  0
 13 14  1  1
 13 15  1  0
 15 16  1  0
 16 17  1  0
 17 18  2  0
 18 19  1  0
 19 20  1  0
 20 21  1  0
 21 22  1  0
 22 23  1  0
 22 24  1  0
 24 25  1  0
 24 26  1  0
 19 27  1  0
 27 28  1  6
 27 29  1  0
 29 30  1  0
 30 31  1  0
 31 32  1  6
  7  5  1  0
 31 10  1  0
 31 13  1  0
 27 15  1  0
 24 18  1  0
  1 33  1  0
  1 34  1  0
  1 35  1  0
  2 36  1  1
  3 37  1  0
  3 38  1  0
  4 39  1  0
  4 40  1  0
  5 41  1  6
  8 42  1  0
  8 43  1  0
  8 44  1  0
  9 45  1  0
  9 46  1  0
  9 47  1  0
 10 48  1  1
 11 49  1  0
 11 50  1  0
 12 51  1  0
 12 52  1  0
 14 53  1  0
 14 54  1  0
 14 55  1  0
 15 56  1  6
 16 57  1  0
 16 58  1  0
 17 59  1  0
 19 60  1  1
 20 61  1  0
 20 62  1  0
 21 63  1  0
 21 64  1  0
 22 65  1  1
 23 66  1  0
 25 67  1  0
 25 68  1  0
 25 69  1  0
 26 70  1  0
 26 71  1  0
 26 72  1  0
 28 73  1  0
 28 74  1  0
 28 75  1  0
 29 76  1  0
 29 77  1  0
 30 78  1  0
 30 79  1  0
 32 80  1  0
 32 81  1  0
 32 82  1  0
M  END
>  <meeko>  (2) 
{"is_sidechain": [false], "intermolecular_energy": 2.731, "internal_energy": -0.839}

$$$$
EPH_relaxed_0001_pdb2pqr_Repair_408_r2_0001_out
     RDKit          3D

 82 86  0  0  0  0  0  0  0  0999 V2000
   -3.2780    9.2280    0.6670 C   0  0  0  0  0  0  0  0  0  0  0  0
   -2.5380    9.6570   -0.6030 C   0  0  2  0  0  0  0  0  0  0  0  0
   -1.8800    8.4630   -1.3230 C   0  0  0  0  0  0  0  0  0  0  0  0
   -2.8250    7.7200   -2.2720 C   0  0  0  0  0  0  0  0  0  0  0  0
   -4.2520    7.8190   -1.8230 C   0  0  2  0  0  0  0  0  0  0  0  0
   -4.7900    6.6120   -1.2680 O   0  0  0  0  0  0  0  0  0  0  0  0
   -5.3920    7.0720   -2.4890 C   0  0  0  0  0  0  0  0  0  0  0  0
   -5.1560    6.1710   -3.6610 C   0  0  0  0  0  0  0  0  0  0  0  0
   -6.7850    7.5910   -2.3160 C   0  0  0  0  0  0  0  0  0  0  0  0
   -1.4840   10.7040   -0.2620 C   0  0  1  0  0  0  0  0  0  0  0  0
   -0.3680   10.1490    0.6640 C   0  0  0  0  0  0  0  0  0  0  0  0
    0.9500   10.8480    0.2440 C   0  0  0  0  0  0  0  0  0  0  0  0
    0.5010   12.0110   -0.6710 C   0  0  1  0  0  0  0  0  0  0  0  0
    0.0640   13.1450    0.3080 C   0  0  0  0  0  0  0  0  0  0  0  0
    1.5530   12.5190   -1.7100 C   0  0  2  0  0  0  0  0  0  0  0  0
    2.8370   13.1100   -1.1030 C   0  0  0  0  0  0  0  0  0  0  0  0
    2.8020   14.5790   -0.8420 C   0  0  0  0  0  0  0  0  0  0  0  0
    1.8970   15.4410   -1.3420 C   0  0  0  0  0  0  0  0  0  0  0  0
    0.8330   14.9730   -2.3430 C   0  0  1  0  0  0  0  0  0  0  0  0
    0.7580   15.9750   -3.5250 C   0  0  0  0  0  0  0  0  0  0  0  0
    0.5310   17.4110   -3.0610 C   0  0  0  0  0  0  0  0  0  0  0  0
    1.6400   17.8590   -2.1130 C   0  0  2  0  0  0  0  0  0  0  0  0
    2.8690   17.9330   -2.8420 O   0  0  0  0  0  0  0  0  0  0  0  0
    1.8160   16.9190   -0.8870 C   0  0  0  0  0  0  0  0  0  0  0  0
    0.6020   17.0700    0.0630 C   0  0  0  0  0  0  0  0  0  0  0  0
    3.0550   17.4030   -0.0880 C   0  0  0  0  0  0  0  0  0  0  0  0
    0.9540   13.4650   -2.8290 C   0  0  1  0  0  0  0  0  0  0  0  0
    1.9190   13.3750   -4.0510 C   0  0  0  0  0  0  0  0  0  0  0  0
   -0.4530   12.9740   -3.3380 C   0  0  0  0  0  0  0  0  0  0  0  0
   -1.4010   12.3720   -2.2840 C   0  0  0  0  0  0  0  0  0  0  0  0
   -0.6820   11.3160   -1.4380 C   0  0  2  0  0  0  0  0  0  0  0  0
   -0.2510   10.1510   -2.3930 C   0  0  0  0  0  0  0  0  0  0  0  0
   -2.7110    9.5567    1.5505 H   0  0  0  0  0  0  0  0  0  0  0  0
   -4.2778    9.6866    0.6815 H   0  0  0  0  0  0  0  0  0  0  0  0
   -3.3768    8.1325    0.6815 H   0  0  0  0  0  0  0  0  0  0  0  0
   -3.2817   10.0877   -1.2895 H   0  0  0  0  0  0  0  0  0  0  0  0
   -1.0255    8.8370   -1.9061 H   0  0  0  0  0  0  0  0  0  0  0  0
   -1.5760    7.7465   -0.5457 H   0  0  0  0  0  0  0  0  0  0  0  0
   -2.7365    8.1569   -3.2776 H   0  0  0  0  0  0  0  0  0  0  0  0
   -2.5401    6.6576   -2.2775 H   0  0  0  0  0  0  0  0  0  0  0  0
   -4.1196    8.8782   -1.5573 H   0  0  0  0  0  0  0  0  0  0  0  0
   -4.8925    5.1649   -3.3028 H   0  0  0  0  0  0  0  0  0  0  0  0
   -6.0699    6.1155   -4.2707 H   0  0  0  0  0  0  0  0  0  0  0  0
   -4.3322    6.5706   -4.2707 H   0  0  0  0  0  0  0  0  0  0  0  0
   -7.0139    7.6763   -1.2435 H   0  0  0  0  0  0  0  0  0  0  0  0
   -6.8689    8.5807   -2.7887 H   0  0  0  0  0  0  0  0  0  0  0  0
   -7.4960    6.8975   -2.7887 H   0  0  0  0  0  0  0  0  0  0  0  0
   -2.1274   11.4708    0.1942 H   0  0  0  0  0  0  0  0  0  0  0  0
   -0.5995   10.3770    1.7149 H   0  0  0  0  0  0  0  0  0  0  0  0
   -0.2832    9.0564    0.5693 H   0  0  0  0  0  0  0  0  0  0  0  0
    1.4840   11.2317    1.1258 H   0  0  0  0  0  0  0  0  0  0  0  0
    1.6426   10.1611   -0.2643 H   0  0  0  0  0  0  0  0  0  0  0  0
    0.1953   12.8044    1.3457 H   0  0  0  0  0  0  0  0  0  0  0  0
    0.6824   14.0379    0.1342 H   0  0  0  0  0  0  0  0  0  0  0  0
   -0.9937   13.3920    0.1342 H   0  0  0  0  0  0  0  0  0  0  0  0
    1.8600   11.5881   -2.2092 H   0  0  0  0  0  0  0  0  0  0  0  0
    3.0272   12.5996   -0.1473 H   0  0  0  0  0  0  0  0  0  0  0  0
    3.6274   12.9530   -1.8517 H   0  0  0  0  0  0  0  0  0  0  0  0
    3.5818   14.9924   -0.1854 H   0  0  0  0  0  0  0  0  0  0  0  0
   -0.1204   14.9704   -1.7943 H   0  0  0  0  0  0  0  0  0  0  0  0
    1.7035   15.9308   -4.0854 H   0  0  0  0  0  0  0  0  0  0  0  0
   -0.0983   15.6875   -4.1527 H   0  0  0  0  0  0  0  0  0  0  0  0
    0.5169   18.0748   -3.9380 H   0  0  0  0  0  0  0  0  0  0  0  0
   -0.4292   17.4599   -2.5265 H   0  0  0  0  0  0  0  0  0  0  0  0
    1.3544   18.8438   -1.7149 H   0  0  0  0  0  0  0  0  0  0  0  0
    3.2200   17.0300   -2.9190 H   0  0  0  0  0  0  0  0  0  0  0  0
    0.9458   17.0272    1.1070 H   0  0  0  0  0  0  0  0  0  0  0  0
    0.1099   18.0363   -0.1217 H   0  0  0  0  0  0  0  0  0  0  0  0
   -0.1119   16.2537   -0.1217 H   0  0  0  0  0  0  0  0  0  0  0  0
    2.8504   17.3231    0.9898 H   0  0  0  0  0  0  0  0  0  0  0  0
    3.9233   16.7779   -0.3437 H   0  0  0  0  0  0  0  0  0  0  0  0
    3.2697   18.4511   -0.3437 H   0  0  0  0  0  0  0  0  0  0  0  0
    2.9549   13.2784   -3.6938 H   0  0  0  0  0  0  0  0  0  0  0  0
    1.6579   12.4973   -4.6605 H   0  0  0  0  0  0  0  0  0  0  0  0
    1.8247   14.2858   -4.6605 H   0  0  0  0  0  0  0  0  0  0  0  0
   -0.9632   13.8373   -3.7902 H   0  0  0  0  0  0  0  0  0  0  0  0
   -0.2361   12.1504   -4.0341 H   0  0  0  0  0  0  0  0  0  0  0  0
   -1.7630   13.1751   -1.6253 H   0  0  0  0  0  0  0  0  0  0  0  0
   -2.2427   11.8910   -2.8037 H   0  0  0  0  0  0  0  0  0  0  0  0
    0.0692    9.2855   -1.7943 H   0  0  0  0  0  0  0  0  0  0  0  0
   -1.1021    9.8632   -3.0276 H   0  0  0  0  0  0  0  0  0  0  0  0
    0.5825   10.4864   -3.0276 H   0  0  0  0  0  0  0  0  0  0  0  0
  1  2  1  0
  2  3  1  0
  3  4  1  0
  4  5  1  0
  5  6  1  0
  6  7  1  0
  7  8  1  0
  7  9  1  0
  2 10  1  0
 10 11  1  0
 11 12  1  0
 12 13  1  0
 13 14  1  1
 13 15  1  0
 15 16  1  0
 16 17  1  0
 17 18  2  0
 18 19  1  0
 19 20  1  0
 20 21  1  0
 21 22  1  0
 22 23  1  0
 22 24  1  0
 24 25  1  0
 24 26  1  0
 19 27  1  0
 27 28  1  6
 27 29  1  0
 29 30  1  0
 30 31  1  0
 31 32  1  6
  7  5  1  0
 31 10  1  0
 31 13  1  0
 27 15  1  0
 24 18  1  0
  1 33  1  0
  1 34  1  0
  1 35  1  0
  2 36  1  6
  3 37  1  0
  3 38  1  0
  4 39  1  0
  4 40  1  0
  5 41  1  1
  8 42  1  0
  8 43  1  0
  8 44  1  0
  9 45  1  0
  9 46  1  0
  9 47  1  0
 10 48  1  1
 11 49  1  0
 11 50  1  0
 12 51  1  0
 12 52  1  0
 14 53  1  0
 14 54  1  0
 14 55  1  0
 15 56  1  6
 16 57  1  0
 16 58  1  0
 17 59  1  0
 19 60  1  1
 20 61  1  0
 20 62  1  0
 21 63  1  0
 21 64  1  0
 22 65  1  1
 23 66  1  0
 25 67  1  0
 25 68  1  0
 25 69  1  0
 26 70  1  0
 26 71  1  0
 26 72  1  0
 28 73  1  0
 28 74  1  0
 28 75  1  0
 29 76  1  0
 29 77  1  0
 30 78  1  0
 30 79  1  0
 32 80  1  0
 32 81  1  0
 32 82  1  0
M  END
>  <meeko>  (3) 
{"is_sidechain": [false], "intermolecular_energy": 2.731, "internal_energy": -0.839}

$$$$
EPH_relaxed_0001_pdb2pqr_Repair_408_r2_0001_out
     RDKit          3D

 82 86  0  0  0  0  0  0  0  0999 V2000
    2.4100   18.0000   -2.5690 C   0  0  0  0  0  0  0  0  0  0  0  0
    1.0760   17.6550   -1.9000 C   0  0  2  0  0  0  0  0  0  0  0  0
    1.1660   17.7140   -0.3620 C   0  0  0  0  0  0  0  0  0  0  0  0
    0.8050   19.0830    0.2230 C   0  0  0  0  0  0  0  0  0  0  0  0
   -0.6510   19.1710    0.5700 C   0  0  2  0  0  0  0  0  0  0  0  0
   -1.4960   18.2730   -0.1620 O   0  0  0  0  0  0  0  0  0  0  0  0
   -1.7100   19.6750   -0.3920 C   0  0  0  0  0  0  0  0  0  0  0  0
   -1.3580   20.1260   -1.7750 C   0  0  0  0  0  0  0  0  0  0  0  0
   -3.0000   20.1880    0.1700 C   0  0  0  0  0  0  0  0  0  0  0  0
    0.6160   16.2700   -2.3410 C   0  0  1  0  0  0  0  0  0  0  0  0
    0.6920   16.0780   -3.8790 C   0  0  0  0  0  0  0  0  0  0  0  0
    1.0820   14.5980   -4.1270 C   0  0  0  0  0  0  0  0  0  0  0  0
    0.8950   13.9110   -2.7540 C   0  0  1  0  0  0  0  0  0  0  0  0
   -0.6360   13.6220   -2.6560 C   0  0  0  0  0  0  0  0  0  0  0  0
    1.7430   12.6210   -2.5060 C   0  0  2  0  0  0  0  0  0  0  0  0
    1.4430   11.4500   -3.4580 C   0  0  0  0  0  0  0  0  0  0  0  0
    0.3850   10.5050   -2.9930 C   0  0  0  0  0  0  0  0  0  0  0  0
   -0.0970   10.4260   -1.7390 C   0  0  0  0  0  0  0  0  0  0  0  0
    0.4990   11.2790   -0.6110 C   0  0  1  0  0  0  0  0  0  0  0  0
    0.7380   10.3910    0.6390 C   0  0  0  0  0  0  0  0  0  0  0  0
   -0.5180    9.6420    1.0740 C   0  0  0  0  0  0  0  0  0  0  0  0
   -1.0470    8.7610   -0.0550 C   0  0  2  0  0  0  0  0  0  0  0  0
   -0.1030    7.7150   -0.3030 O   0  0  0  0  0  0  0  0  0  0  0  0
   -1.3160    9.5450   -1.3700 C   0  0  0  0  0  0  0  0  0  0  0  0
   -2.5440   10.4690   -1.1820 C   0  0  0  0  0  0  0  0  0  0  0  0
   -1.7090    8.5180   -2.4660 C   0  0  0  0  0  0  0  0  0  0  0  0
    1.7730   12.1460   -0.9960 C   0  0  1  0  0  0  0  0  0  0  0  0
    3.0680   11.2950   -0.8240 C   0  0  0  0  0  0  0  0  0  0  0  0
    1.8970   13.3520    0.0080 C   0  0  0  0  0  0  0  0  0  0  0  0
    1.1320   14.6390   -0.3540 C   0  0  0  0  0  0  0  0  0  0  0  0
    1.4080   15.0520   -1.8030 C   0  0  2  0  0  0  0  0  0  0  0  0
    2.9370   15.3710   -1.9260 C   0  0  0  0  0  0  0  0  0  0  0  0
    3.1679   18.1960   -1.7962 H   0  0  0  0  0  0  0  0  0  0  0  0
    2.7350   17.1563   -3.1956 H   0  0  0  0  0  0  0  0  0  0  0  0
    2.2852   18.8954   -3.1956 H   0  0  0  0  0  0  0  0  0  0  0  0
    0.3416   18.4098   -2.2178 H   0  0  0  0  0  0  0  0  0  0  0  0
    0.4768   16.9651    0.0554 H   0  0  0  0  0  0  0  0  0  0  0  0
    2.2139   17.5152   -0.0930 H   0  0  0  0  0  0  0  0  0  0  0  0
    1.3992   19.2495    1.1336 H   0  0  0  0  0  0  0  0  0  0  0  0
    1.0237   19.8488   -0.5358 H   0  0  0  0  0  0  0  0  0  0  0  0
   -0.4119   19.4376    1.6101 H   0  0  0  0  0  0  0  0  0  0  0  0
   -0.6821   20.9920   -1.7174 H   0  0  0  0  0  0  0  0  0  0  0  0
   -0.8586   19.3062   -2.3120 H   0  0  0  0  0  0  0  0  0  0  0  0
   -2.2746   20.4114   -2.3120 H   0  0  0  0  0  0  0  0  0  0  0  0
   -2.9542   20.1698    1.2689 H   0  0  0  0  0  0  0  0  0  0  0  0
   -3.1647   21.2201   -0.1731 H   0  0  0  0  0  0  0  0  0  0  0  0
   -3.8285   19.5509   -0.1731 H   0  0  0  0  0  0  0  0  0  0  0  0
   -0.4013   16.2717   -1.9225 H   0  0  0  0  0  0  0  0  0  0  0  0
   -0.2849   16.2939   -4.3363 H   0  0  0  0  0  0  0  0  0  0  0  0
    1.4296   16.7607   -4.3260 H   0  0  0  0  0  0  0  0  0  0  0  0
    0.4230   14.1438   -4.8816 H   0  0  0  0  0  0  0  0  0  0  0  0
    2.1084   14.4950   -4.5091 H   0  0  0  0  0  0  0  0  0  0  0  0
   -0.9316   13.5662   -1.5979 H   0  0  0  0  0  0  0  0  0  0  0  0
   -1.1942   14.4306   -3.1505 H   0  0  0  0  0  0  0  0  0  0  0  0
   -0.8610   12.6655   -3.1505 H   0  0  0  0  0  0  0  0  0  0  0  0
    2.7607   12.9554   -2.7559 H   0  0  0  0  0  0  0  0  0  0  0  0
    1.1233   11.8699   -4.4231 H   0  0  0  0  0  0  0  0  0  0  0  0
    2.3707   10.8621   -3.5189 H   0  0  0  0  0  0  0  0  0  0  0  0
   -0.0363    9.8147   -3.7386 H   0  0  0  0  0  0  0  0  0  0  0  0
   -0.2524   12.0495   -0.3835 H   0  0  0  0  0  0  0  0  0  0  0  0
    1.5230    9.6568    0.4050 H   0  0  0  0  0  0  0  0  0  0  0  0
    1.0354   11.0523    1.4662 H   0  0  0  0  0  0  0  0  0  0  0  0
   -0.2777    9.0097    1.9415 H   0  0  0  0  0  0  0  0  0  0  0  0
   -1.2921   10.3780    1.3368 H   0  0  0  0  0  0  0  0  0  0  0  0
   -2.0157    8.3538    0.2703 H   0  0  0  0  0  0  0  0  0  0  0  0
    0.7500    7.9930    0.0720 H   0  0  0  0  0  0  0  0  0  0  0  0
   -2.7342   10.6121   -0.1081 H   0  0  0  0  0  0  0  0  0  0  0  0
   -2.3451   11.4434   -1.6522 H   0  0  0  0  0  0  0  0  0  0  0  0
   -3.4251   10.0080   -1.6522 H   0  0  0  0  0  0  0  0  0  0  0  0
   -2.0635    7.5917   -1.9903 H   0  0  0  0  0  0  0  0  0  0  0  0
   -2.5098    8.9383   -3.0921 H   0  0  0  0  0  0  0  0  0  0  0  0
   -0.8322    8.2963   -3.0921 H   0  0  0  0  0  0  0  0  0  0  0  0
    3.2769   11.1577    0.2472 H   0  0  0  0  0  0  0  0  0  0  0  0
    2.9271   10.3129   -1.2989 H   0  0  0  0  0  0  0  0  0  0  0  0
    3.9136   11.8140   -1.2989 H   0  0  0  0  0  0  0  0  0  0  0  0
    1.5283   13.0098    0.9862 H   0  0  0  0  0  0  0  0  0  0  0  0
    2.9600   13.6342   -0.0112 H   0  0  0  0  0  0  0  0  0  0  0  0
    0.0533   14.4635   -0.2291 H   0  0  0  0  0  0  0  0  0  0  0  0
    1.4704   15.4469    0.3114 H   0  0  0  0  0  0  0  0  0  0  0  0
    3.3745   15.4623   -0.9209 H   0  0  0  0  0  0  0  0  0  0  0  0
    3.4384   14.5581   -2.4717 H   0  0  0  0  0  0  0  0  0  0  0  0
    3.0715   16.3166   -2.4717 H   0  0  0  0  0  0  0  0  0  0  0  0
  1  2  1  0
  2  3  1  0
  3  4  1  0
  4  5  1  0
  5  6  1  0
  6  7  1  0
  7  8  1  0
  7  9  1  0
  2 10  1  0
 10 11  1  0
 11 12  1  0
 12 13  1  0
 13 14  1  1
 13 15  1  0
 15 16  1  0
 16 17  1  0
 17 18  2  0
 18 19  1  0
 19 20  1  0
 20 21  1  0
 21 22  1  0
 22 23  1  0
 22 24  1  0
 24 25  1  0
 24 26  1  0
 19 27  1  0
 27 28  1  6
 27 29  1  0
 29 30  1  0
 30 31  1  0
 31 32  1  1
  7  5  1  0
 31 10  1  0
 31 13  1  0
 27 15  1  0
 24 18  1  0
  1 33  1  0
  1 34  1  0
  1 35  1  0
  2 36  1  6
  3 37  1  0
  3 38  1  0
  4 39  1  0
  4 40  1  0
  5 41  1  1
  8 42  1  0
  8 43  1  0
  8 44  1  0
  9 45  1  0
  9 46  1  0
  9 47  1  0
 10 48  1  1
 11 49  1  0
 11 50  1  0
 12 51  1  0
 12 52  1  0
 14 53  1  0
 14 54  1  0
 14 55  1  0
 15 56  1  6
 16 57  1  0
 16 58  1  0
 17 59  1  0
 19 60  1  1
 20 61  1  0
 20 62  1  0
 21 63  1  0
 21 64  1  0
 22 65  1  1
 23 66  1  0
 25 67  1  0
 25 68  1  0
 25 69  1  0
 26 70  1  0
 26 71  1  0
 26 72  1  0
 28 73  1  0
 28 74  1  0
 28 75  1  0
 29 76  1  0
 29 77  1  0
 30 78  1  0
 30 79  1  0
 32 80  1  0
 32 81  1  0
 32 82  1  0
M  END
>  <meeko>  (4) 
{"is_sidechain": [false], "intermolecular_energy": 2.731, "internal_energy": -0.839}

$$$$
EPH_relaxed_0001_pdb2pqr_Repair_408_r2_0001_out
     RDKit          3D

 82 86  0  0  0  0  0  0  0  0999 V2000
    2.2600   17.9410   -2.5140 C   0  0  0  0  0  0  0  0  0  0  0  0
    0.7390   17.8250   -2.6430 C   0  0  2  0  0  0  0  0  0  0  0  0
    0.0100   18.3160   -1.3760 C   0  0  0  0  0  0  0  0  0  0  0  0
    0.7020   17.9100   -0.0720 C   0  0  0  0  0  0  0  0  0  0  0  0
    1.2310   19.1000    0.6700 C   0  0  2  0  0  0  0  0  0  0  0  0
    2.1170   19.9330   -0.0890 O   0  0  0  0  0  0  0  0  0  0  0  0
    2.6900   19.2700    1.0500 C   0  0  0  0  0  0  0  0  0  0  0  0
    3.7120   18.2340    0.7000 C   0  0  0  0  0  0  0  0  0  0  0  0
    3.0330   20.1940    2.1760 C   0  0  0  0  0  0  0  0  0  0  0  0
    0.3500   16.3820   -2.9420 C   0  0  1  0  0  0  0  0  0  0  0  0
    0.4200   16.0460   -4.4550 C   0  0  0  0  0  0  0  0  0  0  0  0
    0.8880   14.5720   -4.5650 C   0  0  0  0  0  0  0  0  0  0  0  0
    0.7530   14.0120   -3.1300 C   0  0  1  0  0  0  0  0  0  0  0  0
   -0.7590   13.6530   -2.9800 C   0  0  0  0  0  0  0  0  0  0  0  0
    1.6730   12.8000   -2.7720 C   0  0  2  0  0  0  0  0  0  0  0  0
    1.4280   11.5270   -3.6020 C   0  0  0  0  0  0  0  0  0  0  0  0
    0.4280   10.5760   -3.0310 C   0  0  0  0  0  0  0  0  0  0  0  0
   -0.0350   10.5940   -1.7670 C   0  0  0  0  0  0  0  0  0  0  0  0
    0.5250   11.5830   -0.7370 C   0  0  1  0  0  0  0  0  0  0  0  0
    0.8260   10.8350    0.5880 C   0  0  0  0  0  0  0  0  0  0  0  0
   -0.3830   10.0660    1.1140 C   0  0  0  0  0  0  0  0  0  0  0  0
   -0.8740    9.0520    0.0840 C   0  0  2  0  0  0  0  0  0  0  0  0
    0.1230    8.0390   -0.0780 O   0  0  0  0  0  0  0  0  0  0  0  0
   -1.2000    9.6890   -1.2960 C   0  0  0  0  0  0  0  0  0  0  0  0
   -2.4750   10.5610   -1.1790 C   0  0  0  0  0  0  0  0  0  0  0  0
   -1.5480    8.5420   -2.2820 C   0  0  0  0  0  0  0  0  0  0  0  0
    1.7460   12.4760   -1.2250 C   0  0  1  0  0  0  0  0  0  0  0  0
    3.0870   11.7150   -0.9920 C   0  0  0  0  0  0  0  0  0  0  0  0
    1.8150   13.7780   -0.3430 C   0  0  0  0  0  0  0  0  0  0  0  0
    0.9760   14.9820   -0.8150 C   0  0  0  0  0  0  0  0  0  0  0  0
    1.2130   15.2660   -2.3010 C   0  0  2  0  0  0  0  0  0  0  0  0
    2.7210   15.6530   -2.4800 C   0  0  0  0  0  0  0  0  0  0  0  0
    2.5372   17.9621   -1.4497 H   0  0  0  0  0  0  0  0  0  0  0  0
    2.7362   17.0766   -2.9998 H   0  0  0  0  0  0  0  0  0  0  0  0
    2.5996   18.8677   -2.9998 H   0  0  0  0  0  0  0  0  0  0  0  0
    0.4275   18.4731   -3.4754 H   0  0  0  0  0  0  0  0  0  0  0  0
   -0.0472   19.4139   -1.4116 H   0  0  0  0  0  0  0  0  0  0  0  0
   -0.9836   17.8441   -1.3733 H   0  0  0  0  0  0  0  0  0  0  0  0
   -0.0228   17.3848    0.5674 H   0  0  0  0  0  0  0  0  0  0  0  0
    1.5515   17.2581   -0.3238 H   0  0  0  0  0  0  0  0  0  0  0  0
    0.3030   19.1763    1.2556 H   0  0  0  0  0  0  0  0  0  0  0  0
    4.1327   17.8076    1.6226 H   0  0  0  0  0  0  0  0  0  0  0  0
    3.2378   17.4358    0.1101 H   0  0  0  0  0  0  0  0  0  0  0  0
    4.5166   18.6973    0.1101 H   0  0  0  0  0  0  0  0  0  0  0  0
    2.8455   19.6888    3.1350 H   0  0  0  0  0  0  0  0  0  0  0  0
    4.0948   20.4736    2.1104 H   0  0  0  0  0  0  0  0  0  0  0  0
    2.4108   21.0988    2.1104 H   0  0  0  0  0  0  0  0  0  0  0  0
   -0.6619   16.3702   -2.5107 H   0  0  0  0  0  0  0  0  0  0  0  0
   -0.5720   16.1638   -4.9154 H   0  0  0  0  0  0  0  0  0  0  0  0
    1.1141   16.7207   -4.9776 H   0  0  0  0  0  0  0  0  0  0  0  0
    0.2474   14.0121   -5.2622 H   0  0  0  0  0  0  0  0  0  0  0  0
    1.9147   14.4879   -4.9508 H   0  0  0  0  0  0  0  0  0  0  0  0
   -1.0171   13.5917   -1.9125 H   0  0  0  0  0  0  0  0  0  0  0  0
   -1.3701   14.4310   -3.4609 H   0  0  0  0  0  0  0  0  0  0  0  0
   -0.9551   12.6833   -3.4609 H   0  0  0  0  0  0  0  0  0  0  0  0
    2.6678   13.1636   -3.0690 H   0  0  0  0  0  0  0  0  0  0  0  0
    1.0757   11.8332   -4.5981 H   0  0  0  0  0  0  0  0  0  0  0  0
    2.3859   10.9866   -3.6205 H   0  0  0  0  0  0  0  0  0  0  0  0
    0.0368    9.7950   -3.6996 H   0  0  0  0  0  0  0  0  0  0  0  0
   -0.2649   12.3307   -0.5726 H   0  0  0  0  0  0  0  0  0  0  0  0
    1.6470   10.1242    0.4129 H   0  0  0  0  0  0  0  0  0  0  0  0
    1.0965   11.5883    1.3425 H   0  0  0  0  0  0  0  0  0  0  0  0
   -0.0995    9.5354    2.0349 H   0  0  0  0  0  0  0  0  0  0  0  0
   -1.1935   10.7815    1.3168 H   0  0  0  0  0  0  0  0  0  0  0  0
   -1.8147    8.6264    0.4634 H   0  0  0  0  0  0  0  0  0  0  0  0
   -0.2080    7.4030   -0.7350 H   0  0  0  0  0  0  0  0  0  0  0  0
   -2.7121   10.7232   -0.1172 H   0  0  0  0  0  0  0  0  0  0  0  0
   -2.3021   11.5309   -1.6684 H   0  0  0  0  0  0  0  0  0  0  0  0
   -3.3161   10.0482   -1.6684 H   0  0  0  0  0  0  0  0  0  0  0  0
   -1.8215    7.6406   -1.7140 H   0  0  0  0  0  0  0  0  0  0  0  0
   -2.3940    8.8470   -2.9154 H   0  0  0  0  0  0  0  0  0  0  0  0
   -0.6751    8.3255   -2.9154 H   0  0  0  0  0  0  0  0  0  0  0  0
    3.2675   11.6125    0.0882 H   0  0  0  0  0  0  0  0  0  0  0  0
    3.0264   10.7167   -1.4499 H   0  0  0  0  0  0  0  0  0  0  0  0
    3.9130   12.2790   -1.4499 H   0  0  0  0  0  0  0  0  0  0  0  0
    1.4762   13.5126    0.6693 H   0  0  0  0  0  0  0  0  0  0  0  0
    2.8608   14.1133   -0.4058 H   0  0  0  0  0  0  0  0  0  0  0  0
   -0.0900   14.7622   -0.6562 H   0  0  0  0  0  0  0  0  0  0  0  0
    1.2768   15.8677   -0.2362 H   0  0  0  0  0  0  0  0  0  0  0  0
    3.1886   15.7730   -1.4916 H   0  0  0  0  0  0  0  0  0  0  0  0
    3.2397   14.8589   -3.0370 H   0  0  0  0  0  0  0  0  0  0  0  0
    2.7932   16.5988   -3.0370 H   0  0  0  0  0  0  0  0  0  0  0  0
  1  2  1  0
  2  3  1  0
  3  4  1  0
  4  5  1  0
  5  6  1  0
  6  7  1  0
  7  8  1  0
  7  9  1  0
  2 10  1  0
 10 11  1  0
 11 12  1  0
 12 13  1  0
 13 14  1  1
 13 15  1  0
 15 16  1  0
 16 17  1  0
 17 18  2  0
 18 19  1  0
 19 20  1  0
 20 21  1  0
 21 22  1  0
 22 23  1  0
 22 24  1  0
 24 25  1  0
 24 26  1  0
 19 27  1  0
 27 28  1  6
 27 29  1  0
 29 30  1  0
 30 31  1  0
 31 32  1  1
  7  5  1  0
 31 10  1  0
 31 13  1  0
 27 15  1  0
 24 18  1  0
  1 33  1  0
  1 34  1  0
  1 35  1  0
  2 36  1  6
  3 37  1  0
  3 38  1  0
  4 39  1  0
  4 40  1  0
  5 41  1  1
  8 42  1  0
  8 43  1  0
  8 44  1  0
  9 45  1  0
  9 46  1  0
  9 47  1  0
 10 48  1  1
 11 49  1  0
 11 50  1  0
 12 51  1  0
 12 52  1  0
 14 53  1  0
 14 54  1  0
 14 55  1  0
 15 56  1  6
 16 57  1  0
 16 58  1  0
 17 59  1  0
 19 60  1  1
 20 61  1  0
 20 62  1  0
 21 63  1  0
 21 64  1  0
 22 65  1  1
 23 66  1  0
 25 67  1  0
 25 68  1  0
 25 69  1  0
 26 70  1  0
 26 71  1  0
 26 72  1  0
 28 73  1  0
 28 74  1  0
 28 75  1  0
 29 76  1  0
 29 77  1  0
 30 78  1  0
 30 79  1  0
 32 80  1  0
 32 81  1  0
 32 82  1  0
M  END
>  <meeko>  (5) 
{"is_sidechain": [false], "intermolecular_energy": 2.731, "internal_energy": -0.839}

$$$$
EPH_relaxed_0001_pdb2pqr_Repair_408_r2_0001_out
     RDKit          3D

 82 86  0  0  0  0  0  0  0  0999 V2000
    3.7510   17.9700    0.7690 C   0  0  0  0  0  0  0  0  0  0  0  0
    2.7010   18.4010   -0.2590 C   0  0  2  0  0  0  0  0  0  0  0  0
    1.9630   19.6850    0.1680 C   0  0  0  0  0  0  0  0  0  0  0  0
    0.7340   19.4270    1.0440 C   0  0  0  0  0  0  0  0  0  0  0  0
   -0.4980   20.0600    0.4720 C   0  0  2  0  0  0  0  0  0  0  0  0
   -1.5860   20.1940    1.3950 O   0  0  0  0  0  0  0  0  0  0  0  0
   -1.8070   19.3180    0.2780 C   0  0  0  0  0  0  0  0  0  0  0  0
   -1.9500   17.8770    0.6530 C   0  0  0  0  0  0  0  0  0  0  0  0
   -2.7890   19.8490   -0.7190 C   0  0  0  0  0  0  0  0  0  0  0  0
    1.6990   17.2740   -0.4830 C   0  0  1  0  0  0  0  0  0  0  0  0
    0.5010   17.7070   -1.3690 C   0  0  0  0  0  0  0  0  0  0  0  0
    0.1040   16.4730   -2.2190 C   0  0  0  0  0  0  0  0  0  0  0  0
    0.8570   15.2900   -1.5650 C   0  0  1  0  0  0  0  0  0  0  0  0
   -0.0200   14.8850   -0.3390 C   0  0  0  0  0  0  0  0  0  0  0  0
    1.1570   14.0660   -2.4900 C   0  0  2  0  0  0  0  0  0  0  0  0
   -0.0850   13.3460   -3.0430 C   0  0  0  0  0  0  0  0  0  0  0  0
   -0.6010   12.2260   -2.2010 C   0  0  0  0  0  0  0  0  0  0  0  0
    0.0690   11.6290   -1.1980 C   0  0  0  0  0  0  0  0  0  0  0  0
    1.5230   12.0080   -0.8870 C   0  0  1  0  0  0  0  0  0  0  0  0
    2.3660   10.7190   -0.7000 C   0  0  0  0  0  0  0  0  0  0  0  0
    1.7710    9.7780    0.3440 C   0  0  0  0  0  0  0  0  0  0  0  0
    0.3470    9.3780   -0.0310 C   0  0  2  0  0  0  0  0  0  0  0  0
    0.3890    8.5780   -1.2170 O   0  0  0  0  0  0  0  0  0  0  0  0
   -0.5930   10.5960   -0.2540 C   0  0  0  0  0  0  0  0  0  0  0  0
   -0.8790   11.2880    1.1010 C   0  0  0  0  0  0  0  0  0  0  0  0
   -1.9580   10.0580   -0.7630 C   0  0  0  0  0  0  0  0  0  0  0  0
    2.2000   13.0390   -1.8890 C   0  0  1  0  0  0  0  0  0  0  0  0
    2.8230   12.2770   -3.0980 C   0  0  0  0  0  0  0  0  0  0  0  0
    3.3940   13.7590   -1.1560 C   0  0  0  0  0  0  0  0  0  0  0  0
    3.0530   15.0310   -0.3560 C   0  0  0  0  0  0  0  0  0  0  0  0
    2.2120   15.9980   -1.1960 C   0  0  2  0  0  0  0  0  0  0  0  0
    3.0770   16.4400   -2.4250 C   0  0  0  0  0  0  0  0  0  0  0  0
    3.3584   18.1312    1.7838 H   0  0  0  0  0  0  0  0  0  0  0  0
    3.9834   16.9037    0.6308 H   0  0  0  0  0  0  0  0  0  0  0  0
    4.6655   18.5655    0.6308 H   0  0  0  0  0  0  0  0  0  0  0  0
    3.2290   18.6210   -1.1986 H   0  0  0  0  0  0  0  0  0  0  0  0
    2.6646   20.3174    0.7318 H   0  0  0  0  0  0  0  0  0  0  0  0
    1.6055   20.1709   -0.7518 H   0  0  0  0  0  0  0  0  0  0  0  0
    0.5735   18.3416    1.1220 H   0  0  0  0  0  0  0  0  0  0  0  0
    0.9193   19.8706    2.0334 H   0  0  0  0  0  0  0  0  0  0  0  0
    0.1070   20.6787   -0.2071 H   0  0  0  0  0  0  0  0  0  0  0  0
   -1.9594   17.7825    1.7489 H   0  0  0  0  0  0  0  0  0  0  0  0
   -2.8916   17.4831    0.2429 H   0  0  0  0  0  0  0  0  0  0  0  0
   -1.1041   17.3057    0.2429 H   0  0  0  0  0  0  0  0  0  0  0  0
   -3.6372   20.3077   -0.1897 H   0  0  0  0  0  0  0  0  0  0  0  0
   -2.2985   20.6048   -1.3500 H   0  0  0  0  0  0  0  0  0  0  0  0
   -3.1529   19.0248   -1.3500 H   0  0  0  0  0  0  0  0  0  0  0  0
    1.4434   17.0441    0.5619 H   0  0  0  0  0  0  0  0  0  0  0  0
   -0.3437   18.0195   -0.7374 H   0  0  0  0  0  0  0  0  0  0  0  0
    0.7720   18.5581   -2.0111 H   0  0  0  0  0  0  0  0  0  0  0  0
   -0.9831   16.3094   -2.1820 H   0  0  0  0  0  0  0  0  0  0  0  0
    0.3635   16.5968   -3.2808 H   0  0  0  0  0  0  0  0  0  0  0  0
    0.5135   15.1314    0.5909 H   0  0  0  0  0  0  0  0  0  0  0  0
   -0.9724   15.4345   -0.3719 H   0  0  0  0  0  0  0  0  0  0  0  0
   -0.2192   13.8037   -0.3719 H   0  0  0  0  0  0  0  0  0  0  0  0
    1.6392   14.5397   -3.3578 H   0  0  0  0  0  0  0  0  0  0  0  0
   -0.8890   14.0890   -3.1500 H   0  0  0  0  0  0  0  0  0  0  0  0
    0.2255   12.8922   -3.9957 H   0  0  0  0  0  0  0  0  0  0  0  0
   -1.6144   11.8577   -2.4189 H   0  0  0  0  0  0  0  0  0  0  0  0
    1.4942   12.5751    0.0551 H   0  0  0  0  0  0  0  0  0  0  0  0
    2.4192   10.1895   -1.6627 H   0  0  0  0  0  0  0  0  0  0  0  0
    3.3639   11.0202   -0.3485 H   0  0  0  0  0  0  0  0  0  0  0  0
    2.3935    8.8735    0.4098 H   0  0  0  0  0  0  0  0  0  0  0  0
    1.7459   10.2989    1.3125 H   0  0  0  0  0  0  0  0  0  0  0  0
   -0.0697    8.8114    0.8147 H   0  0  0  0  0  0  0  0  0  0  0  0
   -0.4800    8.1550   -1.3170 H   0  0  0  0  0  0  0  0  0  0  0  0
   -0.6000   10.6130    1.9235 H   0  0  0  0  0  0  0  0  0  0  0  0
   -0.2900   12.2144    1.1711 H   0  0  0  0  0  0  0  0  0  0  0  0
   -1.9501   11.5283    1.1711 H   0  0  0  0  0  0  0  0  0  0  0  0
   -2.5965    9.8063    0.0966 H   0  0  0  0  0  0  0  0  0  0  0  0
   -2.4515   10.8289   -1.3731 H   0  0  0  0  0  0  0  0  0  0  0  0
   -1.7928    9.1577   -1.3731 H   0  0  0  0  0  0  0  0  0  0  0  0
    3.4786   11.4751   -2.7276 H   0  0  0  0  0  0  0  0  0  0  0  0
    2.0197   11.8406   -3.7097 H   0  0  0  0  0  0  0  0  0  0  0  0
    3.4103   12.9776   -3.7097 H   0  0  0  0  0  0  0  0  0  0  0  0
    3.8399   13.0360   -0.4571 H   0  0  0  0  0  0  0  0  0  0  0  0
    4.0640   14.0962   -1.9606 H   0  0  0  0  0  0  0  0  0  0  0  0
    2.4861   14.7492    0.5436 H   0  0  0  0  0  0  0  0  0  0  0  0
    3.9916   15.5328   -0.0781 H   0  0  0  0  0  0  0  0  0  0  0  0
    4.0040   16.9137   -2.0696 H   0  0  0  0  0  0  0  0  0  0  0  0
    3.3259   15.5586   -3.0342 H   0  0  0  0  0  0  0  0  0  0  0  0
    2.5085   17.1581   -3.0342 H   0  0  0  0  0  0  0  0  0  0  0  0
  1  2  1  0
  2  3  1  0
  3  4  1  0
  4  5  1  0
  5  6  1  0
  6  7  1  0
  7  8  1  0
  7  9  1  0
  2 10  1  0
 10 11  1  0
 11 12  1  0
 12 13  1  0
 13 14  1  1
 13 15  1  0
 15 16  1  0
 16 17  1  0
 17 18  2  0
 18 19  1  0
 19 20  1  0
 20 21  1  0
 21 22  1  0
 22 23  1  0
 22 24  1  0
 24 25  1  0
 24 26  1  0
 19 27  1  0
 27 28  1  6
 27 29  1  0
 29 30  1  0
 30 31  1  0
 31 32  1  6
  7  5  1  0
 31 10  1  0
 31 13  1  0
 27 15  1  0
 24 18  1  0
  1 33  1  0
  1 34  1  0
  1 35  1  0
  2 36  1  6
  3 37  1  0
  3 38  1  0
  4 39  1  0
  4 40  1  0
  5 41  1  6
  8 42  1  0
  8 43  1  0
  8 44  1  0
  9 45  1  0
  9 46  1  0
  9 47  1  0
 10 48  1  1
 11 49  1  0
 11 50  1  0
 12 51  1  0
 12 52  1  0
 14 53  1  0
 14 54  1  0
 14 55  1  0
 15 56  1  6
 16 57  1  0
 16 58  1  0
 17 59  1  0
 19 60  1  1
 20 61  1  0
 20 62  1  0
 21 63  1  0
 21 64  1  0
 22 65  1  1
 23 66  1  0
 25 67  1  0
 25 68  1  0
 25 69  1  0
 26 70  1  0
 26 71  1  0
 26 72  1  0
 28 73  1  0
 28 74  1  0
 28 75  1  0
 29 76  1  0
 29 77  1  0
 30 78  1  0
 30 79  1  0
 32 80  1  0
 32 81  1  0
 32 82  1  0
M  END
>  <meeko>  (6) 
{"is_sidechain": [false], "intermolecular_energy": 2.731, "internal_energy": -0.839}

$$$$
EPH_relaxed_0001_pdb2pqr_Repair_408_r2_0001_out
     RDKit          3D

 82 86  0  0  0  0  0  0  0  0999 V2000
    2.9600   12.3340   -5.4970 C   0  0  0  0  0  0  0  0  0  0  0  0
    1.5600   12.9460   -5.3980 C   0  0  2  0  0  0  0  0  0  0  0  0
    1.4950   14.3520   -6.0290 C   0  0  0  0  0  0  0  0  0  0  0  0
    0.6330   14.4200   -7.2920 C   0  0  0  0  0  0  0  0  0  0  0  0
    0.7180   15.7650   -7.9490 C   0  0  2  0  0  0  0  0  0  0  0  0
    0.1430   15.8280   -9.2610 O   0  0  0  0  0  0  0  0  0  0  0  0
    1.5610   16.0440   -9.1790 C   0  0  0  0  0  0  0  0  0  0  0  0
    2.3790   14.9700   -9.8240 C   0  0  0  0  0  0  0  0  0  0  0  0
    1.9730   17.4560   -9.4590 C   0  0  0  0  0  0  0  0  0  0  0  0
    1.1210   13.0090   -3.9400 C   0  0  1  0  0  0  0  0  0  0  0  0
   -0.3010   13.6060   -3.7690 C   0  0  0  0  0  0  0  0  0  0  0  0
   -0.9590   12.8610   -2.5780 C   0  0  0  0  0  0  0  0  0  0  0  0
    0.2070   12.1050   -1.8990 C   0  0  1  0  0  0  0  0  0  0  0  0
    0.9110   13.1740   -1.0050 C   0  0  0  0  0  0  0  0  0  0  0  0
   -0.1800   10.8310   -1.0800 C   0  0  2  0  0  0  0  0  0  0  0  0
   -1.0990   11.0860    0.1270 C   0  0  0  0  0  0  0  0  0  0  0  0
   -0.3980   11.3600    1.4170 C   0  0  0  0  0  0  0  0  0  0  0  0
    0.9030   11.1210    1.6660 C   0  0  0  0  0  0  0  0  0  0  0  0
    1.7900   10.4280    0.6230 C   0  0  1  0  0  0  0  0  0  0  0  0
    2.6240    9.3160    1.3100 C   0  0  0  0  0  0  0  0  0  0  0  0
    3.4210    9.8340    2.5030 C   0  0  0  0  0  0  0  0  0  0  0  0
    2.4990   10.4630    3.5440 C   0  0  2  0  0  0  0  0  0  0  0  0
    1.6770    9.4390    4.1110 O   0  0  0  0  0  0  0  0  0  0  0  0
    1.6020   11.5930    2.9650 C   0  0  0  0  0  0  0  0  0  0  0  0
    2.4720   12.8280    2.6270 C   0  0  0  0  0  0  0  0  0  0  0  0
    0.6220   12.0440    4.0810 C   0  0  0  0  0  0  0  0  0  0  0  0
    1.0500    9.9160   -0.6860 C   0  0  1  0  0  0  0  0  0  0  0  0
    0.4800    8.4830   -0.4490 C   0  0  0  0  0  0  0  0  0  0  0  0
    2.0990    9.7880   -1.8540 C   0  0  0  0  0  0  0  0  0  0  0  0
    2.3490   11.0490   -2.7030 C   0  0  0  0  0  0  0  0  0  0  0  0
    1.0280   11.6690   -3.1670 C   0  0  2  0  0  0  0  0  0  0  0  0
    0.3070   10.6250   -4.0870 C   0  0  0  0  0  0  0  0  0  0  0  0
    3.3567   12.1606   -4.4858 H   0  0  0  0  0  0  0  0  0  0  0  0
    2.9048   11.3779   -6.0382 H   0  0  0  0  0  0  0  0  0  0  0  0
    3.6243   13.0238   -6.0382 H   0  0  0  0  0  0  0  0  0  0  0  0
    0.8752   12.2975   -5.9642 H   0  0  0  0  0  0  0  0  0  0  0  0
    1.0776   15.0473   -5.2858 H   0  0  0  0  0  0  0  0  0  0  0  0
    2.5202   14.6196   -6.3246 H   0  0  0  0  0  0  0  0  0  0  0  0
    0.9791   13.6540   -8.0016 H   0  0  0  0  0  0  0  0  0  0  0  0
   -0.4138   14.2449   -7.0028 H   0  0  0  0  0  0  0  0  0  0  0  0
    0.6439   16.2711   -6.9752 H   0  0  0  0  0  0  0  0  0  0  0  0
    2.8504   14.3511   -9.0463 H   0  0  0  0  0  0  0  0  0  0  0  0
    1.7295   14.3404  -10.4500 H   0  0  0  0  0  0  0  0  0  0  0  0
    3.1585   15.4288  -10.4500 H   0  0  0  0  0  0  0  0  0  0  0  0
    2.1282   17.9880   -8.5088 H   0  0  0  0  0  0  0  0  0  0  0  0
    2.9089   17.4571  -10.0370 H   0  0  0  0  0  0  0  0  0  0  0  0
    1.1845   17.9603  -10.0370 H   0  0  0  0  0  0  0  0  0  0  0  0
    1.9345   13.6250   -3.5291 H   0  0  0  0  0  0  0  0  0  0  0  0
   -0.2363   14.6827   -3.5532 H   0  0  0  0  0  0  0  0  0  0  0  0
   -0.8938   13.4836   -4.6875 H   0  0  0  0  0  0  0  0  0  0  0  0
   -1.4181   13.5755   -1.8789 H   0  0  0  0  0  0  0  0  0  0  0  0
   -1.7628   12.1837   -2.9022 H   0  0  0  0  0  0  0  0  0  0  0  0
    0.7497   12.9291    0.0552 H   0  0  0  0  0  0  0  0  0  0  0  0
    1.9897   13.1790   -1.2202 H   0  0  0  0  0  0  0  0  0  0  0  0
    0.4895   14.1670   -1.2202 H   0  0  0  0  0  0  0  0  0  0  0  0
   -0.7845   10.2612   -1.8011 H   0  0  0  0  0  0  0  0  0  0  0  0
   -1.7330   11.9541   -0.1062 H   0  0  0  0  0  0  0  0  0  0  0  0
   -1.6647   10.1552    0.2803 H   0  0  0  0  0  0  0  0  0  0  0  0
   -0.9954   11.7938    2.2325 H   0  0  0  0  0  0  0  0  0  0  0  0
    2.4596   11.2060    0.2277 H   0  0  0  0  0  0  0  0  0  0  0  0
    1.9408    8.5273    1.6582 H   0  0  0  0  0  0  0  0  0  0  0  0
    3.3422    8.9326    0.5703 H   0  0  0  0  0  0  0  0  0  0  0  0
    3.9651    8.9962    2.9635 H   0  0  0  0  0  0  0  0  0  0  0  0
    4.1248   10.6014    2.1482 H   0  0  0  0  0  0  0  0  0  0  0  0
    3.1361   10.9298    4.3097 H   0  0  0  0  0  0  0  0  0  0  0  0
    0.8890    9.8670    4.4850 H   0  0  0  0  0  0  0  0  0  0  0  0
    2.8085   13.3056    3.5590 H   0  0  0  0  0  0  0  0  0  0  0  0
    3.3471   12.5107    2.0409 H   0  0  0  0  0  0  0  0  0  0  0  0
    1.8786   13.5452    2.0409 H   0  0  0  0  0  0  0  0  0  0  0  0
    1.0679   11.8388    5.0654 H   0  0  0  0  0  0  0  0  0  0  0  0
    0.4273   13.1223    3.9842 H   0  0  0  0  0  0  0  0  0  0  0  0
   -0.3237   11.4905    3.9842 H   0  0  0  0  0  0  0  0  0  0  0  0
    0.4043    8.2926    0.6318 H   0  0  0  0  0  0  0  0  0  0  0  0
   -0.5176    8.4050   -0.9058 H   0  0  0  0  0  0  0  0  0  0  0  0
    1.1515    7.7411   -0.9058 H   0  0  0  0  0  0  0  0  0  0  0  0
    3.0596    9.4912   -1.4078 H   0  0  0  0  0  0  0  0  0  0  0  0
    1.6678    9.0530   -2.5495 H   0  0  0  0  0  0  0  0  0  0  0  0
    2.8997   11.7856   -2.0995 H   0  0  0  0  0  0  0  0  0  0  0  0
    2.9331   10.7638   -3.5904 H   0  0  0  0  0  0  0  0  0  0  0  0
   -0.2076    9.8798   -3.4626 H   0  0  0  0  0  0  0  0  0  0  0  0
   -0.4277   11.1416   -4.7220 H   0  0  0  0  0  0  0  0  0  0  0  0
    1.0503   10.1208   -4.7220 H   0  0  0  0  0  0  0  0  0  0  0  0
  1  2  1  0
  2  3  1  0
  3  4  1  0
  4  5  1  0
  5  6  1  0
  6  7  1  0
  7  8  1  0
  7  9  1  0
  2 10  1  0
 10 11  1  0
 11 12  1  0
 12 13  1  0
 13 14  1  1
 13 15  1  0
 15 16  1  0
 16 17  1  0
 17 18  2  0
 18 19  1  0
 19 20  1  0
 20 21  1  0
 21 22  1  0
 22 23  1  0
 22 24  1  0
 24 25  1  0
 24 26  1  0
 19 27  1  0
 27 28  1  1
 27 29  1  0
 29 30  1  0
 30 31  1  0
 31 32  1  6
  7  5  1  0
 31 10  1  0
 31 13  1  0
 27 15  1  0
 24 18  1  0
  1 33  1  0
  1 34  1  0
  1 35  1  0
  2 36  1  6
  3 37  1  0
  3 38  1  0
  4 39  1  0
  4 40  1  0
  5 41  1  1
  8 42  1  0
  8 43  1  0
  8 44  1  0
  9 45  1  0
  9 46  1  0
  9 47  1  0
 10 48  1  1
 11 49  1  0
 11 50  1  0
 12 51  1  0
 12 52  1  0
 14 53  1  0
 14 54  1  0
 14 55  1  0
 15 56  1  6
 16 57  1  0
 16 58  1  0
 17 59  1  0
 19 60  1  6
 20 61  1  0
 20 62  1  0
 21 63  1  0
 21 64  1  0
 22 65  1  1
 23 66  1  0
 25 67  1  0
 25 68  1  0
 25 69  1  0
 26 70  1  0
 26 71  1  0
 26 72  1  0
 28 73  1  0
 28 74  1  0
 28 75  1  0
 29 76  1  0
 29 77  1  0
 30 78  1  0
 30 79  1  0
 32 80  1  0
 32 81  1  0
 32 82  1  0
M  END
>  <meeko>  (7) 
{"is_sidechain": [false], "intermolecular_energy": 2.731, "internal_energy": -0.839}

$$$$
EPH_relaxed_0001_pdb2pqr_Repair_408_r2_0001_out
     RDKit          3D

 82 86  0  0  0  0  0  0  0  0999 V2000
   -2.1710    9.8930   -0.7330 C   0  0  0  0  0  0  0  0  0  0  0  0
   -0.8160   10.2540   -1.3490 C   0  0  2  0  0  0  0  0  0  0  0  0
    0.2240    9.1310   -1.1650 C   0  0  0  0  0  0  0  0  0  0  0  0
    0.6120    8.8840    0.2950 C   0  0  0  0  0  0  0  0  0  0  0  0
    2.0830    8.6380    0.4440 C   0  0  2  0  0  0  0  0  0  0  0  0
    2.4410    7.8080    1.5560 O   0  0  0  0  0  0  0  0  0  0  0  0
    2.9060    9.1670    1.6030 C   0  0  0  0  0  0  0  0  0  0  0  0
    2.2860    9.9850    2.6920 C   0  0  0  0  0  0  0  0  0  0  0  0
    4.3860    9.3040    1.4260 C   0  0  0  0  0  0  0  0  0  0  0  0
   -0.2970   11.5510   -0.7380 C   0  0  1  0  0  0  0  0  0  0  0  0
    0.8470   11.3130    0.2830 C   0  0  0  0  0  0  0  0  0  0  0  0
    1.8220   12.5110    0.1500 C   0  0  0  0  0  0  0  0  0  0  0  0
    1.0470   13.5520   -0.6920 C   0  0  1  0  0  0  0  0  0  0  0  0
    0.1050   14.2690    0.3250 C   0  0  0  0  0  0  0  0  0  0  0  0
    1.9150   14.5750   -1.4950 C   0  0  2  0  0  0  0  0  0  0  0  0
    2.7970   15.4980   -0.6360 C   0  0  0  0  0  0  0  0  0  0  0  0
    2.1630   16.7860   -0.2260 C   0  0  0  0  0  0  0  0  0  0  0  0
    1.0470   17.3150   -0.7640 C   0  0  0  0  0  0  0  0  0  0  0  0
    0.3590   16.6490   -1.9620 C   0  0  1  0  0  0  0  0  0  0  0  0
    0.0170   17.7250   -3.0260 C   0  0  0  0  0  0  0  0  0  0  0  0
   -0.8000   18.8780   -2.4500 C   0  0  0  0  0  0  0  0  0  0  0  0
   -0.0570   19.5510   -1.2990 C   0  0  2  0  0  0  0  0  0  0  0  0
    1.1110   20.1940   -1.8180 O   0  0  0  0  0  0  0  0  0  0  0  0
    0.3490   18.5630   -0.1700 C   0  0  0  0  0  0  0  0  0  0  0  0
   -0.9160   18.0950    0.5920 C   0  0  0  0  0  0  0  0  0  0  0  0
    1.2120   19.3410    0.8590 C   0  0  0  0  0  0  0  0  0  0  0  0
    1.1100   15.3940   -2.5840 C   0  0  1  0  0  0  0  0  0  0  0  0
    2.1510   15.8670   -3.6440 C   0  0  0  0  0  0  0  0  0  0  0  0
    0.0670   14.5000   -3.3540 C   0  0  0  0  0  0  0  0  0  0  0  0
   -0.6710   13.4280   -2.5300 C   0  0  0  0  0  0  0  0  0  0  0  0
    0.3140   12.5970   -1.7030 C   0  0  2  0  0  0  0  0  0  0  0  0
    1.2620   11.8460   -2.7000 C   0  0  0  0  0  0  0  0  0  0  0  0
   -2.0923    9.9140    0.3640 H   0  0  0  0  0  0  0  0  0  0  0  0
   -2.9281   10.6208   -1.0603 H   0  0  0  0  0  0  0  0  0  0  0  0
   -2.4657    8.8850   -1.0603 H   0  0  0  0  0  0  0  0  0  0  0  0
   -0.9688   10.3871   -2.4302 H   0  0  0  0  0  0  0  0  0  0  0  0
   -0.1941    8.2000   -1.5754 H   0  0  0  0  0  0  0  0  0  0  0  0
    1.1365    9.4491   -1.6905 H   0  0  0  0  0  0  0  0  0  0  0  0
    0.3360    9.7662    0.8913 H   0  0  0  0  0  0  0  0  0  0  0  0
    0.0775    7.9885    0.6449 H   0  0  0  0  0  0  0  0  0  0  0  0
    2.2259    8.6881   -0.6455 H   0  0  0  0  0  0  0  0  0  0  0  0
    2.5900    9.5840    3.6702 H   0  0  0  0  0  0  0  0  0  0  0  0
    2.6219   11.0287    2.6032 H   0  0  0  0  0  0  0  0  0  0  0  0
    1.1904    9.9436    2.6032 H   0  0  0  0  0  0  0  0  0  0  0  0
    4.8707    9.3489    2.4125 H   0  0  0  0  0  0  0  0  0  0  0  0
    4.7703    8.4376    0.8677 H   0  0  0  0  0  0  0  0  0  0  0  0
    4.6047   10.2262    0.8677 H   0  0  0  0  0  0  0  0  0  0  0  0
   -1.2313   11.9390   -0.3061 H   0  0  0  0  0  0  0  0  0  0  0  0
    0.4401   11.2674    1.3039 H   0  0  0  0  0  0  0  0  0  0  0  0
    1.3616   10.3612    0.0847 H   0  0  0  0  0  0  0  0  0  0  0  0
    2.0718   12.9204    1.1400 H   0  0  0  0  0  0  0  0  0  0  0  0
    2.7758   12.2233   -0.3164 H   0  0  0  0  0  0  0  0  0  0  0  0
    0.4214   14.0281    1.3506 H   0  0  0  0  0  0  0  0  0  0  0  0
    0.1588   15.3568    0.1706 H   0  0  0  0  0  0  0  0  0  0  0  0
   -0.9292   13.9274    0.1706 H   0  0  0  0  0  0  0  0  0  0  0  0
    2.6103   13.9187   -2.0389 H   0  0  0  0  0  0  0  0  0  0  0  0
    3.0744   14.9501    0.2766 H   0  0  0  0  0  0  0  0  0  0  0  0
    3.6571   15.7693   -1.2658 H   0  0  0  0  0  0  0  0  0  0  0  0
    2.6481   17.3507    0.5838 H   0  0  0  0  0  0  0  0  0  0  0  0
   -0.5669   16.2021   -1.5708 H   0  0  0  0  0  0  0  0  0  0  0  0
    0.9555   18.1275   -3.4349 H   0  0  0  0  0  0  0  0  0  0  0  0
   -0.5901   17.2424   -3.8060 H   0  0  0  0  0  0  0  0  0  0  0  0
   -0.9847   19.6191   -3.2416 H   0  0  0  0  0  0  0  0  0  0  0  0
   -1.7510   18.4782   -2.0682 H   0  0  0  0  0  0  0  0  0  0  0  0
   -0.7440   20.2803   -0.8450 H   0  0  0  0  0  0  0  0  0  0  0  0
    1.7130   19.5000   -2.1360 H   0  0  0  0  0  0  0  0  0  0  0  0
   -0.7370   18.1612    1.6753 H   0  0  0  0  0  0  0  0  0  0  0  0
   -1.7663   18.7381    0.3209 H   0  0  0  0  0  0  0  0  0  0  0  0
   -1.1430   17.0534    0.3209 H   0  0  0  0  0  0  0  0  0  0  0  0
    0.9052   19.0644    1.8785 H   0  0  0  0  0  0  0  0  0  0  0  0
    2.2726   19.0879    0.7139 H   0  0  0  0  0  0  0  0  0  0  0  0
    1.0698   20.4221    0.7139 H   0  0  0  0  0  0  0  0  0  0  0  0
    3.0377   16.2699   -3.1327 H   0  0  0  0  0  0  0  0  0  0  0  0
    2.4464   15.0147   -4.2736 H   0  0  0  0  0  0  0  0  0  0  0  0
    1.7033   16.6501   -4.2736 H   0  0  0  0  0  0  0  0  0  0  0  0
   -0.6920   15.1699   -3.7844 H   0  0  0  0  0  0  0  0  0  0  0  0
    0.6585   13.9389   -4.0924 H   0  0  0  0  0  0  0  0  0  0  0  0
   -1.3826   13.9221   -1.8521 H   0  0  0  0  0  0  0  0  0  0  0  0
   -1.2007   12.7570   -3.2222 H   0  0  0  0  0  0  0  0  0  0  0  0
    2.0009   11.2607   -2.1330 H   0  0  0  0  0  0  0  0  0  0  0  0
    0.6675   11.1711   -3.3334 H   0  0  0  0  0  0  0  0  0  0  0  0
    1.7829   12.5791   -3.3334 H   0  0  0  0  0  0  0  0  0  0  0  0
  1  2  1  0
  2  3  1  0
  3  4  1  0
  4  5  1  0
  5  6  1  0
  6  7  1  0
  7  8  1  0
  7  9  1  0
  2 10  1  0
 10 11  1  0
 11 12  1  0
 12 13  1  0
 13 14  1  1
 13 15  1  0
 15 16  1  0
 16 17  1  0
 17 18  2  0
 18 19  1  0
 19 20  1  0
 20 21  1  0
 21 22  1  0
 22 23  1  0
 22 24  1  0
 24 25  1  0
 24 26  1  0
 19 27  1  0
 27 28  1  6
 27 29  1  0
 29 30  1  0
 30 31  1  0
 31 32  1  6
  7  5  1  0
 31 10  1  0
 31 13  1  0
 27 15  1  0
 24 18  1  0
  1 33  1  0
  1 34  1  0
  1 35  1  0
  2 36  1  6
  3 37  1  0
  3 38  1  0
  4 39  1  0
  4 40  1  0
  5 41  1  6
  8 42  1  0
  8 43  1  0
  8 44  1  0
  9 45  1  0
  9 46  1  0
  9 47  1  0
 10 48  1  1
 11 49  1  0
 11 50  1  0
 12 51  1  0
 12 52  1  0
 14 53  1  0
 14 54  1  0
 14 55  1  0
 15 56  1  6
 16 57  1  0
 16 58  1  0
 17 59  1  0
 19 60  1  1
 20 61  1  0
 20 62  1  0
 21 63  1  0
 21 64  1  0
 22 65  1  1
 23 66  1  0
 25 67  1  0
 25 68  1  0
 25 69  1  0
 26 70  1  0
 26 71  1  0
 26 72  1  0
 28 73  1  0
 28 74  1  0
 28 75  1  0
 29 76  1  0
 29 77  1  0
 30 78  1  0
 30 79  1  0
 32 80  1  0
 32 81  1  0
 32 82  1  0
M  END
>  <meeko>  (8) 
{"is_sidechain": [false], "intermolecular_energy": 2.731, "internal_energy": -0.839}

$$$$
EPH_relaxed_0001_pdb2pqr_Repair_408_r2_0001_out
     RDKit          3D

 82 86  0  0  0  0  0  0  0  0999 V2000
   -5.2910    5.7240   -1.6220 C   0  0  0  0  0  0  0  0  0  0  0  0
   -5.5100    7.2260   -1.8270 C   0  0  2  0  0  0  0  0  0  0  0  0
   -5.2120    8.0360   -0.5500 C   0  0  0  0  0  0  0  0  0  0  0  0
   -4.2030    9.1680   -0.7620 C   0  0  0  0  0  0  0  0  0  0  0  0
   -2.8190    8.7600   -0.3560 C   0  0  2  0  0  0  0  0  0  0  0  0
   -2.2620    9.5220    0.7230 O   0  0  0  0  0  0  0  0  0  0  0  0
   -1.5980    9.6410   -0.5460 C   0  0  0  0  0  0  0  0  0  0  0  0
   -1.7040   10.9990   -1.1640 C   0  0  0  0  0  0  0  0  0  0  0  0
   -0.2480    8.9940   -0.5820 C   0  0  0  0  0  0  0  0  0  0  0  0
   -6.9410    7.4840   -2.2860 C   0  0  1  0  0  0  0  0  0  0  0  0
   -7.2720    6.7870   -3.6320 C   0  0  0  0  0  0  0  0  0  0  0  0
   -8.7580    6.3510   -3.5570 C   0  0  0  0  0  0  0  0  0  0  0  0
   -9.3200    7.0960   -2.3240 C   0  0  1  0  0  0  0  0  0  0  0  0
   -9.6380    8.5360   -2.8350 C   0  0  0  0  0  0  0  0  0  0  0  0
  -10.5600    6.4440   -1.6290 C   0  0  2  0  0  0  0  0  0  0  0  0
  -11.8210    6.3430   -2.5040 C   0  0  0  0  0  0  0  0  0  0  0  0
  -12.7460    7.5130   -2.4270 C   0  0  0  0  0  0  0  0  0  0  0  0
  -12.7210    8.4680   -1.4790 C   0  0  0  0  0  0  0  0  0  0  0  0
  -11.7530    8.3760   -0.2930 C   0  0  1  0  0  0  0  0  0  0  0  0
  -12.5150    8.6840    1.0230 C   0  0  0  0  0  0  0  0  0  0  0  0
  -13.2520   10.0190    0.9730 C   0  0  0  0  0  0  0  0  0  0  0  0
  -14.2470   10.0500   -0.1840 C   0  0  2  0  0  0  0  0  0  0  0  0
  -15.2870    9.1030    0.0760 O   0  0  0  0  0  0  0  0  0  0  0  0
  -13.5940    9.7440   -1.5610 C   0  0  0  0  0  0  0  0  0  0  0  0
  -12.6880   10.9270   -1.9820 C   0  0  0  0  0  0  0  0  0  0  0  0
  -14.7280    9.6680   -2.6200 C   0  0  0  0  0  0  0  0  0  0  0  0
  -10.8930    7.0420   -0.2020 C   0  0  1  0  0  0  0  0  0  0  0  0
  -11.6910    5.9450    0.5660 C   0  0  0  0  0  0  0  0  0  0  0  0
   -9.5960    7.3240    0.6460 C   0  0  0  0  0  0  0  0  0  0  0  0
   -8.3680    7.8540   -0.1170 C   0  0  0  0  0  0  0  0  0  0  0  0
   -8.0830    7.0020   -1.3580 C   0  0  2  0  0  0  0  0  0  0  0  0
   -7.7390    5.5520   -0.8730 C   0  0  0  0  0  0  0  0  0  0  0  0
   -5.2586    5.5018   -0.5452 H   0  0  0  0  0  0  0  0  0  0  0  0
   -6.1173    5.1662   -2.0868 H   0  0  0  0  0  0  0  0  0  0  0  0
   -4.3398    5.4253   -2.0868 H   0  0  0  0  0  0  0  0  0  0  0  0
   -4.8046    7.5609   -2.6017 H   0  0  0  0  0  0  0  0  0  0  0  0
   -6.1542    8.4735   -0.1882 H   0  0  0  0  0  0  0  0  0  0  0  0
   -4.7671    7.3399    0.1763 H   0  0  0  0  0  0  0  0  0  0  0  0
   -4.1954    9.4440   -1.8268 H   0  0  0  0  0  0  0  0  0  0  0  0
   -4.5069   10.0200   -0.1362 H   0  0  0  0  0  0  0  0  0  0  0  0
   -3.0230    7.7133   -0.6257 H   0  0  0  0  0  0  0  0  0  0  0  0
   -1.7633   11.7591   -0.3711 H   0  0  0  0  0  0  0  0  0  0  0  0
   -0.8179   11.1882   -1.7877 H   0  0  0  0  0  0  0  0  0  0  0  0
   -2.6087   11.0484   -1.7877 H   0  0  0  0  0  0  0  0  0  0  0  0
    0.1050    8.8248    0.4460 H   0  0  0  0  0  0  0  0  0  0  0  0
   -0.3168    8.0310   -1.1092 H   0  0  0  0  0  0  0  0  0  0  0  0
    0.4595    9.6509   -1.1092 H   0  0  0  0  0  0  0  0  0  0  0  0
   -6.9264    8.5832   -2.3248 H   0  0  0  0  0  0  0  0  0  0  0  0
   -7.1245    7.4872   -4.4674 H   0  0  0  0  0  0  0  0  0  0  0  0
   -6.6146    5.9213   -3.8004 H   0  0  0  0  0  0  0  0  0  0  0  0
   -9.2965    6.6478   -4.4691 H   0  0  0  0  0  0  0  0  0  0  0  0
   -8.8694    5.2599   -3.4723 H   0  0  0  0  0  0  0  0  0  0  0  0
   -9.7859    9.2059   -1.9751 H   0  0  0  0  0  0  0  0  0  0  0  0
   -8.7991    8.9022   -3.4450 H   0  0  0  0  0  0  0  0  0  0  0  0
  -10.5531    8.5148   -3.4450 H   0  0  0  0  0  0  0  0  0  0  0  0
  -10.2231    5.4089   -1.4705 H   0  0  0  0  0  0  0  0  0  0  0  0
  -11.5006    6.2312   -3.5504 H   0  0  0  0  0  0  0  0  0  0  0  0
  -12.3880    5.4810   -2.1225 H   0  0  0  0  0  0  0  0  0  0  0  0
  -13.5123    7.6017   -3.2112 H   0  0  0  0  0  0  0  0  0  0  0  0
  -10.9846    9.1435   -0.4676 H   0  0  0  0  0  0  0  0  0  0  0  0
  -13.2476    7.8832    1.2021 H   0  0  0  0  0  0  0  0  0  0  0  0
  -11.7730    8.7421    1.8330 H   0  0  0  0  0  0  0  0  0  0  0  0
  -13.7946   10.1662    1.9185 H   0  0  0  0  0  0  0  0  0  0  0  0
  -12.5148   10.8216    0.8235 H   0  0  0  0  0  0  0  0  0  0  0  0
  -14.6481   11.0724   -0.2467 H   0  0  0  0  0  0  0  0  0  0  0  0
  -15.5580    9.2110    1.0040 H   0  0  0  0  0  0  0  0  0  0  0  0
  -12.3020   11.4310   -1.0837 H   0  0  0  0  0  0  0  0  0  0  0  0
  -11.8461   10.5491   -2.5807 H   0  0  0  0  0  0  0  0  0  0  0  0
  -13.2722   11.6413   -2.5807 H   0  0  0  0  0  0  0  0  0  0  0  0
  -15.7011    9.6028   -2.1112 H   0  0  0  0  0  0  0  0  0  0  0  0
  -14.7030   10.5698   -3.2493 H   0  0  0  0  0  0  0  0  0  0  0  0
  -14.5829    8.7776   -3.2493 H   0  0  0  0  0  0  0  0  0  0  0  0
  -11.5781    6.1002    1.6491 H   0  0  0  0  0  0  0  0  0  0  0  0
  -12.7553    6.0087    0.2954 H   0  0  0  0  0  0  0  0  0  0  0  0
  -11.3027    4.9520    0.2954 H   0  0  0  0  0  0  0  0  0  0  0  0
   -9.8561    8.0668    1.4145 H   0  0  0  0  0  0  0  0  0  0  0  0
   -9.2896    6.3427    1.0374 H   0  0  0  0  0  0  0  0  0  0  0  0
   -8.5585    8.8915   -0.4289 H   0  0  0  0  0  0  0  0  0  0  0  0
   -7.4940    7.8063    0.5492 H   0  0  0  0  0  0  0  0  0  0  0  0
   -7.7326    5.5250    0.2267 H   0  0  0  0  0  0  0  0  0  0  0  0
   -8.4954    4.8493   -1.2526 H   0  0  0  0  0  0  0  0  0  0  0  0
   -6.7476    5.2639   -1.2526 H   0  0  0  0  0  0  0  0  0  0  0  0
  1  2  1  0
  2  3  1  0
  3  4  1  0
  4  5  1  0
  5  6  1  0
  6  7  1  0
  7  8  1  0
  7  9  1  0
  2 10  1  0
 10 11  1  0
 11 12  1  0
 12 13  1  0
 13 14  1  6
 13 15  1  0
 15 16  1  0
 16 17  1  0
 17 18  2  0
 18 19  1  0
 19 20  1  0
 20 21  1  0
 21 22  1  0
 22 23  1  0
 22 24  1  0
 24 25  1  0
 24 26  1  0
 19 27  1  0
 27 28  1  1
 27 29  1  0
 29 30  1  0
 30 31  1  0
 31 32  1  1
  7  5  1  0
 31 10  1  0
 31 13  1  0
 27 15  1  0
 24 18  1  0
  1 33  1  0
  1 34  1  0
  1 35  1  0
  2 36  1  6
  3 37  1  0
  3 38  1  0
  4 39  1  0
  4 40  1  0
  5 41  1  1
  8 42  1  0
  8 43  1  0
  8 44  1  0
  9 45  1  0
  9 46  1  0
  9 47  1  0
 10 48  1  6
 11 49  1  0
 11 50  1  0
 12 51  1  0
 12 52  1  0
 14 53  1  0
 14 54  1  0
 14 55  1  0
 15 56  1  1
 16 57  1  0
 16 58  1  0
 17 59  1  0
 19 60  1  6
 20 61  1  0
 20 62  1  0
 21 63  1  0
 21 64  1  0
 22 65  1  6
 23 66  1  0
 25 67  1  0
 25 68  1  0
 25 69  1  0
 26 70  1  0
 26 71  1  0
 26 72  1  0
 28 73  1  0
 28 74  1  0
 28 75  1  0
 29 76  1  0
 29 77  1  0
 30 78  1  0
 30 79  1  0
 32 80  1  0
 32 81  1  0
 32 82  1  0
M  END
>  <meeko>  (9) 
{"is_sidechain": [false], "intermolecular_energy": 2.731, "internal_energy": -0.839}

$$$$
EPH_relaxed_0001_pdb2pqr_Repair_408_r2_0001_out
     RDKit          3D

 82 86  0  0  0  0  0  0  0  0999 V2000
    1.6920   12.9340   -6.1010 C   0  0  0  0  0  0  0  0  0  0  0  0
    0.8580   13.8200   -5.1710 C   0  0  2  0  0  0  0  0  0  0  0  0
    0.9720   15.3140   -5.5350 C   0  0  0  0  0  0  0  0  0  0  0  0
    0.7470   15.6040   -7.0220 C   0  0  0  0  0  0  0  0  0  0  0  0
    2.0110   15.4550   -7.8130 C   0  0  2  0  0  0  0  0  0  0  0  0
    2.4020   16.6250   -8.5430 O   0  0  0  0  0  0  0  0  0  0  0  0
    2.0560   15.4730   -9.3300 C   0  0  0  0  0  0  0  0  0  0  0  0
    0.8120   15.6450  -10.1450 C   0  0  0  0  0  0  0  0  0  0  0  0
    3.2240   14.8410  -10.0190 C   0  0  0  0  0  0  0  0  0  0  0  0
    1.2860   13.6020   -3.7250 C   0  0  1  0  0  0  0  0  0  0  0  0
    1.2580   14.9100   -2.8900 C   0  0  0  0  0  0  0  0  0  0  0  0
    0.8260   14.5150   -1.4540 C   0  0  0  0  0  0  0  0  0  0  0  0
    0.9430   12.9730   -1.4220 C   0  0  1  0  0  0  0  0  0  0  0  0
    2.4590   12.6900   -1.1800 C   0  0  0  0  0  0  0  0  0  0  0  0
    0.0440   12.2330   -0.3790 C   0  0  2  0  0  0  0  0  0  0  0  0
    0.3370   12.5750    1.0930 C   0  0  0  0  0  0  0  0  0  0  0  0
    1.3460   11.7010    1.7620 C   0  0  0  0  0  0  0  0  0  0  0  0
    1.7810   10.5140    1.3000 C   0  0  0  0  0  0  0  0  0  0  0  0
    1.1760    9.8910    0.0350 C   0  0  1  0  0  0  0  0  0  0  0  0
    0.8640    8.3930    0.2940 C   0  0  0  0  0  0  0  0  0  0  0  0
    2.0790    7.6220    0.8020 C   0  0  0  0  0  0  0  0  0  0  0  0
    2.6160    8.2370    2.0910 C   0  0  2  0  0  0  0  0  0  0  0  0
    1.6460    8.0540    3.1280 O   0  0  0  0  0  0  0  0  0  0  0  0
    2.9570    9.7470    1.9550 C   0  0  0  0  0  0  0  0  0  0  0  0
    4.2080    9.9190    1.0590 C   0  0  0  0  0  0  0  0  0  0  0  0
    3.3520   10.2760    3.3600 C   0  0  0  0  0  0  0  0  0  0  0  0
   -0.0540   10.6690   -0.6010 C   0  0  1  0  0  0  0  0  0  0  0  0
   -1.3820   10.2070    0.0730 C   0  0  0  0  0  0  0  0  0  0  0  0
   -0.1720   10.2880   -2.1240 C   0  0  0  0  0  0  0  0  0  0  0  0
    0.6480   11.1320   -3.1170 C   0  0  0  0  0  0  0  0  0  0  0  0
    0.4360   12.6290   -2.8700 C   0  0  2  0  0  0  0  0  0  0  0  0
   -1.0760   12.9470   -3.1280 C   0  0  0  0  0  0  0  0  0  0  0  0
    2.3233   12.2633   -5.4997 H   0  0  0  0  0  0  0  0  0  0  0  0
    1.0219   12.3356   -6.7356 H   0  0  0  0  0  0  0  0  0  0  0  0
    2.3298   13.5668   -6.7356 H   0  0  0  0  0  0  0  0  0  0  0  0
   -0.1959   13.5302   -5.2948 H   0  0  0  0  0  0  0  0  0  0  0  0
    0.2214   15.8711   -4.9550 H   0  0  0  0  0  0  0  0  0  0  0  0
    2.0003   15.6250   -5.2987 H   0  0  0  0  0  0  0  0  0  0  0  0
   -0.0032   14.9008   -7.4129 H   0  0  0  0  0  0  0  0  0  0  0  0
    0.4015   16.6437   -7.1202 H   0  0  0  0  0  0  0  0  0  0  0  0
    2.4202   14.7535   -7.0711 H   0  0  0  0  0  0  0  0  0  0  0  0
   -0.0519   15.7645   -9.4747 H   0  0  0  0  0  0  0  0  0  0  0  0
    0.9100   16.5381  -10.7796 H   0  0  0  0  0  0  0  0  0  0  0  0
    0.6639   14.7588  -10.7796 H   0  0  0  0  0  0  0  0  0  0  0  0
    3.9303   14.4588   -9.2673 H   0  0  0  0  0  0  0  0  0  0  0  0
    2.8728   14.0098  -10.6481 H   0  0  0  0  0  0  0  0  0  0  0  0
    3.7276   15.5897  -10.6481 H   0  0  0  0  0  0  0  0  0  0  0  0
    2.2877   13.1791   -3.8915 H   0  0  0  0  0  0  0  0  0  0  0  0
    2.2573   15.3694   -2.8720 H   0  0  0  0  0  0  0  0  0  0  0  0
    0.5610   15.6414   -3.3250 H   0  0  0  0  0  0  0  0  0  0  0  0
    1.4940   14.9707   -0.7083 H   0  0  0  0  0  0  0  0  0  0  0  0
   -0.1900   14.8615   -1.2137 H   0  0  0  0  0  0  0  0  0  0  0  0
    2.6570   12.6530   -0.0986 H   0  0  0  0  0  0  0  0  0  0  0  0
    2.7293   11.7259   -1.6354 H   0  0  0  0  0  0  0  0  0  0  0  0
    3.0589   13.4917   -1.6354 H   0  0  0  0  0  0  0  0  0  0  0  0
   -0.9528   12.6476   -0.5898 H   0  0  0  0  0  0  0  0  0  0  0  0
    0.7038   13.6112    1.1347 H   0  0  0  0  0  0  0  0  0  0  0  0
   -0.6074   12.4199    1.6353 H   0  0  0  0  0  0  0  0  0  0  0  0
    1.7696   12.0573    2.7126 H   0  0  0  0  0  0  0  0  0  0  0  0
    1.9446    9.9828   -0.7465 H   0  0  0  0  0  0  0  0  0  0  0  0
    0.0633    8.3242    1.0451 H   0  0  0  0  0  0  0  0  0  0  0  0
    0.5602    7.9446   -0.6634 H   0  0  0  0  0  0  0  0  0  0  0  0
    1.7884    6.5788    0.9948 H   0  0  0  0  0  0  0  0  0  0  0  0
    2.8679    7.6667    0.0367 H   0  0  0  0  0  0  0  0  0  0  0  0
    3.5585    7.7241    2.3330 H   0  0  0  0  0  0  0  0  0  0  0  0
    2.1230    7.7990    3.9360 H   0  0  0  0  0  0  0  0  0  0  0  0
    5.0988   10.0415    1.6926 H   0  0  0  0  0  0  0  0  0  0  0  0
    4.3293    9.0291    0.4239 H   0  0  0  0  0  0  0  0  0  0  0  0
    4.0846   10.8086    0.4239 H   0  0  0  0  0  0  0  0  0  0  0  0
    2.8837    9.6488    4.1329 H   0  0  0  0  0  0  0  0  0  0  0  0
    4.4457   10.2396    3.4713 H   0  0  0  0  0  0  0  0  0  0  0  0
    3.0064   11.3144    3.4713 H   0  0  0  0  0  0  0  0  0  0  0  0
   -1.2709   10.2457    1.1667 H   0  0  0  0  0  0  0  0  0  0  0  0
   -2.2011   10.8730   -0.2361 H   0  0  0  0  0  0  0  0  0  0  0  0
   -1.6109    9.1764   -0.2361 H   0  0  0  0  0  0  0  0  0  0  0  0
    0.1505    9.2418   -2.2311 H   0  0  0  0  0  0  0  0  0  0  0  0
   -1.2235   10.4759   -2.3868 H   0  0  0  0  0  0  0  0  0  0  0  0
    1.7152   10.8948   -2.9953 H   0  0  0  0  0  0  0  0  0  0  0  0
    0.3147   10.8944   -4.1380 H   0  0  0  0  0  0  0  0  0  0  0  0
   -1.5971   13.0566   -2.1655 H   0  0  0  0  0  0  0  0  0  0  0  0
   -1.1615   13.8828   -3.6999 H   0  0  0  0  0  0  0  0  0  0  0  0
   -1.5312   12.1249   -3.6999 H   0  0  0  0  0  0  0  0  0  0  0  0
  1  2  1  0
  2  3  1  0
  3  4  1  0
  4  5  1  0
  5  6  1  0
  6  7  1  0
  7  8  1  0
  7  9  1  0
  2 10  1  0
 10 11  1  0
 11 12  1  0
 12 13  1  0
 13 14  1  6
 13 15  1  0
 15 16  1  0
 16 17  1  0
 17 18  2  0
 18 19  1  0
 19 20  1  0
 20 21  1  0
 21 22  1  0
 22 23  1  0
 22 24  1  0
 24 25  1  0
 24 26  1  0
 19 27  1  0
 27 28  1  1
 27 29  1  0
 29 30  1  0
 30 31  1  0
 31 32  1  1
  7  5  1  0
 31 10  1  0
 31 13  1  0
 27 15  1  0
 24 18  1  0
  1 33  1  0
  1 34  1  0
  1 35  1  0
  2 36  1  1
  3 37  1  0
  3 38  1  0
  4 39  1  0
  4 40  1  0
  5 41  1  1
  8 42  1  0
  8 43  1  0
  8 44  1  0
  9 45  1  0
  9 46  1  0
  9 47  1  0
 10 48  1  6
 11 49  1  0
 11 50  1  0
 12 51  1  0
 12 52  1  0
 14 53  1  0
 14 54  1  0
 14 55  1  0
 15 56  1  6
 16 57  1  0
 16 58  1  0
 17 59  1  0
 19 60  1  6
 20 61  1  0
 20 62  1  0
 21 63  1  0
 21 64  1  0
 22 65  1  1
 23 66  1  0
 25 67  1  0
 25 68  1  0
 25 69  1  0
 26 70  1  0
 26 71  1  0
 26 72  1  0
 28 73  1  0
 28 74  1  0
 28 75  1  0
 29 76  1  0
 29 77  1  0
 30 78  1  0
 30 79  1  0
 32 80  1  0
 32 81  1  0
 32 82  1  0
M  END
>  <meeko>  (10) 
{"is_sidechain": [false], "intermolecular_energy": 2.731, "internal_energy": -0.839}

$$$$
EPH_relaxed_0001_pdb2pqr_Repair_408_r2_0001_out
     RDKit          3D

 82 86  0  0  0  0  0  0  0  0999 V2000
    0.3980    8.9070   -2.6300 C   0  0  0  0  0  0  0  0  0  0  0  0
    1.1740   10.0700   -3.2550 C   0  0  2  0  0  0  0  0  0  0  0  0
    2.6630   10.0560   -2.8570 C   0  0  0  0  0  0  0  0  0  0  0  0
    3.5910   10.6400   -3.9250 C   0  0  0  0  0  0  0  0  0  0  0  0
    4.9810   10.8430   -3.4010 C   0  0  2  0  0  0  0  0  0  0  0  0
    5.6170   12.0490   -3.8440 O   0  0  0  0  0  0  0  0  0  0  0  0
    6.2180   10.8180   -4.2790 C   0  0  0  0  0  0  0  0  0  0  0  0
    6.1240   10.5820   -5.7530 C   0  0  0  0  0  0  0  0  0  0  0  0
    7.5420   10.5360   -3.6400 C   0  0  0  0  0  0  0  0  0  0  0  0
    0.5380   11.3960   -2.8510 C   0  0  1  0  0  0  0  0  0  0  0  0
   -0.8460   11.2120   -2.1730 C   0  0  0  0  0  0  0  0  0  0  0  0
   -0.9650   12.3180   -1.0930 C   0  0  0  0  0  0  0  0  0  0  0  0
    0.1940   13.2950   -1.4060 C   0  0  1  0  0  0  0  0  0  0  0  0
   -0.3410   14.1930   -2.5650 C   0  0  0  0  0  0  0  0  0  0  0  0
    0.7180   14.1510   -0.2070 C   0  0  2  0  0  0  0  0  0  0  0  0
   -0.3120   15.1140    0.4080 C   0  0  0  0  0  0  0  0  0  0  0  0
   -0.3430   16.4810   -0.1900 C   0  0  0  0  0  0  0  0  0  0  0  0
    0.6090   17.0110   -0.9810 C   0  0  0  0  0  0  0  0  0  0  0  0
    1.9080   16.2480   -1.2680 C   0  0  1  0  0  0  0  0  0  0  0  0
    3.1180   17.2030   -1.0970 C   0  0  0  0  0  0  0  0  0  0  0  0
    2.9870   18.4700   -1.9370 C   0  0  0  0  0  0  0  0  0  0  0  0
    1.7130   19.2310   -1.5810 C   0  0  2  0  0  0  0  0  0  0  0  0
    1.8300   19.7270   -0.2440 O   0  0  0  0  0  0  0  0  0  0  0  0
    0.4270   18.3660   -1.7080 C   0  0  0  0  0  0  0  0  0  0  0  0
    0.1370   18.0810   -3.2020 C   0  0  0  0  0  0  0  0  0  0  0  0
   -0.7680   19.2080   -1.1860 C   0  0  0  0  0  0  0  0  0  0  0  0
    2.0960   14.8780   -0.4840 C   0  0  1  0  0  0  0  0  0  0  0  0
    2.7460   15.1470    0.9080 C   0  0  0  0  0  0  0  0  0  0  0  0
    3.1060   13.9660   -1.2770 C   0  0  0  0  0  0  0  0  0  0  0  0
    2.5100   13.0550   -2.3670 C   0  0  0  0  0  0  0  0  0  0  0  0
    1.3090   12.2710   -1.8310 C   0  0  2  0  0  0  0  0  0  0  0  0
    1.8200   11.3420   -0.6780 C   0  0  0  0  0  0  0  0  0  0  0  0
    0.4471    8.9806   -1.5336 H   0  0  0  0  0  0  0  0  0  0  0  0
   -0.6524    8.9510   -2.9538 H   0  0  0  0  0  0  0  0  0  0  0  0
    0.8419    7.9540   -2.9538 H   0  0  0  0  0  0  0  0  0  0  0  0
    1.1243    9.9516   -4.3475 H   0  0  0  0  0  0  0  0  0  0  0  0
    2.7815   10.6439   -1.9349 H   0  0  0  0  0  0  0  0  0  0  0  0
    2.9500    9.0026   -2.7230 H   0  0  0  0  0  0  0  0  0  0  0  0
    3.6297    9.9491   -4.7800 H   0  0  0  0  0  0  0  0  0  0  0  0
    3.1921   11.6195   -4.2274 H   0  0  0  0  0  0  0  0  0  0  0  0
    4.7300   10.3217   -2.4654 H   0  0  0  0  0  0  0  0  0  0  0  0
    5.7228    9.5747   -5.9382 H   0  0  0  0  0  0  0  0  0  0  0  0
    5.4557   11.3312   -6.2024 H   0  0  0  0  0  0  0  0  0  0  0  0
    7.1244   10.6665   -6.2024 H   0  0  0  0  0  0  0  0  0  0  0  0
    7.4333   10.5592   -2.5456 H   0  0  0  0  0  0  0  0  0  0  0  0
    7.8957    9.5424   -3.9524 H   0  0  0  0  0  0  0  0  0  0  0  0
    8.2699   11.2993   -3.9524 H   0  0  0  0  0  0  0  0  0  0  0  0
    0.5109   11.8954   -3.8307 H   0  0  0  0  0  0  0  0  0  0  0  0
   -1.6495   11.3203   -2.9164 H   0  0  0  0  0  0  0  0  0  0  0  0
   -0.9369   10.2113   -1.7255 H   0  0  0  0  0  0  0  0  0  0  0  0
   -1.9356   12.8303   -1.1670 H   0  0  0  0  0  0  0  0  0  0  0  0
   -0.9050   11.9127   -0.0722 H   0  0  0  0  0  0  0  0  0  0  0  0
   -0.8609   15.0656   -2.1427 H   0  0  0  0  0  0  0  0  0  0  0  0
    0.5020   14.5328   -3.1846 H   0  0  0  0  0  0  0  0  0  0  0  0
   -1.0412   13.6135   -3.1846 H   0  0  0  0  0  0  0  0  0  0  0  0
    0.9079   13.3878    0.5620 H   0  0  0  0  0  0  0  0  0  0  0  0
   -1.3098   14.6672    0.2867 H   0  0  0  0  0  0  0  0  0  0  0  0
   -0.0141   15.2480    1.4584 H   0  0  0  0  0  0  0  0  0  0  0  0
   -1.2179   17.1089    0.0345 H   0  0  0  0  0  0  0  0  0  0  0  0
    1.8399   15.9152   -2.3143 H   0  0  0  0  0  0  0  0  0  0  0  0
    3.1946   17.4888   -0.0375 H   0  0  0  0  0  0  0  0  0  0  0  0
    4.0164   16.6678   -1.4381 H   0  0  0  0  0  0  0  0  0  0  0  0
    3.8568   19.1170   -1.7506 H   0  0  0  0  0  0  0  0  0  0  0  0
    2.9405   18.1844   -2.9983 H   0  0  0  0  0  0  0  0  0  0  0  0
    1.6087   20.0553   -2.3019 H   0  0  0  0  0  0  0  0  0  0  0  0
    2.6090   19.3070    0.1580 H   0  0  0  0  0  0  0  0  0  0  0  0
   -0.6454   17.3121   -3.2834 H   0  0  0  0  0  0  0  0  0  0  0  0
   -0.2044   19.0048   -3.6920 H   0  0  0  0  0  0  0  0  0  0  0  0
    1.0547   17.7236   -3.6920 H   0  0  0  0  0  0  0  0  0  0  0  0
   -0.7652   19.2060   -0.0860 H   0  0  0  0  0  0  0  0  0  0  0  0
   -0.6755   20.2415   -1.5510 H   0  0  0  0  0  0  0  0  0  0  0  0
   -1.7101   18.7731   -1.5510 H   0  0  0  0  0  0  0  0  0  0  0  0
    2.0435   14.8563    1.7030 H   0  0  0  0  0  0  0  0  0  0  0  0
    3.6699   14.5573    1.0014 H   0  0  0  0  0  0  0  0  0  0  0  0
    2.9830   16.2171    1.0014 H   0  0  0  0  0  0  0  0  0  0  0  0
    3.8415   14.6259   -1.7603 H   0  0  0  0  0  0  0  0  0  0  0  0
    3.5255   13.2803   -0.5262 H   0  0  0  0  0  0  0  0  0  0  0  0
    2.1851   13.6748   -3.2157 H   0  0  0  0  0  0  0  0  0  0  0  0
    3.2818   12.3389   -2.6857 H   0  0  0  0  0  0  0  0  0  0  0  0
    1.5717   11.7934    0.2939 H   0  0  0  0  0  0  0  0  0  0  0  0
    1.3366   10.3572   -0.7591 H   0  0  0  0  0  0  0  0  0  0  0  0
    2.9105   11.2230   -0.7591 H   0  0  0  0  0  0  0  0  0  0  0  0
  1  2  1  0
  2  3  1  0
  3  4  1  0
  4  5  1  0
  5  6  1  0
  6  7  1  0
  7  8  1  0
  7  9  1  0
  2 10  1  0
 10 11  1  0
 11 12  1  0
 12 13  1  0
 13 14  1  6
 13 15  1  0
 15 16  1  0
 16 17  1  0
 17 18  2  0
 18 19  1  0
 19 20  1  0
 20 21  1  0
 21 22  1  0
 22 23  1  0
 22 24  1  0
 24 25  1  0
 24 26  1  0
 19 27  1  0
 27 28  1  1
 27 29  1  0
 29 30  1  0
 30 31  1  0
 31 32  1  1
  7  5  1  0
 31 10  1  0
 31 13  1  0
 27 15  1  0
 24 18  1  0
  1 33  1  0
  1 34  1  0
  1 35  1  0
  2 36  1  6
  3 37  1  0
  3 38  1  0
  4 39  1  0
  4 40  1  0
  5 41  1  1
  8 42  1  0
  8 43  1  0
  8 44  1  0
  9 45  1  0
  9 46  1  0
  9 47  1  0
 10 48  1  6
 11 49  1  0
 11 50  1  0
 12 51  1  0
 12 52  1  0
 14 53  1  0
 14 54  1  0
 14 55  1  0
 15 56  1  1
 16 57  1  0
 16 58  1  0
 17 59  1  0
 19 60  1  6
 20 61  1  0
 20 62  1  0
 21 63  1  0
 21 64  1  0
 22 65  1  6
 23 66  1  0
 25 67  1  0
 25 68  1  0
 25 69  1  0
 26 70  1  0
 26 71  1  0
 26 72  1  0
 28 73  1  0
 28 74  1  0
 28 75  1  0
 29 76  1  0
 29 77  1  0
 30 78  1  0
 30 79  1  0
 32 80  1  0
 32 81  1  0
 32 82  1  0
M  END
>  <meeko>  (11) 
{"is_sidechain": [false], "intermolecular_energy": 2.731, "internal_energy": -0.839}

$$$$
EPH_relaxed_0001_pdb2pqr_Repair_408_r2_0001_out
     RDKit          3D

 82 86  0  0  0  0  0  0  0  0999 V2000
    3.4430   18.3700   -3.4120 C   0  0  0  0  0  0  0  0  0  0  0  0
    2.0580   17.9970   -2.8770 C   0  0  2  0  0  0  0  0  0  0  0  0
    1.3940   19.1650   -2.1200 C   0  0  0  0  0  0  0  0  0  0  0  0
   -0.1180   19.2610   -2.3430 C   0  0  0  0  0  0  0  0  0  0  0  0
   -0.7870   20.0580   -1.2640 C   0  0  2  0  0  0  0  0  0  0  0  0
   -0.0760   20.0970   -0.0200 O   0  0  0  0  0  0  0  0  0  0  0  0
   -1.3540   19.4410    0.0020 C   0  0  0  0  0  0  0  0  0  0  0  0
   -1.2780   17.9680    0.2540 C   0  0  0  0  0  0  0  0  0  0  0  0
   -2.4050   20.1940    0.7560 C   0  0  0  0  0  0  0  0  0  0  0  0
    2.1640   16.7790   -1.9660 C   0  0  1  0  0  0  0  0  0  0  0  0
    2.2520   17.1620   -0.4650 C   0  0  0  0  0  0  0  0  0  0  0  0
    1.4960   16.0610    0.3230 C   0  0  0  0  0  0  0  0  0  0  0  0
    1.2890   14.9210   -0.7020 C   0  0  1  0  0  0  0  0  0  0  0  0
    2.6460   14.1500   -0.7260 C   0  0  0  0  0  0  0  0  0  0  0  0
    0.0840   13.9610   -0.4340 C   0  0  2  0  0  0  0  0  0  0  0  0
    0.1690   13.1580    0.8760 C   0  0  0  0  0  0  0  0  0  0  0  0
    0.8400   11.8290    0.7670 C   0  0  0  0  0  0  0  0  0  0  0  0
    1.1010   11.1770   -0.3810 C   0  0  0  0  0  0  0  0  0  0  0  0
    0.6210   11.7300   -1.7290 C   0  0  1  0  0  0  0  0  0  0  0  0
   -0.0310   10.5910   -2.5550 C   0  0  0  0  0  0  0  0  0  0  0  0
    0.8890    9.3840   -2.7140 C   0  0  0  0  0  0  0  0  0  0  0  0
    1.2970    8.8260   -1.3530 C   0  0  2  0  0  0  0  0  0  0  0  0
    0.1400    8.2830   -0.7110 O   0  0  0  0  0  0  0  0  0  0  0  0
    1.9570    9.8870   -0.4290 C   0  0  0  0  0  0  0  0  0  0  0  0
    3.3590   10.2540   -0.9760 C   0  0  0  0  0  0  0  0  0  0  0  0
    2.1920    9.2320    0.9590 C   0  0  0  0  0  0  0  0  0  0  0  0
   -0.2890   13.0310   -1.6590 C   0  0  1  0  0  0  0  0  0  0  0  0
   -1.7830   12.6260   -1.4720 C   0  0  0  0  0  0  0  0  0  0  0  0
   -0.2050   13.7920   -3.0350 C   0  0  0  0  0  0  0  0  0  0  0  0
    0.9360   14.8150   -3.1950 C   0  0  0  0  0  0  0  0  0  0  0  0
    0.9930   15.7650   -1.9950 C   0  0  2  0  0  0  0  0  0  0  0  0
   -0.3500   16.5710   -1.9600 C   0  0  0  0  0  0  0  0  0  0  0  0
    4.1247   18.5536   -2.5684 H   0  0  0  0  0  0  0  0  0  0  0  0
    3.8333   17.5450   -4.0260 H   0  0  0  0  0  0  0  0  0  0  0  0
    3.3662   19.2795   -4.0260 H   0  0  0  0  0  0  0  0  0  0  0  0
    1.4214   17.7602   -3.7422 H   0  0  0  0  0  0  0  0  0  0  0  0
    1.5788   19.0314   -1.0439 H   0  0  0  0  0  0  0  0  0  0  0  0
    1.8365   20.0939   -2.5090 H   0  0  0  0  0  0  0  0  0  0  0  0
   -0.3055   19.7455   -3.3126 H   0  0  0  0  0  0  0  0  0  0  0  0
   -0.5331   18.2425   -2.3250 H   0  0  0  0  0  0  0  0  0  0  0  0
   -1.2170   20.7466   -2.0063 H   0  0  0  0  0  0  0  0  0  0  0  0
   -1.2684   17.7815    1.3380 H   0  0  0  0  0  0  0  0  0  0  0  0
   -2.1518   17.4736   -0.1954 H   0  0  0  0  0  0  0  0  0  0  0  0
   -0.3579   17.5661   -0.1954 H   0  0  0  0  0  0  0  0  0  0  0  0
   -2.2378   20.0742    1.8366 H   0  0  0  0  0  0  0  0  0  0  0  0
   -2.3517   21.2607    0.4928 H   0  0  0  0  0  0  0  0  0  0  0  0
   -3.3979   19.8005    0.4928 H   0  0  0  0  0  0  0  0  0  0  0  0
    3.0720   16.3169   -2.3808 H   0  0  0  0  0  0  0  0  0  0  0  0
    3.3038   17.2020   -0.1454 H   0  0  0  0  0  0  0  0  0  0  0  0
    1.8088   18.1523   -0.2835 H   0  0  0  0  0  0  0  0  0  0  0  0
    2.0965   15.7121    1.1760 H   0  0  0  0  0  0  0  0  0  0  0  0
    0.5455   16.4246    0.7406 H   0  0  0  0  0  0  0  0  0  0  0  0
    2.9786   13.9610    0.3053 H   0  0  0  0  0  0  0  0  0  0  0  0
    2.5142   13.1919   -1.2501 H   0  0  0  0  0  0  0  0  0  0  0  0
    3.4015   14.7537   -1.2501 H   0  0  0  0  0  0  0  0  0  0  0  0
   -0.7522   14.6632   -0.3006 H   0  0  0  0  0  0  0  0  0  0  0  0
    0.7258   13.7608    1.6086 H   0  0  0  0  0  0  0  0  0  0  0  0
   -0.8695   12.9510    1.1739 H   0  0  0  0  0  0  0  0  0  0  0  0
    1.1470   11.3415    1.7041 H   0  0  0  0  0  0  0  0  0  0  0  0
    1.5209   12.0956   -2.2452 H   0  0  0  0  0  0  0  0  0  0  0  0
   -0.9513   10.2685   -2.0460 H   0  0  0  0  0  0  0  0  0  0  0  0
   -0.2416   10.9854   -3.5600 H   0  0  0  0  0  0  0  0  0  0  0  0
    0.3622    8.6020   -3.2805 H   0  0  0  0  0  0  0  0  0  0  0  0
    1.7959    9.7019   -3.2493 H   0  0  0  0  0  0  0  0  0  0  0  0
    2.0547    8.0484   -1.5296 H   0  0  0  0  0  0  0  0  0  0  0  0
   -0.3390    7.7500   -1.3690 H   0  0  0  0  0  0  0  0  0  0  0  0
    4.0451   10.4336   -0.1352 H   0  0  0  0  0  0  0  0  0  0  0  0
    3.7412    9.4256   -1.5906 H   0  0  0  0  0  0  0  0  0  0  0  0
    3.2863   11.1634   -1.5906 H   0  0  0  0  0  0  0  0  0  0  0  0
    1.9344    9.9500    1.7516 H   0  0  0  0  0  0  0  0  0  0  0  0
    1.5587    8.3377    1.0544 H   0  0  0  0  0  0  0  0  0  0  0  0
    3.2494    8.9443    1.0544 H   0  0  0  0  0  0  0  0  0  0  0  0
   -2.0143   12.5633   -0.3984 H   0  0  0  0  0  0  0  0  0  0  0  0
   -2.4294   13.3813   -1.9428 H   0  0  0  0  0  0  0  0  0  0  0  0
   -1.9594   11.6476   -1.9428 H   0  0  0  0  0  0  0  0  0  0  0  0
   -0.0882   13.0368   -3.8263 H   0  0  0  0  0  0  0  0  0  0  0  0
   -1.1312   14.3825   -3.0942 H   0  0  0  0  0  0  0  0  0  0  0  0
    1.8925   14.2777   -3.2743 H   0  0  0  0  0  0  0  0  0  0  0  0
    0.7508   15.4077   -4.1030 H   0  0  0  0  0  0  0  0  0  0  0  0
   -0.6444   16.7477   -0.9150 H   0  0  0  0  0  0  0  0  0  0  0  0
   -0.2121   17.5357   -2.4702 H   0  0  0  0  0  0  0  0  0  0  0  0
   -1.1364   15.9955   -2.4702 H   0  0  0  0  0  0  0  0  0  0  0  0
  1  2  1  0
  2  3  1  0
  3  4  1  0
  4  5  1  0
  5  6  1  0
  6  7  1  0
  7  8  1  0
  7  9  1  0
  2 10  1  0
 10 11  1  0
 11 12  1  0
 12 13  1  0
 13 14  1  6
 13 15  1  0
 15 16  1  0
 16 17  1  0
 17 18  2  0
 18 19  1  0
 19 20  1  0
 20 21  1  0
 21 22  1  0
 22 23  1  0
 22 24  1  0
 24 25  1  0
 24 26  1  0
 19 27  1  0
 27 28  1  1
 27 29  1  0
 29 30  1  0
 30 31  1  0
 31 32  1  1
  7  5  1  0
 31 10  1  0
 31 13  1  0
 27 15  1  0
 24 18  1  0
  1 33  1  0
  1 34  1  0
  1 35  1  0
  2 36  1  6
  3 37  1  0
  3 38  1  0
  4 39  1  0
  4 40  1  0
  5 41  1  6
  8 42  1  0
  8 43  1  0
  8 44  1  0
  9 45  1  0
  9 46  1  0
  9 47  1  0
 10 48  1  6
 11 49  1  0
 11 50  1  0
 12 51  1  0
 12 52  1  0
 14 53  1  0
 14 54  1  0
 14 55  1  0
 15 56  1  1
 16 57  1  0
 16 58  1  0
 17 59  1  0
 19 60  1  6
 20 61  1  0
 20 62  1  0
 21 63  1  0
 21 64  1  0
 22 65  1  6
 23 66  1  0
 25 67  1  0
 25 68  1  0
 25 69  1  0
 26 70  1  0
 26 71  1  0
 26 72  1  0
 28 73  1  0
 28 74  1  0
 28 75  1  0
 29 76  1  0
 29 77  1  0
 30 78  1  0
 30 79  1  0
 32 80  1  0
 32 81  1  0
 32 82  1  0
M  END
>  <meeko>  (12) 
{"is_sidechain": [false], "intermolecular_energy": 2.731, "internal_energy": -0.839}

$$$$
EPH_relaxed_0001_pdb2pqr_Repair_408_r2_0001_out
     RDKit          3D

 82 86  0  0  0  0  0  0  0  0999 V2000
    1.5460    8.8050    0.3000 C   0  0  0  0  0  0  0  0  0  0  0  0
    2.9670    9.3750    0.2720 C   0  0  2  0  0  0  0  0  0  0  0  0
    3.4990    9.6790    1.6870 C   0  0  0  0  0  0  0  0  0  0  0  0
    2.4240    9.6140    2.7760 C   0  0  0  0  0  0  0  0  0  0  0  0
    1.6880   10.9130    2.9060 C   0  0  2  0  0  0  0  0  0  0  0  0
    2.5220   12.0490    3.1710 O   0  0  0  0  0  0  0  0  0  0  0  0
    1.5900   11.6920    4.2050 C   0  0  0  0  0  0  0  0  0  0  0  0
    2.2350   11.1980    5.4610 C   0  0  0  0  0  0  0  0  0  0  0  0
    0.4680   12.6690    4.3690 C   0  0  0  0  0  0  0  0  0  0  0  0
    3.0050   10.6380   -0.5800 C   0  0  1  0  0  0  0  0  0  0  0  0
    3.4350   10.3570   -2.0450 C   0  0  0  0  0  0  0  0  0  0  0  0
    2.6410   11.3420   -2.9410 C   0  0  0  0  0  0  0  0  0  0  0  0
    2.0380   12.3690   -1.9530 C   0  0  1  0  0  0  0  0  0  0  0  0
    3.1970   13.3720   -1.6610 C   0  0  0  0  0  0  0  0  0  0  0  0
    0.7430   13.1050   -2.4270 C   0  0  2  0  0  0  0  0  0  0  0  0
    0.9110   13.9780   -3.6830 C   0  0  0  0  0  0  0  0  0  0  0  0
    1.2870   15.4000   -3.4260 C   0  0  0  0  0  0  0  0  0  0  0  0
    1.2060   16.0280   -2.2380 C   0  0  0  0  0  0  0  0  0  0  0  0
    0.6030   15.3250   -1.0150 C   0  0  1  0  0  0  0  0  0  0  0  0
   -0.3930   16.2810   -0.3070 C   0  0  0  0  0  0  0  0  0  0  0  0
    0.2370   17.6250    0.0440 C   0  0  0  0  0  0  0  0  0  0  0  0
    0.7730   18.3200   -1.2050 C   0  0  2  0  0  0  0  0  0  0  0  0
   -0.3300   18.6750   -2.0440 O   0  0  0  0  0  0  0  0  0  0  0  0
    1.7790   17.4470   -2.0060 C   0  0  0  0  0  0  0  0  0  0  0  0
    3.1010   17.3140   -1.2110 C   0  0  0  0  0  0  0  0  0  0  0  0
    2.1340   18.2070   -3.3140 C   0  0  0  0  0  0  0  0  0  0  0  0
   -0.0160   13.8850   -1.2780 C   0  0  1  0  0  0  0  0  0  0  0  0
   -1.5010   14.0200   -1.7370 C   0  0  0  0  0  0  0  0  0  0  0  0
   -0.0420   13.0810    0.0750 C   0  0  0  0  0  0  0  0  0  0  0  0
    1.2240   12.2770    0.4300 C   0  0  0  0  0  0  0  0  0  0  0  0
    1.6770   11.4180   -0.7550 C   0  0  2  0  0  0  0  0  0  0  0  0
    0.5400   10.3830   -1.0580 C   0  0  0  0  0  0  0  0  0  0  0  0
    1.2234    8.6756    1.3436 H   0  0  0  0  0  0  0  0  0  0  0  0
    0.8626    9.4986   -0.2118 H   0  0  0  0  0  0  0  0  0  0  0  0
    1.5313    7.8314   -0.2118 H   0  0  0  0  0  0  0  0  0  0  0  0
    3.6211    8.6088   -0.1698 H   0  0  0  0  0  0  0  0  0  0  0  0
    4.2826    8.9457    1.9284 H   0  0  0  0  0  0  0  0  0  0  0  0
    3.8799   10.7108    1.6724 H   0  0  0  0  0  0  0  0  0  0  0  0
    1.7055    8.8211    2.5209 H   0  0  0  0  0  0  0  0  0  0  0  0
    2.9196    9.4030    3.7351 H   0  0  0  0  0  0  0  0  0  0  0  0
    0.9261   10.5815    2.1851 H   0  0  0  0  0  0  0  0  0  0  0  0
    1.7018   11.6064    6.3321 H   0  0  0  0  0  0  0  0  0  0  0  0
    2.1927   10.0991    5.4872 H   0  0  0  0  0  0  0  0  0  0  0  0
    3.2849   11.5252    5.4872 H   0  0  0  0  0  0  0  0  0  0  0  0
    0.2788   12.8337    5.4400 H   0  0  0  0  0  0  0  0  0  0  0  0
    0.7401   13.6230    3.8938 H   0  0  0  0  0  0  0  0  0  0  0  0
   -0.4395   12.2683    3.8938 H   0  0  0  0  0  0  0  0  0  0  0  0
    3.7182   11.2355    0.0068 H   0  0  0  0  0  0  0  0  0  0  0  0
    4.5157   10.5259   -2.1616 H   0  0  0  0  0  0  0  0  0  0  0  0
    3.2270    9.3136   -2.3244 H   0  0  0  0  0  0  0  0  0  0  0  0
    3.3099   11.8398   -3.6584 H   0  0  0  0  0  0  0  0  0  0  0  0
    1.8689   10.8338   -3.5373 H   0  0  0  0  0  0  0  0  0  0  0  0
    3.3226   13.4807   -0.5736 H   0  0  0  0  0  0  0  0  0  0  0  0
    4.1305   12.9921   -2.1018 H   0  0  0  0  0  0  0  0  0  0  0  0
    2.9550   14.3503   -2.1018 H   0  0  0  0  0  0  0  0  0  0  0  0
    0.0939   12.2698   -2.7289 H   0  0  0  0  0  0  0  0  0  0  0  0
    1.6956   13.5267   -4.3081 H   0  0  0  0  0  0  0  0  0  0  0  0
   -0.0761   14.0071   -4.1675 H   0  0  0  0  0  0  0  0  0  0  0  0
    1.6619   15.9838   -4.2796 H   0  0  0  0  0  0  0  0  0  0  0  0
    1.4470   15.1024   -0.3456 H   0  0  0  0  0  0  0  0  0  0  0  0
   -1.2491   16.4564   -0.9751 H   0  0  0  0  0  0  0  0  0  0  0  0
   -0.7050   15.8024    0.6330 H   0  0  0  0  0  0  0  0  0  0  0  0
   -0.5225   18.2665    0.5148 H   0  0  0  0  0  0  0  0  0  0  0  0
    1.0749   17.4499    0.7348 H   0  0  0  0  0  0  0  0  0  0  0  0
    1.3245   19.2129   -0.8756 H   0  0  0  0  0  0  0  0  0  0  0  0
   -0.5280   17.9110   -2.6110 H   0  0  0  0  0  0  0  0  0  0  0  0
    2.8842   17.3358   -0.1328 H   0  0  0  0  0  0  0  0  0  0  0  0
    3.5891   16.3622   -1.4677 H   0  0  0  0  0  0  0  0  0  0  0  0
    3.7689   18.1495   -1.4677 H   0  0  0  0  0  0  0  0  0  0  0  0
    2.5872   19.1773   -3.0628 H   0  0  0  0  0  0  0  0  0  0  0  0
    2.8468   17.6108   -3.9026 H   0  0  0  0  0  0  0  0  0  0  0  0
    1.2193   18.3710   -3.9026 H   0  0  0  0  0  0  0  0  0  0  0  0
   -2.1539   14.0794   -0.8537 H   0  0  0  0  0  0  0  0  0  0  0  0
   -1.6168   14.9324   -2.3405 H   0  0  0  0  0  0  0  0  0  0  0  0
   -1.7794   13.1435   -2.3405 H   0  0  0  0  0  0  0  0  0  0  0  0
   -0.2170   13.8019    0.8872 H   0  0  0  0  0  0  0  0  0  0  0  0
   -0.8344   12.3287   -0.0524 H   0  0  0  0  0  0  0  0  0  0  0  0
    2.0307   12.9753    0.6977 H   0  0  0  0  0  0  0  0  0  0  0  0
    0.9929   11.6137    1.2766 H   0  0  0  0  0  0  0  0  0  0  0  0
    0.1257   10.0059   -0.1114 H   0  0  0  0  0  0  0  0  0  0  0  0
   -0.2565   10.8725   -1.6377 H   0  0  0  0  0  0  0  0  0  0  0  0
    0.9527    9.5441   -1.6377 H   0  0  0  0  0  0  0  0  0  0  0  0
  1  2  1  0
  2  3  1  0
  3  4  1  0
  4  5  1  0
  5  6  1  0
  6  7  1  0
  7  8  1  0
  7  9  1  0
  2 10  1  0
 10 11  1  0
 11 12  1  0
 12 13  1  0
 13 14  1  1
 13 15  1  0
 15 16  1  0
 16 17  1  0
 17 18  2  0
 18 19  1  0
 19 20  1  0
 20 21  1  0
 21 22  1  0
 22 23  1  0
 22 24  1  0
 24 25  1  0
 24 26  1  0
 19 27  1  0
 27 28  1  6
 27 29  1  0
 29 30  1  0
 30 31  1  0
 31 32  1  6
  7  5  1  0
 31 10  1  0
 31 13  1  0
 27 15  1  0
 24 18  1  0
  1 33  1  0
  1 34  1  0
  1 35  1  0
  2 36  1  6
  3 37  1  0
  3 38  1  0
  4 39  1  0
  4 40  1  0
  5 41  1  6
  8 42  1  0
  8 43  1  0
  8 44  1  0
  9 45  1  0
  9 46  1  0
  9 47  1  0
 10 48  1  1
 11 49  1  0
 11 50  1  0
 12 51  1  0
 12 52  1  0
 14 53  1  0
 14 54  1  0
 14 55  1  0
 15 56  1  6
 16 57  1  0
 16 58  1  0
 17 59  1  0
 19 60  1  1
 20 61  1  0
 20 62  1  0
 21 63  1  0
 21 64  1  0
 22 65  1  1
 23 66  1  0
 25 67  1  0
 25 68  1  0
 25 69  1  0
 26 70  1  0
 26 71  1  0
 26 72  1  0
 28 73  1  0
 28 74  1  0
 28 75  1  0
 29 76  1  0
 29 77  1  0
 30 78  1  0
 30 79  1  0
 32 80  1  0
 32 81  1  0
 32 82  1  0
M  END
>  <meeko>  (13) 
{"is_sidechain": [false], "intermolecular_energy": 2.731, "internal_energy": -0.839}

$$$$
EPH_relaxed_0001_pdb2pqr_Repair_408_r2_0001_out
     RDKit          3D

 82 86  0  0  0  0  0  0  0  0999 V2000
    2.4460   12.4900   -5.1420 C   0  0  0  0  0  0  0  0  0  0  0  0
    1.0580   13.1170   -4.9820 C   0  0  2  0  0  0  0  0  0  0  0  0
    1.0100   14.5640   -5.5130 C   0  0  0  0  0  0  0  0  0  0  0  0
    0.4690   15.5750   -4.4980 C   0  0  0  0  0  0  0  0  0  0  0  0
    1.5570   16.1150   -3.6200 C   0  0  2  0  0  0  0  0  0  0  0  0
    1.3270   15.9550   -2.2140 O   0  0  0  0  0  0  0  0  0  0  0  0
    1.3750   17.3060   -2.6980 C   0  0  0  0  0  0  0  0  0  0  0  0
    0.0680   18.0310   -2.6100 C   0  0  0  0  0  0  0  0  0  0  0  0
    2.5890   18.0620   -2.2570 C   0  0  0  0  0  0  0  0  0  0  0  0
    0.6390   13.0860   -3.5170 C   0  0  1  0  0  0  0  0  0  0  0  0
   -0.8590   13.4400   -3.3170 C   0  0  0  0  0  0  0  0  0  0  0  0
   -1.3670   12.5800   -2.1300 C   0  0  0  0  0  0  0  0  0  0  0  0
   -0.0820   12.0150   -1.4800 C   0  0  1  0  0  0  0  0  0  0  0  0
    0.4530   13.1710   -0.5780 C   0  0  0  0  0  0  0  0  0  0  0  0
   -0.2420   10.6830   -0.6770 C   0  0  2  0  0  0  0  0  0  0  0  0
   -1.1720   10.7670    0.5460 C   0  0  0  0  0  0  0  0  0  0  0  0
   -0.5040   11.1320    1.8310 C   0  0  0  0  0  0  0  0  0  0  0  0
    0.8230   11.1060    2.0580 C   0  0  0  0  0  0  0  0  0  0  0  0
    1.7940   10.5830    0.9920 C   0  0  1  0  0  0  0  0  0  0  0  0
    2.8100    9.6120    1.6480 C   0  0  0  0  0  0  0  0  0  0  0  0
    3.5310   10.2370    2.8390 C   0  0  0  0  0  0  0  0  0  0  0  0
    2.5350   10.6910    3.9030 C   0  0  2  0  0  0  0  0  0  0  0  0
    1.9010    9.5370    4.4630 O   0  0  0  0  0  0  0  0  0  0  0  0
    1.4560   11.6670    3.3550 C   0  0  0  0  0  0  0  0  0  0  0  0
    2.1080   13.0330    3.0270 C   0  0  0  0  0  0  0  0  0  0  0  0
    0.4340   11.9350    4.4920 C   0  0  0  0  0  0  0  0  0  0  0  0
    1.1260    9.9750   -0.3160 C   0  0  1  0  0  0  0  0  0  0  0  0
    0.8020    8.4660   -0.0960 C   0  0  0  0  0  0  0  0  0  0  0  0
    2.1630   10.0390   -1.5000 C   0  0  0  0  0  0  0  0  0  0  0  0
    2.1900   11.3360   -2.3310 C   0  0  0  0  0  0  0  0  0  0  0  0
    0.7780   11.7380   -2.7660 C   0  0  2  0  0  0  0  0  0  0  0  0
    0.2220   10.6030   -3.6940 C   0  0  0  0  0  0  0  0  0  0  0  0
    2.8771   12.2953   -4.1489 H   0  0  0  0  0  0  0  0  0  0  0  0
    2.3592   11.5437   -5.6960 H   0  0  0  0  0  0  0  0  0  0  0  0
    3.0987   13.1807   -5.6960 H   0  0  0  0  0  0  0  0  0  0  0  0
    0.3547   12.5212   -5.5823 H   0  0  0  0  0  0  0  0  0  0  0  0
    2.0303   14.8651   -5.7930 H   0  0  0  0  0  0  0  0  0  0  0  0
    0.3206   14.5690   -6.3701 H   0  0  0  0  0  0  0  0  0  0  0  0
    0.0016   16.4098   -5.0408 H   0  0  0  0  0  0  0  0  0  0  0  0
   -0.2640   15.0608   -3.8590 H   0  0  0  0  0  0  0  0  0  0  0  0
    2.3180   15.8782   -4.3782 H   0  0  0  0  0  0  0  0  0  0  0  0
   -0.1988   18.1790   -1.5532 H   0  0  0  0  0  0  0  0  0  0  0  0
    0.1569   19.0087   -3.1061 H   0  0  0  0  0  0  0  0  0  0  0  0
   -0.7144   17.4379   -3.1061 H   0  0  0  0  0  0  0  0  0  0  0  0
    2.6270   18.0857   -1.1579 H   0  0  0  0  0  0  0  0  0  0  0  0
    3.4909   17.5656   -2.6445 H   0  0  0  0  0  0  0  0  0  0  0  0
    2.5414   19.0904   -2.6445 H   0  0  0  0  0  0  0  0  0  0  0  0
    1.3480   13.8200   -3.1065 H   0  0  0  0  0  0  0  0  0  0  0  0
   -0.9677   14.5095   -3.0838 H   0  0  0  0  0  0  0  0  0  0  0  0
   -1.4385   13.2358   -4.2294 H   0  0  0  0  0  0  0  0  0  0  0  0
   -1.9252   13.1994   -1.4125 H   0  0  0  0  0  0  0  0  0  0  0  0
   -2.0546   11.7852   -2.4547 H   0  0  0  0  0  0  0  0  0  0  0  0
    0.3270   12.8987    0.4803 H   0  0  0  0  0  0  0  0  0  0  0  0
    1.5196   13.3373   -0.7893 H   0  0  0  0  0  0  0  0  0  0  0  0
   -0.1105   14.0917   -0.7893 H   0  0  0  0  0  0  0  0  0  0  0  0
   -0.7562   10.0321   -1.3994 H   0  0  0  0  0  0  0  0  0  0  0  0
   -1.9421   11.5239    0.3362 H   0  0  0  0  0  0  0  0  0  0  0  0
   -1.5774    9.7547    0.6904 H   0  0  0  0  0  0  0  0  0  0  0  0
   -1.1508   11.4489    2.6624 H   0  0  0  0  0  0  0  0  0  0  0  0
    2.3208   11.4662    0.6016 H   0  0  0  0  0  0  0  0  0  0  0  0
    2.2709    8.7170    1.9921 H   0  0  0  0  0  0  0  0  0  0  0  0
    3.5688    9.3616    0.8920 H   0  0  0  0  0  0  0  0  0  0  0  0
    4.2126    9.4934    3.2778 H   0  0  0  0  0  0  0  0  0  0  0  0
    4.0936   11.1145    2.4877 H   0  0  0  0  0  0  0  0  0  0  0  0
    3.0986   11.2447    4.6683 H   0  0  0  0  0  0  0  0  0  0  0  0
    1.3050    9.8430    5.1680 H   0  0  0  0  0  0  0  0  0  0  0  0
    2.3570   13.5546    3.9629 H   0  0  0  0  0  0  0  0  0  0  0  0
    3.0256   12.8704    2.4426 H   0  0  0  0  0  0  0  0  0  0  0  0
    1.4045   13.6442    2.4426 H   0  0  0  0  0  0  0  0  0  0  0  0
    0.9274   11.8056    5.4666 H   0  0  0  0  0  0  0  0  0  0  0  0
    0.0529   12.9634    4.4076 H   0  0  0  0  0  0  0  0  0  0  0  0
   -0.4027   11.2259    4.4076 H   0  0  0  0  0  0  0  0  0  0  0  0
    0.7565    8.2542    0.9825 H   0  0  0  0  0  0  0  0  0  0  0  0
   -0.1677    8.2281   -0.5576 H   0  0  0  0  0  0  0  0  0  0  0  0
    1.5886    7.8510   -0.5576 H   0  0  0  0  0  0  0  0  0  0  0  0
    3.1662    9.8974   -1.0716 H   0  0  0  0  0  0  0  0  0  0  0  0
    1.8464    9.2539   -2.2024 H   0  0  0  0  0  0  0  0  0  0  0  0
    2.6229   12.1440   -1.7229 H   0  0  0  0  0  0  0  0  0  0  0  0
    2.7983   11.1631   -3.2311 H   0  0  0  0  0  0  0  0  0  0  0  0
   -0.1780    9.7864   -3.0751 H   0  0  0  0  0  0  0  0  0  0  0  0
   -0.5796   11.0083   -4.3290 H   0  0  0  0  0  0  0  0  0  0  0  0
    1.0336   10.2181   -4.3290 H   0  0  0  0  0  0  0  0  0  0  0  0
  1  2  1  0
  2  3  1  0
  3  4  1  0
  4  5  1  0
  5  6  1  0
  6  7  1  0
  7  8  1  0
  7  9  1  0
  2 10  1  0
 10 11  1  0
 11 12  1  0
 12 13  1  0
 13 14  1  1
 13 15  1  0
 15 16  1  0
 16 17  1  0
 17 18  2  0
 18 19  1  0
 19 20  1  0
 20 21  1  0
 21 22  1  0
 22 23  1  0
 22 24  1  0
 24 25  1  0
 24 26  1  0
 19 27  1  0
 27 28  1  1
 27 29  1  0
 29 30  1  0
 30 31  1  0
 31 32  1  6
  7  5  1  0
 31 10  1  0
 31 13  1  0
 27 15  1  0
 24 18  1  0
  1 33  1  0
  1 34  1  0
  1 35  1  0
  2 36  1  6
  3 37  1  0
  3 38  1  0
  4 39  1  0
  4 40  1  0
  5 41  1  6
  8 42  1  0
  8 43  1  0
  8 44  1  0
  9 45  1  0
  9 46  1  0
  9 47  1  0
 10 48  1  1
 11 49  1  0
 11 50  1  0
 12 51  1  0
 12 52  1  0
 14 53  1  0
 14 54  1  0
 14 55  1  0
 15 56  1  6
 16 57  1  0
 16 58  1  0
 17 59  1  0
 19 60  1  6
 20 61  1  0
 20 62  1  0
 21 63  1  0
 21 64  1  0
 22 65  1  1
 23 66  1  0
 25 67  1  0
 25 68  1  0
 25 69  1  0
 26 70  1  0
 26 71  1  0
 26 72  1  0
 28 73  1  0
 28 74  1  0
 28 75  1  0
 29 76  1  0
 29 77  1  0
 30 78  1  0
 30 79  1  0
 32 80  1  0
 32 81  1  0
 32 82  1  0
M  END
>  <meeko>  (14) 
{"is_sidechain": [false], "intermolecular_energy": 2.731, "internal_energy": -0.839}

$$$$
EPH_relaxed_0001_pdb2pqr_Repair_408_r2_0001_out
     RDKit          3D

 82 86  0  0  0  0  0  0  0  0999 V2000
   -3.6560    7.1880   -3.4150 C   0  0  0  0  0  0  0  0  0  0  0  0
   -3.6800    7.2400   -1.8850 C   0  0  2  0  0  0  0  0  0  0  0  0
   -5.0900    6.9800   -1.3170 C   0  0  0  0  0  0  0  0  0  0  0  0
   -6.2070    7.1210   -2.3550 C   0  0  0  0  0  0  0  0  0  0  0  0
   -7.5260    7.4250   -1.7120 C   0  0  2  0  0  0  0  0  0  0  0  0
   -8.1710    6.2970   -1.1060 O   0  0  0  0  0  0  0  0  0  0  0  0
   -8.8500    6.8890   -2.2250 C   0  0  0  0  0  0  0  0  0  0  0  0
   -8.9200    6.0070   -3.4320 C   0  0  0  0  0  0  0  0  0  0  0  0
  -10.1070    7.6120   -1.8530 C   0  0  0  0  0  0  0  0  0  0  0  0
   -3.1650    8.5910   -1.4030 C   0  0  1  0  0  0  0  0  0  0  0  0
   -3.8250    9.0410   -0.0720 C   0  0  0  0  0  0  0  0  0  0  0  0
   -2.7390    9.8060    0.7290 C   0  0  0  0  0  0  0  0  0  0  0  0
   -1.6060   10.0580   -0.2930 C   0  0  1  0  0  0  0  0  0  0  0  0
   -2.0690   11.3100   -1.1040 C   0  0  0  0  0  0  0  0  0  0  0  0
   -0.1720   10.2520    0.2990 C   0  0  2  0  0  0  0  0  0  0  0  0
   -0.0060   11.4730    1.2210 C   0  0  0  0  0  0  0  0  0  0  0  0
    0.4100   12.7340    0.5390 C   0  0  0  0  0  0  0  0  0  0  0  0
    0.9150   12.8210   -0.7050 C   0  0  0  0  0  0  0  0  0  0  0  0
    1.2050   11.5590   -1.5270 C   0  0  1  0  0  0  0  0  0  0  0  0
    2.6120   11.6720   -2.1710 C   0  0  0  0  0  0  0  0  0  0  0  0
    2.7820   12.9510   -2.9860 C   0  0  0  0  0  0  0  0  0  0  0  0
    2.5420   14.1850   -2.1200 C   0  0  2  0  0  0  0  0  0  0  0  0
    3.5830   14.2700   -1.1420 O   0  0  0  0  0  0  0  0  0  0  0  0
    1.1590   14.1770   -1.4120 C   0  0  0  0  0  0  0  0  0  0  0  0
    0.0370   14.3890   -2.4590 C   0  0  0  0  0  0  0  0  0  0  0  0
    1.1020   15.4040   -0.4620 C   0  0  0  0  0  0  0  0  0  0  0  0
    0.9880   10.1760   -0.7750 C   0  0  1  0  0  0  0  0  0  0  0  0
    2.2840    9.7810   -0.0020 C   0  0  0  0  0  0  0  0  0  0  0  0
    0.7440    9.0430   -1.8400 C   0  0  0  0  0  0  0  0  0  0  0  0
   -0.7110    8.8210   -2.2970 C   0  0  0  0  0  0  0  0  0  0  0  0
   -1.6520    8.7060   -1.0930 C   0  0  2  0  0  0  0  0  0  0  0  0
   -1.2250    7.4430   -0.2710 C   0  0  0  0  0  0  0  0  0  0  0  0
   -3.2159    6.2346   -3.7426 H   0  0  0  0  0  0  0  0  0  0  0  0
   -4.6829    7.2697   -3.8008 H   0  0  0  0  0  0  0  0  0  0  0  0
   -3.0519    8.0224   -3.8008 H   0  0  0  0  0  0  0  0  0  0  0  0
   -3.0230    6.4386   -1.5162 H   0  0  0  0  0  0  0  0  0  0  0  0
   -5.1185    5.9574   -0.9128 H   0  0  0  0  0  0  0  0  0  0  0  0
   -5.2710    7.7417   -0.5443 H   0  0  0  0  0  0  0  0  0  0  0  0
   -5.9506    7.9376   -3.0459 H   0  0  0  0  0  0  0  0  0  0  0  0
   -6.2992    6.1651   -2.8915 H   0  0  0  0  0  0  0  0  0  0  0  0
   -7.1918    8.4401   -1.4516 H   0  0  0  0  0  0  0  0  0  0  0  0
   -9.0033    4.9571   -3.1146 H   0  0  0  0  0  0  0  0  0  0  0  0
   -9.7994    6.2789   -4.0343 H   0  0  0  0  0  0  0  0  0  0  0  0
   -8.0087    6.1368   -4.0343 H   0  0  0  0  0  0  0  0  0  0  0  0
  -10.1915    7.6606   -0.7573 H   0  0  0  0  0  0  0  0  0  0  0  0
  -10.0788    8.6319   -2.2642 H   0  0  0  0  0  0  0  0  0  0  0  0
  -10.9744    7.0748   -2.2642 H   0  0  0  0  0  0  0  0  0  0  0  0
   -3.4175    9.2076   -2.2782 H   0  0  0  0  0  0  0  0  0  0  0  0
   -4.6801    9.7017   -0.2775 H   0  0  0  0  0  0  0  0  0  0  0  0
   -4.1992    8.1763    0.4957 H   0  0  0  0  0  0  0  0  0  0  0  0
   -3.1365   10.7580    1.1108 H   0  0  0  0  0  0  0  0  0  0  0  0
   -2.3916    9.2404    1.6062 H   0  0  0  0  0  0  0  0  0  0  0  0
   -2.3645   12.1090   -0.4081 H   0  0  0  0  0  0  0  0  0  0  0  0
   -1.2419   11.6629   -1.7376 H   0  0  0  0  0  0  0  0  0  0  0  0
   -2.9267   11.0399   -1.7376 H   0  0  0  0  0  0  0  0  0  0  0  0
   -0.0637    9.3710    0.9487 H   0  0  0  0  0  0  0  0  0  0  0  0
   -0.9698   11.6573    1.7181 H   0  0  0  0  0  0  0  0  0  0  0  0
    0.8072   11.2206    1.9174 H   0  0  0  0  0  0  0  0  0  0  0  0
    0.2937   13.6721    1.1015 H   0  0  0  0  0  0  0  0  0  0  0  0
    0.4361   11.5255   -2.3129 H   0  0  0  0  0  0  0  0  0  0  0  0
    3.3676   11.6603   -1.3716 H   0  0  0  0  0  0  0  0  0  0  0  0
    2.7345   10.8206   -2.8567 H   0  0  0  0  0  0  0  0  0  0  0  0
    3.8047   12.9876   -3.3895 H   0  0  0  0  0  0  0  0  0  0  0  0
    2.0461   12.9470   -3.8036 H   0  0  0  0  0  0  0  0  0  0  0  0
    2.5483   15.0615   -2.7847 H   0  0  0  0  0  0  0  0  0  0  0  0
    3.2180   13.9600   -0.2960 H   0  0  0  0  0  0  0  0  0  0  0  0
   -0.9173   14.5693   -1.9424 H   0  0  0  0  0  0  0  0  0  0  0  0
    0.2826   15.2566   -3.0890 H   0  0  0  0  0  0  0  0  0  0  0  0
   -0.0510   13.4916   -3.0890 H   0  0  0  0  0  0  0  0  0  0  0  0
    1.1180   15.0599    0.5827 H   0  0  0  0  0  0  0  0  0  0  0  0
    1.9710   16.0523   -0.6479 H   0  0  0  0  0  0  0  0  0  0  0  0
    0.1766   15.9690   -0.6479 H   0  0  0  0  0  0  0  0  0  0  0  0
    2.0970    9.8380    1.0805 H   0  0  0  0  0  0  0  0  0  0  0  0
    2.5726    8.7541   -0.2707 H   0  0  0  0  0  0  0  0  0  0  0  0
    3.0963   10.4724   -0.2707 H   0  0  0  0  0  0  0  0  0  0  0  0
    1.3388    9.2906   -2.7316 H   0  0  0  0  0  0  0  0  0  0  0  0
    1.0338    8.1083   -1.3376 H   0  0  0  0  0  0  0  0  0  0  0  0
   -1.0262    9.6708   -2.9203 H   0  0  0  0  0  0  0  0  0  0  0  0
   -0.7595    7.8840   -2.8711 H   0  0  0  0  0  0  0  0  0  0  0  0
   -1.2994    7.6629    0.8042 H   0  0  0  0  0  0  0  0  0  0  0  0
   -1.8887    6.6019   -0.5200 H   0  0  0  0  0  0  0  0  0  0  0  0
   -0.1870    7.1772   -0.5200 H   0  0  0  0  0  0  0  0  0  0  0  0
  1  2  1  0
  2  3  1  0
  3  4  1  0
  4  5  1  0
  5  6  1  0
  6  7  1  0
  7  8  1  0
  7  9  1  0
  2 10  1  0
 10 11  1  0
 11 12  1  0
 12 13  1  0
 13 14  1  6
 13 15  1  0
 15 16  1  0
 16 17  1  0
 17 18  2  0
 18 19  1  0
 19 20  1  0
 20 21  1  0
 21 22  1  0
 22 23  1  0
 22 24  1  0
 24 25  1  0
 24 26  1  0
 19 27  1  0
 27 28  1  1
 27 29  1  0
 29 30  1  0
 30 31  1  0
 31 32  1  1
  7  5  1  0
 31 10  1  0
 31 13  1  0
 27 15  1  0
 24 18  1  0
  1 33  1  0
  1 34  1  0
  1 35  1  0
  2 36  1  1
  3 37  1  0
  3 38  1  0
  4 39  1  0
  4 40  1  0
  5 41  1  1
  8 42  1  0
  8 43  1  0
  8 44  1  0
  9 45  1  0
  9 46  1  0
  9 47  1  0
 10 48  1  6
 11 49  1  0
 11 50  1  0
 12 51  1  0
 12 52  1  0
 14 53  1  0
 14 54  1  0
 14 55  1  0
 15 56  1  1
 16 57  1  0
 16 58  1  0
 17 59  1  0
 19 60  1  6
 20 61  1  0
 20 62  1  0
 21 63  1  0
 21 64  1  0
 22 65  1  6
 23 66  1  0
 25 67  1  0
 25 68  1  0
 25 69  1  0
 26 70  1  0
 26 71  1  0
 26 72  1  0
 28 73  1  0
 28 74  1  0
 28 75  1  0
 29 76  1  0
 29 77  1  0
 30 78  1  0
 30 79  1  0
 32 80  1  0
 32 81  1  0
 32 82  1  0
M  END
>  <meeko>  (15) 
{"is_sidechain": [false], "intermolecular_energy": 2.731, "internal_energy": -0.839}

$$$$
EPH_relaxed_0001_pdb2pqr_Repair_408_r2_0001_out
     RDKit          3D

 82 86  0  0  0  0  0  0  0  0999 V2000
   -1.1780   16.1920   -5.5530 C   0  0  0  0  0  0  0  0  0  0  0  0
    0.0280   15.5140   -6.2090 C   0  0  2  0  0  0  0  0  0  0  0  0
   -0.2490   15.1290   -7.6760 C   0  0  0  0  0  0  0  0  0  0  0  0
    0.2290   16.1730   -8.6870 C   0  0  0  0  0  0  0  0  0  0  0  0
    1.6520   15.9400   -9.0940 C   0  0  2  0  0  0  0  0  0  0  0  0
    2.0860   16.7090  -10.2240 O   0  0  0  0  0  0  0  0  0  0  0  0
    2.0520   15.2840  -10.4030 C   0  0  0  0  0  0  0  0  0  0  0  0
    1.0250   14.8190  -11.3870 C   0  0  0  0  0  0  0  0  0  0  0  0
    3.4070   14.6570  -10.5040 C   0  0  0  0  0  0  0  0  0  0  0  0
    0.4260   14.2770   -5.4120 C   0  0  1  0  0  0  0  0  0  0  0  0
    1.4630   13.3950   -6.1570 C   0  0  0  0  0  0  0  0  0  0  0  0
    2.3970   12.7930   -5.0750 C   0  0  0  0  0  0  0  0  0  0  0  0
    1.6760   13.0740   -3.7360 C   0  0  1  0  0  0  0  0  0  0  0  0
    0.6020   11.9480   -3.6150 C   0  0  0  0  0  0  0  0  0  0  0  0
    2.5820   13.1460   -2.4650 C   0  0  2  0  0  0  0  0  0  0  0  0
    3.3300   11.8460   -2.1220 C   0  0  0  0  0  0  0  0  0  0  0  0
    2.6040   10.9150   -1.2070 C   0  0  0  0  0  0  0  0  0  0  0  0
    1.5320   11.2330   -0.4580 C   0  0  0  0  0  0  0  0  0  0  0  0
    1.0030   12.6730   -0.4100 C   0  0  1  0  0  0  0  0  0  0  0  0
    0.7340   13.0770    1.0630 C   0  0  0  0  0  0  0  0  0  0  0  0
   -0.1860   12.0930    1.7810 C   0  0  0  0  0  0  0  0  0  0  0  0
    0.4020   10.6850    1.7630 C   0  0  2  0  0  0  0  0  0  0  0  0
    1.5920   10.6710    2.5570 O   0  0  0  0  0  0  0  0  0  0  0  0
    0.7240   10.1730    0.3310 C   0  0  0  0  0  0  0  0  0  0  0  0
   -0.5950    9.9010   -0.4330 C   0  0  0  0  0  0  0  0  0  0  0  0
    1.4400    8.8020    0.4630 C   0  0  0  0  0  0  0  0  0  0  0  0
    1.8660   13.7540   -1.1920 C   0  0  1  0  0  0  0  0  0  0  0  0
    2.9940   14.3050   -0.2660 C   0  0  0  0  0  0  0  0  0  0  0  0
    0.9480   14.9820   -1.5510 C   0  0  0  0  0  0  0  0  0  0  0  0
    0.1700   14.9030   -2.8780 C   0  0  0  0  0  0  0  0  0  0  0  0
    1.0940   14.5050   -4.0330 C   0  0  2  0  0  0  0  0  0  0  0  0
    2.1720   15.6300   -4.1930 C   0  0  0  0  0  0  0  0  0  0  0  0
   -1.0795   16.1366   -4.4588 H   0  0  0  0  0  0  0  0  0  0  0  0
   -1.2203   17.2461   -5.8645 H   0  0  0  0  0  0  0  0  0  0  0  0
   -2.1006   15.6803   -5.8645 H   0  0  0  0  0  0  0  0  0  0  0  0
    0.8556   16.2386   -6.2087 H   0  0  0  0  0  0  0  0  0  0  0  0
    0.2640   14.1795   -7.8886 H   0  0  0  0  0  0  0  0  0  0  0  0
   -1.3406   15.0505   -7.7870 H   0  0  0  0  0  0  0  0  0  0  0  0
   -0.4102   16.1224   -9.5808 H   0  0  0  0  0  0  0  0  0  0  0  0
    0.1660   17.1635   -8.2126 H   0  0  0  0  0  0  0  0  0  0  0  0
    1.9421   15.7437   -8.0513 H   0  0  0  0  0  0  0  0  0  0  0  0
    0.1521   14.4238  -10.8468 H   0  0  0  0  0  0  0  0  0  0  0  0
    0.7135   15.6639  -12.0188 H   0  0  0  0  0  0  0  0  0  0  0  0
    1.4544   14.0275  -12.0188 H   0  0  0  0  0  0  0  0  0  0  0  0
    3.8025   14.4740   -9.4940 H   0  0  0  0  0  0  0  0  0  0  0  0
    3.3301   13.7030  -11.0461 H   0  0  0  0  0  0  0  0  0  0  0  0
    4.0844   15.3332  -11.0461 H   0  0  0  0  0  0  0  0  0  0  0  0
   -0.5639   13.8161   -5.2789 H   0  0  0  0  0  0  0  0  0  0  0  0
    0.9515   12.5907   -6.7061 H   0  0  0  0  0  0  0  0  0  0  0  0
    2.0341   13.9876   -6.8868 H   0  0  0  0  0  0  0  0  0  0  0  0
    2.5224   11.7110   -5.2288 H   0  0  0  0  0  0  0  0  0  0  0  0
    3.4059   13.2304   -5.1050 H   0  0  0  0  0  0  0  0  0  0  0  0
    0.4052   11.7417   -2.5526 H   0  0  0  0  0  0  0  0  0  0  0  0
   -0.3280   12.2743   -4.1036 H   0  0  0  0  0  0  0  0  0  0  0  0
    0.9719   11.0345   -4.1036 H   0  0  0  0  0  0  0  0  0  0  0  0
    3.3571   13.8650   -2.7689 H   0  0  0  0  0  0  0  0  0  0  0  0
    3.5307   11.3111   -3.0620 H   0  0  0  0  0  0  0  0  0  0  0  0
    4.2408   12.1511   -1.5859 H   0  0  0  0  0  0  0  0  0  0  0  0
    2.9770    9.8824   -1.1397 H   0  0  0  0  0  0  0  0  0  0  0  0
    0.0585   12.6696   -0.9738 H   0  0  0  0  0  0  0  0  0  0  0  0
    1.6940   13.1173    1.5986 H   0  0  0  0  0  0  0  0  0  0  0  0
    0.2338   14.0566    1.0546 H   0  0  0  0  0  0  0  0  0  0  0  0
   -0.3147   12.4162    2.8245 H   0  0  0  0  0  0  0  0  0  0  0  0
   -1.1555   12.0755    1.2617 H   0  0  0  0  0  0  0  0  0  0  0  0
   -0.3587   10.0059    2.1755 H   0  0  0  0  0  0  0  0  0  0  0  0
    2.3370   10.4660    1.9680 H   0  0  0  0  0  0  0  0  0  0  0  0
   -1.4085    9.7332    0.2881 H   0  0  0  0  0  0  0  0  0  0  0  0
   -0.8382   10.7679   -1.0649 H   0  0  0  0  0  0  0  0  0  0  0  0
   -0.4754    9.0086   -1.0649 H   0  0  0  0  0  0  0  0  0  0  0  0
    1.5683    8.5563    1.5275 H   0  0  0  0  0  0  0  0  0  0  0  0
    0.8334    8.0233   -0.0225 H   0  0  0  0  0  0  0  0  0  0  0  0
    2.4257    8.8548   -0.0225 H   0  0  0  0  0  0  0  0  0  0  0  0
    2.7060   14.1643    0.7863 H   0  0  0  0  0  0  0  0  0  0  0  0
    3.9299   13.7626   -0.4656 H   0  0  0  0  0  0  0  0  0  0  0  0
    3.1415   15.3766   -0.4656 H   0  0  0  0  0  0  0  0  0  0  0  0
    0.2130   15.0962   -0.7406 H   0  0  0  0  0  0  0  0  0  0  0  0
    1.6370   15.8310   -1.6714 H   0  0  0  0  0  0  0  0  0  0  0  0
   -0.6295   14.1535   -2.7822 H   0  0  0  0  0  0  0  0  0  0  0  0
   -0.2550   15.8942   -3.0947 H   0  0  0  0  0  0  0  0  0  0  0  0
    2.4976   15.9698   -3.1988 H   0  0  0  0  0  0  0  0  0  0  0  0
    3.0362   15.2337   -4.7463 H   0  0  0  0  0  0  0  0  0  0  0  0
    1.7392   16.4765   -4.7463 H   0  0  0  0  0  0  0  0  0  0  0  0
  1  2  1  0
  2  3  1  0
  3  4  1  0
  4  5  1  0
  5  6  1  0
  6  7  1  0
  7  8  1  0
  7  9  1  0
  2 10  1  0
 10 11  1  0
 11 12  1  0
 12 13  1  0
 13 14  1  1
 13 15  1  0
 15 16  1  0
 16 17  1  0
 17 18  2  0
 18 19  1  0
 19 20  1  0
 20 21  1  0
 21 22  1  0
 22 23  1  0
 22 24  1  0
 24 25  1  0
 24 26  1  0
 19 27  1  0
 27 28  1  1
 27 29  1  0
 29 30  1  0
 30 31  1  0
 31 32  1  6
  7  5  1  0
 31 10  1  0
 31 13  1  0
 27 15  1  0
 24 18  1  0
  1 33  1  0
  1 34  1  0
  1 35  1  0
  2 36  1  6
  3 37  1  0
  3 38  1  0
  4 39  1  0
  4 40  1  0
  5 41  1  1
  8 42  1  0
  8 43  1  0
  8 44  1  0
  9 45  1  0
  9 46  1  0
  9 47  1  0
 10 48  1  1
 11 49  1  0
 11 50  1  0
 12 51  1  0
 12 52  1  0
 14 53  1  0
 14 54  1  0
 14 55  1  0
 15 56  1  6
 16 57  1  0
 16 58  1  0
 17 59  1  0
 19 60  1  6
 20 61  1  0
 20 62  1  0
 21 63  1  0
 21 64  1  0
 22 65  1  1
 23 66  1  0
 25 67  1  0
 25 68  1  0
 25 69  1  0
 26 70  1  0
 26 71  1  0
 26 72  1  0
 28 73  1  0
 28 74  1  0
 28 75  1  0
 29 76  1  0
 29 77  1  0
 30 78  1  0
 30 79  1  0
 32 80  1  0
 32 81  1  0
 32 82  1  0
M  END
>  <meeko>  (16) 
{"is_sidechain": [false], "intermolecular_energy": 2.731, "internal_energy": -0.839}

$$$$
EPH_relaxed_0001_pdb2pqr_Repair_408_r2_0001_out
     RDKit          3D

 82 86  0  0  0  0  0  0  0  0999 V2000
    0.8070   13.7340   -5.8560 C   0  0  0  0  0  0  0  0  0  0  0  0
    1.8420   13.1520   -4.8890 C   0  0  2  0  0  0  0  0  0  0  0  0
    2.2520   11.7160   -5.2730 C   0  0  0  0  0  0  0  0  0  0  0  0
    3.7160   11.5880   -5.7010 C   0  0  0  0  0  0  0  0  0  0  0  0
    4.6180   11.3520   -4.5270 C   0  0  2  0  0  0  0  0  0  0  0  0
    5.6380   12.3440   -4.3470 O   0  0  0  0  0  0  0  0  0  0  0  0
    6.0920   11.0170   -4.6590 C   0  0  0  0  0  0  0  0  0  0  0  0
    6.7490   10.8970   -5.9990 C   0  0  0  0  0  0  0  0  0  0  0  0
    6.7740   10.3290   -3.5180 C   0  0  0  0  0  0  0  0  0  0  0  0
    1.2940   13.1740   -3.4670 C   0  0  1  0  0  0  0  0  0  0  0  0
   -0.1900   13.6250   -3.4050 C   0  0  0  0  0  0  0  0  0  0  0  0
   -0.8530   12.8210   -2.2570 C   0  0  0  0  0  0  0  0  0  0  0  0
    0.3300   12.1890   -1.4880 C   0  0  1  0  0  0  0  0  0  0  0  0
    0.8560   13.3270   -0.5570 C   0  0  0  0  0  0  0  0  0  0  0  0
    0.0150   10.8860   -0.6850 C   0  0  2  0  0  0  0  0  0  0  0  0
   -1.0110   11.0500    0.4500 C   0  0  0  0  0  0  0  0  0  0  0  0
   -0.4360   11.3970    1.7840 C   0  0  0  0  0  0  0  0  0  0  0  0
    0.8610   11.2920    2.1280 C   0  0  0  0  0  0  0  0  0  0  0  0
    1.8870   10.6900    1.1600 C   0  0  1  0  0  0  0  0  0  0  0  0
    2.7770    9.6690    1.9170 C   0  0  0  0  0  0  0  0  0  0  0  0
    3.4290   10.2700    3.1580 C   0  0  0  0  0  0  0  0  0  0  0  0
    2.3750   10.8060    4.1230 C   0  0  2  0  0  0  0  0  0  0  0  0
    1.6210    9.7050    4.6400 O   0  0  0  0  0  0  0  0  0  0  0  0
    1.4120   11.8360    3.4690 C   0  0  0  0  0  0  0  0  0  0  0  0
    2.1770   13.1530    3.1820 C   0  0  0  0  0  0  0  0  0  0  0  0
    0.3140   12.1900    4.5070 C   0  0  0  0  0  0  0  0  0  0  0  0
    1.2990   10.1000   -0.1940 C   0  0  1  0  0  0  0  0  0  0  0  0
    0.8610    8.6190    0.0160 C   0  0  0  0  0  0  0  0  0  0  0  0
    2.4370   10.0760   -1.2820 C   0  0  0  0  0  0  0  0  0  0  0  0
    2.6200   11.3530   -2.1240 C   0  0  0  0  0  0  0  0  0  0  0  0
    1.2800   11.8340   -2.6890 C   0  0  2  0  0  0  0  0  0  0  0  0
    0.7370   10.7200   -3.6470 C   0  0  0  0  0  0  0  0  0  0  0  0
   -0.0116   14.1943   -5.2834 H   0  0  0  0  0  0  0  0  0  0  0  0
    1.2848   14.4957   -6.4896 H   0  0  0  0  0  0  0  0  0  0  0  0
    0.4044   12.9300   -6.4896 H   0  0  0  0  0  0  0  0  0  0  0  0
    2.7428   13.7803   -4.9505 H   0  0  0  0  0  0  0  0  0  0  0  0
    2.0860   11.0631   -4.4034 H   0  0  0  0  0  0  0  0  0  0  0  0
    1.6375   11.4266   -6.1383 H   0  0  0  0  0  0  0  0  0  0  0  0
    3.8108   10.7431   -6.3990 H   0  0  0  0  0  0  0  0  0  0  0  0
    4.0169   12.5311   -6.1806 H   0  0  0  0  0  0  0  0  0  0  0  0
    3.8009   10.8771   -3.9642 H   0  0  0  0  0  0  0  0  0  0  0  0
    7.8230   10.7008   -5.8645 H   0  0  0  0  0  0  0  0  0  0  0  0
    6.2920   10.0675   -6.5585 H   0  0  0  0  0  0  0  0  0  0  0  0
    6.6147   11.8345   -6.5585 H   0  0  0  0  0  0  0  0  0  0  0  0
    6.3845   10.7219   -2.5673 H   0  0  0  0  0  0  0  0  0  0  0  0
    6.5815    9.2474   -3.5741 H   0  0  0  0  0  0  0  0  0  0  0  0
    7.8572   10.5120   -3.5741 H   0  0  0  0  0  0  0  0  0  0  0  0
    2.0097   13.8698   -3.0048 H   0  0  0  0  0  0  0  0  0  0  0  0
   -0.2500   14.7034   -3.1963 H   0  0  0  0  0  0  0  0  0  0  0  0
   -0.6996   13.4409   -4.3623 H   0  0  0  0  0  0  0  0  0  0  0  0
   -1.4312   13.4874   -1.6001 H   0  0  0  0  0  0  0  0  0  0  0  0
   -1.5583   12.0645   -2.6314 H   0  0  0  0  0  0  0  0  0  0  0  0
    0.7201   13.0330    0.4942 H   0  0  0  0  0  0  0  0  0  0  0  0
    1.9245   13.4980   -0.7547 H   0  0  0  0  0  0  0  0  0  0  0  0
    0.2940   14.2517   -0.7547 H   0  0  0  0  0  0  0  0  0  0  0  0
   -0.4752   10.2562   -1.4420 H   0  0  0  0  0  0  0  0  0  0  0  0
   -1.7106   11.8489    0.1631 H   0  0  0  0  0  0  0  0  0  0  0  0
   -1.4905   10.0675    0.5713 H   0  0  0  0  0  0  0  0  0  0  0  0
   -1.1314   11.7700    2.5503 H   0  0  0  0  0  0  0  0  0  0  0  0
    2.5017   11.5311    0.8068 H   0  0  0  0  0  0  0  0  0  0  0  0
    2.1531    8.8166    2.2240 H   0  0  0  0  0  0  0  0  0  0  0  0
    3.5814    9.3564    1.2349 H   0  0  0  0  0  0  0  0  0  0  0  0
    4.0202    9.4937    3.6657 H   0  0  0  0  0  0  0  0  0  0  0  0
    4.0754   11.1035    2.8460 H   0  0  0  0  0  0  0  0  0  0  0  0
    2.9047   11.3381    4.9269 H   0  0  0  0  0  0  0  0  0  0  0  0
    1.9130    8.9040    4.1730 H   0  0  0  0  0  0  0  0  0  0  0  0
    2.4544   13.6306    4.1333 H   0  0  0  0  0  0  0  0  0  0  0  0
    3.0864   12.9304    2.6045 H   0  0  0  0  0  0  0  0  0  0  0  0
    1.5331   13.8327    2.6045 H   0  0  0  0  0  0  0  0  0  0  0  0
    0.7148   12.0608    5.5232 H   0  0  0  0  0  0  0  0  0  0  0  0
    0.0001   13.2349    4.3668 H   0  0  0  0  0  0  0  0  0  0  0  0
   -0.5511   11.5252    4.3668 H   0  0  0  0  0  0  0  0  0  0  0  0
    0.7976    8.4046    1.0930 H   0  0  0  0  0  0  0  0  0  0  0  0
   -0.1231    8.4583   -0.4484 H   0  0  0  0  0  0  0  0  0  0  0  0
    1.5994    7.9489   -0.4484 H   0  0  0  0  0  0  0  0  0  0  0  0
    3.3877    9.8793   -0.7649 H   0  0  0  0  0  0  0  0  0  0  0  0
    2.1331    9.2994   -1.9993 H   0  0  0  0  0  0  0  0  0  0  0  0
    3.0479   12.1437   -1.4902 H   0  0  0  0  0  0  0  0  0  0  0  0
    3.2934   11.1259   -2.9636 H   0  0  0  0  0  0  0  0  0  0  0  0
    0.3320    9.8891   -3.0507 H   0  0  0  0  0  0  0  0  0  0  0  0
   -0.0585   11.1378   -4.2815 H   0  0  0  0  0  0  0  0  0  0  0  0
    1.5562   10.3508   -4.2815 H   0  0  0  0  0  0  0  0  0  0  0  0
  1  2  1  0
  2  3  1  0
  3  4  1  0
  4  5  1  0
  5  6  1  0
  6  7  1  0
  7  8  1  0
  7  9  1  0
  2 10  1  0
 10 11  1  0
 11 12  1  0
 12 13  1  0
 13 14  1  1
 13 15  1  0
 15 16  1  0
 16 17  1  0
 17 18  2  0
 18 19  1  0
 19 20  1  0
 20 21  1  0
 21 22  1  0
 22 23  1  0
 22 24  1  0
 24 25  1  0
 24 26  1  0
 19 27  1  0
 27 28  1  1
 27 29  1  0
 29 30  1  0
 30 31  1  0
 31 32  1  6
  7  5  1  0
 31 10  1  0
 31 13  1  0
 27 15  1  0
 24 18  1  0
  1 33  1  0
  1 34  1  0
  1 35  1  0
  2 36  1  1
  3 37  1  0
  3 38  1  0
  4 39  1  0
  4 40  1  0
  5 41  1  1
  8 42  1  0
  8 43  1  0
  8 44  1  0
  9 45  1  0
  9 46  1  0
  9 47  1  0
 10 48  1  1
 11 49  1  0
 11 50  1  0
 12 51  1  0
 12 52  1  0
 14 53  1  0
 14 54  1  0
 14 55  1  0
 15 56  1  6
 16 57  1  0
 16 58  1  0
 17 59  1  0
 19 60  1  6
 20 61  1  0
 20 62  1  0
 21 63  1  0
 21 64  1  0
 22 65  1  1
 23 66  1  0
 25 67  1  0
 25 68  1  0
 25 69  1  0
 26 70  1  0
 26 71  1  0
 26 72  1  0
 28 73  1  0
 28 74  1  0
 28 75  1  0
 29 76  1  0
 29 77  1  0
 30 78  1  0
 30 79  1  0
 32 80  1  0
 32 81  1  0
 32 82  1  0
M  END
>  <meeko>  (17) 
{"is_sidechain": [false], "intermolecular_energy": 2.731, "internal_energy": -0.839}

$$$$
EPH_relaxed_0001_pdb2pqr_Repair_408_r2_0001_out
     RDKit          3D

 82 86  0  0  0  0  0  0  0  0999 V2000
   -0.2860   15.1510   -7.3870 C   0  0  0  0  0  0  0  0  0  0  0  0
    1.1260   15.0360   -6.8070 C   0  0  2  0  0  0  0  0  0  0  0  0
    2.2080   15.0570   -7.9060 C   0  0  0  0  0  0  0  0  0  0  0  0
    2.2950   16.3880   -8.6580 C   0  0  0  0  0  0  0  0  0  0  0  0
    1.8780   16.2430  -10.0900 C   0  0  2  0  0  0  0  0  0  0  0  0
    1.1940   15.0210  -10.3940 O   0  0  0  0  0  0  0  0  0  0  0  0
    2.4670   15.2100  -11.0330 C   0  0  0  0  0  0  0  0  0  0  0  0
    3.5230   14.2520  -10.5790 C   0  0  0  0  0  0  0  0  0  0  0  0
    2.3710   15.4500  -12.5070 C   0  0  0  0  0  0  0  0  0  0  0  0
    1.2470   13.7610   -5.9810 C   0  0  1  0  0  0  0  0  0  0  0  0
    2.6780   13.1610   -6.0150 C   0  0  0  0  0  0  0  0  0  0  0  0
    2.9360   12.5390   -4.6180 C   0  0  0  0  0  0  0  0  0  0  0  0
    1.5440   12.5050   -3.9440 C   0  0  1  0  0  0  0  0  0  0  0  0
    0.8490   11.2320   -4.5220 C   0  0  0  0  0  0  0  0  0  0  0  0
    1.5330   12.5090   -2.3810 C   0  0  2  0  0  0  0  0  0  0  0  0
    2.2030   11.2910   -1.7210 C   0  0  0  0  0  0  0  0  0  0  0  0
    1.2970   10.1370   -1.4440 C   0  0  0  0  0  0  0  0  0  0  0  0
   -0.0480   10.1800   -1.4500 C   0  0  0  0  0  0  0  0  0  0  0  0
   -0.7930   11.5040   -1.6600 C   0  0  1  0  0  0  0  0  0  0  0  0
   -1.9250   11.6340   -0.6080 C   0  0  0  0  0  0  0  0  0  0  0  0
   -2.8630   10.4310   -0.6060 C   0  0  0  0  0  0  0  0  0  0  0  0
   -2.0940    9.1400   -0.3360 C   0  0  2  0  0  0  0  0  0  0  0  0
   -1.5910    9.1740    1.0030 O   0  0  0  0  0  0  0  0  0  0  0  0
   -0.9220    8.9070   -1.3300 C   0  0  0  0  0  0  0  0  0  0  0  0
   -1.4860    8.5700   -2.7320 C   0  0  0  0  0  0  0  0  0  0  0  0
   -0.1430    7.6480   -0.8610 C   0  0  0  0  0  0  0  0  0  0  0  0
    0.1160   12.8050   -1.7430 C   0  0  1  0  0  0  0  0  0  0  0  0
    0.3800   13.3620   -0.3100 C   0  0  0  0  0  0  0  0  0  0  0  0
   -0.6660   13.9300   -2.5190 C   0  0  0  0  0  0  0  0  0  0  0  0
   -0.5200   13.9470   -4.0520 C   0  0  0  0  0  0  0  0  0  0  0  0
    0.9540   13.8660   -4.4630 C   0  0  2  0  0  0  0  0  0  0  0  0
    1.6740   15.1450   -3.9150 C   0  0  0  0  0  0  0  0  0  0  0  0
   -1.0158   15.2104   -6.5662 H   0  0  0  0  0  0  0  0  0  0  0  0
   -0.3555   16.0578   -8.0058 H   0  0  0  0  0  0  0  0  0  0  0  0
   -0.5013   14.2674   -8.0058 H   0  0  0  0  0  0  0  0  0  0  0  0
    1.2918   15.9124   -6.1632 H   0  0  0  0  0  0  0  0  0  0  0  0
    3.1831   14.8584   -7.4373 H   0  0  0  0  0  0  0  0  0  0  0  0
    1.9327   14.2884   -8.6432 H   0  0  0  0  0  0  0  0  0  0  0  0
    1.6357   17.1188   -8.1668 H   0  0  0  0  0  0  0  0  0  0  0  0
    3.3416   16.7258   -8.6378 H   0  0  0  0  0  0  0  0  0  0  0  0
    1.7350   17.3297  -10.1824 H   0  0  0  0  0  0  0  0  0  0  0  0
    3.5487   14.2287   -9.4795 H   0  0  0  0  0  0  0  0  0  0  0  0
    3.2948   13.2463  -10.9619 H   0  0  0  0  0  0  0  0  0  0  0  0
    4.5018   14.5767  -10.9619 H   0  0  0  0  0  0  0  0  0  0  0  0
    1.9681   16.4572  -12.6890 H   0  0  0  0  0  0  0  0  0  0  0  0
    3.3711   15.3681  -12.9577 H   0  0  0  0  0  0  0  0  0  0  0  0
    1.7033   14.7010  -12.9577 H   0  0  0  0  0  0  0  0  0  0  0  0
    0.4754   13.1496   -6.4718 H   0  0  0  0  0  0  0  0  0  0  0  0
    2.7454   12.3862   -6.7929 H   0  0  0  0  0  0  0  0  0  0  0  0
    3.4250   13.9344   -6.2469 H   0  0  0  0  0  0  0  0  0  0  0  0
    3.3457   11.5227   -4.7149 H   0  0  0  0  0  0  0  0  0  0  0  0
    3.6689   13.1145   -4.0336 H   0  0  0  0  0  0  0  0  0  0  0  0
    0.5018   10.5961   -3.6943 H   0  0  0  0  0  0  0  0  0  0  0  0
   -0.0105   11.5319   -5.1394 H   0  0  0  0  0  0  0  0  0  0  0  0
    1.5661   10.6711   -5.1394 H   0  0  0  0  0  0  0  0  0  0  0  0
    2.1756   13.3695   -2.1431 H   0  0  0  0  0  0  0  0  0  0  0  0
    3.0048   10.9412   -2.3879 H   0  0  0  0  0  0  0  0  0  0  0  0
    2.5643   11.6363   -0.7411 H   0  0  0  0  0  0  0  0  0  0  0  0
    1.7688    9.1699   -1.2157 H   0  0  0  0  0  0  0  0  0  0  0  0
   -1.2267   11.4522   -2.6696 H   0  0  0  0  0  0  0  0  0  0  0  0
   -1.4704   11.7283    0.3892 H   0  0  0  0  0  0  0  0  0  0  0  0
   -2.5210   12.5215   -0.8669 H   0  0  0  0  0  0  0  0  0  0  0  0
   -3.6227   10.5681    0.1776 H   0  0  0  0  0  0  0  0  0  0  0  0
   -3.3395   10.3557   -1.5946 H   0  0  0  0  0  0  0  0  0  0  0  0
   -2.7942    8.3031   -0.4750 H   0  0  0  0  0  0  0  0  0  0  0  0
   -1.4770    8.2550    1.2980 H   0  0  0  0  0  0  0  0  0  0  0  0
   -2.4257    8.0085   -2.6239 H   0  0  0  0  0  0  0  0  0  0  0  0
   -1.6772    9.5020   -3.2841 H   0  0  0  0  0  0  0  0  0  0  0  0
   -0.7558    7.9600   -3.2841 H   0  0  0  0  0  0  0  0  0  0  0  0
   -0.1239    7.6171    0.2384 H   0  0  0  0  0  0  0  0  0  0  0  0
   -0.6404    6.7450   -1.2446 H   0  0  0  0  0  0  0  0  0  0  0  0
    0.8871    7.6902   -1.2446 H   0  0  0  0  0  0  0  0  0  0  0  0
    0.0340   12.6320    0.4366 H   0  0  0  0  0  0  0  0  0  0  0  0
    1.4577   13.5387   -0.1781 H   0  0  0  0  0  0  0  0  0  0  0  0
   -0.1655   14.3080   -0.1781 H   0  0  0  0  0  0  0  0  0  0  0  0
   -1.7350   13.8119   -2.2880 H   0  0  0  0  0  0  0  0  0  0  0  0
   -0.2220   14.8766   -2.1774 H   0  0  0  0  0  0  0  0  0  0  0  0
   -1.0593   13.0864   -4.4745 H   0  0  0  0  0  0  0  0  0  0  0  0
   -0.9396   14.8893   -4.4341 H   0  0  0  0  0  0  0  0  0  0  0  0
    1.6646   15.1282   -2.8152 H   0  0  0  0  0  0  0  0  0  0  0  0
    2.7141   15.1618   -4.2725 H   0  0  0  0  0  0  0  0  0  0  0  0
    1.1488   16.0430   -4.2725 H   0  0  0  0  0  0  0  0  0  0  0  0
  1  2  1  0
  2  3  1  0
  3  4  1  0
  4  5  1  0
  5  6  1  0
  6  7  1  0
  7  8  1  0
  7  9  1  0
  2 10  1  0
 10 11  1  0
 11 12  1  0
 12 13  1  0
 13 14  1  6
 13 15  1  0
 15 16  1  0
 16 17  1  0
 17 18  2  0
 18 19  1  0
 19 20  1  0
 20 21  1  0
 21 22  1  0
 22 23  1  0
 22 24  1  0
 24 25  1  0
 24 26  1  0
 19 27  1  0
 27 28  1  1
 27 29  1  0
 29 30  1  0
 30 31  1  0
 31 32  1  1
  7  5  1  0
 31 10  1  0
 31 13  1  0
 27 15  1  0
 24 18  1  0
  1 33  1  0
  1 34  1  0
  1 35  1  0
  2 36  1  1
  3 37  1  0
  3 38  1  0
  4 39  1  0
  4 40  1  0
  5 41  1  6
  8 42  1  0
  8 43  1  0
  8 44  1  0
  9 45  1  0
  9 46  1  0
  9 47  1  0
 10 48  1  6
 11 49  1  0
 11 50  1  0
 12 51  1  0
 12 52  1  0
 14 53  1  0
 14 54  1  0
 14 55  1  0
 15 56  1  1
 16 57  1  0
 16 58  1  0
 17 59  1  0
 19 60  1  6
 20 61  1  0
 20 62  1  0
 21 63  1  0
 21 64  1  0
 22 65  1  1
 23 66  1  0
 25 67  1  0
 25 68  1  0
 25 69  1  0
 26 70  1  0
 26 71  1  0
 26 72  1  0
 28 73  1  0
 28 74  1  0
 28 75  1  0
 29 76  1  0
 29 77  1  0
 30 78  1  0
 30 79  1  0
 32 80  1  0
 32 81  1  0
 32 82  1  0
M  END
>  <meeko>  (18) 
{"is_sidechain": [false], "intermolecular_energy": 2.731, "internal_energy": -0.839}

$$$$
