EPH_relaxed_0001_pdb2pqr_Repair_311_r2_0001_out
     RDKit          3D

 82 86  0  0  0  0  0  0  0  0999 V2000
    2.4800   17.2040   -0.5010 C   0  0  0  0  0  0  0  0  0  0  0  0
    1.9530   17.3380   -1.9320 C   0  0  2  0  0  0  0  0  0  0  0  0
    1.0290   18.5600   -2.0990 C   0  0  0  0  0  0  0  0  0  0  0  0
    1.1200   19.5630   -0.9460 C   0  0  0  0  0  0  0  0  0  0  0  0
   -0.2210   20.1380   -0.6040 C   0  0  2  0  0  0  0  0  0  0  0  0
   -0.5080   20.1930    0.8000 O   0  0  0  0  0  0  0  0  0  0  0  0
   -1.3450   19.3280    0.0150 C   0  0  0  0  0  0  0  0  0  0  0  0
   -1.1780   17.8740    0.3270 C   0  0  0  0  0  0  0  0  0  0  0  0
   -2.7500   19.8230   -0.1350 C   0  0  0  0  0  0  0  0  0  0  0  0
    1.2140   16.0670   -2.3350 C   0  0  1  0  0  0  0  0  0  0  0  0
    0.8180   16.0560   -3.8350 C   0  0  0  0  0  0  0  0  0  0  0  0
    0.9300   14.5870   -4.3170 C   0  0  0  0  0  0  0  0  0  0  0  0
    1.0620   13.7590   -3.0170 C   0  0  1  0  0  0  0  0  0  0  0  0
   -0.3990   13.6060   -2.4890 C   0  0  0  0  0  0  0  0  0  0  0  0
    1.7750   12.3740   -3.1490 C   0  0  2  0  0  0  0  0  0  0  0  0
    1.0690   11.3600   -4.0650 C   0  0  0  0  0  0  0  0  0  0  0  0
    0.0790   10.4700   -3.3890 C   0  0  0  0  0  0  0  0  0  0  0  0
   -0.0260   10.2860   -2.0600 C   0  0  0  0  0  0  0  0  0  0  0  0
    0.9720   10.9360   -1.0930 C   0  0  1  0  0  0  0  0  0  0  0  0
    1.4480    9.8850   -0.0560 C   0  0  0  0  0  0  0  0  0  0  0  0
    0.2870    9.2120    0.6700 C   0  0  0  0  0  0  0  0  0  0  0  0
   -0.6520    8.5270   -0.3210 C   0  0  2  0  0  0  0  0  0  0  0  0
    0.0410    7.4340   -0.9320 O   0  0  0  0  0  0  0  0  0  0  0  0
   -1.1880    9.4870   -1.4200 C   0  0  0  0  0  0  0  0  0  0  0  0
   -2.1830   10.4940   -0.7920 C   0  0  0  0  0  0  0  0  0  0  0  0
   -2.0070    8.6420   -2.4330 C   0  0  0  0  0  0  0  0  0  0  0  0
    2.1800   11.7190   -1.7660 C   0  0  1  0  0  0  0  0  0  0  0  0
    3.3510   10.7350   -2.0660 C   0  0  0  0  0  0  0  0  0  0  0  0
    2.7400   12.7780   -0.7440 C   0  0  0  0  0  0  0  0  0  0  0  0
    2.0720   14.1660   -0.7450 C   0  0  0  0  0  0  0  0  0  0  0  0
    1.9670   14.7230   -2.1680 C   0  0  2  0  0  0  0  0  0  0  0  0
    3.4230   14.9080   -2.7170 C   0  0  0  0  0  0  0  0  0  0  0  0
    1.6667   17.4108    0.2101 H   0  0  0  0  0  0  0  0  0  0  0  0
    2.8547   16.1820   -0.3424 H   0  0  0  0  0  0  0  0  0  0  0  0
    3.2973   17.9229   -0.3424 H   0  0  0  0  0  0  0  0  0  0  0  0
    2.8208   17.4885   -2.5910 H   0  0  0  0  0  0  0  0  0  0  0  0
    1.3017   19.0767   -3.0310 H   0  0  0  0  0  0  0  0  0  0  0  0
   -0.0039   18.1820   -2.1152 H   0  0  0  0  0  0  0  0  0  0  0  0
    1.5251   19.0519   -0.0602 H   0  0  0  0  0  0  0  0  0  0  0  0
    1.7766   20.3877   -1.2602 H   0  0  0  0  0  0  0  0  0  0  0  0
   -0.1862   20.8025   -1.4799 H   0  0  0  0  0  0  0  0  0  0  0  0
   -1.1618   17.7326    1.4177 H   0  0  0  0  0  0  0  0  0  0  0  0
   -2.0170   17.3078   -0.1037 H   0  0  0  0  0  0  0  0  0  0  0  0
   -0.2325   17.5128   -0.1037 H   0  0  0  0  0  0  0  0  0  0  0  0
   -3.1921   19.9788    0.8601 H   0  0  0  0  0  0  0  0  0  0  0  0
   -2.7466   20.7741   -0.6877 H   0  0  0  0  0  0  0  0  0  0  0  0
   -3.3435   19.0799   -0.6877 H   0  0  0  0  0  0  0  0  0  0  0  0
    0.3689   16.1150   -1.6325 H   0  0  0  0  0  0  0  0  0  0  0  0
   -0.2139   16.4169   -3.9569 H   0  0  0  0  0  0  0  0  0  0  0  0
    1.4750   16.7150   -4.4215 H   0  0  0  0  0  0  0  0  0  0  0  0
    0.0296   14.2919   -4.8757 H   0  0  0  0  0  0  0  0  0  0  0  0
    1.7812   14.4347   -4.9969 H   0  0  0  0  0  0  0  0  0  0  0  0
   -0.3933   13.6066   -1.3890 H   0  0  0  0  0  0  0  0  0  0  0  0
   -1.0102   14.4451   -2.8530 H   0  0  0  0  0  0  0  0  0  0  0  0
   -0.8231   12.6585   -2.8530 H   0  0  0  0  0  0  0  0  0  0  0  0
    2.7103   12.6395   -3.6634 H   0  0  0  0  0  0  0  0  0  0  0  0
    0.5408   11.9214   -4.8498 H   0  0  0  0  0  0  0  0  0  0  0  0
    1.8583   10.6984   -4.4513 H   0  0  0  0  0  0  0  0  0  0  0  0
   -0.6235    9.9184   -4.0311 H   0  0  0  0  0  0  0  0  0  0  0  0
    0.4213   11.7405   -0.5835 H   0  0  0  0  0  0  0  0  0  0  0  0
    2.0319    9.1132   -0.5788 H   0  0  0  0  0  0  0  0  0  0  0  0
    2.0537   10.4099    0.6974 H   0  0  0  0  0  0  0  0  0  0  0  0
    0.6855    8.4602    1.3672 H   0  0  0  0  0  0  0  0  0  0  0  0
   -0.2789    9.9809    1.2164 H   0  0  0  0  0  0  0  0  0  0  0  0
   -1.5287    8.1756    0.2429 H   0  0  0  0  0  0  0  0  0  0  0  0
    0.3210    7.7220   -1.8170 H   0  0  0  0  0  0  0  0  0  0  0  0
   -2.1230   10.4333    0.3047 H   0  0  0  0  0  0  0  0  0  0  0  0
   -1.9275   11.5133   -1.1173 H   0  0  0  0  0  0  0  0  0  0  0  0
   -3.2052   10.2507   -1.1173 H   0  0  0  0  0  0  0  0  0  0  0  0
   -2.6713    7.9566   -1.8862 H   0  0  0  0  0  0  0  0  0  0  0  0
   -2.6099    9.3105   -3.0652 H   0  0  0  0  0  0  0  0  0  0  0  0
   -1.3200    8.0603   -3.0652 H   0  0  0  0  0  0  0  0  0  0  0  0
    3.7793   10.3751   -1.1189 H   0  0  0  0  0  0  0  0  0  0  0  0
    2.9723    9.8801   -2.6454 H   0  0  0  0  0  0  0  0  0  0  0  0
    4.1279   11.2553   -2.6454 H   0  0  0  0  0  0  0  0  0  0  0  0
    2.6295   12.3564    0.2660 H   0  0  0  0  0  0  0  0  0  0  0  0
    3.7788   12.9587   -1.0574 H   0  0  0  0  0  0  0  0  0  0  0  0
    1.0624   14.0797   -0.3170 H   0  0  0  0  0  0  0  0  0  0  0  0
    2.6876   14.8519   -0.1445 H   0  0  0  0  0  0  0  0  0  0  0  0
    4.1241   14.9971   -1.8741 H   0  0  0  0  0  0  0  0  0  0  0  0
    3.6967   14.0374   -3.3311 H   0  0  0  0  0  0  0  0  0  0  0  0
    3.4703   15.8194   -3.3311 H   0  0  0  0  0  0  0  0  0  0  0  0
  1  2  1  0
  2  3  1  0
  3  4  1  0
  4  5  1  0
  5  6  1  0
  6  7  1  0
  7  8  1  0
  7  9  1  0
  2 10  1  0
 10 11  1  0
 11 12  1  0
 12 13  1  0
 13 14  1  1
 13 15  1  0
 15 16  1  0
 16 17  1  0
 17 18  2  0
 18 19  1  0
 19 20  1  0
 20 21  1  0
 21 22  1  0
 22 23  1  0
 22 24  1  0
 24 25  1  0
 24 26  1  0
 19 27  1  0
 27 28  1  6
 27 29  1  0
 29 30  1  0
 30 31  1  0
 31 32  1  6
  7  5  1  0
 31 10  1  0
 31 13  1  0
 27 15  1  0
 24 18  1  0
  1 33  1  0
  1 34  1  0
  1 35  1  0
  2 36  1  6
  3 37  1  0
  3 38  1  0
  4 39  1  0
  4 40  1  0
  5 41  1  6
  8 42  1  0
  8 43  1  0
  8 44  1  0
  9 45  1  0
  9 46  1  0
  9 47  1  0
 10 48  1  1
 11 49  1  0
 11 50  1  0
 12 51  1  0
 12 52  1  0
 14 53  1  0
 14 54  1  0
 14 55  1  0
 15 56  1  6
 16 57  1  0
 16 58  1  0
 17 59  1  0
 19 60  1  1
 20 61  1  0
 20 62  1  0
 21 63  1  0
 21 64  1  0
 22 65  1  1
 23 66  1  0
 25 67  1  0
 25 68  1  0
 25 69  1  0
 26 70  1  0
 26 71  1  0
 26 72  1  0
 28 73  1  0
 28 74  1  0
 28 75  1  0
 29 76  1  0
 29 77  1  0
 30 78  1  0
 30 79  1  0
 32 80  1  0
 32 81  1  0
 32 82  1  0
M  END
>  <meeko>  (1) 
{"is_sidechain": [false], "intermolecular_energy": 2.731, "internal_energy": -0.839}

$$$$
EPH_relaxed_0001_pdb2pqr_Repair_311_r2_0001_out
     RDKit          3D

 82 86  0  0  0  0  0  0  0  0999 V2000
    2.3590   20.1940   -0.6650 C   0  0  0  0  0  0  0  0  0  0  0  0
    2.1400   19.1820    0.4630 C   0  0  2  0  0  0  0  0  0  0  0  0
    3.4680   18.7240    1.0980 C   0  0  0  0  0  0  0  0  0  0  0  0
    4.0890   19.7580    2.0410 C   0  0  0  0  0  0  0  0  0  0  0  0
    5.3210   19.2290    2.7110 C   0  0  2  0  0  0  0  0  0  0  0  0
    5.1620   17.9440    3.3260 O   0  0  0  0  0  0  0  0  0  0  0  0
    5.4420   19.0410    4.2120 C   0  0  0  0  0  0  0  0  0  0  0  0
    4.3130   19.3800    5.1340 C   0  0  0  0  0  0  0  0  0  0  0  0
    6.8090   18.9920    4.8190 C   0  0  0  0  0  0  0  0  0  0  0  0
    1.3710   17.9770   -0.0630 C   0  0  1  0  0  0  0  0  0  0  0  0
    0.2030   18.3770   -1.0040 C   0  0  0  0  0  0  0  0  0  0  0  0
    0.1030   17.2730   -2.0880 C   0  0  0  0  0  0  0  0  0  0  0  0
    0.9830   16.1190   -1.5520 C   0  0  1  0  0  0  0  0  0  0  0  0
    0.0790   15.3690   -0.5250 C   0  0  0  0  0  0  0  0  0  0  0  0
    1.5720   15.1450   -2.6230 C   0  0  2  0  0  0  0  0  0  0  0  0
    0.5280   14.3570   -3.4330 C   0  0  0  0  0  0  0  0  0  0  0  0
    0.1360   13.0380   -2.8560 C   0  0  0  0  0  0  0  0  0  0  0  0
    0.8020   12.3760   -1.8920 C   0  0  0  0  0  0  0  0  0  0  0  0
    2.1350   12.9080   -1.3490 C   0  0  1  0  0  0  0  0  0  0  0  0
    3.1640   11.7500   -1.2770 C   0  0  0  0  0  0  0  0  0  0  0  0
    2.6460   10.5550   -0.4830 C   0  0  0  0  0  0  0  0  0  0  0  0
    1.3510   10.0180   -1.0870 C   0  0  2  0  0  0  0  0  0  0  0  0
    1.6390    9.4650   -2.3750 O   0  0  0  0  0  0  0  0  0  0  0  0
    0.2420   11.0990   -1.2190 C   0  0  0  0  0  0  0  0  0  0  0  0
   -0.2820   11.4810    0.1880 C   0  0  0  0  0  0  0  0  0  0  0  0
   -0.9580   10.4630   -1.9710 C   0  0  0  0  0  0  0  0  0  0  0  0
    2.7160   14.1960   -2.0770 C   0  0  1  0  0  0  0  0  0  0  0  0
    3.5680   13.7710   -3.3120 C   0  0  0  0  0  0  0  0  0  0  0  0
    3.6960   14.9430   -1.0970 C   0  0  0  0  0  0  0  0  0  0  0  0
    3.0690   15.9810   -0.1460 C   0  0  0  0  0  0  0  0  0  0  0  0
    2.1570   16.9450   -0.9100 C   0  0  2  0  0  0  0  0  0  0  0  0
    3.0440   17.7310   -1.9360 C   0  0  0  0  0  0  0  0  0  0  0  0
    2.5730   21.1831   -0.2338 H   0  0  0  0  0  0  0  0  0  0  0  0
    3.2085   19.8730   -1.2858 H   0  0  0  0  0  0  0  0  0  0  0  0
    1.4528   20.2529   -1.2858 H   0  0  0  0  0  0  0  0  0  0  0  0
    1.5546   19.6827    1.2482 H   0  0  0  0  0  0  0  0  0  0  0  0
    3.2803   17.8024    1.6685 H   0  0  0  0  0  0  0  0  0  0  0  0
    4.1815   18.5706    0.2749 H   0  0  0  0  0  0  0  0  0  0  0  0
    4.3555   20.6542    1.4614 H   0  0  0  0  0  0  0  0  0  0  0  0
    3.3510   19.9974    2.8207 H   0  0  0  0  0  0  0  0  0  0  0  0
    5.9661   19.7336    1.9767 H   0  0  0  0  0  0  0  0  0  0  0  0
    4.6483   19.2793    6.1768 H   0  0  0  0  0  0  0  0  0  0  0  0
    3.9887   20.4151    4.9515 H   0  0  0  0  0  0  0  0  0  0  0  0
    3.4721   18.6947    4.9515 H   0  0  0  0  0  0  0  0  0  0  0  0
    6.7235   18.9951    5.9157 H   0  0  0  0  0  0  0  0  0  0  0  0
    7.3220   18.0749    4.4937 H   0  0  0  0  0  0  0  0  0  0  0  0
    7.3863   19.8700    4.4937 H   0  0  0  0  0  0  0  0  0  0  0  0
    1.0639   17.5247    0.8915 H   0  0  0  0  0  0  0  0  0  0  0  0
   -0.7373   18.4366   -0.4363 H   0  0  0  0  0  0  0  0  0  0  0  0
    0.3826   19.3621   -1.4593 H   0  0  0  0  0  0  0  0  0  0  0  0
   -0.9389   16.9422   -2.2104 H   0  0  0  0  0  0  0  0  0  0  0  0
    0.4347   17.6266   -3.0754 H   0  0  0  0  0  0  0  0  0  0  0  0
    0.3919   15.6286    0.4971 H   0  0  0  0  0  0  0  0  0  0  0  0
   -0.9696   15.6660   -0.6740 H   0  0  0  0  0  0  0  0  0  0  0  0
    0.1773   14.2836   -0.6740 H   0  0  0  0  0  0  0  0  0  0  0  0
    2.0437   15.8367   -3.3364 H   0  0  0  0  0  0  0  0  0  0  0  0
   -0.3780   14.9758   -3.5127 H   0  0  0  0  0  0  0  0  0  0  0  0
    0.9983   14.1370   -4.4028 H   0  0  0  0  0  0  0  0  0  0  0  0
   -0.7753   12.5664   -3.2525 H   0  0  0  0  0  0  0  0  0  0  0  0
    1.9229   13.2824   -0.3367 H   0  0  0  0  0  0  0  0  0  0  0  0
    3.3952   11.4197   -2.3005 H   0  0  0  0  0  0  0  0  0  0  0  0
    4.0586   12.1302   -0.7621 H   0  0  0  0  0  0  0  0  0  0  0  0
    3.4053    9.7592   -0.4939 H   0  0  0  0  0  0  0  0  0  0  0  0
    2.4438   10.8800    0.5483 H   0  0  0  0  0  0  0  0  0  0  0  0
    0.9606    9.2505   -0.4025 H   0  0  0  0  0  0  0  0  0  0  0  0
    1.6260    8.4960   -2.2890 H   0  0  0  0  0  0  0  0  0  0  0  0
    0.3551   11.0166    0.9551 H   0  0  0  0  0  0  0  0  0  0  0  0
   -0.2575   12.5746    0.3040 H   0  0  0  0  0  0  0  0  0  0  0  0
   -1.3157   11.1231    0.3040 H   0  0  0  0  0  0  0  0  0  0  0  0
   -1.6853   10.0775   -1.2413 H   0  0  0  0  0  0  0  0  0  0  0  0
   -1.4401   11.2240   -2.6023 H   0  0  0  0  0  0  0  0  0  0  0  0
   -0.5989    9.6368   -2.6023 H   0  0  0  0  0  0  0  0  0  0  0  0
    4.5033   13.3044   -2.9692 H   0  0  0  0  0  0  0  0  0  0  0  0
    2.9999   13.0507   -3.9190 H   0  0  0  0  0  0  0  0  0  0  0  0
    3.8018   14.6581   -3.9190 H   0  0  0  0  0  0  0  0  0  0  0  0
    4.1923   14.1812   -0.4778 H   0  0  0  0  0  0  0  0  0  0  0  0
    4.3706   15.5188   -1.7476 H   0  0  0  0  0  0  0  0  0  0  0  0
    2.4777   15.4568    0.6192 H   0  0  0  0  0  0  0  0  0  0  0  0
    3.8780   16.5609    0.3223 H   0  0  0  0  0  0  0  0  0  0  0  0
    3.7595   18.3650   -1.3919 H   0  0  0  0  0  0  0  0  0  0  0  0
    3.5931   17.0176   -2.5680 H   0  0  0  0  0  0  0  0  0  0  0  0
    2.4018   18.3620   -2.5680 H   0  0  0  0  0  0  0  0  0  0  0  0
  1  2  1  0
  2  3  1  0
  3  4  1  0
  4  5  1  0
  5  6  1  0
  6  7  1  0
  7  8  1  0
  7  9  1  0
  2 10  1  0
 10 11  1  0
 11 12  1  0
 12 13  1  0
 13 14  1  1
 13 15  1  0
 15 16  1  0
 16 17  1  0
 17 18  2  0
 18 19  1  0
 19 20  1  0
 20 21  1  0
 21 22  1  0
 22 23  1  0
 22 24  1  0
 24 25  1  0
 24 26  1  0
 19 27  1  0
 27 28  1  6
 27 29  1  0
 29 30  1  0
 30 31  1  0
 31 32  1  6
  7  5  1  0
 31 10  1  0
 31 13  1  0
 27 15  1  0
 24 18  1  0
  1 33  1  0
  1 34  1  0
  1 35  1  0
  2 36  1  1
  3 37  1  0
  3 38  1  0
  4 39  1  0
  4 40  1  0
  5 41  1  6
  8 42  1  0
  8 43  1  0
  8 44  1  0
  9 45  1  0
  9 46  1  0
  9 47  1  0
 10 48  1  1
 11 49  1  0
 11 50  1  0
 12 51  1  0
 12 52  1  0
 14 53  1  0
 14 54  1  0
 14 55  1  0
 15 56  1  6
 16 57  1  0
 16 58  1  0
 17 59  1  0
 19 60  1  1
 20 61  1  0
 20 62  1  0
 21 63  1  0
 21 64  1  0
 22 65  1  1
 23 66  1  0
 25 67  1  0
 25 68  1  0
 25 69  1  0
 26 70  1  0
 26 71  1  0
 26 72  1  0
 28 73  1  0
 28 74  1  0
 28 75  1  0
 29 76  1  0
 29 77  1  0
 30 78  1  0
 30 79  1  0
 32 80  1  0
 32 81  1  0
 32 82  1  0
M  END
>  <meeko>  (2) 
{"is_sidechain": [false], "intermolecular_energy": 2.731, "internal_energy": -0.839}

$$$$
EPH_relaxed_0001_pdb2pqr_Repair_311_r2_0001_out
     RDKit          3D

 82 86  0  0  0  0  0  0  0  0999 V2000
    4.5940   17.2470   -1.0730 C   0  0  0  0  0  0  0  0  0  0  0  0
    3.2350   17.8920   -0.7860 C   0  0  2  0  0  0  0  0  0  0  0  0
    3.2680   18.7810    0.4730 C   0  0  0  0  0  0  0  0  0  0  0  0
    4.2790   18.3200    1.5260 C   0  0  0  0  0  0  0  0  0  0  0  0
    4.1220   19.0740    2.8120 C   0  0  2  0  0  0  0  0  0  0  0  0
    5.0930   20.1070    3.0220 O   0  0  0  0  0  0  0  0  0  0  0  0
    5.1260   19.0080    3.9480 C   0  0  0  0  0  0  0  0  0  0  0  0
    6.3600   18.1670    3.8510 C   0  0  0  0  0  0  0  0  0  0  0  0
    4.6710   19.3680    5.3270 C   0  0  0  0  0  0  0  0  0  0  0  0
    2.1700   16.8120   -0.6330 C   0  0  1  0  0  0  0  0  0  0  0  0
    0.7280   17.3800   -0.7120 C   0  0  0  0  0  0  0  0  0  0  0  0
   -0.1390   16.3040   -1.4140 C   0  0  0  0  0  0  0  0  0  0  0  0
    0.7430   15.0330   -1.4170 C   0  0  1  0  0  0  0  0  0  0  0  0
    0.5700   14.4220    0.0090 C   0  0  0  0  0  0  0  0  0  0  0  0
    0.4390   13.9830   -2.5350 C   0  0  2  0  0  0  0  0  0  0  0  0
   -0.9660   13.3580   -2.4790 C   0  0  0  0  0  0  0  0  0  0  0  0
   -1.0760   12.1100   -1.6680 C   0  0  0  0  0  0  0  0  0  0  0  0
   -0.0440   11.3570   -1.2460 C   0  0  0  0  0  0  0  0  0  0  0  0
    1.3950   11.6870   -1.6640 C   0  0  1  0  0  0  0  0  0  0  0  0
    2.1110   10.3910   -2.1240 C   0  0  0  0  0  0  0  0  0  0  0  0
    2.0480    9.2840   -1.0760 C   0  0  0  0  0  0  0  0  0  0  0  0
    0.6010    8.9440   -0.7280 C   0  0  2  0  0  0  0  0  0  0  0  0
   -0.0210    8.3550   -1.8740 O   0  0  0  0  0  0  0  0  0  0  0  0
   -0.2230   10.1760   -0.2610 C   0  0  0  0  0  0  0  0  0  0  0  0
    0.2670   10.6290    1.1370 C   0  0  0  0  0  0  0  0  0  0  0  0
   -1.6970    9.7230   -0.0780 C   0  0  0  0  0  0  0  0  0  0  0  0
    1.5580   12.8770   -2.7060 C   0  0  1  0  0  0  0  0  0  0  0  0
    1.4260   12.3320   -4.1610 C   0  0  0  0  0  0  0  0  0  0  0  0
    3.0110   13.4710   -2.5840 C   0  0  0  0  0  0  0  0  0  0  0  0
    3.2200   14.5890   -1.5450 C   0  0  0  0  0  0  0  0  0  0  0  0
    2.1510   15.6770   -1.6870 C   0  0  2  0  0  0  0  0  0  0  0  0
    2.3150   16.3250   -3.1040 C   0  0  0  0  0  0  0  0  0  0  0  0
    5.0950   17.0092   -0.1230 H   0  0  0  0  0  0  0  0  0  0  0  0
    4.4465   16.3228   -1.6511 H   0  0  0  0  0  0  0  0  0  0  0  0
    5.2167   17.9456   -1.6511 H   0  0  0  0  0  0  0  0  0  0  0  0
    2.9888   18.5395   -1.6405 H   0  0  0  0  0  0  0  0  0  0  0  0
    3.5272   19.8055    0.1679 H   0  0  0  0  0  0  0  0  0  0  0  0
    2.2719   18.7200    0.9356 H   0  0  0  0  0  0  0  0  0  0  0  0
    4.1276   17.2480    1.7204 H   0  0  0  0  0  0  0  0  0  0  0  0
    5.2903   18.5109    1.1375 H   0  0  0  0  0  0  0  0  0  0  0  0
    3.0303   18.9422    2.7839 H   0  0  0  0  0  0  0  0  0  0  0  0
    6.7179   17.9231    4.8621 H   0  0  0  0  0  0  0  0  0  0  0  0
    6.1288   17.2377    3.3098 H   0  0  0  0  0  0  0  0  0  0  0  0
    7.1404   18.7220    3.3098 H   0  0  0  0  0  0  0  0  0  0  0  0
    5.3091   18.8631    6.0672 H   0  0  0  0  0  0  0  0  0  0  0  0
    4.7419   20.4571    5.4639 H   0  0  0  0  0  0  0  0  0  0  0  0
    3.6274   19.0485    5.4639 H   0  0  0  0  0  0  0  0  0  0  0  0
    2.4569   16.4084    0.3493 H   0  0  0  0  0  0  0  0  0  0  0  0
    0.3424   17.5765    0.2993 H   0  0  0  0  0  0  0  0  0  0  0  0
    0.7072   18.3286   -1.2686 H   0  0  0  0  0  0  0  0  0  0  0  0
   -1.0697   16.1295   -0.8543 H   0  0  0  0  0  0  0  0  0  0  0  0
   -0.4385   16.6063   -2.4284 H   0  0  0  0  0  0  0  0  0  0  0  0
    0.7875   15.1900    0.7658 H   0  0  0  0  0  0  0  0  0  0  0  0
   -0.4639   14.0674    0.1330 H   0  0  0  0  0  0  0  0  0  0  0  0
    1.2645   13.5780    0.1330 H   0  0  0  0  0  0  0  0  0  0  0  0
    0.4554   14.5976   -3.4471 H   0  0  0  0  0  0  0  0  0  0  0  0
   -1.6528   14.1032   -2.0512 H   0  0  0  0  0  0  0  0  0  0  0  0
   -1.2139   13.0728   -3.5121 H   0  0  0  0  0  0  0  0  0  0  0  0
   -2.0874   11.7773   -1.3916 H   0  0  0  0  0  0  0  0  0  0  0  0
    1.8886   12.0869   -0.7660 H   0  0  0  0  0  0  0  0  0  0  0  0
    1.6310   10.0313   -3.0461 H   0  0  0  0  0  0  0  0  0  0  0  0
    3.1709   10.6355   -2.2880 H   0  0  0  0  0  0  0  0  0  0  0  0
    2.5439    8.3853   -1.4714 H   0  0  0  0  0  0  0  0  0  0  0  0
    2.5554    9.6338   -0.1648 H   0  0  0  0  0  0  0  0  0  0  0  0
    0.6209    8.2421    0.1187 H   0  0  0  0  0  0  0  0  0  0  0  0
   -0.9810    8.4850   -1.7870 H   0  0  0  0  0  0  0  0  0  0  0  0
   -0.3043   10.1009    1.9147 H   0  0  0  0  0  0  0  0  0  0  0  0
    1.3363   10.3944    1.2445 H   0  0  0  0  0  0  0  0  0  0  0  0
    0.1169   11.7134    1.2445 H   0  0  0  0  0  0  0  0  0  0  0  0
   -1.9282    9.6519    0.9951 H   0  0  0  0  0  0  0  0  0  0  0  0
   -2.3673   10.4566   -0.5497 H   0  0  0  0  0  0  0  0  0  0  0  0
   -1.8396    8.7396   -0.5497 H   0  0  0  0  0  0  0  0  0  0  0  0
    1.1672   11.2633   -4.1302 H   0  0  0  0  0  0  0  0  0  0  0  0
    0.6360   12.8855   -4.6896 H   0  0  0  0  0  0  0  0  0  0  0  0
    2.3818   12.4627   -4.6896 H   0  0  0  0  0  0  0  0  0  0  0  0
    3.6877   12.6439   -2.3233 H   0  0  0  0  0  0  0  0  0  0  0  0
    3.2118   13.9420   -3.5576 H   0  0  0  0  0  0  0  0  0  0  0  0
    3.1617   14.1570   -0.5351 H   0  0  0  0  0  0  0  0  0  0  0  0
    4.2074   15.0437   -1.7132 H   0  0  0  0  0  0  0  0  0  0  0  0
    2.5835   17.3860   -2.9932 H   0  0  0  0  0  0  0  0  0  0  0  0
    3.1090   15.8016   -3.6569 H   0  0  0  0  0  0  0  0  0  0  0  0
    1.3676   16.2424   -3.6569 H   0  0  0  0  0  0  0  0  0  0  0  0
  1  2  1  0
  2  3  1  0
  3  4  1  0
  4  5  1  0
  5  6  1  0
  6  7  1  0
  7  8  1  0
  7  9  1  0
  2 10  1  0
 10 11  1  0
 11 12  1  0
 12 13  1  0
 13 14  1  1
 13 15  1  0
 15 16  1  0
 16 17  1  0
 17 18  2  0
 18 19  1  0
 19 20  1  0
 20 21  1  0
 21 22  1  0
 22 23  1  0
 22 24  1  0
 24 25  1  0
 24 26  1  0
 19 27  1  0
 27 28  1  6
 27 29  1  0
 29 30  1  0
 30 31  1  0
 31 32  1  6
  7  5  1  0
 31 10  1  0
 31 13  1  0
 27 15  1  0
 24 18  1  0
  1 33  1  0
  1 34  1  0
  1 35  1  0
  2 36  1  6
  3 37  1  0
  3 38  1  0
  4 39  1  0
  4 40  1  0
  5 41  1  1
  8 42  1  0
  8 43  1  0
  8 44  1  0
  9 45  1  0
  9 46  1  0
  9 47  1  0
 10 48  1  1
 11 49  1  0
 11 50  1  0
 12 51  1  0
 12 52  1  0
 14 53  1  0
 14 54  1  0
 14 55  1  0
 15 56  1  6
 16 57  1  0
 16 58  1  0
 17 59  1  0
 19 60  1  1
 20 61  1  0
 20 62  1  0
 21 63  1  0
 21 64  1  0
 22 65  1  1
 23 66  1  0
 25 67  1  0
 25 68  1  0
 25 69  1  0
 26 70  1  0
 26 71  1  0
 26 72  1  0
 28 73  1  0
 28 74  1  0
 28 75  1  0
 29 76  1  0
 29 77  1  0
 30 78  1  0
 30 79  1  0
 32 80  1  0
 32 81  1  0
 32 82  1  0
M  END
>  <meeko>  (3) 
{"is_sidechain": [false], "intermolecular_energy": 2.731, "internal_energy": -0.839}

$$$$
EPH_relaxed_0001_pdb2pqr_Repair_311_r2_0001_out
     RDKit          3D

 82 86  0  0  0  0  0  0  0  0999 V2000
   -1.0880    9.0540   -2.1880 C   0  0  0  0  0  0  0  0  0  0  0  0
   -1.3960    9.3360   -0.7150 C   0  0  2  0  0  0  0  0  0  0  0  0
   -2.9120    9.4360   -0.4470 C   0  0  0  0  0  0  0  0  0  0  0  0
   -3.6310    8.0850   -0.4700 C   0  0  0  0  0  0  0  0  0  0  0  0
   -5.1010    8.2440   -0.7160 C   0  0  2  0  0  0  0  0  0  0  0  0
   -5.8850    7.0770   -0.4360 O   0  0  0  0  0  0  0  0  0  0  0  0
   -5.8520    7.5040   -1.8070 C   0  0  0  0  0  0  0  0  0  0  0  0
   -5.1540    6.5500   -2.7250 C   0  0  0  0  0  0  0  0  0  0  0  0
   -7.1490    8.0700   -2.2940 C   0  0  0  0  0  0  0  0  0  0  0  0
   -0.7040   10.6210   -0.2750 C   0  0  1  0  0  0  0  0  0  0  0  0
    0.3150   10.3880    0.8720 C   0  0  0  0  0  0  0  0  0  0  0  0
    1.4860   11.3770    0.6380 C   0  0  0  0  0  0  0  0  0  0  0  0
    0.9560   12.3630   -0.4290 C   0  0  1  0  0  0  0  0  0  0  0  0
    0.0860   13.3860    0.3670 C   0  0  0  0  0  0  0  0  0  0  0  0
    2.0360   13.0810   -1.3030 C   0  0  2  0  0  0  0  0  0  0  0  0
    3.0050   13.9890   -0.5270 C   0  0  0  0  0  0  0  0  0  0  0  0
    2.5750   15.4120   -0.3910 C   0  0  0  0  0  0  0  0  0  0  0  0
    1.6030   16.0080   -1.1070 C   0  0  0  0  0  0  0  0  0  0  0  0
    0.8900   15.2600   -2.2410 C   0  0  1  0  0  0  0  0  0  0  0  0
    0.8050   16.1740   -3.4910 C   0  0  0  0  0  0  0  0  0  0  0  0
    0.1620   17.5240   -3.1870 C   0  0  0  0  0  0  0  0  0  0  0  0
    0.9330   18.2620   -2.0960 C   0  0  2  0  0  0  0  0  0  0  0  0
    2.2250   18.6130   -2.6010 O   0  0  0  0  0  0  0  0  0  0  0  0
    1.0910   17.4340   -0.7900 C   0  0  0  0  0  0  0  0  0  0  0  0
   -0.2820   17.3120   -0.0830 C   0  0  0  0  0  0  0  0  0  0  0  0
    2.0060   18.2350    0.1750 C   0  0  0  0  0  0  0  0  0  0  0  0
    1.4540   13.8130   -2.5800 C   0  0  1  0  0  0  0  0  0  0  0  0
    2.6260   13.9250   -3.6020 C   0  0  0  0  0  0  0  0  0  0  0  0
    0.3250   12.9750   -3.2880 C   0  0  0  0  0  0  0  0  0  0  0  0
   -0.6370   12.1920   -2.3740 C   0  0  0  0  0  0  0  0  0  0  0  0
    0.1380   11.3740   -1.3360 C   0  0  2  0  0  0  0  0  0  0  0  0
    1.0050   10.3210   -2.1070 C   0  0  0  0  0  0  0  0  0  0  0  0
   -0.2783    8.3127   -2.2579 H   0  0  0  0  0  0  0  0  0  0  0  0
   -1.9887    8.6609   -2.6822 H   0  0  0  0  0  0  0  0  0  0  0  0
   -0.7757    9.9858   -2.6822 H   0  0  0  0  0  0  0  0  0  0  0  0
   -1.0121    8.4878   -0.1292 H   0  0  0  0  0  0  0  0  0  0  0  0
   -3.0604    9.8916    0.5432 H   0  0  0  0  0  0  0  0  0  0  0  0
   -3.3424   10.0432   -1.2570 H   0  0  0  0  0  0  0  0  0  0  0  0
   -3.2005    7.4655   -1.2705 H   0  0  0  0  0  0  0  0  0  0  0  0
   -3.4971    7.6083    0.5122 H   0  0  0  0  0  0  0  0  0  0  0  0
   -5.0547    9.3088   -0.4440 H   0  0  0  0  0  0  0  0  0  0  0  0
   -4.6074    5.8029   -2.1308 H   0  0  0  0  0  0  0  0  0  0  0  0
   -5.8957    6.0426   -3.3594 H   0  0  0  0  0  0  0  0  0  0  0  0
   -4.4460    7.1033   -3.3594 H   0  0  0  0  0  0  0  0  0  0  0  0
   -7.7761    8.3437   -1.4327 H   0  0  0  0  0  0  0  0  0  0  0  0
   -6.9529    8.9644   -2.9036 H   0  0  0  0  0  0  0  0  0  0  0  0
   -7.6713    7.3180   -2.9036 H   0  0  0  0  0  0  0  0  0  0  0  0
   -1.5845   11.2197    0.0014 H   0  0  0  0  0  0  0  0  0  0  0  0
   -0.1585   10.5850    1.8451 H   0  0  0  0  0  0  0  0  0  0  0  0
    0.6720    9.3476    0.8778 H   0  0  0  0  0  0  0  0  0  0  0  0
    1.7369   11.9087    1.5677 H   0  0  0  0  0  0  0  0  0  0  0  0
    2.4051   10.8665    0.3145 H   0  0  0  0  0  0  0  0  0  0  0  0
    0.2242   13.2234    1.4461 H   0  0  0  0  0  0  0  0  0  0  0  0
    0.3945   14.4096    0.1079 H   0  0  0  0  0  0  0  0  0  0  0  0
   -0.9738   13.2458    0.1079 H   0  0  0  0  0  0  0  0  0  0  0  0
    2.6433   12.2391   -1.6669 H   0  0  0  0  0  0  0  0  0  0  0  0
    3.1254   13.5723    0.4839 H   0  0  0  0  0  0  0  0  0  0  0  0
    3.9376   14.0074   -1.1100 H   0  0  0  0  0  0  0  0  0  0  0  0
    3.0967   16.0259    0.3580 H   0  0  0  0  0  0  0  0  0  0  0  0
   -0.1219   15.0395   -1.8703 H   0  0  0  0  0  0  0  0  0  0  0  0
    1.8226   16.3460   -3.8717 H   0  0  0  0  0  0  0  0  0  0  0  0
    0.1748   15.6643   -4.2347 H   0  0  0  0  0  0  0  0  0  0  0  0
    0.1585   18.1352   -4.1016 H   0  0  0  0  0  0  0  0  0  0  0  0
   -0.8660   17.3521   -2.8354 H   0  0  0  0  0  0  0  0  0  0  0  0
    0.3525   19.1581   -1.8315 H   0  0  0  0  0  0  0  0  0  0  0  0
    2.4340   18.0000   -3.3270 H   0  0  0  0  0  0  0  0  0  0  0  0
   -0.1355   17.3250    1.0071 H   0  0  0  0  0  0  0  0  0  0  0  0
   -0.9222   18.1568   -0.3771 H   0  0  0  0  0  0  0  0  0  0  0  0
   -0.7632   16.3676   -0.3771 H   0  0  0  0  0  0  0  0  0  0  0  0
    1.7371   17.9996    1.2153 H   0  0  0  0  0  0  0  0  0  0  0  0
    3.0562   17.9607   -0.0033 H   0  0  0  0  0  0  0  0  0  0  0  0
    1.8731   19.3123   -0.0033 H   0  0  0  0  0  0  0  0  0  0  0  0
    3.5784   14.0160   -3.0592 H   0  0  0  0  0  0  0  0  0  0  0  0
    2.6487   13.0249   -4.2340 H   0  0  0  0  0  0  0  0  0  0  0  0
    2.4778   14.8131   -4.2340 H   0  0  0  0  0  0  0  0  0  0  0  0
   -0.2792   13.6713   -3.8881 H   0  0  0  0  0  0  0  0  0  0  0  0
    0.8580   12.2078   -3.8688 H   0  0  0  0  0  0  0  0  0  0  0  0
   -1.2967   12.9018   -1.8534 H   0  0  0  0  0  0  0  0  0  0  0  0
   -1.2277   11.5022   -2.9948 H   0  0  0  0  0  0  0  0  0  0  0  0
    1.5323    9.6806   -1.3846 H   0  0  0  0  0  0  0  0  0  0  0  0
    0.3523    9.7007   -2.7389 H   0  0  0  0  0  0  0  0  0  0  0  0
    1.7391   10.8425   -2.7389 H   0  0  0  0  0  0  0  0  0  0  0  0
  1  2  1  0
  2  3  1  0
  3  4  1  0
  4  5  1  0
  5  6  1  0
  6  7  1  0
  7  8  1  0
  7  9  1  0
  2 10  1  0
 10 11  1  0
 11 12  1  0
 12 13  1  0
 13 14  1  1
 13 15  1  0
 15 16  1  0
 16 17  1  0
 17 18  2  0
 18 19  1  0
 19 20  1  0
 20 21  1  0
 21 22  1  0
 22 23  1  0
 22 24  1  0
 24 25  1  0
 24 26  1  0
 19 27  1  0
 27 28  1  6
 27 29  1  0
 29 30  1  0
 30 31  1  0
 31 32  1  6
  7  5  1  0
 31 10  1  0
 31 13  1  0
 27 15  1  0
 24 18  1  0
  1 33  1  0
  1 34  1  0
  1 35  1  0
  2 36  1  1
  3 37  1  0
  3 38  1  0
  4 39  1  0
  4 40  1  0
  5 41  1  1
  8 42  1  0
  8 43  1  0
  8 44  1  0
  9 45  1  0
  9 46  1  0
  9 47  1  0
 10 48  1  1
 11 49  1  0
 11 50  1  0
 12 51  1  0
 12 52  1  0
 14 53  1  0
 14 54  1  0
 14 55  1  0
 15 56  1  6
 16 57  1  0
 16 58  1  0
 17 59  1  0
 19 60  1  1
 20 61  1  0
 20 62  1  0
 21 63  1  0
 21 64  1  0
 22 65  1  1
 23 66  1  0
 25 67  1  0
 25 68  1  0
 25 69  1  0
 26 70  1  0
 26 71  1  0
 26 72  1  0
 28 73  1  0
 28 74  1  0
 28 75  1  0
 29 76  1  0
 29 77  1  0
 30 78  1  0
 30 79  1  0
 32 80  1  0
 32 81  1  0
 32 82  1  0
M  END
>  <meeko>  (4) 
{"is_sidechain": [false], "intermolecular_energy": 2.731, "internal_energy": -0.839}

$$$$
EPH_relaxed_0001_pdb2pqr_Repair_311_r2_0001_out
     RDKit          3D

 82 86  0  0  0  0  0  0  0  0999 V2000
    2.2430   18.2650   -2.2690 C   0  0  0  0  0  0  0  0  0  0  0  0
    1.8140   17.3510   -1.1190 C   0  0  2  0  0  0  0  0  0  0  0  0
    3.0070   16.9250   -0.2400 C   0  0  0  0  0  0  0  0  0  0  0  0
    3.9340   18.0820    0.1420 C   0  0  0  0  0  0  0  0  0  0  0  0
    3.5980   18.6390    1.4920 C   0  0  2  0  0  0  0  0  0  0  0  0
    3.9020   20.0300    1.6590 O   0  0  0  0  0  0  0  0  0  0  0  0
    4.6420   19.1160    2.4840 C   0  0  0  0  0  0  0  0  0  0  0  0
    6.1040   19.0570    2.1680 C   0  0  0  0  0  0  0  0  0  0  0  0
    4.2750   19.1810    3.9340 C   0  0  0  0  0  0  0  0  0  0  0  0
    1.1070   16.1180   -1.6700 C   0  0  1  0  0  0  0  0  0  0  0  0
    0.7420   16.2610   -3.1720 C   0  0  0  0  0  0  0  0  0  0  0  0
    0.8920   14.8540   -3.8050 C   0  0  0  0  0  0  0  0  0  0  0  0
    1.0120   13.8940   -2.5980 C   0  0  1  0  0  0  0  0  0  0  0  0
   -0.4570   13.6620   -2.1220 C   0  0  0  0  0  0  0  0  0  0  0  0
    1.7540   12.5430   -2.8600 C   0  0  2  0  0  0  0  0  0  0  0  0
    1.0850   11.6220   -3.8950 C   0  0  0  0  0  0  0  0  0  0  0  0
    0.0990   10.6480   -3.3400 C   0  0  0  0  0  0  0  0  0  0  0  0
   -0.0300   10.3210   -2.0400 C   0  0  0  0  0  0  0  0  0  0  0  0
    0.9350   10.8810   -0.9880 C   0  0  1  0  0  0  0  0  0  0  0  0
    1.4090    9.7330   -0.0580 C   0  0  0  0  0  0  0  0  0  0  0  0
    0.2460    8.9670    0.5650 C   0  0  0  0  0  0  0  0  0  0  0  0
   -0.6590    8.3770   -0.5130 C   0  0  2  0  0  0  0  0  0  0  0  0
    0.0660    7.3670   -1.2210 O   0  0  0  0  0  0  0  0  0  0  0  0
   -1.1900    9.4390   -1.5160 C   0  0  0  0  0  0  0  0  0  0  0  0
   -2.2160   10.3570   -0.8060 C   0  0  0  0  0  0  0  0  0  0  0  0
   -1.9720    8.6940   -2.6310 C   0  0  0  0  0  0  0  0  0  0  0  0
    2.1420   11.7510   -1.5470 C   0  0  1  0  0  0  0  0  0  0  0  0
    3.3370   10.8230   -1.9230 C   0  0  0  0  0  0  0  0  0  0  0  0
    2.6610   12.7030   -0.4050 C   0  0  0  0  0  0  0  0  0  0  0  0
    1.9670   14.0720   -0.2730 C   0  0  0  0  0  0  0  0  0  0  0  0
    1.8820   14.7770   -1.6310 C   0  0  2  0  0  0  0  0  0  0  0  0
    3.3450   15.0430   -2.1240 C   0  0  0  0  0  0  0  0  0  0  0  0
    2.6769   19.1895   -1.8603 H   0  0  0  0  0  0  0  0  0  0  0  0
    2.9933   17.7496   -2.8867 H   0  0  0  0  0  0  0  0  0  0  0  0
    1.3672   18.5129   -2.8867 H   0  0  0  0  0  0  0  0  0  0  0  0
    1.1223   17.9227   -0.4829 H   0  0  0  0  0  0  0  0  0  0  0  0
    2.6145   16.4749    0.6838 H   0  0  0  0  0  0  0  0  0  0  0  0
    3.6049   16.2158   -0.8312 H   0  0  0  0  0  0  0  0  0  0  0  0
    4.9719   17.7179    0.1549 H   0  0  0  0  0  0  0  0  0  0  0  0
    3.8065   18.8832   -0.6009 H   0  0  0  0  0  0  0  0  0  0  0  0
    2.7475   17.9484    1.5907 H   0  0  0  0  0  0  0  0  0  0  0  0
    6.6809   19.0337    3.1043 H   0  0  0  0  0  0  0  0  0  0  0  0
    6.3165   18.1495    1.5837 H   0  0  0  0  0  0  0  0  0  0  0  0
    6.3890   19.9444    1.5837 H   0  0  0  0  0  0  0  0  0  0  0  0
    5.1742   19.0217    4.5473 H   0  0  0  0  0  0  0  0  0  0  0  0
    3.8472   20.1689    4.1600 H   0  0  0  0  0  0  0  0  0  0  0  0
    3.5340   18.4001    4.1600 H   0  0  0  0  0  0  0  0  0  0  0  0
    0.2474   16.0762   -0.9849 H   0  0  0  0  0  0  0  0  0  0  0  0
   -0.2939   16.6155   -3.2779 H   0  0  0  0  0  0  0  0  0  0  0  0
    1.3981   16.9900   -3.6701 H   0  0  0  0  0  0  0  0  0  0  0  0
    0.0094   14.6054   -4.4126 H   0  0  0  0  0  0  0  0  0  0  0  0
    1.7602   14.7894   -4.4774 H   0  0  0  0  0  0  0  0  0  0  0  0
   -0.4897   13.6568   -1.0225 H   0  0  0  0  0  0  0  0  0  0  0  0
   -1.0982   14.4700   -2.5041 H   0  0  0  0  0  0  0  0  0  0  0  0
   -0.8180   12.6957   -2.5041 H   0  0  0  0  0  0  0  0  0  0  0  0
    2.6955   12.8765   -3.3207 H   0  0  0  0  0  0  0  0  0  0  0  0
    0.5617   12.2560   -4.6259 H   0  0  0  0  0  0  0  0  0  0  0  0
    1.8940   11.0192   -4.3333 H   0  0  0  0  0  0  0  0  0  0  0  0
   -0.5791   10.1561   -4.0529 H   0  0  0  0  0  0  0  0  0  0  0  0
    0.3594   11.6180   -0.4087 H   0  0  0  0  0  0  0  0  0  0  0  0
    2.0185    9.0314   -0.6464 H   0  0  0  0  0  0  0  0  0  0  0  0
    1.9885   10.1843    0.7609 H   0  0  0  0  0  0  0  0  0  0  0  0
    0.6440    8.1515    1.1867 H   0  0  0  0  0  0  0  0  0  0  0  0
   -0.3455    9.6639    1.1769 H   0  0  0  0  0  0  0  0  0  0  0  0
   -1.5403    7.9539   -0.0087 H   0  0  0  0  0  0  0  0  0  0  0  0
    0.7840    7.8070   -1.7080 H   0  0  0  0  0  0  0  0  0  0  0  0
   -2.1046   10.2573    0.2838 H   0  0  0  0  0  0  0  0  0  0  0  0
   -2.0371   11.4021   -1.0988 H   0  0  0  0  0  0  0  0  0  0  0  0
   -3.2349   10.0634   -1.0988 H   0  0  0  0  0  0  0  0  0  0  0  0
   -2.6960    8.0042   -2.1728 H   0  0  0  0  0  0  0  0  0  0  0  0
   -2.5066    9.4252   -3.2552 H   0  0  0  0  0  0  0  0  0  0  0  0
   -1.2675    8.1247   -3.2552 H   0  0  0  0  0  0  0  0  0  0  0  0
    3.8156   10.4513   -1.0050 H   0  0  0  0  0  0  0  0  0  0  0  0
    2.9684    9.9721   -2.5147 H   0  0  0  0  0  0  0  0  0  0  0  0
    4.0702   11.3908   -2.5147 H   0  0  0  0  0  0  0  0  0  0  0  0
    2.5374   12.1737    0.5513 H   0  0  0  0  0  0  0  0  0  0  0  0
    3.7027   12.9331   -0.6733 H   0  0  0  0  0  0  0  0  0  0  0  0
    0.9503   13.9236    0.1197 H   0  0  0  0  0  0  0  0  0  0  0  0
    2.5564   14.6995    0.4117 H   0  0  0  0  0  0  0  0  0  0  0  0
    4.0085   15.1636   -1.2550 H   0  0  0  0  0  0  0  0  0  0  0  0
    3.6875   14.1924   -2.7316 H   0  0  0  0  0  0  0  0  0  0  0  0
    3.3662   15.9597   -2.7316 H   0  0  0  0  0  0  0  0  0  0  0  0
  1  2  1  0
  2  3  1  0
  3  4  1  0
  4  5  1  0
  5  6  1  0
  6  7  1  0
  7  8  1  0
  7  9  1  0
  2 10  1  0
 10 11  1  0
 11 12  1  0
 12 13  1  0
 13 14  1  1
 13 15  1  0
 15 16  1  0
 16 17  1  0
 17 18  2  0
 18 19  1  0
 19 20  1  0
 20 21  1  0
 21 22  1  0
 22 23  1  0
 22 24  1  0
 24 25  1  0
 24 26  1  0
 19 27  1  0
 27 28  1  6
 27 29  1  0
 29 30  1  0
 30 31  1  0
 31 32  1  6
  7  5  1  0
 31 10  1  0
 31 13  1  0
 27 15  1  0
 24 18  1  0
  1 33  1  0
  1 34  1  0
  1 35  1  0
  2 36  1  1
  3 37  1  0
  3 38  1  0
  4 39  1  0
  4 40  1  0
  5 41  1  1
  8 42  1  0
  8 43  1  0
  8 44  1  0
  9 45  1  0
  9 46  1  0
  9 47  1  0
 10 48  1  1
 11 49  1  0
 11 50  1  0
 12 51  1  0
 12 52  1  0
 14 53  1  0
 14 54  1  0
 14 55  1  0
 15 56  1  6
 16 57  1  0
 16 58  1  0
 17 59  1  0
 19 60  1  1
 20 61  1  0
 20 62  1  0
 21 63  1  0
 21 64  1  0
 22 65  1  1
 23 66  1  0
 25 67  1  0
 25 68  1  0
 25 69  1  0
 26 70  1  0
 26 71  1  0
 26 72  1  0
 28 73  1  0
 28 74  1  0
 28 75  1  0
 29 76  1  0
 29 77  1  0
 30 78  1  0
 30 79  1  0
 32 80  1  0
 32 81  1  0
 32 82  1  0
M  END
>  <meeko>  (5) 
{"is_sidechain": [false], "intermolecular_energy": 2.731, "internal_energy": -0.839}

$$$$
EPH_relaxed_0001_pdb2pqr_Repair_311_r2_0001_out
     RDKit          3D

 82 86  0  0  0  0  0  0  0  0999 V2000
    4.0130   18.2950    0.5950 C   0  0  0  0  0  0  0  0  0  0  0  0
    2.8840   18.8010   -0.3080 C   0  0  2  0  0  0  0  0  0  0  0  0
    2.0890   19.9500    0.3440 C   0  0  0  0  0  0  0  0  0  0  0  0
    0.8210   19.4880    1.0680 C   0  0  0  0  0  0  0  0  0  0  0  0
   -0.4080   20.1180    0.4870 C   0  0  2  0  0  0  0  0  0  0  0  0
   -1.5230   20.1940    1.3860 O   0  0  0  0  0  0  0  0  0  0  0  0
   -1.6960   19.3580    0.2300 C   0  0  0  0  0  0  0  0  0  0  0  0
   -1.8190   17.9000    0.5470 C   0  0  0  0  0  0  0  0  0  0  0  0
   -2.6630   19.9070   -0.7720 C   0  0  0  0  0  0  0  0  0  0  0  0
    1.9460   17.6520   -0.6600 C   0  0  1  0  0  0  0  0  0  0  0  0
    0.7660   18.1000   -1.5620 C   0  0  0  0  0  0  0  0  0  0  0  0
    0.4620   16.9190   -2.5200 C   0  0  0  0  0  0  0  0  0  0  0  0
    1.2410   15.7240   -1.9250 C   0  0  1  0  0  0  0  0  0  0  0  0
    0.3350   15.1870   -0.7730 C   0  0  0  0  0  0  0  0  0  0  0  0
    1.6350   14.5890   -2.9250 C   0  0  2  0  0  0  0  0  0  0  0  0
    0.4520   13.8610   -3.5850 C   0  0  0  0  0  0  0  0  0  0  0  0
   -0.0450   12.6580   -2.8530 C   0  0  0  0  0  0  0  0  0  0  0  0
    0.6110   12.0140   -1.8700 C   0  0  0  0  0  0  0  0  0  0  0  0
    2.0320   12.4300   -1.4670 C   0  0  1  0  0  0  0  0  0  0  0  0
    2.9250   11.1680   -1.3410 C   0  0  0  0  0  0  0  0  0  0  0  0
    2.3330   10.1250   -0.3990 C   0  0  0  0  0  0  0  0  0  0  0  0
    0.9450    9.6940   -0.8640 C   0  0  2  0  0  0  0  0  0  0  0  0
    1.0730    8.9910   -2.1040 O   0  0  0  0  0  0  0  0  0  0  0  0
   -0.0400   10.8830   -1.0370 C   0  0  0  0  0  0  0  0  0  0  0  0
   -0.4130   11.4560    0.3530 C   0  0  0  0  0  0  0  0  0  0  0  0
   -1.3570   10.3280   -1.6440 C   0  0  0  0  0  0  0  0  0  0  0  0
    2.7000   13.5650   -2.3570 C   0  0  1  0  0  0  0  0  0  0  0  0
    3.4060   12.9260   -3.5920 C   0  0  0  0  0  0  0  0  0  0  0  0
    3.8280   14.2770   -1.5210 C   0  0  0  0  0  0  0  0  0  0  0  0
    3.3960   15.4670   -0.6430 C   0  0  0  0  0  0  0  0  0  0  0  0
    2.5460   16.4580   -1.4440 C   0  0  2  0  0  0  0  0  0  0  0  0
    3.4380   17.0320   -2.5970 C   0  0  0  0  0  0  0  0  0  0  0  0
    3.7253   18.4239    1.6489 H   0  0  0  0  0  0  0  0  0  0  0  0
    4.1949   17.2292    0.3923 H   0  0  0  0  0  0  0  0  0  0  0  0
    4.9296   18.8684    0.3923 H   0  0  0  0  0  0  0  0  0  0  0  0
    3.3456   19.1982   -1.2240 H   0  0  0  0  0  0  0  0  0  0  0  0
    2.7411   20.4536    1.0728 H   0  0  0  0  0  0  0  0  0  0  0  0
    1.7697   20.6207   -0.4672 H   0  0  0  0  0  0  0  0  0  0  0  0
    0.7376   18.3948    0.9789 H   0  0  0  0  0  0  0  0  0  0  0  0
    0.8973   19.7923    2.1223 H   0  0  0  0  0  0  0  0  0  0  0  0
    0.2012   20.7743   -0.1519 H   0  0  0  0  0  0  0  0  0  0  0  0
   -1.8307   17.7617    1.6382 H   0  0  0  0  0  0  0  0  0  0  0  0
   -2.7533   17.5090    0.1178 H   0  0  0  0  0  0  0  0  0  0  0  0
   -0.9634   17.3580    0.1178 H   0  0  0  0  0  0  0  0  0  0  0  0
   -3.5036   20.3842   -0.2470 H   0  0  0  0  0  0  0  0  0  0  0  0
   -2.1546   20.6512   -1.4027 H   0  0  0  0  0  0  0  0  0  0  0  0
   -3.0414   19.0891   -1.4027 H   0  0  0  0  0  0  0  0  0  0  0  0
    1.6600   17.3307    0.3524 H   0  0  0  0  0  0  0  0  0  0  0  0
   -0.1172   18.3253   -0.9462 H   0  0  0  0  0  0  0  0  0  0  0  0
    1.0224   19.0095   -2.1251 H   0  0  0  0  0  0  0  0  0  0  0  0
   -0.6169   16.7061   -2.5438 H   0  0  0  0  0  0  0  0  0  0  0  0
    0.7588   17.1358   -3.5568 H   0  0  0  0  0  0  0  0  0  0  0  0
    0.7806   15.4511    0.1974 H   0  0  0  0  0  0  0  0  0  0  0  0
   -0.6650   15.6383   -0.8523 H   0  0  0  0  0  0  0  0  0  0  0  0
    0.2509   14.0931   -0.8523 H   0  0  0  0  0  0  0  0  0  0  0  0
    2.1294   15.1483   -3.7329 H   0  0  0  0  0  0  0  0  0  0  0  0
   -0.3808   14.5745   -3.6714 H   0  0  0  0  0  0  0  0  0  0  0  0
    0.8218   13.4961   -4.5546 H   0  0  0  0  0  0  0  0  0  0  0  0
   -1.0309   12.2648   -3.1417 H   0  0  0  0  0  0  0  0  0  0  0  0
    1.9395   12.9202   -0.4866 H   0  0  0  0  0  0  0  0  0  0  0  0
    3.0415   10.7174   -2.3377 H   0  0  0  0  0  0  0  0  0  0  0  0
    3.8927   11.4838   -0.9241 H   0  0  0  0  0  0  0  0  0  0  0  0
    2.9935    9.2457   -0.3749 H   0  0  0  0  0  0  0  0  0  0  0  0
    2.2449   10.5681    0.6039 H   0  0  0  0  0  0  0  0  0  0  0  0
    0.5208    9.0473   -0.0818 H   0  0  0  0  0  0  0  0  0  0  0  0
    0.6530    9.5330   -2.7940 H   0  0  0  0  0  0  0  0  0  0  0  0
    0.0064   10.8117    1.1398 H   0  0  0  0  0  0  0  0  0  0  0  0
   -0.0024   12.4716    0.4531 H   0  0  0  0  0  0  0  0  0  0  0  0
   -1.5079   11.4916    0.4531 H   0  0  0  0  0  0  0  0  0  0  0  0
   -2.0416   10.0395   -0.8328 H   0  0  0  0  0  0  0  0  0  0  0  0
   -1.8300   11.1033   -2.2646 H   0  0  0  0  0  0  0  0  0  0  0  0
   -1.1324    9.4480   -2.2646 H   0  0  0  0  0  0  0  0  0  0  0  0
    4.1809   12.2246   -3.2491 H   0  0  0  0  0  0  0  0  0  0  0  0
    2.6648   12.3854   -4.1990 H   0  0  0  0  0  0  0  0  0  0  0  0
    3.8702   13.7172   -4.1990 H   0  0  0  0  0  0  0  0  0  0  0  0
    4.2789   13.5222   -0.8600 H   0  0  0  0  0  0  0  0  0  0  0  0
    4.5133   14.7043   -2.2678 H   0  0  0  0  0  0  0  0  0  0  0  0
    2.8068   15.0921    0.2069 H   0  0  0  0  0  0  0  0  0  0  0  0
    4.2980   15.9860   -0.2865 H   0  0  0  0  0  0  0  0  0  0  0  0
    4.2886   17.5794   -2.1647 H   0  0  0  0  0  0  0  0  0  0  0  0
    3.8119   16.2045   -3.2179 H   0  0  0  0  0  0  0  0  0  0  0  0
    2.8398   17.7151   -3.2179 H   0  0  0  0  0  0  0  0  0  0  0  0
  1  2  1  0
  2  3  1  0
  3  4  1  0
  4  5  1  0
  5  6  1  0
  6  7  1  0
  7  8  1  0
  7  9  1  0
  2 10  1  0
 10 11  1  0
 11 12  1  0
 12 13  1  0
 13 14  1  1
 13 15  1  0
 15 16  1  0
 16 17  1  0
 17 18  2  0
 18 19  1  0
 19 20  1  0
 20 21  1  0
 21 22  1  0
 22 23  1  0
 22 24  1  0
 24 25  1  0
 24 26  1  0
 19 27  1  0
 27 28  1  6
 27 29  1  0
 29 30  1  0
 30 31  1  0
 31 32  1  6
  7  5  1  0
 31 10  1  0
 31 13  1  0
 27 15  1  0
 24 18  1  0
  1 33  1  0
  1 34  1  0
  1 35  1  0
  2 36  1  6
  3 37  1  0
  3 38  1  0
  4 39  1  0
  4 40  1  0
  5 41  1  6
  8 42  1  0
  8 43  1  0
  8 44  1  0
  9 45  1  0
  9 46  1  0
  9 47  1  0
 10 48  1  1
 11 49  1  0
 11 50  1  0
 12 51  1  0
 12 52  1  0
 14 53  1  0
 14 54  1  0
 14 55  1  0
 15 56  1  6
 16 57  1  0
 16 58  1  0
 17 59  1  0
 19 60  1  1
 20 61  1  0
 20 62  1  0
 21 63  1  0
 21 64  1  0
 22 65  1  1
 23 66  1  0
 25 67  1  0
 25 68  1  0
 25 69  1  0
 26 70  1  0
 26 71  1  0
 26 72  1  0
 28 73  1  0
 28 74  1  0
 28 75  1  0
 29 76  1  0
 29 77  1  0
 30 78  1  0
 30 79  1  0
 32 80  1  0
 32 81  1  0
 32 82  1  0
M  END
>  <meeko>  (6) 
{"is_sidechain": [false], "intermolecular_energy": 2.731, "internal_energy": -0.839}

$$$$
EPH_relaxed_0001_pdb2pqr_Repair_311_r2_0001_out
     RDKit          3D

 82 86  0  0  0  0  0  0  0  0999 V2000
   -2.7310    7.7270   -2.6870 C   0  0  0  0  0  0  0  0  0  0  0  0
   -2.9530    8.1360   -1.2280 C   0  0  2  0  0  0  0  0  0  0  0  0
   -4.4500    8.2670   -0.8830 C   0  0  0  0  0  0  0  0  0  0  0  0
   -5.2370    6.9640   -1.0520 C   0  0  0  0  0  0  0  0  0  0  0  0
   -6.2100    7.0470   -2.1890 C   0  0  2  0  0  0  0  0  0  0  0  0
   -6.9470    8.2750   -2.2570 O   0  0  0  0  0  0  0  0  0  0  0  0
   -7.7150    7.0870   -2.0010 C   0  0  0  0  0  0  0  0  0  0  0  0
   -8.3320    7.0440   -0.6380 C   0  0  0  0  0  0  0  0  0  0  0  0
   -8.5900    6.6770   -3.1440 C   0  0  0  0  0  0  0  0  0  0  0  0
   -2.2360    9.4500   -0.9420 C   0  0  1  0  0  0  0  0  0  0  0  0
   -2.5210    9.9870    0.4860 C   0  0  0  0  0  0  0  0  0  0  0  0
   -1.2210   10.6770    0.9730 C   0  0  0  0  0  0  0  0  0  0  0  0
   -0.3490   10.8070   -0.2980 C   0  0  1  0  0  0  0  0  0  0  0  0
   -0.8950   12.0720   -1.0310 C   0  0  0  0  0  0  0  0  0  0  0  0
    1.1960   10.8920   -0.0710 C   0  0  2  0  0  0  0  0  0  0  0  0
    1.6700   12.1170    0.7300 C   0  0  0  0  0  0  0  0  0  0  0  0
    2.0070   13.3210   -0.0850 C   0  0  0  0  0  0  0  0  0  0  0  0
    2.2050   13.3340   -1.4170 C   0  0  0  0  0  0  0  0  0  0  0  0
    2.1920   12.0320   -2.2270 C   0  0  1  0  0  0  0  0  0  0  0  0
    3.4090   12.0090   -3.1900 C   0  0  0  0  0  0  0  0  0  0  0  0
    3.4760   13.2480   -4.0770 C   0  0  0  0  0  0  0  0  0  0  0  0
    3.5460   14.5190   -3.2350 C   0  0  2  0  0  0  0  0  0  0  0  0
    4.7940   14.5400   -2.5350 O   0  0  0  0  0  0  0  0  0  0  0  0
    2.3760   14.6470   -2.2200 C   0  0  0  0  0  0  0  0  0  0  0  0
    1.0560   14.9270   -2.9800 C   0  0  0  0  0  0  0  0  0  0  0  0
    2.6420   15.8970   -1.3390 C   0  0  0  0  0  0  0  0  0  0  0  0
    2.0560   10.6910   -1.3840 C   0  0  1  0  0  0  0  0  0  0  0  0
    3.4650   10.2070   -0.9230 C   0  0  0  0  0  0  0  0  0  0  0  0
    1.4780    9.5570   -2.3110 C   0  0  0  0  0  0  0  0  0  0  0  0
   -0.0560    9.4480   -2.4000 C   0  0  0  0  0  0  0  0  0  0  0  0
   -0.6880    9.4430   -1.0050 C   0  0  2  0  0  0  0  0  0  0  0  0
   -0.1740    8.1690   -0.2510 C   0  0  0  0  0  0  0  0  0  0  0  0
   -2.2065    6.7607   -2.7212 H   0  0  0  0  0  0  0  0  0  0  0  0
   -3.7029    7.6348   -3.1939 H   0  0  0  0  0  0  0  0  0  0  0  0
   -2.1242    8.4917   -3.1939 H   0  0  0  0  0  0  0  0  0  0  0  0
   -2.5366    7.3394   -0.5940 H   0  0  0  0  0  0  0  0  0  0  0  0
   -4.5379    8.5925    0.1641 H   0  0  0  0  0  0  0  0  0  0  0  0
   -4.8795    8.9955   -1.5864 H   0  0  0  0  0  0  0  0  0  0  0  0
   -4.5305    6.1436   -1.2467 H   0  0  0  0  0  0  0  0  0  0  0  0
   -5.8050    6.7843   -0.1273 H   0  0  0  0  0  0  0  0  0  0  0  0
   -5.5621    6.4213   -2.8205 H   0  0  0  0  0  0  0  0  0  0  0  0
   -7.5410    7.0991    0.1244 H   0  0  0  0  0  0  0  0  0  0  0  0
   -9.0167    7.8966   -0.5184 H   0  0  0  0  0  0  0  0  0  0  0  0
   -8.8918    6.1047   -0.5184 H   0  0  0  0  0  0  0  0  0  0  0  0
   -9.5215    6.2405   -2.7545 H   0  0  0  0  0  0  0  0  0  0  0  0
   -8.8269    7.5579   -3.7588 H   0  0  0  0  0  0  0  0  0  0  0  0
   -8.0647    5.9313   -3.7588 H   0  0  0  0  0  0  0  0  0  0  0  0
   -2.6432   10.0646   -1.7584 H   0  0  0  0  0  0  0  0  0  0  0  0
   -3.3477   10.7122    0.4598 H   0  0  0  0  0  0  0  0  0  0  0  0
   -2.8123    9.1709    1.1636 H   0  0  0  0  0  0  0  0  0  0  0  0
   -1.4422   11.6683    1.3953 H   0  0  0  0  0  0  0  0  0  0  0  0
   -0.7181   10.1062    1.7675 H   0  0  0  0  0  0  0  0  0  0  0  0
   -1.2163   12.8164   -0.2876 H   0  0  0  0  0  0  0  0  0  0  0  0
   -0.1022   12.5015   -1.6610 H   0  0  0  0  0  0  0  0  0  0  0  0
   -1.7514   11.7897   -1.6610 H   0  0  0  0  0  0  0  0  0  0  0  0
    1.3891   10.0210    0.5725 H   0  0  0  0  0  0  0  0  0  0  0  0
    0.8695   12.3947    1.4315 H   0  0  0  0  0  0  0  0  0  0  0  0
    2.6044   11.8136    1.2249 H   0  0  0  0  0  0  0  0  0  0  0  0
    2.1017   14.2789    0.4474 H   0  0  0  0  0  0  0  0  0  0  0  0
    1.2570   12.0442   -2.8063 H   0  0  0  0  0  0  0  0  0  0  0  0
    4.3307   11.9529   -2.5923 H   0  0  0  0  0  0  0  0  0  0  0  0
    3.2987   11.1335   -3.8468 H   0  0  0  0  0  0  0  0  0  0  0  0
    4.3717   13.1876   -4.7126 H   0  0  0  0  0  0  0  0  0  0  0  0
    2.5671   13.2864   -4.6954 H   0  0  0  0  0  0  0  0  0  0  0  0
    3.4607   15.3743   -3.9215 H   0  0  0  0  0  0  0  0  0  0  0  0
    5.4380   14.0430   -3.0670 H   0  0  0  0  0  0  0  0  0  0  0  0
    0.2456   15.0989   -2.2563 H   0  0  0  0  0  0  0  0  0  0  0  0
    1.1788   15.8191   -3.6118 H   0  0  0  0  0  0  0  0  0  0  0  0
    0.8060   14.0619   -3.6118 H   0  0  0  0  0  0  0  0  0  0  0  0
    2.5823   15.6165   -0.2770 H   0  0  0  0  0  0  0  0  0  0  0  0
    3.6446   16.2932   -1.5578 H   0  0  0  0  0  0  0  0  0  0  0  0
    1.8876   16.6671   -1.5578 H   0  0  0  0  0  0  0  0  0  0  0  0
    3.5063   10.1928    0.1761 H   0  0  0  0  0  0  0  0  0  0  0  0
    3.6495    9.1940   -1.3100 H   0  0  0  0  0  0  0  0  0  0  0  0
    4.2330   10.8928   -1.3100 H   0  0  0  0  0  0  0  0  0  0  0  0
    1.8589    9.7320   -3.3280 H   0  0  0  0  0  0  0  0  0  0  0  0
    1.8077    8.6134   -1.8517 H   0  0  0  0  0  0  0  0  0  0  0  0
   -0.4452   10.3058   -2.9681 H   0  0  0  0  0  0  0  0  0  0  0  0
   -0.3115    8.5041   -2.9038 H   0  0  0  0  0  0  0  0  0  0  0  0
   -0.2404    8.3337    0.8346 H   0  0  0  0  0  0  0  0  0  0  0  0
   -0.7933    7.3035   -0.5292 H   0  0  0  0  0  0  0  0  0  0  0  0
    0.8725    7.9756   -0.5292 H   0  0  0  0  0  0  0  0  0  0  0  0
  1  2  1  0
  2  3  1  0
  3  4  1  0
  4  5  1  0
  5  6  1  0
  6  7  1  0
  7  8  1  0
  7  9  1  0
  2 10  1  0
 10 11  1  0
 11 12  1  0
 12 13  1  0
 13 14  1  6
 13 15  1  0
 15 16  1  0
 16 17  1  0
 17 18  2  0
 18 19  1  0
 19 20  1  0
 20 21  1  0
 21 22  1  0
 22 23  1  0
 22 24  1  0
 24 25  1  0
 24 26  1  0
 19 27  1  0
 27 28  1  1
 27 29  1  0
 29 30  1  0
 30 31  1  0
 31 32  1  1
  7  5  1  0
 31 10  1  0
 31 13  1  0
 27 15  1  0
 24 18  1  0
  1 33  1  0
  1 34  1  0
  1 35  1  0
  2 36  1  1
  3 37  1  0
  3 38  1  0
  4 39  1  0
  4 40  1  0
  5 41  1  6
  8 42  1  0
  8 43  1  0
  8 44  1  0
  9 45  1  0
  9 46  1  0
  9 47  1  0
 10 48  1  6
 11 49  1  0
 11 50  1  0
 12 51  1  0
 12 52  1  0
 14 53  1  0
 14 54  1  0
 14 55  1  0
 15 56  1  1
 16 57  1  0
 16 58  1  0
 17 59  1  0
 19 60  1  6
 20 61  1  0
 20 62  1  0
 21 63  1  0
 21 64  1  0
 22 65  1  6
 23 66  1  0
 25 67  1  0
 25 68  1  0
 25 69  1  0
 26 70  1  0
 26 71  1  0
 26 72  1  0
 28 73  1  0
 28 74  1  0
 28 75  1  0
 29 76  1  0
 29 77  1  0
 30 78  1  0
 30 79  1  0
 32 80  1  0
 32 81  1  0
 32 82  1  0
M  END
>  <meeko>  (7) 
{"is_sidechain": [false], "intermolecular_energy": 2.731, "internal_energy": -0.839}

$$$$
EPH_relaxed_0001_pdb2pqr_Repair_311_r2_0001_out
     RDKit          3D

 82 86  0  0  0  0  0  0  0  0999 V2000
    0.8760   15.2480   -6.9760 C   0  0  0  0  0  0  0  0  0  0  0  0
    2.3270   14.8800   -6.6510 C   0  0  2  0  0  0  0  0  0  0  0  0
    3.1270   14.5020   -7.9130 C   0  0  0  0  0  0  0  0  0  0  0  0
    3.2700   15.6490   -8.9180 C   0  0  0  0  0  0  0  0  0  0  0  0
    2.8390   15.2380  -10.2930 C   0  0  2  0  0  0  0  0  0  0  0  0
    2.3430   16.3070  -11.1100 O   0  0  0  0  0  0  0  0  0  0  0  0
    1.3980   15.2810  -10.7660 C   0  0  0  0  0  0  0  0  0  0  0  0
    0.2950   15.7460   -9.8670 C   0  0  0  0  0  0  0  0  0  0  0  0
    0.9980   14.4180  -11.9220 C   0  0  0  0  0  0  0  0  0  0  0  0
    2.3590   13.7310   -5.6500 C   0  0  1  0  0  0  0  0  0  0  0  0
    3.8040   13.3160   -5.2640 C   0  0  0  0  0  0  0  0  0  0  0  0
    3.7640   12.8920   -3.7730 C   0  0  0  0  0  0  0  0  0  0  0  0
    2.2590   12.7590   -3.4450 C   0  0  1  0  0  0  0  0  0  0  0  0
    1.8520   11.3520   -3.9860 C   0  0  0  0  0  0  0  0  0  0  0  0
    1.8600   12.9370   -1.9440 C   0  0  2  0  0  0  0  0  0  0  0  0
    2.4570   11.8940   -0.9820 C   0  0  0  0  0  0  0  0  0  0  0  0
    1.6240   10.6740   -0.7680 C   0  0  0  0  0  0  0  0  0  0  0  0
    0.3250   10.5470   -1.0940 C   0  0  0  0  0  0  0  0  0  0  0  0
   -0.4670   11.7350   -1.6550 C   0  0  1  0  0  0  0  0  0  0  0  0
   -1.8310   11.8390   -0.9250 C   0  0  0  0  0  0  0  0  0  0  0  0
   -2.6230   10.5360   -0.9750 C   0  0  0  0  0  0  0  0  0  0  0  0
   -1.8260    9.3900   -0.3560 C   0  0  2  0  0  0  0  0  0  0  0  0
   -1.6760    9.6380    1.0460 O   0  0  0  0  0  0  0  0  0  0  0  0
   -0.4270    9.1960   -1.0050 C   0  0  0  0  0  0  0  0  0  0  0  0
   -0.5920    8.6350   -2.4390 C   0  0  0  0  0  0  0  0  0  0  0  0
    0.3270    8.1050   -0.1970 C   0  0  0  0  0  0  0  0  0  0  0  0
    0.3070   13.1230   -1.7030 C   0  0  1  0  0  0  0  0  0  0  0  0
    0.1540   13.8650   -0.3400 C   0  0  0  0  0  0  0  0  0  0  0  0
   -0.3600   14.0460   -2.7890 C   0  0  0  0  0  0  0  0  0  0  0  0
    0.1590   13.9090   -4.2330 C   0  0  0  0  0  0  0  0  0  0  0  0
    1.6890   13.9680   -4.2730 C   0  0  2  0  0  0  0  0  0  0  0  0
    2.1270   15.3810   -3.7550 C   0  0  0  0  0  0  0  0  0  0  0  0
    0.3154   15.3902   -6.0403 H   0  0  0  0  0  0  0  0  0  0  0  0
    0.8561   16.1796   -7.5605 H   0  0  0  0  0  0  0  0  0  0  0  0
    0.4145   14.4385   -7.5605 H   0  0  0  0  0  0  0  0  0  0  0  0
    2.8040   15.7690   -6.2126 H   0  0  0  0  0  0  0  0  0  0  0  0
    4.1335   14.1838   -7.6037 H   0  0  0  0  0  0  0  0  0  0  0  0
    2.5698   13.6994   -8.4184 H   0  0  0  0  0  0  0  0  0  0  0  0
    2.6473   16.4930   -8.5866 H   0  0  0  0  0  0  0  0  0  0  0  0
    4.3311   15.9356   -8.9626 H   0  0  0  0  0  0  0  0  0  0  0  0
    3.6013   14.4454  -10.3203 H   0  0  0  0  0  0  0  0  0  0  0  0
    0.5987   15.6180   -8.8175 H   0  0  0  0  0  0  0  0  0  0  0  0
    0.0868   16.8085  -10.0614 H   0  0  0  0  0  0  0  0  0  0  0  0
   -0.6110   15.1533  -10.0614 H   0  0  0  0  0  0  0  0  0  0  0  0
    0.5633   13.4800  -11.5462 H   0  0  0  0  0  0  0  0  0  0  0  0
    0.2535   14.9476  -12.5346 H   0  0  0  0  0  0  0  0  0  0  0  0
    1.8833   14.1922  -12.5346 H   0  0  0  0  0  0  0  0  0  0  0  0
    1.7951   12.9760   -6.2174 H   0  0  0  0  0  0  0  0  0  0  0  0
    4.1359   12.4736   -5.8887 H   0  0  0  0  0  0  0  0  0  0  0  0
    4.5085   14.1462   -5.4199 H   0  0  0  0  0  0  0  0  0  0  0  0
    4.2792   11.9309   -3.6287 H   0  0  0  0  0  0  0  0  0  0  0  0
    4.2706   13.6175   -3.1195 H   0  0  0  0  0  0  0  0  0  0  0  0
    1.6566   10.6764   -3.1402 H   0  0  0  0  0  0  0  0  0  0  0  0
    0.9436   11.4438   -4.5995 H   0  0  0  0  0  0  0  0  0  0  0  0
    2.6691   10.9446   -4.5995 H   0  0  0  0  0  0  0  0  0  0  0  0
    2.3396   13.8924   -1.6846 H   0  0  0  0  0  0  0  0  0  0  0  0
    3.4289   11.5753   -1.3867 H   0  0  0  0  0  0  0  0  0  0  0  0
    2.5288   12.3893   -0.0024 H   0  0  0  0  0  0  0  0  0  0  0  0
    2.1139    9.8050   -0.3044 H   0  0  0  0  0  0  0  0  0  0  0  0
   -0.6301   11.5161   -2.7206 H   0  0  0  0  0  0  0  0  0  0  0  0
   -1.6483   12.1003    0.1278 H   0  0  0  0  0  0  0  0  0  0  0  0
   -2.4252   12.6104   -1.4367 H   0  0  0  0  0  0  0  0  0  0  0  0
   -3.5624   10.6639   -0.4172 H   0  0  0  0  0  0  0  0  0  0  0  0
   -2.8312   10.2913   -2.0270 H   0  0  0  0  0  0  0  0  0  0  0  0
   -2.3872    8.4615   -0.5377 H   0  0  0  0  0  0  0  0  0  0  0  0
   -2.0360    8.8690    1.5200 H   0  0  0  0  0  0  0  0  0  0  0  0
   -0.9020    7.5809   -2.3869 H   0  0  0  0  0  0  0  0  0  0  0  0
   -1.3572    9.2162   -2.9743 H   0  0  0  0  0  0  0  0  0  0  0  0
    0.3661    8.7094   -2.9743 H   0  0  0  0  0  0  0  0  0  0  0  0
    0.1982    8.2913    0.8794 H   0  0  0  0  0  0  0  0  0  0  0  0
   -0.0804    7.1148   -0.4491 H   0  0  0  0  0  0  0  0  0  0  0  0
    1.3973    8.1361   -0.4491 H   0  0  0  0  0  0  0  0  0  0  0  0
    0.3011   13.1517    0.4843 H   0  0  0  0  0  0  0  0  0  0  0  0
    0.9061   14.6647   -0.2714 H   0  0  0  0  0  0  0  0  0  0  0  0
   -0.8531   14.3020   -0.2714 H   0  0  0  0  0  0  0  0  0  0  0  0
   -1.4368   13.8216   -2.8001 H   0  0  0  0  0  0  0  0  0  0  0  0
   -0.1052   15.0731   -2.4886 H   0  0  0  0  0  0  0  0  0  0  0  0
   -0.1750   12.9456   -4.6456 H   0  0  0  0  0  0  0  0  0  0  0  0
   -0.2401   14.7423   -4.8299 H   0  0  0  0  0  0  0  0  0  0  0  0
    2.1280   15.3842   -2.6550 H   0  0  0  0  0  0  0  0  0  0  0  0
    3.1381   15.6093   -4.1232 H   0  0  0  0  0  0  0  0  0  0  0  0
    1.4223   16.1412   -4.1232 H   0  0  0  0  0  0  0  0  0  0  0  0
  1  2  1  0
  2  3  1  0
  3  4  1  0
  4  5  1  0
  5  6  1  0
  6  7  1  0
  7  8  1  0
  7  9  1  0
  2 10  1  0
 10 11  1  0
 11 12  1  0
 12 13  1  0
 13 14  1  6
 13 15  1  0
 15 16  1  0
 16 17  1  0
 17 18  2  0
 18 19  1  0
 19 20  1  0
 20 21  1  0
 21 22  1  0
 22 23  1  0
 22 24  1  0
 24 25  1  0
 24 26  1  0
 19 27  1  0
 27 28  1  1
 27 29  1  0
 29 30  1  0
 30 31  1  0
 31 32  1  1
  7  5  1  0
 31 10  1  0
 31 13  1  0
 27 15  1  0
 24 18  1  0
  1 33  1  0
  1 34  1  0
  1 35  1  0
  2 36  1  1
  3 37  1  0
  3 38  1  0
  4 39  1  0
  4 40  1  0
  5 41  1  6
  8 42  1  0
  8 43  1  0
  8 44  1  0
  9 45  1  0
  9 46  1  0
  9 47  1  0
 10 48  1  6
 11 49  1  0
 11 50  1  0
 12 51  1  0
 12 52  1  0
 14 53  1  0
 14 54  1  0
 14 55  1  0
 15 56  1  1
 16 57  1  0
 16 58  1  0
 17 59  1  0
 19 60  1  6
 20 61  1  0
 20 62  1  0
 21 63  1  0
 21 64  1  0
 22 65  1  1
 23 66  1  0
 25 67  1  0
 25 68  1  0
 25 69  1  0
 26 70  1  0
 26 71  1  0
 26 72  1  0
 28 73  1  0
 28 74  1  0
 28 75  1  0
 29 76  1  0
 29 77  1  0
 30 78  1  0
 30 79  1  0
 32 80  1  0
 32 81  1  0
 32 82  1  0
M  END
>  <meeko>  (8) 
{"is_sidechain": [false], "intermolecular_energy": 2.731, "internal_energy": -0.839}

$$$$
EPH_relaxed_0001_pdb2pqr_Repair_311_r2_0001_out
     RDKit          3D

 82 86  0  0  0  0  0  0  0  0999 V2000
    3.6960   11.8400   -4.8530 C   0  0  0  0  0  0  0  0  0  0  0  0
    2.7110   12.6580   -5.6920 C   0  0  2  0  0  0  0  0  0  0  0  0
    3.4320   13.6180   -6.6610 C   0  0  0  0  0  0  0  0  0  0  0  0
    2.6320   14.8830   -6.9810 C   0  0  0  0  0  0  0  0  0  0  0  0
    2.7310   15.2500   -8.4310 C   0  0  2  0  0  0  0  0  0  0  0  0
    2.4420   16.6230   -8.7230 O   0  0  0  0  0  0  0  0  0  0  0  0
    1.5370   15.6540   -9.2760 C   0  0  0  0  0  0  0  0  0  0  0  0
    0.1570   15.7110   -8.7000 C   0  0  0  0  0  0  0  0  0  0  0  0
    1.6350   15.5180  -10.7640 C   0  0  0  0  0  0  0  0  0  0  0  0
    1.7780   13.4440   -4.7790 C   0  0  1  0  0  0  0  0  0  0  0  0
    0.4720   12.6710   -4.4520 C   0  0  0  0  0  0  0  0  0  0  0  0
    0.0880   13.0380   -2.9950 C   0  0  0  0  0  0  0  0  0  0  0  0
    0.9830   14.2510   -2.6500 C   0  0  1  0  0  0  0  0  0  0  0  0
    0.2580   15.4790   -3.2850 C   0  0  0  0  0  0  0  0  0  0  0  0
    1.2830   14.4780   -1.1320 C   0  0  2  0  0  0  0  0  0  0  0  0
    0.0490   14.7740   -0.2610 C   0  0  0  0  0  0  0  0  0  0  0  0
   -0.3010   16.2180   -0.1200 C   0  0  0  0  0  0  0  0  0  0  0  0
    0.5030   17.2520   -0.4310 C   0  0  0  0  0  0  0  0  0  0  0  0
    1.9480   17.0160   -0.8880 C   0  0  1  0  0  0  0  0  0  0  0  0
    2.8960   17.9790   -0.1270 C   0  0  0  0  0  0  0  0  0  0  0  0
    2.4740   19.4400   -0.2570 C   0  0  0  0  0  0  0  0  0  0  0  0
    1.0530   19.6450    0.2610 C   0  0  2  0  0  0  0  0  0  0  0  0
    1.0410   19.4180    1.6740 O   0  0  0  0  0  0  0  0  0  0  0  0
    0.0100   18.7200   -0.4260 C   0  0  0  0  0  0  0  0  0  0  0  0
   -0.1950   19.1680   -1.8940 C   0  0  0  0  0  0  0  0  0  0  0  0
   -1.3540   18.9270    0.2860 C   0  0  0  0  0  0  0  0  0  0  0  0
    2.4500   15.5080   -0.8490 C   0  0  1  0  0  0  0  0  0  0  0  0
    3.0090   15.1700    0.5670 C   0  0  0  0  0  0  0  0  0  0  0  0
    3.6520   15.3410   -1.8520 C   0  0  0  0  0  0  0  0  0  0  0  0
    3.2970   14.9980   -3.3120 C   0  0  0  0  0  0  0  0  0  0  0  0
    2.3120   13.8270   -3.3760 C   0  0  2  0  0  0  0  0  0  0  0  0
    3.0210   12.5710   -2.7640 C   0  0  0  0  0  0  0  0  0  0  0  0
    3.4946   12.0072   -3.7846 H   0  0  0  0  0  0  0  0  0  0  0  0
    3.5768   10.7715   -5.0858 H   0  0  0  0  0  0  0  0  0  0  0  0
    4.7244   12.1534   -5.0858 H   0  0  0  0  0  0  0  0  0  0  0  0
    2.1273   11.9511   -6.3000 H   0  0  0  0  0  0  0  0  0  0  0  0
    4.3880   13.9171   -6.2065 H   0  0  0  0  0  0  0  0  0  0  0  0
    3.5696   13.0759   -7.6082 H   0  0  0  0  0  0  0  0  0  0  0  0
    1.5755   14.7100   -6.7285 H   0  0  0  0  0  0  0  0  0  0  0  0
    3.0486   15.7110   -6.3886 H   0  0  0  0  0  0  0  0  0  0  0  0
    3.5288   14.5090   -8.5874 H   0  0  0  0  0  0  0  0  0  0  0  0
    0.2177   15.7085   -7.6017 H   0  0  0  0  0  0  0  0  0  0  0  0
   -0.3435   16.6306   -9.0375 H   0  0  0  0  0  0  0  0  0  0  0  0
   -0.4176   14.8358   -9.0375 H   0  0  0  0  0  0  0  0  0  0  0  0
    2.2615   14.6486  -11.0123 H   0  0  0  0  0  0  0  0  0  0  0  0
    0.6291   15.3777  -11.1864 H   0  0  0  0  0  0  0  0  0  0  0  0
    2.0864   16.4278  -11.1864 H   0  0  0  0  0  0  0  0  0  0  0  0
    1.6414   14.3489   -5.3894 H   0  0  0  0  0  0  0  0  0  0  0  0
   -0.3296   12.9724   -5.1424 H   0  0  0  0  0  0  0  0  0  0  0  0
    0.6173   11.5861   -4.5609 H   0  0  0  0  0  0  0  0  0  0  0  0
   -0.9760   13.3095   -2.9304 H   0  0  0  0  0  0  0  0  0  0  0  0
    0.2369   12.1984   -2.3001 H   0  0  0  0  0  0  0  0  0  0  0  0
   -0.1268   16.1307   -2.4867 H   0  0  0  0  0  0  0  0  0  0  0  0
    0.9684   16.0424   -3.9079 H   0  0  0  0  0  0  0  0  0  0  0  0
   -0.5785   15.1292   -3.9079 H   0  0  0  0  0  0  0  0  0  0  0  0
    1.6452   13.4898   -0.8123 H   0  0  0  0  0  0  0  0  0  0  0  0
   -0.8136   14.2573   -0.7071 H   0  0  0  0  0  0  0  0  0  0  0  0
    0.2992   14.4216    0.7505 H   0  0  0  0  0  0  0  0  0  0  0  0
   -1.3007   16.4577    0.2712 H   0  0  0  0  0  0  0  0  0  0  0  0
    1.9679   17.2458   -1.9636 H   0  0  0  0  0  0  0  0  0  0  0  0
    2.8955   17.7053    0.9384 H   0  0  0  0  0  0  0  0  0  0  0  0
    3.8980   17.8803   -0.5700 H   0  0  0  0  0  0  0  0  0  0  0  0
    3.1639   20.0674    0.3264 H   0  0  0  0  0  0  0  0  0  0  0  0
    2.5044   19.7212   -1.3200 H   0  0  0  0  0  0  0  0  0  0  0  0
    0.7604   20.6780    0.0215 H   0  0  0  0  0  0  0  0  0  0  0  0
    0.1420   19.6050    1.9940 H   0  0  0  0  0  0  0  0  0  0  0  0
   -0.6526   20.1681   -1.9116 H   0  0  0  0  0  0  0  0  0  0  0  0
    0.7777   19.2008   -2.4066 H   0  0  0  0  0  0  0  0  0  0  0  0
   -0.8557   18.4533   -2.4066 H   0  0  0  0  0  0  0  0  0  0  0  0
   -1.2059   18.9045    1.3758 H   0  0  0  0  0  0  0  0  0  0  0  0
   -1.7765   19.8995   -0.0066 H   0  0  0  0  0  0  0  0  0  0  0  0
   -2.0460   18.1236   -0.0066 H   0  0  0  0  0  0  0  0  0  0  0  0
    2.3346   15.5778    1.3344 H   0  0  0  0  0  0  0  0  0  0  0  0
    3.0786   14.0783    0.6827 H   0  0  0  0  0  0  0  0  0  0  0  0
    4.0081   15.6155    0.6827 H   0  0  0  0  0  0  0  0  0  0  0  0
    4.2129   16.2872   -1.8595 H   0  0  0  0  0  0  0  0  0  0  0  0
    4.2169   14.4728   -1.4818 H   0  0  0  0  0  0  0  0  0  0  0  0
    2.8406   15.8785   -3.7878 H   0  0  0  0  0  0  0  0  0  0  0  0
    4.2188   14.7102   -3.8388 H   0  0  0  0  0  0  0  0  0  0  0  0
    2.9878   12.6298   -1.6661 H   0  0  0  0  0  0  0  0  0  0  0  0
    2.5044   11.6592   -3.0981 H   0  0  0  0  0  0  0  0  0  0  0  0
    4.0686   12.5422   -3.0981 H   0  0  0  0  0  0  0  0  0  0  0  0
  1  2  1  0
  2  3  1  0
  3  4  1  0
  4  5  1  0
  5  6  1  0
  6  7  1  0
  7  8  1  0
  7  9  1  0
  2 10  1  0
 10 11  1  0
 11 12  1  0
 12 13  1  0
 13 14  1  6
 13 15  1  0
 15 16  1  0
 16 17  1  0
 17 18  2  0
 18 19  1  0
 19 20  1  0
 20 21  1  0
 21 22  1  0
 22 23  1  0
 22 24  1  0
 24 25  1  0
 24 26  1  0
 19 27  1  0
 27 28  1  1
 27 29  1  0
 29 30  1  0
 30 31  1  0
 31 32  1  1
  7  5  1  0
 31 10  1  0
 31 13  1  0
 27 15  1  0
 24 18  1  0
  1 33  1  0
  1 34  1  0
  1 35  1  0
  2 36  1  6
  3 37  1  0
  3 38  1  0
  4 39  1  0
  4 40  1  0
  5 41  1  6
  8 42  1  0
  8 43  1  0
  8 44  1  0
  9 45  1  0
  9 46  1  0
  9 47  1  0
 10 48  1  6
 11 49  1  0
 11 50  1  0
 12 51  1  0
 12 52  1  0
 14 53  1  0
 14 54  1  0
 14 55  1  0
 15 56  1  1
 16 57  1  0
 16 58  1  0
 17 59  1  0
 19 60  1  6
 20 61  1  0
 20 62  1  0
 21 63  1  0
 21 64  1  0
 22 65  1  1
 23 66  1  0
 25 67  1  0
 25 68  1  0
 25 69  1  0
 26 70  1  0
 26 71  1  0
 26 72  1  0
 28 73  1  0
 28 74  1  0
 28 75  1  0
 29 76  1  0
 29 77  1  0
 30 78  1  0
 30 79  1  0
 32 80  1  0
 32 81  1  0
 32 82  1  0
M  END
>  <meeko>  (9) 
{"is_sidechain": [false], "intermolecular_energy": 2.731, "internal_energy": -0.839}

$$$$
EPH_relaxed_0001_pdb2pqr_Repair_311_r2_0001_out
     RDKit          3D

 82 86  0  0  0  0  0  0  0  0999 V2000
   -0.9080    9.2410   -2.9420 C   0  0  0  0  0  0  0  0  0  0  0  0
    0.1090    8.9520   -1.8340 C   0  0  2  0  0  0  0  0  0  0  0  0
   -0.5690    8.7330   -0.4670 C   0  0  0  0  0  0  0  0  0  0  0  0
   -0.9880   10.0310    0.2290 C   0  0  0  0  0  0  0  0  0  0  0  0
    0.0410   10.4870    1.2190 C   0  0  2  0  0  0  0  0  0  0  0  0
   -0.4710   11.2950    2.2860 O   0  0  0  0  0  0  0  0  0  0  0  0
    0.4520   11.9370    1.3910 C   0  0  0  0  0  0  0  0  0  0  0  0
   -0.1590   13.0240    0.5640 C   0  0  0  0  0  0  0  0  0  0  0  0
    1.7820   12.2350    2.0090 C   0  0  0  0  0  0  0  0  0  0  0  0
    1.1130   10.0950   -1.7400 C   0  0  1  0  0  0  0  0  0  0  0  0
    2.5690    9.6350   -2.0170 C   0  0  0  0  0  0  0  0  0  0  0  0
    3.2760   10.8050   -2.7480 C   0  0  0  0  0  0  0  0  0  0  0  0
    2.3200   12.0090   -2.5740 C   0  0  1  0  0  0  0  0  0  0  0  0
    2.6210   12.5550   -1.1430 C   0  0  0  0  0  0  0  0  0  0  0  0
    2.4220   13.1340   -3.6550 C   0  0  2  0  0  0  0  0  0  0  0  0
    3.7800   13.8530   -3.7230 C   0  0  0  0  0  0  0  0  0  0  0  0
    3.9060   15.0620   -2.8570 C   0  0  0  0  0  0  0  0  0  0  0  0
    2.8840   15.7170   -2.2750 C   0  0  0  0  0  0  0  0  0  0  0  0
    1.4310   15.3080   -2.5460 C   0  0  1  0  0  0  0  0  0  0  0  0
    0.5840   16.5730   -2.8420 C   0  0  0  0  0  0  0  0  0  0  0  0
    0.6990   17.6260   -1.7440 C   0  0  0  0  0  0  0  0  0  0  0  0
    2.1520   18.0490   -1.5440 C   0  0  2  0  0  0  0  0  0  0  0  0
    2.5960   18.7390   -2.7170 O   0  0  0  0  0  0  0  0  0  0  0  0
    3.1030   16.8560   -1.2490 C   0  0  0  0  0  0  0  0  0  0  0  0
    2.8120   16.2970    0.1660 C   0  0  0  0  0  0  0  0  0  0  0  0
    4.5560   17.4020   -1.2100 C   0  0  0  0  0  0  0  0  0  0  0  0
    1.2220   14.1660   -3.6310 C   0  0  1  0  0  0  0  0  0  0  0  0
    1.1460   14.7930   -5.0560 C   0  0  0  0  0  0  0  0  0  0  0  0
   -0.1650   13.4650   -3.3790 C   0  0  0  0  0  0  0  0  0  0  0  0
   -0.1770   12.2830   -2.3910 C   0  0  0  0  0  0  0  0  0  0  0  0
    0.9340   11.2820   -2.7190 C   0  0  2  0  0  0  0  0  0  0  0  0
    0.6460   10.6980   -4.1450 C   0  0  0  0  0  0  0  0  0  0  0  0
   -1.8732    9.5153   -2.4913 H   0  0  0  0  0  0  0  0  0  0  0  0
   -0.5451   10.0716   -3.5653 H   0  0  0  0  0  0  0  0  0  0  0  0
   -1.0361    8.3437   -3.5653 H   0  0  0  0  0  0  0  0  0  0  0  0
    0.6301    8.0197   -2.0973 H   0  0  0  0  0  0  0  0  0  0  0  0
   -1.4666    8.1158   -0.6198 H   0  0  0  0  0  0  0  0  0  0  0  0
    0.1713    8.2446    0.1837 H   0  0  0  0  0  0  0  0  0  0  0  0
   -1.1237   10.8149   -0.5306 H   0  0  0  0  0  0  0  0  0  0  0  0
   -1.9256    9.8414    0.7721 H   0  0  0  0  0  0  0  0  0  0  0  0
    0.6257    9.5673    1.0696 H   0  0  0  0  0  0  0  0  0  0  0  0
   -0.5896   13.7901    1.2256 H   0  0  0  0  0  0  0  0  0  0  0  0
    0.6146   13.4806   -0.0708 H   0  0  0  0  0  0  0  0  0  0  0  0
   -0.9512   12.6004   -0.0708 H   0  0  0  0  0  0  0  0  0  0  0  0
    1.6900   12.2144    3.1049 H   0  0  0  0  0  0  0  0  0  0  0  0
    2.5132   11.4784    1.6882 H   0  0  0  0  0  0  0  0  0  0  0  0
    2.1204   13.2312    1.6882 H   0  0  0  0  0  0  0  0  0  0  0  0
    0.9192   10.4260   -0.7090 H   0  0  0  0  0  0  0  0  0  0  0  0
    3.0831    9.4141   -1.0700 H   0  0  0  0  0  0  0  0  0  0  0  0
    2.5849    8.7203   -2.6278 H   0  0  0  0  0  0  0  0  0  0  0  0
    4.2532   11.0157   -2.2890 H   0  0  0  0  0  0  0  0  0  0  0  0
    3.4721   10.5778   -3.8063 H   0  0  0  0  0  0  0  0  0  0  0  0
    2.2327   11.8506   -0.3926 H   0  0  0  0  0  0  0  0  0  0  0  0
    3.7078   12.6660   -1.0140 H   0  0  0  0  0  0  0  0  0  0  0  0
    2.1347   13.5332   -1.0140 H   0  0  0  0  0  0  0  0  0  0  0  0
    2.3376   12.5671   -4.5939 H   0  0  0  0  0  0  0  0  0  0  0  0
    4.5590   13.1370   -3.4223 H   0  0  0  0  0  0  0  0  0  0  0  0
    3.8842   14.2087   -4.7587 H   0  0  0  0  0  0  0  0  0  0  0  0
    4.9196   15.4507   -2.6793 H   0  0  0  0  0  0  0  0  0  0  0  0
    1.0740   14.8267   -1.6236 H   0  0  0  0  0  0  0  0  0  0  0  0
    0.9275   17.0132   -3.7897 H   0  0  0  0  0  0  0  0  0  0  0  0
   -0.4699   16.2629   -2.8973 H   0  0  0  0  0  0  0  0  0  0  0  0
    0.1032   18.5067   -2.0259 H   0  0  0  0  0  0  0  0  0  0  0  0
    0.3262   17.1946   -0.8033 H   0  0  0  0  0  0  0  0  0  0  0  0
    2.1865   18.7030   -0.6602 H   0  0  0  0  0  0  0  0  0  0  0  0
    2.2050   19.6290   -2.7010 H   0  0  0  0  0  0  0  0  0  0  0  0
    3.1806   17.0050    0.9229 H   0  0  0  0  0  0  0  0  0  0  0  0
    1.7277   16.1592    0.2900 H   0  0  0  0  0  0  0  0  0  0  0  0
    3.3211   15.3298    0.2900 H   0  0  0  0  0  0  0  0  0  0  0  0
    4.8747   17.5218   -0.1640 H   0  0  0  0  0  0  0  0  0  0  0  0
    5.2272   16.6948   -1.7192 H   0  0  0  0  0  0  0  0  0  0  0  0
    4.5954   18.3763   -1.7192 H   0  0  0  0  0  0  0  0  0  0  0  0
    1.0140   15.8817   -4.9710 H   0  0  0  0  0  0  0  0  0  0  0  0
    2.0768   14.5779   -5.6013 H   0  0  0  0  0  0  0  0  0  0  0  0
    0.2935   14.3618   -5.6013 H   0  0  0  0  0  0  0  0  0  0  0  0
   -0.8581   14.2275   -2.9940 H   0  0  0  0  0  0  0  0  0  0  0  0
   -0.4488   13.0317   -4.3494 H   0  0  0  0  0  0  0  0  0  0  0  0
   -0.0267   12.6656   -1.3707 H   0  0  0  0  0  0  0  0  0  0  0  0
   -1.1463   11.7692   -2.4712 H   0  0  0  0  0  0  0  0  0  0  0  0
    0.1614    9.7153   -4.0478 H   0  0  0  0  0  0  0  0  0  0  0  0
   -0.0183   11.3817   -4.6939 H   0  0  0  0  0  0  0  0  0  0  0  0
    1.5928   10.5872   -4.6939 H   0  0  0  0  0  0  0  0  0  0  0  0
  1  2  1  0
  2  3  1  0
  3  4  1  0
  4  5  1  0
  5  6  1  0
  6  7  1  0
  7  8  1  0
  7  9  1  0
  2 10  1  0
 10 11  1  0
 11 12  1  0
 12 13  1  0
 13 14  1  1
 13 15  1  0
 15 16  1  0
 16 17  1  0
 17 18  2  0
 18 19  1  0
 19 20  1  0
 20 21  1  0
 21 22  1  0
 22 23  1  0
 22 24  1  0
 24 25  1  0
 24 26  1  0
 19 27  1  0
 27 28  1  6
 27 29  1  0
 29 30  1  0
 30 31  1  0
 31 32  1  6
  7  5  1  0
 31 10  1  0
 31 13  1  0
 27 15  1  0
 24 18  1  0
  1 33  1  0
  1 34  1  0
  1 35  1  0
  2 36  1  6
  3 37  1  0
  3 38  1  0
  4 39  1  0
  4 40  1  0
  5 41  1  1
  8 42  1  0
  8 43  1  0
  8 44  1  0
  9 45  1  0
  9 46  1  0
  9 47  1  0
 10 48  1  1
 11 49  1  0
 11 50  1  0
 12 51  1  0
 12 52  1  0
 14 53  1  0
 14 54  1  0
 14 55  1  0
 15 56  1  6
 16 57  1  0
 16 58  1  0
 17 59  1  0
 19 60  1  1
 20 61  1  0
 20 62  1  0
 21 63  1  0
 21 64  1  0
 22 65  1  1
 23 66  1  0
 25 67  1  0
 25 68  1  0
 25 69  1  0
 26 70  1  0
 26 71  1  0
 26 72  1  0
 28 73  1  0
 28 74  1  0
 28 75  1  0
 29 76  1  0
 29 77  1  0
 30 78  1  0
 30 79  1  0
 32 80  1  0
 32 81  1  0
 32 82  1  0
M  END
>  <meeko>  (10) 
{"is_sidechain": [false], "intermolecular_energy": 2.731, "internal_energy": -0.839}

$$$$
EPH_relaxed_0001_pdb2pqr_Repair_311_r2_0001_out
     RDKit          3D

 82 86  0  0  0  0  0  0  0  0999 V2000
   -1.0860   10.6230    1.4960 C   0  0  0  0  0  0  0  0  0  0  0  0
   -1.7360   10.2620    0.1570 C   0  0  2  0  0  0  0  0  0  0  0  0
   -2.5390    8.9480    0.2380 C   0  0  0  0  0  0  0  0  0  0  0  0
   -3.9310    9.0390   -0.3920 C   0  0  0  0  0  0  0  0  0  0  0  0
   -4.4720    7.6840   -0.7380 C   0  0  2  0  0  0  0  0  0  0  0  0
   -4.6240    7.4420   -2.1430 O   0  0  0  0  0  0  0  0  0  0  0  0
   -5.8350    7.4640   -1.3690 C   0  0  0  0  0  0  0  0  0  0  0  0
   -6.7410    8.6110   -1.6900 C   0  0  0  0  0  0  0  0  0  0  0  0
   -6.4820    6.1220   -1.2240 C   0  0  0  0  0  0  0  0  0  0  0  0
   -0.6690   10.1550   -0.9260 C   0  0  1  0  0  0  0  0  0  0  0  0
   -1.0930    9.2230   -2.0920 C   0  0  0  0  0  0  0  0  0  0  0  0
   -0.4950    9.8270   -3.3890 C   0  0  0  0  0  0  0  0  0  0  0  0
    0.5190   10.8850   -2.8940 C   0  0  1  0  0  0  0  0  0  0  0  0
    1.8010   10.0730   -2.5310 C   0  0  0  0  0  0  0  0  0  0  0  0
    0.8360   12.0530   -3.8830 C   0  0  2  0  0  0  0  0  0  0  0  0
    1.4900   11.6260   -5.2090 C   0  0  0  0  0  0  0  0  0  0  0  0
    2.9830   11.5990   -5.2040 C   0  0  0  0  0  0  0  0  0  0  0  0
    3.7730   12.1730   -4.2780 C   0  0  0  0  0  0  0  0  0  0  0  0
    3.1740   13.0210   -3.1490 C   0  0  1  0  0  0  0  0  0  0  0  0
    3.9790   14.3400   -3.0090 C   0  0  0  0  0  0  0  0  0  0  0  0
    5.4740   14.0960   -2.8260 C   0  0  0  0  0  0  0  0  0  0  0  0
    6.0440   13.2990   -3.9970 C   0  0  2  0  0  0  0  0  0  0  0  0
    5.9790   14.1040   -5.1780 O   0  0  0  0  0  0  0  0  0  0  0  0
    5.3050   11.9540   -4.2400 C   0  0  0  0  0  0  0  0  0  0  0  0
    5.6270   10.9670   -3.0900 C   0  0  0  0  0  0  0  0  0  0  0  0
    5.8850   11.3170   -5.5320 C   0  0  0  0  0  0  0  0  0  0  0  0
    1.6060   13.2690   -3.2240 C   0  0  1  0  0  0  0  0  0  0  0  0
    1.3070   14.5180   -4.1100 C   0  0  0  0  0  0  0  0  0  0  0  0
    1.0690   13.6080   -1.7840 C   0  0  0  0  0  0  0  0  0  0  0  0
    0.6590   12.4160   -0.8970 C   0  0  0  0  0  0  0  0  0  0  0  0
   -0.2650   11.4590   -1.6580 C   0  0  2  0  0  0  0  0  0  0  0  0
   -1.5730   12.2420   -2.0170 C   0  0  0  0  0  0  0  0  0  0  0  0
   -1.7230   10.2692    2.3200 H   0  0  0  0  0  0  0  0  0  0  0  0
   -0.0980   10.1444    1.5648 H   0  0  0  0  0  0  0  0  0  0  0  0
   -0.9701   11.7147    1.5648 H   0  0  0  0  0  0  0  0  0  0  0  0
   -2.4429   11.0659   -0.0961 H   0  0  0  0  0  0  0  0  0  0  0  0
   -1.9726    8.1620   -0.2829 H   0  0  0  0  0  0  0  0  0  0  0  0
   -2.6827    8.7238    1.3053 H   0  0  0  0  0  0  0  0  0  0  0  0
   -4.6140    9.5243    0.3207 H   0  0  0  0  0  0  0  0  0  0  0  0
   -3.8501    9.6236   -1.3203 H   0  0  0  0  0  0  0  0  0  0  0  0
   -3.9860    7.2382    0.1423 H   0  0  0  0  0  0  0  0  0  0  0  0
   -7.1009    9.0666   -0.7557 H   0  0  0  0  0  0  0  0  0  0  0  0
   -6.1892    9.3615   -2.2751 H   0  0  0  0  0  0  0  0  0  0  0  0
   -7.5988    8.2480   -2.2751 H   0  0  0  0  0  0  0  0  0  0  0  0
   -6.5969    5.8838   -0.1563 H   0  0  0  0  0  0  0  0  0  0  0  0
   -7.4713    6.1381   -1.7046 H   0  0  0  0  0  0  0  0  0  0  0  0
   -5.8533    5.3580   -1.7046 H   0  0  0  0  0  0  0  0  0  0  0  0
    0.1722    9.7874   -0.3199 H   0  0  0  0  0  0  0  0  0  0  0  0
   -0.6980    8.2093   -1.9293 H   0  0  0  0  0  0  0  0  0  0  0  0
   -2.1884    9.1492   -2.1597 H   0  0  0  0  0  0  0  0  0  0  0  0
    0.0115    9.0508   -3.9815 H   0  0  0  0  0  0  0  0  0  0  0  0
   -1.2666   10.2614   -4.0417 H   0  0  0  0  0  0  0  0  0  0  0  0
    1.8984   10.0113   -1.4371 H   0  0  0  0  0  0  0  0  0  0  0  0
    1.7236    9.0589   -2.9500 H   0  0  0  0  0  0  0  0  0  0  0  0
    2.6848   10.5764   -2.9500 H   0  0  0  0  0  0  0  0  0  0  0  0
   -0.1677   12.4165   -4.1485 H   0  0  0  0  0  0  0  0  0  0  0  0
    1.1326   10.6150   -5.4543 H   0  0  0  0  0  0  0  0  0  0  0  0
    1.2018   12.3868   -5.9494 H   0  0  0  0  0  0  0  0  0  0  0  0
    3.4793   11.0644   -6.0273 H   0  0  0  0  0  0  0  0  0  0  0  0
    3.2762   12.4215   -2.2324 H   0  0  0  0  0  0  0  0  0  0  0  0
    3.8286   14.9430   -3.9166 H   0  0  0  0  0  0  0  0  0  0  0  0
    3.6133   14.8609   -2.1118 H   0  0  0  0  0  0  0  0  0  0  0  0
    5.9919   15.0645   -2.7636 H   0  0  0  0  0  0  0  0  0  0  0  0
    5.6251   13.5189   -1.9018 H   0  0  0  0  0  0  0  0  0  0  0  0
    7.0845   13.0442   -3.7470 H   0  0  0  0  0  0  0  0  0  0  0  0
    5.3690   13.6690   -5.7970 H   0  0  0  0  0  0  0  0  0  0  0  0
    5.4644   11.4653   -2.1229 H   0  0  0  0  0  0  0  0  0  0  0  0
    4.9687   10.0889   -3.1653 H   0  0  0  0  0  0  0  0  0  0  0  0
    6.6764   10.6461   -3.1653 H   0  0  0  0  0  0  0  0  0  0  0  0
    6.6029   10.5286   -5.2617 H   0  0  0  0  0  0  0  0  0  0  0  0
    5.0674   10.8809   -6.1247 H   0  0  0  0  0  0  0  0  0  0  0  0
    6.3956   12.0903   -6.1247 H   0  0  0  0  0  0  0  0  0  0  0  0
    1.0996   15.3843   -3.4646 H   0  0  0  0  0  0  0  0  0  0  0  0
    2.1788   14.7343   -4.7450 H   0  0  0  0  0  0  0  0  0  0  0  0
    0.4318   14.3161   -4.7450 H   0  0  0  0  0  0  0  0  0  0  0  0
    1.8601   14.1598   -1.2551 H   0  0  0  0  0  0  0  0  0  0  0  0
    0.1419   14.1765   -1.9489 H   0  0  0  0  0  0  0  0  0  0  0  0
    1.5627   11.8719   -0.5850 H   0  0  0  0  0  0  0  0  0  0  0  0
    0.1194   12.8010   -0.0191 H   0  0  0  0  0  0  0  0  0  0  0  0
   -2.0832   12.5474   -1.0916 H   0  0  0  0  0  0  0  0  0  0  0  0
   -1.3159   13.1349   -2.6058 H   0  0  0  0  0  0  0  0  0  0  0  0
   -2.2386   11.5936   -2.6058 H   0  0  0  0  0  0  0  0  0  0  0  0
  1  2  1  0
  2  3  1  0
  3  4  1  0
  4  5  1  0
  5  6  1  0
  6  7  1  0
  7  8  1  0
  7  9  1  0
  2 10  1  0
 10 11  1  0
 11 12  1  0
 12 13  1  0
 13 14  1  1
 13 15  1  0
 15 16  1  0
 16 17  1  0
 17 18  2  0
 18 19  1  0
 19 20  1  0
 20 21  1  0
 21 22  1  0
 22 23  1  0
 22 24  1  0
 24 25  1  0
 24 26  1  0
 19 27  1  0
 27 28  1  6
 27 29  1  0
 29 30  1  0
 30 31  1  0
 31 32  1  6
  7  5  1  0
 31 10  1  0
 31 13  1  0
 27 15  1  0
 24 18  1  0
  1 33  1  0
  1 34  1  0
  1 35  1  0
  2 36  1  6
  3 37  1  0
  3 38  1  0
  4 39  1  0
  4 40  1  0
  5 41  1  1
  8 42  1  0
  8 43  1  0
  8 44  1  0
  9 45  1  0
  9 46  1  0
  9 47  1  0
 10 48  1  1
 11 49  1  0
 11 50  1  0
 12 51  1  0
 12 52  1  0
 14 53  1  0
 14 54  1  0
 14 55  1  0
 15 56  1  6
 16 57  1  0
 16 58  1  0
 17 59  1  0
 19 60  1  1
 20 61  1  0
 20 62  1  0
 21 63  1  0
 21 64  1  0
 22 65  1  1
 23 66  1  0
 25 67  1  0
 25 68  1  0
 25 69  1  0
 26 70  1  0
 26 71  1  0
 26 72  1  0
 28 73  1  0
 28 74  1  0
 28 75  1  0
 29 76  1  0
 29 77  1  0
 30 78  1  0
 30 79  1  0
 32 80  1  0
 32 81  1  0
 32 82  1  0
M  END
>  <meeko>  (11) 
{"is_sidechain": [false], "intermolecular_energy": 2.731, "internal_energy": -0.839}

$$$$
EPH_relaxed_0001_pdb2pqr_Repair_311_r2_0001_out
     RDKit          3D

 82 86  0  0  0  0  0  0  0  0999 V2000
    3.3710   17.7100   -1.3660 C   0  0  0  0  0  0  0  0  0  0  0  0
    2.2270   17.2850   -2.2910 C   0  0  2  0  0  0  0  0  0  0  0  0
    0.8520   17.7350   -1.7600 C   0  0  0  0  0  0  0  0  0  0  0  0
    0.9360   18.7330   -0.6020 C   0  0  0  0  0  0  0  0  0  0  0  0
   -0.2660   19.6270   -0.5520 C   0  0  2  0  0  0  0  0  0  0  0  0
   -0.6060   20.1000    0.7580 O   0  0  0  0  0  0  0  0  0  0  0  0
   -1.5680   19.2420    0.1240 C   0  0  0  0  0  0  0  0  0  0  0  0
   -1.7360   17.9150    0.7950 C   0  0  0  0  0  0  0  0  0  0  0  0
   -2.8240   19.9450   -0.2890 C   0  0  0  0  0  0  0  0  0  0  0  0
    2.2440   15.7720   -2.4770 C   0  0  1  0  0  0  0  0  0  0  0  0
    3.6400   15.2360   -2.8920 C   0  0  0  0  0  0  0  0  0  0  0  0
    3.8040   13.8480   -2.2210 C   0  0  0  0  0  0  0  0  0  0  0  0
    2.3860   13.4860   -1.7220 C   0  0  1  0  0  0  0  0  0  0  0  0
    1.6470   12.9300   -2.9800 C   0  0  0  0  0  0  0  0  0  0  0  0
    2.3110   12.4880   -0.5200 C   0  0  2  0  0  0  0  0  0  0  0  0
    2.8850   11.0880   -0.7980 C   0  0  0  0  0  0  0  0  0  0  0  0
    1.9060   10.0910   -1.3240 C   0  0  0  0  0  0  0  0  0  0  0  0
    0.5670   10.2200   -1.2970 C   0  0  0  0  0  0  0  0  0  0  0  0
   -0.0950   11.4190   -0.6050 C   0  0  1  0  0  0  0  0  0  0  0  0
   -1.2610   10.9210    0.2890 C   0  0  0  0  0  0  0  0  0  0  0  0
   -2.2630   10.0650   -0.4790 C   0  0  0  0  0  0  0  0  0  0  0  0
   -1.5780    8.8520   -1.1030 C   0  0  2  0  0  0  0  0  0  0  0  0
   -1.1300    7.9860   -0.0560 O   0  0  0  0  0  0  0  0  0  0  0  0
   -0.3800    9.2290   -2.0180 C   0  0  0  0  0  0  0  0  0  0  0  0
   -0.9030    9.9080   -3.3080 C   0  0  0  0  0  0  0  0  0  0  0  0
    0.3090    7.9120   -2.4700 C   0  0  0  0  0  0  0  0  0  0  0  0
    0.8860   12.4040    0.1640 C   0  0  1  0  0  0  0  0  0  0  0  0
    1.1200   11.8940    1.6180 C   0  0  0  0  0  0  0  0  0  0  0  0
    0.2000   13.8150    0.2930 C   0  0  0  0  0  0  0  0  0  0  0  0
    0.4110   14.8000   -0.8730 C   0  0  0  0  0  0  0  0  0  0  0  0
    1.8930   14.9010   -1.2440 C   0  0  2  0  0  0  0  0  0  0  0  0
    2.6590   15.4780   -0.0050 C   0  0  0  0  0  0  0  0  0  0  0  0
    3.0577   17.5936   -0.3180 H   0  0  0  0  0  0  0  0  0  0  0  0
    4.2513   17.0789   -1.5578 H   0  0  0  0  0  0  0  0  0  0  0  0
    3.6258   18.7628   -1.5578 H   0  0  0  0  0  0  0  0  0  0  0  0
    2.3841   17.7809   -3.2602 H   0  0  0  0  0  0  0  0  0  0  0  0
    0.2983   18.2065   -2.5853 H   0  0  0  0  0  0  0  0  0  0  0  0
    0.3467   16.8372   -1.3746 H   0  0  0  0  0  0  0  0  0  0  0  0
    1.0057   18.1762    0.3441 H   0  0  0  0  0  0  0  0  0  0  0  0
    1.8251   19.3623   -0.7556 H   0  0  0  0  0  0  0  0  0  0  0  0
   -0.0439   20.0206   -1.5549 H   0  0  0  0  0  0  0  0  0  0  0  0
   -1.7188   18.0512    1.8864 H   0  0  0  0  0  0  0  0  0  0  0  0
   -2.6974   17.4720    0.4959 H   0  0  0  0  0  0  0  0  0  0  0  0
   -0.9153   17.2464    0.4959 H   0  0  0  0  0  0  0  0  0  0  0  0
   -3.3811   20.2568    0.6067 H   0  0  0  0  0  0  0  0  0  0  0  0
   -2.5681   20.8310   -0.8886 H   0  0  0  0  0  0  0  0  0  0  0  0
   -3.4454   19.2636   -0.8886 H   0  0  0  0  0  0  0  0  0  0  0  0
    1.4625   15.6715   -3.2446 H   0  0  0  0  0  0  0  0  0  0  0  0
    3.6978   15.1370   -3.9860 H   0  0  0  0  0  0  0  0  0  0  0  0
    4.4374   15.9244   -2.5753 H   0  0  0  0  0  0  0  0  0  0  0  0
    4.1611   13.1046   -2.9489 H   0  0  0  0  0  0  0  0  0  0  0  0
    4.5419   13.8635   -1.4054 H   0  0  0  0  0  0  0  0  0  0  0  0
    0.8057   12.2971   -2.6611 H   0  0  0  0  0  0  0  0  0  0  0  0
    1.2673   13.7683   -3.5826 H   0  0  0  0  0  0  0  0  0  0  0  0
    2.3473   12.3329   -3.5826 H   0  0  0  0  0  0  0  0  0  0  0  0
    2.9900   12.9486    0.2127 H   0  0  0  0  0  0  0  0  0  0  0  0
    3.6937   11.1925   -1.5362 H   0  0  0  0  0  0  0  0  0  0  0  0
    3.2235   10.6991    0.1737 H   0  0  0  0  0  0  0  0  0  0  0  0
    2.3142    9.1729   -1.7717 H   0  0  0  0  0  0  0  0  0  0  0  0
   -0.4880   12.0567   -1.4105 H   0  0  0  0  0  0  0  0  0  0  0  0
   -0.8434   10.3222    1.1118 H   0  0  0  0  0  0  0  0  0  0  0  0
   -1.7961   11.8062    0.6633 H   0  0  0  0  0  0  0  0  0  0  0  0
   -3.0463    9.7203    0.2120 H   0  0  0  0  0  0  0  0  0  0  0  0
   -2.7011   10.6737   -1.2837 H   0  0  0  0  0  0  0  0  0  0  0  0
   -2.3169    8.3496   -1.7447 H   0  0  0  0  0  0  0  0  0  0  0  0
   -1.8430    7.9260    0.6020 H   0  0  0  0  0  0  0  0  0  0  0  0
   -1.5539   10.7531   -3.0395 H   0  0  0  0  0  0  0  0  0  0  0  0
   -0.0517   10.2746   -3.9004 H   0  0  0  0  0  0  0  0  0  0  0  0
   -1.4748    9.1785   -3.9004 H   0  0  0  0  0  0  0  0  0  0  0  0
    0.6115    7.3338   -1.5845 H   0  0  0  0  0  0  0  0  0  0  0  0
   -0.3941    7.3185   -3.0728 H   0  0  0  0  0  0  0  0  0  0  0  0
    1.1975    8.1512   -3.0728 H   0  0  0  0  0  0  0  0  0  0  0  0
    0.7716   12.6534    2.3335 H   0  0  0  0  0  0  0  0  0  0  0  0
    0.5605   10.9598    1.7734 H   0  0  0  0  0  0  0  0  0  0  0  0
    2.1931   11.7089    1.7734 H   0  0  0  0  0  0  0  0  0  0  0  0
   -0.8826   13.6503    0.3975 H   0  0  0  0  0  0  0  0  0  0  0  0
    0.6803   14.2900    1.1612 H   0  0  0  0  0  0  0  0  0  0  0  0
   -0.1558   14.4487   -1.7478 H   0  0  0  0  0  0  0  0  0  0  0  0
    0.0593   15.7942   -0.5601 H   0  0  0  0  0  0  0  0  0  0  0  0
    2.1832   15.1196    0.9197 H   0  0  0  0  0  0  0  0  0  0  0  0
    3.7062   15.1424   -0.0324 H   0  0  0  0  0  0  0  0  0  0  0  0
    2.6254   16.5771   -0.0324 H   0  0  0  0  0  0  0  0  0  0  0  0
  1  2  1  0
  2  3  1  0
  3  4  1  0
  4  5  1  0
  5  6  1  0
  6  7  1  0
  7  8  1  0
  7  9  1  0
  2 10  1  0
 10 11  1  0
 11 12  1  0
 12 13  1  0
 13 14  1  6
 13 15  1  0
 15 16  1  0
 16 17  1  0
 17 18  2  0
 18 19  1  0
 19 20  1  0
 20 21  1  0
 21 22  1  0
 22 23  1  0
 22 24  1  0
 24 25  1  0
 24 26  1  0
 19 27  1  0
 27 28  1  1
 27 29  1  0
 29 30  1  0
 30 31  1  0
 31 32  1  1
  7  5  1  0
 31 10  1  0
 31 13  1  0
 27 15  1  0
 24 18  1  0
  1 33  1  0
  1 34  1  0
  1 35  1  0
  2 36  1  6
  3 37  1  0
  3 38  1  0
  4 39  1  0
  4 40  1  0
  5 41  1  6
  8 42  1  0
  8 43  1  0
  8 44  1  0
  9 45  1  0
  9 46  1  0
  9 47  1  0
 10 48  1  6
 11 49  1  0
 11 50  1  0
 12 51  1  0
 12 52  1  0
 14 53  1  0
 14 54  1  0
 14 55  1  0
 15 56  1  1
 16 57  1  0
 16 58  1  0
 17 59  1  0
 19 60  1  6
 20 61  1  0
 20 62  1  0
 21 63  1  0
 21 64  1  0
 22 65  1  6
 23 66  1  0
 25 67  1  0
 25 68  1  0
 25 69  1  0
 26 70  1  0
 26 71  1  0
 26 72  1  0
 28 73  1  0
 28 74  1  0
 28 75  1  0
 29 76  1  0
 29 77  1  0
 30 78  1  0
 30 79  1  0
 32 80  1  0
 32 81  1  0
 32 82  1  0
M  END
>  <meeko>  (12) 
{"is_sidechain": [false], "intermolecular_energy": 2.731, "internal_energy": -0.839}

$$$$
EPH_relaxed_0001_pdb2pqr_Repair_311_r2_0001_out
     RDKit          3D

 82 86  0  0  0  0  0  0  0  0999 V2000
   -1.0080    8.1350   -0.0430 C   0  0  0  0  0  0  0  0  0  0  0  0
   -1.7590    9.4650    0.0720 C   0  0  2  0  0  0  0  0  0  0  0  0
   -3.2880    9.2760    0.0040 C   0  0  0  0  0  0  0  0  0  0  0  0
   -3.7300    8.1830   -0.9730 C   0  0  0  0  0  0  0  0  0  0  0  0
   -5.2210    8.0280   -0.9930 C   0  0  2  0  0  0  0  0  0  0  0  0
   -5.6900    6.7130   -0.6670 O   0  0  0  0  0  0  0  0  0  0  0  0
   -5.9590    7.1690   -2.0030 C   0  0  0  0  0  0  0  0  0  0  0  0
   -5.2260    6.4090   -3.0640 C   0  0  0  0  0  0  0  0  0  0  0  0
   -7.4050    7.4540   -2.2630 C   0  0  0  0  0  0  0  0  0  0  0  0
   -1.3020   10.4170   -1.0270 C   0  0  1  0  0  0  0  0  0  0  0  0
   -2.3580   11.5060   -1.3510 C   0  0  0  0  0  0  0  0  0  0  0  0
   -1.5760   12.7960   -1.7070 C   0  0  0  0  0  0  0  0  0  0  0  0
   -0.1150   12.3250   -1.9010 C   0  0  1  0  0  0  0  0  0  0  0  0
   -0.0690   11.7460   -3.3500 C   0  0  0  0  0  0  0  0  0  0  0  0
    0.9940   13.4030   -1.6750 C   0  0  2  0  0  0  0  0  0  0  0  0
    0.9470   14.6000   -2.6410 C   0  0  0  0  0  0  0  0  0  0  0  0
    1.7480   14.4430   -3.8910 C   0  0  0  0  0  0  0  0  0  0  0  0
    2.6990   13.5130   -4.0990 C   0  0  0  0  0  0  0  0  0  0  0  0
    3.1200   12.5530   -2.9780 C   0  0  1  0  0  0  0  0  0  0  0  0
    4.6680   12.4840   -2.9100 C   0  0  0  0  0  0  0  0  0  0  0  0
    5.2970   12.1250   -4.2530 C   0  0  0  0  0  0  0  0  0  0  0  0
    4.9020   13.1350   -5.3270 C   0  0  2  0  0  0  0  0  0  0  0  0
    5.4910   14.4000   -5.0090 O   0  0  0  0  0  0  0  0  0  0  0  0
    3.3640   13.2970   -5.4800 C   0  0  0  0  0  0  0  0  0  0  0  0
    2.7660   12.0170   -6.1130 C   0  0  0  0  0  0  0  0  0  0  0  0
    3.1040   14.4450   -6.4930 C   0  0  0  0  0  0  0  0  0  0  0  0
    2.4580   12.8130   -1.5570 C   0  0  1  0  0  0  0  0  0  0  0  0
    3.2970   13.8590   -0.7620 C   0  0  0  0  0  0  0  0  0  0  0  0
    2.4990   11.4810   -0.7190 C   0  0  0  0  0  0  0  0  0  0  0  0
    1.3160   10.5110   -0.8960 C   0  0  0  0  0  0  0  0  0  0  0  0
   -0.0210   11.2470   -0.7610 C   0  0  2  0  0  0  0  0  0  0  0  0
   -0.1060   11.8220    0.6940 C   0  0  0  0  0  0  0  0  0  0  0  0
   -0.7899    7.7488    0.9636 H   0  0  0  0  0  0  0  0  0  0  0  0
   -1.6294    7.4089   -0.5876 H   0  0  0  0  0  0  0  0  0  0  0  0
   -0.0653    8.2921   -0.5876 H   0  0  0  0  0  0  0  0  0  0  0  0
   -1.5230    9.8943    1.0569 H   0  0  0  0  0  0  0  0  0  0  0  0
   -3.6503    9.0113    1.0083 H   0  0  0  0  0  0  0  0  0  0  0  0
   -3.7133   10.2232   -0.3593 H   0  0  0  0  0  0  0  0  0  0  0  0
   -3.3854    8.4474   -1.9836 H   0  0  0  0  0  0  0  0  0  0  0  0
   -3.2903    7.2300   -0.6437 H   0  0  0  0  0  0  0  0  0  0  0  0
   -5.3579    9.0711   -0.6718 H   0  0  0  0  0  0  0  0  0  0  0  0
   -4.5361    5.6937   -2.5923 H   0  0  0  0  0  0  0  0  0  0  0  0
   -5.9481    5.8639   -3.6897 H   0  0  0  0  0  0  0  0  0  0  0  0
   -4.6551    7.1109   -3.6897 H   0  0  0  0  0  0  0  0  0  0  0  0
   -7.9360    7.5587   -1.3054 H   0  0  0  0  0  0  0  0  0  0  0  0
   -7.4972    8.3876   -2.8374 H   0  0  0  0  0  0  0  0  0  0  0  0
   -7.8446    6.6252   -2.8374 H   0  0  0  0  0  0  0  0  0  0  0  0
   -1.1203    9.6928   -1.8348 H   0  0  0  0  0  0  0  0  0  0  0  0
   -2.9774   11.1911   -2.2038 H   0  0  0  0  0  0  0  0  0  0  0  0
   -3.0275   11.6739   -0.4945 H   0  0  0  0  0  0  0  0  0  0  0  0
   -1.9660   13.2436   -2.6330 H   0  0  0  0  0  0  0  0  0  0  0  0
   -1.6660   13.5671   -0.9277 H   0  0  0  0  0  0  0  0  0  0  0  0
    0.0180   10.6504   -3.3045 H   0  0  0  0  0  0  0  0  0  0  0  0
   -0.9916   12.0187   -3.8833 H   0  0  0  0  0  0  0  0  0  0  0  0
    0.7990   12.1609   -3.8833 H   0  0  0  0  0  0  0  0  0  0  0  0
    0.7319   13.8065   -0.6858 H   0  0  0  0  0  0  0  0  0  0  0  0
   -0.1021   14.7640   -2.9280 H   0  0  0  0  0  0  0  0  0  0  0  0
    1.3930   15.4465   -2.0983 H   0  0  0  0  0  0  0  0  0  0  0  0
    1.5439   15.1467   -4.7115 H   0  0  0  0  0  0  0  0  0  0  0  0
    2.7138   11.5683   -3.2526 H   0  0  0  0  0  0  0  0  0  0  0  0
    5.0511   13.4649   -2.5921 H   0  0  0  0  0  0  0  0  0  0  0  0
    4.9359   11.6934   -2.1937 H   0  0  0  0  0  0  0  0  0  0  0  0
    6.3920   12.1206   -4.1481 H   0  0  0  0  0  0  0  0  0  0  0  0
    4.9359   11.1310   -4.5556 H   0  0  0  0  0  0  0  0  0  0  0  0
    5.2737   12.7551   -6.2901 H   0  0  0  0  0  0  0  0  0  0  0  0
    4.9090   15.0930   -5.3660 H   0  0  0  0  0  0  0  0  0  0  0  0
    2.4449   11.3297   -5.3165 H   0  0  0  0  0  0  0  0  0  0  0  0
    1.9004   12.2861   -6.7361 H   0  0  0  0  0  0  0  0  0  0  0  0
    3.5278   11.5258   -6.7361 H   0  0  0  0  0  0  0  0  0  0  0  0
    2.8932   15.3758   -5.9461 H   0  0  0  0  0  0  0  0  0  0  0  0
    3.9933   14.5845   -7.1252 H   0  0  0  0  0  0  0  0  0  0  0  0
    2.2414   14.1878   -7.1252 H   0  0  0  0  0  0  0  0  0  0  0  0
    3.1634   13.6925    0.3171 H   0  0  0  0  0  0  0  0  0  0  0  0
    4.3604   13.7494   -1.0210 H   0  0  0  0  0  0  0  0  0  0  0  0
    2.9592   14.8733   -1.0210 H   0  0  0  0  0  0  0  0  0  0  0  0
    3.4161   10.9412   -0.9973 H   0  0  0  0  0  0  0  0  0  0  0  0
    2.4528   11.8015    0.3323 H   0  0  0  0  0  0  0  0  0  0  0  0
    1.3743   10.0505   -1.8933 H   0  0  0  0  0  0  0  0  0  0  0  0
    1.3734    9.7409   -0.1126 H   0  0  0  0  0  0  0  0  0  0  0  0
    0.0149   11.0038    1.4192 H   0  0  0  0  0  0  0  0  0  0  0  0
    0.6922   12.5643    0.8421 H   0  0  0  0  0  0  0  0  0  0  0  0
   -1.0848   12.3016    0.8421 H   0  0  0  0  0  0  0  0  0  0  0  0
  1  2  1  0
  2  3  1  0
  3  4  1  0
  4  5  1  0
  5  6  1  0
  6  7  1  0
  7  8  1  0
  7  9  1  0
  2 10  1  0
 10 11  1  0
 11 12  1  0
 12 13  1  0
 13 14  1  6
 13 15  1  0
 15 16  1  0
 16 17  1  0
 17 18  2  0
 18 19  1  0
 19 20  1  0
 20 21  1  0
 21 22  1  0
 22 23  1  0
 22 24  1  0
 24 25  1  0
 24 26  1  0
 19 27  1  0
 27 28  1  1
 27 29  1  0
 29 30  1  0
 30 31  1  0
 31 32  1  1
  7  5  1  0
 31 10  1  0
 31 13  1  0
 27 15  1  0
 24 18  1  0
  1 33  1  0
  1 34  1  0
  1 35  1  0
  2 36  1  1
  3 37  1  0
  3 38  1  0
  4 39  1  0
  4 40  1  0
  5 41  1  1
  8 42  1  0
  8 43  1  0
  8 44  1  0
  9 45  1  0
  9 46  1  0
  9 47  1  0
 10 48  1  6
 11 49  1  0
 11 50  1  0
 12 51  1  0
 12 52  1  0
 14 53  1  0
 14 54  1  0
 14 55  1  0
 15 56  1  1
 16 57  1  0
 16 58  1  0
 17 59  1  0
 19 60  1  6
 20 61  1  0
 20 62  1  0
 21 63  1  0
 21 64  1  0
 22 65  1  6
 23 66  1  0
 25 67  1  0
 25 68  1  0
 25 69  1  0
 26 70  1  0
 26 71  1  0
 26 72  1  0
 28 73  1  0
 28 74  1  0
 28 75  1  0
 29 76  1  0
 29 77  1  0
 30 78  1  0
 30 79  1  0
 32 80  1  0
 32 81  1  0
 32 82  1  0
M  END
>  <meeko>  (13) 
{"is_sidechain": [false], "intermolecular_energy": 2.731, "internal_energy": -0.839}

$$$$
EPH_relaxed_0001_pdb2pqr_Repair_311_r2_0001_out
     RDKit          3D

 82 86  0  0  0  0  0  0  0  0999 V2000
    0.2880   20.1910   -0.5870 C   0  0  0  0  0  0  0  0  0  0  0  0
    1.4110   19.3360    0.0080 C   0  0  2  0  0  0  0  0  0  0  0  0
    2.6100   20.1890    0.4660 C   0  0  0  0  0  0  0  0  0  0  0  0
    2.8230   20.1880    1.9820 C   0  0  0  0  0  0  0  0  0  0  0  0
    4.2470   19.8910    2.3420 C   0  0  2  0  0  0  0  0  0  0  0  0
    4.4600   18.6000    2.9280 O   0  0  0  0  0  0  0  0  0  0  0  0
    4.7330   19.7310    3.7710 C   0  0  0  0  0  0  0  0  0  0  0  0
    3.7990   19.8650    4.9320 C   0  0  0  0  0  0  0  0  0  0  0  0
    6.1890   19.9320    4.0580 C   0  0  0  0  0  0  0  0  0  0  0  0
    1.8690   18.2980   -1.0110 C   0  0  1  0  0  0  0  0  0  0  0  0
    3.2890   18.5910   -1.5650 C   0  0  0  0  0  0  0  0  0  0  0  0
    3.9680   17.2180   -1.8030 C   0  0  0  0  0  0  0  0  0  0  0  0
    2.8170   16.1900   -1.6970 C   0  0  1  0  0  0  0  0  0  0  0  0
    2.1170   16.2270   -3.0910 C   0  0  0  0  0  0  0  0  0  0  0  0
    3.2250   14.7350   -1.2940 C   0  0  2  0  0  0  0  0  0  0  0  0
    4.1590   14.0210   -2.2860 C   0  0  0  0  0  0  0  0  0  0  0  0
    3.4730   13.2330   -3.3530 C   0  0  0  0  0  0  0  0  0  0  0  0
    2.1780   12.8680   -3.3450 C   0  0  0  0  0  0  0  0  0  0  0  0
    1.2820   13.1690   -2.1370 C   0  0  1  0  0  0  0  0  0  0  0  0
    0.4650   11.9020   -1.7700 C   0  0  0  0  0  0  0  0  0  0  0  0
   -0.3200   11.3480   -2.9550 C   0  0  0  0  0  0  0  0  0  0  0  0
    0.6120   11.0070   -4.1150 C   0  0  2  0  0  0  0  0  0  0  0  0
    1.4490    9.9130   -3.7270 O   0  0  0  0  0  0  0  0  0  0  0  0
    1.4930   12.2050   -4.5660 C   0  0  0  0  0  0  0  0  0  0  0  0
    0.6080   13.2680   -5.2640 C   0  0  0  0  0  0  0  0  0  0  0  0
    2.4840   11.6900   -5.6440 C   0  0  0  0  0  0  0  0  0  0  0  0
    2.0080   13.8130   -0.8780 C   0  0  1  0  0  0  0  0  0  0  0  0
    2.5920   12.6890    0.0320 C   0  0  0  0  0  0  0  0  0  0  0  0
    0.9440   14.5810   -0.0080 C   0  0  0  0  0  0  0  0  0  0  0  0
    0.6730   16.0510   -0.3810 C   0  0  0  0  0  0  0  0  0  0  0  0
    1.9830   16.8300   -0.5280 C   0  0  2  0  0  0  0  0  0  0  0  0
    2.6990   16.8300    0.8650 C   0  0  0  0  0  0  0  0  0  0  0  0
   -0.3014   20.6397    0.2262 H   0  0  0  0  0  0  0  0  0  0  0  0
    0.7235   20.9883   -1.2073 H   0  0  0  0  0  0  0  0  0  0  0  0
   -0.3646   19.5591   -1.2073 H   0  0  0  0  0  0  0  0  0  0  0  0
    1.0066   18.8311    0.8977 H   0  0  0  0  0  0  0  0  0  0  0  0
    3.5190   19.7956   -0.0126 H   0  0  0  0  0  0  0  0  0  0  0  0
    2.3965   21.2273    0.1722 H   0  0  0  0  0  0  0  0  0  0  0  0
    2.5536   21.1773    2.3804 H   0  0  0  0  0  0  0  0  0  0  0  0
    2.1885   19.4016    2.4166 H   0  0  0  0  0  0  0  0  0  0  0  0
    4.6111   20.5017    1.5027 H   0  0  0  0  0  0  0  0  0  0  0  0
    4.3668   19.7835    5.8706 H   0  0  0  0  0  0  0  0  0  0  0  0
    3.2993   20.8440    4.8895 H   0  0  0  0  0  0  0  0  0  0  0  0
    3.0442   19.0659    4.8895 H   0  0  0  0  0  0  0  0  0  0  0  0
    6.3486   19.9540    5.1461 H   0  0  0  0  0  0  0  0  0  0  0  0
    6.7668   19.1051    3.6193 H   0  0  0  0  0  0  0  0  0  0  0  0
    6.5211   20.8845    3.6193 H   0  0  0  0  0  0  0  0  0  0  0  0
    1.0564   18.3900   -1.7467 H   0  0  0  0  0  0  0  0  0  0  0  0
    3.2191   19.1481   -2.5109 H   0  0  0  0  0  0  0  0  0  0  0  0
    3.8703   19.2021   -0.8588 H   0  0  0  0  0  0  0  0  0  0  0  0
    4.4308   17.1813   -2.8002 H   0  0  0  0  0  0  0  0  0  0  0  0
    4.7726   17.0195   -1.0796 H   0  0  0  0  0  0  0  0  0  0  0  0
    1.0273   16.2846   -2.9527 H   0  0  0  0  0  0  0  0  0  0  0  0
    2.4625   17.1081   -3.6515 H   0  0  0  0  0  0  0  0  0  0  0  0
    2.3677   15.3143   -3.6515 H   0  0  0  0  0  0  0  0  0  0  0  0
    3.8246   14.9002   -0.3867 H   0  0  0  0  0  0  0  0  0  0  0  0
    4.7830   14.7837   -2.7747 H   0  0  0  0  0  0  0  0  0  0  0  0
    4.7347   13.2947   -1.6935 H   0  0  0  0  0  0  0  0  0  0  0  0
    4.0776   12.9249   -4.2188 H   0  0  0  0  0  0  0  0  0  0  0  0
    0.6018   13.9726   -2.4557 H   0  0  0  0  0  0  0  0  0  0  0  0
    1.1586   11.1264   -1.4130 H   0  0  0  0  0  0  0  0  0  0  0  0
   -0.2599   12.1859   -0.9929 H   0  0  0  0  0  0  0  0  0  0  0  0
   -0.8517   10.4377   -2.6408 H   0  0  0  0  0  0  0  0  0  0  0  0
   -1.0344   12.1136   -3.2918 H   0  0  0  0  0  0  0  0  0  0  0  0
   -0.0176   10.7397   -4.9765 H   0  0  0  0  0  0  0  0  0  0  0  0
    2.3730   10.1910   -3.8520 H   0  0  0  0  0  0  0  0  0  0  0  0
    0.0996   13.8786   -4.5033 H   0  0  0  0  0  0  0  0  0  0  0  0
    1.2383   13.9147   -5.8921 H   0  0  0  0  0  0  0  0  0  0  0  0
   -0.1422   12.7654   -5.8921 H   0  0  0  0  0  0  0  0  0  0  0  0
    3.3572   11.2362   -5.1525 H   0  0  0  0  0  0  0  0  0  0  0  0
    1.9844   10.9375   -6.2717 H   0  0  0  0  0  0  0  0  0  0  0  0
    2.8127   12.5314   -6.2717 H   0  0  0  0  0  0  0  0  0  0  0  0
    2.4503   12.9617    1.0882 H   0  0  0  0  0  0  0  0  0  0  0  0
    2.0718   11.7422   -0.1752 H   0  0  0  0  0  0  0  0  0  0  0  0
    3.6658   12.5704   -0.1752 H   0  0  0  0  0  0  0  0  0  0  0  0
   -0.0081   14.0361   -0.0889 H   0  0  0  0  0  0  0  0  0  0  0  0
    1.3707   14.6149    1.0053 H   0  0  0  0  0  0  0  0  0  0  0  0
    0.1252   16.0852   -1.3343 H   0  0  0  0  0  0  0  0  0  0  0  0
    0.0789   16.5125    0.4215 H   0  0  0  0  0  0  0  0  0  0  0  0
    2.8666   15.7929    1.1911 H   0  0  0  0  0  0  0  0  0  0  0  0
    3.6654   17.3485    0.7805 H   0  0  0  0  0  0  0  0  0  0  0  0
    2.0678   17.3485    1.6017 H   0  0  0  0  0  0  0  0  0  0  0  0
  1  2  1  0
  2  3  1  0
  3  4  1  0
  4  5  1  0
  5  6  1  0
  6  7  1  0
  7  8  1  0
  7  9  1  0
  2 10  1  0
 10 11  1  0
 11 12  1  0
 12 13  1  0
 13 14  1  6
 13 15  1  0
 15 16  1  0
 16 17  1  0
 17 18  2  0
 18 19  1  0
 19 20  1  0
 20 21  1  0
 21 22  1  0
 22 23  1  0
 22 24  1  0
 24 25  1  0
 24 26  1  0
 19 27  1  0
 27 28  1  1
 27 29  1  0
 29 30  1  0
 30 31  1  0
 31 32  1  1
  7  5  1  0
 31 10  1  0
 31 13  1  0
 27 15  1  0
 24 18  1  0
  1 33  1  0
  1 34  1  0
  1 35  1  0
  2 36  1  1
  3 37  1  0
  3 38  1  0
  4 39  1  0
  4 40  1  0
  5 41  1  6
  8 42  1  0
  8 43  1  0
  8 44  1  0
  9 45  1  0
  9 46  1  0
  9 47  1  0
 10 48  1  6
 11 49  1  0
 11 50  1  0
 12 51  1  0
 12 52  1  0
 14 53  1  0
 14 54  1  0
 14 55  1  0
 15 56  1  1
 16 57  1  0
 16 58  1  0
 17 59  1  0
 19 60  1  6
 20 61  1  0
 20 62  1  0
 21 63  1  0
 21 64  1  0
 22 65  1  6
 23 66  1  0
 25 67  1  0
 25 68  1  0
 25 69  1  0
 26 70  1  0
 26 71  1  0
 26 72  1  0
 28 73  1  0
 28 74  1  0
 28 75  1  0
 29 76  1  0
 29 77  1  0
 30 78  1  0
 30 79  1  0
 32 80  1  0
 32 81  1  0
 32 82  1  0
M  END
>  <meeko>  (14) 
{"is_sidechain": [false], "intermolecular_energy": 2.731, "internal_energy": -0.839}

$$$$
EPH_relaxed_0001_pdb2pqr_Repair_311_r2_0001_out
     RDKit          3D

 82 86  0  0  0  0  0  0  0  0999 V2000
   -5.2020    5.8420   -1.6040 C   0  0  0  0  0  0  0  0  0  0  0  0
   -5.4530    7.3420   -1.7820 C   0  0  2  0  0  0  0  0  0  0  0  0
   -5.1880    8.1340   -0.4860 C   0  0  0  0  0  0  0  0  0  0  0  0
   -4.2250    9.3100   -0.6700 C   0  0  0  0  0  0  0  0  0  0  0  0
   -2.8110    8.9220   -0.3600 C   0  0  2  0  0  0  0  0  0  0  0  0
   -2.2000    9.6790    0.6930 O   0  0  0  0  0  0  0  0  0  0  0  0
   -1.6200    9.8280   -0.6130 C   0  0  0  0  0  0  0  0  0  0  0  0
   -1.7900   11.1940   -1.2020 C   0  0  0  0  0  0  0  0  0  0  0  0
   -0.2640    9.2080   -0.7450 C   0  0  0  0  0  0  0  0  0  0  0  0
   -6.8840    7.5770   -2.2520 C   0  0  1  0  0  0  0  0  0  0  0  0
   -7.1870    6.8930   -3.6120 C   0  0  0  0  0  0  0  0  0  0  0  0
   -8.6640    6.4250   -3.5580 C   0  0  0  0  0  0  0  0  0  0  0  0
   -9.2550    7.1390   -2.3200 C   0  0  1  0  0  0  0  0  0  0  0  0
   -9.5980    8.5790   -2.8130 C   0  0  0  0  0  0  0  0  0  0  0  0
  -10.4870    6.4500   -1.6480 C   0  0  2  0  0  0  0  0  0  0  0  0
  -11.7370    6.3360   -2.5380 C   0  0  0  0  0  0  0  0  0  0  0  0
  -12.6870    7.4840   -2.4530 C   0  0  0  0  0  0  0  0  0  0  0  0
  -12.6920    8.4260   -1.4910 C   0  0  0  0  0  0  0  0  0  0  0  0
  -11.7350    8.3360   -0.2960 C   0  0  1  0  0  0  0  0  0  0  0  0
  -12.5170    8.6080    1.0150 C   0  0  0  0  0  0  0  0  0  0  0  0
  -13.2810    9.9280    0.9780 C   0  0  0  0  0  0  0  0  0  0  0  0
  -14.2650    9.9560   -0.1890 C   0  0  2  0  0  0  0  0  0  0  0  0
  -15.2870    8.9830    0.0470 O   0  0  0  0  0  0  0  0  0  0  0  0
  -13.5920    9.6840   -1.5640 C   0  0  0  0  0  0  0  0  0  0  0  0
  -12.7070   10.8920   -1.9580 C   0  0  0  0  0  0  0  0  0  0  0  0
  -14.7130    9.5990   -2.6350 C   0  0  0  0  0  0  0  0  0  0  0  0
  -10.8470    7.0200   -0.2160 C   0  0  1  0  0  0  0  0  0  0  0  0
  -11.6300    5.8950    0.5270 C   0  0  0  0  0  0  0  0  0  0  0  0
   -9.5660    7.3170    0.6500 C   0  0  0  0  0  0  0  0  0  0  0  0
   -8.3410    7.8840   -0.0930 C   0  0  0  0  0  0  0  0  0  0  0  0
   -8.0260    7.0570   -1.3430 C   0  0  2  0  0  0  0  0  0  0  0  0
   -7.6550    5.6080   -0.8760 C   0  0  0  0  0  0  0  0  0  0  0  0
   -5.1618    5.6017   -0.5313 H   0  0  0  0  0  0  0  0  0  0  0  0
   -6.0178    5.2751   -2.0764 H   0  0  0  0  0  0  0  0  0  0  0  0
   -4.2461    5.5716   -2.0764 H   0  0  0  0  0  0  0  0  0  0  0  0
   -4.7465    7.7073   -2.5419 H   0  0  0  0  0  0  0  0  0  0  0  0
   -6.1471    8.5251   -0.1156 H   0  0  0  0  0  0  0  0  0  0  0  0
   -4.7157    7.4396    0.2245 H   0  0  0  0  0  0  0  0  0  0  0  0
   -4.2794    9.6556   -1.7129 H   0  0  0  0  0  0  0  0  0  0  0  0
   -4.5219   10.1086    0.0258 H   0  0  0  0  0  0  0  0  0  0  0  0
   -3.0132    7.8757   -0.6329 H   0  0  0  0  0  0  0  0  0  0  0  0
   -1.8820   11.9334   -0.3928 H   0  0  0  0  0  0  0  0  0  0  0  0
   -0.9152   11.4370   -1.8230 H   0  0  0  0  0  0  0  0  0  0  0  0
   -2.6977   11.2152   -1.8230 H   0  0  0  0  0  0  0  0  0  0  0  0
    0.1513    9.0181    0.2557 H   0  0  0  0  0  0  0  0  0  0  0  0
   -0.3469    8.2583   -1.2939 H   0  0  0  0  0  0  0  0  0  0  0  0
    0.4000    9.8920   -1.2939 H   0  0  0  0  0  0  0  0  0  0  0  0
   -6.8917    8.6767   -2.2742 H   0  0  0  0  0  0  0  0  0  0  0  0
   -7.0462    7.6085   -4.4355 H   0  0  0  0  0  0  0  0  0  0  0  0
   -6.5098    6.0440   -3.7866 H   0  0  0  0  0  0  0  0  0  0  0  0
   -9.1996    6.7239   -4.4711 H   0  0  0  0  0  0  0  0  0  0  0  0
   -8.7524    5.3307   -3.4899 H   0  0  0  0  0  0  0  0  0  0  0  0
   -9.7545    9.2362   -1.9449 H   0  0  0  0  0  0  0  0  0  0  0  0
   -8.7669    8.9661   -3.4208 H   0  0  0  0  0  0  0  0  0  0  0  0
  -10.5143    8.5499   -3.4208 H   0  0  0  0  0  0  0  0  0  0  0  0
  -10.1301    5.4199   -1.5013 H   0  0  0  0  0  0  0  0  0  0  0  0
  -11.4036    6.2473   -3.5825 H   0  0  0  0  0  0  0  0  0  0  0  0
  -12.2894    5.4565   -2.1757 H   0  0  0  0  0  0  0  0  0  0  0  0
  -13.4476    7.5676   -3.2433 H   0  0  0  0  0  0  0  0  0  0  0  0
  -10.9810    9.1219   -0.4504 H   0  0  0  0  0  0  0  0  0  0  0  0
  -13.2347    7.7896    1.1736 H   0  0  0  0  0  0  0  0  0  0  0  0
  -11.7848    8.6691    1.8337 H   0  0  0  0  0  0  0  0  0  0  0  0
  -13.8360   10.0493    1.9199 H   0  0  0  0  0  0  0  0  0  0  0  0
  -12.5593   10.7480    0.8487 H   0  0  0  0  0  0  0  0  0  0  0  0
  -14.6867   10.9706   -0.2413 H   0  0  0  0  0  0  0  0  0  0  0  0
  -16.1280    9.4590    0.1530 H   0  0  0  0  0  0  0  0  0  0  0  0
  -12.3415   11.3909   -1.0483 H   0  0  0  0  0  0  0  0  0  0  0  0
  -11.8509   10.5408   -2.5528 H   0  0  0  0  0  0  0  0  0  0  0  0
  -13.2999   11.6024   -2.5528 H   0  0  0  0  0  0  0  0  0  0  0  0
  -15.6910    9.5248   -2.1370 H   0  0  0  0  0  0  0  0  0  0  0  0
  -14.6890   10.5015   -3.2634 H   0  0  0  0  0  0  0  0  0  0  0  0
  -14.5532    8.7104   -3.2634 H   0  0  0  0  0  0  0  0  0  0  0  0
  -11.5318    6.0361    1.6135 H   0  0  0  0  0  0  0  0  0  0  0  0
  -12.6925    5.9407    0.2459 H   0  0  0  0  0  0  0  0  0  0  0  0
  -11.2181    4.9145    0.2459 H   0  0  0  0  0  0  0  0  0  0  0  0
   -9.8500    8.0431    1.4260 H   0  0  0  0  0  0  0  0  0  0  0  0
   -9.2430    6.3371    1.0315 H   0  0  0  0  0  0  0  0  0  0  0  0
   -8.5500    8.9219   -0.3916 H   0  0  0  0  0  0  0  0  0  0  0  0
   -7.4729    7.8444    0.5814 H   0  0  0  0  0  0  0  0  0  0  0  0
   -7.6449    5.5684    0.2232 H   0  0  0  0  0  0  0  0  0  0  0  0
   -8.3999    4.8964   -1.2617 H   0  0  0  0  0  0  0  0  0  0  0  0
   -6.6598    5.3420   -1.2617 H   0  0  0  0  0  0  0  0  0  0  0  0
  1  2  1  0
  2  3  1  0
  3  4  1  0
  4  5  1  0
  5  6  1  0
  6  7  1  0
  7  8  1  0
  7  9  1  0
  2 10  1  0
 10 11  1  0
 11 12  1  0
 12 13  1  0
 13 14  1  6
 13 15  1  0
 15 16  1  0
 16 17  1  0
 17 18  2  0
 18 19  1  0
 19 20  1  0
 20 21  1  0
 21 22  1  0
 22 23  1  0
 22 24  1  0
 24 25  1  0
 24 26  1  0
 19 27  1  0
 27 28  1  1
 27 29  1  0
 29 30  1  0
 30 31  1  0
 31 32  1  1
  7  5  1  0
 31 10  1  0
 31 13  1  0
 27 15  1  0
 24 18  1  0
  1 33  1  0
  1 34  1  0
  1 35  1  0
  2 36  1  6
  3 37  1  0
  3 38  1  0
  4 39  1  0
  4 40  1  0
  5 41  1  1
  8 42  1  0
  8 43  1  0
  8 44  1  0
  9 45  1  0
  9 46  1  0
  9 47  1  0
 10 48  1  6
 11 49  1  0
 11 50  1  0
 12 51  1  0
 12 52  1  0
 14 53  1  0
 14 54  1  0
 14 55  1  0
 15 56  1  1
 16 57  1  0
 16 58  1  0
 17 59  1  0
 19 60  1  6
 20 61  1  0
 20 62  1  0
 21 63  1  0
 21 64  1  0
 22 65  1  6
 23 66  1  0
 25 67  1  0
 25 68  1  0
 25 69  1  0
 26 70  1  0
 26 71  1  0
 26 72  1  0
 28 73  1  0
 28 74  1  0
 28 75  1  0
 29 76  1  0
 29 77  1  0
 30 78  1  0
 30 79  1  0
 32 80  1  0
 32 81  1  0
 32 82  1  0
M  END
>  <meeko>  (15) 
{"is_sidechain": [false], "intermolecular_energy": 2.731, "internal_energy": -0.839}

$$$$
EPH_relaxed_0001_pdb2pqr_Repair_311_r2_0001_out
     RDKit          3D

 82 86  0  0  0  0  0  0  0  0999 V2000
    2.8560   10.6940   -4.0650 C   0  0  0  0  0  0  0  0  0  0  0  0
    2.5040   11.7730   -5.0930 C   0  0  2  0  0  0  0  0  0  0  0  0
    3.7540   12.3230   -5.8080 C   0  0  0  0  0  0  0  0  0  0  0  0
    4.8320   12.8430   -4.8520 C   0  0  0  0  0  0  0  0  0  0  0  0
    6.0840   12.0230   -4.9300 C   0  0  2  0  0  0  0  0  0  0  0  0
    5.8730   10.6330   -5.2140 O   0  0  0  0  0  0  0  0  0  0  0  0
    6.4370   10.9380   -3.9290 C   0  0  0  0  0  0  0  0  0  0  0  0
    5.5370   10.6160   -2.7770 C   0  0  0  0  0  0  0  0  0  0  0  0
    7.8720   10.5340   -3.7890 C   0  0  0  0  0  0  0  0  0  0  0  0
    1.7490   12.9100   -4.4150 C   0  0  1  0  0  0  0  0  0  0  0  0
    0.2280   12.6280   -4.2920 C   0  0  0  0  0  0  0  0  0  0  0  0
   -0.2380   13.2610   -2.9560 C   0  0  0  0  0  0  0  0  0  0  0  0
    0.9400   14.1630   -2.5190 C   0  0  1  0  0  0  0  0  0  0  0  0
    0.7680   15.4750   -3.3470 C   0  0  0  0  0  0  0  0  0  0  0  0
    1.0550   14.4560   -0.9880 C   0  0  2  0  0  0  0  0  0  0  0  0
   -0.1340   15.2210   -0.3790 C   0  0  0  0  0  0  0  0  0  0  0  0
   -0.0070   16.7080   -0.3880 C   0  0  0  0  0  0  0  0  0  0  0  0
    1.1300   17.3950   -0.6020 C   0  0  0  0  0  0  0  0  0  0  0  0
    2.4700   16.6670   -0.7690 C   0  0  1  0  0  0  0  0  0  0  0  0
    3.5500   17.3650    0.0990 C   0  0  0  0  0  0  0  0  0  0  0  0
    3.6580   18.8590   -0.1910 C   0  0  0  0  0  0  0  0  0  0  0  0
    2.3200   19.5580    0.0430 C   0  0  2  0  0  0  0  0  0  0  0  0
    2.0120   19.5080    1.4390 O   0  0  0  0  0  0  0  0  0  0  0  0
    1.1530   18.9340   -0.7730 C   0  0  0  0  0  0  0  0  0  0  0  0
    1.3400   19.2540   -2.2770 C   0  0  0  0  0  0  0  0  0  0  0  0
   -0.1610   19.6380   -0.3390 C   0  0  0  0  0  0  0  0  0  0  0  0
    2.4360   15.0930   -0.5520 C   0  0  1  0  0  0  0  0  0  0  0  0
    2.6230   14.7610    0.9600 C   0  0  0  0  0  0  0  0  0  0  0  0
    3.6580   14.4440   -1.3040 C   0  0  0  0  0  0  0  0  0  0  0  0
    3.4440   14.0670   -2.7820 C   0  0  0  0  0  0  0  0  0  0  0  0
    2.1520   13.2640   -2.9610 C   0  0  2  0  0  0  0  0  0  0  0  0
    2.3040   11.9270   -2.1580 C   0  0  0  0  0  0  0  0  0  0  0  0
    2.7244   11.0975   -3.0502 H   0  0  0  0  0  0  0  0  0  0  0  0
    2.1944    9.8261   -4.2032 H   0  0  0  0  0  0  0  0  0  0  0  0
    3.9021   10.3832   -4.2032 H   0  0  0  0  0  0  0  0  0  0  0  0
    1.8651   11.3064   -5.8573 H   0  0  0  0  0  0  0  0  0  0  0  0
    4.1892   11.5163   -6.4162 H   0  0  0  0  0  0  0  0  0  0  0  0
    3.4255   13.1779   -6.4173 H   0  0  0  0  0  0  0  0  0  0  0  0
    5.0705   13.8839   -5.1159 H   0  0  0  0  0  0  0  0  0  0  0  0
    4.4416   12.7762   -3.8258 H   0  0  0  0  0  0  0  0  0  0  0  0
    6.6508   12.8821   -5.3181 H   0  0  0  0  0  0  0  0  0  0  0  0
    6.0680   10.8060   -1.8326 H   0  0  0  0  0  0  0  0  0  0  0  0
    4.6383   11.2483   -2.8259 H   0  0  0  0  0  0  0  0  0  0  0  0
    5.2434    9.5570   -2.8259 H   0  0  0  0  0  0  0  0  0  0  0  0
    8.1301   10.4613   -2.7222 H   0  0  0  0  0  0  0  0  0  0  0  0
    8.0267    9.5574   -4.2710 H   0  0  0  0  0  0  0  0  0  0  0  0
    8.5135   11.2865   -4.2710 H   0  0  0  0  0  0  0  0  0  0  0  0
    2.0144   13.7360   -5.0912 H   0  0  0  0  0  0  0  0  0  0  0  0
   -0.3111   13.0839   -5.1355 H   0  0  0  0  0  0  0  0  0  0  0  0
    0.0242   11.5472   -4.3090 H   0  0  0  0  0  0  0  0  0  0  0  0
   -1.1493   13.8584   -3.1065 H   0  0  0  0  0  0  0  0  0  0  0  0
   -0.4851   12.5022   -2.1990 H   0  0  0  0  0  0  0  0  0  0  0  0
    0.6561   16.3286   -2.6623 H   0  0  0  0  0  0  0  0  0  0  0  0
    1.6539   15.6272   -3.9811 H   0  0  0  0  0  0  0  0  0  0  0  0
   -0.1272   15.3937   -3.9811 H   0  0  0  0  0  0  0  0  0  0  0  0
    1.0168   13.4472   -0.5512 H   0  0  0  0  0  0  0  0  0  0  0  0
   -1.0372   14.9535   -0.9471 H   0  0  0  0  0  0  0  0  0  0  0  0
   -0.1760   14.9255    0.6797 H   0  0  0  0  0  0  0  0  0  0  0  0
   -0.9207   17.2921   -0.2040 H   0  0  0  0  0  0  0  0  0  0  0  0
    2.7329   16.7542   -1.8336 H   0  0  0  0  0  0  0  0  0  0  0  0
    3.2917   17.2295    1.1596 H   0  0  0  0  0  0  0  0  0  0  0  0
    4.5203   16.9069   -0.1431 H   0  0  0  0  0  0  0  0  0  0  0  0
    4.4160   19.3008    0.4726 H   0  0  0  0  0  0  0  0  0  0  0  0
    3.9447   18.9926   -1.2445 H   0  0  0  0  0  0  0  0  0  0  0  0
    2.4247   20.5968   -0.3032 H   0  0  0  0  0  0  0  0  0  0  0  0
    1.0740   19.7430    1.5420 H   0  0  0  0  0  0  0  0  0  0  0  0
    1.8923   20.1991   -2.3849 H   0  0  0  0  0  0  0  0  0  0  0  0
    1.9057   18.4419   -2.7571 H   0  0  0  0  0  0  0  0  0  0  0  0
    0.3548   19.3482   -2.7571 H   0  0  0  0  0  0  0  0  0  0  0  0
   -0.2158   19.6674    0.7592 H   0  0  0  0  0  0  0  0  0  0  0  0
   -0.1749   20.6644   -0.7344 H   0  0  0  0  0  0  0  0  0  0  0  0
   -1.0232   19.0810   -0.7344 H   0  0  0  0  0  0  0  0  0  0  0  0
    2.1734   15.5591    1.5690 H   0  0  0  0  0  0  0  0  0  0  0  0
    2.1312   13.8040    1.1888 H   0  0  0  0  0  0  0  0  0  0  0  0
    3.6963   14.6856    1.1888 H   0  0  0  0  0  0  0  0  0  0  0  0
    4.4930   15.1587   -1.2605 H   0  0  0  0  0  0  0  0  0  0  0  0
    3.8399   13.4901   -0.7873 H   0  0  0  0  0  0  0  0  0  0  0  0
    3.3825   14.9864   -3.3827 H   0  0  0  0  0  0  0  0  0  0  0  0
    4.2908   13.4475   -3.1123 H   0  0  0  0  0  0  0  0  0  0  0  0
    2.2795   12.1422   -1.0795 H   0  0  0  0  0  0  0  0  0  0  0  0
    1.4772   11.2487   -2.4154 H   0  0  0  0  0  0  0  0  0  0  0  0
    3.2620   11.4516   -2.4154 H   0  0  0  0  0  0  0  0  0  0  0  0
  1  2  1  0
  2  3  1  0
  3  4  1  0
  4  5  1  0
  5  6  1  0
  6  7  1  0
  7  8  1  0
  7  9  1  0
  2 10  1  0
 10 11  1  0
 11 12  1  0
 12 13  1  0
 13 14  1  6
 13 15  1  0
 15 16  1  0
 16 17  1  0
 17 18  2  0
 18 19  1  0
 19 20  1  0
 20 21  1  0
 21 22  1  0
 22 23  1  0
 22 24  1  0
 24 25  1  0
 24 26  1  0
 19 27  1  0
 27 28  1  1
 27 29  1  0
 29 30  1  0
 30 31  1  0
 31 32  1  1
  7  5  1  0
 31 10  1  0
 31 13  1  0
 27 15  1  0
 24 18  1  0
  1 33  1  0
  1 34  1  0
  1 35  1  0
  2 36  1  6
  3 37  1  0
  3 38  1  0
  4 39  1  0
  4 40  1  0
  5 41  1  6
  8 42  1  0
  8 43  1  0
  8 44  1  0
  9 45  1  0
  9 46  1  0
  9 47  1  0
 10 48  1  6
 11 49  1  0
 11 50  1  0
 12 51  1  0
 12 52  1  0
 14 53  1  0
 14 54  1  0
 14 55  1  0
 15 56  1  1
 16 57  1  0
 16 58  1  0
 17 59  1  0
 19 60  1  6
 20 61  1  0
 20 62  1  0
 21 63  1  0
 21 64  1  0
 22 65  1  6
 23 66  1  0
 25 67  1  0
 25 68  1  0
 25 69  1  0
 26 70  1  0
 26 71  1  0
 26 72  1  0
 28 73  1  0
 28 74  1  0
 28 75  1  0
 29 76  1  0
 29 77  1  0
 30 78  1  0
 30 79  1  0
 32 80  1  0
 32 81  1  0
 32 82  1  0
M  END
>  <meeko>  (16) 
{"is_sidechain": [false], "intermolecular_energy": 2.731, "internal_energy": -0.839}

$$$$
EPH_relaxed_0001_pdb2pqr_Repair_311_r2_0001_out
     RDKit          3D

 82 86  0  0  0  0  0  0  0  0999 V2000
   -2.5500    9.9000    0.3040 C   0  0  0  0  0  0  0  0  0  0  0  0
   -1.1040   10.0650    0.7790 C   0  0  2  0  0  0  0  0  0  0  0  0
   -0.8850   11.3990    1.5200 C   0  0  0  0  0  0  0  0  0  0  0  0
    0.1800   11.3250    2.6180 C   0  0  0  0  0  0  0  0  0  0  0  0
    0.2780   12.6110    3.3830 C   0  0  2  0  0  0  0  0  0  0  0  0
    0.5840   12.4570    4.7750 O   0  0  0  0  0  0  0  0  0  0  0  0
   -0.7040   13.0160    4.4670 C   0  0  0  0  0  0  0  0  0  0  0  0
   -1.8550   12.1370    4.8450 C   0  0  0  0  0  0  0  0  0  0  0  0
   -0.8290   14.4670    4.8120 C   0  0  0  0  0  0  0  0  0  0  0  0
   -0.1530    9.9660   -0.4080 C   0  0  1  0  0  0  0  0  0  0  0  0
   -0.6560    8.9820   -1.4970 C   0  0  0  0  0  0  0  0  0  0  0  0
   -0.2220    9.5690   -2.8650 C   0  0  0  0  0  0  0  0  0  0  0  0
    0.7920   10.6810   -2.5080 C   0  0  1  0  0  0  0  0  0  0  0  0
    2.1380    9.9310   -2.2600 C   0  0  0  0  0  0  0  0  0  0  0  0
    0.9550   11.8290   -3.5570 C   0  0  2  0  0  0  0  0  0  0  0  0
    1.4840   11.3870   -4.9320 C   0  0  0  0  0  0  0  0  0  0  0  0
    2.9690   11.4180   -5.0840 C   0  0  0  0  0  0  0  0  0  0  0  0
    3.8260   12.0510   -4.2620 C   0  0  0  0  0  0  0  0  0  0  0  0
    3.3130   12.9110   -3.0990 C   0  0  1  0  0  0  0  0  0  0  0  0
    4.0720   14.2640   -3.0810 C   0  0  0  0  0  0  0  0  0  0  0  0
    5.5870   14.0840   -3.0500 C   0  0  0  0  0  0  0  0  0  0  0  0
    6.0650   13.2750   -4.2520 C   0  0  2  0  0  0  0  0  0  0  0  0
    5.8430   14.0390   -5.4410 O   0  0  0  0  0  0  0  0  0  0  0  0
    5.3620   11.8940   -4.3800 C   0  0  0  0  0  0  0  0  0  0  0  0
    5.8440   10.9580   -3.2440 C   0  0  0  0  0  0  0  0  0  0  0  0
    5.8310   11.2410   -5.7080 C   0  0  0  0  0  0  0  0  0  0  0  0
    1.7370   13.0940   -3.0160 C   0  0  1  0  0  0  0  0  0  0  0  0
    1.2940   14.3020   -3.8980 C   0  0  0  0  0  0  0  0  0  0  0  0
    1.3390   13.4560   -1.5360 C   0  0  0  0  0  0  0  0  0  0  0  0
    1.0740   12.2780   -0.5800 C   0  0  0  0  0  0  0  0  0  0  0  0
    0.1180   11.2620   -1.2120 C   0  0  2  0  0  0  0  0  0  0  0  0
   -1.2530   11.9820   -1.4530 C   0  0  0  0  0  0  0  0  0  0  0  0
   -3.2160    9.8240    1.1761 H   0  0  0  0  0  0  0  0  0  0  0  0
   -2.8383   10.7711   -0.3027 H   0  0  0  0  0  0  0  0  0  0  0  0
   -2.6347    8.9864   -0.3027 H   0  0  0  0  0  0  0  0  0  0  0  0
   -0.8949    9.2536    1.4917 H   0  0  0  0  0  0  0  0  0  0  0  0
   -0.5750   12.1573    0.7859 H   0  0  0  0  0  0  0  0  0  0  0  0
   -1.8358   11.6543    2.0107 H   0  0  0  0  0  0  0  0  0  0  0  0
   -0.0818   10.5149    3.3146 H   0  0  0  0  0  0  0  0  0  0  0  0
    1.1525   11.1352    2.1403 H   0  0  0  0  0  0  0  0  0  0  0  0
    0.6552   13.1388    2.4946 H   0  0  0  0  0  0  0  0  0  0  0  0
   -1.9288   12.0806    5.9411 H   0  0  0  0  0  0  0  0  0  0  0  0
   -2.7862   12.5560    4.4359 H   0  0  0  0  0  0  0  0  0  0  0  0
   -1.6959   11.1284    4.4359 H   0  0  0  0  0  0  0  0  0  0  0  0
   -0.8391   14.5843    5.9057 H   0  0  0  0  0  0  0  0  0  0  0  0
    0.0249   15.0187    4.3919 H   0  0  0  0  0  0  0  0  0  0  0  0
   -1.7647   14.8645    4.3919 H   0  0  0  0  0  0  0  0  0  0  0  0
    0.7616    9.6497    0.1150 H   0  0  0  0  0  0  0  0  0  0  0  0
   -0.2035    7.9903   -1.3496 H   0  0  0  0  0  0  0  0  0  0  0  0
   -1.7483    8.8624   -1.4471 H   0  0  0  0  0  0  0  0  0  0  0  0
    0.2527    8.7955   -3.4865 H   0  0  0  0  0  0  0  0  0  0  0  0
   -1.0750    9.9524   -3.4441 H   0  0  0  0  0  0  0  0  0  0  0  0
    2.3103    9.8350   -1.1778 H   0  0  0  0  0  0  0  0  0  0  0  0
    2.0890    8.9301   -2.7137 H   0  0  0  0  0  0  0  0  0  0  0  0
    2.9634   10.4993   -2.7137 H   0  0  0  0  0  0  0  0  0  0  0  0
   -0.0854   12.1440   -3.7254 H   0  0  0  0  0  0  0  0  0  0  0  0
    1.1455   10.3558   -5.1110 H   0  0  0  0  0  0  0  0  0  0  0  0
    1.0886   12.1128   -5.6579 H   0  0  0  0  0  0  0  0  0  0  0  0
    3.3989   10.8777   -5.9403 H   0  0  0  0  0  0  0  0  0  0  0  0
    3.5358   12.3466   -2.1815 H   0  0  0  0  0  0  0  0  0  0  0  0
    3.8026   14.8316   -3.9839 H   0  0  0  0  0  0  0  0  0  0  0  0
    3.7802   14.7987   -2.1650 H   0  0  0  0  0  0  0  0  0  0  0  0
    6.0675   15.0734   -3.0680 H   0  0  0  0  0  0  0  0  0  0  0  0
    5.8573   13.5416   -2.1320 H   0  0  0  0  0  0  0  0  0  0  0  0
    7.1358   13.0701   -4.1059 H   0  0  0  0  0  0  0  0  0  0  0  0
    6.2500   14.9120   -5.3090 H   0  0  0  0  0  0  0  0  0  0  0  0
    5.6099   11.4127   -2.2701 H   0  0  0  0  0  0  0  0  0  0  0  0
    5.3337    9.9871   -3.3275 H   0  0  0  0  0  0  0  0  0  0  0  0
    6.9307   10.8095   -3.3275 H   0  0  0  0  0  0  0  0  0  0  0  0
    6.4593   10.3662   -5.4846 H   0  0  0  0  0  0  0  0  0  0  0  0
    4.9535   10.9231   -6.2902 H   0  0  0  0  0  0  0  0  0  0  0  0
    6.4125   11.9710   -6.2902 H   0  0  0  0  0  0  0  0  0  0  0  0
    0.9880   15.1365   -3.2499 H   0  0  0  0  0  0  0  0  0  0  0  0
    2.1340   14.6199   -4.5330 H   0  0  0  0  0  0  0  0  0  0  0  0
    0.4476   14.0014   -4.5330 H   0  0  0  0  0  0  0  0  0  0  0  0
    2.1571   14.0541   -1.1083 H   0  0  0  0  0  0  0  0  0  0  0  0
    0.3766   13.9825   -1.6175 H   0  0  0  0  0  0  0  0  0  0  0  0
    2.0275   11.7799   -0.3501 H   0  0  0  0  0  0  0  0  0  0  0  0
    0.6121   12.6693    0.3384 H   0  0  0  0  0  0  0  0  0  0  0  0
   -1.7150   12.2246   -0.4846 H   0  0  0  0  0  0  0  0  0  0  0  0
   -1.0856   12.9085   -2.0218 H   0  0  0  0  0  0  0  0  0  0  0  0
   -1.9208   11.3182   -2.0218 H   0  0  0  0  0  0  0  0  0  0  0  0
  1  2  1  0
  2  3  1  0
  3  4  1  0
  4  5  1  0
  5  6  1  0
  6  7  1  0
  7  8  1  0
  7  9  1  0
  2 10  1  0
 10 11  1  0
 11 12  1  0
 12 13  1  0
 13 14  1  1
 13 15  1  0
 15 16  1  0
 16 17  1  0
 17 18  2  0
 18 19  1  0
 19 20  1  0
 20 21  1  0
 21 22  1  0
 22 23  1  0
 22 24  1  0
 24 25  1  0
 24 26  1  0
 19 27  1  0
 27 28  1  6
 27 29  1  0
 29 30  1  0
 30 31  1  0
 31 32  1  6
  7  5  1  0
 31 10  1  0
 31 13  1  0
 27 15  1  0
 24 18  1  0
  1 33  1  0
  1 34  1  0
  1 35  1  0
  2 36  1  1
  3 37  1  0
  3 38  1  0
  4 39  1  0
  4 40  1  0
  5 41  1  6
  8 42  1  0
  8 43  1  0
  8 44  1  0
  9 45  1  0
  9 46  1  0
  9 47  1  0
 10 48  1  1
 11 49  1  0
 11 50  1  0
 12 51  1  0
 12 52  1  0
 14 53  1  0
 14 54  1  0
 14 55  1  0
 15 56  1  6
 16 57  1  0
 16 58  1  0
 17 59  1  0
 19 60  1  1
 20 61  1  0
 20 62  1  0
 21 63  1  0
 21 64  1  0
 22 65  1  1
 23 66  1  0
 25 67  1  0
 25 68  1  0
 25 69  1  0
 26 70  1  0
 26 71  1  0
 26 72  1  0
 28 73  1  0
 28 74  1  0
 28 75  1  0
 29 76  1  0
 29 77  1  0
 30 78  1  0
 30 79  1  0
 32 80  1  0
 32 81  1  0
 32 82  1  0
M  END
>  <meeko>  (17) 
{"is_sidechain": [false], "intermolecular_energy": 2.731, "internal_energy": -0.839}

$$$$
EPH_relaxed_0001_pdb2pqr_Repair_311_r2_0001_out
     RDKit          3D

 82 86  0  0  0  0  0  0  0  0999 V2000
    2.7550    9.9620   -2.8640 C   0  0  0  0  0  0  0  0  0  0  0  0
    1.3890   10.1280   -2.1930 C   0  0  2  0  0  0  0  0  0  0  0  0
    0.2370   10.1440   -3.2170 C   0  0  0  0  0  0  0  0  0  0  0  0
   -0.9540    9.2690   -2.8170 C   0  0  0  0  0  0  0  0  0  0  0  0
   -1.1260    9.2130   -1.3290 C   0  0  2  0  0  0  0  0  0  0  0  0
   -2.4880    9.2230   -0.8820 O   0  0  0  0  0  0  0  0  0  0  0  0
   -1.6910   10.3580   -0.5080 C   0  0  0  0  0  0  0  0  0  0  0  0
   -2.1190   11.6400   -1.1490 C   0  0  0  0  0  0  0  0  0  0  0  0
   -1.3720   10.4160    0.9530 C   0  0  0  0  0  0  0  0  0  0  0  0
    1.3690   11.4090   -1.3670 C   0  0  1  0  0  0  0  0  0  0  0  0
    2.2590   11.3160   -0.0990 C   0  0  0  0  0  0  0  0  0  0  0  0
    2.8650   12.7250    0.1260 C   0  0  0  0  0  0  0  0  0  0  0  0
    2.0550   13.6530   -0.8090 C   0  0  1  0  0  0  0  0  0  0  0  0
    0.7380   13.9580   -0.0290 C   0  0  0  0  0  0  0  0  0  0  0  0
    2.7690   14.9650   -1.2700 C   0  0  2  0  0  0  0  0  0  0  0  0
    3.1320   15.9420   -0.1380 C   0  0  0  0  0  0  0  0  0  0  0  0
    2.0870   16.9590    0.1860 C   0  0  0  0  0  0  0  0  0  0  0  0
    1.0290   17.2670   -0.5880 C   0  0  0  0  0  0  0  0  0  0  0  0
    0.8560   16.6340   -1.9740 C   0  0  1  0  0  0  0  0  0  0  0  0
    0.4910   17.7350   -3.0040 C   0  0  0  0  0  0  0  0  0  0  0  0
   -0.7250   18.5520   -2.5800 C   0  0  0  0  0  0  0  0  0  0  0  0
   -0.4920   19.2130   -1.2240 C   0  0  2  0  0  0  0  0  0  0  0  0
    0.5400   20.1950   -1.3600 O   0  0  0  0  0  0  0  0  0  0  0  0
   -0.1080   18.2020   -0.1080 C   0  0  0  0  0  0  0  0  0  0  0  0
   -1.3360   17.3300    0.2500 C   0  0  0  0  0  0  0  0  0  0  0  0
    0.2370   19.0110    1.1720 C   0  0  0  0  0  0  0  0  0  0  0  0
    2.0510   15.7080   -2.4680 C   0  0  1  0  0  0  0  0  0  0  0  0
    3.1390   16.5750   -3.1720 C   0  0  0  0  0  0  0  0  0  0  0  0
    1.5090   14.7060   -3.5550 C   0  0  0  0  0  0  0  0  0  0  0  0
    0.9240   13.3760   -3.0440 C   0  0  0  0  0  0  0  0  0  0  0  0
    1.8760   12.7040   -2.0500 C   0  0  2  0  0  0  0  0  0  0  0  0
    3.2030   12.3660   -2.8120 C   0  0  0  0  0  0  0  0  0  0  0  0
    3.5334    9.8674   -2.0925 H   0  0  0  0  0  0  0  0  0  0  0  0
    2.7482    9.0581   -3.4908 H   0  0  0  0  0  0  0  0  0  0  0  0
    2.9649   10.8412   -3.4908 H   0  0  0  0  0  0  0  0  0  0  0  0
    1.2347    9.2590   -1.5365 H   0  0  0  0  0  0  0  0  0  0  0  0
   -0.1150   11.1803   -3.3276 H   0  0  0  0  0  0  0  0  0  0  0  0
    0.6361    9.7339   -4.1564 H   0  0  0  0  0  0  0  0  0  0  0  0
   -1.8682    9.6843   -3.2661 H   0  0  0  0  0  0  0  0  0  0  0  0
   -0.7658    8.2475   -3.1791 H   0  0  0  0  0  0  0  0  0  0  0  0
   -0.2128    8.6090   -1.2231 H   0  0  0  0  0  0  0  0  0  0  0  0
   -2.3646   12.3758   -0.3691 H   0  0  0  0  0  0  0  0  0  0  0  0
   -1.3016   12.0279   -1.7746 H   0  0  0  0  0  0  0  0  0  0  0  0
   -3.0055   11.4591   -1.7746 H   0  0  0  0  0  0  0  0  0  0  0  0
   -2.2900   10.2491    1.5356 H   0  0  0  0  0  0  0  0  0  0  0  0
   -0.6351    9.6371    1.1986 H   0  0  0  0  0  0  0  0  0  0  0  0
   -0.9564   11.4044    1.1986 H   0  0  0  0  0  0  0  0  0  0  0  0
    0.2892   11.4852   -1.1713 H   0  0  0  0  0  0  0  0  0  0  0  0
    1.6515   11.0218    0.7695 H   0  0  0  0  0  0  0  0  0  0  0  0
    3.0495   10.5616   -0.2256 H   0  0  0  0  0  0  0  0  0  0  0  0
    2.7492   13.0343    1.1753 H   0  0  0  0  0  0  0  0  0  0  0  0
    3.9432   12.7542   -0.0898 H   0  0  0  0  0  0  0  0  0  0  0  0
    0.9335   13.9127    1.0525 H   0  0  0  0  0  0  0  0  0  0  0  0
    0.3788   14.9631   -0.2949 H   0  0  0  0  0  0  0  0  0  0  0  0
   -0.0265   13.2131   -0.2949 H   0  0  0  0  0  0  0  0  0  0  0  0
    3.7269   14.5883   -1.6580 H   0  0  0  0  0  0  0  0  0  0  0  0
    3.3262   15.3528    0.7704 H   0  0  0  0  0  0  0  0  0  0  0  0
    4.0071   16.5067   -0.4920 H   0  0  0  0  0  0  0  0  0  0  0  0
    2.1904   17.5021    1.1370 H   0  0  0  0  0  0  0  0  0  0  0  0
    0.0247   15.9198   -1.8804 H   0  0  0  0  0  0  0  0  0  0  0  0
    1.3501   18.4129   -3.1149 H   0  0  0  0  0  0  0  0  0  0  0  0
    0.2440   17.2362   -3.9528 H   0  0  0  0  0  0  0  0  0  0  0  0
   -0.9153   19.3314   -3.3325 H   0  0  0  0  0  0  0  0  0  0  0  0
   -1.5900   17.8775   -2.4979 H   0  0  0  0  0  0  0  0  0  0  0  0
   -1.4411   19.6754   -0.9153 H   0  0  0  0  0  0  0  0  0  0  0  0
    0.3350   20.7300   -2.1460 H   0  0  0  0  0  0  0  0  0  0  0  0
   -1.4313   17.2623    1.3438 H   0  0  0  0  0  0  0  0  0  0  0  0
   -2.2446   17.7863   -0.1697 H   0  0  0  0  0  0  0  0  0  0  0  0
   -1.2046   16.3217   -0.1697 H   0  0  0  0  0  0  0  0  0  0  0  0
   -0.0168   18.4157    2.0615 H   0  0  0  0  0  0  0  0  0  0  0  0
    1.3123   19.2428    1.1806 H   0  0  0  0  0  0  0  0  0  0  0  0
   -0.3401   19.9474    1.1806 H   0  0  0  0  0  0  0  0  0  0  0  0
    3.7611   17.0707   -2.4122 H   0  0  0  0  0  0  0  0  0  0  0  0
    3.7715   15.9306   -3.8002 H   0  0  0  0  0  0  0  0  0  0  0  0
    2.6520   17.3354   -3.8002 H   0  0  0  0  0  0  0  0  0  0  0  0
    0.7182   15.2225   -4.1187 H   0  0  0  0  0  0  0  0  0  0  0  0
    2.3899   14.4230   -4.1500 H   0  0  0  0  0  0  0  0  0  0  0  0
   -0.0363   13.5734   -2.5452 H   0  0  0  0  0  0  0  0  0  0  0  0
    0.7811   12.7031   -3.9023 H   0  0  0  0  0  0  0  0  0  0  0  0
    4.0022   12.1624   -2.0841 H   0  0  0  0  0  0  0  0  0  0  0  0
    3.0475   11.4788   -3.4434 H   0  0  0  0  0  0  0  0  0  0  0  0
    3.4908   13.2195   -3.4434 H   0  0  0  0  0  0  0  0  0  0  0  0
  1  2  1  0
  2  3  1  0
  3  4  1  0
  4  5  1  0
  5  6  1  0
  6  7  1  0
  7  8  1  0
  7  9  1  0
  2 10  1  0
 10 11  1  0
 11 12  1  0
 12 13  1  0
 13 14  1  1
 13 15  1  0
 15 16  1  0
 16 17  1  0
 17 18  2  0
 18 19  1  0
 19 20  1  0
 20 21  1  0
 21 22  1  0
 22 23  1  0
 22 24  1  0
 24 25  1  0
 24 26  1  0
 19 27  1  0
 27 28  1  6
 27 29  1  0
 29 30  1  0
 30 31  1  0
 31 32  1  6
  7  5  1  0
 31 10  1  0
 31 13  1  0
 27 15  1  0
 24 18  1  0
  1 33  1  0
  1 34  1  0
  1 35  1  0
  2 36  1  1
  3 37  1  0
  3 38  1  0
  4 39  1  0
  4 40  1  0
  5 41  1  1
  8 42  1  0
  8 43  1  0
  8 44  1  0
  9 45  1  0
  9 46  1  0
  9 47  1  0
 10 48  1  1
 11 49  1  0
 11 50  1  0
 12 51  1  0
 12 52  1  0
 14 53  1  0
 14 54  1  0
 14 55  1  0
 15 56  1  6
 16 57  1  0
 16 58  1  0
 17 59  1  0
 19 60  1  1
 20 61  1  0
 20 62  1  0
 21 63  1  0
 21 64  1  0
 22 65  1  1
 23 66  1  0
 25 67  1  0
 25 68  1  0
 25 69  1  0
 26 70  1  0
 26 71  1  0
 26 72  1  0
 28 73  1  0
 28 74  1  0
 28 75  1  0
 29 76  1  0
 29 77  1  0
 30 78  1  0
 30 79  1  0
 32 80  1  0
 32 81  1  0
 32 82  1  0
M  END
>  <meeko>  (18) 
{"is_sidechain": [false], "intermolecular_energy": 2.731, "internal_energy": -0.839}

$$$$
