EPH_relaxed_0001_pdb2pqr_Repair_158_r2_0001_out
     RDKit          3D

 82 86  0  0  0  0  0  0  0  0999 V2000
    4.6270   17.3020   -0.7400 C   0  0  0  0  0  0  0  0  0  0  0  0
    3.2660   17.9630   -0.5060 C   0  0  2  0  0  0  0  0  0  0  0  0
    3.2310   18.7700    0.8070 C   0  0  0  0  0  0  0  0  0  0  0  0
    4.3960   18.4610    1.7510 C   0  0  0  0  0  0  0  0  0  0  0  0
    4.2040   19.0970    3.0950 C   0  0  2  0  0  0  0  0  0  0  0  0
    5.0880   20.1910    3.3710 O   0  0  0  0  0  0  0  0  0  0  0  0
    5.2340   19.0310    4.2060 C   0  0  0  0  0  0  0  0  0  0  0  0
    6.5330   18.3110    4.0240 C   0  0  0  0  0  0  0  0  0  0  0  0
    4.7800   19.2430    5.6170 C   0  0  0  0  0  0  0  0  0  0  0  0
    2.1700   16.9040   -0.4960 C   0  0  1  0  0  0  0  0  0  0  0  0
    0.7680   17.4930   -0.8090 C   0  0  0  0  0  0  0  0  0  0  0  0
   -0.0010   16.4130   -1.6130 C   0  0  0  0  0  0  0  0  0  0  0  0
    0.8460   15.1290   -1.4510 C   0  0  1  0  0  0  0  0  0  0  0  0
    0.4440   14.5570   -0.0560 C   0  0  0  0  0  0  0  0  0  0  0  0
    0.6980   14.0560   -2.5790 C   0  0  2  0  0  0  0  0  0  0  0  0
   -0.7100   13.4550   -2.7280 C   0  0  0  0  0  0  0  0  0  0  0  0
   -0.9690   12.2290   -1.9160 C   0  0  0  0  0  0  0  0  0  0  0  0
   -0.0290   11.4710   -1.3230 C   0  0  0  0  0  0  0  0  0  0  0  0
    1.4630   11.7680   -1.5210 C   0  0  1  0  0  0  0  0  0  0  0  0
    2.2170   10.4490   -1.8360 C   0  0  0  0  0  0  0  0  0  0  0  0
    1.9710    9.3700   -0.7850 C   0  0  0  0  0  0  0  0  0  0  0  0
    0.4820    9.0610   -0.6580 C   0  0  2  0  0  0  0  0  0  0  0  0
    0.0320    8.4540   -1.8740 O   0  0  0  0  0  0  0  0  0  0  0  0
   -0.3810   10.3180   -0.3510 C   0  0  0  0  0  0  0  0  0  0  0  0
   -0.1040   10.7980    1.0950 C   0  0  0  0  0  0  0  0  0  0  0  0
   -1.8740    9.8930   -0.3890 C   0  0  0  0  0  0  0  0  0  0  0  0
    1.8080   12.9290   -2.5510 C   0  0  1  0  0  0  0  0  0  0  0  0
    1.8920   12.3500   -3.9960 C   0  0  0  0  0  0  0  0  0  0  0  0
    3.2360   13.5030   -2.2190 C   0  0  0  0  0  0  0  0  0  0  0  0
    3.3040   14.6420   -1.1850 C   0  0  0  0  0  0  0  0  0  0  0  0
    2.2920   15.7430   -1.5150 C   0  0  2  0  0  0  0  0  0  0  0  0
    2.6840   16.3530   -2.9040 C   0  0  0  0  0  0  0  0  0  0  0  0
    5.0955   17.0744    0.2289 H   0  0  0  0  0  0  0  0  0  0  0  0
    4.4893   16.3704   -1.3085 H   0  0  0  0  0  0  0  0  0  0  0  0
    5.2740   17.9862   -1.3085 H   0  0  0  0  0  0  0  0  0  0  0  0
    3.0938   18.6690   -1.3318 H   0  0  0  0  0  0  0  0  0  0  0  0
    3.2611   19.8409    0.5573 H   0  0  0  0  0  0  0  0  0  0  0  0
    2.3074   18.4874    1.3333 H   0  0  0  0  0  0  0  0  0  0  0  0
    4.4711   17.3711    1.8798 H   0  0  0  0  0  0  0  0  0  0  0  0
    5.3154   18.8696    1.3064 H   0  0  0  0  0  0  0  0  0  0  0  0
    3.1272   18.8735    3.0733 H   0  0  0  0  0  0  0  0  0  0  0  0
    6.9616   18.0734    5.0088 H   0  0  0  0  0  0  0  0  0  0  0  0
    6.3607   17.3796    3.4647 H   0  0  0  0  0  0  0  0  0  0  0  0
    7.2316   18.9507    3.4647 H   0  0  0  0  0  0  0  0  0  0  0  0
    5.5543   18.8814    6.3096 H   0  0  0  0  0  0  0  0  0  0  0  0
    4.6061   20.3155    5.7890 H   0  0  0  0  0  0  0  0  0  0  0  0
    3.8461   18.6879    5.7890 H   0  0  0  0  0  0  0  0  0  0  0  0
    2.2943   16.5199    0.5272 H   0  0  0  0  0  0  0  0  0  0  0  0
    0.2351   17.7203    0.1261 H   0  0  0  0  0  0  0  0  0  0  0  0
    0.8512   18.4280   -1.3825 H   0  0  0  0  0  0  0  0  0  0  0  0
   -1.0102   16.2671   -1.2005 H   0  0  0  0  0  0  0  0  0  0  0  0
   -0.1343   16.6944   -2.6680 H   0  0  0  0  0  0  0  0  0  0  0  0
    0.8827   15.1812    0.7365 H   0  0  0  0  0  0  0  0  0  0  0  0
   -0.6518   14.5597    0.0395 H   0  0  0  0  0  0  0  0  0  0  0  0
    0.8178   13.5269    0.0395 H   0  0  0  0  0  0  0  0  0  0  0  0
    0.8672   14.6479   -3.4906 H   0  0  0  0  0  0  0  0  0  0  0  0
   -1.4402   14.2214   -2.4289 H   0  0  0  0  0  0  0  0  0  0  0  0
   -0.8001   13.1478   -3.7804 H   0  0  0  0  0  0  0  0  0  0  0  0
   -2.0172   11.9194   -1.7922 H   0  0  0  0  0  0  0  0  0  0  0  0
    1.8195   12.1825   -0.5665 H   0  0  0  0  0  0  0  0  0  0  0  0
    1.8783   10.0737   -2.8129 H   0  0  0  0  0  0  0  0  0  0  0  0
    3.2941   10.6724   -1.8400 H   0  0  0  0  0  0  0  0  0  0  0  0
    2.5050    8.4540   -1.0778 H   0  0  0  0  0  0  0  0  0  0  0  0
    2.3375    9.7356    0.1856 H   0  0  0  0  0  0  0  0  0  0  0  0
    0.3582    8.3793    0.1963 H   0  0  0  0  0  0  0  0  0  0  0  0
    0.2250    7.5030   -1.8160 H   0  0  0  0  0  0  0  0  0  0  0  0
   -0.5224   10.0729    1.8085 H   0  0  0  0  0  0  0  0  0  0  0  0
    0.9815   10.8821    1.2518 H   0  0  0  0  0  0  0  0  0  0  0  0
   -0.5743   11.7800    1.2518 H   0  0  0  0  0  0  0  0  0  0  0  0
   -2.2510    9.7857    0.6388 H   0  0  0  0  0  0  0  0  0  0  0  0
   -2.4602   10.6599   -0.9164 H   0  0  0  0  0  0  0  0  0  0  0  0
   -1.9684    8.9323   -0.9164 H   0  0  0  0  0  0  0  0  0  0  0  0
    2.0498   11.2625   -3.9466 H   0  0  0  0  0  0  0  0  0  0  0  0
    0.9539   12.5605   -4.5305 H   0  0  0  0  0  0  0  0  0  0  0  0
    2.7316   12.8184   -4.5305 H   0  0  0  0  0  0  0  0  0  0  0  0
    3.8485   12.6720   -1.8392 H   0  0  0  0  0  0  0  0  0  0  0  0
    3.5932   13.9471   -3.1598 H   0  0  0  0  0  0  0  0  0  0  0  0
    3.0814   14.2360   -0.1872 H   0  0  0  0  0  0  0  0  0  0  0  0
    4.3144   15.0762   -1.2074 H   0  0  0  0  0  0  0  0  0  0  0  0
    3.2728   17.2692   -2.7491 H   0  0  0  0  0  0  0  0  0  0  0  0
    3.2828   15.6235   -3.4690 H   0  0  0  0  0  0  0  0  0  0  0  0
    1.7716   16.5946   -3.4690 H   0  0  0  0  0  0  0  0  0  0  0  0
  1  2  1  0
  2  3  1  0
  3  4  1  0
  4  5  1  0
  5  6  1  0
  6  7  1  0
  7  8  1  0
  7  9  1  0
  2 10  1  0
 10 11  1  0
 11 12  1  0
 12 13  1  0
 13 14  1  1
 13 15  1  0
 15 16  1  0
 16 17  1  0
 17 18  2  0
 18 19  1  0
 19 20  1  0
 20 21  1  0
 21 22  1  0
 22 23  1  0
 22 24  1  0
 24 25  1  0
 24 26  1  0
 19 27  1  0
 27 28  1  6
 27 29  1  0
 29 30  1  0
 30 31  1  0
 31 32  1  6
  7  5  1  0
 31 10  1  0
 31 13  1  0
 27 15  1  0
 24 18  1  0
  1 33  1  0
  1 34  1  0
  1 35  1  0
  2 36  1  6
  3 37  1  0
  3 38  1  0
  4 39  1  0
  4 40  1  0
  5 41  1  1
  8 42  1  0
  8 43  1  0
  8 44  1  0
  9 45  1  0
  9 46  1  0
  9 47  1  0
 10 48  1  1
 11 49  1  0
 11 50  1  0
 12 51  1  0
 12 52  1  0
 14 53  1  0
 14 54  1  0
 14 55  1  0
 15 56  1  6
 16 57  1  0
 16 58  1  0
 17 59  1  0
 19 60  1  1
 20 61  1  0
 20 62  1  0
 21 63  1  0
 21 64  1  0
 22 65  1  1
 23 66  1  0
 25 67  1  0
 25 68  1  0
 25 69  1  0
 26 70  1  0
 26 71  1  0
 26 72  1  0
 28 73  1  0
 28 74  1  0
 28 75  1  0
 29 76  1  0
 29 77  1  0
 30 78  1  0
 30 79  1  0
 32 80  1  0
 32 81  1  0
 32 82  1  0
M  END
>  <meeko>  (1) 
{"is_sidechain": [false], "intermolecular_energy": 2.731, "internal_energy": -0.839}

$$$$
EPH_relaxed_0001_pdb2pqr_Repair_158_r2_0001_out
     RDKit          3D

 82 86  0  0  0  0  0  0  0  0999 V2000
    3.8710   17.9820    0.6400 C   0  0  0  0  0  0  0  0  0  0  0  0
    2.9710   18.3900   -0.5300 C   0  0  2  0  0  0  0  0  0  0  0  0
    2.2280   19.7130   -0.2570 C   0  0  0  0  0  0  0  0  0  0  0  0
    1.1700   19.6090    0.8450 C   0  0  0  0  0  0  0  0  0  0  0  0
   -0.1480   20.1710    0.4040 C   0  0  2  0  0  0  0  0  0  0  0  0
   -1.1590   20.1940    1.4190 O   0  0  0  0  0  0  0  0  0  0  0  0
   -1.4140   19.3430    0.2900 C   0  0  0  0  0  0  0  0  0  0  0  0
   -1.4240   17.8830    0.6170 C   0  0  0  0  0  0  0  0  0  0  0  0
   -2.5130   19.8350   -0.6000 C   0  0  0  0  0  0  0  0  0  0  0  0
    1.9680   17.2810   -0.8250 C   0  0  1  0  0  0  0  0  0  0  0  0
    0.8260   17.7430   -1.7690 C   0  0  0  0  0  0  0  0  0  0  0  0
    0.4610   16.5260   -2.6580 C   0  0  0  0  0  0  0  0  0  0  0  0
    1.1600   15.3240   -1.9810 C   0  0  1  0  0  0  0  0  0  0  0  0
    0.2110   14.9150   -0.8110 C   0  0  0  0  0  0  0  0  0  0  0  0
    1.4950   14.1090   -2.9050 C   0  0  2  0  0  0  0  0  0  0  0  0
    0.2750   13.4140   -3.5360 C   0  0  0  0  0  0  0  0  0  0  0  0
   -0.3010   12.2900   -2.7400 C   0  0  0  0  0  0  0  0  0  0  0  0
    0.3050   11.6700   -1.7110 C   0  0  0  0  0  0  0  0  0  0  0  0
    1.7440   12.0240   -1.3140 C   0  0  1  0  0  0  0  0  0  0  0  0
    2.5580   10.7200   -1.1000 C   0  0  0  0  0  0  0  0  0  0  0  0
    1.8940    9.7740   -0.1040 C   0  0  0  0  0  0  0  0  0  0  0  0
    0.4870    9.3990   -0.5620 C   0  0  2  0  0  0  0  0  0  0  0  0
    0.5840    8.6150   -1.7560 O   0  0  0  0  0  0  0  0  0  0  0  0
   -0.4220   10.6330   -0.8200 C   0  0  0  0  0  0  0  0  0  0  0  0
   -0.7730   11.3110    0.5280 C   0  0  0  0  0  0  0  0  0  0  0  0
   -1.7640   10.1220   -1.4110 C   0  0  0  0  0  0  0  0  0  0  0  0
    2.4890   13.0590   -2.2620 C   0  0  1  0  0  0  0  0  0  0  0  0
    3.1670   12.3040   -3.4460 C   0  0  0  0  0  0  0  0  0  0  0  0
    3.6500   13.7520   -1.4540 C   0  0  0  0  0  0  0  0  0  0  0  0
    3.2820   15.0170   -0.6560 C   0  0  0  0  0  0  0  0  0  0  0  0
    2.5020   16.0070   -1.5270 C   0  0  2  0  0  0  0  0  0  0  0  0
    3.4390   16.4540   -2.7000 C   0  0  0  0  0  0  0  0  0  0  0  0
    3.3649   18.2115    1.5893 H   0  0  0  0  0  0  0  0  0  0  0  0
    4.0765   16.9027    0.5855 H   0  0  0  0  0  0  0  0  0  0  0  0
    4.8181   18.5388    0.5855 H   0  0  0  0  0  0  0  0  0  0  0  0
    3.6178   18.5492   -1.4054 H   0  0  0  0  0  0  0  0  0  0  0  0
    2.9670   20.4711    0.0416 H   0  0  0  0  0  0  0  0  0  0  0  0
    1.7009   19.9828   -1.1841 H   0  0  0  0  0  0  0  0  0  0  0  0
    1.0350   18.5501    1.1106 H   0  0  0  0  0  0  0  0  0  0  0  0
    1.5185   20.1915    1.7106 H   0  0  0  0  0  0  0  0  0  0  0  0
    0.3519   20.8552   -0.2974 H   0  0  0  0  0  0  0  0  0  0  0  0
   -1.4249   17.7519    1.7092 H   0  0  0  0  0  0  0  0  0  0  0  0
   -2.3254   17.4180    0.1911 H   0  0  0  0  0  0  0  0  0  0  0  0
   -0.5291   17.4057    0.1911 H   0  0  0  0  0  0  0  0  0  0  0  0
   -3.3448   20.2074    0.0161 H   0  0  0  0  0  0  0  0  0  0  0  0
   -2.1338   20.6493   -1.2349 H   0  0  0  0  0  0  0  0  0  0  0  0
   -2.8678   19.0098   -1.2349 H   0  0  0  0  0  0  0  0  0  0  0  0
    1.6524   17.0408    0.2010 H   0  0  0  0  0  0  0  0  0  0  0  0
   -0.0482   18.0578   -1.1802 H   0  0  0  0  0  0  0  0  0  0  0  0
    1.1426   18.5995   -2.3823 H   0  0  0  0  0  0  0  0  0  0  0  0
   -0.6286   16.3772   -2.6841 H   0  0  0  0  0  0  0  0  0  0  0  0
    0.7814   16.6610   -3.7016 H   0  0  0  0  0  0  0  0  0  0  0  0
    0.7019   15.1266    0.1504 H   0  0  0  0  0  0  0  0  0  0  0  0
   -0.7243   15.4899   -0.8795 H   0  0  0  0  0  0  0  0  0  0  0  0
   -0.0134   13.8403   -0.8795 H   0  0  0  0  0  0  0  0  0  0  0  0
    2.0316   14.5873   -3.7376 H   0  0  0  0  0  0  0  0  0  0  0  0
   -0.5120   14.1697   -3.6759 H   0  0  0  0  0  0  0  0  0  0  0  0
    0.6311   12.9693   -4.4770 H   0  0  0  0  0  0  0  0  0  0  0  0
   -1.3057   11.9390   -3.0182 H   0  0  0  0  0  0  0  0  0  0  0  0
    1.6709   12.5781   -0.3665 H   0  0  0  0  0  0  0  0  0  0  0  0
    2.6564   10.2030   -2.0659 H   0  0  0  0  0  0  0  0  0  0  0  0
    3.5393   11.0018   -0.6905 H   0  0  0  0  0  0  0  0  0  0  0  0
    2.4998    8.8600   -0.0169 H   0  0  0  0  0  0  0  0  0  0  0  0
    1.8226   10.2824    0.8689 H   0  0  0  0  0  0  0  0  0  0  0  0
    0.0167    8.8271    0.2515 H   0  0  0  0  0  0  0  0  0  0  0  0
    1.5290    8.4930   -1.9510 H   0  0  0  0  0  0  0  0  0  0  0  0
   -0.4412   10.6701    1.3581 H   0  0  0  0  0  0  0  0  0  0  0  0
   -0.2659   12.2851    0.5915 H   0  0  0  0  0  0  0  0  0  0  0  0
   -1.8611   11.4592    0.5915 H   0  0  0  0  0  0  0  0  0  0  0  0
   -2.4497    9.8609   -0.5915 H   0  0  0  0  0  0  0  0  0  0  0  0
   -2.2161   10.9109   -2.0301 H   0  0  0  0  0  0  0  0  0  0  0  0
   -1.5768    9.2322   -2.0301 H   0  0  0  0  0  0  0  0  0  0  0  0
    3.8526   11.5406   -3.0495 H   0  0  0  0  0  0  0  0  0  0  0  0
    2.3951   11.8193   -4.0619 H   0  0  0  0  0  0  0  0  0  0  0  0
    3.7316   13.0195   -4.0619 H   0  0  0  0  0  0  0  0  0  0  0  0
    4.0470   13.0133   -0.7422 H   0  0  0  0  0  0  0  0  0  0  0  0
    4.3680   14.0908   -2.2154 H   0  0  0  0  0  0  0  0  0  0  0  0
    2.6623   14.7308    0.2066 H   0  0  0  0  0  0  0  0  0  0  0  0
    4.2102   15.5017   -0.3192 H   0  0  0  0  0  0  0  0  0  0  0  0
    4.3593   16.8930   -2.2872 H   0  0  0  0  0  0  0  0  0  0  0  0
    3.6946   15.5808   -3.3182 H   0  0  0  0  0  0  0  0  0  0  0  0
    2.9211   17.2021   -3.3182 H   0  0  0  0  0  0  0  0  0  0  0  0
  1  2  1  0
  2  3  1  0
  3  4  1  0
  4  5  1  0
  5  6  1  0
  6  7  1  0
  7  8  1  0
  7  9  1  0
  2 10  1  0
 10 11  1  0
 11 12  1  0
 12 13  1  0
 13 14  1  1
 13 15  1  0
 15 16  1  0
 16 17  1  0
 17 18  2  0
 18 19  1  0
 19 20  1  0
 20 21  1  0
 21 22  1  0
 22 23  1  0
 22 24  1  0
 24 25  1  0
 24 26  1  0
 19 27  1  0
 27 28  1  6
 27 29  1  0
 29 30  1  0
 30 31  1  0
 31 32  1  6
  7  5  1  0
 31 10  1  0
 31 13  1  0
 27 15  1  0
 24 18  1  0
  1 33  1  0
  1 34  1  0
  1 35  1  0
  2 36  1  6
  3 37  1  0
  3 38  1  0
  4 39  1  0
  4 40  1  0
  5 41  1  6
  8 42  1  0
  8 43  1  0
  8 44  1  0
  9 45  1  0
  9 46  1  0
  9 47  1  0
 10 48  1  1
 11 49  1  0
 11 50  1  0
 12 51  1  0
 12 52  1  0
 14 53  1  0
 14 54  1  0
 14 55  1  0
 15 56  1  6
 16 57  1  0
 16 58  1  0
 17 59  1  0
 19 60  1  1
 20 61  1  0
 20 62  1  0
 21 63  1  0
 21 64  1  0
 22 65  1  1
 23 66  1  0
 25 67  1  0
 25 68  1  0
 25 69  1  0
 26 70  1  0
 26 71  1  0
 26 72  1  0
 28 73  1  0
 28 74  1  0
 28 75  1  0
 29 76  1  0
 29 77  1  0
 30 78  1  0
 30 79  1  0
 32 80  1  0
 32 81  1  0
 32 82  1  0
M  END
>  <meeko>  (2) 
{"is_sidechain": [false], "intermolecular_energy": 2.731, "internal_energy": -0.839}

$$$$
EPH_relaxed_0001_pdb2pqr_Repair_158_r2_0001_out
     RDKit          3D

 82 86  0  0  0  0  0  0  0  0999 V2000
    3.0650   18.8830   -0.2540 C   0  0  0  0  0  0  0  0  0  0  0  0
    3.5680   17.4470   -0.4300 C   0  0  2  0  0  0  0  0  0  0  0  0
    4.3890   17.2740   -1.7230 C   0  0  0  0  0  0  0  0  0  0  0  0
    5.8920   17.4900   -1.5320 C   0  0  0  0  0  0  0  0  0  0  0  0
    6.6640   17.1430   -2.7690 C   0  0  2  0  0  0  0  0  0  0  0  0
    7.6060   16.0740   -2.6060 O   0  0  0  0  0  0  0  0  0  0  0  0
    8.1590   17.3640   -2.9120 C   0  0  0  0  0  0  0  0  0  0  0  0
    8.9690   17.9570   -1.8020 C   0  0  0  0  0  0  0  0  0  0  0  0
    8.7390   17.4600   -4.2880 C   0  0  0  0  0  0  0  0  0  0  0  0
    2.3900   16.4800   -0.4270 C   0  0  1  0  0  0  0  0  0  0  0  0
    1.0320   17.1910   -0.6660 C   0  0  0  0  0  0  0  0  0  0  0  0
    0.1530   16.2130   -1.4880 C   0  0  0  0  0  0  0  0  0  0  0  0
    0.8990   14.8600   -1.4100 C   0  0  1  0  0  0  0  0  0  0  0  0
    0.4950   14.2590   -0.0270 C   0  0  0  0  0  0  0  0  0  0  0  0
    0.6290   13.8550   -2.5770 C   0  0  2  0  0  0  0  0  0  0  0  0
   -0.8270   13.3750   -2.7020 C   0  0  0  0  0  0  0  0  0  0  0  0
   -1.1590   12.1380   -1.9350 C   0  0  0  0  0  0  0  0  0  0  0  0
   -0.2640   11.2810   -1.4080 C   0  0  0  0  0  0  0  0  0  0  0  0
    1.2400   11.4680   -1.6450 C   0  0  1  0  0  0  0  0  0  0  0  0
    1.8740   10.1090   -2.0420 C   0  0  0  0  0  0  0  0  0  0  0  0
    1.5750    9.0060   -1.0310 C   0  0  0  0  0  0  0  0  0  0  0  0
    0.0700    8.8110   -0.8660 C   0  0  2  0  0  0  0  0  0  0  0  0
   -0.4650    8.2970   -2.0890 O   0  0  0  0  0  0  0  0  0  0  0  0
   -0.6780   10.1160   -0.4750 C   0  0  0  0  0  0  0  0  0  0  0  0
   -0.3180   10.5070    0.9800 C   0  0  0  0  0  0  0  0  0  0  0  0
   -2.2000    9.8130   -0.4790 C   0  0  0  0  0  0  0  0  0  0  0  0
    1.6450   12.6430   -2.6360 C   0  0  1  0  0  0  0  0  0  0  0  0
    1.6360   12.1250   -4.1070 C   0  0  0  0  0  0  0  0  0  0  0  0
    3.1240   13.0860   -2.3300 C   0  0  0  0  0  0  0  0  0  0  0  0
    3.3160   14.1690   -1.2510 C   0  0  0  0  0  0  0  0  0  0  0  0
    2.3860   15.3600   -1.4980 C   0  0  2  0  0  0  0  0  0  0  0  0
    2.7830   16.0000   -2.8720 C   0  0  0  0  0  0  0  0  0  0  0  0
    2.9840   19.1143    0.8184 H   0  0  0  0  0  0  0  0  0  0  0  0
    3.7725   19.5799   -0.7270 H   0  0  0  0  0  0  0  0  0  0  0  0
    2.0772   18.9861   -0.7270 H   0  0  0  0  0  0  0  0  0  0  0  0
    4.2344   17.2234    0.4161 H   0  0  0  0  0  0  0  0  0  0  0  0
    4.2303   16.2532   -2.1010 H   0  0  0  0  0  0  0  0  0  0  0  0
    4.0414   18.0424   -2.4293 H   0  0  0  0  0  0  0  0  0  0  0  0
    6.0716   18.5466   -1.2845 H   0  0  0  0  0  0  0  0  0  0  0  0
    6.2324   16.8312   -0.7195 H   0  0  0  0  0  0  0  0  0  0  0  0
    5.8126   17.4213   -3.4074 H   0  0  0  0  0  0  0  0  0  0  0  0
    8.5468   17.6479   -0.8344 H   0  0  0  0  0  0  0  0  0  0  0  0
   10.0083   17.6048   -1.8779 H   0  0  0  0  0  0  0  0  0  0  0  0
    8.9472   19.0542   -1.8779 H   0  0  0  0  0  0  0  0  0  0  0  0
    9.8220   17.6393   -4.2177 H   0  0  0  0  0  0  0  0  0  0  0  0
    8.5573   16.5196   -4.8289 H   0  0  0  0  0  0  0  0  0  0  0  0
    8.2640   18.2917   -4.8289 H   0  0  0  0  0  0  0  0  0  0  0  0
    2.5141   16.0425    0.5746 H   0  0  0  0  0  0  0  0  0  0  0  0
    0.5487   17.4175    0.2958 H   0  0  0  0  0  0  0  0  0  0  0  0
    1.1728   18.1411   -1.2022 H   0  0  0  0  0  0  0  0  0  0  0  0
   -0.8512   16.1289   -1.0471 H   0  0  0  0  0  0  0  0  0  0  0  0
    0.0092   16.5514   -2.5247 H   0  0  0  0  0  0  0  0  0  0  0  0
    0.9127   14.8803    0.7789 H   0  0  0  0  0  0  0  0  0  0  0  0
   -0.6016   14.2377    0.0573 H   0  0  0  0  0  0  0  0  0  0  0  0
    0.8892   13.2355    0.0573 H   0  0  0  0  0  0  0  0  0  0  0  0
    0.8162   14.4725   -3.4679 H   0  0  0  0  0  0  0  0  0  0  0  0
   -1.4829   14.1826   -2.3449 H   0  0  0  0  0  0  0  0  0  0  0  0
   -0.9745   13.1240   -3.7628 H   0  0  0  0  0  0  0  0  0  0  0  0
   -2.2244   11.9072   -1.7880 H   0  0  0  0  0  0  0  0  0  0  0  0
    1.6589   11.8100   -0.6871 H   0  0  0  0  0  0  0  0  0  0  0  0
    1.4754    9.8068   -3.0217 H   0  0  0  0  0  0  0  0  0  0  0  0
    2.9650   10.2461   -2.0735 H   0  0  0  0  0  0  0  0  0  0  0  0
    2.0237    8.0649   -1.3817 H   0  0  0  0  0  0  0  0  0  0  0  0
    2.0003    9.2959   -0.0588 H   0  0  0  0  0  0  0  0  0  0  0  0
   -0.0820    8.1032   -0.0378 H   0  0  0  0  0  0  0  0  0  0  0  0
   -0.4550    9.0190   -2.7410 H   0  0  0  0  0  0  0  0  0  0  0  0
   -0.8926    9.8829    1.6802 H   0  0  0  0  0  0  0  0  0  0  0  0
    0.7579   10.3495    1.1465 H   0  0  0  0  0  0  0  0  0  0  0  0
   -0.5636   11.5662    1.1465 H   0  0  0  0  0  0  0  0  0  0  0  0
   -2.5622    9.7409    0.5571 H   0  0  0  0  0  0  0  0  0  0  0  0
   -2.7337   10.6225   -0.9985 H   0  0  0  0  0  0  0  0  0  0  0  0
   -2.3829    8.8608   -0.9985 H   0  0  0  0  0  0  0  0  0  0  0  0
    1.6169   11.0252   -4.1083 H   0  0  0  0  0  0  0  0  0  0  0  0
    0.7444   12.5078   -4.6251 H   0  0  0  0  0  0  0  0  0  0  0  0
    2.5404   12.4766   -4.6251 H   0  0  0  0  0  0  0  0  0  0  0  0
    3.6789   12.1927   -2.0072 H   0  0  0  0  0  0  0  0  0  0  0  0
    3.4866   13.5420   -3.2630 H   0  0  0  0  0  0  0  0  0  0  0  0
    3.0932   13.7372   -0.2641 H   0  0  0  0  0  0  0  0  0  0  0  0
    4.3568   14.5227   -1.2906 H   0  0  0  0  0  0  0  0  0  0  0  0
    3.3553   16.9226   -2.6950 H   0  0  0  0  0  0  0  0  0  0  0  0
    3.3994   15.2899   -3.4428 H   0  0  0  0  0  0  0  0  0  0  0  0
    1.8730   16.2368   -3.4428 H   0  0  0  0  0  0  0  0  0  0  0  0
  1  2  1  0
  2  3  1  0
  3  4  1  0
  4  5  1  0
  5  6  1  0
  6  7  1  0
  7  8  1  0
  7  9  1  0
  2 10  1  0
 10 11  1  0
 11 12  1  0
 12 13  1  0
 13 14  1  1
 13 15  1  0
 15 16  1  0
 16 17  1  0
 17 18  2  0
 18 19  1  0
 19 20  1  0
 20 21  1  0
 21 22  1  0
 22 23  1  0
 22 24  1  0
 24 25  1  0
 24 26  1  0
 19 27  1  0
 27 28  1  6
 27 29  1  0
 29 30  1  0
 30 31  1  0
 31 32  1  6
  7  5  1  0
 31 10  1  0
 31 13  1  0
 27 15  1  0
 24 18  1  0
  1 33  1  0
  1 34  1  0
  1 35  1  0
  2 36  1  1
  3 37  1  0
  3 38  1  0
  4 39  1  0
  4 40  1  0
  5 41  1  6
  8 42  1  0
  8 43  1  0
  8 44  1  0
  9 45  1  0
  9 46  1  0
  9 47  1  0
 10 48  1  1
 11 49  1  0
 11 50  1  0
 12 51  1  0
 12 52  1  0
 14 53  1  0
 14 54  1  0
 14 55  1  0
 15 56  1  6
 16 57  1  0
 16 58  1  0
 17 59  1  0
 19 60  1  1
 20 61  1  0
 20 62  1  0
 21 63  1  0
 21 64  1  0
 22 65  1  1
 23 66  1  0
 25 67  1  0
 25 68  1  0
 25 69  1  0
 26 70  1  0
 26 71  1  0
 26 72  1  0
 28 73  1  0
 28 74  1  0
 28 75  1  0
 29 76  1  0
 29 77  1  0
 30 78  1  0
 30 79  1  0
 32 80  1  0
 32 81  1  0
 32 82  1  0
M  END
>  <meeko>  (3) 
{"is_sidechain": [false], "intermolecular_energy": 2.731, "internal_energy": -0.839}

$$$$
EPH_relaxed_0001_pdb2pqr_Repair_158_r2_0001_out
     RDKit          3D

 82 86  0  0  0  0  0  0  0  0999 V2000
    2.1530   18.4820   -1.6760 C   0  0  0  0  0  0  0  0  0  0  0  0
    2.0040   17.3880   -0.6140 C   0  0  2  0  0  0  0  0  0  0  0  0
    3.3690   16.8910   -0.0970 C   0  0  0  0  0  0  0  0  0  0  0  0
    4.3020   18.0170    0.3580 C   0  0  0  0  0  0  0  0  0  0  0  0
    3.8630   18.6060    1.6640 C   0  0  2  0  0  0  0  0  0  0  0  0
    4.1410   20.0040    1.8140 O   0  0  0  0  0  0  0  0  0  0  0  0
    4.8280   19.1220    2.7150 C   0  0  0  0  0  0  0  0  0  0  0  0
    6.3090   19.0720    2.5070 C   0  0  0  0  0  0  0  0  0  0  0  0
    4.3570   19.2210    4.1330 C   0  0  0  0  0  0  0  0  0  0  0  0
    1.2050   16.2200   -1.1800 C   0  0  1  0  0  0  0  0  0  0  0  0
    0.6180   16.5230   -2.5840 C   0  0  0  0  0  0  0  0  0  0  0  0
    0.6500   15.1920   -3.3790 C   0  0  0  0  0  0  0  0  0  0  0  0
    0.9380   14.1080   -2.3130 C   0  0  1  0  0  0  0  0  0  0  0  0
   -0.4440   13.8230   -1.6470 C   0  0  0  0  0  0  0  0  0  0  0  0
    1.6130   12.7950   -2.8280 C   0  0  2  0  0  0  0  0  0  0  0  0
    0.7820   11.9890   -3.8410 C   0  0  0  0  0  0  0  0  0  0  0  0
   -0.1220   10.9590   -3.2480 C   0  0  0  0  0  0  0  0  0  0  0  0
   -0.0570   10.4940   -1.9870 C   0  0  0  0  0  0  0  0  0  0  0  0
    1.0650   10.9390   -1.0400 C   0  0  1  0  0  0  0  0  0  0  0  0
    1.6580    9.7000   -0.3210 C   0  0  0  0  0  0  0  0  0  0  0  0
    0.5920    8.8680    0.3870 C   0  0  0  0  0  0  0  0  0  0  0  0
   -0.4740    8.3960   -0.5970 C   0  0  2  0  0  0  0  0  0  0  0  0
    0.1210    7.4690   -1.5110 O   0  0  0  0  0  0  0  0  0  0  0  0
   -1.1360    9.5580   -1.3890 C   0  0  0  0  0  0  0  0  0  0  0  0
   -2.0300   10.3920   -0.4380 C   0  0  0  0  0  0  0  0  0  0  0  0
   -2.0890    8.9350   -2.4450 C   0  0  0  0  0  0  0  0  0  0  0  0
    2.1850   11.8670   -1.6810 C   0  0  1  0  0  0  0  0  0  0  0  0
    3.2960   10.9880   -2.3310 C   0  0  0  0  0  0  0  0  0  0  0  0
    2.8840   12.6930   -0.5370 C   0  0  0  0  0  0  0  0  0  0  0  0
    2.2380   14.0380   -0.1560 C   0  0  0  0  0  0  0  0  0  0  0  0
    1.9570   14.8840   -1.4010 C   0  0  2  0  0  0  0  0  0  0  0  0
    3.3320   15.2060   -2.0810 C   0  0  0  0  0  0  0  0  0  0  0  0
    2.2857   19.4562   -1.1827 H   0  0  0  0  0  0  0  0  0  0  0  0
    3.0301   18.2665   -2.3039 H   0  0  0  0  0  0  0  0  0  0  0  0
    1.2502   18.5089   -2.3039 H   0  0  0  0  0  0  0  0  0  0  0  0
    1.4673   17.8266    0.2401 H   0  0  0  0  0  0  0  0  0  0  0  0
    3.1936   16.2193    0.7562 H   0  0  0  0  0  0  0  0  0  0  0  0
    3.8649   16.3821   -0.9367 H   0  0  0  0  0  0  0  0  0  0  0  0
    5.3187   17.6132    0.4728 H   0  0  0  0  0  0  0  0  0  0  0  0
    4.2772   18.8115   -0.4024 H   0  0  0  0  0  0  0  0  0  0  0  0
    3.0141   17.9087    1.7201 H   0  0  0  0  0  0  0  0  0  0  0  0
    6.8160   19.0549    3.4831 H   0  0  0  0  0  0  0  0  0  0  0  0
    6.5696   18.1645    1.9425 H   0  0  0  0  0  0  0  0  0  0  0  0
    6.6302   19.9598    1.9425 H   0  0  0  0  0  0  0  0  0  0  0  0
    5.2027   19.0432    4.8135 H   0  0  0  0  0  0  0  0  0  0  0  0
    3.9459   20.2252    4.3135 H   0  0  0  0  0  0  0  0  0  0  0  0
    3.5764   18.4673    4.3135 H   0  0  0  0  0  0  0  0  0  0  0  0
    0.4585   16.1028   -0.3806 H   0  0  0  0  0  0  0  0  0  0  0  0
   -0.4168   16.8845   -2.4920 H   0  0  0  0  0  0  0  0  0  0  0  0
    1.2009   17.3029   -3.0959 H   0  0  0  0  0  0  0  0  0  0  0  0
   -0.3180   15.0083   -3.8680 H   0  0  0  0  0  0  0  0  0  0  0  0
    1.4050   15.2017   -4.1789 H   0  0  0  0  0  0  0  0  0  0  0  0
   -0.3352   13.8454   -0.5526 H   0  0  0  0  0  0  0  0  0  0  0  0
   -1.1669   14.5910   -1.9594 H   0  0  0  0  0  0  0  0  0  0  0  0
   -0.8041   12.8317   -1.9594 H   0  0  0  0  0  0  0  0  0  0  0  0
    2.4781   13.1786   -3.3888 H   0  0  0  0  0  0  0  0  0  0  0  0
    0.1629   12.6964   -4.4122 H   0  0  0  0  0  0  0  0  0  0  0  0
    1.5062   11.4386   -4.4595 H   0  0  0  0  0  0  0  0  0  0  0  0
   -0.9078   10.5453   -3.8971 H   0  0  0  0  0  0  0  0  0  0  0  0
    0.5945   11.6073   -0.3037 H   0  0  0  0  0  0  0  0  0  0  0  0
    2.1616    9.0672   -1.0666 H   0  0  0  0  0  0  0  0  0  0  0  0
    2.3609   10.0624    0.4436 H   0  0  0  0  0  0  0  0  0  0  0  0
    1.0683    7.9911    0.8497 H   0  0  0  0  0  0  0  0  0  0  0  0
    0.1103    9.4932    1.1532 H   0  0  0  0  0  0  0  0  0  0  0  0
   -1.2747    7.9200   -0.0119 H   0  0  0  0  0  0  0  0  0  0  0  0
   -0.1330    6.5740   -1.2300 H   0  0  0  0  0  0  0  0  0  0  0  0
   -1.7760   10.1551    0.6057 H   0  0  0  0  0  0  0  0  0  0  0  0
   -1.8618   11.4633   -0.6222 H   0  0  0  0  0  0  0  0  0  0  0  0
   -3.0871   10.1499   -0.6222 H   0  0  0  0  0  0  0  0  0  0  0  0
   -2.9043    8.4020   -1.9340 H   0  0  0  0  0  0  0  0  0  0  0  0
   -2.5103    9.7326   -3.0745 H   0  0  0  0  0  0  0  0  0  0  0  0
   -1.5274    8.2291   -3.0745 H   0  0  0  0  0  0  0  0  0  0  0  0
    3.8965   10.5129   -1.5413 H   0  0  0  0  0  0  0  0  0  0  0  0
    2.8305   10.2110   -2.9552 H   0  0  0  0  0  0  0  0  0  0  0  0
    3.9450   11.6197   -2.9552 H   0  0  0  0  0  0  0  0  0  0  0  0
    2.8995   12.0641    0.3653 H   0  0  0  0  0  0  0  0  0  0  0  0
    3.8757   12.9533   -0.9354 H   0  0  0  0  0  0  0  0  0  0  0  0
    1.2910   13.8461    0.3698 H   0  0  0  0  0  0  0  0  0  0  0  0
    2.9341   14.5898    0.4929 H   0  0  0  0  0  0  0  0  0  0  0  0
    4.0917   15.3839   -1.3057 H   0  0  0  0  0  0  0  0  0  0  0  0
    3.6394   14.3555   -2.7073 H   0  0  0  0  0  0  0  0  0  0  0  0
    3.2298   16.1045   -2.7073 H   0  0  0  0  0  0  0  0  0  0  0  0
  1  2  1  0
  2  3  1  0
  3  4  1  0
  4  5  1  0
  5  6  1  0
  6  7  1  0
  7  8  1  0
  7  9  1  0
  2 10  1  0
 10 11  1  0
 11 12  1  0
 12 13  1  0
 13 14  1  1
 13 15  1  0
 15 16  1  0
 16 17  1  0
 17 18  2  0
 18 19  1  0
 19 20  1  0
 20 21  1  0
 21 22  1  0
 22 23  1  0
 22 24  1  0
 24 25  1  0
 24 26  1  0
 19 27  1  0
 27 28  1  6
 27 29  1  0
 29 30  1  0
 30 31  1  0
 31 32  1  6
  7  5  1  0
 31 10  1  0
 31 13  1  0
 27 15  1  0
 24 18  1  0
  1 33  1  0
  1 34  1  0
  1 35  1  0
  2 36  1  1
  3 37  1  0
  3 38  1  0
  4 39  1  0
  4 40  1  0
  5 41  1  1
  8 42  1  0
  8 43  1  0
  8 44  1  0
  9 45  1  0
  9 46  1  0
  9 47  1  0
 10 48  1  1
 11 49  1  0
 11 50  1  0
 12 51  1  0
 12 52  1  0
 14 53  1  0
 14 54  1  0
 14 55  1  0
 15 56  1  6
 16 57  1  0
 16 58  1  0
 17 59  1  0
 19 60  1  1
 20 61  1  0
 20 62  1  0
 21 63  1  0
 21 64  1  0
 22 65  1  1
 23 66  1  0
 25 67  1  0
 25 68  1  0
 25 69  1  0
 26 70  1  0
 26 71  1  0
 26 72  1  0
 28 73  1  0
 28 74  1  0
 28 75  1  0
 29 76  1  0
 29 77  1  0
 30 78  1  0
 30 79  1  0
 32 80  1  0
 32 81  1  0
 32 82  1  0
M  END
>  <meeko>  (4) 
{"is_sidechain": [false], "intermolecular_energy": 2.731, "internal_energy": -0.839}

$$$$
EPH_relaxed_0001_pdb2pqr_Repair_158_r2_0001_out
     RDKit          3D

 82 86  0  0  0  0  0  0  0  0999 V2000
   -1.5840    8.7230   -1.9210 C   0  0  0  0  0  0  0  0  0  0  0  0
   -1.9990    9.1900   -0.5230 C   0  0  2  0  0  0  0  0  0  0  0  0
   -3.5070    9.5010   -0.4400 C   0  0  0  0  0  0  0  0  0  0  0  0
   -4.3880    8.2530   -0.3360 C   0  0  0  0  0  0  0  0  0  0  0  0
   -5.0930    7.9630   -1.6270 C   0  0  2  0  0  0  0  0  0  0  0  0
   -6.3050    8.7020   -1.8260 O   0  0  0  0  0  0  0  0  0  0  0  0
   -6.4440    7.2770   -1.7070 C   0  0  0  0  0  0  0  0  0  0  0  0
   -7.1700    6.8370   -0.4750 C   0  0  0  0  0  0  0  0  0  0  0  0
   -6.8280    6.6000   -2.9860 C   0  0  0  0  0  0  0  0  0  0  0  0
   -1.1910   10.4190   -0.1240 C   0  0  1  0  0  0  0  0  0  0  0  0
   -0.2150   10.1370    1.0480 C   0  0  0  0  0  0  0  0  0  0  0  0
    1.0500   10.9970    0.7940 C   0  0  0  0  0  0  0  0  0  0  0  0
    0.6320   11.9850   -0.3200 C   0  0  1  0  0  0  0  0  0  0  0  0
   -0.1440   13.1190    0.4200 C   0  0  0  0  0  0  0  0  0  0  0  0
    1.7870   12.5580   -1.2040 C   0  0  2  0  0  0  0  0  0  0  0  0
    2.8300   13.4010   -0.4490 C   0  0  0  0  0  0  0  0  0  0  0  0
    2.5380   14.8630   -0.3770 C   0  0  0  0  0  0  0  0  0  0  0  0
    1.6380   15.5190   -1.1330 C   0  0  0  0  0  0  0  0  0  0  0  0
    0.8710   14.7970   -2.2470 C   0  0  1  0  0  0  0  0  0  0  0  0
    0.8910   15.6620   -3.5350 C   0  0  0  0  0  0  0  0  0  0  0  0
    0.3780   17.0790   -3.2960 C   0  0  0  0  0  0  0  0  0  0  0  0
    1.2030   17.7840   -2.2220 C   0  0  2  0  0  0  0  0  0  0  0  0
    2.5290   17.9880   -2.7200 O   0  0  0  0  0  0  0  0  0  0  0  0
    1.2630   17.0000   -0.8810 C   0  0  0  0  0  0  0  0  0  0  0  0
   -0.1240   17.0400   -0.1930 C   0  0  0  0  0  0  0  0  0  0  0  0
    2.2390   17.7480    0.0660 C   0  0  0  0  0  0  0  0  0  0  0  0
    1.2960   13.2900   -2.5180 C   0  0  1  0  0  0  0  0  0  0  0  0
    2.4860   13.2450   -3.5240 C   0  0  0  0  0  0  0  0  0  0  0  0
    0.1000   12.5350   -3.2120 C   0  0  0  0  0  0  0  0  0  0  0  0
   -0.9450   11.8880   -2.2830 C   0  0  0  0  0  0  0  0  0  0  0  0
   -0.2670   11.0420   -1.2000 C   0  0  2  0  0  0  0  0  0  0  0  0
    0.5040    9.8800   -1.9140 C   0  0  0  0  0  0  0  0  0  0  0  0
   -0.8557    7.9034   -1.8326 H   0  0  0  0  0  0  0  0  0  0  0  0
   -2.4705    8.3684   -2.4673 H   0  0  0  0  0  0  0  0  0  0  0  0
   -1.1277    9.5617   -2.4673 H   0  0  0  0  0  0  0  0  0  0  0  0
   -1.7920    8.3666    0.1765 H   0  0  0  0  0  0  0  0  0  0  0  0
   -3.6843   10.1262    0.4475 H   0  0  0  0  0  0  0  0  0  0  0  0
   -3.7819   10.0116   -1.3748 H   0  0  0  0  0  0  0  0  0  0  0  0
   -3.7564    7.3916   -0.0734 H   0  0  0  0  0  0  0  0  0  0  0  0
   -5.1491    8.4339    0.4373 H   0  0  0  0  0  0  0  0  0  0  0  0
   -4.1359    7.7688   -2.1333 H   0  0  0  0  0  0  0  0  0  0  0  0
   -6.6176    7.1718    0.4154 H   0  0  0  0  0  0  0  0  0  0  0  0
   -8.1786    7.2759   -0.4673 H   0  0  0  0  0  0  0  0  0  0  0  0
   -7.2476    5.7398   -0.4673 H   0  0  0  0  0  0  0  0  0  0  0  0
   -7.3591    5.6636   -2.7601 H   0  0  0  0  0  0  0  0  0  0  0  0
   -7.4847    7.2626   -3.5688 H   0  0  0  0  0  0  0  0  0  0  0  0
   -5.9223    6.3764   -3.5688 H   0  0  0  0  0  0  0  0  0  0  0  0
   -2.0124   11.1111    0.1131 H   0  0  0  0  0  0  0  0  0  0  0  0
   -0.6795   10.4199    2.0041 H   0  0  0  0  0  0  0  0  0  0  0  0
    0.0387    9.0680    1.1020 H   0  0  0  0  0  0  0  0  0  0  0  0
    1.3402   11.5397    1.7057 H   0  0  0  0  0  0  0  0  0  0  0  0
    1.9188   10.3867    0.5063 H   0  0  0  0  0  0  0  0  0  0  0  0
   -0.0486   12.9796    1.5070 H   0  0  0  0  0  0  0  0  0  0  0  0
    0.2760   14.0955    0.1373 H   0  0  0  0  0  0  0  0  0  0  0  0
   -1.2064   13.0811    0.1373 H   0  0  0  0  0  0  0  0  0  0  0  0
    2.3130   11.6463   -1.5235 H   0  0  0  0  0  0  0  0  0  0  0  0
    2.8972   13.0169    0.5796 H   0  0  0  0  0  0  0  0  0  0  0  0
    3.7670   13.3058   -1.0174 H   0  0  0  0  0  0  0  0  0  0  0  0
    3.1064   15.4544    0.3559 H   0  0  0  0  0  0  0  0  0  0  0  0
   -0.1621   14.6911   -1.8843 H   0  0  0  0  0  0  0  0  0  0  0  0
    1.9252   15.7192   -3.9054 H   0  0  0  0  0  0  0  0  0  0  0  0
    0.2243   15.1847   -4.2682 H   0  0  0  0  0  0  0  0  0  0  0  0
    0.4456   17.6494   -4.2341 H   0  0  0  0  0  0  0  0  0  0  0  0
   -0.6663   17.0216   -2.9553 H   0  0  0  0  0  0  0  0  0  0  0  0
    0.7088   18.7419   -2.0024 H   0  0  0  0  0  0  0  0  0  0  0  0
    3.1340   17.4590   -2.1720 H   0  0  0  0  0  0  0  0  0  0  0  0
    0.0081   17.0362    0.8990 H   0  0  0  0  0  0  0  0  0  0  0  0
   -0.6567   17.9539   -0.4947 H   0  0  0  0  0  0  0  0  0  0  0  0
   -0.7085   16.1583   -0.4947 H   0  0  0  0  0  0  0  0  0  0  0  0
    1.9673   17.5398    1.1114 H   0  0  0  0  0  0  0  0  0  0  0  0
    3.2670   17.4043   -0.1211 H   0  0  0  0  0  0  0  0  0  0  0  0
    2.1744   18.8300   -0.1211 H   0  0  0  0  0  0  0  0  0  0  0  0
    3.4347   13.2091   -2.9684 H   0  0  0  0  0  0  0  0  0  0  0  0
    2.3976   12.3496   -4.1567 H   0  0  0  0  0  0  0  0  0  0  0  0
    2.4654   14.1446   -4.1567 H   0  0  0  0  0  0  0  0  0  0  0  0
   -0.4258   13.2602   -3.8505 H   0  0  0  0  0  0  0  0  0  0  0  0
    0.5635   11.6965   -3.7524 H   0  0  0  0  0  0  0  0  0  0  0  0
   -1.5383   12.6797   -1.8023 H   0  0  0  0  0  0  0  0  0  0  0  0
   -1.5924   11.2336   -2.8852 H   0  0  0  0  0  0  0  0  0  0  0  0
    0.9458    9.2142   -1.1580 H   0  0  0  0  0  0  0  0  0  0  0  0
   -0.1946    9.3084   -2.5427 H   0  0  0  0  0  0  0  0  0  0  0  0
    1.3022   10.3015   -2.5427 H   0  0  0  0  0  0  0  0  0  0  0  0
  1  2  1  0
  2  3  1  0
  3  4  1  0
  4  5  1  0
  5  6  1  0
  6  7  1  0
  7  8  1  0
  7  9  1  0
  2 10  1  0
 10 11  1  0
 11 12  1  0
 12 13  1  0
 13 14  1  1
 13 15  1  0
 15 16  1  0
 16 17  1  0
 17 18  2  0
 18 19  1  0
 19 20  1  0
 20 21  1  0
 21 22  1  0
 22 23  1  0
 22 24  1  0
 24 25  1  0
 24 26  1  0
 19 27  1  0
 27 28  1  6
 27 29  1  0
 29 30  1  0
 30 31  1  0
 31 32  1  6
  7  5  1  0
 31 10  1  0
 31 13  1  0
 27 15  1  0
 24 18  1  0
  1 33  1  0
  1 34  1  0
  1 35  1  0
  2 36  1  1
  3 37  1  0
  3 38  1  0
  4 39  1  0
  4 40  1  0
  5 41  1  6
  8 42  1  0
  8 43  1  0
  8 44  1  0
  9 45  1  0
  9 46  1  0
  9 47  1  0
 10 48  1  1
 11 49  1  0
 11 50  1  0
 12 51  1  0
 12 52  1  0
 14 53  1  0
 14 54  1  0
 14 55  1  0
 15 56  1  6
 16 57  1  0
 16 58  1  0
 17 59  1  0
 19 60  1  1
 20 61  1  0
 20 62  1  0
 21 63  1  0
 21 64  1  0
 22 65  1  1
 23 66  1  0
 25 67  1  0
 25 68  1  0
 25 69  1  0
 26 70  1  0
 26 71  1  0
 26 72  1  0
 28 73  1  0
 28 74  1  0
 28 75  1  0
 29 76  1  0
 29 77  1  0
 30 78  1  0
 30 79  1  0
 32 80  1  0
 32 81  1  0
 32 82  1  0
M  END
>  <meeko>  (5) 
{"is_sidechain": [false], "intermolecular_energy": 2.731, "internal_energy": -0.839}

$$$$
EPH_relaxed_0001_pdb2pqr_Repair_158_r2_0001_out
     RDKit          3D

 82 86  0  0  0  0  0  0  0  0999 V2000
    1.7330   17.7500   -2.6630 C   0  0  0  0  0  0  0  0  0  0  0  0
    3.0450   17.0790   -2.2440 C   0  0  2  0  0  0  0  0  0  0  0  0
    4.2450   17.5870   -3.0670 C   0  0  0  0  0  0  0  0  0  0  0  0
    5.5760   17.5350   -2.3110 C   0  0  0  0  0  0  0  0  0  0  0  0
    6.7180   17.2000   -3.2210 C   0  0  2  0  0  0  0  0  0  0  0  0
    7.5920   16.1750   -2.7320 O   0  0  0  0  0  0  0  0  0  0  0  0
    8.1700   17.4820   -2.8810 C   0  0  0  0  0  0  0  0  0  0  0  0
    8.5570   18.1270   -1.5880 C   0  0  0  0  0  0  0  0  0  0  0  0
    9.1610   17.5790   -3.9990 C   0  0  0  0  0  0  0  0  0  0  0  0
    2.9210   15.5660   -2.3820 C   0  0  1  0  0  0  0  0  0  0  0  0
    4.2910   14.8730   -2.6120 C   0  0  0  0  0  0  0  0  0  0  0  0
    4.2280   13.5050   -1.8860 C   0  0  0  0  0  0  0  0  0  0  0  0
    2.7310   13.3110   -1.5490 C   0  0  1  0  0  0  0  0  0  0  0  0
    2.0880   12.7820   -2.8690 C   0  0  0  0  0  0  0  0  0  0  0  0
    2.4110   12.3770   -0.3360 C   0  0  2  0  0  0  0  0  0  0  0  0
    2.8600   10.9150   -0.5020 C   0  0  0  0  0  0  0  0  0  0  0  0
    1.8490   10.0020   -1.1120 C   0  0  0  0  0  0  0  0  0  0  0  0
    0.5360   10.2690   -1.2490 C   0  0  0  0  0  0  0  0  0  0  0  0
   -0.0700   11.5570   -0.6770 C   0  0  1  0  0  0  0  0  0  0  0  0
   -1.3780   11.2190    0.0860 C   0  0  0  0  0  0  0  0  0  0  0  0
   -2.3700   10.4380   -0.7710 C   0  0  0  0  0  0  0  0  0  0  0  0
   -1.7500    9.1370   -1.2730 C   0  0  2  0  0  0  0  0  0  0  0  0
   -1.5210    8.2740   -0.1550 O   0  0  0  0  0  0  0  0  0  0  0  0
   -0.4200    9.3510   -2.0490 C   0  0  0  0  0  0  0  0  0  0  0  0
   -0.7160   10.0260   -3.4110 C   0  0  0  0  0  0  0  0  0  0  0  0
    0.1720    7.9530   -2.3760 C   0  0  0  0  0  0  0  0  0  0  0  0
    0.9160   12.4680    0.1750 C   0  0  1  0  0  0  0  0  0  0  0  0
    0.9240   11.9970    1.6620 C   0  0  0  0  0  0  0  0  0  0  0  0
    0.3740   13.9460    0.1800 C   0  0  0  0  0  0  0  0  0  0  0  0
    0.8220   14.8540   -0.9810 C   0  0  0  0  0  0  0  0  0  0  0  0
    2.3400   14.7870   -1.1750 C   0  0  2  0  0  0  0  0  0  0  0  0
    3.0140   15.3340    0.1290 C   0  0  0  0  0  0  0  0  0  0  0  0
    1.1665   18.0397   -1.7657 H   0  0  0  0  0  0  0  0  0  0  0  0
    1.9542   18.6457   -3.2621 H   0  0  0  0  0  0  0  0  0  0  0  0
    1.1363   17.0464   -3.2621 H   0  0  0  0  0  0  0  0  0  0  0  0
    3.2313   17.3425   -1.1924 H   0  0  0  0  0  0  0  0  0  0  0  0
    4.3343   16.9660   -3.9705 H   0  0  0  0  0  0  0  0  0  0  0  0
    4.0496   18.6437   -3.3018 H   0  0  0  0  0  0  0  0  0  0  0  0
    5.7631   18.5165   -1.8508 H   0  0  0  0  0  0  0  0  0  0  0  0
    5.5051   16.7477   -1.5460 H   0  0  0  0  0  0  0  0  0  0  0  0
    6.1097   17.4313   -4.1078 H   0  0  0  0  0  0  0  0  0  0  0  0
    8.1906   17.5164   -0.7496 H   0  0  0  0  0  0  0  0  0  0  0  0
    9.6526   18.2074   -1.5318 H   0  0  0  0  0  0  0  0  0  0  0  0
    8.1123   19.1315   -1.5318 H   0  0  0  0  0  0  0  0  0  0  0  0
   10.1745   17.6782   -3.5830 H   0  0  0  0  0  0  0  0  0  0  0  0
    9.1058   16.6712   -4.6177 H   0  0  0  0  0  0  0  0  0  0  0  0
    8.9308   18.4589   -4.6177 H   0  0  0  0  0  0  0  0  0  0  0  0
    2.2261   15.5147   -3.2331 H   0  0  0  0  0  0  0  0  0  0  0  0
    4.4637   14.7231   -3.6880 H   0  0  0  0  0  0  0  0  0  0  0  0
    5.1152   15.4889   -2.2230 H   0  0  0  0  0  0  0  0  0  0  0  0
    4.5855   12.6993   -2.5440 H   0  0  0  0  0  0  0  0  0  0  0  0
    4.8644   13.4789   -0.9891 H   0  0  0  0  0  0  0  0  0  0  0  0
    1.2596   12.1004   -2.6258 H   0  0  0  0  0  0  0  0  0  0  0  0
    1.7050   13.6299   -3.4558 H   0  0  0  0  0  0  0  0  0  0  0  0
    2.8462   12.2428   -3.4558 H   0  0  0  0  0  0  0  0  0  0  0  0
    3.0462   12.7960    0.4584 H   0  0  0  0  0  0  0  0  0  0  0  0
    3.7557   10.9051   -1.1405 H   0  0  0  0  0  0  0  0  0  0  0  0
    3.0388   10.5347    0.5146 H   0  0  0  0  0  0  0  0  0  0  0  0
    2.2063    9.0292   -1.4807 H   0  0  0  0  0  0  0  0  0  0  0  0
   -0.2974   12.1972   -1.5421 H   0  0  0  0  0  0  0  0  0  0  0  0
   -1.1246   10.6158    0.9703 H   0  0  0  0  0  0  0  0  0  0  0  0
   -1.8555   12.1692    0.3674 H   0  0  0  0  0  0  0  0  0  0  0  0
   -3.2600   10.2038   -0.1685 H   0  0  0  0  0  0  0  0  0  0  0  0
   -2.6452   11.0542   -1.6397 H   0  0  0  0  0  0  0  0  0  0  0  0
   -2.4586    8.6869   -1.9838 H   0  0  0  0  0  0  0  0  0  0  0  0
   -0.8550    8.6980    0.4130 H   0  0  0  0  0  0  0  0  0  0  0  0
   -1.1524   11.0211   -3.2399 H   0  0  0  0  0  0  0  0  0  0  0  0
    0.2196   10.1289   -3.9803 H   0  0  0  0  0  0  0  0  0  0  0  0
   -1.4255    9.4075   -3.9803 H   0  0  0  0  0  0  0  0  0  0  0  0
    0.3969    7.4218   -1.4394 H   0  0  0  0  0  0  0  0  0  0  0  0
   -0.5578    7.3732   -2.9601 H   0  0  0  0  0  0  0  0  0  0  0  0
    1.0962    8.0737   -2.9601 H   0  0  0  0  0  0  0  0  0  0  0  0
    0.9091   12.8748    2.3247 H   0  0  0  0  0  0  0  0  0  0  0  0
    0.0363   11.3768    1.8549 H   0  0  0  0  0  0  0  0  0  0  0  0
    1.8323   11.4073    1.8549 H   0  0  0  0  0  0  0  0  0  0  0  0
   -0.7247   13.8976    0.1597 H   0  0  0  0  0  0  0  0  0  0  0  0
    0.7986   14.4052    1.0849 H   0  0  0  0  0  0  0  0  0  0  0  0
    0.3261   14.5259   -1.9064 H   0  0  0  0  0  0  0  0  0  0  0  0
    0.5443   15.8913   -0.7424 H   0  0  0  0  0  0  0  0  0  0  0  0
    2.5014   14.9180    1.0089 H   0  0  0  0  0  0  0  0  0  0  0  0
    4.0729   15.0367    0.1469 H   0  0  0  0  0  0  0  0  0  0  0  0
    2.9410   16.4314    0.1469 H   0  0  0  0  0  0  0  0  0  0  0  0
  1  2  1  0
  2  3  1  0
  3  4  1  0
  4  5  1  0
  5  6  1  0
  6  7  1  0
  7  8  1  0
  7  9  1  0
  2 10  1  0
 10 11  1  0
 11 12  1  0
 12 13  1  0
 13 14  1  6
 13 15  1  0
 15 16  1  0
 16 17  1  0
 17 18  2  0
 18 19  1  0
 19 20  1  0
 20 21  1  0
 21 22  1  0
 22 23  1  0
 22 24  1  0
 24 25  1  0
 24 26  1  0
 19 27  1  0
 27 28  1  1
 27 29  1  0
 29 30  1  0
 30 31  1  0
 31 32  1  1
  7  5  1  0
 31 10  1  0
 31 13  1  0
 27 15  1  0
 24 18  1  0
  1 33  1  0
  1 34  1  0
  1 35  1  0
  2 36  1  1
  3 37  1  0
  3 38  1  0
  4 39  1  0
  4 40  1  0
  5 41  1  6
  8 42  1  0
  8 43  1  0
  8 44  1  0
  9 45  1  0
  9 46  1  0
  9 47  1  0
 10 48  1  6
 11 49  1  0
 11 50  1  0
 12 51  1  0
 12 52  1  0
 14 53  1  0
 14 54  1  0
 14 55  1  0
 15 56  1  1
 16 57  1  0
 16 58  1  0
 17 59  1  0
 19 60  1  6
 20 61  1  0
 20 62  1  0
 21 63  1  0
 21 64  1  0
 22 65  1  6
 23 66  1  0
 25 67  1  0
 25 68  1  0
 25 69  1  0
 26 70  1  0
 26 71  1  0
 26 72  1  0
 28 73  1  0
 28 74  1  0
 28 75  1  0
 29 76  1  0
 29 77  1  0
 30 78  1  0
 30 79  1  0
 32 80  1  0
 32 81  1  0
 32 82  1  0
M  END
>  <meeko>  (6) 
{"is_sidechain": [false], "intermolecular_energy": 2.731, "internal_energy": -0.839}

$$$$
EPH_relaxed_0001_pdb2pqr_Repair_158_r2_0001_out
     RDKit          3D

 82 86  0  0  0  0  0  0  0  0999 V2000
   -1.0450    7.9280   -1.1910 C   0  0  0  0  0  0  0  0  0  0  0  0
   -1.1730    9.0580   -0.1660 C   0  0  2  0  0  0  0  0  0  0  0  0
   -2.5020    9.8260   -0.3110 C   0  0  0  0  0  0  0  0  0  0  0  0
   -3.7410    8.9720   -0.0270 C   0  0  0  0  0  0  0  0  0  0  0  0
   -4.4830    8.6360   -1.2860 C   0  0  2  0  0  0  0  0  0  0  0  0
   -5.8990    8.8510   -1.2220 O   0  0  0  0  0  0  0  0  0  0  0  0
   -5.4710    7.4900   -1.3940 C   0  0  0  0  0  0  0  0  0  0  0  0
   -5.7710    6.6050   -0.2250 C   0  0  0  0  0  0  0  0  0  0  0  0
   -5.7720    6.9310   -2.7490 C   0  0  0  0  0  0  0  0  0  0  0  0
    0.0020   10.0190   -0.3020 C   0  0  1  0  0  0  0  0  0  0  0  0
    1.3680    9.2860   -0.3770 C   0  0  0  0  0  0  0  0  0  0  0  0
    2.2650   10.1100   -1.3350 C   0  0  0  0  0  0  0  0  0  0  0  0
    1.5150   11.4510   -1.5160 C   0  0  1  0  0  0  0  0  0  0  0  0
    1.8800   12.2880   -0.2510 C   0  0  0  0  0  0  0  0  0  0  0  0
    1.8130   12.2370   -2.8340 C   0  0  2  0  0  0  0  0  0  0  0  0
    3.2720   12.6970   -3.0040 C   0  0  0  0  0  0  0  0  0  0  0  0
    3.5800   14.0520   -2.4580 C   0  0  0  0  0  0  0  0  0  0  0  0
    2.6700   14.9820   -2.1130 C   0  0  0  0  0  0  0  0  0  0  0  0
    1.1730   14.7460   -2.3530 C   0  0  1  0  0  0  0  0  0  0  0  0
    0.5470   16.0100   -2.9980 C   0  0  0  0  0  0  0  0  0  0  0  0
    0.8160   17.2750   -2.1890 C   0  0  0  0  0  0  0  0  0  0  0  0
    2.3150   17.5070   -2.0220 C   0  0  2  0  0  0  0  0  0  0  0  0
    2.8820   17.8010   -3.3030 O   0  0  0  0  0  0  0  0  0  0  0  0
    3.0560   16.2960   -1.3890 C   0  0  0  0  0  0  0  0  0  0  0  0
    2.6580   16.1640    0.1020 C   0  0  0  0  0  0  0  0  0  0  0  0
    4.5770   16.6040   -1.4070 C   0  0  0  0  0  0  0  0  0  0  0  0
    0.7970   13.4130   -3.1310 C   0  0  1  0  0  0  0  0  0  0  0  0
    0.8440   13.6640   -4.6700 C   0  0  0  0  0  0  0  0  0  0  0  0
   -0.6890   13.0200   -2.7910 C   0  0  0  0  0  0  0  0  0  0  0  0
   -0.9070   12.1430   -1.5430 C   0  0  0  0  0  0  0  0  0  0  0  0
    0.0320   10.9320   -1.5530 C   0  0  2  0  0  0  0  0  0  0  0  0
   -0.3270   10.0590   -2.8030 C   0  0  0  0  0  0  0  0  0  0  0  0
   -0.9362    6.9674   -0.6661 H   0  0  0  0  0  0  0  0  0  0  0  0
   -1.9459    7.9012   -1.8217 H   0  0  0  0  0  0  0  0  0  0  0  0
   -0.1610    8.1034   -1.8217 H   0  0  0  0  0  0  0  0  0  0  0  0
   -1.1643    8.5999    0.8341 H   0  0  0  0  0  0  0  0  0  0  0  0
   -2.4936   10.6707    0.3936 H   0  0  0  0  0  0  0  0  0  0  0  0
   -2.5710   10.1539   -1.3587 H   0  0  0  0  0  0  0  0  0  0  0  0
   -3.4260    8.0380    0.4613 H   0  0  0  0  0  0  0  0  0  0  0  0
   -4.4138    9.5495    0.6240 H   0  0  0  0  0  0  0  0  0  0  0  0
   -3.6177    8.9245   -1.9009 H   0  0  0  0  0  0  0  0  0  0  0  0
   -5.5844    7.1554    0.7090 H   0  0  0  0  0  0  0  0  0  0  0  0
   -6.8251    6.2929   -0.2624 H   0  0  0  0  0  0  0  0  0  0  0  0
   -5.1239    5.7162   -0.2624 H   0  0  0  0  0  0  0  0  0  0  0  0
   -6.2910    5.9672   -2.6410 H   0  0  0  0  0  0  0  0  0  0  0  0
   -6.4139    7.6333   -3.3010 H   0  0  0  0  0  0  0  0  0  0  0  0
   -4.8323    6.7816   -3.3010 H   0  0  0  0  0  0  0  0  0  0  0  0
   -0.1497   10.6252    0.6032 H   0  0  0  0  0  0  0  0  0  0  0  0
    1.8263    9.2357    0.6217 H   0  0  0  0  0  0  0  0  0  0  0  0
    1.2439    8.2553   -0.7406 H   0  0  0  0  0  0  0  0  0  0  0  0
    3.2572   10.2770   -0.8903 H   0  0  0  0  0  0  0  0  0  0  0  0
    2.4359    9.5954   -2.2921 H   0  0  0  0  0  0  0  0  0  0  0  0
    1.6297   11.7139    0.6533 H   0  0  0  0  0  0  0  0  0  0  0  0
    2.9571   12.5111   -0.2572 H   0  0  0  0  0  0  0  0  0  0  0  0
    1.3106   13.2291   -0.2572 H   0  0  0  0  0  0  0  0  0  0  0  0
    1.6497   11.4718   -3.6072 H   0  0  0  0  0  0  0  0  0  0  0  0
    3.9198   11.9692   -2.4933 H   0  0  0  0  0  0  0  0  0  0  0  0
    3.4480   12.7580   -4.0881 H   0  0  0  0  0  0  0  0  0  0  0  0
    4.6406   14.3125   -2.3265 H   0  0  0  0  0  0  0  0  0  0  0  0
    0.7291   14.5744   -1.3613 H   0  0  0  0  0  0  0  0  0  0  0  0
    0.9710   16.1387   -4.0048 H   0  0  0  0  0  0  0  0  0  0  0  0
   -0.5424   15.8618   -3.0329 H   0  0  0  0  0  0  0  0  0  0  0  0
    0.3743   18.1368   -2.7108 H   0  0  0  0  0  0  0  0  0  0  0  0
    0.3658   17.1568   -1.1923 H   0  0  0  0  0  0  0  0  0  0  0  0
    2.4423   18.3507   -1.3278 H   0  0  0  0  0  0  0  0  0  0  0  0
    3.8470   17.7200   -3.2230 H   0  0  0  0  0  0  0  0  0  0  0  0
    3.5114   16.4470    0.7357 H   0  0  0  0  0  0  0  0  0  0  0  0
    1.8072   16.8281    0.3146 H   0  0  0  0  0  0  0  0  0  0  0  0
    2.3727   15.1231    0.3146 H   0  0  0  0  0  0  0  0  0  0  0  0
    4.9481   16.6792   -0.3742 H   0  0  0  0  0  0  0  0  0  0  0  0
    5.1087   15.7953   -1.9298 H   0  0  0  0  0  0  0  0  0  0  0  0
    4.7522   17.5559   -1.9298 H   0  0  0  0  0  0  0  0  0  0  0  0
    1.0434   14.7286   -4.8620 H   0  0  0  0  0  0  0  0  0  0  0  0
    1.6437   13.0549   -5.1166 H   0  0  0  0  0  0  0  0  0  0  0  0
   -0.1219   13.3855   -5.1166 H   0  0  0  0  0  0  0  0  0  0  0  0
   -1.2549   13.9520   -2.6459 H   0  0  0  0  0  0  0  0  0  0  0  0
   -1.0251   12.4041   -3.6382 H   0  0  0  0  0  0  0  0  0  0  0  0
   -0.7105   12.7434   -0.6425 H   0  0  0  0  0  0  0  0  0  0  0  0
   -1.9459   11.7814   -1.5454 H   0  0  0  0  0  0  0  0  0  0  0  0
   -0.7258    9.0892   -2.4706 H   0  0  0  0  0  0  0  0  0  0  0  0
   -1.0843   10.5789   -3.4081 H   0  0  0  0  0  0  0  0  0  0  0  0
    0.5770    9.8958   -3.4081 H   0  0  0  0  0  0  0  0  0  0  0  0
  1  2  1  0
  2  3  1  0
  3  4  1  0
  4  5  1  0
  5  6  1  0
  6  7  1  0
  7  8  1  0
  7  9  1  0
  2 10  1  0
 10 11  1  0
 11 12  1  0
 12 13  1  0
 13 14  1  1
 13 15  1  0
 15 16  1  0
 16 17  1  0
 17 18  2  0
 18 19  1  0
 19 20  1  0
 20 21  1  0
 21 22  1  0
 22 23  1  0
 22 24  1  0
 24 25  1  0
 24 26  1  0
 19 27  1  0
 27 28  1  6
 27 29  1  0
 29 30  1  0
 30 31  1  0
 31 32  1  6
  7  5  1  0
 31 10  1  0
 31 13  1  0
 27 15  1  0
 24 18  1  0
  1 33  1  0
  1 34  1  0
  1 35  1  0
  2 36  1  1
  3 37  1  0
  3 38  1  0
  4 39  1  0
  4 40  1  0
  5 41  1  6
  8 42  1  0
  8 43  1  0
  8 44  1  0
  9 45  1  0
  9 46  1  0
  9 47  1  0
 10 48  1  1
 11 49  1  0
 11 50  1  0
 12 51  1  0
 12 52  1  0
 14 53  1  0
 14 54  1  0
 14 55  1  0
 15 56  1  6
 16 57  1  0
 16 58  1  0
 17 59  1  0
 19 60  1  1
 20 61  1  0
 20 62  1  0
 21 63  1  0
 21 64  1  0
 22 65  1  1
 23 66  1  0
 25 67  1  0
 25 68  1  0
 25 69  1  0
 26 70  1  0
 26 71  1  0
 26 72  1  0
 28 73  1  0
 28 74  1  0
 28 75  1  0
 29 76  1  0
 29 77  1  0
 30 78  1  0
 30 79  1  0
 32 80  1  0
 32 81  1  0
 32 82  1  0
M  END
>  <meeko>  (7) 
{"is_sidechain": [false], "intermolecular_energy": 2.731, "internal_energy": -0.839}

$$$$
EPH_relaxed_0001_pdb2pqr_Repair_158_r2_0001_out
     RDKit          3D

 82 86  0  0  0  0  0  0  0  0999 V2000
   -2.5400    7.6370   -3.0890 C   0  0  0  0  0  0  0  0  0  0  0  0
   -2.8420    7.8910   -1.6090 C   0  0  2  0  0  0  0  0  0  0  0  0
   -4.3530    7.8350   -1.3070 C   0  0  0  0  0  0  0  0  0  0  0  0
   -5.0650    6.6420   -1.9500 C   0  0  0  0  0  0  0  0  0  0  0  0
   -6.2780    7.0700   -2.7210 C   0  0  2  0  0  0  0  0  0  0  0  0
   -6.8430    8.3190   -2.3020 O   0  0  0  0  0  0  0  0  0  0  0  0
   -7.6660    7.1570   -2.1160 C   0  0  0  0  0  0  0  0  0  0  0  0
   -7.9150    6.8110   -0.6810 C   0  0  0  0  0  0  0  0  0  0  0  0
   -8.8500    7.1030   -3.0300 C   0  0  0  0  0  0  0  0  0  0  0  0
   -2.2770    9.2430   -1.1880 C   0  0  1  0  0  0  0  0  0  0  0  0
   -2.8180    9.7140    0.1890 C   0  0  0  0  0  0  0  0  0  0  0  0
   -1.6620   10.4770    0.8860 C   0  0  0  0  0  0  0  0  0  0  0  0
   -0.6170   10.7070   -0.2310 C   0  0  1  0  0  0  0  0  0  0  0  0
   -1.1360   11.9540   -1.0140 C   0  0  0  0  0  0  0  0  0  0  0  0
    0.8630   10.8940    0.2360 C   0  0  2  0  0  0  0  0  0  0  0  0
    1.1170   12.1230    1.1260 C   0  0  0  0  0  0  0  0  0  0  0  0
    1.4850   13.3730    0.3970 C   0  0  0  0  0  0  0  0  0  0  0  0
    1.8840   13.4410   -0.8860 C   0  0  0  0  0  0  0  0  0  0  0  0
    2.0930   12.1670   -1.7150 C   0  0  1  0  0  0  0  0  0  0  0  0
    3.4420   12.2600   -2.4760 C   0  0  0  0  0  0  0  0  0  0  0  0
    3.5530   13.5280   -3.3170 C   0  0  0  0  0  0  0  0  0  0  0  0
    3.3980   14.7730   -2.4490 C   0  0  2  0  0  0  0  0  0  0  0  0
    4.5180   14.8600   -1.5630 O   0  0  0  0  0  0  0  0  0  0  0  0
    2.0790   14.7870   -1.6270 C   0  0  0  0  0  0  0  0  0  0  0  0
    0.8750   14.9980   -2.5780 C   0  0  0  0  0  0  0  0  0  0  0  0
    2.1130   16.0250   -0.6900 C   0  0  0  0  0  0  0  0  0  0  0  0
    1.9280   10.7950   -0.9300 C   0  0  1  0  0  0  0  0  0  0  0  0
    3.2810   10.3960   -0.2660 C   0  0  0  0  0  0  0  0  0  0  0  0
    1.5850    9.6530   -1.9590 C   0  0  0  0  0  0  0  0  0  0  0  0
    0.0950    9.4390   -2.2880 C   0  0  0  0  0  0  0  0  0  0  0  0
   -0.7410    9.3470   -1.0090 C   0  0  2  0  0  0  0  0  0  0  0  0
   -0.2570    8.0880   -0.2100 C   0  0  0  0  0  0  0  0  0  0  0  0
   -1.7008    6.9312   -3.1761 H   0  0  0  0  0  0  0  0  0  0  0  0
   -3.4293    7.2113   -3.5769 H   0  0  0  0  0  0  0  0  0  0  0  0
   -2.2730    8.5861   -3.5769 H   0  0  0  0  0  0  0  0  0  0  0  0
   -2.3595    7.0895   -1.0304 H   0  0  0  0  0  0  0  0  0  0  0  0
   -4.4873    7.7733   -0.2170 H   0  0  0  0  0  0  0  0  0  0  0  0
   -4.8002    8.7447   -1.7340 H   0  0  0  0  0  0  0  0  0  0  0  0
   -4.3674    6.1370   -2.6344 H   0  0  0  0  0  0  0  0  0  0  0  0
   -5.3903    5.9635   -1.1476 H   0  0  0  0  0  0  0  0  0  0  0  0
   -5.8996    6.5837   -3.6322 H   0  0  0  0  0  0  0  0  0  0  0  0
   -7.3953    7.5332   -0.0342 H   0  0  0  0  0  0  0  0  0  0  0  0
   -8.9953    6.8474   -0.4772 H   0  0  0  0  0  0  0  0  0  0  0  0
   -7.5373    5.7982   -0.4772 H   0  0  0  0  0  0  0  0  0  0  0  0
   -9.7727    7.0609   -2.4327 H   0  0  0  0  0  0  0  0  0  0  0  0
   -8.8646    8.0014   -3.6645 H   0  0  0  0  0  0  0  0  0  0  0  0
   -8.7828    6.2070   -3.6645 H   0  0  0  0  0  0  0  0  0  0  0  0
   -2.5982    9.8526   -2.0454 H   0  0  0  0  0  0  0  0  0  0  0  0
   -3.6817   10.3806    0.0489 H   0  0  0  0  0  0  0  0  0  0  0  0
   -3.1501    8.8592    0.7965 H   0  0  0  0  0  0  0  0  0  0  0  0
   -2.0175   11.4369    1.2888 H   0  0  0  0  0  0  0  0  0  0  0  0
   -1.2465    9.9177    1.7372 H   0  0  0  0  0  0  0  0  0  0  0  0
   -1.4577   12.7271   -0.3007 H   0  0  0  0  0  0  0  0  0  0  0  0
   -0.3288   12.3519   -1.6465 H   0  0  0  0  0  0  0  0  0  0  0  0
   -1.9872   11.6617   -1.6465 H   0  0  0  0  0  0  0  0  0  0  0  0
    1.0171   10.0191    0.8847 H   0  0  0  0  0  0  0  0  0  0  0  0
    0.2003   12.3219    1.7006 H   0  0  0  0  0  0  0  0  0  0  0  0
    1.9842   11.8702    1.7538 H   0  0  0  0  0  0  0  0  0  0  0  0
    1.4248   14.3183    0.9563 H   0  0  0  0  0  0  0  0  0  0  0  0
    1.2611   12.1313   -2.4338 H   0  0  0  0  0  0  0  0  0  0  0  0
    4.2619   12.2503   -1.7427 H   0  0  0  0  0  0  0  0  0  0  0  0
    3.4998   11.4000   -3.1594 H   0  0  0  0  0  0  0  0  0  0  0  0
    4.5380   13.5505   -3.8062 H   0  0  0  0  0  0  0  0  0  0  0  0
    2.7502   13.5220   -4.0690 H   0  0  0  0  0  0  0  0  0  0  0  0
    3.3564   15.6414   -3.1230 H   0  0  0  0  0  0  0  0  0  0  0  0
    5.3080   15.0310   -2.1040 H   0  0  0  0  0  0  0  0  0  0  0  0
   -0.0373   15.1579   -1.9846 H   0  0  0  0  0  0  0  0  0  0  0  0
    1.0586   15.8777   -3.2124 H   0  0  0  0  0  0  0  0  0  0  0  0
    0.7485   14.1083   -3.2124 H   0  0  0  0  0  0  0  0  0  0  0  0
    2.1038   15.6918    0.3583 H   0  0  0  0  0  0  0  0  0  0  0  0
    3.0274   16.6054   -0.8823 H   0  0  0  0  0  0  0  0  0  0  0  0
    1.2318   16.6547   -0.8823 H   0  0  0  0  0  0  0  0  0  0  0  0
    3.1755   10.4271    0.8285 H   0  0  0  0  0  0  0  0  0  0  0  0
    3.5570    9.3782   -0.5790 H   0  0  0  0  0  0  0  0  0  0  0  0
    4.0651   11.1012   -0.5790 H   0  0  0  0  0  0  0  0  0  0  0  0
    2.1035    9.8867   -2.9006 H   0  0  0  0  0  0  0  0  0  0  0  0
    1.9093    8.7209   -1.4733 H   0  0  0  0  0  0  0  0  0  0  0  0
   -0.2649   10.2842   -2.8931 H   0  0  0  0  0  0  0  0  0  0  0  0
   -0.0094    8.4955   -2.8438 H   0  0  0  0  0  0  0  0  0  0  0  0
   -0.3335    8.2869    0.8692 H   0  0  0  0  0  0  0  0  0  0  0  0
   -0.8873    7.2246   -0.4693 H   0  0  0  0  0  0  0  0  0  0  0  0
    0.7894    7.8691   -0.4693 H   0  0  0  0  0  0  0  0  0  0  0  0
  1  2  1  0
  2  3  1  0
  3  4  1  0
  4  5  1  0
  5  6  1  0
  6  7  1  0
  7  8  1  0
  7  9  1  0
  2 10  1  0
 10 11  1  0
 11 12  1  0
 12 13  1  0
 13 14  1  6
 13 15  1  0
 15 16  1  0
 16 17  1  0
 17 18  2  0
 18 19  1  0
 19 20  1  0
 20 21  1  0
 21 22  1  0
 22 23  1  0
 22 24  1  0
 24 25  1  0
 24 26  1  0
 19 27  1  0
 27 28  1  1
 27 29  1  0
 29 30  1  0
 30 31  1  0
 31 32  1  1
  7  5  1  0
 31 10  1  0
 31 13  1  0
 27 15  1  0
 24 18  1  0
  1 33  1  0
  1 34  1  0
  1 35  1  0
  2 36  1  1
  3 37  1  0
  3 38  1  0
  4 39  1  0
  4 40  1  0
  5 41  1  6
  8 42  1  0
  8 43  1  0
  8 44  1  0
  9 45  1  0
  9 46  1  0
  9 47  1  0
 10 48  1  6
 11 49  1  0
 11 50  1  0
 12 51  1  0
 12 52  1  0
 14 53  1  0
 14 54  1  0
 14 55  1  0
 15 56  1  1
 16 57  1  0
 16 58  1  0
 17 59  1  0
 19 60  1  6
 20 61  1  0
 20 62  1  0
 21 63  1  0
 21 64  1  0
 22 65  1  6
 23 66  1  0
 25 67  1  0
 25 68  1  0
 25 69  1  0
 26 70  1  0
 26 71  1  0
 26 72  1  0
 28 73  1  0
 28 74  1  0
 28 75  1  0
 29 76  1  0
 29 77  1  0
 30 78  1  0
 30 79  1  0
 32 80  1  0
 32 81  1  0
 32 82  1  0
M  END
>  <meeko>  (8) 
{"is_sidechain": [false], "intermolecular_energy": 2.731, "internal_energy": -0.839}

$$$$
EPH_relaxed_0001_pdb2pqr_Repair_158_r2_0001_out
     RDKit          3D

 82 86  0  0  0  0  0  0  0  0999 V2000
    2.2460   17.9110   -3.3420 C   0  0  0  0  0  0  0  0  0  0  0  0
    3.4810   17.6660   -2.4690 C   0  0  2  0  0  0  0  0  0  0  0  0
    4.7890   17.7300   -3.2820 C   0  0  0  0  0  0  0  0  0  0  0  0
    6.0130   17.2150   -2.5200 C   0  0  0  0  0  0  0  0  0  0  0  0
    7.2230   17.1400   -3.4010 C   0  0  2  0  0  0  0  0  0  0  0  0
    8.2280   16.2170   -2.9600 O   0  0  0  0  0  0  0  0  0  0  0  0
    8.6020   17.6050   -2.9710 C   0  0  0  0  0  0  0  0  0  0  0  0
    8.8410   18.1810   -1.6110 C   0  0  0  0  0  0  0  0  0  0  0  0
    9.6020   17.9520   -4.0290 C   0  0  0  0  0  0  0  0  0  0  0  0
    3.3650   16.3140   -1.7740 C   0  0  1  0  0  0  0  0  0  0  0  0
    3.8610   16.3540   -0.3040 C   0  0  0  0  0  0  0  0  0  0  0  0
    2.9600   15.3800    0.4990 C   0  0  0  0  0  0  0  0  0  0  0  0
    2.2030   14.5700   -0.5800 C   0  0  1  0  0  0  0  0  0  0  0  0
    3.2100   13.4670   -1.0330 C   0  0  0  0  0  0  0  0  0  0  0  0
    0.8310   13.9580   -0.1490 C   0  0  2  0  0  0  0  0  0  0  0  0
    0.9060   12.9240    0.9880 C   0  0  0  0  0  0  0  0  0  0  0  0
    1.0820   11.5070    0.5500 C   0  0  0  0  0  0  0  0  0  0  0  0
    0.8910   11.0460   -0.7000 C   0  0  0  0  0  0  0  0  0  0  0  0
    0.3620   11.9660   -1.8070 C   0  0  1  0  0  0  0  0  0  0  0  0
   -0.7690   11.2430   -2.5860 C   0  0  0  0  0  0  0  0  0  0  0  0
   -0.3340    9.8810   -3.1170 C   0  0  0  0  0  0  0  0  0  0  0  0
    0.1300    8.9740   -1.9800 C   0  0  2  0  0  0  0  0  0  0  0  0
   -0.9930    8.6670   -1.1480 O   0  0  0  0  0  0  0  0  0  0  0  0
    1.2620    9.6020   -1.1190 C   0  0  0  0  0  0  0  0  0  0  0  0
    2.5730    9.6560   -1.9420 C   0  0  0  0  0  0  0  0  0  0  0  0
    1.5390    8.6480    0.0750 C   0  0  0  0  0  0  0  0  0  0  0  0
   -0.0510   13.4320   -1.3520 C   0  0  1  0  0  0  0  0  0  0  0  0
   -1.5300   13.4380   -0.8570 C   0  0  0  0  0  0  0  0  0  0  0  0
    0.0040   14.3920   -2.5990 C   0  0  0  0  0  0  0  0  0  0  0  0
    1.3580   15.0590   -2.9030 C   0  0  0  0  0  0  0  0  0  0  0  0
    1.9490   15.7000   -1.6430 C   0  0  2  0  0  0  0  0  0  0  0  0
    0.9680   16.8300   -1.1770 C   0  0  0  0  0  0  0  0  0  0  0  0
    1.3708   18.0846   -2.6987 H   0  0  0  0  0  0  0  0  0  0  0  0
    2.4150   18.7931   -3.9771 H   0  0  0  0  0  0  0  0  0  0  0  0
    2.0655   17.0312   -3.9771 H   0  0  0  0  0  0  0  0  0  0  0  0
    3.5203   18.4686   -1.7179 H   0  0  0  0  0  0  0  0  0  0  0  0
    4.6638   17.1216   -4.1898 H   0  0  0  0  0  0  0  0  0  0  0  0
    4.9746   18.7901   -3.5096 H   0  0  0  0  0  0  0  0  0  0  0  0
    6.2237   17.8958   -1.6821 H   0  0  0  0  0  0  0  0  0  0  0  0
    5.7895   16.2009   -2.1572 H   0  0  0  0  0  0  0  0  0  0  0  0
    6.6163   17.3572   -4.2925 H   0  0  0  0  0  0  0  0  0  0  0  0
    8.5383   17.4514   -0.8454 H   0  0  0  0  0  0  0  0  0  0  0  0
    9.9098   18.4133   -1.4938 H   0  0  0  0  0  0  0  0  0  0  0  0
    8.2506   19.1017   -1.4938 H   0  0  0  0  0  0  0  0  0  0  0  0
   10.5396   18.2774   -3.5547 H   0  0  0  0  0  0  0  0  0  0  0  0
    9.7951   17.0683   -4.6550 H   0  0  0  0  0  0  0  0  0  0  0  0
    9.2062   18.7654   -4.6550 H   0  0  0  0  0  0  0  0  0  0  0  0
    3.9775   15.7042   -2.4544 H   0  0  0  0  0  0  0  0  0  0  0  0
    4.9110   16.0307   -0.2496 H   0  0  0  0  0  0  0  0  0  0  0  0
    3.8029   17.3736    0.1048 H   0  0  0  0  0  0  0  0  0  0  0  0
    3.5705   14.7146    1.1271 H   0  0  0  0  0  0  0  0  0  0  0  0
    2.2767   15.9088    1.1797 H   0  0  0  0  0  0  0  0  0  0  0  0
    3.6495   12.9856   -0.1470 H   0  0  0  0  0  0  0  0  0  0  0  0
    2.6818   12.7135   -1.6356 H   0  0  0  0  0  0  0  0  0  0  0  0
    4.0084   13.9246   -1.6356 H   0  0  0  0  0  0  0  0  0  0  0  0
    0.3072   14.8283    0.2732 H   0  0  0  0  0  0  0  0  0  0  0  0
    1.7569   13.1888    1.6329 H   0  0  0  0  0  0  0  0  0  0  0  0
   -0.0655   12.9655    1.5022 H   0  0  0  0  0  0  0  0  0  0  0  0
    1.3940   10.7789    1.3132 H   0  0  0  0  0  0  0  0  0  0  0  0
    1.2136   12.1559   -2.4768 H   0  0  0  0  0  0  0  0  0  0  0  0
   -1.6267   11.1013   -1.9120 H   0  0  0  0  0  0  0  0  0  0  0  0
   -1.0331   11.8700   -3.4504 H   0  0  0  0  0  0  0  0  0  0  0  0
   -1.1832    9.4074   -3.6314 H   0  0  0  0  0  0  0  0  0  0  0  0
    0.5048   10.0276   -3.8133 H   0  0  0  0  0  0  0  0  0  0  0  0
    0.5490    8.0637   -2.4337 H   0  0  0  0  0  0  0  0  0  0  0  0
   -1.7170    8.3760   -1.7270 H   0  0  0  0  0  0  0  0  0  0  0  0
    3.4340    9.6915   -1.2583 H   0  0  0  0  0  0  0  0  0  0  0  0
    2.6450    8.7601   -2.5761 H   0  0  0  0  0  0  0  0  0  0  0  0
    2.5711   10.5548   -2.5761 H   0  0  0  0  0  0  0  0  0  0  0  0
    1.3821    9.1884    1.0202 H   0  0  0  0  0  0  0  0  0  0  0  0
    0.8530    7.7895    0.0252 H   0  0  0  0  0  0  0  0  0  0  0  0
    2.5781    8.2904    0.0252 H   0  0  0  0  0  0  0  0  0  0  0  0
   -1.5486   13.4381    0.2428 H   0  0  0  0  0  0  0  0  0  0  0  0
   -2.0386   14.3382   -1.2324 H   0  0  0  0  0  0  0  0  0  0  0  0
   -2.0459   12.5419   -1.2324 H   0  0  0  0  0  0  0  0  0  0  0  0
   -0.2838   13.8050   -3.4837 H   0  0  0  0  0  0  0  0  0  0  0  0
   -0.6764   15.2209   -2.3541 H   0  0  0  0  0  0  0  0  0  0  0  0
    2.0568   14.2985   -3.2814 H   0  0  0  0  0  0  0  0  0  0  0  0
    1.2003   15.8456   -3.6556 H   0  0  0  0  0  0  0  0  0  0  0  0
    0.9406   16.8615   -0.0778 H   0  0  0  0  0  0  0  0  0  0  0  0
    1.3156   17.7996   -1.5631 H   0  0  0  0  0  0  0  0  0  0  0  0
   -0.0408   16.6220   -1.5631 H   0  0  0  0  0  0  0  0  0  0  0  0
  1  2  1  0
  2  3  1  0
  3  4  1  0
  4  5  1  0
  5  6  1  0
  6  7  1  0
  7  8  1  0
  7  9  1  0
  2 10  1  0
 10 11  1  0
 11 12  1  0
 12 13  1  0
 13 14  1  6
 13 15  1  0
 15 16  1  0
 16 17  1  0
 17 18  2  0
 18 19  1  0
 19 20  1  0
 20 21  1  0
 21 22  1  0
 22 23  1  0
 22 24  1  0
 24 25  1  0
 24 26  1  0
 19 27  1  0
 27 28  1  1
 27 29  1  0
 29 30  1  0
 30 31  1  0
 31 32  1  1
  7  5  1  0
 31 10  1  0
 31 13  1  0
 27 15  1  0
 24 18  1  0
  1 33  1  0
  1 34  1  0
  1 35  1  0
  2 36  1  1
  3 37  1  0
  3 38  1  0
  4 39  1  0
  4 40  1  0
  5 41  1  6
  8 42  1  0
  8 43  1  0
  8 44  1  0
  9 45  1  0
  9 46  1  0
  9 47  1  0
 10 48  1  6
 11 49  1  0
 11 50  1  0
 12 51  1  0
 12 52  1  0
 14 53  1  0
 14 54  1  0
 14 55  1  0
 15 56  1  1
 16 57  1  0
 16 58  1  0
 17 59  1  0
 19 60  1  6
 20 61  1  0
 20 62  1  0
 21 63  1  0
 21 64  1  0
 22 65  1  6
 23 66  1  0
 25 67  1  0
 25 68  1  0
 25 69  1  0
 26 70  1  0
 26 71  1  0
 26 72  1  0
 28 73  1  0
 28 74  1  0
 28 75  1  0
 29 76  1  0
 29 77  1  0
 30 78  1  0
 30 79  1  0
 32 80  1  0
 32 81  1  0
 32 82  1  0
M  END
>  <meeko>  (9) 
{"is_sidechain": [false], "intermolecular_energy": 2.731, "internal_energy": -0.839}

$$$$
EPH_relaxed_0001_pdb2pqr_Repair_158_r2_0001_out
     RDKit          3D

 82 86  0  0  0  0  0  0  0  0999 V2000
    1.6550   18.2720   -2.6830 C   0  0  0  0  0  0  0  0  0  0  0  0
    2.3570   17.4550   -1.5960 C   0  0  2  0  0  0  0  0  0  0  0  0
    3.8100   17.9200   -1.3670 C   0  0  0  0  0  0  0  0  0  0  0  0
    4.2160   17.9670    0.1080 C   0  0  0  0  0  0  0  0  0  0  0  0
    3.2530   18.7760    0.9230 C   0  0  2  0  0  0  0  0  0  0  0  0
    3.3500   20.1940    0.7320 O   0  0  0  0  0  0  0  0  0  0  0  0
    3.6790   19.7070    2.0430 C   0  0  0  0  0  0  0  0  0  0  0  0
    5.1200   19.8760    2.4100 C   0  0  0  0  0  0  0  0  0  0  0  0
    2.6750   20.0720    3.0910 C   0  0  0  0  0  0  0  0  0  0  0  0
    2.3350   15.9760   -1.9610 C   0  0  1  0  0  0  0  0  0  0  0  0
    3.6920   15.4800   -2.5270 C   0  0  0  0  0  0  0  0  0  0  0  0
    3.8740   14.0190   -2.0390 C   0  0  0  0  0  0  0  0  0  0  0  0
    2.4840   13.6140   -1.4960 C   0  0  1  0  0  0  0  0  0  0  0  0
    1.6580   13.2220   -2.7610 C   0  0  0  0  0  0  0  0  0  0  0  0
    2.4660   12.4800   -0.4200 C   0  0  2  0  0  0  0  0  0  0  0  0
    2.9970   11.1170   -0.9000 C   0  0  0  0  0  0  0  0  0  0  0  0
    1.9690   10.2000   -1.4770 C   0  0  0  0  0  0  0  0  0  0  0  0
    0.6360   10.3390   -1.3480 C   0  0  0  0  0  0  0  0  0  0  0  0
    0.0410   11.4530   -0.4760 C   0  0  1  0  0  0  0  0  0  0  0  0
   -1.0750   10.8630    0.4260 C   0  0  0  0  0  0  0  0  0  0  0  0
   -2.1380   10.1150   -0.3730 C   0  0  0  0  0  0  0  0  0  0  0  0
   -1.5160    8.9800   -1.1800 C   0  0  2  0  0  0  0  0  0  0  0  0
   -1.0180    7.9890   -0.2760 O   0  0  0  0  0  0  0  0  0  0  0  0
   -0.3710    9.4520   -2.1200 C   0  0  0  0  0  0  0  0  0  0  0  0
   -0.9630   10.2870   -3.2820 C   0  0  0  0  0  0  0  0  0  0  0  0
    0.2640    8.1930   -2.7690 C   0  0  0  0  0  0  0  0  0  0  0  0
    1.0870   12.3280    0.3400 C   0  0  1  0  0  0  0  0  0  0  0  0
    1.4030   11.6440    1.7050 C   0  0  0  0  0  0  0  0  0  0  0  0
    0.4360   13.7200    0.6810 C   0  0  0  0  0  0  0  0  0  0  0  0
    0.5900   14.8360   -0.3700 C   0  0  0  0  0  0  0  0  0  0  0  0
    2.0480   14.9660   -0.8220 C   0  0  2  0  0  0  0  0  0  0  0  0
    2.9000   15.3820    0.4250 C   0  0  0  0  0  0  0  0  0  0  0  0
    1.0067   19.0265   -2.2134 H   0  0  0  0  0  0  0  0  0  0  0  0
    2.4081   18.7737   -3.3084 H   0  0  0  0  0  0  0  0  0  0  0  0
    1.0456   17.6031   -3.3084 H   0  0  0  0  0  0  0  0  0  0  0  0
    1.8075   17.6138   -0.6564 H   0  0  0  0  0  0  0  0  0  0  0  0
    4.4834   17.2255   -1.8906 H   0  0  0  0  0  0  0  0  0  0  0  0
    3.8833   18.9473   -1.7534 H   0  0  0  0  0  0  0  0  0  0  0  0
    4.2429   16.9408    0.5031 H   0  0  0  0  0  0  0  0  0  0  0  0
    5.2059   18.4419    0.1760 H   0  0  0  0  0  0  0  0  0  0  0  0
    2.5034   17.9723    0.8768 H   0  0  0  0  0  0  0  0  0  0  0  0
    5.2205   19.8878    3.5053 H   0  0  0  0  0  0  0  0  0  0  0  0
    5.7040   19.0402    1.9972 H   0  0  0  0  0  0  0  0  0  0  0  0
    5.4947   20.8242    1.9972 H   0  0  0  0  0  0  0  0  0  0  0  0
    3.1116   19.9133    4.0881 H   0  0  0  0  0  0  0  0  0  0  0  0
    2.3946   21.1296    2.9776 H   0  0  0  0  0  0  0  0  0  0  0  0
    1.7809   19.4414    2.9776 H   0  0  0  0  0  0  0  0  0  0  0  0
    1.5039   15.9770   -2.6816 H   0  0  0  0  0  0  0  0  0  0  0  0
    3.6786   15.5131   -3.6264 H   0  0  0  0  0  0  0  0  0  0  0  0
    4.5199   16.1172   -2.1826 H   0  0  0  0  0  0  0  0  0  0  0  0
    4.1711   13.3653   -2.8723 H   0  0  0  0  0  0  0  0  0  0  0  0
    4.6624   13.9284   -1.2772 H   0  0  0  0  0  0  0  0  0  0  0  0
    0.7046   12.7695   -2.4507 H   0  0  0  0  0  0  0  0  0  0  0  0
    1.4586   14.1215   -3.3619 H   0  0  0  0  0  0  0  0  0  0  0  0
    2.2287   12.4987   -3.3619 H   0  0  0  0  0  0  0  0  0  0  0  0
    3.1971   12.8433    0.3172 H   0  0  0  0  0  0  0  0  0  0  0  0
    3.7593   11.3015   -1.6712 H   0  0  0  0  0  0  0  0  0  0  0  0
    3.3892   10.6107   -0.0057 H   0  0  0  0  0  0  0  0  0  0  0  0
    2.3316    9.3381   -2.0564 H   0  0  0  0  0  0  0  0  0  0  0  0
   -0.3906   12.1873   -1.1721 H   0  0  0  0  0  0  0  0  0  0  0  0
   -0.6171   10.1658    1.1431 H   0  0  0  0  0  0  0  0  0  0  0  0
   -1.5699   11.7019    0.9371 H   0  0  0  0  0  0  0  0  0  0  0  0
   -2.8823    9.6973    0.3210 H   0  0  0  0  0  0  0  0  0  0  0  0
   -2.6145   10.8206   -1.0695 H   0  0  0  0  0  0  0  0  0  0  0  0
   -2.3035    8.5667   -1.8274 H   0  0  0  0  0  0  0  0  0  0  0  0
   -0.9410    7.1540   -0.7670 H   0  0  0  0  0  0  0  0  0  0  0  0
   -1.5533   11.1196   -2.8716 H   0  0  0  0  0  0  0  0  0  0  0  0
   -0.1454   10.6867   -3.8999 H   0  0  0  0  0  0  0  0  0  0  0  0
   -1.6108    9.6478   -3.8999 H   0  0  0  0  0  0  0  0  0  0  0  0
    0.6093    7.5085   -1.9802 H   0  0  0  0  0  0  0  0  0  0  0  0
   -0.4856    7.6847   -3.3934 H   0  0  0  0  0  0  0  0  0  0  0  0
    1.1183    8.4936   -3.3934 H   0  0  0  0  0  0  0  0  0  0  0  0
    1.0965   12.3074    2.5272 H   0  0  0  0  0  0  0  0  0  0  0  0
    0.8524   10.6943    1.7754 H   0  0  0  0  0  0  0  0  0  0  0  0
    2.4830   11.4477    1.7754 H   0  0  0  0  0  0  0  0  0  0  0  0
   -0.6405   13.5548    0.8355 H   0  0  0  0  0  0  0  0  0  0  0  0
    0.9790   14.0821    1.5664 H   0  0  0  0  0  0  0  0  0  0  0  0
   -0.0372   14.5983   -1.2418 H   0  0  0  0  0  0  0  0  0  0  0  0
    0.2764   15.7888    0.0815 H   0  0  0  0  0  0  0  0  0  0  0  0
    2.3576   15.1172    1.3446 H   0  0  0  0  0  0  0  0  0  0  0  0
    3.8644   14.8534    0.4030 H   0  0  0  0  0  0  0  0  0  0  0  0
    3.0763   16.4676    0.4030 H   0  0  0  0  0  0  0  0  0  0  0  0
  1  2  1  0
  2  3  1  0
  3  4  1  0
  4  5  1  0
  5  6  1  0
  6  7  1  0
  7  8  1  0
  7  9  1  0
  2 10  1  0
 10 11  1  0
 11 12  1  0
 12 13  1  0
 13 14  1  6
 13 15  1  0
 15 16  1  0
 16 17  1  0
 17 18  2  0
 18 19  1  0
 19 20  1  0
 20 21  1  0
 21 22  1  0
 22 23  1  0
 22 24  1  0
 24 25  1  0
 24 26  1  0
 19 27  1  0
 27 28  1  1
 27 29  1  0
 29 30  1  0
 30 31  1  0
 31 32  1  1
  7  5  1  0
 31 10  1  0
 31 13  1  0
 27 15  1  0
 24 18  1  0
  1 33  1  0
  1 34  1  0
  1 35  1  0
  2 36  1  1
  3 37  1  0
  3 38  1  0
  4 39  1  0
  4 40  1  0
  5 41  1  1
  8 42  1  0
  8 43  1  0
  8 44  1  0
  9 45  1  0
  9 46  1  0
  9 47  1  0
 10 48  1  6
 11 49  1  0
 11 50  1  0
 12 51  1  0
 12 52  1  0
 14 53  1  0
 14 54  1  0
 14 55  1  0
 15 56  1  1
 16 57  1  0
 16 58  1  0
 17 59  1  0
 19 60  1  6
 20 61  1  0
 20 62  1  0
 21 63  1  0
 21 64  1  0
 22 65  1  6
 23 66  1  0
 25 67  1  0
 25 68  1  0
 25 69  1  0
 26 70  1  0
 26 71  1  0
 26 72  1  0
 28 73  1  0
 28 74  1  0
 28 75  1  0
 29 76  1  0
 29 77  1  0
 30 78  1  0
 30 79  1  0
 32 80  1  0
 32 81  1  0
 32 82  1  0
M  END
>  <meeko>  (10) 
{"is_sidechain": [false], "intermolecular_energy": 2.731, "internal_energy": -0.839}

$$$$
EPH_relaxed_0001_pdb2pqr_Repair_158_r2_0001_out
     RDKit          3D

 82 86  0  0  0  0  0  0  0  0999 V2000
    0.9350    8.7170   -0.2680 C   0  0  0  0  0  0  0  0  0  0  0  0
   -0.1170    9.4740   -1.0820 C   0  0  2  0  0  0  0  0  0  0  0  0
   -0.8160    8.5680   -2.1150 C   0  0  0  0  0  0  0  0  0  0  0  0
   -2.3240    8.4270   -1.8910 C   0  0  0  0  0  0  0  0  0  0  0  0
   -2.8810    7.2320   -2.6030 C   0  0  2  0  0  0  0  0  0  0  0  0
   -3.9110    7.5290   -3.5550 O   0  0  0  0  0  0  0  0  0  0  0  0
   -4.3040    6.7370   -2.4210 C   0  0  0  0  0  0  0  0  0  0  0  0
   -5.2580    7.4280   -1.4980 C   0  0  0  0  0  0  0  0  0  0  0  0
   -4.6150    5.3130   -2.7600 C   0  0  0  0  0  0  0  0  0  0  0  0
    0.5260   10.6640   -1.7840 C   0  0  1  0  0  0  0  0  0  0  0  0
    0.1710   10.7310   -3.2930 C   0  0  0  0  0  0  0  0  0  0  0  0
    0.0660   12.2330   -3.6620 C   0  0  0  0  0  0  0  0  0  0  0  0
    0.6820   12.9760   -2.4530 C   0  0  1  0  0  0  0  0  0  0  0  0
    2.2250   12.8990   -2.6800 C   0  0  0  0  0  0  0  0  0  0  0  0
    0.2040   14.4470   -2.2290 C   0  0  2  0  0  0  0  0  0  0  0  0
    0.5410   15.4240   -3.3690 C   0  0  0  0  0  0  0  0  0  0  0  0
    1.8520   16.1270   -3.2400 C   0  0  0  0  0  0  0  0  0  0  0  0
    2.5930   16.2000   -2.1190 C   0  0  0  0  0  0  0  0  0  0  0  0
    2.0800   15.6180   -0.7960 C   0  0  1  0  0  0  0  0  0  0  0  0
    2.3060   16.6440    0.3450 C   0  0  0  0  0  0  0  0  0  0  0  0
    3.7570   17.1070    0.4350 C   0  0  0  0  0  0  0  0  0  0  0  0
    4.2130   17.7340   -0.8800 C   0  0  2  0  0  0  0  0  0  0  0  0
    3.4860   18.9480   -1.0890 O   0  0  0  0  0  0  0  0  0  0  0  0
    4.0230   16.7940   -2.1040 C   0  0  0  0  0  0  0  0  0  0  0  0
    5.0340   15.6240   -2.0240 C   0  0  0  0  0  0  0  0  0  0  0  0
    4.3870   17.5960   -3.3830 C   0  0  0  0  0  0  0  0  0  0  0  0
    0.5960   15.0480   -0.8180 C   0  0  1  0  0  0  0  0  0  0  0  0
   -0.4190   16.1950   -0.5260 C   0  0  0  0  0  0  0  0  0  0  0  0
    0.4300   14.0010    0.3460 C   0  0  0  0  0  0  0  0  0  0  0  0
    0.8060   12.5410    0.0260 C   0  0  0  0  0  0  0  0  0  0  0  0
    0.1480   12.0790   -1.2780 C   0  0  2  0  0  0  0  0  0  0  0  0
   -1.4050   12.1240   -1.0720 C   0  0  0  0  0  0  0  0  0  0  0  0
    0.7393    8.8578    0.8053 H   0  0  0  0  0  0  0  0  0  0  0  0
    0.8863    7.6455   -0.5121 H   0  0  0  0  0  0  0  0  0  0  0  0
    1.9355    9.1036   -0.5121 H   0  0  0  0  0  0  0  0  0  0  0  0
   -0.8862    9.8275   -0.3796 H   0  0  0  0  0  0  0  0  0  0  0  0
   -0.6521    8.9927   -3.1164 H   0  0  0  0  0  0  0  0  0  0  0  0
   -0.3803    7.5637   -2.0080 H   0  0  0  0  0  0  0  0  0  0  0  0
   -2.5159    8.3211   -0.8131 H   0  0  0  0  0  0  0  0  0  0  0  0
   -2.8157    9.3253   -2.2927 H   0  0  0  0  0  0  0  0  0  0  0  0
   -1.9095    6.7188   -2.5509 H   0  0  0  0  0  0  0  0  0  0  0  0
   -4.9737    7.2221   -0.4555 H   0  0  0  0  0  0  0  0  0  0  0  0
   -5.2239    8.5123   -1.6800 H   0  0  0  0  0  0  0  0  0  0  0  0
   -6.2776    7.0575   -1.6800 H   0  0  0  0  0  0  0  0  0  0  0  0
   -4.7413    4.7346   -1.8329 H   0  0  0  0  0  0  0  0  0  0  0  0
   -5.5436    5.2705   -3.3481 H   0  0  0  0  0  0  0  0  0  0  0  0
   -3.7887    4.8872   -3.3481 H   0  0  0  0  0  0  0  0  0  0  0  0
    1.5838   10.4565   -1.5649 H   0  0  0  0  0  0  0  0  0  0  0  0
    0.9596   10.2488   -3.8893 H   0  0  0  0  0  0  0  0  0  0  0  0
   -0.7736   10.2067   -3.5000 H   0  0  0  0  0  0  0  0  0  0  0  0
    0.6330   12.4479   -4.5798 H   0  0  0  0  0  0  0  0  0  0  0  0
   -0.9711   12.5429   -3.8577 H   0  0  0  0  0  0  0  0  0  0  0  0
    2.7379   12.8734   -1.7072 H   0  0  0  0  0  0  0  0  0  0  0  0
    2.4673   11.9876   -3.2463 H   0  0  0  0  0  0  0  0  0  0  0  0
    2.5568   13.7817   -3.2463 H   0  0  0  0  0  0  0  0  0  0  0  0
   -0.8910   14.3430   -2.2392 H   0  0  0  0  0  0  0  0  0  0  0  0
    0.5510   14.8564   -4.3112 H   0  0  0  0  0  0  0  0  0  0  0  0
   -0.2295   16.2084   -3.3352 H   0  0  0  0  0  0  0  0  0  0  0  0
    2.2454   16.6275   -4.1371 H   0  0  0  0  0  0  0  0  0  0  0  0
    2.6797   14.7149   -0.6097 H   0  0  0  0  0  0  0  0  0  0  0  0
    1.6666   17.5204    0.1632 H   0  0  0  0  0  0  0  0  0  0  0  0
    2.0534   16.1493    1.2944 H   0  0  0  0  0  0  0  0  0  0  0  0
    3.8478   17.8518    1.2394 H   0  0  0  0  0  0  0  0  0  0  0  0
    4.3915   16.2335    0.6457 H   0  0  0  0  0  0  0  0  0  0  0  0
    5.2926   17.9275   -0.7965 H   0  0  0  0  0  0  0  0  0  0  0  0
    2.6570   18.7210   -1.5430 H   0  0  0  0  0  0  0  0  0  0  0  0
    5.2384   15.3875   -0.9693 H   0  0  0  0  0  0  0  0  0  0  0  0
    4.6114   14.7394   -2.5229 H   0  0  0  0  0  0  0  0  0  0  0  0
    5.9705   15.9139   -2.5229 H   0  0  0  0  0  0  0  0  0  0  0  0
    4.8260   18.5632   -3.0968 H   0  0  0  0  0  0  0  0  0  0  0  0
    5.1143   17.0253   -3.9791 H   0  0  0  0  0  0  0  0  0  0  0  0
    3.4786   17.7677   -3.9791 H   0  0  0  0  0  0  0  0  0  0  0  0
   -0.5290   16.3193    0.5614 H   0  0  0  0  0  0  0  0  0  0  0  0
   -0.0494   17.1327   -0.9667 H   0  0  0  0  0  0  0  0  0  0  0  0
   -1.3947   15.9423   -0.9667 H   0  0  0  0  0  0  0  0  0  0  0  0
    1.0619   14.3315    1.1835 H   0  0  0  0  0  0  0  0  0  0  0  0
   -0.6483   13.9798    0.5626 H   0  0  0  0  0  0  0  0  0  0  0  0
    1.8986   12.4647   -0.0755 H   0  0  0  0  0  0  0  0  0  0  0  0
    0.4499   11.8992    0.8453 H   0  0  0  0  0  0  0  0  0  0  0  0
   -1.6321   12.1306    0.0043 H   0  0  0  0  0  0  0  0  0  0  0  0
   -1.8105   13.0343   -1.5379 H   0  0  0  0  0  0  0  0  0  0  0  0
   -1.8625   11.2387   -1.5379 H   0  0  0  0  0  0  0  0  0  0  0  0
  1  2  1  0
  2  3  1  0
  3  4  1  0
  4  5  1  0
  5  6  1  0
  6  7  1  0
  7  8  1  0
  7  9  1  0
  2 10  1  0
 10 11  1  0
 11 12  1  0
 12 13  1  0
 13 14  1  6
 13 15  1  0
 15 16  1  0
 16 17  1  0
 17 18  2  0
 18 19  1  0
 19 20  1  0
 20 21  1  0
 21 22  1  0
 22 23  1  0
 22 24  1  0
 24 25  1  0
 24 26  1  0
 19 27  1  0
 27 28  1  1
 27 29  1  0
 29 30  1  0
 30 31  1  0
 31 32  1  1
  7  5  1  0
 31 10  1  0
 31 13  1  0
 27 15  1  0
 24 18  1  0
  1 33  1  0
  1 34  1  0
  1 35  1  0
  2 36  1  1
  3 37  1  0
  3 38  1  0
  4 39  1  0
  4 40  1  0
  5 41  1  6
  8 42  1  0
  8 43  1  0
  8 44  1  0
  9 45  1  0
  9 46  1  0
  9 47  1  0
 10 48  1  6
 11 49  1  0
 11 50  1  0
 12 51  1  0
 12 52  1  0
 14 53  1  0
 14 54  1  0
 14 55  1  0
 15 56  1  1
 16 57  1  0
 16 58  1  0
 17 59  1  0
 19 60  1  1
 20 61  1  0
 20 62  1  0
 21 63  1  0
 21 64  1  0
 22 65  1  1
 23 66  1  0
 25 67  1  0
 25 68  1  0
 25 69  1  0
 26 70  1  0
 26 71  1  0
 26 72  1  0
 28 73  1  0
 28 74  1  0
 28 75  1  0
 29 76  1  0
 29 77  1  0
 30 78  1  0
 30 79  1  0
 32 80  1  0
 32 81  1  0
 32 82  1  0
M  END
>  <meeko>  (11) 
{"is_sidechain": [false], "intermolecular_energy": 2.731, "internal_energy": -0.839}

$$$$
EPH_relaxed_0001_pdb2pqr_Repair_158_r2_0001_out
     RDKit          3D

 82 86  0  0  0  0  0  0  0  0999 V2000
    0.4670    8.9880   -2.5300 C   0  0  0  0  0  0  0  0  0  0  0  0
    1.2410   10.1530   -3.1540 C   0  0  2  0  0  0  0  0  0  0  0  0
    2.7310   10.1380   -2.7590 C   0  0  0  0  0  0  0  0  0  0  0  0
    3.6690   10.6010   -3.8770 C   0  0  0  0  0  0  0  0  0  0  0  0
    5.0540   10.8600   -3.3670 C   0  0  2  0  0  0  0  0  0  0  0  0
    5.6540   12.0700   -3.8490 O   0  0  0  0  0  0  0  0  0  0  0  0
    6.2880   10.8450   -4.2510 C   0  0  0  0  0  0  0  0  0  0  0  0
    6.1930   10.5630   -5.7170 C   0  0  0  0  0  0  0  0  0  0  0  0
    7.6230   10.6200   -3.6120 C   0  0  0  0  0  0  0  0  0  0  0  0
    0.6070   11.4770   -2.7440 C   0  0  1  0  0  0  0  0  0  0  0  0
   -0.6460   11.2870   -1.8470 C   0  0  0  0  0  0  0  0  0  0  0  0
   -0.6560   12.4640   -0.8380 C   0  0  0  0  0  0  0  0  0  0  0  0
    0.3880   13.4620   -1.3930 C   0  0  1  0  0  0  0  0  0  0  0  0
   -0.3640   14.2490   -2.5110 C   0  0  0  0  0  0  0  0  0  0  0  0
    1.0450   14.4250   -0.3510 C   0  0  2  0  0  0  0  0  0  0  0  0
    0.0710   15.3870    0.3520 C   0  0  0  0  0  0  0  0  0  0  0  0
   -0.1230   16.7040   -0.3240 C   0  0  0  0  0  0  0  0  0  0  0  0
    0.6680   17.2130   -1.2870 C   0  0  0  0  0  0  0  0  0  0  0  0
    1.9460   16.4850   -1.7230 C   0  0  1  0  0  0  0  0  0  0  0  0
    3.1170   17.5000   -1.8070 C   0  0  0  0  0  0  0  0  0  0  0  0
    2.7920   18.6950   -2.6990 C   0  0  0  0  0  0  0  0  0  0  0  0
    1.5490   19.4260   -2.2000 C   0  0  2  0  0  0  0  0  0  0  0  0
    1.8430   20.0240   -0.9340 O   0  0  0  0  0  0  0  0  0  0  0  0
    0.3060   18.5020   -2.0660 C   0  0  0  0  0  0  0  0  0  0  0  0
   -0.1940   18.0950   -3.4740 C   0  0  0  0  0  0  0  0  0  0  0  0
   -0.8370   19.3300   -1.4210 C   0  0  0  0  0  0  0  0  0  0  0  0
    2.3240   15.1870   -0.8880 C   0  0  1  0  0  0  0  0  0  0  0  0
    3.1640   15.5840    0.3640 C   0  0  0  0  0  0  0  0  0  0  0  0
    3.2460   14.2610   -1.7660 C   0  0  0  0  0  0  0  0  0  0  0  0
    2.5390   13.2480   -2.6870 C   0  0  0  0  0  0  0  0  0  0  0  0
    1.4770   12.4570   -1.9180 C   0  0  2  0  0  0  0  0  0  0  0  0
    2.2070   11.6370   -0.8000 C   0  0  0  0  0  0  0  0  0  0  0  0
    0.5155    9.0610   -1.4335 H   0  0  0  0  0  0  0  0  0  0  0  0
   -0.5833    9.0301   -2.8542 H   0  0  0  0  0  0  0  0  0  0  0  0
    0.9129    8.0361   -2.8542 H   0  0  0  0  0  0  0  0  0  0  0  0
    1.1880   10.0378   -4.2467 H   0  0  0  0  0  0  0  0  0  0  0  0
    2.8675   10.8031   -1.8935 H   0  0  0  0  0  0  0  0  0  0  0  0
    2.9927    9.0941   -2.5316 H   0  0  0  0  0  0  0  0  0  0  0  0
    3.7142    9.8202   -4.6505 H   0  0  0  0  0  0  0  0  0  0  0  0
    3.2738   11.5414   -4.2886 H   0  0  0  0  0  0  0  0  0  0  0  0
    4.8218   10.3601   -2.4151 H   0  0  0  0  0  0  0  0  0  0  0  0
    5.8452    9.5307   -5.8700 H   0  0  0  0  0  0  0  0  0  0  0  0
    5.4808   11.2622   -6.1795 H   0  0  0  0  0  0  0  0  0  0  0  0
    7.1831   10.6887   -6.1795 H   0  0  0  0  0  0  0  0  0  0  0  0
    7.5135   10.6385   -2.5176 H   0  0  0  0  0  0  0  0  0  0  0  0
    8.0190    9.6425   -3.9244 H   0  0  0  0  0  0  0  0  0  0  0  0
    8.3175   11.4138   -3.9244 H   0  0  0  0  0  0  0  0  0  0  0  0
    0.4054   11.9006   -3.7390 H   0  0  0  0  0  0  0  0  0  0  0  0
   -1.5583   11.3069   -2.4613 H   0  0  0  0  0  0  0  0  0  0  0  0
   -0.6151   10.3193   -1.3249 H   0  0  0  0  0  0  0  0  0  0  0  0
   -1.6520   12.9287   -0.7931 H   0  0  0  0  0  0  0  0  0  0  0  0
   -0.4190   12.1383    0.1856 H   0  0  0  0  0  0  0  0  0  0  0  0
   -1.0541   14.9712   -2.0502 H   0  0  0  0  0  0  0  0  0  0  0  0
    0.3653   14.7858   -3.1355 H   0  0  0  0  0  0  0  0  0  0  0  0
   -0.9334   13.5448   -3.1355 H   0  0  0  0  0  0  0  0  0  0  0  0
    1.3923   13.7294    0.4272 H   0  0  0  0  0  0  0  0  0  0  0  0
   -0.9086   14.8910    0.4177 H   0  0  0  0  0  0  0  0  0  0  0  0
    0.5179   15.6106    1.3319 H   0  0  0  0  0  0  0  0  0  0  0  0
   -0.9853   17.3097   -0.0084 H   0  0  0  0  0  0  0  0  0  0  0  0
    1.7355   16.0733   -2.7211 H   0  0  0  0  0  0  0  0  0  0  0  0
    3.3397   17.8663   -0.7940 H   0  0  0  0  0  0  0  0  0  0  0  0
    3.9798   16.9790   -2.2476 H   0  0  0  0  0  0  0  0  0  0  0  0
    3.6445   19.3901   -2.6944 H   0  0  0  0  0  0  0  0  0  0  0  0
    2.5989   18.3299   -3.7185 H   0  0  0  0  0  0  0  0  0  0  0  0
    1.2923   20.1889   -2.9497 H   0  0  0  0  0  0  0  0  0  0  0  0
    1.6560   19.3630   -0.2460 H   0  0  0  0  0  0  0  0  0  0  0  0
   -1.0437   17.4034   -3.3756 H   0  0  0  0  0  0  0  0  0  0  0  0
   -0.5137   18.9928   -4.0233 H   0  0  0  0  0  0  0  0  0  0  0  0
    0.6203   17.5997   -4.0233 H   0  0  0  0  0  0  0  0  0  0  0  0
   -0.7580   19.2728   -0.3253 H   0  0  0  0  0  0  0  0  0  0  0  0
   -0.7547   20.3794   -1.7402 H   0  0  0  0  0  0  0  0  0  0  0  0
   -1.8085   18.9247   -1.7402 H   0  0  0  0  0  0  0  0  0  0  0  0
    2.6086   15.3215    1.2765 H   0  0  0  0  0  0  0  0  0  0  0  0
    4.1218   15.0433    0.3494 H   0  0  0  0  0  0  0  0  0  0  0  0
    3.3543   16.6673    0.3494 H   0  0  0  0  0  0  0  0  0  0  0  0
    3.8641   14.9128   -2.4009 H   0  0  0  0  0  0  0  0  0  0  0  0
    3.8094   13.6500   -1.0454 H   0  0  0  0  0  0  0  0  0  0  0  0
    2.0560   13.7894   -3.5138 H   0  0  0  0  0  0  0  0  0  0  0  0
    3.2892   12.5431   -3.0747 H   0  0  0  0  0  0  0  0  0  0  0  0
    1.8858   11.9978    0.1883 H   0  0  0  0  0  0  0  0  0  0  0  0
    1.9530   10.5716   -0.9017 H   0  0  0  0  0  0  0  0  0  0  0  0
    3.2947   11.7660   -0.9017 H   0  0  0  0  0  0  0  0  0  0  0  0
  1  2  1  0
  2  3  1  0
  3  4  1  0
  4  5  1  0
  5  6  1  0
  6  7  1  0
  7  8  1  0
  7  9  1  0
  2 10  1  0
 10 11  1  0
 11 12  1  0
 12 13  1  0
 13 14  1  6
 13 15  1  0
 15 16  1  0
 16 17  1  0
 17 18  2  0
 18 19  1  0
 19 20  1  0
 20 21  1  0
 21 22  1  0
 22 23  1  0
 22 24  1  0
 24 25  1  0
 24 26  1  0
 19 27  1  0
 27 28  1  1
 27 29  1  0
 29 30  1  0
 30 31  1  0
 31 32  1  1
  7  5  1  0
 31 10  1  0
 31 13  1  0
 27 15  1  0
 24 18  1  0
  1 33  1  0
  1 34  1  0
  1 35  1  0
  2 36  1  6
  3 37  1  0
  3 38  1  0
  4 39  1  0
  4 40  1  0
  5 41  1  1
  8 42  1  0
  8 43  1  0
  8 44  1  0
  9 45  1  0
  9 46  1  0
  9 47  1  0
 10 48  1  6
 11 49  1  0
 11 50  1  0
 12 51  1  0
 12 52  1  0
 14 53  1  0
 14 54  1  0
 14 55  1  0
 15 56  1  1
 16 57  1  0
 16 58  1  0
 17 59  1  0
 19 60  1  6
 20 61  1  0
 20 62  1  0
 21 63  1  0
 21 64  1  0
 22 65  1  6
 23 66  1  0
 25 67  1  0
 25 68  1  0
 25 69  1  0
 26 70  1  0
 26 71  1  0
 26 72  1  0
 28 73  1  0
 28 74  1  0
 28 75  1  0
 29 76  1  0
 29 77  1  0
 30 78  1  0
 30 79  1  0
 32 80  1  0
 32 81  1  0
 32 82  1  0
M  END
>  <meeko>  (12) 
{"is_sidechain": [false], "intermolecular_energy": 2.731, "internal_energy": -0.839}

$$$$
EPH_relaxed_0001_pdb2pqr_Repair_158_r2_0001_out
     RDKit          3D

 82 86  0  0  0  0  0  0  0  0999 V2000
   -5.1040    5.9100   -1.8320 C   0  0  0  0  0  0  0  0  0  0  0  0
   -5.4330    7.4050   -1.8750 C   0  0  2  0  0  0  0  0  0  0  0  0
   -5.2080    8.0890   -0.5120 C   0  0  0  0  0  0  0  0  0  0  0  0
   -4.1340    9.1800   -0.5400 C   0  0  0  0  0  0  0  0  0  0  0  0
   -2.7850    8.6200   -0.8790 C   0  0  2  0  0  0  0  0  0  0  0  0
   -1.7600    8.9080    0.0810 O   0  0  0  0  0  0  0  0  0  0  0  0
   -1.5850    9.4820   -1.2250 C   0  0  0  0  0  0  0  0  0  0  0  0
   -1.6780   10.9760   -1.2510 C   0  0  0  0  0  0  0  0  0  0  0  0
   -0.4660    8.8690   -2.0080 C   0  0  0  0  0  0  0  0  0  0  0  0
   -6.8750    7.6070   -2.3280 C   0  0  1  0  0  0  0  0  0  0  0  0
   -7.1830    6.8980   -3.6730 C   0  0  0  0  0  0  0  0  0  0  0  0
   -8.6510    6.4040   -3.5920 C   0  0  0  0  0  0  0  0  0  0  0  0
   -9.2370    7.1250   -2.3560 C   0  0  1  0  0  0  0  0  0  0  0  0
   -9.6140    8.5510   -2.8640 C   0  0  0  0  0  0  0  0  0  0  0  0
  -10.4470    6.4230   -1.6560 C   0  0  2  0  0  0  0  0  0  0  0  0
  -11.7070    6.2730   -2.5270 C   0  0  0  0  0  0  0  0  0  0  0  0
  -12.6770    7.4050   -2.4450 C   0  0  0  0  0  0  0  0  0  0  0  0
  -12.6860    8.3600   -1.4960 C   0  0  0  0  0  0  0  0  0  0  0  0
  -11.7100    8.3050   -0.3140 C   0  0  1  0  0  0  0  0  0  0  0  0
  -12.4790    8.5820    1.0050 C   0  0  0  0  0  0  0  0  0  0  0  0
  -13.2680    9.8870    0.9600 C   0  0  0  0  0  0  0  0  0  0  0  0
  -14.2680    9.8790   -0.1930 C   0  0  2  0  0  0  0  0  0  0  0  0
  -15.2690    8.8910    0.0710 O   0  0  0  0  0  0  0  0  0  0  0  0
  -13.6100    9.6010   -1.5730 C   0  0  0  0  0  0  0  0  0  0  0  0
  -12.7530   10.8190   -1.9970 C   0  0  0  0  0  0  0  0  0  0  0  0
  -14.7440    9.4800   -2.6270 C   0  0  0  0  0  0  0  0  0  0  0  0
  -10.7970    7.0070   -0.2280 C   0  0  1  0  0  0  0  0  0  0  0  0
  -11.5490    5.8790    0.5430 C   0  0  0  0  0  0  0  0  0  0  0  0
   -9.5100    7.3390    0.6150 C   0  0  0  0  0  0  0  0  0  0  0  0
   -8.3060    7.9180   -0.1530 C   0  0  0  0  0  0  0  0  0  0  0  0
   -7.9930    7.0790   -1.3950 C   0  0  2  0  0  0  0  0  0  0  0  0
   -7.5890    5.6440   -0.9130 C   0  0  0  0  0  0  0  0  0  0  0  0
   -5.0315    5.5805   -0.7850 H   0  0  0  0  0  0  0  0  0  0  0  0
   -5.8993    5.3448   -2.3400 H   0  0  0  0  0  0  0  0  0  0  0  0
   -4.1449    5.7309   -2.3400 H   0  0  0  0  0  0  0  0  0  0  0  0
   -4.7474    7.8740   -2.5962 H   0  0  0  0  0  0  0  0  0  0  0  0
   -6.1567    8.5439   -0.1911 H   0  0  0  0  0  0  0  0  0  0  0  0
   -4.8584    7.3119    0.1835 H   0  0  0  0  0  0  0  0  0  0  0  0
   -4.4084    9.9313   -1.2951 H   0  0  0  0  0  0  0  0  0  0  0  0
   -4.0767    9.6313    0.4615 H   0  0  0  0  0  0  0  0  0  0  0  0
   -3.2431    7.7566   -1.3837 H   0  0  0  0  0  0  0  0  0  0  0  0
   -1.7019   11.3599   -0.2204 H   0  0  0  0  0  0  0  0  0  0  0  0
   -0.8038   11.3887   -1.7758 H   0  0  0  0  0  0  0  0  0  0  0  0
   -2.5966   11.2771   -1.7758 H   0  0  0  0  0  0  0  0  0  0  0  0
    0.2838    8.4582   -1.3159 H   0  0  0  0  0  0  0  0  0  0  0  0
   -0.8613    8.0615   -2.6417 H   0  0  0  0  0  0  0  0  0  0  0  0
    0.0017    9.6369   -2.6417 H   0  0  0  0  0  0  0  0  0  0  0  0
   -6.9049    8.7059   -2.3663 H   0  0  0  0  0  0  0  0  0  0  0  0
   -7.0663    7.6037   -4.5087 H   0  0  0  0  0  0  0  0  0  0  0  0
   -6.4926    6.0590   -3.8446 H   0  0  0  0  0  0  0  0  0  0  0  0
   -9.2045    6.6803   -4.5015 H   0  0  0  0  0  0  0  0  0  0  0  0
   -8.7189    5.3093   -3.5078 H   0  0  0  0  0  0  0  0  0  0  0  0
   -9.7889    9.2127   -2.0028 H   0  0  0  0  0  0  0  0  0  0  0  0
   -8.7911    8.9525   -3.4737 H   0  0  0  0  0  0  0  0  0  0  0  0
  -10.5278    8.4934   -3.4737 H   0  0  0  0  0  0  0  0  0  0  0  0
  -10.0694    5.4018   -1.4990 H   0  0  0  0  0  0  0  0  0  0  0  0
  -11.3864    6.1752   -3.5747 H   0  0  0  0  0  0  0  0  0  0  0  0
  -12.2380    5.3888   -2.1446 H   0  0  0  0  0  0  0  0  0  0  0  0
  -13.4495    7.4637   -3.2259 H   0  0  0  0  0  0  0  0  0  0  0  0
  -10.9726    9.1019   -0.4907 H   0  0  0  0  0  0  0  0  0  0  0  0
  -13.1790    7.7529    1.1857 H   0  0  0  0  0  0  0  0  0  0  0  0
  -11.7366    8.6687    1.8121 H   0  0  0  0  0  0  0  0  0  0  0  0
  -13.8121   10.0118    1.9078 H   0  0  0  0  0  0  0  0  0  0  0  0
  -12.5639   10.7185    0.8090 H   0  0  0  0  0  0  0  0  0  0  0  0
  -14.7093   10.8848   -0.2533 H   0  0  0  0  0  0  0  0  0  0  0  0
  -15.0980    8.1350   -0.5160 H   0  0  0  0  0  0  0  0  0  0  0  0
  -12.3867   11.3397   -1.0999 H   0  0  0  0  0  0  0  0  0  0  0  0
  -11.8972   10.4745   -2.5961 H   0  0  0  0  0  0  0  0  0  0  0  0
  -13.3663   11.5081   -2.5961 H   0  0  0  0  0  0  0  0  0  0  0  0
  -15.7117    9.3767   -2.1142 H   0  0  0  0  0  0  0  0  0  0  0  0
  -14.7571   10.3818   -3.2567 H   0  0  0  0  0  0  0  0  0  0  0  0
  -14.5665    8.5957   -3.2567 H   0  0  0  0  0  0  0  0  0  0  0  0
  -11.4414    6.0404    1.6258 H   0  0  0  0  0  0  0  0  0  0  0  0
  -12.6153    5.8987    0.2735 H   0  0  0  0  0  0  0  0  0  0  0  0
  -11.1207    4.9023    0.2735 H   0  0  0  0  0  0  0  0  0  0  0  0
   -9.7963    8.0704    1.3851 H   0  0  0  0  0  0  0  0  0  0  0  0
   -9.1637    6.3704    1.0047 H   0  0  0  0  0  0  0  0  0  0  0  0
   -8.5385    8.9474   -0.4634 H   0  0  0  0  0  0  0  0  0  0  0  0
   -7.4281    7.9045    0.5096 H   0  0  0  0  0  0  0  0  0  0  0  0
   -7.5809    5.6153    0.1866 H   0  0  0  0  0  0  0  0  0  0  0  0
   -8.3158    4.9112   -1.2936 H   0  0  0  0  0  0  0  0  0  0  0  0
   -6.5867    5.3980   -1.2936 H   0  0  0  0  0  0  0  0  0  0  0  0
  1  2  1  0
  2  3  1  0
  3  4  1  0
  4  5  1  0
  5  6  1  0
  6  7  1  0
  7  8  1  0
  7  9  1  0
  2 10  1  0
 10 11  1  0
 11 12  1  0
 12 13  1  0
 13 14  1  6
 13 15  1  0
 15 16  1  0
 16 17  1  0
 17 18  2  0
 18 19  1  0
 19 20  1  0
 20 21  1  0
 21 22  1  0
 22 23  1  0
 22 24  1  0
 24 25  1  0
 24 26  1  0
 19 27  1  0
 27 28  1  1
 27 29  1  0
 29 30  1  0
 30 31  1  0
 31 32  1  1
  7  5  1  0
 31 10  1  0
 31 13  1  0
 27 15  1  0
 24 18  1  0
  1 33  1  0
  1 34  1  0
  1 35  1  0
  2 36  1  6
  3 37  1  0
  3 38  1  0
  4 39  1  0
  4 40  1  0
  5 41  1  6
  8 42  1  0
  8 43  1  0
  8 44  1  0
  9 45  1  0
  9 46  1  0
  9 47  1  0
 10 48  1  6
 11 49  1  0
 11 50  1  0
 12 51  1  0
 12 52  1  0
 14 53  1  0
 14 54  1  0
 14 55  1  0
 15 56  1  1
 16 57  1  0
 16 58  1  0
 17 59  1  0
 19 60  1  6
 20 61  1  0
 20 62  1  0
 21 63  1  0
 21 64  1  0
 22 65  1  6
 23 66  1  0
 25 67  1  0
 25 68  1  0
 25 69  1  0
 26 70  1  0
 26 71  1  0
 26 72  1  0
 28 73  1  0
 28 74  1  0
 28 75  1  0
 29 76  1  0
 29 77  1  0
 30 78  1  0
 30 79  1  0
 32 80  1  0
 32 81  1  0
 32 82  1  0
M  END
>  <meeko>  (13) 
{"is_sidechain": [false], "intermolecular_energy": 2.731, "internal_energy": -0.839}

$$$$
EPH_relaxed_0001_pdb2pqr_Repair_158_r2_0001_out
     RDKit          3D

 82 86  0  0  0  0  0  0  0  0999 V2000
    1.2710    9.0060   -0.1180 C   0  0  0  0  0  0  0  0  0  0  0  0
    0.2380    9.6080   -1.0740 C   0  0  2  0  0  0  0  0  0  0  0  0
   -0.2580    8.5820   -2.1130 C   0  0  0  0  0  0  0  0  0  0  0  0
   -1.6840    8.0860   -1.8550 C   0  0  0  0  0  0  0  0  0  0  0  0
   -2.5120    9.1190   -1.1530 C   0  0  2  0  0  0  0  0  0  0  0  0
   -2.7920    8.8280    0.2220 O   0  0  0  0  0  0  0  0  0  0  0  0
   -3.9250    8.8660   -0.6610 C   0  0  0  0  0  0  0  0  0  0  0  0
   -4.5920    7.5400   -0.8520 C   0  0  0  0  0  0  0  0  0  0  0  0
   -4.8260   10.0400   -0.4360 C   0  0  0  0  0  0  0  0  0  0  0  0
    0.8290   10.8210   -1.7820 C   0  0  1  0  0  0  0  0  0  0  0  0
    0.4660   10.8690   -3.2900 C   0  0  0  0  0  0  0  0  0  0  0  0
    0.2960   12.3650   -3.6610 C   0  0  0  0  0  0  0  0  0  0  0  0
    0.8870   13.1350   -2.4570 C   0  0  1  0  0  0  0  0  0  0  0  0
    2.4300   13.1220   -2.6900 C   0  0  0  0  0  0  0  0  0  0  0  0
    0.3490   14.5870   -2.2350 C   0  0  2  0  0  0  0  0  0  0  0  0
    0.6410   15.5730   -3.3790 C   0  0  0  0  0  0  0  0  0  0  0  0
    1.9220   16.3300   -3.2570 C   0  0  0  0  0  0  0  0  0  0  0  0
    2.6640   16.4370   -2.1390 C   0  0  0  0  0  0  0  0  0  0  0  0
    2.1800   15.8370   -0.8120 C   0  0  1  0  0  0  0  0  0  0  0  0
    2.3690   16.8750    0.3250 C   0  0  0  0  0  0  0  0  0  0  0  0
    3.8000   17.3980    0.4080 C   0  0  0  0  0  0  0  0  0  0  0  0
    4.2240   18.0390   -0.9110 C   0  0  2  0  0  0  0  0  0  0  0  0
    3.4460   19.2220   -1.1190 O   0  0  0  0  0  0  0  0  0  0  0  0
    4.0680   17.0900   -2.1320 C   0  0  0  0  0  0  0  0  0  0  0  0
    5.1270   15.9630   -2.0530 C   0  0  0  0  0  0  0  0  0  0  0  0
    4.3940   17.9030   -3.4130 C   0  0  0  0  0  0  0  0  0  0  0  0
    0.7210   15.2070   -0.8270 C   0  0  1  0  0  0  0  0  0  0  0  0
   -0.3390   16.3120   -0.5330 C   0  0  0  0  0  0  0  0  0  0  0  0
    0.6030   14.1570    0.3400 C   0  0  0  0  0  0  0  0  0  0  0  0
    1.0380   12.7130    0.0220 C   0  0  0  0  0  0  0  0  0  0  0  0
    0.3950   12.2200   -1.2770 C   0  0  2  0  0  0  0  0  0  0  0  0
   -1.1580   12.2020   -1.0660 C   0  0  0  0  0  0  0  0  0  0  0  0
    0.9588    9.1879    0.9210 H   0  0  0  0  0  0  0  0  0  0  0  0
    1.3460    7.9228   -0.2940 H   0  0  0  0  0  0  0  0  0  0  0  0
    2.2504    9.4747   -0.2940 H   0  0  0  0  0  0  0  0  0  0  0  0
   -0.6299    9.9155   -0.4721 H   0  0  0  0  0  0  0  0  0  0  0  0
   -0.2281    9.0520   -3.1071 H   0  0  0  0  0  0  0  0  0  0  0  0
    0.4048    7.7069   -2.0430 H   0  0  0  0  0  0  0  0  0  0  0  0
   -2.1571    7.8444   -2.8182 H   0  0  0  0  0  0  0  0  0  0  0  0
   -1.6262    7.1968   -1.2100 H   0  0  0  0  0  0  0  0  0  0  0  0
   -2.0779    9.9199   -1.7695 H   0  0  0  0  0  0  0  0  0  0  0  0
   -4.8149    7.0969    0.1298 H   0  0  0  0  0  0  0  0  0  0  0  0
   -5.5280    7.6778   -1.4131 H   0  0  0  0  0  0  0  0  0  0  0  0
   -3.9233    6.8706   -1.4131 H   0  0  0  0  0  0  0  0  0  0  0  0
   -4.9518   10.2039    0.6444 H   0  0  0  0  0  0  0  0  0  0  0  0
   -4.3817   10.9362   -0.8935 H   0  0  0  0  0  0  0  0  0  0  0  0
   -5.8067    9.8426   -0.8935 H   0  0  0  0  0  0  0  0  0  0  0  0
    1.8955   10.6580   -1.5677 H   0  0  0  0  0  0  0  0  0  0  0  0
    1.2722   10.4195   -3.8883 H   0  0  0  0  0  0  0  0  0  0  0  0
   -0.4559   10.3042   -3.4928 H   0  0  0  0  0  0  0  0  0  0  0  0
    0.8483   12.6018   -4.5824 H   0  0  0  0  0  0  0  0  0  0  0  0
   -0.7543   12.6309   -3.8514 H   0  0  0  0  0  0  0  0  0  0  0  0
    2.9474   13.1176   -1.7193 H   0  0  0  0  0  0  0  0  0  0  0  0
    2.7076   12.2215   -3.2575 H   0  0  0  0  0  0  0  0  0  0  0  0
    2.7227   14.0177   -3.2575 H   0  0  0  0  0  0  0  0  0  0  0  0
   -0.7410   14.4389   -2.2406 H   0  0  0  0  0  0  0  0  0  0  0  0
    0.6711   15.0032   -4.3194 H   0  0  0  0  0  0  0  0  0  0  0  0
   -0.1612   16.3249   -3.3450 H   0  0  0  0  0  0  0  0  0  0  0  0
    2.2907   16.8439   -4.1570 H   0  0  0  0  0  0  0  0  0  0  0  0
    2.8159   14.9591   -0.6254 H   0  0  0  0  0  0  0  0  0  0  0  0
    1.6933   17.7238    0.1434 H   0  0  0  0  0  0  0  0  0  0  0  0
    2.1414   16.3727    1.2768 H   0  0  0  0  0  0  0  0  0  0  0  0
    3.8630   18.1486    1.2097 H   0  0  0  0  0  0  0  0  0  0  0  0
    4.4711   16.5524    0.6191 H   0  0  0  0  0  0  0  0  0  0  0  0
    5.2954   18.2759   -0.8333 H   0  0  0  0  0  0  0  0  0  0  0  0
    2.7870   19.0240   -1.8060 H   0  0  0  0  0  0  0  0  0  0  0  0
    5.3415   15.7347   -0.9986 H   0  0  0  0  0  0  0  0  0  0  0  0
    4.7414   15.0618   -2.5522 H   0  0  0  0  0  0  0  0  0  0  0  0
    6.0504   16.2919   -2.5522 H   0  0  0  0  0  0  0  0  0  0  0  0
    4.7896   18.8897   -3.1303 H   0  0  0  0  0  0  0  0  0  0  0  0
    5.1453   17.3635   -4.0084 H   0  0  0  0  0  0  0  0  0  0  0  0
    3.4781   18.0321   -4.0084 H   0  0  0  0  0  0  0  0  0  0  0  0
   -0.4529   16.4307    0.5546 H   0  0  0  0  0  0  0  0  0  0  0  0
   -0.0078   17.2642   -0.9731 H   0  0  0  0  0  0  0  0  0  0  0  0
   -1.3041   16.0207   -0.9731 H   0  0  0  0  0  0  0  0  0  0  0  0
    1.2238   14.5155    1.1743 H   0  0  0  0  0  0  0  0  0  0  0  0
   -0.4726   14.0916    0.5608 H   0  0  0  0  0  0  0  0  0  0  0  0
    2.1324   12.6820   -0.0840 H   0  0  0  0  0  0  0  0  0  0  0  0
    0.7120   12.0595    0.8446 H   0  0  0  0  0  0  0  0  0  0  0  0
   -1.3817   12.1994    0.0110 H   0  0  0  0  0  0  0  0  0  0  0  0
   -1.6015   13.0951   -1.5305 H   0  0  0  0  0  0  0  0  0  0  0  0
   -1.5807   11.2989   -1.5305 H   0  0  0  0  0  0  0  0  0  0  0  0
  1  2  1  0
  2  3  1  0
  3  4  1  0
  4  5  1  0
  5  6  1  0
  6  7  1  0
  7  8  1  0
  7  9  1  0
  2 10  1  0
 10 11  1  0
 11 12  1  0
 12 13  1  0
 13 14  1  6
 13 15  1  0
 15 16  1  0
 16 17  1  0
 17 18  2  0
 18 19  1  0
 19 20  1  0
 20 21  1  0
 21 22  1  0
 22 23  1  0
 22 24  1  0
 24 25  1  0
 24 26  1  0
 19 27  1  0
 27 28  1  1
 27 29  1  0
 29 30  1  0
 30 31  1  0
 31 32  1  1
  7  5  1  0
 31 10  1  0
 31 13  1  0
 27 15  1  0
 24 18  1  0
  1 33  1  0
  1 34  1  0
  1 35  1  0
  2 36  1  1
  3 37  1  0
  3 38  1  0
  4 39  1  0
  4 40  1  0
  5 41  1  1
  8 42  1  0
  8 43  1  0
  8 44  1  0
  9 45  1  0
  9 46  1  0
  9 47  1  0
 10 48  1  6
 11 49  1  0
 11 50  1  0
 12 51  1  0
 12 52  1  0
 14 53  1  0
 14 54  1  0
 14 55  1  0
 15 56  1  1
 16 57  1  0
 16 58  1  0
 17 59  1  0
 19 60  1  1
 20 61  1  0
 20 62  1  0
 21 63  1  0
 21 64  1  0
 22 65  1  1
 23 66  1  0
 25 67  1  0
 25 68  1  0
 25 69  1  0
 26 70  1  0
 26 71  1  0
 26 72  1  0
 28 73  1  0
 28 74  1  0
 28 75  1  0
 29 76  1  0
 29 77  1  0
 30 78  1  0
 30 79  1  0
 32 80  1  0
 32 81  1  0
 32 82  1  0
M  END
>  <meeko>  (14) 
{"is_sidechain": [false], "intermolecular_energy": 2.731, "internal_energy": -0.839}

$$$$
EPH_relaxed_0001_pdb2pqr_Repair_158_r2_0001_out
     RDKit          3D

 82 86  0  0  0  0  0  0  0  0999 V2000
    3.0230   10.1600   -3.0750 C   0  0  0  0  0  0  0  0  0  0  0  0
    1.6600   10.2160   -2.3800 C   0  0  2  0  0  0  0  0  0  0  0  0
    0.4940   10.2050   -3.3880 C   0  0  0  0  0  0  0  0  0  0  0  0
   -0.7040    9.3670   -2.9340 C   0  0  0  0  0  0  0  0  0  0  0  0
   -0.7940    9.2930   -1.4400 C   0  0  2  0  0  0  0  0  0  0  0  0
   -2.1290    9.1960   -0.9240 O   0  0  0  0  0  0  0  0  0  0  0  0
   -1.4020   10.3880   -0.5830 C   0  0  0  0  0  0  0  0  0  0  0  0
   -1.9590   11.6360   -1.1920 C   0  0  0  0  0  0  0  0  0  0  0  0
   -1.0140   10.4640    0.8610 C   0  0  0  0  0  0  0  0  0  0  0  0
    1.5760   11.4580   -1.5000 C   0  0  1  0  0  0  0  0  0  0  0  0
    2.4510   11.3460   -0.2230 C   0  0  0  0  0  0  0  0  0  0  0  0
    2.9960   12.7670    0.0720 C   0  0  0  0  0  0  0  0  0  0  0  0
    2.1610   13.7010   -0.8360 C   0  0  1  0  0  0  0  0  0  0  0  0
    0.8220   13.9180   -0.0640 C   0  0  0  0  0  0  0  0  0  0  0  0
    2.8280   15.0600   -1.2280 C   0  0  2  0  0  0  0  0  0  0  0  0
    3.1340   16.0010   -0.0500 C   0  0  0  0  0  0  0  0  0  0  0  0
    2.0440   16.9590    0.3010 C   0  0  0  0  0  0  0  0  0  0  0  0
    0.9860   17.2580   -0.4750 C   0  0  0  0  0  0  0  0  0  0  0  0
    0.8580   16.6790   -1.8900 C   0  0  1  0  0  0  0  0  0  0  0  0
    0.4630   17.8080   -2.8780 C   0  0  0  0  0  0  0  0  0  0  0  0
   -0.7920   18.5570   -2.4380 C   0  0  0  0  0  0  0  0  0  0  0  0
   -0.6050   19.1670   -1.0510 C   0  0  2  0  0  0  0  0  0  0  0  0
    0.3880   20.1940   -1.1290 O   0  0  0  0  0  0  0  0  0  0  0  0
   -0.1950   18.1250    0.0260 C   0  0  0  0  0  0  0  0  0  0  0  0
   -1.3920   17.1890    0.3270 C   0  0  0  0  0  0  0  0  0  0  0  0
    0.0980   18.8910    1.3440 C   0  0  0  0  0  0  0  0  0  0  0  0
    2.0960   15.8250   -2.4040 C   0  0  1  0  0  0  0  0  0  0  0  0
    3.1580   16.7640   -3.0530 C   0  0  0  0  0  0  0  0  0  0  0  0
    1.6120   14.8500   -3.5420 C   0  0  0  0  0  0  0  0  0  0  0  0
    1.0740   13.4770   -3.0980 C   0  0  0  0  0  0  0  0  0  0  0  0
    2.0390   12.8010   -2.1190 C   0  0  2  0  0  0  0  0  0  0  0  0
    3.3890   12.5500   -2.8740 C   0  0  0  0  0  0  0  0  0  0  0  0
    3.8198   10.1273   -2.3174 H   0  0  0  0  0  0  0  0  0  0  0  0
    3.0774    9.2589   -3.7035 H   0  0  0  0  0  0  0  0  0  0  0  0
    3.1511   11.0536   -3.7035 H   0  0  0  0  0  0  0  0  0  0  0  0
    1.5678    9.3131   -1.7585 H   0  0  0  0  0  0  0  0  0  0  0  0
    0.1559   11.2408   -3.5393 H   0  0  0  0  0  0  0  0  0  0  0  0
    0.8736    9.7480   -4.3138 H   0  0  0  0  0  0  0  0  0  0  0  0
   -1.6261    9.8222   -3.3246 H   0  0  0  0  0  0  0  0  0  0  0  0
   -0.5744    8.3455   -3.3208 H   0  0  0  0  0  0  0  0  0  0  0  0
    0.1673    8.7611   -1.3851 H   0  0  0  0  0  0  0  0  0  0  0  0
   -2.2675   12.3273   -0.3939 H   0  0  0  0  0  0  0  0  0  0  0  0
   -1.1893   12.1152   -1.8149 H   0  0  0  0  0  0  0  0  0  0  0  0
   -2.8296   11.3831   -1.8149 H   0  0  0  0  0  0  0  0  0  0  0  0
   -1.9006   10.2903    1.4885 H   0  0  0  0  0  0  0  0  0  0  0  0
   -0.2555    9.6974    1.0777 H   0  0  0  0  0  0  0  0  0  0  0  0
   -0.6008   11.4601    1.0777 H   0  0  0  0  0  0  0  0  0  0  0  0
    0.4914   11.4819   -1.3181 H   0  0  0  0  0  0  0  0  0  0  0  0
    1.8436   10.9902    0.6223 H   0  0  0  0  0  0  0  0  0  0  0  0
    3.2733   10.6302   -0.3693 H   0  0  0  0  0  0  0  0  0  0  0  0
    2.8529   13.0257    1.1315 H   0  0  0  0  0  0  0  0  0  0  0  0
    4.0752   12.8492   -0.1246 H   0  0  0  0  0  0  0  0  0  0  0  0
    1.0138   13.8869    1.0187 H   0  0  0  0  0  0  0  0  0  0  0  0
    0.3979   14.8966   -0.3333 H   0  0  0  0  0  0  0  0  0  0  0  0
    0.1106   13.1234   -0.3333 H   0  0  0  0  0  0  0  0  0  0  0  0
    3.8064   14.7396   -1.6153 H   0  0  0  0  0  0  0  0  0  0  0  0
    3.3400   15.3814    0.8353 H   0  0  0  0  0  0  0  0  0  0  0  0
    3.9894   16.6160   -0.3662 H   0  0  0  0  0  0  0  0  0  0  0  0
    2.1114   17.4630    1.2764 H   0  0  0  0  0  0  0  0  0  0  0  0
    0.0551   15.9288   -1.8399 H   0  0  0  0  0  0  0  0  0  0  0  0
    1.2953   18.5240   -2.9466 H   0  0  0  0  0  0  0  0  0  0  0  0
    0.2499   17.3413   -3.8510 H   0  0  0  0  0  0  0  0  0  0  0  0
   -1.0032   19.3603   -3.1591 H   0  0  0  0  0  0  0  0  0  0  0  0
   -1.6300   17.8455   -2.3986 H   0  0  0  0  0  0  0  0  0  0  0  0
   -1.5764   19.5767   -0.7373 H   0  0  0  0  0  0  0  0  0  0  0  0
    0.1150   20.9130   -0.5340 H   0  0  0  0  0  0  0  0  0  0  0  0
   -1.5166   17.0916    1.4156 H   0  0  0  0  0  0  0  0  0  0  0  0
   -2.3080   17.6129   -0.1104 H   0  0  0  0  0  0  0  0  0  0  0  0
   -1.2015   16.1979   -0.1104 H   0  0  0  0  0  0  0  0  0  0  0  0
   -0.1474   18.2495    2.2032 H   0  0  0  0  0  0  0  0  0  0  0  0
    1.1634   19.1623    1.3814 H   0  0  0  0  0  0  0  0  0  0  0  0
   -0.5144   19.8040    1.3814 H   0  0  0  0  0  0  0  0  0  0  0  0
    3.7312   17.2708   -2.2627 H   0  0  0  0  0  0  0  0  0  0  0  0
    3.8410   16.1690   -3.6771 H   0  0  0  0  0  0  0  0  0  0  0  0
    2.6511   17.5147   -3.6771 H   0  0  0  0  0  0  0  0  0  0  0  0
    0.8095   15.3583   -4.0966 H   0  0  0  0  0  0  0  0  0  0  0  0
    2.5126   14.6286   -4.1335 H   0  0  0  0  0  0  0  0  0  0  0  0
    0.0997   13.6141   -2.6061 H   0  0  0  0  0  0  0  0  0  0  0  0
    0.9698   12.8369   -3.9865 H   0  0  0  0  0  0  0  0  0  0  0  0
    4.1961   12.3999   -2.1419 H   0  0  0  0  0  0  0  0  0  0  0  0
    3.2951   11.6539   -3.5051 H   0  0  0  0  0  0  0  0  0  0  0  0
    3.6234   13.4199   -3.5051 H   0  0  0  0  0  0  0  0  0  0  0  0
  1  2  1  0
  2  3  1  0
  3  4  1  0
  4  5  1  0
  5  6  1  0
  6  7  1  0
  7  8  1  0
  7  9  1  0
  2 10  1  0
 10 11  1  0
 11 12  1  0
 12 13  1  0
 13 14  1  1
 13 15  1  0
 15 16  1  0
 16 17  1  0
 17 18  2  0
 18 19  1  0
 19 20  1  0
 20 21  1  0
 21 22  1  0
 22 23  1  0
 22 24  1  0
 24 25  1  0
 24 26  1  0
 19 27  1  0
 27 28  1  6
 27 29  1  0
 29 30  1  0
 30 31  1  0
 31 32  1  6
  7  5  1  0
 31 10  1  0
 31 13  1  0
 27 15  1  0
 24 18  1  0
  1 33  1  0
  1 34  1  0
  1 35  1  0
  2 36  1  1
  3 37  1  0
  3 38  1  0
  4 39  1  0
  4 40  1  0
  5 41  1  1
  8 42  1  0
  8 43  1  0
  8 44  1  0
  9 45  1  0
  9 46  1  0
  9 47  1  0
 10 48  1  1
 11 49  1  0
 11 50  1  0
 12 51  1  0
 12 52  1  0
 14 53  1  0
 14 54  1  0
 14 55  1  0
 15 56  1  6
 16 57  1  0
 16 58  1  0
 17 59  1  0
 19 60  1  1
 20 61  1  0
 20 62  1  0
 21 63  1  0
 21 64  1  0
 22 65  1  1
 23 66  1  0
 25 67  1  0
 25 68  1  0
 25 69  1  0
 26 70  1  0
 26 71  1  0
 26 72  1  0
 28 73  1  0
 28 74  1  0
 28 75  1  0
 29 76  1  0
 29 77  1  0
 30 78  1  0
 30 79  1  0
 32 80  1  0
 32 81  1  0
 32 82  1  0
M  END
>  <meeko>  (15) 
{"is_sidechain": [false], "intermolecular_energy": 2.731, "internal_energy": -0.839}

$$$$
EPH_relaxed_0001_pdb2pqr_Repair_158_r2_0001_out
     RDKit          3D

 82 86  0  0  0  0  0  0  0  0999 V2000
   -0.1790    8.4790   -3.4130 C   0  0  0  0  0  0  0  0  0  0  0  0
   -0.6730    8.8900   -2.0230 C   0  0  2  0  0  0  0  0  0  0  0  0
   -2.0150    8.2210   -1.6630 C   0  0  0  0  0  0  0  0  0  0  0  0
   -2.5570    7.2980   -2.7580 C   0  0  0  0  0  0  0  0  0  0  0  0
   -4.0370    7.4540   -2.9320 C   0  0  2  0  0  0  0  0  0  0  0  0
   -4.8050    7.2430   -1.7400 O   0  0  0  0  0  0  0  0  0  0  0  0
   -5.0190    6.3040   -2.8070 C   0  0  0  0  0  0  0  0  0  0  0  0
   -4.5590    4.9140   -2.4960 C   0  0  0  0  0  0  0  0  0  0  0  0
   -6.3590    6.4330   -3.4630 C   0  0  0  0  0  0  0  0  0  0  0  0
   -0.8110   10.4060   -1.9480 C   0  0  1  0  0  0  0  0  0  0  0  0
   -2.1340   10.8530   -1.2710 C   0  0  0  0  0  0  0  0  0  0  0  0
   -1.8170   12.1470   -0.4790 C   0  0  0  0  0  0  0  0  0  0  0  0
   -0.4220   12.5830   -0.9870 C   0  0  1  0  0  0  0  0  0  0  0  0
   -0.7000   13.3250   -2.3320 C   0  0  0  0  0  0  0  0  0  0  0  0
    0.4260   13.4600   -0.0090 C   0  0  2  0  0  0  0  0  0  0  0  0
   -0.1900   14.8240    0.3470 C   0  0  0  0  0  0  0  0  0  0  0  0
    0.1950   15.9520   -0.5520 C   0  0  0  0  0  0  0  0  0  0  0  0
    1.2190   15.9410   -1.4260 C   0  0  0  0  0  0  0  0  0  0  0  0
    2.1740   14.7440   -1.5050 C   0  0  1  0  0  0  0  0  0  0  0  0
    3.6400   15.2520   -1.5370 C   0  0  0  0  0  0  0  0  0  0  0  0
    3.8830   16.2670   -2.6490 C   0  0  0  0  0  0  0  0  0  0  0  0
    2.9540   17.4700   -2.5030 C   0  0  2  0  0  0  0  0  0  0  0  0
    3.3080   18.1840   -1.3150 O   0  0  0  0  0  0  0  0  0  0  0  0
    1.4500   17.0800   -2.4500 C   0  0  0  0  0  0  0  0  0  0  0  0
    0.9920   16.5820   -3.8430 C   0  0  0  0  0  0  0  0  0  0  0  0
    0.6330   18.3670   -2.1590 C   0  0  0  0  0  0  0  0  0  0  0  0
    1.9470   13.6030   -0.4220 C   0  0  1  0  0  0  0  0  0  0  0  0
    2.7320   13.9430    0.8820 C   0  0  0  0  0  0  0  0  0  0  0  0
    2.5500   12.2530   -0.9630 C   0  0  0  0  0  0  0  0  0  0  0  0
    1.6230   11.3740   -1.8250 C   0  0  0  0  0  0  0  0  0  0  0  0
    0.2650   11.1780   -1.1440 C   0  0  2  0  0  0  0  0  0  0  0  0
    0.5100   10.4150    0.2020 C   0  0  0  0  0  0  0  0  0  0  0  0
    0.6629    7.7785   -3.3106 H   0  0  0  0  0  0  0  0  0  0  0  0
   -0.9970    7.9912   -3.9634 H   0  0  0  0  0  0  0  0  0  0  0  0
    0.1519    9.3721   -3.9634 H   0  0  0  0  0  0  0  0  0  0  0  0
    0.0739    8.5477   -1.2915 H   0  0  0  0  0  0  0  0  0  0  0  0
   -1.8725    7.6275   -0.7479 H   0  0  0  0  0  0  0  0  0  0  0  0
   -2.7506    9.0280   -1.5302 H   0  0  0  0  0  0  0  0  0  0  0  0
   -2.0588    7.5412   -3.7081 H   0  0  0  0  0  0  0  0  0  0  0  0
   -2.3543    6.2583   -2.4614 H   0  0  0  0  0  0  0  0  0  0  0  0
   -3.8895    8.2169   -3.7106 H   0  0  0  0  0  0  0  0  0  0  0  0
   -4.5140    4.7781   -1.4054 H   0  0  0  0  0  0  0  0  0  0  0  0
   -5.2651    4.1890   -2.9270 H   0  0  0  0  0  0  0  0  0  0  0  0
   -3.5598    4.7534   -2.9270 H   0  0  0  0  0  0  0  0  0  0  0  0
   -7.1393    6.5081   -2.6913 H   0  0  0  0  0  0  0  0  0  0  0  0
   -6.3749    7.3368   -4.0898 H   0  0  0  0  0  0  0  0  0  0  0  0
   -6.5471    5.5488   -4.0898 H   0  0  0  0  0  0  0  0  0  0  0  0
   -0.7314   10.6519   -3.0172 H   0  0  0  0  0  0  0  0  0  0  0  0
   -2.9006   11.0541   -2.0338 H   0  0  0  0  0  0  0  0  0  0  0  0
   -2.5215   10.0678   -0.6052 H   0  0  0  0  0  0  0  0  0  0  0  0
   -2.5669   12.9241   -0.6883 H   0  0  0  0  0  0  0  0  0  0  0  0
   -1.8332   11.9850    0.6089 H   0  0  0  0  0  0  0  0  0  0  0  0
   -1.0788   14.3360   -2.1215 H   0  0  0  0  0  0  0  0  0  0  0  0
    0.2325   13.3960   -2.9111 H   0  0  0  0  0  0  0  0  0  0  0  0
   -1.4496   12.7658   -2.9111 H   0  0  0  0  0  0  0  0  0  0  0  0
    0.4000   12.8704    0.9193 H   0  0  0  0  0  0  0  0  0  0  0  0
   -1.2847   14.7215    0.3140 H   0  0  0  0  0  0  0  0  0  0  0  0
    0.1986   15.0826    1.3431 H   0  0  0  0  0  0  0  0  0  0  0  0
   -0.4090   16.8696   -0.4955 H   0  0  0  0  0  0  0  0  0  0  0  0
    1.9372   14.2280   -2.4471 H   0  0  0  0  0  0  0  0  0  0  0  0
    3.8704   15.7252   -0.5711 H   0  0  0  0  0  0  0  0  0  0  0  0
    4.2897   14.3852   -1.7283 H   0  0  0  0  0  0  0  0  0  0  0  0
    4.9269   16.6105   -2.6010 H   0  0  0  0  0  0  0  0  0  0  0  0
    3.6812   15.7831   -3.6160 H   0  0  0  0  0  0  0  0  0  0  0  0
    3.0837   18.0975   -3.3971 H   0  0  0  0  0  0  0  0  0  0  0  0
    4.0000   18.8250   -1.5520 H   0  0  0  0  0  0  0  0  0  0  0  0
    0.2521   15.7774   -3.7197 H   0  0  0  0  0  0  0  0  0  0  0  0
    0.5382   17.4154   -4.3994 H   0  0  0  0  0  0  0  0  0  0  0  0
    1.8604   16.1994   -4.3994 H   0  0  0  0  0  0  0  0  0  0  0  0
    0.5442   18.5069   -1.0716 H   0  0  0  0  0  0  0  0  0  0  0  0
    1.1461   19.2345   -2.5996 H   0  0  0  0  0  0  0  0  0  0  0  0
   -0.3704   18.2718   -2.5996 H   0  0  0  0  0  0  0  0  0  0  0  0
    2.1208   13.6783    1.7575 H   0  0  0  0  0  0  0  0  0  0  0  0
    3.6714   13.3711    0.9041 H   0  0  0  0  0  0  0  0  0  0  0  0
    2.9575   15.0194    0.9041 H   0  0  0  0  0  0  0  0  0  0  0  0
    3.4320   12.5026   -1.5711 H   0  0  0  0  0  0  0  0  0  0  0  0
    2.7632   11.6531   -0.0660 H   0  0  0  0  0  0  0  0  0  0  0  0
    1.4700   11.8602   -2.7998 H   0  0  0  0  0  0  0  0  0  0  0  0
    2.0953   10.3892   -1.9561 H   0  0  0  0  0  0  0  0  0  0  0  0
    0.2949   11.0849    1.0476 H   0  0  0  0  0  0  0  0  0  0  0  0
   -0.1516    9.5376    0.2518 H   0  0  0  0  0  0  0  0  0  0  0  0
    1.5587   10.0868    0.2518 H   0  0  0  0  0  0  0  0  0  0  0  0
  1  2  1  0
  2  3  1  0
  3  4  1  0
  4  5  1  0
  5  6  1  0
  6  7  1  0
  7  8  1  0
  7  9  1  0
  2 10  1  0
 10 11  1  0
 11 12  1  0
 12 13  1  0
 13 14  1  6
 13 15  1  0
 15 16  1  0
 16 17  1  0
 17 18  2  0
 18 19  1  0
 19 20  1  0
 20 21  1  0
 21 22  1  0
 22 23  1  0
 22 24  1  0
 24 25  1  0
 24 26  1  0
 19 27  1  0
 27 28  1  1
 27 29  1  0
 29 30  1  0
 30 31  1  0
 31 32  1  1
  7  5  1  0
 31 10  1  0
 31 13  1  0
 27 15  1  0
 24 18  1  0
  1 33  1  0
  1 34  1  0
  1 35  1  0
  2 36  1  1
  3 37  1  0
  3 38  1  0
  4 39  1  0
  4 40  1  0
  5 41  1  6
  8 42  1  0
  8 43  1  0
  8 44  1  0
  9 45  1  0
  9 46  1  0
  9 47  1  0
 10 48  1  6
 11 49  1  0
 11 50  1  0
 12 51  1  0
 12 52  1  0
 14 53  1  0
 14 54  1  0
 14 55  1  0
 15 56  1  1
 16 57  1  0
 16 58  1  0
 17 59  1  0
 19 60  1  6
 20 61  1  0
 20 62  1  0
 21 63  1  0
 21 64  1  0
 22 65  1  6
 23 66  1  0
 25 67  1  0
 25 68  1  0
 25 69  1  0
 26 70  1  0
 26 71  1  0
 26 72  1  0
 28 73  1  0
 28 74  1  0
 28 75  1  0
 29 76  1  0
 29 77  1  0
 30 78  1  0
 30 79  1  0
 32 80  1  0
 32 81  1  0
 32 82  1  0
M  END
>  <meeko>  (16) 
{"is_sidechain": [false], "intermolecular_energy": 2.731, "internal_energy": -0.839}

$$$$
