EPH_relaxed_0001_pdb2pqr_Repair_132_r2_0001_out
     RDKit          3D

 82 86  0  0  0  0  0  0  0  0999 V2000
   -1.6980    8.5850   -1.8990 C   0  0  0  0  0  0  0  0  0  0  0  0
   -2.0690    9.0990   -0.5050 C   0  0  2  0  0  0  0  0  0  0  0  0
   -3.5630    9.4650   -0.4000 C   0  0  0  0  0  0  0  0  0  0  0  0
   -4.4860    8.2500   -0.2650 C   0  0  0  0  0  0  0  0  0  0  0  0
   -5.1780    7.9340   -1.5560 C   0  0  2  0  0  0  0  0  0  0  0  0
   -6.3750    8.6860   -1.7940 O   0  0  0  0  0  0  0  0  0  0  0  0
   -6.5390    7.2680   -1.6340 C   0  0  0  0  0  0  0  0  0  0  0  0
   -7.2890    6.8770   -0.4000 C   0  0  0  0  0  0  0  0  0  0  0  0
   -6.9170    6.5590   -2.8980 C   0  0  0  0  0  0  0  0  0  0  0  0
   -1.2110   10.3080   -0.1520 C   0  0  1  0  0  0  0  0  0  0  0  0
   -0.1770   10.0010    0.9640 C   0  0  0  0  0  0  0  0  0  0  0  0
    1.0910   10.8320    0.6390 C   0  0  0  0  0  0  0  0  0  0  0  0
    0.6350   11.8310   -0.4490 C   0  0  1  0  0  0  0  0  0  0  0  0
   -0.0720   12.9820    0.3340 C   0  0  0  0  0  0  0  0  0  0  0  0
    1.7510   12.3790   -1.3960 C   0  0  2  0  0  0  0  0  0  0  0  0
    2.8550   13.1950   -0.7010 C   0  0  0  0  0  0  0  0  0  0  0  0
    2.6020   14.6640   -0.6120 C   0  0  0  0  0  0  0  0  0  0  0  0
    1.6770   15.3420   -1.3150 C   0  0  0  0  0  0  0  0  0  0  0  0
    0.8300   14.6410   -2.3850 C   0  0  1  0  0  0  0  0  0  0  0  0
    0.7990   15.5080   -3.6710 C   0  0  0  0  0  0  0  0  0  0  0  0
    0.3340   16.9360   -3.4030 C   0  0  0  0  0  0  0  0  0  0  0  0
    1.2340   17.6190   -2.3770 C   0  0  2  0  0  0  0  0  0  0  0  0
    2.5350   17.7920   -2.9490 O   0  0  0  0  0  0  0  0  0  0  0  0
    1.3510   16.8310   -1.0420 C   0  0  0  0  0  0  0  0  0  0  0  0
    0.0060   16.9020   -0.2770 C   0  0  0  0  0  0  0  0  0  0  0  0
    2.3970   17.5540   -0.1510 C   0  0  0  0  0  0  0  0  0  0  0  0
    1.2040   13.1240   -2.6810 C   0  0  1  0  0  0  0  0  0  0  0  0
    2.3350   13.0540   -3.7520 C   0  0  0  0  0  0  0  0  0  0  0  0
   -0.0460   12.3990   -3.3060 C   0  0  0  0  0  0  0  0  0  0  0  0
   -1.0520   11.7750   -2.3200 C   0  0  0  0  0  0  0  0  0  0  0  0
   -0.3340   10.9120   -1.2780 C   0  0  2  0  0  0  0  0  0  0  0  0
    0.3680    9.7330   -2.0340 C   0  0  0  0  0  0  0  0  0  0  0  0
   -1.0566    7.6964   -1.8035 H   0  0  0  0  0  0  0  0  0  0  0  0
   -2.6137    8.3190   -2.4474 H   0  0  0  0  0  0  0  0  0  0  0  0
   -1.1572    9.3703   -2.4474 H   0  0  0  0  0  0  0  0  0  0  0  0
   -1.8773    8.2852    0.2098 H   0  0  0  0  0  0  0  0  0  0  0  0
   -3.7022   10.1068    0.4824 H   0  0  0  0  0  0  0  0  0  0  0  0
   -3.8361    9.9740   -1.3361 H   0  0  0  0  0  0  0  0  0  0  0  0
   -3.8871    7.3795    0.0409 H   0  0  0  0  0  0  0  0  0  0  0  0
   -5.2536    8.4842    0.4873 H   0  0  0  0  0  0  0  0  0  0  0  0
   -4.2175    7.7098   -2.0430 H   0  0  0  0  0  0  0  0  0  0  0  0
   -6.7143    7.1766    0.4888 H   0  0  0  0  0  0  0  0  0  0  0  0
   -8.2673    7.3799   -0.3907 H   0  0  0  0  0  0  0  0  0  0  0  0
   -7.4369    5.7870   -0.3907 H   0  0  0  0  0  0  0  0  0  0  0  0
   -7.4213    5.6131   -2.6511 H   0  0  0  0  0  0  0  0  0  0  0  0
   -7.5962    7.1941   -3.4856 H   0  0  0  0  0  0  0  0  0  0  0  0
   -6.0111    6.3491   -3.4856 H   0  0  0  0  0  0  0  0  0  0  0  0
   -2.0016   11.0187    0.1306 H   0  0  0  0  0  0  0  0  0  0  0  0
   -0.5803   10.2930    1.9449 H   0  0  0  0  0  0  0  0  0  0  0  0
    0.0542    8.9263    1.0037 H   0  0  0  0  0  0  0  0  0  0  0  0
    1.4446   11.3664    1.5331 H   0  0  0  0  0  0  0  0  0  0  0  0
    1.9274   10.2019    0.3023 H   0  0  0  0  0  0  0  0  0  0  0  0
    0.0342   12.8091    1.4151 H   0  0  0  0  0  0  0  0  0  0  0  0
    0.3912   13.9440    0.0693 H   0  0  0  0  0  0  0  0  0  0  0  0
   -1.1394   13.0038    0.0693 H   0  0  0  0  0  0  0  0  0  0  0  0
    2.2367   11.4558   -1.7449 H   0  0  0  0  0  0  0  0  0  0  0  0
    2.9712   12.8075    0.3219 H   0  0  0  0  0  0  0  0  0  0  0  0
    3.7559   13.0783   -1.3213 H   0  0  0  0  0  0  0  0  0  0  0  0
    3.2248   15.2406    0.0877 H   0  0  0  0  0  0  0  0  0  0  0  0
   -0.1835   14.5593   -1.9654 H   0  0  0  0  0  0  0  0  0  0  0  0
    1.8121   15.5414   -4.0982 H   0  0  0  0  0  0  0  0  0  0  0  0
    0.0813   15.0482   -4.3663 H   0  0  0  0  0  0  0  0  0  0  0  0
    0.3625   17.5063   -4.3432 H   0  0  0  0  0  0  0  0  0  0  0  0
   -0.6907   16.9027   -3.0043 H   0  0  0  0  0  0  0  0  0  0  0  0
    0.7757   18.5878   -2.1293 H   0  0  0  0  0  0  0  0  0  0  0  0
    3.0300   18.3990   -2.3730 H   0  0  0  0  0  0  0  0  0  0  0  0
    0.1991   16.8918    0.8059 H   0  0  0  0  0  0  0  0  0  0  0  0
   -0.5208   17.8292   -0.5468 H   0  0  0  0  0  0  0  0  0  0  0  0
   -0.6155   16.0354   -0.5468 H   0  0  0  0  0  0  0  0  0  0  0  0
    2.1544   17.3863    0.9087 H   0  0  0  0  0  0  0  0  0  0  0  0
    3.3995   17.1551   -0.3653 H   0  0  0  0  0  0  0  0  0  0  0  0
    2.3781   18.6328   -0.3653 H   0  0  0  0  0  0  0  0  0  0  0  0
    3.3120   12.9935   -3.2501 H   0  0  0  0  0  0  0  0  0  0  0  0
    2.1900   12.1631   -4.3807 H   0  0  0  0  0  0  0  0  0  0  0  0
    2.3009   13.9560   -4.3807 H   0  0  0  0  0  0  0  0  0  0  0  0
   -0.5898   13.1375   -3.9134 H   0  0  0  0  0  0  0  0  0  0  0  0
    0.3664   11.5506   -3.8718 H   0  0  0  0  0  0  0  0  0  0  0  0
   -1.5987   12.5795   -1.8062 H   0  0  0  0  0  0  0  0  0  0  0  0
   -1.7476   11.1371   -2.8850 H   0  0  0  0  0  0  0  0  0  0  0  0
    0.7883    9.0271   -1.3026 H   0  0  0  0  0  0  0  0  0  0  0  0
   -0.3674    9.2126   -2.6651 H   0  0  0  0  0  0  0  0  0  0  0  0
    1.1760   10.1316   -2.6651 H   0  0  0  0  0  0  0  0  0  0  0  0
  1  2  1  0
  2  3  1  0
  3  4  1  0
  4  5  1  0
  5  6  1  0
  6  7  1  0
  7  8  1  0
  7  9  1  0
  2 10  1  0
 10 11  1  0
 11 12  1  0
 12 13  1  0
 13 14  1  1
 13 15  1  0
 15 16  1  0
 16 17  1  0
 17 18  2  0
 18 19  1  0
 19 20  1  0
 20 21  1  0
 21 22  1  0
 22 23  1  0
 22 24  1  0
 24 25  1  0
 24 26  1  0
 19 27  1  0
 27 28  1  6
 27 29  1  0
 29 30  1  0
 30 31  1  0
 31 32  1  6
  7  5  1  0
 31 10  1  0
 31 13  1  0
 27 15  1  0
 24 18  1  0
  1 33  1  0
  1 34  1  0
  1 35  1  0
  2 36  1  1
  3 37  1  0
  3 38  1  0
  4 39  1  0
  4 40  1  0
  5 41  1  6
  8 42  1  0
  8 43  1  0
  8 44  1  0
  9 45  1  0
  9 46  1  0
  9 47  1  0
 10 48  1  1
 11 49  1  0
 11 50  1  0
 12 51  1  0
 12 52  1  0
 14 53  1  0
 14 54  1  0
 14 55  1  0
 15 56  1  6
 16 57  1  0
 16 58  1  0
 17 59  1  0
 19 60  1  1
 20 61  1  0
 20 62  1  0
 21 63  1  0
 21 64  1  0
 22 65  1  1
 23 66  1  0
 25 67  1  0
 25 68  1  0
 25 69  1  0
 26 70  1  0
 26 71  1  0
 26 72  1  0
 28 73  1  0
 28 74  1  0
 28 75  1  0
 29 76  1  0
 29 77  1  0
 30 78  1  0
 30 79  1  0
 32 80  1  0
 32 81  1  0
 32 82  1  0
M  END
>  <meeko>  (1) 
{"is_sidechain": [false], "intermolecular_energy": 2.731, "internal_energy": -0.839}

$$$$
EPH_relaxed_0001_pdb2pqr_Repair_132_r2_0001_out
     RDKit          3D

 82 86  0  0  0  0  0  0  0  0999 V2000
    2.4140   17.9810   -2.6860 C   0  0  0  0  0  0  0  0  0  0  0  0
    1.1010   17.6130   -1.9890 C   0  0  2  0  0  0  0  0  0  0  0  0
    1.2210   17.6760   -0.4530 C   0  0  0  0  0  0  0  0  0  0  0  0
    0.9070   19.0550    0.1330 C   0  0  0  0  0  0  0  0  0  0  0  0
   -0.5370   19.1780    0.5170 C   0  0  2  0  0  0  0  0  0  0  0  0
   -1.4110   18.2480   -0.1350 O   0  0  0  0  0  0  0  0  0  0  0  0
   -1.6210   19.6370   -0.4400 C   0  0  0  0  0  0  0  0  0  0  0  0
   -1.3070   20.0030   -1.8570 C   0  0  0  0  0  0  0  0  0  0  0  0
   -2.8890   20.1940    0.1280 C   0  0  0  0  0  0  0  0  0  0  0  0
    0.6570   16.2210   -2.4200 C   0  0  1  0  0  0  0  0  0  0  0  0
    0.7870   15.9990   -3.9500 C   0  0  0  0  0  0  0  0  0  0  0  0
    1.1860   14.5150   -4.1550 C   0  0  0  0  0  0  0  0  0  0  0  0
    0.9490   13.8540   -2.7770 C   0  0  1  0  0  0  0  0  0  0  0  0
   -0.5840   13.5660   -2.7280 C   0  0  0  0  0  0  0  0  0  0  0  0
    1.7870   12.5690   -2.4730 C   0  0  2  0  0  0  0  0  0  0  0  0
    1.5220   11.3800   -3.4120 C   0  0  0  0  0  0  0  0  0  0  0  0
    0.4480   10.4430   -2.9680 C   0  0  0  0  0  0  0  0  0  0  0  0
   -0.0790   10.3880   -1.7300 C   0  0  0  0  0  0  0  0  0  0  0  0
    0.4750   11.2630   -0.5980 C   0  0  1  0  0  0  0  0  0  0  0  0
    0.6690   10.4000    0.6760 C   0  0  0  0  0  0  0  0  0  0  0  0
   -0.6020    9.6600    1.0800 C   0  0  0  0  0  0  0  0  0  0  0  0
   -1.0900    8.7560   -0.0500 C   0  0  2  0  0  0  0  0  0  0  0  0
   -0.1370    7.7060   -0.2440 O   0  0  0  0  0  0  0  0  0  0  0  0
   -1.3110    9.5150   -1.3880 C   0  0  0  0  0  0  0  0  0  0  0  0
   -2.5450   10.4420   -1.2630 C   0  0  0  0  0  0  0  0  0  0  0  0
   -1.6650    8.4660   -2.4780 C   0  0  0  0  0  0  0  0  0  0  0  0
    1.7630   12.1230   -0.9550 C   0  0  1  0  0  0  0  0  0  0  0  0
    3.0510   11.2760   -0.7190 C   0  0  0  0  0  0  0  0  0  0  0  0
    1.8520   13.3490    0.0300 C   0  0  0  0  0  0  0  0  0  0  0  0
    1.1000   14.6280   -0.3840 C   0  0  0  0  0  0  0  0  0  0  0  0
    1.4280   15.0130   -1.8300 C   0  0  2  0  0  0  0  0  0  0  0  0
    2.9610   15.3300   -1.9050 C   0  0  0  0  0  0  0  0  0  0  0  0
    3.1829   18.1965   -1.9294 H   0  0  0  0  0  0  0  0  0  0  0  0
    2.7435   17.1406   -3.3146 H   0  0  0  0  0  0  0  0  0  0  0  0
    2.2587   18.8702   -3.3146 H   0  0  0  0  0  0  0  0  0  0  0  0
    0.3467   18.3543   -2.2914 H   0  0  0  0  0  0  0  0  0  0  0  0
    0.5205   16.9469   -0.0198 H   0  0  0  0  0  0  0  0  0  0  0  0
    2.2684   17.4515   -0.2030 H   0  0  0  0  0  0  0  0  0  0  0  0
    1.5284   19.2125    1.0269 H   0  0  0  0  0  0  0  0  0  0  0  0
    1.1234   19.8118   -0.6354 H   0  0  0  0  0  0  0  0  0  0  0  0
   -0.2638   19.5021    1.5320 H   0  0  0  0  0  0  0  0  0  0  0  0
   -0.5908   20.8378   -1.8700 H   0  0  0  0  0  0  0  0  0  0  0  0
   -0.8681   19.1353   -2.3712 H   0  0  0  0  0  0  0  0  0  0  0  0
   -2.2314   20.3049   -2.3712 H   0  0  0  0  0  0  0  0  0  0  0  0
   -2.8393   20.1722    1.2267 H   0  0  0  0  0  0  0  0  0  0  0  0
   -3.0185   21.2319   -0.2126 H   0  0  0  0  0  0  0  0  0  0  0  0
   -3.7410   19.5873   -0.2126 H   0  0  0  0  0  0  0  0  0  0  0  0
   -0.3748   16.2314   -2.0387 H   0  0  0  0  0  0  0  0  0  0  0  0
   -0.1733   16.2049   -4.4455 H   0  0  0  0  0  0  0  0  0  0  0  0
    1.5396   16.6736   -4.3842 H   0  0  0  0  0  0  0  0  0  0  0  0
    0.5552   14.0459   -4.9245 H   0  0  0  0  0  0  0  0  0  0  0  0
    2.2257   14.4058   -4.4970 H   0  0  0  0  0  0  0  0  0  0  0  0
   -0.9122   13.5043   -1.6799 H   0  0  0  0  0  0  0  0  0  0  0  0
   -1.1260   14.3780   -3.2348 H   0  0  0  0  0  0  0  0  0  0  0  0
   -0.7944   12.6126   -3.2348 H   0  0  0  0  0  0  0  0  0  0  0  0
    2.8129   12.8999   -2.6921 H   0  0  0  0  0  0  0  0  0  0  0  0
    1.2376   11.7810   -4.3960 H   0  0  0  0  0  0  0  0  0  0  0  0
    2.4514   10.7918   -3.4274 H   0  0  0  0  0  0  0  0  0  0  0  0
    0.0539    9.7382   -3.7150 H   0  0  0  0  0  0  0  0  0  0  0  0
   -0.2841   12.0370   -0.4116 H   0  0  0  0  0  0  0  0  0  0  0  0
    1.4613    9.6614    0.4843 H   0  0  0  0  0  0  0  0  0  0  0  0
    0.9376   11.0770    1.5003 H   0  0  0  0  0  0  0  0  0  0  0  0
   -0.3938    9.0454    1.9682 H   0  0  0  0  0  0  0  0  0  0  0  0
   -1.3848   10.4009    1.2997 H   0  0  0  0  0  0  0  0  0  0  0  0
   -2.0693    8.3534    0.2480 H   0  0  0  0  0  0  0  0  0  0  0  0
   -0.2400    7.0770    0.4900 H   0  0  0  0  0  0  0  0  0  0  0  0
   -2.7703   10.6112   -0.1997 H   0  0  0  0  0  0  0  0  0  0  0  0
   -2.3312   11.4047   -1.7503 H   0  0  0  0  0  0  0  0  0  0  0  0
   -3.4101    9.9686   -1.7503 H   0  0  0  0  0  0  0  0  0  0  0  0
   -1.9812    7.5290   -1.9962 H   0  0  0  0  0  0  0  0  0  0  0  0
   -2.4832    8.8503   -3.1048 H   0  0  0  0  0  0  0  0  0  0  0  0
   -0.7812    8.2760   -3.1048 H   0  0  0  0  0  0  0  0  0  0  0  0
    3.2227   11.1631    0.3616 H   0  0  0  0  0  0  0  0  0  0  0  0
    2.9259   10.2833   -1.1761 H   0  0  0  0  0  0  0  0  0  0  0  0
    3.9129   11.7842   -1.1761 H   0  0  0  0  0  0  0  0  0  0  0  0
    1.4492   13.0256    1.0012 H   0  0  0  0  0  0  0  0  0  0  0  0
    2.9151   13.6314    0.0431 H   0  0  0  0  0  0  0  0  0  0  0  0
    0.0175   14.4539   -0.2947 H   0  0  0  0  0  0  0  0  0  0  0  0
    1.4137   15.4490    0.2774 H   0  0  0  0  0  0  0  0  0  0  0  0
    3.3683   15.4142   -0.8866 H   0  0  0  0  0  0  0  0  0  0  0  0
    3.4772   14.5196   -2.4405 H   0  0  0  0  0  0  0  0  0  0  0  0
    3.1135   16.2787   -2.4405 H   0  0  0  0  0  0  0  0  0  0  0  0
  1  2  1  0
  2  3  1  0
  3  4  1  0
  4  5  1  0
  5  6  1  0
  6  7  1  0
  7  8  1  0
  7  9  1  0
  2 10  1  0
 10 11  1  0
 11 12  1  0
 12 13  1  0
 13 14  1  1
 13 15  1  0
 15 16  1  0
 16 17  1  0
 17 18  2  0
 18 19  1  0
 19 20  1  0
 20 21  1  0
 21 22  1  0
 22 23  1  0
 22 24  1  0
 24 25  1  0
 24 26  1  0
 19 27  1  0
 27 28  1  6
 27 29  1  0
 29 30  1  0
 30 31  1  0
 31 32  1  1
  7  5  1  0
 31 10  1  0
 31 13  1  0
 27 15  1  0
 24 18  1  0
  1 33  1  0
  1 34  1  0
  1 35  1  0
  2 36  1  6
  3 37  1  0
  3 38  1  0
  4 39  1  0
  4 40  1  0
  5 41  1  1
  8 42  1  0
  8 43  1  0
  8 44  1  0
  9 45  1  0
  9 46  1  0
  9 47  1  0
 10 48  1  1
 11 49  1  0
 11 50  1  0
 12 51  1  0
 12 52  1  0
 14 53  1  0
 14 54  1  0
 14 55  1  0
 15 56  1  6
 16 57  1  0
 16 58  1  0
 17 59  1  0
 19 60  1  1
 20 61  1  0
 20 62  1  0
 21 63  1  0
 21 64  1  0
 22 65  1  1
 23 66  1  0
 25 67  1  0
 25 68  1  0
 25 69  1  0
 26 70  1  0
 26 71  1  0
 26 72  1  0
 28 73  1  0
 28 74  1  0
 28 75  1  0
 29 76  1  0
 29 77  1  0
 30 78  1  0
 30 79  1  0
 32 80  1  0
 32 81  1  0
 32 82  1  0
M  END
>  <meeko>  (2) 
{"is_sidechain": [false], "intermolecular_energy": 2.731, "internal_energy": -0.839}

$$$$
EPH_relaxed_0001_pdb2pqr_Repair_132_r2_0001_out
     RDKit          3D

 82 86  0  0  0  0  0  0  0  0999 V2000
    4.1510   17.5160   -0.0810 C   0  0  0  0  0  0  0  0  0  0  0  0
    2.7440   18.1140   -0.1520 C   0  0  2  0  0  0  0  0  0  0  0  0
    2.4600   19.0720    1.0230 C   0  0  0  0  0  0  0  0  0  0  0  0
    3.6960   19.8330    1.5080 C   0  0  0  0  0  0  0  0  0  0  0  0
    4.2230   19.2720    2.7950 C   0  0  2  0  0  0  0  0  0  0  0  0
    4.9930   20.1920    3.5790 O   0  0  0  0  0  0  0  0  0  0  0  0
    5.6990   19.0500    3.0680 C   0  0  0  0  0  0  0  0  0  0  0  0
    6.7410   19.3840    2.0470 C   0  0  0  0  0  0  0  0  0  0  0  0
    6.0900   18.0620    4.1230 C   0  0  0  0  0  0  0  0  0  0  0  0
    1.7060   16.9980   -0.1760 C   0  0  1  0  0  0  0  0  0  0  0  0
    0.2880   17.5090   -0.5460 C   0  0  0  0  0  0  0  0  0  0  0  0
   -0.3910   16.3860   -1.3710 C   0  0  0  0  0  0  0  0  0  0  0  0
    0.5160   15.1500   -1.1690 C   0  0  1  0  0  0  0  0  0  0  0  0
    0.0920   14.5630    0.2140 C   0  0  0  0  0  0  0  0  0  0  0  0
    0.4690   14.0660   -2.2950 C   0  0  2  0  0  0  0  0  0  0  0  0
   -0.8990   13.3900   -2.4930 C   0  0  0  0  0  0  0  0  0  0  0  0
   -1.1220   12.1550   -1.6830 C   0  0  0  0  0  0  0  0  0  0  0  0
   -0.1660   11.4510   -1.0500 C   0  0  0  0  0  0  0  0  0  0  0  0
    1.3140   11.8270   -1.1940 C   0  0  1  0  0  0  0  0  0  0  0  0
    2.1490   10.5490   -1.4720 C   0  0  0  0  0  0  0  0  0  0  0  0
    1.9220    9.4630   -0.4240 C   0  0  0  0  0  0  0  0  0  0  0  0
    0.4470    9.0750   -0.3520 C   0  0  2  0  0  0  0  0  0  0  0  0
    0.0770    8.4400   -1.5790 O   0  0  0  0  0  0  0  0  0  0  0  0
   -0.4920   10.2850   -0.0860 C   0  0  0  0  0  0  0  0  0  0  0  0
   -0.2970   10.7860    1.3670 C   0  0  0  0  0  0  0  0  0  0  0  0
   -1.9580    9.7800   -0.1770 C   0  0  0  0  0  0  0  0  0  0  0  0
    1.6360   13.0000   -2.2180 C   0  0  1  0  0  0  0  0  0  0  0  0
    1.8050   12.4200   -3.6550 C   0  0  0  0  0  0  0  0  0  0  0  0
    3.0170   13.6510   -1.8360 C   0  0  0  0  0  0  0  0  0  0  0  0
    2.9850   14.7970   -0.8070 C   0  0  0  0  0  0  0  0  0  0  0  0
    1.9280   15.8410   -1.1820 C   0  0  2  0  0  0  0  0  0  0  0  0
    2.3400   16.4650   -2.5590 C   0  0  0  0  0  0  0  0  0  0  0  0
    4.4438   17.3916    0.9720 H   0  0  0  0  0  0  0  0  0  0  0  0
    4.1589   16.5367   -0.5820 H   0  0  0  0  0  0  0  0  0  0  0  0
    4.8615   18.1899   -0.5820 H   0  0  0  0  0  0  0  0  0  0  0  0
    2.6805   18.7015   -1.0798 H   0  0  0  0  0  0  0  0  0  0  0  0
    1.7058   19.8045    0.6995 H   0  0  0  0  0  0  0  0  0  0  0  0
    2.1115   18.4549    1.8643 H   0  0  0  0  0  0  0  0  0  0  0  0
    4.4812   19.7635    0.7408 H   0  0  0  0  0  0  0  0  0  0  0  0
    3.4074   20.8799    1.6829 H   0  0  0  0  0  0  0  0  0  0  0  0
    3.3469   18.6143    2.8943 H   0  0  0  0  0  0  0  0  0  0  0  0
    7.6700   19.6818    2.5551 H   0  0  0  0  0  0  0  0  0  0  0  0
    6.9336   18.5026    1.4177 H   0  0  0  0  0  0  0  0  0  0  0  0
    6.3853   20.2131    1.4177 H   0  0  0  0  0  0  0  0  0  0  0  0
    5.9169   18.4995    5.1173 H   0  0  0  0  0  0  0  0  0  0  0  0
    5.4851   17.1498    4.0134 H   0  0  0  0  0  0  0  0  0  0  0  0
    7.1553   17.8108    4.0134 H   0  0  0  0  0  0  0  0  0  0  0  0
    1.8116   16.6265    0.8540 H   0  0  0  0  0  0  0  0  0  0  0  0
   -0.2916   17.7118    0.3666 H   0  0  0  0  0  0  0  0  0  0  0  0
    0.3432   18.4442   -1.1225 H   0  0  0  0  0  0  0  0  0  0  0  0
   -1.4060   16.1882   -0.9959 H   0  0  0  0  0  0  0  0  0  0  0  0
   -0.4987   16.6552   -2.4321 H   0  0  0  0  0  0  0  0  0  0  0  0
    0.5304   15.1699    1.0199 H   0  0  0  0  0  0  0  0  0  0  0  0
   -1.0047   14.5786    0.2983 H   0  0  0  0  0  0  0  0  0  0  0  0
    0.4515   13.5268    0.2983 H   0  0  0  0  0  0  0  0  0  0  0  0
    0.6415   14.6617   -3.2035 H   0  0  0  0  0  0  0  0  0  0  0  0
   -1.6797   14.1175   -2.2261 H   0  0  0  0  0  0  0  0  0  0  0  0
   -0.9336   13.0743   -3.5462 H   0  0  0  0  0  0  0  0  0  0  0  0
   -2.1560   11.7899   -1.5966 H   0  0  0  0  0  0  0  0  0  0  0  0
    1.6107   12.2648   -0.2295 H   0  0  0  0  0  0  0  0  0  0  0  0
    1.8678   10.1516   -2.4584 H   0  0  0  0  0  0  0  0  0  0  0  0
    3.2119   10.8301   -1.4371 H   0  0  0  0  0  0  0  0  0  0  0  0
    2.5152    8.5758   -0.6904 H   0  0  0  0  0  0  0  0  0  0  0  0
    2.2315    9.8516    0.5574 H   0  0  0  0  0  0  0  0  0  0  0  0
    0.3269    8.3910    0.5010 H   0  0  0  0  0  0  0  0  0  0  0  0
    0.6630    8.7810   -2.2760 H   0  0  0  0  0  0  0  0  0  0  0  0
   -0.6036    9.9982    2.0708 H   0  0  0  0  0  0  0  0  0  0  0  0
    0.7625   11.0320    1.5309 H   0  0  0  0  0  0  0  0  0  0  0  0
   -0.9114   11.6835    1.5309 H   0  0  0  0  0  0  0  0  0  0  0  0
   -2.3615    9.6410    0.8368 H   0  0  0  0  0  0  0  0  0  0  0  0
   -2.5679   10.5199   -0.7161 H   0  0  0  0  0  0  0  0  0  0  0  0
   -1.9828    8.8215   -0.7161 H   0  0  0  0  0  0  0  0  0  0  0  0
    2.1122   11.3657   -3.5911 H   0  0  0  0  0  0  0  0  0  0  0  0
    0.8487   12.4913   -4.1940 H   0  0  0  0  0  0  0  0  0  0  0  0
    2.5733   12.9938   -4.1940 H   0  0  0  0  0  0  0  0  0  0  0  0
    3.6581   12.8556   -1.4281 H   0  0  0  0  0  0  0  0  0  0  0  0
    3.3853   14.1097   -2.7655 H   0  0  0  0  0  0  0  0  0  0  0  0
    2.7471   14.3840    0.1844 H   0  0  0  0  0  0  0  0  0  0  0  0
    3.9709   15.2847   -0.7943 H   0  0  0  0  0  0  0  0  0  0  0  0
    2.9386   17.3716   -2.3863 H   0  0  0  0  0  0  0  0  0  0  0  0
    2.9348   15.7359   -3.1287 H   0  0  0  0  0  0  0  0  0  0  0  0
    1.4358   16.7256   -3.1287 H   0  0  0  0  0  0  0  0  0  0  0  0
  1  2  1  0
  2  3  1  0
  3  4  1  0
  4  5  1  0
  5  6  1  0
  6  7  1  0
  7  8  1  0
  7  9  1  0
  2 10  1  0
 10 11  1  0
 11 12  1  0
 12 13  1  0
 13 14  1  1
 13 15  1  0
 15 16  1  0
 16 17  1  0
 17 18  2  0
 18 19  1  0
 19 20  1  0
 20 21  1  0
 21 22  1  0
 22 23  1  0
 22 24  1  0
 24 25  1  0
 24 26  1  0
 19 27  1  0
 27 28  1  6
 27 29  1  0
 29 30  1  0
 30 31  1  0
 31 32  1  6
  7  5  1  0
 31 10  1  0
 31 13  1  0
 27 15  1  0
 24 18  1  0
  1 33  1  0
  1 34  1  0
  1 35  1  0
  2 36  1  6
  3 37  1  0
  3 38  1  0
  4 39  1  0
  4 40  1  0
  5 41  1  1
  8 42  1  0
  8 43  1  0
  8 44  1  0
  9 45  1  0
  9 46  1  0
  9 47  1  0
 10 48  1  1
 11 49  1  0
 11 50  1  0
 12 51  1  0
 12 52  1  0
 14 53  1  0
 14 54  1  0
 14 55  1  0
 15 56  1  6
 16 57  1  0
 16 58  1  0
 17 59  1  0
 19 60  1  1
 20 61  1  0
 20 62  1  0
 21 63  1  0
 21 64  1  0
 22 65  1  1
 23 66  1  0
 25 67  1  0
 25 68  1  0
 25 69  1  0
 26 70  1  0
 26 71  1  0
 26 72  1  0
 28 73  1  0
 28 74  1  0
 28 75  1  0
 29 76  1  0
 29 77  1  0
 30 78  1  0
 30 79  1  0
 32 80  1  0
 32 81  1  0
 32 82  1  0
M  END
>  <meeko>  (3) 
{"is_sidechain": [false], "intermolecular_energy": 2.731, "internal_energy": -0.839}

$$$$
EPH_relaxed_0001_pdb2pqr_Repair_132_r2_0001_out
     RDKit          3D

 82 86  0  0  0  0  0  0  0  0999 V2000
    0.4300   18.4100   -0.0020 C   0  0  0  0  0  0  0  0  0  0  0  0
    1.5140   17.3520   -0.2290 C   0  0  2  0  0  0  0  0  0  0  0  0
    2.7240   17.9160   -1.0000 C   0  0  0  0  0  0  0  0  0  0  0  0
    3.9590   18.1460   -0.1250 C   0  0  0  0  0  0  0  0  0  0  0  0
    3.5850   18.6080    1.2510 C   0  0  2  0  0  0  0  0  0  0  0  0
    3.8290   19.9980    1.5020 O   0  0  0  0  0  0  0  0  0  0  0  0
    4.5980   19.0690    2.2830 C   0  0  0  0  0  0  0  0  0  0  0  0
    6.0640   19.0890    1.9830 C   0  0  0  0  0  0  0  0  0  0  0  0
    4.2130   19.0330    3.7290 C   0  0  0  0  0  0  0  0  0  0  0  0
    0.9280   16.1610   -0.9780 C   0  0  1  0  0  0  0  0  0  0  0  0
    0.7870   16.4230   -2.5010 C   0  0  0  0  0  0  0  0  0  0  0  0
    1.0640   15.0750   -3.2140 C   0  0  0  0  0  0  0  0  0  0  0  0
    1.0280   14.0200   -2.0840 C   0  0  1  0  0  0  0  0  0  0  0  0
   -0.4890   13.7310   -1.8550 C   0  0  0  0  0  0  0  0  0  0  0  0
    1.8340   12.7050   -2.3390 C   0  0  2  0  0  0  0  0  0  0  0  0
    1.3500   11.8640   -3.5330 C   0  0  0  0  0  0  0  0  0  0  0  0
    0.3170   10.8360   -3.2120 C   0  0  0  0  0  0  0  0  0  0  0  0
    0.0040   10.4010   -1.9770 C   0  0  0  0  0  0  0  0  0  0  0  0
    0.7880   10.8830   -0.7500 C   0  0  1  0  0  0  0  0  0  0  0  0
    1.1470    9.6680    0.1460 C   0  0  0  0  0  0  0  0  0  0  0  0
   -0.0770    8.8380    0.5240 C   0  0  0  0  0  0  0  0  0  0  0  0
   -0.7960    8.3280   -0.7220 C   0  0  2  0  0  0  0  0  0  0  0  0
    0.0510    7.3900   -1.3920 O   0  0  0  0  0  0  0  0  0  0  0  0
   -1.1980    9.4630   -1.7050 C   0  0  0  0  0  0  0  0  0  0  0  0
   -2.3420   10.3060   -1.0870 C   0  0  0  0  0  0  0  0  0  0  0  0
   -1.7870    8.8030   -2.9810 C   0  0  0  0  0  0  0  0  0  0  0  0
    2.0420   11.8120   -1.0490 C   0  0  1  0  0  0  0  0  0  0  0  0
    3.3030   10.9340   -1.3150 C   0  0  0  0  0  0  0  0  0  0  0  0
    2.3610   12.6730    0.2300 C   0  0  0  0  0  0  0  0  0  0  0  0
    1.6210   14.0170    0.3650 C   0  0  0  0  0  0  0  0  0  0  0  0
    1.7210   14.8310   -0.9290 C   0  0  2  0  0  0  0  0  0  0  0  0
    3.2340   15.1560   -1.1740 C   0  0  0  0  0  0  0  0  0  0  0  0
    0.2805   18.5559    1.0780 H   0  0  0  0  0  0  0  0  0  0  0  0
    0.7428   19.3597   -0.4605 H   0  0  0  0  0  0  0  0  0  0  0  0
   -0.5118   18.0742   -0.4605 H   0  0  0  0  0  0  0  0  0  0  0  0
    1.8741   17.0296    0.7591 H   0  0  0  0  0  0  0  0  0  0  0  0
    2.9902   17.2054   -1.7963 H   0  0  0  0  0  0  0  0  0  0  0  0
    2.4236   18.8973   -1.3960 H   0  0  0  0  0  0  0  0  0  0  0  0
    4.5195   17.2029   -0.0444 H   0  0  0  0  0  0  0  0  0  0  0  0
    4.5714   18.9295   -0.5952 H   0  0  0  0  0  0  0  0  0  0  0  0
    2.7632   17.8784    1.2986 H   0  0  0  0  0  0  0  0  0  0  0  0
    6.6311   19.0967    2.9255 H   0  0  0  0  0  0  0  0  0  0  0  0
    6.3315   18.1944    1.4015 H   0  0  0  0  0  0  0  0  0  0  0  0
    6.3070   19.9905    1.4015 H   0  0  0  0  0  0  0  0  0  0  0  0
    5.1162   19.1175    4.3511 H   0  0  0  0  0  0  0  0  0  0  0  0
    3.5363   19.8718    3.9493 H   0  0  0  0  0  0  0  0  0  0  0  0
    3.7035   18.0833    3.9493 H   0  0  0  0  0  0  0  0  0  0  0  0
   -0.0234   16.0526   -0.4366 H   0  0  0  0  0  0  0  0  0  0  0  0
   -0.2300   16.7722   -2.7328 H   0  0  0  0  0  0  0  0  0  0  0  0
    1.4916   17.1988   -2.8353 H   0  0  0  0  0  0  0  0  0  0  0  0
    0.2876   14.8663   -3.9647 H   0  0  0  0  0  0  0  0  0  0  0  0
    2.0238   15.0774   -3.7514 H   0  0  0  0  0  0  0  0  0  0  0  0
   -0.6959   13.6916   -0.7753 H   0  0  0  0  0  0  0  0  0  0  0  0
   -1.0881   14.5312   -2.3142 H   0  0  0  0  0  0  0  0  0  0  0  0
   -0.7519   12.7666   -2.3142 H   0  0  0  0  0  0  0  0  0  0  0  0
    2.8248   13.0874   -2.6256 H   0  0  0  0  0  0  0  0  0  0  0  0
    0.9262   12.5493   -4.2818 H   0  0  0  0  0  0  0  0  0  0  0  0
    2.2300   11.3095   -3.8910 H   0  0  0  0  0  0  0  0  0  0  0  0
   -0.2353   10.3966   -4.0557 H   0  0  0  0  0  0  0  0  0  0  0  0
    0.1139   11.5614   -0.2065 H   0  0  0  0  0  0  0  0  0  0  0  0
    1.8546    9.0253   -0.3983 H   0  0  0  0  0  0  0  0  0  0  0  0
    1.5869   10.0572    1.0761 H   0  0  0  0  0  0  0  0  0  0  0  0
    0.2441    7.9789    1.1313 H   0  0  0  0  0  0  0  0  0  0  0  0
   -0.7703    9.4741    1.0939 H   0  0  0  0  0  0  0  0  0  0  0  0
   -1.7314    7.8530   -0.3913 H   0  0  0  0  0  0  0  0  0  0  0  0
   -0.3100    6.5010   -1.2330 H   0  0  0  0  0  0  0  0  0  0  0  0
   -2.2797   10.2601    0.0103 H   0  0  0  0  0  0  0  0  0  0  0  0
   -2.2464   11.3512   -1.4163 H   0  0  0  0  0  0  0  0  0  0  0  0
   -3.3120    9.9051   -1.4163 H   0  0  0  0  0  0  0  0  0  0  0  0
   -2.4936    8.0112   -2.6915 H   0  0  0  0  0  0  0  0  0  0  0  0
   -2.3125    9.5631   -3.5778 H   0  0  0  0  0  0  0  0  0  0  0  0
   -0.9722    8.3671   -3.5778 H   0  0  0  0  0  0  0  0  0  0  0  0
    3.7447   10.6265   -0.3557 H   0  0  0  0  0  0  0  0  0  0  0  0
    3.0137   10.0410   -1.8885 H   0  0  0  0  0  0  0  0  0  0  0  0
    4.0401   11.5152   -1.8885 H   0  0  0  0  0  0  0  0  0  0  0  0
    2.1099   12.0649    1.1116 H   0  0  0  0  0  0  0  0  0  0  0  0
    3.4248   12.9380    0.1404 H   0  0  0  0  0  0  0  0  0  0  0  0
    0.5612   13.8234    0.5872 H   0  0  0  0  0  0  0  0  0  0  0  0
    2.0862   14.5932    1.1784 H   0  0  0  0  0  0  0  0  0  0  0  0
    3.7466   15.2661   -0.2070 H   0  0  0  0  0  0  0  0  0  0  0  0
    3.6974   14.3369   -1.7435 H   0  0  0  0  0  0  0  0  0  0  0  0
    3.3202   16.0931   -1.7435 H   0  0  0  0  0  0  0  0  0  0  0  0
  1  2  1  0
  2  3  1  0
  3  4  1  0
  4  5  1  0
  5  6  1  0
  6  7  1  0
  7  8  1  0
  7  9  1  0
  2 10  1  0
 10 11  1  0
 11 12  1  0
 12 13  1  0
 13 14  1  1
 13 15  1  0
 15 16  1  0
 16 17  1  0
 17 18  2  0
 18 19  1  0
 19 20  1  0
 20 21  1  0
 21 22  1  0
 22 23  1  0
 22 24  1  0
 24 25  1  0
 24 26  1  0
 19 27  1  0
 27 28  1  6
 27 29  1  0
 29 30  1  0
 30 31  1  0
 31 32  1  6
  7  5  1  0
 31 10  1  0
 31 13  1  0
 27 15  1  0
 24 18  1  0
  1 33  1  0
  1 34  1  0
  1 35  1  0
  2 36  1  1
  3 37  1  0
  3 38  1  0
  4 39  1  0
  4 40  1  0
  5 41  1  1
  8 42  1  0
  8 43  1  0
  8 44  1  0
  9 45  1  0
  9 46  1  0
  9 47  1  0
 10 48  1  1
 11 49  1  0
 11 50  1  0
 12 51  1  0
 12 52  1  0
 14 53  1  0
 14 54  1  0
 14 55  1  0
 15 56  1  6
 16 57  1  0
 16 58  1  0
 17 59  1  0
 19 60  1  1
 20 61  1  0
 20 62  1  0
 21 63  1  0
 21 64  1  0
 22 65  1  1
 23 66  1  0
 25 67  1  0
 25 68  1  0
 25 69  1  0
 26 70  1  0
 26 71  1  0
 26 72  1  0
 28 73  1  0
 28 74  1  0
 28 75  1  0
 29 76  1  0
 29 77  1  0
 30 78  1  0
 30 79  1  0
 32 80  1  0
 32 81  1  0
 32 82  1  0
M  END
>  <meeko>  (4) 
{"is_sidechain": [false], "intermolecular_energy": 2.731, "internal_energy": -0.839}

$$$$
EPH_relaxed_0001_pdb2pqr_Repair_132_r2_0001_out
     RDKit          3D

 82 86  0  0  0  0  0  0  0  0999 V2000
    3.5020   18.0440    0.8570 C   0  0  0  0  0  0  0  0  0  0  0  0
    2.5760   18.4150   -0.3050 C   0  0  2  0  0  0  0  0  0  0  0  0
    1.8130   19.7290   -0.0430 C   0  0  0  0  0  0  0  0  0  0  0  0
    0.6910   19.5940    0.9890 C   0  0  0  0  0  0  0  0  0  0  0  0
   -0.5970   20.1750    0.4870 C   0  0  2  0  0  0  0  0  0  0  0  0
   -1.6620   20.1880    1.4470 O   0  0  0  0  0  0  0  0  0  0  0  0
   -1.8610   19.3600    0.2900 C   0  0  0  0  0  0  0  0  0  0  0  0
   -1.9000   17.8950    0.5890 C   0  0  0  0  0  0  0  0  0  0  0  0
   -2.9060   19.8780   -0.6490 C   0  0  0  0  0  0  0  0  0  0  0  0
    1.5900   17.2830   -0.5660 C   0  0  1  0  0  0  0  0  0  0  0  0
    0.4220   17.7100   -1.4940 C   0  0  0  0  0  0  0  0  0  0  0  0
    0.0630   16.4750   -2.3590 C   0  0  0  0  0  0  0  0  0  0  0  0
    0.7990   15.2960   -1.6800 C   0  0  1  0  0  0  0  0  0  0  0  0
   -0.1200   14.8840   -0.4860 C   0  0  0  0  0  0  0  0  0  0  0  0
    1.1390   14.0740   -2.5940 C   0  0  2  0  0  0  0  0  0  0  0  0
   -0.0780   13.3480   -3.1920 C   0  0  0  0  0  0  0  0  0  0  0  0
   -0.6180   12.2240   -2.3700 C   0  0  0  0  0  0  0  0  0  0  0  0
    0.0190   11.6300   -1.3440 C   0  0  0  0  0  0  0  0  0  0  0  0
    1.4580   12.0160   -0.9800 C   0  0  1  0  0  0  0  0  0  0  0  0
    2.3010   10.7320   -0.7640 C   0  0  0  0  0  0  0  0  0  0  0  0
    1.6740    9.7870    0.2570 C   0  0  0  0  0  0  0  0  0  0  0  0
    0.2660    9.3790   -0.1690 C   0  0  2  0  0  0  0  0  0  0  0  0
    0.3560    8.5810   -1.3530 O   0  0  0  0  0  0  0  0  0  0  0  0
   -0.6710   10.5920   -0.4250 C   0  0  0  0  0  0  0  0  0  0  0  0
   -1.0100   11.2810    0.9190 C   0  0  0  0  0  0  0  0  0  0  0  0
   -2.0140   10.0470   -0.9840 C   0  0  0  0  0  0  0  0  0  0  0  0
    2.1650   13.0530   -1.9560 C   0  0  1  0  0  0  0  0  0  0  0  0
    2.8350   12.2950   -3.1420 C   0  0  0  0  0  0  0  0  0  0  0  0
    3.3270   13.7790   -1.1800 C   0  0  0  0  0  0  0  0  0  0  0  0
    2.9500   15.0480   -0.3920 C   0  0  0  0  0  0  0  0  0  0  0  0
    2.1350   16.0100   -1.2610 C   0  0  2  0  0  0  0  0  0  0  0  0
    3.0410   16.4590   -2.4580 C   0  0  0  0  0  0  0  0  0  0  0  0
    2.9933   18.2478    1.8107 H   0  0  0  0  0  0  0  0  0  0  0  0
    3.7549   16.9751    0.7974 H   0  0  0  0  0  0  0  0  0  0  0  0
    4.4230   18.6426    0.7974 H   0  0  0  0  0  0  0  0  0  0  0  0
    3.2060   18.5709   -1.1931 H   0  0  0  0  0  0  0  0  0  0  0  0
    2.5299   20.4804    0.3198 H   0  0  0  0  0  0  0  0  0  0  0  0
    1.3422   20.0221   -0.9930 H   0  0  0  0  0  0  0  0  0  0  0  0
    0.5381   18.5277    1.2120 H   0  0  0  0  0  0  0  0  0  0  0  0
    0.9876   20.1471    1.8924 H   0  0  0  0  0  0  0  0  0  0  0  0
   -0.0549   20.8672   -0.1740 H   0  0  0  0  0  0  0  0  0  0  0  0
   -1.9040   17.7431    1.6785 H   0  0  0  0  0  0  0  0  0  0  0  0
   -2.8101   17.4561    0.1542 H   0  0  0  0  0  0  0  0  0  0  0  0
   -1.0145   17.4083    0.1542 H   0  0  0  0  0  0  0  0  0  0  0  0
   -3.7446   20.2937   -0.0711 H   0  0  0  0  0  0  0  0  0  0  0  0
   -2.4717   20.6651   -1.2829 H   0  0  0  0  0  0  0  0  0  0  0  0
   -3.2694   19.0557   -1.2829 H   0  0  0  0  0  0  0  0  0  0  0  0
    1.2990   17.0507    0.4690 H   0  0  0  0  0  0  0  0  0  0  0  0
   -0.4466   18.0167   -0.8928 H   0  0  0  0  0  0  0  0  0  0  0  0
    0.7110   18.5634   -2.1250 H   0  0  0  0  0  0  0  0  0  0  0  0
   -1.0238   16.3049   -2.3610 H   0  0  0  0  0  0  0  0  0  0  0  0
    0.3595   16.6018   -3.4107 H   0  0  0  0  0  0  0  0  0  0  0  0
    0.3877   15.1116    0.4629 H   0  0  0  0  0  0  0  0  0  0  0  0
   -1.0648   15.4447   -0.5401 H   0  0  0  0  0  0  0  0  0  0  0  0
   -0.3300   13.8056   -0.5401 H   0  0  0  0  0  0  0  0  0  0  0  0
    1.6497   14.5504   -3.4438 H   0  0  0  0  0  0  0  0  0  0  0  0
   -0.8817   14.0867   -3.3273 H   0  0  0  0  0  0  0  0  0  0  0  0
    0.2691   12.8970   -4.1333 H   0  0  0  0  0  0  0  0  0  0  0  0
   -1.6207   11.8502   -2.6246 H   0  0  0  0  0  0  0  0  0  0  0  0
    1.3920   12.5810   -0.0385 H   0  0  0  0  0  0  0  0  0  0  0  0
    2.3918   10.2037   -1.7246 H   0  0  0  0  0  0  0  0  0  0  0  0
    3.2840   11.0384   -0.3768 H   0  0  0  0  0  0  0  0  0  0  0  0
    2.2988    8.8859    0.3446 H   0  0  0  0  0  0  0  0  0  0  0  0
    1.6110   10.3072    1.2242 H   0  0  0  0  0  0  0  0  0  0  0  0
   -0.1785    8.8092    0.6603 H   0  0  0  0  0  0  0  0  0  0  0  0
    1.1430    8.0160   -1.2680 H   0  0  0  0  0  0  0  0  0  0  0  0
   -0.6928   10.6362    1.7518 H   0  0  0  0  0  0  0  0  0  0  0  0
   -0.4832   12.2447    0.9801 H   0  0  0  0  0  0  0  0  0  0  0  0
   -2.0950   11.4517    0.9801 H   0  0  0  0  0  0  0  0  0  0  0  0
   -2.6768    9.7780   -0.1483 H   0  0  0  0  0  0  0  0  0  0  0  0
   -2.4958   10.8208   -1.5998 H   0  0  0  0  0  0  0  0  0  0  0  0
   -1.8204    9.1563   -1.5998 H   0  0  0  0  0  0  0  0  0  0  0  0
    3.5151   11.5255   -2.7479 H   0  0  0  0  0  0  0  0  0  0  0  0
    2.0584   11.8175   -3.7575 H   0  0  0  0  0  0  0  0  0  0  0  0
    3.4043   13.0071   -3.7575 H   0  0  0  0  0  0  0  0  0  0  0  0
    3.7515   13.0579   -0.4660 H   0  0  0  0  0  0  0  0  0  0  0  0
    4.0237   14.1209   -1.9596 H   0  0  0  0  0  0  0  0  0  0  0  0
    2.3525   14.7622    0.4862 H   0  0  0  0  0  0  0  0  0  0  0  0
    3.8749   15.5550   -0.0796 H   0  0  0  0  0  0  0  0  0  0  0  0
    3.9629   16.9159   -2.0689 H   0  0  0  0  0  0  0  0  0  0  0  0
    3.2969   15.5834   -3.0727 H   0  0  0  0  0  0  0  0  0  0  0  0
    2.4993   17.1929   -3.0727 H   0  0  0  0  0  0  0  0  0  0  0  0
  1  2  1  0
  2  3  1  0
  3  4  1  0
  4  5  1  0
  5  6  1  0
  6  7  1  0
  7  8  1  0
  7  9  1  0
  2 10  1  0
 10 11  1  0
 11 12  1  0
 12 13  1  0
 13 14  1  1
 13 15  1  0
 15 16  1  0
 16 17  1  0
 17 18  2  0
 18 19  1  0
 19 20  1  0
 20 21  1  0
 21 22  1  0
 22 23  1  0
 22 24  1  0
 24 25  1  0
 24 26  1  0
 19 27  1  0
 27 28  1  6
 27 29  1  0
 29 30  1  0
 30 31  1  0
 31 32  1  6
  7  5  1  0
 31 10  1  0
 31 13  1  0
 27 15  1  0
 24 18  1  0
  1 33  1  0
  1 34  1  0
  1 35  1  0
  2 36  1  6
  3 37  1  0
  3 38  1  0
  4 39  1  0
  4 40  1  0
  5 41  1  6
  8 42  1  0
  8 43  1  0
  8 44  1  0
  9 45  1  0
  9 46  1  0
  9 47  1  0
 10 48  1  1
 11 49  1  0
 11 50  1  0
 12 51  1  0
 12 52  1  0
 14 53  1  0
 14 54  1  0
 14 55  1  0
 15 56  1  6
 16 57  1  0
 16 58  1  0
 17 59  1  0
 19 60  1  1
 20 61  1  0
 20 62  1  0
 21 63  1  0
 21 64  1  0
 22 65  1  1
 23 66  1  0
 25 67  1  0
 25 68  1  0
 25 69  1  0
 26 70  1  0
 26 71  1  0
 26 72  1  0
 28 73  1  0
 28 74  1  0
 28 75  1  0
 29 76  1  0
 29 77  1  0
 30 78  1  0
 30 79  1  0
 32 80  1  0
 32 81  1  0
 32 82  1  0
M  END
>  <meeko>  (5) 
{"is_sidechain": [false], "intermolecular_energy": 2.731, "internal_energy": -0.839}

$$$$
EPH_relaxed_0001_pdb2pqr_Repair_132_r2_0001_out
     RDKit          3D

 82 86  0  0  0  0  0  0  0  0999 V2000
   -5.1710    5.7930   -1.7080 C   0  0  0  0  0  0  0  0  0  0  0  0
   -5.4580    7.2960   -1.7660 C   0  0  2  0  0  0  0  0  0  0  0  0
   -5.2310    7.9830   -0.4040 C   0  0  0  0  0  0  0  0  0  0  0  0
   -4.1760    9.0920   -0.4420 C   0  0  0  0  0  0  0  0  0  0  0  0
   -2.8370    8.5690   -0.8640 C   0  0  2  0  0  0  0  0  0  0  0  0
   -1.7760    8.8170    0.0680 O   0  0  0  0  0  0  0  0  0  0  0  0
   -1.6610    9.4620   -1.2100 C   0  0  0  0  0  0  0  0  0  0  0  0
   -1.7700   10.9540   -1.1510 C   0  0  0  0  0  0  0  0  0  0  0  0
   -0.5680    8.9070   -2.0700 C   0  0  0  0  0  0  0  0  0  0  0  0
   -6.8870    7.5350   -2.2390 C   0  0  1  0  0  0  0  0  0  0  0  0
   -7.1900    6.8440   -3.5950 C   0  0  0  0  0  0  0  0  0  0  0  0
   -8.6700    6.3830   -3.5410 C   0  0  0  0  0  0  0  0  0  0  0  0
   -9.2590    7.1070   -2.3080 C   0  0  1  0  0  0  0  0  0  0  0  0
   -9.5950    8.5460   -2.8100 C   0  0  0  0  0  0  0  0  0  0  0  0
  -10.4950    6.4270   -1.6330 C   0  0  2  0  0  0  0  0  0  0  0  0
  -11.7440    6.3140   -2.5250 C   0  0  0  0  0  0  0  0  0  0  0  0
  -12.6890    7.4670   -2.4480 C   0  0  0  0  0  0  0  0  0  0  0  0
  -12.6920    8.4140   -1.4910 C   0  0  0  0  0  0  0  0  0  0  0  0
  -11.7360    8.3270   -0.2940 C   0  0  1  0  0  0  0  0  0  0  0  0
  -12.5190    8.6090    1.0150 C   0  0  0  0  0  0  0  0  0  0  0  0
  -13.2770    9.9320    0.9690 C   0  0  0  0  0  0  0  0  0  0  0  0
  -14.2590    9.9580   -0.2000 C   0  0  2  0  0  0  0  0  0  0  0  0
  -15.2860    8.9910    0.0400 O   0  0  0  0  0  0  0  0  0  0  0  0
  -13.5860    9.6760   -1.5720 C   0  0  0  0  0  0  0  0  0  0  0  0
  -12.6950   10.8780   -1.9710 C   0  0  0  0  0  0  0  0  0  0  0  0
  -14.7050    9.5900   -2.6440 C   0  0  0  0  0  0  0  0  0  0  0  0
  -10.8550    7.0070   -0.2060 C   0  0  1  0  0  0  0  0  0  0  0  0
  -11.6430    5.8900    0.5430 C   0  0  0  0  0  0  0  0  0  0  0  0
   -9.5730    7.3020    0.6600 C   0  0  0  0  0  0  0  0  0  0  0  0
   -8.3450    7.8600   -0.0840 C   0  0  0  0  0  0  0  0  0  0  0  0
   -8.0320    7.0240   -1.3280 C   0  0  2  0  0  0  0  0  0  0  0  0
   -7.6680    5.5760   -0.8530 C   0  0  0  0  0  0  0  0  0  0  0  0
   -5.1096    5.4717   -0.6578 H   0  0  0  0  0  0  0  0  0  0  0  0
   -5.9808    5.2453   -2.2123 H   0  0  0  0  0  0  0  0  0  0  0  0
   -4.2164    5.5823   -2.2123 H   0  0  0  0  0  0  0  0  0  0  0  0
   -4.7511    7.7407   -2.4819 H   0  0  0  0  0  0  0  0  0  0  0  0
   -6.1840    8.4215   -0.0732 H   0  0  0  0  0  0  0  0  0  0  0  0
   -4.8614    7.2114    0.2875 H   0  0  0  0  0  0  0  0  0  0  0  0
   -4.4974    9.8655   -1.1550 H   0  0  0  0  0  0  0  0  0  0  0  0
   -4.0780    9.5068    0.5721 H   0  0  0  0  0  0  0  0  0  0  0  0
   -3.3071    7.7289   -1.3961 H   0  0  0  0  0  0  0  0  0  0  0  0
   -1.7937   11.2786   -0.1003 H   0  0  0  0  0  0  0  0  0  0  0  0
   -0.9024   11.4052   -1.6547 H   0  0  0  0  0  0  0  0  0  0  0  0
   -2.6939   11.2744   -1.6547 H   0  0  0  0  0  0  0  0  0  0  0  0
    0.2307    8.5014   -1.4316 H   0  0  0  0  0  0  0  0  0  0  0  0
   -0.9725    8.1051   -2.7051 H   0  0  0  0  0  0  0  0  0  0  0  0
   -0.1593    9.7068   -2.7051 H   0  0  0  0  0  0  0  0  0  0  0  0
   -6.8912    8.6346   -2.2677 H   0  0  0  0  0  0  0  0  0  0  0  0
   -7.0442    7.5536   -4.4228 H   0  0  0  0  0  0  0  0  0  0  0  0
   -6.5163    5.9908   -3.7629 H   0  0  0  0  0  0  0  0  0  0  0  0
   -9.2028    6.6794   -4.4566 H   0  0  0  0  0  0  0  0  0  0  0  0
   -8.7640    5.2895   -3.4672 H   0  0  0  0  0  0  0  0  0  0  0  0
   -9.7498    9.2089   -1.9460 H   0  0  0  0  0  0  0  0  0  0  0  0
   -8.7614    8.9259   -3.4189 H   0  0  0  0  0  0  0  0  0  0  0  0
  -10.5106    8.5174   -3.4189 H   0  0  0  0  0  0  0  0  0  0  0  0
  -10.1428    5.3964   -1.4785 H   0  0  0  0  0  0  0  0  0  0  0  0
  -11.4090    6.2182   -3.5684 H   0  0  0  0  0  0  0  0  0  0  0  0
  -12.3011    5.4390   -2.1590 H   0  0  0  0  0  0  0  0  0  0  0  0
  -13.4473    7.5500   -3.2405 H   0  0  0  0  0  0  0  0  0  0  0  0
  -10.9784    9.1089   -0.4513 H   0  0  0  0  0  0  0  0  0  0  0  0
  -13.2405    7.7946    1.1769 H   0  0  0  0  0  0  0  0  0  0  0  0
  -11.7882    8.6709    1.8348 H   0  0  0  0  0  0  0  0  0  0  0  0
  -13.8331   10.0611    1.9092 H   0  0  0  0  0  0  0  0  0  0  0  0
  -12.5513   10.7479    0.8361 H   0  0  0  0  0  0  0  0  0  0  0  0
  -14.6757   10.9743   -0.2586 H   0  0  0  0  0  0  0  0  0  0  0  0
  -15.8110    8.9110   -0.7740 H   0  0  0  0  0  0  0  0  0  0  0  0
  -12.3249   11.3773   -1.0634 H   0  0  0  0  0  0  0  0  0  0  0  0
  -11.8421   10.5204   -2.5665 H   0  0  0  0  0  0  0  0  0  0  0  0
  -13.2851   11.5901   -2.5665 H   0  0  0  0  0  0  0  0  0  0  0  0
  -15.6836    9.5148   -2.1473 H   0  0  0  0  0  0  0  0  0  0  0  0
  -14.6811   10.4926   -3.2722 H   0  0  0  0  0  0  0  0  0  0  0  0
  -14.5434    8.7016   -3.2722 H   0  0  0  0  0  0  0  0  0  0  0  0
  -11.5411    6.0345    1.6287 H   0  0  0  0  0  0  0  0  0  0  0  0
  -12.7059    5.9414    0.2644 H   0  0  0  0  0  0  0  0  0  0  0  0
  -11.2381    4.9059    0.2644 H   0  0  0  0  0  0  0  0  0  0  0  0
   -9.8543    8.0328    1.4326 H   0  0  0  0  0  0  0  0  0  0  0  0
   -9.2548    6.3223    1.0458 H   0  0  0  0  0  0  0  0  0  0  0  0
   -8.5495    8.8968   -0.3892 H   0  0  0  0  0  0  0  0  0  0  0  0
   -7.4779    7.8218    0.5918 H   0  0  0  0  0  0  0  0  0  0  0  0
   -7.6595    5.5421    0.2464 H   0  0  0  0  0  0  0  0  0  0  0  0
   -8.4155    4.8657   -1.2360 H   0  0  0  0  0  0  0  0  0  0  0  0
   -6.6734    5.3036   -1.2360 H   0  0  0  0  0  0  0  0  0  0  0  0
  1  2  1  0
  2  3  1  0
  3  4  1  0
  4  5  1  0
  5  6  1  0
  6  7  1  0
  7  8  1  0
  7  9  1  0
  2 10  1  0
 10 11  1  0
 11 12  1  0
 12 13  1  0
 13 14  1  6
 13 15  1  0
 15 16  1  0
 16 17  1  0
 17 18  2  0
 18 19  1  0
 19 20  1  0
 20 21  1  0
 21 22  1  0
 22 23  1  0
 22 24  1  0
 24 25  1  0
 24 26  1  0
 19 27  1  0
 27 28  1  1
 27 29  1  0
 29 30  1  0
 30 31  1  0
 31 32  1  1
  7  5  1  0
 31 10  1  0
 31 13  1  0
 27 15  1  0
 24 18  1  0
  1 33  1  0
  1 34  1  0
  1 35  1  0
  2 36  1  6
  3 37  1  0
  3 38  1  0
  4 39  1  0
  4 40  1  0
  5 41  1  6
  8 42  1  0
  8 43  1  0
  8 44  1  0
  9 45  1  0
  9 46  1  0
  9 47  1  0
 10 48  1  6
 11 49  1  0
 11 50  1  0
 12 51  1  0
 12 52  1  0
 14 53  1  0
 14 54  1  0
 14 55  1  0
 15 56  1  1
 16 57  1  0
 16 58  1  0
 17 59  1  0
 19 60  1  6
 20 61  1  0
 20 62  1  0
 21 63  1  0
 21 64  1  0
 22 65  1  6
 23 66  1  0
 25 67  1  0
 25 68  1  0
 25 69  1  0
 26 70  1  0
 26 71  1  0
 26 72  1  0
 28 73  1  0
 28 74  1  0
 28 75  1  0
 29 76  1  0
 29 77  1  0
 30 78  1  0
 30 79  1  0
 32 80  1  0
 32 81  1  0
 32 82  1  0
M  END
>  <meeko>  (6) 
{"is_sidechain": [false], "intermolecular_energy": 2.731, "internal_energy": -0.839}

$$$$
EPH_relaxed_0001_pdb2pqr_Repair_132_r2_0001_out
     RDKit          3D

 82 86  0  0  0  0  0  0  0  0999 V2000
    0.4490    8.8050   -2.3630 C   0  0  0  0  0  0  0  0  0  0  0  0
    1.1830    9.9450   -3.0740 C   0  0  2  0  0  0  0  0  0  0  0  0
    2.6870    9.9700   -2.7320 C   0  0  0  0  0  0  0  0  0  0  0  0
    3.5540   10.6180   -3.8140 C   0  0  0  0  0  0  0  0  0  0  0  0
    4.9530   10.8580   -3.3340 C   0  0  2  0  0  0  0  0  0  0  0  0
    5.5540   12.0650   -3.8200 O   0  0  0  0  0  0  0  0  0  0  0  0
    6.1660   10.8370   -4.2460 C   0  0  0  0  0  0  0  0  0  0  0  0
    6.0350   10.5690   -5.7120 C   0  0  0  0  0  0  0  0  0  0  0  0
    7.5120   10.5920   -3.6400 C   0  0  0  0  0  0  0  0  0  0  0  0
    0.5440   11.2810   -2.7110 C   0  0  1  0  0  0  0  0  0  0  0  0
   -0.8360   11.1150   -2.0210 C   0  0  0  0  0  0  0  0  0  0  0  0
   -0.9550   12.2560   -0.9790 C   0  0  0  0  0  0  0  0  0  0  0  0
    0.1980   13.2260   -1.3290 C   0  0  1  0  0  0  0  0  0  0  0  0
   -0.3460   14.0830   -2.5150 C   0  0  0  0  0  0  0  0  0  0  0  0
    0.7240   14.1230   -0.1620 C   0  0  2  0  0  0  0  0  0  0  0  0
   -0.3080   15.1020    0.4250 C   0  0  0  0  0  0  0  0  0  0  0  0
   -0.3470   16.4490   -0.2180 C   0  0  0  0  0  0  0  0  0  0  0  0
    0.5990   16.9550   -1.0300 C   0  0  0  0  0  0  0  0  0  0  0  0
    1.9010   16.1890   -1.2970 C   0  0  1  0  0  0  0  0  0  0  0  0
    3.1070   17.1540   -1.1630 C   0  0  0  0  0  0  0  0  0  0  0  0
    2.9670   18.3910   -2.0450 C   0  0  0  0  0  0  0  0  0  0  0  0
    1.6910   19.1590   -1.7090 C   0  0  2  0  0  0  0  0  0  0  0  0
    1.8120   19.6990   -0.3900 O   0  0  0  0  0  0  0  0  0  0  0  0
    0.4090   18.2850   -1.8010 C   0  0  0  0  0  0  0  0  0  0  0  0
    0.1130   17.9490   -3.2840 C   0  0  0  0  0  0  0  0  0  0  0  0
   -0.7880   19.1390   -1.3030 C   0  0  0  0  0  0  0  0  0  0  0  0
    2.0970   14.8470   -0.4690 C   0  0  1  0  0  0  0  0  0  0  0  0
    2.7520   15.1640    0.9110 C   0  0  0  0  0  0  0  0  0  0  0  0
    3.1070   13.9130   -1.2350 C   0  0  0  0  0  0  0  0  0  0  0  0
    2.5110   12.9640   -2.2920 C   0  0  0  0  0  0  0  0  0  0  0  0
    1.3150   12.1930   -1.7240 C   0  0  2  0  0  0  0  0  0  0  0  0
    1.8350   11.3050   -0.5430 C   0  0  0  0  0  0  0  0  0  0  0  0
    0.5339    8.9369   -1.2742 H   0  0  0  0  0  0  0  0  0  0  0  0
   -0.6123    8.8157   -2.6519 H   0  0  0  0  0  0  0  0  0  0  0  0
    0.8980    7.8433   -2.6519 H   0  0  0  0  0  0  0  0  0  0  0  0
    1.0934    9.7719   -4.1566 H   0  0  0  0  0  0  0  0  0  0  0  0
    2.8210   10.5329   -1.7965 H   0  0  0  0  0  0  0  0  0  0  0  0
    3.0135    8.9234   -2.6429 H   0  0  0  0  0  0  0  0  0  0  0  0
    3.5868    9.9533   -4.6898 H   0  0  0  0  0  0  0  0  0  0  0  0
    3.1091   11.5901   -4.0730 H   0  0  0  0  0  0  0  0  0  0  0  0
    4.7376   10.3528   -2.3809 H   0  0  0  0  0  0  0  0  0  0  0  0
    5.5566    9.5903   -5.8645 H   0  0  0  0  0  0  0  0  0  0  0  0
    5.4191   11.3542   -6.1747 H   0  0  0  0  0  0  0  0  0  0  0  0
    7.0329   10.5654   -6.1747 H   0  0  0  0  0  0  0  0  0  0  0  0
    7.4286   10.6072   -2.5433 H   0  0  0  0  0  0  0  0  0  0  0  0
    7.8876    9.6107   -3.9656 H   0  0  0  0  0  0  0  0  0  0  0  0
    8.2093   11.3780   -3.9656 H   0  0  0  0  0  0  0  0  0  0  0  0
    0.5116   11.7468   -3.7070 H   0  0  0  0  0  0  0  0  0  0  0  0
   -1.6431   11.1949   -2.7641 H   0  0  0  0  0  0  0  0  0  0  0  0
   -0.9207   10.1297   -1.5392 H   0  0  0  0  0  0  0  0  0  0  0  0
   -1.9279   12.7617   -1.0664 H   0  0  0  0  0  0  0  0  0  0  0  0
   -0.8891   11.8855    0.0546 H   0  0  0  0  0  0  0  0  0  0  0  0
   -0.8960   14.9495   -2.1192 H   0  0  0  0  0  0  0  0  0  0  0  0
    0.4956   14.4330   -3.1307 H   0  0  0  0  0  0  0  0  0  0  0  0
   -1.0209   13.4704   -3.1307 H   0  0  0  0  0  0  0  0  0  0  0  0
    0.9216   13.3862    0.6305 H   0  0  0  0  0  0  0  0  0  0  0  0
   -1.3044   14.6474    0.3224 H   0  0  0  0  0  0  0  0  0  0  0  0
   -0.0066   15.2719    1.4692 H   0  0  0  0  0  0  0  0  0  0  0  0
   -1.2230   17.0810   -0.0103 H   0  0  0  0  0  0  0  0  0  0  0  0
    1.8315   15.8220   -2.3316 H   0  0  0  0  0  0  0  0  0  0  0  0
    3.1863   17.4759   -0.1141 H   0  0  0  0  0  0  0  0  0  0  0  0
    4.0067   16.6115   -1.4890 H   0  0  0  0  0  0  0  0  0  0  0  0
    3.8350   19.0474   -1.8849 H   0  0  0  0  0  0  0  0  0  0  0  0
    2.9168   18.0692   -3.0957 H   0  0  0  0  0  0  0  0  0  0  0  0
    1.5799   19.9585   -2.4563 H   0  0  0  0  0  0  0  0  0  0  0  0
    2.1760   20.5970   -0.4720 H   0  0  0  0  0  0  0  0  0  0  0  0
   -0.6133   17.1245   -3.3352 H   0  0  0  0  0  0  0  0  0  0  0  0
   -0.3029   18.8357   -3.7849 H   0  0  0  0  0  0  0  0  0  0  0  0
    1.0450   17.6483   -3.7849 H   0  0  0  0  0  0  0  0  0  0  0  0
   -0.7999   19.1475   -0.2031 H   0  0  0  0  0  0  0  0  0  0  0  0
   -0.6845   20.1685   -1.6765 H   0  0  0  0  0  0  0  0  0  0  0  0
   -1.7278   18.7062   -1.6765 H   0  0  0  0  0  0  0  0  0  0  0  0
    2.0802   14.8389    1.7191 H   0  0  0  0  0  0  0  0  0  0  0  0
    3.7101   14.6299    0.9935 H   0  0  0  0  0  0  0  0  0  0  0  0
    2.9276   16.2468    0.9935 H   0  0  0  0  0  0  0  0  0  0  0  0
    3.8383   14.5592   -1.7426 H   0  0  0  0  0  0  0  0  0  0  0  0
    3.5314   13.2540   -0.4633 H   0  0  0  0  0  0  0  0  0  0  0  0
    2.1799   13.5539   -3.1594 H   0  0  0  0  0  0  0  0  0  0  0  0
    3.2846   12.2413   -2.5908 H   0  0  0  0  0  0  0  0  0  0  0  0
    1.5616   11.7719    0.4147 H   0  0  0  0  0  0  0  0  0  0  0  0
    1.3792   10.3059   -0.6072 H   0  0  0  0  0  0  0  0  0  0  0  0
    2.9293   11.2136   -0.6072 H   0  0  0  0  0  0  0  0  0  0  0  0
  1  2  1  0
  2  3  1  0
  3  4  1  0
  4  5  1  0
  5  6  1  0
  6  7  1  0
  7  8  1  0
  7  9  1  0
  2 10  1  0
 10 11  1  0
 11 12  1  0
 12 13  1  0
 13 14  1  6
 13 15  1  0
 15 16  1  0
 16 17  1  0
 17 18  2  0
 18 19  1  0
 19 20  1  0
 20 21  1  0
 21 22  1  0
 22 23  1  0
 22 24  1  0
 24 25  1  0
 24 26  1  0
 19 27  1  0
 27 28  1  1
 27 29  1  0
 29 30  1  0
 30 31  1  0
 31 32  1  1
  7  5  1  0
 31 10  1  0
 31 13  1  0
 27 15  1  0
 24 18  1  0
  1 33  1  0
  1 34  1  0
  1 35  1  0
  2 36  1  6
  3 37  1  0
  3 38  1  0
  4 39  1  0
  4 40  1  0
  5 41  1  1
  8 42  1  0
  8 43  1  0
  8 44  1  0
  9 45  1  0
  9 46  1  0
  9 47  1  0
 10 48  1  6
 11 49  1  0
 11 50  1  0
 12 51  1  0
 12 52  1  0
 14 53  1  0
 14 54  1  0
 14 55  1  0
 15 56  1  1
 16 57  1  0
 16 58  1  0
 17 59  1  0
 19 60  1  6
 20 61  1  0
 20 62  1  0
 21 63  1  0
 21 64  1  0
 22 65  1  6
 23 66  1  0
 25 67  1  0
 25 68  1  0
 25 69  1  0
 26 70  1  0
 26 71  1  0
 26 72  1  0
 28 73  1  0
 28 74  1  0
 28 75  1  0
 29 76  1  0
 29 77  1  0
 30 78  1  0
 30 79  1  0
 32 80  1  0
 32 81  1  0
 32 82  1  0
M  END
>  <meeko>  (7) 
{"is_sidechain": [false], "intermolecular_energy": 2.731, "internal_energy": -0.839}

$$$$
EPH_relaxed_0001_pdb2pqr_Repair_132_r2_0001_out
     RDKit          3D

 82 86  0  0  0  0  0  0  0  0999 V2000
    0.4710   10.3200   -3.6250 C   0  0  0  0  0  0  0  0  0  0  0  0
    0.0740   10.1090   -2.1620 C   0  0  2  0  0  0  0  0  0  0  0  0
   -1.4080    9.7100   -2.0140 C   0  0  0  0  0  0  0  0  0  0  0  0
   -1.7500    9.1040   -0.6500 C   0  0  0  0  0  0  0  0  0  0  0  0
   -3.1860    9.3290   -0.2870 C   0  0  2  0  0  0  0  0  0  0  0  0
   -3.7900    8.2630    0.4570 O   0  0  0  0  0  0  0  0  0  0  0  0
   -4.3300    8.5070   -0.8510 C   0  0  0  0  0  0  0  0  0  0  0  0
   -4.0880    7.3980   -1.8270 C   0  0  0  0  0  0  0  0  0  0  0  0
   -5.7080    9.0930   -0.8350 C   0  0  0  0  0  0  0  0  0  0  0  0
    0.3550   11.3740   -1.3590 C   0  0  1  0  0  0  0  0  0  0  0  0
    1.4410   11.1620   -0.2710 C   0  0  0  0  0  0  0  0  0  0  0  0
    2.2420   12.4860   -0.1740 C   0  0  0  0  0  0  0  0  0  0  0  0
    1.3920   13.5130   -0.9580 C   0  0  1  0  0  0  0  0  0  0  0  0
    0.2830   13.9640    0.0440 C   0  0  0  0  0  0  0  0  0  0  0  0
    2.1630   14.7360   -1.5540 C   0  0  2  0  0  0  0  0  0  0  0  0
    2.8370   15.6510   -0.5160 C   0  0  0  0  0  0  0  0  0  0  0  0
    1.9960   16.7810   -0.0200 C   0  0  0  0  0  0  0  0  0  0  0  0
    0.8600   17.2210   -0.5940 C   0  0  0  0  0  0  0  0  0  0  0  0
    0.3660   16.6280   -1.9200 C   0  0  1  0  0  0  0  0  0  0  0  0
   -0.0450   17.7760   -2.8780 C   0  0  0  0  0  0  0  0  0  0  0  0
   -1.0590   18.7280   -2.2510 C   0  0  0  0  0  0  0  0  0  0  0  0
   -0.5090   19.3410   -0.9660 C   0  0  2  0  0  0  0  0  0  0  0  0
    0.5910   20.1940   -1.2970 O   0  0  0  0  0  0  0  0  0  0  0  0
   -0.0520   18.2790    0.0730 C   0  0  0  0  0  0  0  0  0  0  0  0
   -1.2910   17.5550    0.6560 C   0  0  0  0  0  0  0  0  0  0  0  0
    0.6110   19.0280    1.2610 C   0  0  0  0  0  0  0  0  0  0  0  0
    1.3330   15.5730   -2.6100 C   0  0  1  0  0  0  0  0  0  0  0  0
    2.3720   16.3120   -3.5080 C   0  0  0  0  0  0  0  0  0  0  0  0
    0.4900   14.6550   -3.5710 C   0  0  0  0  0  0  0  0  0  0  0  0
   -0.1480   13.3980   -2.9490 C   0  0  0  0  0  0  0  0  0  0  0  0
    0.8810   12.6060   -2.1360 C   0  0  2  0  0  0  0  0  0  0  0  0
    1.9990   12.1210   -3.1220 C   0  0  0  0  0  0  0  0  0  0  0  0
    1.4415   10.8358   -3.6708 H   0  0  0  0  0  0  0  0  0  0  0  0
    0.5499    9.3448   -4.1278 H   0  0  0  0  0  0  0  0  0  0  0  0
   -0.2931   10.9310   -4.1278 H   0  0  0  0  0  0  0  0  0  0  0  0
    0.6803    9.2784   -1.7716 H   0  0  0  0  0  0  0  0  0  0  0  0
   -2.0256   10.6086   -2.1593 H   0  0  0  0  0  0  0  0  0  0  0  0
   -1.6089    8.9355   -2.7689 H   0  0  0  0  0  0  0  0  0  0  0  0
   -1.5560    8.0217   -0.6822 H   0  0  0  0  0  0  0  0  0  0  0  0
   -1.1238    9.5948    0.1096 H   0  0  0  0  0  0  0  0  0  0  0  0
   -3.0221   10.4144   -0.2152 H   0  0  0  0  0  0  0  0  0  0  0  0
   -3.8846    6.4658   -1.2797 H   0  0  0  0  0  0  0  0  0  0  0  0
   -4.9783    7.2652   -2.4592 H   0  0  0  0  0  0  0  0  0  0  0  0
   -3.2233    7.6482   -2.4592 H   0  0  0  0  0  0  0  0  0  0  0  0
   -6.0352    9.2321    0.2059 H   0  0  0  0  0  0  0  0  0  0  0  0
   -5.6990   10.0652   -1.3496 H   0  0  0  0  0  0  0  0  0  0  0  0
   -6.4020    8.4121   -1.3496 H   0  0  0  0  0  0  0  0  0  0  0  0
   -0.6549   11.5758   -0.9724 H   0  0  0  0  0  0  0  0  0  0  0  0
    0.9689   10.9333    0.6958 H   0  0  0  0  0  0  0  0  0  0  0  0
    2.0999   10.3200   -0.5296 H   0  0  0  0  0  0  0  0  0  0  0  0
    2.3552   12.7957    0.8754 H   0  0  0  0  0  0  0  0  0  0  0  0
    3.2597   12.3892   -0.5802 H   0  0  0  0  0  0  0  0  0  0  0  0
    0.6391   13.8192    1.0746 H   0  0  0  0  0  0  0  0  0  0  0  0
    0.0526   15.0273   -0.1183 H   0  0  0  0  0  0  0  0  0  0  0  0
   -0.6241   13.3633   -0.1183 H   0  0  0  0  0  0  0  0  0  0  0  0
    2.9839   14.2526   -2.1039 H   0  0  0  0  0  0  0  0  0  0  0  0
    3.1202   15.0330    0.3488 H   0  0  0  0  0  0  0  0  0  0  0  0
    3.6946   16.1119   -1.0280 H   0  0  0  0  0  0  0  0  0  0  0  0
    2.3328   17.2975    0.8910 H   0  0  0  0  0  0  0  0  0  0  0  0
   -0.5138   16.0162   -1.6717 H   0  0  0  0  0  0  0  0  0  0  0  0
    0.8547   18.3480   -3.1490 H   0  0  0  0  0  0  0  0  0  0  0  0
   -0.5171   17.3205   -3.7610 H   0  0  0  0  0  0  0  0  0  0  0  0
   -1.2866   19.5330   -2.9653 H   0  0  0  0  0  0  0  0  0  0  0  0
   -1.9696   18.1609   -2.0079 H   0  0  0  0  0  0  0  0  0  0  0  0
   -1.3252   19.9088   -0.4956 H   0  0  0  0  0  0  0  0  0  0  0  0
    0.2610   21.1090   -1.3070 H   0  0  0  0  0  0  0  0  0  0  0  0
   -1.2473   17.5806    1.7548 H   0  0  0  0  0  0  0  0  0  0  0  0
   -2.2059   18.0606    0.3136 H   0  0  0  0  0  0  0  0  0  0  0  0
   -1.2997   16.5097    0.3136 H   0  0  0  0  0  0  0  0  0  0  0  0
    0.2417   18.6108    2.2095 H   0  0  0  0  0  0  0  0  0  0  0  0
    1.7030   18.9066    1.2075 H   0  0  0  0  0  0  0  0  0  0  0  0
    0.3579   20.0972    1.2075 H   0  0  0  0  0  0  0  0  0  0  0  0
    3.1029   16.8319   -2.8712 H   0  0  0  0  0  0  0  0  0  0  0  0
    2.8935   15.5808   -4.1431 H   0  0  0  0  0  0  0  0  0  0  0  0
    1.8524   17.0446   -4.1431 H   0  0  0  0  0  0  0  0  0  0  0  0
   -0.3220   15.2680   -3.9891 H   0  0  0  0  0  0  0  0  0  0  0  0
    1.2098   14.2759   -4.3113 H   0  0  0  0  0  0  0  0  0  0  0  0
   -0.9721   13.7027   -2.2872 H   0  0  0  0  0  0  0  0  0  0  0  0
   -0.5228   12.7567   -3.7604 H   0  0  0  0  0  0  0  0  0  0  0  0
    2.8589   11.7480   -2.5464 H   0  0  0  0  0  0  0  0  0  0  0  0
    1.6038   11.3134   -3.7558 H   0  0  0  0  0  0  0  0  0  0  0  0
    2.3187   12.9613   -3.7558 H   0  0  0  0  0  0  0  0  0  0  0  0
  1  2  1  0
  2  3  1  0
  3  4  1  0
  4  5  1  0
  5  6  1  0
  6  7  1  0
  7  8  1  0
  7  9  1  0
  2 10  1  0
 10 11  1  0
 11 12  1  0
 12 13  1  0
 13 14  1  1
 13 15  1  0
 15 16  1  0
 16 17  1  0
 17 18  2  0
 18 19  1  0
 19 20  1  0
 20 21  1  0
 21 22  1  0
 22 23  1  0
 22 24  1  0
 24 25  1  0
 24 26  1  0
 19 27  1  0
 27 28  1  6
 27 29  1  0
 29 30  1  0
 30 31  1  0
 31 32  1  6
  7  5  1  0
 31 10  1  0
 31 13  1  0
 27 15  1  0
 24 18  1  0
  1 33  1  0
  1 34  1  0
  1 35  1  0
  2 36  1  1
  3 37  1  0
  3 38  1  0
  4 39  1  0
  4 40  1  0
  5 41  1  1
  8 42  1  0
  8 43  1  0
  8 44  1  0
  9 45  1  0
  9 46  1  0
  9 47  1  0
 10 48  1  1
 11 49  1  0
 11 50  1  0
 12 51  1  0
 12 52  1  0
 14 53  1  0
 14 54  1  0
 14 55  1  0
 15 56  1  6
 16 57  1  0
 16 58  1  0
 17 59  1  0
 19 60  1  1
 20 61  1  0
 20 62  1  0
 21 63  1  0
 21 64  1  0
 22 65  1  1
 23 66  1  0
 25 67  1  0
 25 68  1  0
 25 69  1  0
 26 70  1  0
 26 71  1  0
 26 72  1  0
 28 73  1  0
 28 74  1  0
 28 75  1  0
 29 76  1  0
 29 77  1  0
 30 78  1  0
 30 79  1  0
 32 80  1  0
 32 81  1  0
 32 82  1  0
M  END
>  <meeko>  (8) 
{"is_sidechain": [false], "intermolecular_energy": 2.731, "internal_energy": -0.839}

$$$$
EPH_relaxed_0001_pdb2pqr_Repair_132_r2_0001_out
     RDKit          3D

 82 86  0  0  0  0  0  0  0  0999 V2000
   -3.7420    7.2270   -3.4270 C   0  0  0  0  0  0  0  0  0  0  0  0
   -3.7600    7.2960   -1.8980 C   0  0  2  0  0  0  0  0  0  0  0  0
   -5.1730    7.0730   -1.3230 C   0  0  0  0  0  0  0  0  0  0  0  0
   -6.2940    7.2820   -2.3460 C   0  0  0  0  0  0  0  0  0  0  0  0
   -7.6210    7.4880   -1.6810 C   0  0  2  0  0  0  0  0  0  0  0  0
   -8.2000    6.3030   -1.1190 O   0  0  0  0  0  0  0  0  0  0  0  0
   -8.9200    6.9070   -2.2060 C   0  0  0  0  0  0  0  0  0  0  0  0
   -8.9550    6.0740   -3.4490 C   0  0  0  0  0  0  0  0  0  0  0  0
  -10.2090    7.5460   -1.7940 C   0  0  0  0  0  0  0  0  0  0  0  0
   -3.2150    8.6420   -1.4320 C   0  0  1  0  0  0  0  0  0  0  0  0
   -3.8340    9.1040   -0.0860 C   0  0  0  0  0  0  0  0  0  0  0  0
   -2.7190    9.8560    0.6840 C   0  0  0  0  0  0  0  0  0  0  0  0
   -1.6090   10.0900   -0.3670 C   0  0  1  0  0  0  0  0  0  0  0  0
   -2.0750   11.3460   -1.1690 C   0  0  0  0  0  0  0  0  0  0  0  0
   -0.1580   10.2660    0.1880 C   0  0  2  0  0  0  0  0  0  0  0  0
    0.0480   11.4870    1.1020 C   0  0  0  0  0  0  0  0  0  0  0  0
    0.4640   12.7410    0.4070 C   0  0  0  0  0  0  0  0  0  0  0  0
    0.9380   12.8180   -0.8500 C   0  0  0  0  0  0  0  0  0  0  0  0
    1.1900   11.5500   -1.6760 C   0  0  1  0  0  0  0  0  0  0  0  0
    2.5820   11.6430   -2.3560 C   0  0  0  0  0  0  0  0  0  0  0  0
    2.7480   12.9170   -3.1780 C   0  0  0  0  0  0  0  0  0  0  0  0
    2.5470   14.1560   -2.3100 C   0  0  2  0  0  0  0  0  0  0  0  0
    3.6140   14.2300   -1.3580 O   0  0  0  0  0  0  0  0  0  0  0  0
    1.1820   14.1690   -1.5660 C   0  0  0  0  0  0  0  0  0  0  0  0
    0.0370   14.3930   -2.5850 C   0  0  0  0  0  0  0  0  0  0  0  0
    1.1660   15.3990   -0.6180 C   0  0  0  0  0  0  0  0  0  0  0  0
    0.9740   10.1720   -0.9140 C   0  0  1  0  0  0  0  0  0  0  0  0
    2.2840    9.7620   -0.1740 C   0  0  0  0  0  0  0  0  0  0  0  0
    0.6870    9.0400   -1.9710 C   0  0  0  0  0  0  0  0  0  0  0  0
   -0.7810    8.8360   -2.3890 C   0  0  0  0  0  0  0  0  0  0  0  0
   -1.6920    8.7370   -1.1620 C   0  0  2  0  0  0  0  0  0  0  0  0
   -1.2620    7.4700   -0.3470 C   0  0  0  0  0  0  0  0  0  0  0  0
   -3.4762    6.2081   -3.7449 H   0  0  0  0  0  0  0  0  0  0  0  0
   -4.7375    7.4850   -3.8174 H   0  0  0  0  0  0  0  0  0  0  0  0
   -2.9994    7.9384   -3.8174 H   0  0  0  0  0  0  0  0  0  0  0  0
   -3.1190    6.4846   -1.5228 H   0  0  0  0  0  0  0  0  0  0  0  0
   -5.2354    6.0418   -0.9451 H   0  0  0  0  0  0  0  0  0  0  0  0
   -5.3187    7.8203   -0.5291 H   0  0  0  0  0  0  0  0  0  0  0  0
   -6.0597    8.1672   -2.9555 H   0  0  0  0  0  0  0  0  0  0  0  0
   -6.3604    6.3790   -2.9707 H   0  0  0  0  0  0  0  0  0  0  0  0
   -7.3374    8.5073   -1.3799 H   0  0  0  0  0  0  0  0  0  0  0  0
   -8.9997    5.0094   -3.1758 H   0  0  0  0  0  0  0  0  0  0  0  0
   -9.8428    6.3379   -4.0424 H   0  0  0  0  0  0  0  0  0  0  0  0
   -8.0481    6.2625   -4.0424 H   0  0  0  0  0  0  0  0  0  0  0  0
  -10.2690    7.5757   -0.6960 H   0  0  0  0  0  0  0  0  0  0  0  0
  -10.2538    8.5707   -2.1916 H   0  0  0  0  0  0  0  0  0  0  0  0
  -11.0516    6.9613   -2.1916 H   0  0  0  0  0  0  0  0  0  0  0  0
   -3.4826    9.2605   -2.3014 H   0  0  0  0  0  0  0  0  0  0  0  0
   -4.6854    9.7754   -0.2712 H   0  0  0  0  0  0  0  0  0  0  0  0
   -4.2044    8.2457    0.4937 H   0  0  0  0  0  0  0  0  0  0  0  0
   -3.0940   10.8143    1.0727 H   0  0  0  0  0  0  0  0  0  0  0  0
   -2.3569    9.2883    1.5538 H   0  0  0  0  0  0  0  0  0  0  0  0
   -2.3697   12.1404   -0.4675 H   0  0  0  0  0  0  0  0  0  0  0  0
   -1.2497   11.7037   -1.8023 H   0  0  0  0  0  0  0  0  0  0  0  0
   -2.9338   11.0788   -1.8023 H   0  0  0  0  0  0  0  0  0  0  0  0
   -0.0460    9.3847    0.8367 H   0  0  0  0  0  0  0  0  0  0  0  0
   -0.9004   11.6856    1.6227 H   0  0  0  0  0  0  0  0  0  0  0  0
    0.8753   11.2250    1.7779 H   0  0  0  0  0  0  0  0  0  0  0  0
    0.3756   13.6818    0.9702 H   0  0  0  0  0  0  0  0  0  0  0  0
    0.4012   11.5243   -2.4423 H   0  0  0  0  0  0  0  0  0  0  0  0
    3.3574   11.6232   -1.5760 H   0  0  0  0  0  0  0  0  0  0  0  0
    2.6758   10.7885   -3.0423 H   0  0  0  0  0  0  0  0  0  0  0  0
    3.7604   12.9388   -3.6077 H   0  0  0  0  0  0  0  0  0  0  0  0
    1.9912   12.9210   -3.9763 H   0  0  0  0  0  0  0  0  0  0  0  0
    2.5483   15.0300   -2.9780 H   0  0  0  0  0  0  0  0  0  0  0  0
    4.3840   14.6150   -1.8090 H   0  0  0  0  0  0  0  0  0  0  0  0
   -0.9036   14.5770   -2.0451 H   0  0  0  0  0  0  0  0  0  0  0  0
    0.2732   15.2620   -3.2168 H   0  0  0  0  0  0  0  0  0  0  0  0
   -0.0717   13.4991   -3.2168 H   0  0  0  0  0  0  0  0  0  0  0  0
    1.1705   15.0564    0.4273 H   0  0  0  0  0  0  0  0  0  0  0  0
    2.0562   16.0176   -0.8049 H   0  0  0  0  0  0  0  0  0  0  0  0
    0.2600   15.9942   -0.8049 H   0  0  0  0  0  0  0  0  0  0  0  0
    2.1223    9.8126    0.9129 H   0  0  0  0  0  0  0  0  0  0  0  0
    2.5586    8.7350   -0.4564 H   0  0  0  0  0  0  0  0  0  0  0  0
    3.0951   10.4492   -0.4564 H   0  0  0  0  0  0  0  0  0  0  0  0
    1.2612    9.2787   -2.8784 H   0  0  0  0  0  0  0  0  0  0  0  0
    0.9777    8.1024   -1.4746 H   0  0  0  0  0  0  0  0  0  0  0  0
   -1.1009    9.6881   -3.0068 H   0  0  0  0  0  0  0  0  0  0  0  0
   -0.8563    7.8977   -2.9582 H   0  0  0  0  0  0  0  0  0  0  0  0
   -1.3348    7.6844    0.7295 H   0  0  0  0  0  0  0  0  0  0  0  0
   -1.9252    6.6294   -0.5991 H   0  0  0  0  0  0  0  0  0  0  0  0
   -0.2242    7.2067   -0.5991 H   0  0  0  0  0  0  0  0  0  0  0  0
  1  2  1  0
  2  3  1  0
  3  4  1  0
  4  5  1  0
  5  6  1  0
  6  7  1  0
  7  8  1  0
  7  9  1  0
  2 10  1  0
 10 11  1  0
 11 12  1  0
 12 13  1  0
 13 14  1  6
 13 15  1  0
 15 16  1  0
 16 17  1  0
 17 18  2  0
 18 19  1  0
 19 20  1  0
 20 21  1  0
 21 22  1  0
 22 23  1  0
 22 24  1  0
 24 25  1  0
 24 26  1  0
 19 27  1  0
 27 28  1  1
 27 29  1  0
 29 30  1  0
 30 31  1  0
 31 32  1  1
  7  5  1  0
 31 10  1  0
 31 13  1  0
 27 15  1  0
 24 18  1  0
  1 33  1  0
  1 34  1  0
  1 35  1  0
  2 36  1  1
  3 37  1  0
  3 38  1  0
  4 39  1  0
  4 40  1  0
  5 41  1  1
  8 42  1  0
  8 43  1  0
  8 44  1  0
  9 45  1  0
  9 46  1  0
  9 47  1  0
 10 48  1  6
 11 49  1  0
 11 50  1  0
 12 51  1  0
 12 52  1  0
 14 53  1  0
 14 54  1  0
 14 55  1  0
 15 56  1  1
 16 57  1  0
 16 58  1  0
 17 59  1  0
 19 60  1  6
 20 61  1  0
 20 62  1  0
 21 63  1  0
 21 64  1  0
 22 65  1  6
 23 66  1  0
 25 67  1  0
 25 68  1  0
 25 69  1  0
 26 70  1  0
 26 71  1  0
 26 72  1  0
 28 73  1  0
 28 74  1  0
 28 75  1  0
 29 76  1  0
 29 77  1  0
 30 78  1  0
 30 79  1  0
 32 80  1  0
 32 81  1  0
 32 82  1  0
M  END
>  <meeko>  (9) 
{"is_sidechain": [false], "intermolecular_energy": 2.731, "internal_energy": -0.839}

$$$$
EPH_relaxed_0001_pdb2pqr_Repair_132_r2_0001_out
     RDKit          3D

 82 86  0  0  0  0  0  0  0  0999 V2000
    0.0750   17.8570   -2.4580 C   0  0  0  0  0  0  0  0  0  0  0  0
   -0.1870   16.8710   -1.3160 C   0  0  2  0  0  0  0  0  0  0  0  0
   -0.3480   17.5840    0.0410 C   0  0  0  0  0  0  0  0  0  0  0  0
    0.2780   18.9810    0.0810 C   0  0  0  0  0  0  0  0  0  0  0  0
    1.4660   19.0310    0.9930 C   0  0  2  0  0  0  0  0  0  0  0  0
    2.3510   20.1350    0.7630 O   0  0  0  0  0  0  0  0  0  0  0  0
    2.8930   18.8270    0.5200 C   0  0  0  0  0  0  0  0  0  0  0  0
    3.2070   18.5560   -0.9180 C   0  0  0  0  0  0  0  0  0  0  0  0
    3.9250   18.4060    1.5190 C   0  0  0  0  0  0  0  0  0  0  0  0
    0.9450   15.8530   -1.2380 C   0  0  1  0  0  0  0  0  0  0  0  0
    1.2550   15.4140    0.2180 C   0  0  0  0  0  0  0  0  0  0  0  0
    1.6620   13.9200    0.1580 C   0  0  0  0  0  0  0  0  0  0  0  0
    1.8950   13.6390   -1.3450 C   0  0  1  0  0  0  0  0  0  0  0  0
    3.3330   14.1730   -1.6350 C   0  0  0  0  0  0  0  0  0  0  0  0
    1.7270   12.1540   -1.8050 C   0  0  2  0  0  0  0  0  0  0  0  0
    2.7130   11.1590   -1.1700 C   0  0  0  0  0  0  0  0  0  0  0  0
    3.9860   10.9540   -1.9240 C   0  0  0  0  0  0  0  0  0  0  0  0
    4.2070   11.3200   -3.2000 C   0  0  0  0  0  0  0  0  0  0  0  0
    3.0830   11.9240   -4.0520 C   0  0  1  0  0  0  0  0  0  0  0  0
    3.0640   11.2410   -5.4450 C   0  0  0  0  0  0  0  0  0  0  0  0
    4.4200   11.2980   -6.1420 C   0  0  0  0  0  0  0  0  0  0  0  0
    5.5000   10.6360   -5.2900 C   0  0  2  0  0  0  0  0  0  0  0  0
    5.2260    9.2340   -5.2050 O   0  0  0  0  0  0  0  0  0  0  0  0
    5.6050   11.2360   -3.8600 C   0  0  0  0  0  0  0  0  0  0  0  0
    6.1930   12.6670   -3.9370 C   0  0  0  0  0  0  0  0  0  0  0  0
    6.6310   10.3880   -3.0600 C   0  0  0  0  0  0  0  0  0  0  0  0
    1.6460   11.9670   -3.3740 C   0  0  1  0  0  0  0  0  0  0  0  0
    0.8990   10.6210   -3.6240 C   0  0  0  0  0  0  0  0  0  0  0  0
    0.7840   13.0880   -4.0670 C   0  0  0  0  0  0  0  0  0  0  0  0
    0.9030   14.5110   -3.4910 C   0  0  0  0  0  0  0  0  0  0  0  0
    0.7380   14.5020   -1.9680 C   0  0  2  0  0  0  0  0  0  0  0  0
   -0.7080   13.9910   -1.6470 C   0  0  0  0  0  0  0  0  0  0  0  0
    0.3364   18.8406   -2.0405 H   0  0  0  0  0  0  0  0  0  0  0  0
    0.9064   17.4887   -3.0769 H   0  0  0  0  0  0  0  0  0  0  0  0
   -0.8296   17.9500   -3.0769 H   0  0  0  0  0  0  0  0  0  0  0  0
   -1.1349   16.3571   -1.5337 H   0  0  0  0  0  0  0  0  0  0  0  0
   -1.4222   17.6785    0.2582 H   0  0  0  0  0  0  0  0  0  0  0  0
    0.1796   16.9740    0.7890 H   0  0  0  0  0  0  0  0  0  0  0  0
    0.5967   19.2579   -0.9348 H   0  0  0  0  0  0  0  0  0  0  0  0
   -0.4770   19.6839    0.4631 H   0  0  0  0  0  0  0  0  0  0  0  0
    0.8874   18.5756    1.8102 H   0  0  0  0  0  0  0  0  0  0  0  0
    4.0383   17.8385   -0.9829 H   0  0  0  0  0  0  0  0  0  0  0  0
    2.3199   18.1352   -1.4140 H   0  0  0  0  0  0  0  0  0  0  0  0
    3.4936   19.4951   -1.4140 H   0  0  0  0  0  0  0  0  0  0  0  0
    3.5369   18.5643    2.5360 H   0  0  0  0  0  0  0  0  0  0  0  0
    4.1590   17.3405    1.3776 H   0  0  0  0  0  0  0  0  0  0  0  0
    4.8375   19.0037    1.3776 H   0  0  0  0  0  0  0  0  0  0  0  0
    1.7438   16.4281   -1.7291 H   0  0  0  0  0  0  0  0  0  0  0  0
    2.0803   16.0152    0.6272 H   0  0  0  0  0  0  0  0  0  0  0  0
    0.3801   15.5589    0.8688 H   0  0  0  0  0  0  0  0  0  0  0  0
    2.5832   13.7451    0.7331 H   0  0  0  0  0  0  0  0  0  0  0  0
    0.8953   13.2611    0.5915 H   0  0  0  0  0  0  0  0  0  0  0  0
    3.8513   14.3655   -0.6841 H   0  0  0  0  0  0  0  0  0  0  0  0
    3.8931   13.4229   -2.2126 H   0  0  0  0  0  0  0  0  0  0  0  0
    3.2678   15.1069   -2.2126 H   0  0  0  0  0  0  0  0  0  0  0  0
    0.7378   11.8922   -1.4013 H   0  0  0  0  0  0  0  0  0  0  0  0
    2.9684   11.5275   -0.1655 H   0  0  0  0  0  0  0  0  0  0  0  0
    2.2018   10.1850   -1.1648 H   0  0  0  0  0  0  0  0  0  0  0  0
    4.8130   10.4621   -1.3910 H   0  0  0  0  0  0  0  0  0  0  0  0
    3.3260   12.9911   -4.1631 H   0  0  0  0  0  0  0  0  0  0  0  0
    2.7771   10.1868   -5.3172 H   0  0  0  0  0  0  0  0  0  0  0  0
    2.3421   11.7832   -6.0734 H   0  0  0  0  0  0  0  0  0  0  0  0
    4.3511   10.7740   -7.1067 H   0  0  0  0  0  0  0  0  0  0  0  0
    4.6916   12.3528   -6.2955 H   0  0  0  0  0  0  0  0  0  0  0  0
    6.4670   10.8222   -5.7801 H   0  0  0  0  0  0  0  0  0  0  0  0
    4.4240    9.0590   -5.7260 H   0  0  0  0  0  0  0  0  0  0  0  0
    6.3518   13.0534   -2.9194 H   0  0  0  0  0  0  0  0  0  0  0  0
    7.1531   12.6405   -4.4731 H   0  0  0  0  0  0  0  0  0  0  0  0
    5.4916   13.3232   -4.4731 H   0  0  0  0  0  0  0  0  0  0  0  0
    6.4614   10.5281   -1.9822 H   0  0  0  0  0  0  0  0  0  0  0  0
    6.5070    9.3253   -3.3156 H   0  0  0  0  0  0  0  0  0  0  0  0
    7.6513   10.7099   -3.3156 H   0  0  0  0  0  0  0  0  0  0  0  0
    0.6427   10.1592   -2.6591 H   0  0  0  0  0  0  0  0  0  0  0  0
   -0.0216   10.8131   -4.1946 H   0  0  0  0  0  0  0  0  0  0  0  0
    1.5490    9.9414   -4.1946 H   0  0  0  0  0  0  0  0  0  0  0  0
    1.0826   13.1311   -5.1248 H   0  0  0  0  0  0  0  0  0  0  0  0
   -0.2620   12.7944   -3.8948 H   0  0  0  0  0  0  0  0  0  0  0  0
    1.8926   14.9197   -3.7433 H   0  0  0  0  0  0  0  0  0  0  0  0
    0.1070   15.1331   -3.9262 H   0  0  0  0  0  0  0  0  0  0  0  0
   -0.8461   13.9422   -0.5568 H   0  0  0  0  0  0  0  0  0  0  0  0
   -1.4458   14.6828   -2.0794 H   0  0  0  0  0  0  0  0  0  0  0  0
   -0.8473   12.9892   -2.0794 H   0  0  0  0  0  0  0  0  0  0  0  0
  1  2  1  0
  2  3  1  0
  3  4  1  0
  4  5  1  0
  5  6  1  0
  6  7  1  0
  7  8  1  0
  7  9  1  0
  2 10  1  0
 10 11  1  0
 11 12  1  0
 12 13  1  0
 13 14  1  6
 13 15  1  0
 15 16  1  0
 16 17  1  0
 17 18  2  0
 18 19  1  0
 19 20  1  0
 20 21  1  0
 21 22  1  0
 22 23  1  0
 22 24  1  0
 24 25  1  0
 24 26  1  0
 19 27  1  0
 27 28  1  1
 27 29  1  0
 29 30  1  0
 30 31  1  0
 31 32  1  6
  7  5  1  0
 31 10  1  0
 31 13  1  0
 27 15  1  0
 24 18  1  0
  1 33  1  0
  1 34  1  0
  1 35  1  0
  2 36  1  6
  3 37  1  0
  3 38  1  0
  4 39  1  0
  4 40  1  0
  5 41  1  1
  8 42  1  0
  8 43  1  0
  8 44  1  0
  9 45  1  0
  9 46  1  0
  9 47  1  0
 10 48  1  6
 11 49  1  0
 11 50  1  0
 12 51  1  0
 12 52  1  0
 14 53  1  0
 14 54  1  0
 14 55  1  0
 15 56  1  1
 16 57  1  0
 16 58  1  0
 17 59  1  0
 19 60  1  6
 20 61  1  0
 20 62  1  0
 21 63  1  0
 21 64  1  0
 22 65  1  6
 23 66  1  0
 25 67  1  0
 25 68  1  0
 25 69  1  0
 26 70  1  0
 26 71  1  0
 26 72  1  0
 28 73  1  0
 28 74  1  0
 28 75  1  0
 29 76  1  0
 29 77  1  0
 30 78  1  0
 30 79  1  0
 32 80  1  0
 32 81  1  0
 32 82  1  0
M  END
>  <meeko>  (10) 
{"is_sidechain": [false], "intermolecular_energy": 2.731, "internal_energy": -0.839}

$$$$
EPH_relaxed_0001_pdb2pqr_Repair_132_r2_0001_out
     RDKit          3D

 82 86  0  0  0  0  0  0  0  0999 V2000
    4.7340   16.0940   -0.5440 C   0  0  0  0  0  0  0  0  0  0  0  0
    3.4160   16.8720   -0.5770 C   0  0  2  0  0  0  0  0  0  0  0  0
    3.3850   18.0060    0.4680 C   0  0  0  0  0  0  0  0  0  0  0  0
    2.1640   18.9220    0.3460 C   0  0  0  0  0  0  0  0  0  0  0  0
    1.5950   18.9050   -1.0400 C   0  0  2  0  0  0  0  0  0  0  0  0
    1.4980   20.1920   -1.6640 O   0  0  0  0  0  0  0  0  0  0  0  0
    0.2560   19.5190   -1.4020 C   0  0  0  0  0  0  0  0  0  0  0  0
   -0.5970   20.1930   -0.3730 C   0  0  0  0  0  0  0  0  0  0  0  0
   -0.4420   19.0400   -2.6370 C   0  0  0  0  0  0  0  0  0  0  0  0
    2.2460   15.9220   -0.3490 C   0  0  1  0  0  0  0  0  0  0  0  0
    0.9060   16.6700   -0.1160 C   0  0  0  0  0  0  0  0  0  0  0  0
   -0.2070   15.8050   -0.7610 C   0  0  0  0  0  0  0  0  0  0  0  0
    0.4720   14.4450   -1.0460 C   0  0  1  0  0  0  0  0  0  0  0  0
    0.4440   13.6880    0.3190 C   0  0  0  0  0  0  0  0  0  0  0  0
   -0.1540   13.5870   -2.1940 C   0  0  2  0  0  0  0  0  0  0  0  0
   -1.6060   13.1390   -1.9560 C   0  0  0  0  0  0  0  0  0  0  0  0
   -1.7640   11.8240   -1.2690 C   0  0  0  0  0  0  0  0  0  0  0  0
   -0.7950   10.9020   -1.1120 C   0  0  0  0  0  0  0  0  0  0  0  0
    0.5900   11.1010   -1.7410 C   0  0  1  0  0  0  0  0  0  0  0  0
    1.0300    9.7920   -2.4480 C   0  0  0  0  0  0  0  0  0  0  0  0
    0.9780    8.5810   -1.5220 C   0  0  0  0  0  0  0  0  0  0  0  0
   -0.4280    8.3820   -0.9630 C   0  0  2  0  0  0  0  0  0  0  0  0
   -1.3040    8.0210   -2.0350 O   0  0  0  0  0  0  0  0  0  0  0  0
   -0.9820    9.6390   -0.2360 C   0  0  0  0  0  0  0  0  0  0  0  0
   -0.2150    9.8520    1.0930 C   0  0  0  0  0  0  0  0  0  0  0  0
   -2.4570    9.3540    0.1550 C   0  0  0  0  0  0  0  0  0  0  0  0
    0.7530   12.3810   -2.6700 C   0  0  1  0  0  0  0  0  0  0  0  0
    0.3130   12.0400   -4.1260 C   0  0  0  0  0  0  0  0  0  0  0  0
    2.2760   12.7700   -2.7450 C   0  0  0  0  0  0  0  0  0  0  0  0
    2.8070   13.7160   -1.6510 C   0  0  0  0  0  0  0  0  0  0  0  0
    1.8960   14.9380   -1.4930 C   0  0  2  0  0  0  0  0  0  0  0  0
    1.9220   15.7310   -2.8440 C   0  0  0  0  0  0  0  0  0  0  0  0
    5.0304   15.9190    0.5008 H   0  0  0  0  0  0  0  0  0  0  0  0
    4.6028   15.1285   -1.0545 H   0  0  0  0  0  0  0  0  0  0  0  0
    5.5159   16.6754   -1.0545 H   0  0  0  0  0  0  0  0  0  0  0  0
    3.3302   17.3359   -1.5707 H   0  0  0  0  0  0  0  0  0  0  0  0
    3.3814   17.5541    1.4709 H   0  0  0  0  0  0  0  0  0  0  0  0
    4.2738   18.6298    0.2921 H   0  0  0  0  0  0  0  0  0  0  0  0
    1.3920   18.5831    1.0525 H   0  0  0  0  0  0  0  0  0  0  0  0
    2.4824   19.9501    0.5735 H   0  0  0  0  0  0  0  0  0  0  0  0
    2.0266   17.9112   -1.2299 H   0  0  0  0  0  0  0  0  0  0  0  0
   -0.2466   19.9161    0.6323 H   0  0  0  0  0  0  0  0  0  0  0  0
   -0.5288   21.2838   -0.4975 H   0  0  0  0  0  0  0  0  0  0  0  0
   -1.6425   19.8744   -0.4975 H   0  0  0  0  0  0  0  0  0  0  0  0
   -1.3182   18.4387   -2.3531 H   0  0  0  0  0  0  0  0  0  0  0  0
   -0.7685   19.9053   -3.2326 H   0  0  0  0  0  0  0  0  0  0  0  0
    0.2479   18.4242   -3.2326 H   0  0  0  0  0  0  0  0  0  0  0  0
    2.6256   15.3675    0.5219 H   0  0  0  0  0  0  0  0  0  0  0  0
    0.7191   16.7856    0.9618 H   0  0  0  0  0  0  0  0  0  0  0  0
    0.9324   17.6756   -0.5610 H   0  0  0  0  0  0  0  0  0  0  0  0
   -1.0520   15.6795   -0.0680 H   0  0  0  0  0  0  0  0  0  0  0  0
   -0.6179   16.2651   -1.6717 H   0  0  0  0  0  0  0  0  0  0  0  0
    0.4709   14.4164    1.1428 H   0  0  0  0  0  0  0  0  0  0  0  0
   -0.4769   13.0903    0.3880 H   0  0  0  0  0  0  0  0  0  0  0  0
    1.3182   13.0239    0.3880 H   0  0  0  0  0  0  0  0  0  0  0  0
   -0.1958   14.3031   -3.0280 H   0  0  0  0  0  0  0  0  0  0  0  0
   -2.1014   13.9050   -1.3413 H   0  0  0  0  0  0  0  0  0  0  0  0
   -2.0534   13.0163   -2.9534 H   0  0  0  0  0  0  0  0  0  0  0  0
   -2.7557   11.5876   -0.8559 H   0  0  0  0  0  0  0  0  0  0  0  0
    1.2731   11.3237   -0.9081 H   0  0  0  0  0  0  0  0  0  0  0  0
    0.3617    9.6112   -3.3028 H   0  0  0  0  0  0  0  0  0  0  0  0
    2.0738    9.9212   -2.7703 H   0  0  0  0  0  0  0  0  0  0  0  0
    1.2715    7.6835   -2.0862 H   0  0  0  0  0  0  0  0  0  0  0  0
    1.6687    8.7507   -0.6829 H   0  0  0  0  0  0  0  0  0  0  0  0
   -0.3728    7.5828   -0.2092 H   0  0  0  0  0  0  0  0  0  0  0  0
   -1.7480    8.8320   -2.3370 H   0  0  0  0  0  0  0  0  0  0  0  0
   -0.8907    9.6643    1.9405 H   0  0  0  0  0  0  0  0  0  0  0  0
    0.6355    9.1561    1.1411 H   0  0  0  0  0  0  0  0  0  0  0  0
    0.1548   10.8868    1.1411 H   0  0  0  0  0  0  0  0  0  0  0  0
   -2.5489    9.3362    1.2510 H   0  0  0  0  0  0  0  0  0  0  0  0
   -3.1040   10.1437   -0.2545 H   0  0  0  0  0  0  0  0  0  0  0  0
   -2.7633    8.3801   -0.2545 H   0  0  0  0  0  0  0  0  0  0  0  0
   -0.5562   11.3664   -4.0981 H   0  0  0  0  0  0  0  0  0  0  0  0
    0.0422   12.9664   -4.6537 H   0  0  0  0  0  0  0  0  0  0  0  0
    1.1425   11.5466   -4.6537 H   0  0  0  0  0  0  0  0  0  0  0  0
    2.8600   11.8393   -2.6921 H   0  0  0  0  0  0  0  0  0  0  0  0
    2.3837   13.3296   -3.6859 H   0  0  0  0  0  0  0  0  0  0  0  0
    2.8496   13.1730   -0.6953 H   0  0  0  0  0  0  0  0  0  0  0  0
    3.8098   14.0615   -1.9426 H   0  0  0  0  0  0  0  0  0  0  0  0
    1.9574   16.8104   -2.6350 H   0  0  0  0  0  0  0  0  0  0  0  0
    2.8111   15.4403   -3.4228 H   0  0  0  0  0  0  0  0  0  0  0  0
    1.0158   15.4991   -3.4228 H   0  0  0  0  0  0  0  0  0  0  0  0
  1  2  1  0
  2  3  1  0
  3  4  1  0
  4  5  1  0
  5  6  1  0
  6  7  1  0
  7  8  1  0
  7  9  1  0
  2 10  1  0
 10 11  1  0
 11 12  1  0
 12 13  1  0
 13 14  1  1
 13 15  1  0
 15 16  1  0
 16 17  1  0
 17 18  2  0
 18 19  1  0
 19 20  1  0
 20 21  1  0
 21 22  1  0
 22 23  1  0
 22 24  1  0
 24 25  1  0
 24 26  1  0
 19 27  1  0
 27 28  1  6
 27 29  1  0
 29 30  1  0
 30 31  1  0
 31 32  1  6
  7  5  1  0
 31 10  1  0
 31 13  1  0
 27 15  1  0
 24 18  1  0
  1 33  1  0
  1 34  1  0
  1 35  1  0
  2 36  1  6
  3 37  1  0
  3 38  1  0
  4 39  1  0
  4 40  1  0
  5 41  1  6
  8 42  1  0
  8 43  1  0
  8 44  1  0
  9 45  1  0
  9 46  1  0
  9 47  1  0
 10 48  1  1
 11 49  1  0
 11 50  1  0
 12 51  1  0
 12 52  1  0
 14 53  1  0
 14 54  1  0
 14 55  1  0
 15 56  1  6
 16 57  1  0
 16 58  1  0
 17 59  1  0
 19 60  1  1
 20 61  1  0
 20 62  1  0
 21 63  1  0
 21 64  1  0
 22 65  1  1
 23 66  1  0
 25 67  1  0
 25 68  1  0
 25 69  1  0
 26 70  1  0
 26 71  1  0
 26 72  1  0
 28 73  1  0
 28 74  1  0
 28 75  1  0
 29 76  1  0
 29 77  1  0
 30 78  1  0
 30 79  1  0
 32 80  1  0
 32 81  1  0
 32 82  1  0
M  END
>  <meeko>  (11) 
{"is_sidechain": [false], "intermolecular_energy": 2.731, "internal_energy": -0.839}

$$$$
EPH_relaxed_0001_pdb2pqr_Repair_132_r2_0001_out
     RDKit          3D

 82 86  0  0  0  0  0  0  0  0999 V2000
   -0.0100    9.3880   -2.4140 C   0  0  0  0  0  0  0  0  0  0  0  0
    1.1140   10.3530   -2.8050 C   0  0  2  0  0  0  0  0  0  0  0  0
    2.4930    9.6640   -2.8180 C   0  0  0  0  0  0  0  0  0  0  0  0
    3.4450   10.2130   -3.8840 C   0  0  0  0  0  0  0  0  0  0  0  0
    4.8130   10.4660   -3.3280 C   0  0  2  0  0  0  0  0  0  0  0  0
    5.3060   11.7960   -3.5340 O   0  0  0  0  0  0  0  0  0  0  0  0
    6.0290   10.7430   -4.1920 C   0  0  0  0  0  0  0  0  0  0  0  0
    5.9340   10.7800   -5.6850 C   0  0  0  0  0  0  0  0  0  0  0  0
    7.3880   10.4940   -3.6150 C   0  0  0  0  0  0  0  0  0  0  0  0
    1.1340   11.5400   -1.8490 C   0  0  1  0  0  0  0  0  0  0  0  0
    2.1990   11.3890   -0.7310 C   0  0  0  0  0  0  0  0  0  0  0  0
    2.7450   12.8110   -0.4380 C   0  0  0  0  0  0  0  0  0  0  0  0
    1.7550   13.7630   -1.1490 C   0  0  1  0  0  0  0  0  0  0  0  0
    0.5470   13.8890   -0.1690 C   0  0  0  0  0  0  0  0  0  0  0  0
    2.3160   15.1640   -1.5570 C   0  0  2  0  0  0  0  0  0  0  0  0
    2.7760   16.0490   -0.3850 C   0  0  0  0  0  0  0  0  0  0  0  0
    1.7280   16.9460    0.1860 C   0  0  0  0  0  0  0  0  0  0  0  0
    0.5550   17.2490   -0.3990 C   0  0  0  0  0  0  0  0  0  0  0  0
    0.2240   16.7460   -1.8100 C   0  0  1  0  0  0  0  0  0  0  0  0
   -0.3500   17.9130   -2.6550 C   0  0  0  0  0  0  0  0  0  0  0  0
   -1.5410   18.5910   -1.9840 C   0  0  0  0  0  0  0  0  0  0  0  0
   -1.1570   19.1290   -0.6080 C   0  0  2  0  0  0  0  0  0  0  0  0
   -0.2170   20.1940   -0.7750 O   0  0  0  0  0  0  0  0  0  0  0  0
   -0.5570   18.0440    0.3300 C   0  0  0  0  0  0  0  0  0  0  0  0
   -1.6670   17.0510    0.7530 C   0  0  0  0  0  0  0  0  0  0  0  0
   -0.0830   18.7470    1.6310 C   0  0  0  0  0  0  0  0  0  0  0  0
    1.3900   15.9660   -2.5580 C   0  0  1  0  0  0  0  0  0  0  0  0
    2.3120   16.9780   -3.3050 C   0  0  0  0  0  0  0  0  0  0  0  0
    0.7600   15.0390   -3.6640 C   0  0  0  0  0  0  0  0  0  0  0  0
    0.3360   13.6250   -3.2260 C   0  0  0  0  0  0  0  0  0  0  0  0
    1.4590   12.9310   -2.4500 C   0  0  2  0  0  0  0  0  0  0  0  0
    2.6810   12.7710   -3.4170 C   0  0  0  0  0  0  0  0  0  0  0  0
   -0.0782    9.3295   -1.3177 H   0  0  0  0  0  0  0  0  0  0  0  0
   -0.9644    9.7523   -2.8218 H   0  0  0  0  0  0  0  0  0  0  0  0
    0.2057    8.3894   -2.8218 H   0  0  0  0  0  0  0  0  0  0  0  0
    0.9103   10.7019   -3.8281 H   0  0  0  0  0  0  0  0  0  0  0  0
    2.9595    9.8020   -1.8314 H   0  0  0  0  0  0  0  0  0  0  0  0
    2.3206    8.6040   -3.0560 H   0  0  0  0  0  0  0  0  0  0  0  0
    3.5225    9.4826   -4.7029 H   0  0  0  0  0  0  0  0  0  0  0  0
    3.0397   11.1695   -4.2458 H   0  0  0  0  0  0  0  0  0  0  0  0
    4.6373    9.7540   -2.5081 H   0  0  0  0  0  0  0  0  0  0  0  0
    4.9466   11.1646   -5.9802 H   0  0  0  0  0  0  0  0  0  0  0  0
    6.7187   11.4382   -6.0861 H   0  0  0  0  0  0  0  0  0  0  0  0
    6.0668    9.7644   -6.0861 H   0  0  0  0  0  0  0  0  0  0  0  0
    7.3277   10.5051   -2.5167 H   0  0  0  0  0  0  0  0  0  0  0  0
    7.7555    9.5136   -3.9522 H   0  0  0  0  0  0  0  0  0  0  0  0
    8.0792   11.2804   -3.9522 H   0  0  0  0  0  0  0  0  0  0  0  0
    0.0907   11.5146   -1.5012 H   0  0  0  0  0  0  0  0  0  0  0  0
    1.7401   10.9654    0.1745 H   0  0  0  0  0  0  0  0  0  0  0  0
    3.0076   10.7123   -1.0446 H   0  0  0  0  0  0  0  0  0  0  0  0
    2.7611   13.0054    0.6446 H   0  0  0  0  0  0  0  0  0  0  0  0
    3.7779   12.9426   -0.7926 H   0  0  0  0  0  0  0  0  0  0  0  0
    0.9109   13.8510    0.8684 H   0  0  0  0  0  0  0  0  0  0  0  0
    0.0325   14.8457   -0.3423 H   0  0  0  0  0  0  0  0  0  0  0  0
   -0.1539   13.0591   -0.3423 H   0  0  0  0  0  0  0  0  0  0  0  0
    3.2302   14.9007   -2.1092 H   0  0  0  0  0  0  0  0  0  0  0  0
    3.1337   15.3892    0.4192 H   0  0  0  0  0  0  0  0  0  0  0  0
    3.5551   16.7110   -0.7909 H   0  0  0  0  0  0  0  0  0  0  0  0
    1.9322   17.3973    1.1681 H   0  0  0  0  0  0  0  0  0  0  0  0
   -0.5416   15.9663   -1.6836 H   0  0  0  0  0  0  0  0  0  0  0  0
    0.4420   18.6611   -2.8069 H   0  0  0  0  0  0  0  0  0  0  0  0
   -0.6993   17.4934   -3.6099 H   0  0  0  0  0  0  0  0  0  0  0  0
   -1.8828   19.4252   -2.6144 H   0  0  0  0  0  0  0  0  0  0  0  0
   -2.3438   17.8493   -1.8600 H   0  0  0  0  0  0  0  0  0  0  0  0
   -2.0789   19.4850   -0.1249 H   0  0  0  0  0  0  0  0  0  0  0  0
    0.6750   19.8140   -0.7010 H   0  0  0  0  0  0  0  0  0  0  0  0
   -1.7187   17.0048    1.8508 H   0  0  0  0  0  0  0  0  0  0  0  0
   -2.6343   17.3908    0.3544 H   0  0  0  0  0  0  0  0  0  0  0  0
   -1.4366   16.0520    0.3544 H   0  0  0  0  0  0  0  0  0  0  0  0
   -0.4568   18.1926    2.5044 H   0  0  0  0  0  0  0  0  0  0  0  0
    1.0165   18.7711    1.6551 H   0  0  0  0  0  0  0  0  0  0  0  0
   -0.4729   19.7753    1.6551 H   0  0  0  0  0  0  0  0  0  0  0  0
    2.8633   17.5831   -2.5702 H   0  0  0  0  0  0  0  0  0  0  0  0
    3.0254   16.4275   -3.9358 H   0  0  0  0  0  0  0  0  0  0  0  0
    1.6976   17.6372   -3.9358 H   0  0  0  0  0  0  0  0  0  0  0  0
   -0.1332   15.5479   -4.0555 H   0  0  0  0  0  0  0  0  0  0  0  0
    1.5622   14.8837   -4.4005 H   0  0  0  0  0  0  0  0  0  0  0  0
   -0.5532   13.6992   -2.5827 H   0  0  0  0  0  0  0  0  0  0  0  0
    0.1128   13.0318   -4.1251 H   0  0  0  0  0  0  0  0  0  0  0  0
    3.6018   12.6504   -2.8274 H   0  0  0  0  0  0  0  0  0  0  0  0
    2.5330   11.8846   -4.0513 H   0  0  0  0  0  0  0  0  0  0  0  0
    2.7662   13.6656   -4.0513 H   0  0  0  0  0  0  0  0  0  0  0  0
  1  2  1  0
  2  3  1  0
  3  4  1  0
  4  5  1  0
  5  6  1  0
  6  7  1  0
  7  8  1  0
  7  9  1  0
  2 10  1  0
 10 11  1  0
 11 12  1  0
 12 13  1  0
 13 14  1  1
 13 15  1  0
 15 16  1  0
 16 17  1  0
 17 18  2  0
 18 19  1  0
 19 20  1  0
 20 21  1  0
 21 22  1  0
 22 23  1  0
 22 24  1  0
 24 25  1  0
 24 26  1  0
 19 27  1  0
 27 28  1  6
 27 29  1  0
 29 30  1  0
 30 31  1  0
 31 32  1  6
  7  5  1  0
 31 10  1  0
 31 13  1  0
 27 15  1  0
 24 18  1  0
  1 33  1  0
  1 34  1  0
  1 35  1  0
  2 36  1  6
  3 37  1  0
  3 38  1  0
  4 39  1  0
  4 40  1  0
  5 41  1  1
  8 42  1  0
  8 43  1  0
  8 44  1  0
  9 45  1  0
  9 46  1  0
  9 47  1  0
 10 48  1  1
 11 49  1  0
 11 50  1  0
 12 51  1  0
 12 52  1  0
 14 53  1  0
 14 54  1  0
 14 55  1  0
 15 56  1  6
 16 57  1  0
 16 58  1  0
 17 59  1  0
 19 60  1  1
 20 61  1  0
 20 62  1  0
 21 63  1  0
 21 64  1  0
 22 65  1  1
 23 66  1  0
 25 67  1  0
 25 68  1  0
 25 69  1  0
 26 70  1  0
 26 71  1  0
 26 72  1  0
 28 73  1  0
 28 74  1  0
 28 75  1  0
 29 76  1  0
 29 77  1  0
 30 78  1  0
 30 79  1  0
 32 80  1  0
 32 81  1  0
 32 82  1  0
M  END
>  <meeko>  (12) 
{"is_sidechain": [false], "intermolecular_energy": 2.731, "internal_energy": -0.839}

$$$$
EPH_relaxed_0001_pdb2pqr_Repair_132_r2_0001_out
     RDKit          3D

 82 86  0  0  0  0  0  0  0  0999 V2000
    0.4870   19.1660   -2.4290 C   0  0  0  0  0  0  0  0  0  0  0  0
   -0.0850   18.1320   -1.4560 C   0  0  2  0  0  0  0  0  0  0  0  0
    0.3910   18.3720   -0.0090 C   0  0  0  0  0  0  0  0  0  0  0  0
    1.2390   19.6350    0.1590 C   0  0  0  0  0  0  0  0  0  0  0  0
    2.3230   19.4440    1.1770 C   0  0  2  0  0  0  0  0  0  0  0  0
    3.5190   20.1930    0.9260 O   0  0  0  0  0  0  0  0  0  0  0  0
    3.6440   18.7630    0.8740 C   0  0  0  0  0  0  0  0  0  0  0  0
    3.9520   18.2280   -0.4890 C   0  0  0  0  0  0  0  0  0  0  0  0
    4.4280   18.1850    2.0110 C   0  0  0  0  0  0  0  0  0  0  0  0
    0.3010   16.7270   -1.9050 C   0  0  1  0  0  0  0  0  0  0  0  0
    1.5910   16.7090   -2.7670 C   0  0  0  0  0  0  0  0  0  0  0  0
    2.3400   15.3960   -2.4220 C   0  0  0  0  0  0  0  0  0  0  0  0
    1.3100   14.5540   -1.6340 C   0  0  1  0  0  0  0  0  0  0  0  0
    0.4070   13.9000   -2.7260 C   0  0  0  0  0  0  0  0  0  0  0  0
    1.8950   13.4860   -0.6540 C   0  0  2  0  0  0  0  0  0  0  0  0
    2.7260   12.3750   -1.3190 C   0  0  0  0  0  0  0  0  0  0  0  0
    1.9570   11.1640   -1.7330 C   0  0  0  0  0  0  0  0  0  0  0  0
    0.7130   10.8510   -1.3250 C   0  0  0  0  0  0  0  0  0  0  0  0
   -0.0130   11.7080   -0.2800 C   0  0  1  0  0  0  0  0  0  0  0  0
   -0.6540   10.7870    0.7900 C   0  0  0  0  0  0  0  0  0  0  0  0
   -1.5590    9.7220    0.1790 C   0  0  0  0  0  0  0  0  0  0  0  0
   -0.7870    8.8530   -0.8110 C   0  0  2  0  0  0  0  0  0  0  0  0
    0.1880    8.0920   -0.0930 O   0  0  0  0  0  0  0  0  0  0  0  0
   -0.0890    9.6740   -1.9320 C   0  0  0  0  0  0  0  0  0  0  0  0
   -1.1560   10.2550   -2.8920 C   0  0  0  0  0  0  0  0  0  0  0  0
    0.7680    8.6940   -2.7770 C   0  0  0  0  0  0  0  0  0  0  0  0
    0.8380   12.8880    0.3600 C   0  0  1  0  0  0  0  0  0  0  0  0
    1.6450   12.3580    1.5850 C   0  0  0  0  0  0  0  0  0  0  0  0
   -0.1440   13.9860    0.9180 C   0  0  0  0  0  0  0  0  0  0  0  0
   -0.5920   15.0820   -0.0680 C   0  0  0  0  0  0  0  0  0  0  0  0
    0.6100   15.6870   -0.7990 C   0  0  2  0  0  0  0  0  0  0  0  0
    1.5260   16.3720    0.2720 C   0  0  0  0  0  0  0  0  0  0  0  0
    0.9431   19.9905   -1.8615 H   0  0  0  0  0  0  0  0  0  0  0  0
    1.2504   18.6905   -3.0624 H   0  0  0  0  0  0  0  0  0  0  0  0
   -0.3214   19.5600   -3.0624 H   0  0  0  0  0  0  0  0  0  0  0  0
   -1.1799   18.2378   -1.4656 H   0  0  0  0  0  0  0  0  0  0  0  0
   -0.4945   18.4599    0.6377 H   0  0  0  0  0  0  0  0  0  0  0  0
    1.0284   17.5184    0.2652 H   0  0  0  0  0  0  0  0  0  0  0  0
    1.6986   19.8870   -0.8081 H   0  0  0  0  0  0  0  0  0  0  0  0
    0.5816   20.4457    0.5063 H   0  0  0  0  0  0  0  0  0  0  0  0
    1.5802   19.2920    1.9739 H   0  0  0  0  0  0  0  0  0  0  0  0
    4.4988   17.2782   -0.3951 H   0  0  0  0  0  0  0  0  0  0  0  0
    3.0134   18.0582   -1.0369 H   0  0  0  0  0  0  0  0  0  0  0  0
    4.5702   18.9544   -1.0369 H   0  0  0  0  0  0  0  0  0  0  0  0
    3.9861   18.5108    2.9642 H   0  0  0  0  0  0  0  0  0  0  0  0
    4.4040   17.0868    1.9521 H   0  0  0  0  0  0  0  0  0  0  0  0
    5.4699   18.5327    1.9521 H   0  0  0  0  0  0  0  0  0  0  0  0
   -0.6178   16.4450   -2.4400 H   0  0  0  0  0  0  0  0  0  0  0  0
    1.3327   16.7283   -3.8361 H   0  0  0  0  0  0  0  0  0  0  0  0
    2.2181   17.5884   -2.5586 H   0  0  0  0  0  0  0  0  0  0  0  0
    2.6489   14.8728   -3.3390 H   0  0  0  0  0  0  0  0  0  0  0  0
    3.2580   15.5792   -1.8443 H   0  0  0  0  0  0  0  0  0  0  0  0
   -0.3929   13.3207   -2.2416 H   0  0  0  0  0  0  0  0  0  0  0  0
   -0.0381   14.6866   -3.3530 H   0  0  0  0  0  0  0  0  0  0  0  0
    1.0155   13.2318   -3.3530 H   0  0  0  0  0  0  0  0  0  0  0  0
    2.6077   14.0775   -0.0605 H   0  0  0  0  0  0  0  0  0  0  0  0
    3.2028   12.7977   -2.2156 H   0  0  0  0  0  0  0  0  0  0  0  0
    3.4431   12.0344   -0.5576 H   0  0  0  0  0  0  0  0  0  0  0  0
    2.4483   10.4692   -2.4300 H   0  0  0  0  0  0  0  0  0  0  0  0
   -0.8001   12.2504   -0.8243 H   0  0  0  0  0  0  0  0  0  0  0  0
    0.1489   10.2873    1.3518 H   0  0  0  0  0  0  0  0  0  0  0  0
   -1.2745   11.4170    1.4442 H   0  0  0  0  0  0  0  0  0  0  0  0
   -1.9584    9.0850    0.9820 H   0  0  0  0  0  0  0  0  0  0  0  0
   -2.3781   10.2229   -0.3577 H   0  0  0  0  0  0  0  0  0  0  0  0
   -1.5140    8.1958   -1.3106 H   0  0  0  0  0  0  0  0  0  0  0  0
   -0.0990    8.0440    0.8340 H   0  0  0  0  0  0  0  0  0  0  0  0
   -1.9733   10.7001   -2.3056 H   0  0  0  0  0  0  0  0  0  0  0  0
   -0.6968   11.0276   -3.5262 H   0  0  0  0  0  0  0  0  0  0  0  0
   -1.5558    9.4501   -3.5262 H   0  0  0  0  0  0  0  0  0  0  0  0
    1.3422    8.0374   -2.1067 H   0  0  0  0  0  0  0  0  0  0  0  0
    0.1085    8.0838   -3.4116 H   0  0  0  0  0  0  0  0  0  0  0  0
    1.4607    9.2662   -3.4116 H   0  0  0  0  0  0  0  0  0  0  0  0
    1.1539   12.6805    2.5149 H   0  0  0  0  0  0  0  0  0  0  0  0
    1.6821   11.2591    1.5520 H   0  0  0  0  0  0  0  0  0  0  0  0
    2.6682   12.7606    1.5520 H   0  0  0  0  0  0  0  0  0  0  0  0
   -1.0477   13.4724    1.2780 H   0  0  0  0  0  0  0  0  0  0  0  0
    0.4265   14.5142    1.6962 H   0  0  0  0  0  0  0  0  0  0  0  0
   -1.2784   14.6426   -0.8067 H   0  0  0  0  0  0  0  0  0  0  0  0
   -1.0950   15.8792    0.4989 H   0  0  0  0  0  0  0  0  0  0  0  0
    1.1727   16.1078    1.2796 H   0  0  0  0  0  0  0  0  0  0  0  0
    2.5621   16.0253    0.1441 H   0  0  0  0  0  0  0  0  0  0  0  0
    1.4863   17.4638    0.1441 H   0  0  0  0  0  0  0  0  0  0  0  0
  1  2  1  0
  2  3  1  0
  3  4  1  0
  4  5  1  0
  5  6  1  0
  6  7  1  0
  7  8  1  0
  7  9  1  0
  2 10  1  0
 10 11  1  0
 11 12  1  0
 12 13  1  0
 13 14  1  6
 13 15  1  0
 15 16  1  0
 16 17  1  0
 17 18  2  0
 18 19  1  0
 19 20  1  0
 20 21  1  0
 21 22  1  0
 22 23  1  0
 22 24  1  0
 24 25  1  0
 24 26  1  0
 19 27  1  0
 27 28  1  1
 27 29  1  0
 29 30  1  0
 30 31  1  0
 31 32  1  1
  7  5  1  0
 31 10  1  0
 31 13  1  0
 27 15  1  0
 24 18  1  0
  1 33  1  0
  1 34  1  0
  1 35  1  0
  2 36  1  1
  3 37  1  0
  3 38  1  0
  4 39  1  0
  4 40  1  0
  5 41  1  1
  8 42  1  0
  8 43  1  0
  8 44  1  0
  9 45  1  0
  9 46  1  0
  9 47  1  0
 10 48  1  6
 11 49  1  0
 11 50  1  0
 12 51  1  0
 12 52  1  0
 14 53  1  0
 14 54  1  0
 14 55  1  0
 15 56  1  1
 16 57  1  0
 16 58  1  0
 17 59  1  0
 19 60  1  6
 20 61  1  0
 20 62  1  0
 21 63  1  0
 21 64  1  0
 22 65  1  6
 23 66  1  0
 25 67  1  0
 25 68  1  0
 25 69  1  0
 26 70  1  0
 26 71  1  0
 26 72  1  0
 28 73  1  0
 28 74  1  0
 28 75  1  0
 29 76  1  0
 29 77  1  0
 30 78  1  0
 30 79  1  0
 32 80  1  0
 32 81  1  0
 32 82  1  0
M  END
>  <meeko>  (13) 
{"is_sidechain": [false], "intermolecular_energy": 2.731, "internal_energy": -0.839}

$$$$
EPH_relaxed_0001_pdb2pqr_Repair_132_r2_0001_out
     RDKit          3D

 82 86  0  0  0  0  0  0  0  0999 V2000
    3.3880   18.5460   -2.3870 C   0  0  0  0  0  0  0  0  0  0  0  0
    2.1360   17.6950   -2.6190 C   0  0  2  0  0  0  0  0  0  0  0  0
    0.8560   18.4010   -2.1300 C   0  0  0  0  0  0  0  0  0  0  0  0
    1.1130   19.4820   -1.0760 C   0  0  0  0  0  0  0  0  0  0  0  0
   -0.1570   20.1520   -0.6470 C   0  0  2  0  0  0  0  0  0  0  0  0
   -0.3630   20.1940    0.7710 O   0  0  0  0  0  0  0  0  0  0  0  0
   -1.3080   19.4180    0.0170 C   0  0  0  0  0  0  0  0  0  0  0  0
   -1.2420   17.9480    0.2880 C   0  0  0  0  0  0  0  0  0  0  0  0
   -2.6740   20.0250   -0.0450 C   0  0  0  0  0  0  0  0  0  0  0  0
    2.2870   16.3480   -1.9220 C   0  0  1  0  0  0  0  0  0  0  0  0
    2.7940   16.4840   -0.4620 C   0  0  0  0  0  0  0  0  0  0  0  0
    2.1050   15.3620    0.3570 C   0  0  0  0  0  0  0  0  0  0  0  0
    1.4910   14.4230   -0.7070 C   0  0  1  0  0  0  0  0  0  0  0  0
    2.6770   13.5240   -1.1790 C   0  0  0  0  0  0  0  0  0  0  0  0
    0.2650   13.5680   -0.2500 C   0  0  2  0  0  0  0  0  0  0  0  0
    0.5520   12.5690    0.8840 C   0  0  0  0  0  0  0  0  0  0  0  0
    0.9790   11.2080    0.4430 C   0  0  0  0  0  0  0  0  0  0  0  0
    0.8540   10.7150   -0.8030 C   0  0  0  0  0  0  0  0  0  0  0  0
    0.1430   11.5180   -1.9000 C   0  0  1  0  0  0  0  0  0  0  0  0
   -0.8480   10.5950   -2.6570 C   0  0  0  0  0  0  0  0  0  0  0  0
   -0.1780    9.3350   -3.1970 C   0  0  0  0  0  0  0  0  0  0  0  0
    0.4680    8.5340   -2.0690 C   0  0  2  0  0  0  0  0  0  0  0  0
   -0.5630    8.0260   -1.2160 O   0  0  0  0  0  0  0  0  0  0  0  0
    1.4790    9.3640   -1.2300 C   0  0  0  0  0  0  0  0  0  0  0  0
    2.7410    9.6580   -2.0780 C   0  0  0  0  0  0  0  0  0  0  0  0
    1.9500    8.4820   -0.0420 C   0  0  0  0  0  0  0  0  0  0  0  0
   -0.5260   12.8830   -1.4370 C   0  0  1  0  0  0  0  0  0  0  0  0
   -1.9710   12.6160   -0.9140 C   0  0  0  0  0  0  0  0  0  0  0  0
   -0.6740   13.8320   -2.6840 C   0  0  0  0  0  0  0  0  0  0  0  0
    0.5270   14.7390   -3.0140 C   0  0  0  0  0  0  0  0  0  0  0  0
    1.0110   15.4820   -1.7650 C   0  0  2  0  0  0  0  0  0  0  0  0
   -0.1530   16.4120   -1.2800 C   0  0  0  0  0  0  0  0  0  0  0  0
    3.5578   18.6614   -1.3063 H   0  0  0  0  0  0  0  0  0  0  0  0
    4.2576   18.0511   -2.8440 H   0  0  0  0  0  0  0  0  0  0  0  0
    3.2478   19.5367   -2.8440 H   0  0  0  0  0  0  0  0  0  0  0  0
    2.0351   17.5428   -3.7037 H   0  0  0  0  0  0  0  0  0  0  0  0
    0.3657   18.8699   -2.9959 H   0  0  0  0  0  0  0  0  0  0  0  0
    0.2268   17.6333   -1.6560 H   0  0  0  0  0  0  0  0  0  0  0  0
    1.5854   19.0181   -0.1976 H   0  0  0  0  0  0  0  0  0  0  0  0
    1.7694   20.2446   -1.5204 H   0  0  0  0  0  0  0  0  0  0  0  0
   -0.1158   20.8336   -1.5094 H   0  0  0  0  0  0  0  0  0  0  0  0
   -1.2343   17.7754    1.3743 H   0  0  0  0  0  0  0  0  0  0  0  0
   -2.1189   17.4536   -0.1556 H   0  0  0  0  0  0  0  0  0  0  0  0
   -0.3244   17.5342   -0.1556 H   0  0  0  0  0  0  0  0  0  0  0  0
   -3.0481   20.1912    0.9760 H   0  0  0  0  0  0  0  0  0  0  0  0
   -2.6244   20.9858   -0.5783 H   0  0  0  0  0  0  0  0  0  0  0  0
   -3.3539   19.3443   -0.5783 H   0  0  0  0  0  0  0  0  0  0  0  0
    2.9904   15.8604   -2.6130 H   0  0  0  0  0  0  0  0  0  0  0  0
    3.8866   16.3618   -0.4275 H   0  0  0  0  0  0  0  0  0  0  0  0
    2.5550   17.4762   -0.0517 H   0  0  0  0  0  0  0  0  0  0  0  0
    2.8404   14.8231    0.9725 H   0  0  0  0  0  0  0  0  0  0  0  0
    1.3485   15.7569    1.0511 H   0  0  0  0  0  0  0  0  0  0  0  0
    3.2054   13.1235   -0.3013 H   0  0  0  0  0  0  0  0  0  0  0  0
    2.2881   12.6918   -1.7841 H   0  0  0  0  0  0  0  0  0  0  0  0
    3.3732   14.1233   -1.7841 H   0  0  0  0  0  0  0  0  0  0  0  0
   -0.4030   14.3271    0.1830 H   0  0  0  0  0  0  0  0  0  0  0  0
    1.3512   12.9888    1.5125 H   0  0  0  0  0  0  0  0  0  0  0  0
   -0.4008   12.4311    1.4161 H   0  0  0  0  0  0  0  0  0  0  0  0
    1.4342   10.5529    1.2004 H   0  0  0  0  0  0  0  0  0  0  0  0
    0.9317   11.8610   -2.5858 H   0  0  0  0  0  0  0  0  0  0  0  0
   -1.6515   10.2988   -1.9666 H   0  0  0  0  0  0  0  0  0  0  0  0
   -1.2399   11.1592   -3.5162 H   0  0  0  0  0  0  0  0  0  0  0  0
   -0.9343    8.7103   -3.6947 H   0  0  0  0  0  0  0  0  0  0  0  0
    0.6054    9.6320   -3.9098 H   0  0  0  0  0  0  0  0  0  0  0  0
    1.0408    7.7161   -2.5305 H   0  0  0  0  0  0  0  0  0  0  0  0
   -1.4100    8.1410   -1.6780 H   0  0  0  0  0  0  0  0  0  0  0  0
    3.5929    9.8565   -1.4110 H   0  0  0  0  0  0  0  0  0  0  0  0
    2.9670    8.7885   -2.7127 H   0  0  0  0  0  0  0  0  0  0  0  0
    2.5595   10.5379   -2.7127 H   0  0  0  0  0  0  0  0  0  0  0  0
    1.6875    8.9736    0.9063 H   0  0  0  0  0  0  0  0  0  0  0  0
    1.4558    7.5007   -0.0954 H   0  0  0  0  0  0  0  0  0  0  0  0
    3.0404    8.3468   -0.0954 H   0  0  0  0  0  0  0  0  0  0  0  0
   -1.9687   12.6164    0.1860 H   0  0  0  0  0  0  0  0  0  0  0  0
   -2.6449   13.4048   -1.2796 H   0  0  0  0  0  0  0  0  0  0  0  0
   -2.3185   11.6384   -1.2796 H   0  0  0  0  0  0  0  0  0  0  0  0
   -0.8641   13.1988   -3.5632 H   0  0  0  0  0  0  0  0  0  0  0  0
   -1.4920   14.5206   -2.4258 H   0  0  0  0  0  0  0  0  0  0  0  0
    1.3481   14.1208   -3.4060 H   0  0  0  0  0  0  0  0  0  0  0  0
    0.2120   15.4800   -3.7635 H   0  0  0  0  0  0  0  0  0  0  0  0
   -0.1746   16.4293   -0.1803 H   0  0  0  0  0  0  0  0  0  0  0  0
    0.0098   17.4315   -1.6596 H   0  0  0  0  0  0  0  0  0  0  0  0
   -1.1114   16.0281   -1.6596 H   0  0  0  0  0  0  0  0  0  0  0  0
  1  2  1  0
  2  3  1  0
  3  4  1  0
  4  5  1  0
  5  6  1  0
  6  7  1  0
  7  8  1  0
  7  9  1  0
  2 10  1  0
 10 11  1  0
 11 12  1  0
 12 13  1  0
 13 14  1  6
 13 15  1  0
 15 16  1  0
 16 17  1  0
 17 18  2  0
 18 19  1  0
 19 20  1  0
 20 21  1  0
 21 22  1  0
 22 23  1  0
 22 24  1  0
 24 25  1  0
 24 26  1  0
 19 27  1  0
 27 28  1  1
 27 29  1  0
 29 30  1  0
 30 31  1  0
 31 32  1  1
  7  5  1  0
 31 10  1  0
 31 13  1  0
 27 15  1  0
 24 18  1  0
  1 33  1  0
  1 34  1  0
  1 35  1  0
  2 36  1  6
  3 37  1  0
  3 38  1  0
  4 39  1  0
  4 40  1  0
  5 41  1  6
  8 42  1  0
  8 43  1  0
  8 44  1  0
  9 45  1  0
  9 46  1  0
  9 47  1  0
 10 48  1  6
 11 49  1  0
 11 50  1  0
 12 51  1  0
 12 52  1  0
 14 53  1  0
 14 54  1  0
 14 55  1  0
 15 56  1  1
 16 57  1  0
 16 58  1  0
 17 59  1  0
 19 60  1  6
 20 61  1  0
 20 62  1  0
 21 63  1  0
 21 64  1  0
 22 65  1  6
 23 66  1  0
 25 67  1  0
 25 68  1  0
 25 69  1  0
 26 70  1  0
 26 71  1  0
 26 72  1  0
 28 73  1  0
 28 74  1  0
 28 75  1  0
 29 76  1  0
 29 77  1  0
 30 78  1  0
 30 79  1  0
 32 80  1  0
 32 81  1  0
 32 82  1  0
M  END
>  <meeko>  (14) 
{"is_sidechain": [false], "intermolecular_energy": 2.731, "internal_energy": -0.839}

$$$$
EPH_relaxed_0001_pdb2pqr_Repair_132_r2_0001_out
     RDKit          3D

 82 86  0  0  0  0  0  0  0  0999 V2000
    2.7110   11.4950   -5.6930 C   0  0  0  0  0  0  0  0  0  0  0  0
    1.8560   11.1720   -4.4650 C   0  0  2  0  0  0  0  0  0  0  0  0
    0.7370   10.1610   -4.7860 C   0  0  0  0  0  0  0  0  0  0  0  0
   -0.2920   10.0060   -3.6630 C   0  0  0  0  0  0  0  0  0  0  0  0
    0.2090    9.1090   -2.5720 C   0  0  2  0  0  0  0  0  0  0  0  0
   -0.6720    8.0300   -2.2320 O   0  0  0  0  0  0  0  0  0  0  0  0
   -0.4440    9.0100   -1.2050 C   0  0  0  0  0  0  0  0  0  0  0  0
   -1.6530    9.8200   -0.8570 C   0  0  0  0  0  0  0  0  0  0  0  0
    0.3730    8.5020   -0.0580 C   0  0  0  0  0  0  0  0  0  0  0  0
    1.2550   12.4530   -3.8990 C   0  0  1  0  0  0  0  0  0  0  0  0
   -0.2880   12.3720   -3.7470 C   0  0  0  0  0  0  0  0  0  0  0  0
   -0.6550   13.1830   -2.4780 C   0  0  0  0  0  0  0  0  0  0  0  0
    0.6300   13.9720   -2.1330 C   0  0  1  0  0  0  0  0  0  0  0  0
    0.6080   15.2100   -3.0840 C   0  0  0  0  0  0  0  0  0  0  0  0
    0.8010   14.3950   -0.6380 C   0  0  2  0  0  0  0  0  0  0  0  0
   -0.2770   15.3540   -0.1040 C   0  0  0  0  0  0  0  0  0  0  0  0
    0.0290   16.8070   -0.2580 C   0  0  0  0  0  0  0  0  0  0  0  0
    1.2380   17.3260   -0.5400 C   0  0  0  0  0  0  0  0  0  0  0  0
    2.4780   16.4270   -0.6380 C   0  0  1  0  0  0  0  0  0  0  0  0
    3.6460   17.0680    0.1560 C   0  0  0  0  0  0  0  0  0  0  0  0
    3.9300   18.5030   -0.2780 C   0  0  0  0  0  0  0  0  0  0  0  0
    2.6910   19.3790   -0.1110 C   0  0  2  0  0  0  0  0  0  0  0  0
    2.3980   19.5020    1.2840 O   0  0  0  0  0  0  0  0  0  0  0  0
    1.4460   18.8270   -0.8600 C   0  0  0  0  0  0  0  0  0  0  0  0
    1.6490   18.9760   -2.3880 C   0  0  0  0  0  0  0  0  0  0  0  0
    0.2330   19.7250   -0.4940 C   0  0  0  0  0  0  0  0  0  0  0  0
    2.2550   14.8980   -0.2690 C   0  0  1  0  0  0  0  0  0  0  0  0
    2.4210   14.6920    1.2680 C   0  0  0  0  0  0  0  0  0  0  0  0
    3.3790   14.0350   -0.9560 C   0  0  0  0  0  0  0  0  0  0  0  0
    3.1000   13.5460   -2.3900 C   0  0  0  0  0  0  0  0  0  0  0  0
    1.7170   12.8930   -2.4880 C   0  0  2  0  0  0  0  0  0  0  0  0
    1.7170   11.6320   -1.5590 C   0  0  0  0  0  0  0  0  0  0  0  0
    3.6941   11.8664   -5.3679 H   0  0  0  0  0  0  0  0  0  0  0  0
    2.8441   10.5852   -6.2967 H   0  0  0  0  0  0  0  0  0  0  0  0
    2.2093   12.2656   -6.2967 H   0  0  0  0  0  0  0  0  0  0  0  0
    2.5144   10.7079   -3.7159 H   0  0  0  0  0  0  0  0  0  0  0  0
    0.2135   10.4984   -5.6927 H   0  0  0  0  0  0  0  0  0  0  0  0
    1.2177    9.1806   -4.9196 H   0  0  0  0  0  0  0  0  0  0  0  0
   -0.5082   10.9974   -3.2383 H   0  0  0  0  0  0  0  0  0  0  0  0
   -1.1994    9.5534   -4.0894 H   0  0  0  0  0  0  0  0  0  0  0  0
    1.2514    9.2747   -2.8816 H   0  0  0  0  0  0  0  0  0  0  0  0
   -1.7489    9.8842    0.2369 H   0  0  0  0  0  0  0  0  0  0  0  0
   -1.5496   10.8318   -1.2760 H   0  0  0  0  0  0  0  0  0  0  0  0
   -2.5494    9.3395   -1.2760 H   0  0  0  0  0  0  0  0  0  0  0  0
   -0.1017    8.7972    0.8894 H   0  0  0  0  0  0  0  0  0  0  0  0
    0.4362    7.4051   -0.1103 H   0  0  0  0  0  0  0  0  0  0  0  0
    1.3848    8.9305   -0.1103 H   0  0  0  0  0  0  0  0  0  0  0  0
    1.6106   13.1717   -4.6520 H   0  0  0  0  0  0  0  0  0  0  0  0
   -0.7791   12.8071   -4.6299 H   0  0  0  0  0  0  0  0  0  0  0  0
   -0.6221   11.3277   -3.6589 H   0  0  0  0  0  0  0  0  0  0  0  0
   -1.4889   13.8701   -2.6841 H   0  0  0  0  0  0  0  0  0  0  0  0
   -0.9821   12.5365   -1.6503 H   0  0  0  0  0  0  0  0  0  0  0  0
    0.5916   16.1324   -2.4849 H   0  0  0  0  0  0  0  0  0  0  0  0
    1.5064   15.2009   -3.7186 H   0  0  0  0  0  0  0  0  0  0  0  0
   -0.2896   15.1690   -3.7186 H   0  0  0  0  0  0  0  0  0  0  0  0
    0.6468   13.4451   -0.1052 H   0  0  0  0  0  0  0  0  0  0  0  0
   -1.2139   15.1452   -0.6412 H   0  0  0  0  0  0  0  0  0  0  0  0
   -0.3392   15.1693    0.9786 H   0  0  0  0  0  0  0  0  0  0  0  0
   -0.8046   17.5133   -0.1301 H   0  0  0  0  0  0  0  0  0  0  0  0
    2.7361   16.3786   -1.7062 H   0  0  0  0  0  0  0  0  0  0  0  0
    3.3877   17.0675    1.2253 H   0  0  0  0  0  0  0  0  0  0  0  0
    4.5503   16.4739   -0.0422 H   0  0  0  0  0  0  0  0  0  0  0  0
    4.7449   18.9108    0.3381 H   0  0  0  0  0  0  0  0  0  0  0  0
    4.2161   18.4984   -1.3401 H   0  0  0  0  0  0  0  0  0  0  0  0
    2.9167   20.3589   -0.5570 H   0  0  0  0  0  0  0  0  0  0  0  0
    1.5220   19.9160    1.3660 H   0  0  0  0  0  0  0  0  0  0  0  0
    2.5220   19.6168   -2.5811 H   0  0  0  0  0  0  0  0  0  0  0  0
    1.8160   17.9845   -2.8341 H   0  0  0  0  0  0  0  0  0  0  0  0
    0.7532   19.4326   -2.8341 H   0  0  0  0  0  0  0  0  0  0  0  0
    0.1431   19.7916    0.6003 H   0  0  0  0  0  0  0  0  0  0  0  0
    0.3828   20.7316   -0.9115 H   0  0  0  0  0  0  0  0  0  0  0  0
   -0.6860   19.2879   -0.9115 H   0  0  0  0  0  0  0  0  0  0  0  0
    1.8187   15.4394    1.8053 H   0  0  0  0  0  0  0  0  0  0  0  0
    2.0813   13.6821    1.5414 H   0  0  0  0  0  0  0  0  0  0  0  0
    3.4800   14.8092    1.5414 H   0  0  0  0  0  0  0  0  0  0  0  0
    4.2951   14.6432   -0.9841 H   0  0  0  0  0  0  0  0  0  0  0  0
    3.4514   13.1205   -0.3489 H   0  0  0  0  0  0  0  0  0  0  0  0
    3.1423   14.4038   -3.0773 H   0  0  0  0  0  0  0  0  0  0  0  0
    3.8605   12.7984   -2.6597 H   0  0  0  0  0  0  0  0  0  0  0  0
    2.7541   11.3368   -1.3415 H   0  0  0  0  0  0  0  0  0  0  0  0
    1.1985   11.8695   -0.6184 H   0  0  0  0  0  0  0  0  0  0  0  0
    1.1985   10.8041   -2.0646 H   0  0  0  0  0  0  0  0  0  0  0  0
  1  2  1  0
  2  3  1  0
  3  4  1  0
  4  5  1  0
  5  6  1  0
  6  7  1  0
  7  8  1  0
  7  9  1  0
  2 10  1  0
 10 11  1  0
 11 12  1  0
 12 13  1  0
 13 14  1  6
 13 15  1  0
 15 16  1  0
 16 17  1  0
 17 18  2  0
 18 19  1  0
 19 20  1  0
 20 21  1  0
 21 22  1  0
 22 23  1  0
 22 24  1  0
 24 25  1  0
 24 26  1  0
 19 27  1  0
 27 28  1  1
 27 29  1  0
 29 30  1  0
 30 31  1  0
 31 32  1  1
  7  5  1  0
 31 10  1  0
 31 13  1  0
 27 15  1  0
 24 18  1  0
  1 33  1  0
  1 34  1  0
  1 35  1  0
  2 36  1  1
  3 37  1  0
  3 38  1  0
  4 39  1  0
  4 40  1  0
  5 41  1  1
  8 42  1  0
  8 43  1  0
  8 44  1  0
  9 45  1  0
  9 46  1  0
  9 47  1  0
 10 48  1  6
 11 49  1  0
 11 50  1  0
 12 51  1  0
 12 52  1  0
 14 53  1  0
 14 54  1  0
 14 55  1  0
 15 56  1  1
 16 57  1  0
 16 58  1  0
 17 59  1  0
 19 60  1  6
 20 61  1  0
 20 62  1  0
 21 63  1  0
 21 64  1  0
 22 65  1  6
 23 66  1  0
 25 67  1  0
 25 68  1  0
 25 69  1  0
 26 70  1  0
 26 71  1  0
 26 72  1  0
 28 73  1  0
 28 74  1  0
 28 75  1  0
 29 76  1  0
 29 77  1  0
 30 78  1  0
 30 79  1  0
 32 80  1  0
 32 81  1  0
 32 82  1  0
M  END
>  <meeko>  (15) 
{"is_sidechain": [false], "intermolecular_energy": 2.731, "internal_energy": -0.839}

$$$$
EPH_relaxed_0001_pdb2pqr_Repair_132_r2_0001_out
     RDKit          3D

 82 86  0  0  0  0  0  0  0  0999 V2000
   -2.1790    7.8040   -2.2650 C   0  0  0  0  0  0  0  0  0  0  0  0
   -2.3530    8.4190   -0.8730 C   0  0  2  0  0  0  0  0  0  0  0  0
   -3.8250    8.4170   -0.4170 C   0  0  0  0  0  0  0  0  0  0  0  0
   -4.7640    7.6700   -1.3690 C   0  0  0  0  0  0  0  0  0  0  0  0
   -5.9630    7.1260   -0.6520 C   0  0  2  0  0  0  0  0  0  0  0  0
   -6.5980    6.0180   -1.3020 O   0  0  0  0  0  0  0  0  0  0  0  0
   -7.3760    7.2210   -1.1950 C   0  0  0  0  0  0  0  0  0  0  0  0
   -7.6650    7.8780   -2.5080 C   0  0  0  0  0  0  0  0  0  0  0  0
   -8.5200    7.1150   -0.2360 C   0  0  0  0  0  0  0  0  0  0  0  0
   -1.8060    9.8410   -0.8620 C   0  0  1  0  0  0  0  0  0  0  0  0
   -1.3790   10.3060    0.5560 C   0  0  0  0  0  0  0  0  0  0  0  0
   -0.1420   11.2220    0.3730 C   0  0  0  0  0  0  0  0  0  0  0  0
   -0.0990   11.5210   -1.1440 C   0  0  1  0  0  0  0  0  0  0  0  0
   -1.1360   12.6680   -1.3560 C   0  0  0  0  0  0  0  0  0  0  0  0
    1.3000   11.8920   -1.7360 C   0  0  2  0  0  0  0  0  0  0  0  0
    1.9280   13.1780   -1.1710 C   0  0  0  0  0  0  0  0  0  0  0  0
    1.5950   14.4290   -1.9130 C   0  0  0  0  0  0  0  0  0  0  0  0
    1.0600   14.4880   -3.1470 C   0  0  0  0  0  0  0  0  0  0  0  0
    0.8270   13.2120   -3.9660 C   0  0  1  0  0  0  0  0  0  0  0  0
    1.3440   13.4230   -5.4130 C   0  0  0  0  0  0  0  0  0  0  0  0
    0.7420   14.6600   -6.0750 C   0  0  0  0  0  0  0  0  0  0  0  0
    1.0450   15.9150   -5.2620 C   0  0  2  0  0  0  0  0  0  0  0  0
    2.4540   16.1640   -5.3060 O   0  0  0  0  0  0  0  0  0  0  0  0
    0.5780   15.8160   -3.7830 C   0  0  0  0  0  0  0  0  0  0  0  0
   -0.9690   15.8500   -3.7220 C   0  0  0  0  0  0  0  0  0  0  0  0
    1.0700   17.0870   -3.0400 C   0  0  0  0  0  0  0  0  0  0  0  0
    1.3630   11.8640   -3.3170 C   0  0  1  0  0  0  0  0  0  0  0  0
    2.8590   11.6480   -3.6990 C   0  0  0  0  0  0  0  0  0  0  0  0
    0.5690   10.6490   -3.9260 C   0  0  0  0  0  0  0  0  0  0  0  0
   -0.7460   10.2560   -3.2240 C   0  0  0  0  0  0  0  0  0  0  0  0
   -0.5420   10.1240   -1.7120 C   0  0  2  0  0  0  0  0  0  0  0  0
    0.4810    8.9620   -1.4670 C   0  0  0  0  0  0  0  0  0  0  0  0
   -1.8808    6.7499   -2.1655 H   0  0  0  0  0  0  0  0  0  0  0  0
   -3.1299    7.8657   -2.8146 H   0  0  0  0  0  0  0  0  0  0  0  0
   -1.4014    8.3547   -2.8146 H   0  0  0  0  0  0  0  0  0  0  0  0
   -1.7875    7.7973   -0.1633 H   0  0  0  0  0  0  0  0  0  0  0  0
   -3.8814    7.9391    0.5722 H   0  0  0  0  0  0  0  0  0  0  0  0
   -4.1563    9.4657   -0.3963 H   0  0  0  0  0  0  0  0  0  0  0  0
   -5.1019    8.3634   -2.1533 H   0  0  0  0  0  0  0  0  0  0  0  0
   -4.2106    6.8239   -1.8024 H   0  0  0  0  0  0  0  0  0  0  0  0
   -5.5281    7.3890    0.3236 H   0  0  0  0  0  0  0  0  0  0  0  0
   -8.1022    8.8720   -2.3323 H   0  0  0  0  0  0  0  0  0  0  0  0
   -6.7305    7.9841   -3.0785 H   0  0  0  0  0  0  0  0  0  0  0  0
   -8.3747    7.2609   -3.0785 H   0  0  0  0  0  0  0  0  0  0  0  0
   -8.1385    7.1503    0.7951 H   0  0  0  0  0  0  0  0  0  0  0  0
   -9.2140    7.9527   -0.3991 H   0  0  0  0  0  0  0  0  0  0  0  0
   -9.0483    6.1641   -0.3991 H   0  0  0  0  0  0  0  0  0  0  0  0
   -2.6706   10.3738   -1.2845 H   0  0  0  0  0  0  0  0  0  0  0  0
   -2.1971   10.8652    1.0335 H   0  0  0  0  0  0  0  0  0  0  0  0
   -1.1415    9.4456    1.1988 H   0  0  0  0  0  0  0  0  0  0  0  0
   -0.2588   12.1519    0.9489 H   0  0  0  0  0  0  0  0  0  0  0  0
    0.7841   10.7489    0.7314 H   0  0  0  0  0  0  0  0  0  0  0  0
   -1.4741   13.0420   -0.3783 H   0  0  0  0  0  0  0  0  0  0  0  0
   -0.6662   13.4876   -1.9195 H   0  0  0  0  0  0  0  0  0  0  0  0
   -1.9986   12.2829   -1.9195 H   0  0  0  0  0  0  0  0  0  0  0  0
    1.9338   11.0679   -1.3767 H   0  0  0  0  0  0  0  0  0  0  0  0
    1.5839   13.2967   -0.1330 H   0  0  0  0  0  0  0  0  0  0  0  0
    3.0168   13.0506   -1.2623 H   0  0  0  0  0  0  0  0  0  0  0  0
    1.8044   15.3840   -1.4090 H   0  0  0  0  0  0  0  0  0  0  0  0
   -0.2615   13.0537   -3.9783 H   0  0  0  0  0  0  0  0  0  0  0  0
    2.4378   13.5357   -5.3837 H   0  0  0  0  0  0  0  0  0  0  0  0
    1.0431   12.5469   -6.0062 H   0  0  0  0  0  0  0  0  0  0  0  0
    1.1680   14.7723   -7.0829 H   0  0  0  0  0  0  0  0  0  0  0  0
   -0.3492   14.5326   -6.1309 H   0  0  0  0  0  0  0  0  0  0  0  0
    0.4803   16.7440   -5.7136 H   0  0  0  0  0  0  0  0  0  0  0  0
    2.6240   16.9830   -4.8100 H   0  0  0  0  0  0  0  0  0  0  0  0
   -1.2944   15.8572   -2.6713 H   0  0  0  0  0  0  0  0  0  0  0  0
   -1.3360   16.7564   -4.2257 H   0  0  0  0  0  0  0  0  0  0  0  0
   -1.3755   14.9606   -4.2257 H   0  0  0  0  0  0  0  0  0  0  0  0
    1.0070   16.9243   -1.9539 H   0  0  0  0  0  0  0  0  0  0  0  0
    2.1134   17.2945   -3.3198 H   0  0  0  0  0  0  0  0  0  0  0  0
    0.4382   17.9429   -3.3198 H   0  0  0  0  0  0  0  0  0  0  0  0
    3.4623   11.5609   -2.7834 H   0  0  0  0  0  0  0  0  0  0  0  0
    2.9567   10.7264   -4.2916 H   0  0  0  0  0  0  0  0  0  0  0  0
    3.2134   12.5043   -4.2916 H   0  0  0  0  0  0  0  0  0  0  0  0
    0.3273   10.8989   -4.9696 H   0  0  0  0  0  0  0  0  0  0  0  0
    1.2323    9.7804   -3.8018 H   0  0  0  0  0  0  0  0  0  0  0  0
   -1.5031   11.0299   -3.4187 H   0  0  0  0  0  0  0  0  0  0  0  0
   -1.0778    9.2846   -3.6193 H   0  0  0  0  0  0  0  0  0  0  0  0
    0.6132    8.8118   -0.3853 H   0  0  0  0  0  0  0  0  0  0  0  0
    0.0997    8.0359   -1.9219 H   0  0  0  0  0  0  0  0  0  0  0  0
    1.4480    9.2228   -1.9219 H   0  0  0  0  0  0  0  0  0  0  0  0
  1  2  1  0
  2  3  1  0
  3  4  1  0
  4  5  1  0
  5  6  1  0
  6  7  1  0
  7  8  1  0
  7  9  1  0
  2 10  1  0
 10 11  1  0
 11 12  1  0
 12 13  1  0
 13 14  1  1
 13 15  1  0
 15 16  1  0
 16 17  1  0
 17 18  2  0
 18 19  1  0
 19 20  1  0
 20 21  1  0
 21 22  1  0
 22 23  1  0
 22 24  1  0
 24 25  1  0
 24 26  1  0
 19 27  1  0
 27 28  1  1
 27 29  1  0
 29 30  1  0
 30 31  1  0
 31 32  1  6
  7  5  1  0
 31 10  1  0
 31 13  1  0
 27 15  1  0
 24 18  1  0
  1 33  1  0
  1 34  1  0
  1 35  1  0
  2 36  1  1
  3 37  1  0
  3 38  1  0
  4 39  1  0
  4 40  1  0
  5 41  1  1
  8 42  1  0
  8 43  1  0
  8 44  1  0
  9 45  1  0
  9 46  1  0
  9 47  1  0
 10 48  1  6
 11 49  1  0
 11 50  1  0
 12 51  1  0
 12 52  1  0
 14 53  1  0
 14 54  1  0
 14 55  1  0
 15 56  1  1
 16 57  1  0
 16 58  1  0
 17 59  1  0
 19 60  1  6
 20 61  1  0
 20 62  1  0
 21 63  1  0
 21 64  1  0
 22 65  1  6
 23 66  1  0
 25 67  1  0
 25 68  1  0
 25 69  1  0
 26 70  1  0
 26 71  1  0
 26 72  1  0
 28 73  1  0
 28 74  1  0
 28 75  1  0
 29 76  1  0
 29 77  1  0
 30 78  1  0
 30 79  1  0
 32 80  1  0
 32 81  1  0
 32 82  1  0
M  END
>  <meeko>  (16) 
{"is_sidechain": [false], "intermolecular_energy": 2.731, "internal_energy": -0.839}

$$$$
EPH_relaxed_0001_pdb2pqr_Repair_132_r2_0001_out
     RDKit          3D

 82 86  0  0  0  0  0  0  0  0999 V2000
   -2.4430    7.6870   -0.1090 C   0  0  0  0  0  0  0  0  0  0  0  0
   -3.0510    9.0910   -0.0540 C   0  0  2  0  0  0  0  0  0  0  0  0
   -4.5530    9.0880   -0.4020 C   0  0  0  0  0  0  0  0  0  0  0  0
   -5.1700    7.6880   -0.4520 C   0  0  0  0  0  0  0  0  0  0  0  0
   -5.9220    7.4590   -1.7290 C   0  0  2  0  0  0  0  0  0  0  0  0
   -6.8340    8.5060   -2.0820 O   0  0  0  0  0  0  0  0  0  0  0  0
   -7.4200    7.2280   -1.7870 C   0  0  0  0  0  0  0  0  0  0  0  0
   -8.2570    7.2130   -0.5470 C   0  0  0  0  0  0  0  0  0  0  0  0
   -7.9910    6.5350   -2.9860 C   0  0  0  0  0  0  0  0  0  0  0  0
   -2.3000   10.0200   -1.0000 C   0  0  1  0  0  0  0  0  0  0  0  0
   -2.9530   11.4240   -1.1030 C   0  0  0  0  0  0  0  0  0  0  0  0
   -1.7970   12.4440   -1.2750 C   0  0  0  0  0  0  0  0  0  0  0  0
   -0.5580   11.5770   -1.5980 C   0  0  1  0  0  0  0  0  0  0  0  0
   -0.6740   11.2610   -3.1220 C   0  0  0  0  0  0  0  0  0  0  0  0
    0.8320   12.1990   -1.2420 C   0  0  2  0  0  0  0  0  0  0  0  0
    1.1800   13.4930   -1.9980 C   0  0  0  0  0  0  0  0  0  0  0  0
    1.9110   13.3020   -3.2860 C   0  0  0  0  0  0  0  0  0  0  0  0
    2.5220   12.1680   -3.6780 C   0  0  0  0  0  0  0  0  0  0  0  0
    2.6000   10.9530   -2.7450 C   0  0  1  0  0  0  0  0  0  0  0  0
    4.0460   10.3910   -2.7480 C   0  0  0  0  0  0  0  0  0  0  0  0
    4.5510   10.0810   -4.1540 C   0  0  0  0  0  0  0  0  0  0  0  0
    4.5120   11.3270   -5.0350 C   0  0  2  0  0  0  0  0  0  0  0  0
    5.4640   12.2720   -4.5380 O   0  0  0  0  0  0  0  0  0  0  0  0
    3.1060   11.9870   -5.1010 C   0  0  0  0  0  0  0  0  0  0  0  0
    2.1440   11.0830   -5.9100 C   0  0  0  0  0  0  0  0  0  0  0  0
    3.2370   13.3100   -5.9040 C   0  0  0  0  0  0  0  0  0  0  0  0
    2.0320   11.1680   -1.2770 C   0  0  1  0  0  0  0  0  0  0  0  0
    3.1470   11.7500   -0.3550 C   0  0  0  0  0  0  0  0  0  0  0  0
    1.6380    9.7700   -0.6680 C   0  0  0  0  0  0  0  0  0  0  0  0
    0.2110    9.2650   -0.9560 C   0  0  0  0  0  0  0  0  0  0  0  0
   -0.8260   10.3500   -0.6520 C   0  0  2  0  0  0  0  0  0  0  0  0
   -0.7480   10.6720    0.8790 C   0  0  0  0  0  0  0  0  0  0  0  0
   -2.2826    7.3166    0.9142 H   0  0  0  0  0  0  0  0  0  0  0  0
   -3.1290    7.0109   -0.6404 H   0  0  0  0  0  0  0  0  0  0  0  0
   -1.4806    7.7247   -0.6404 H   0  0  0  0  0  0  0  0  0  0  0  0
   -2.9523    9.4534    0.9799 H   0  0  0  0  0  0  0  0  0  0  0  0
   -5.0870    9.6759    0.3590 H   0  0  0  0  0  0  0  0  0  0  0  0
   -4.6505    9.5186   -1.4095 H   0  0  0  0  0  0  0  0  0  0  0  0
   -4.3663    6.9411   -0.3726 H   0  0  0  0  0  0  0  0  0  0  0  0
   -5.8782    7.5951    0.3846 H   0  0  0  0  0  0  0  0  0  0  0  0
   -5.0731    6.9061   -2.1577 H   0  0  0  0  0  0  0  0  0  0  0  0
   -7.6027    7.2247    0.3372 H   0  0  0  0  0  0  0  0  0  0  0  0
   -8.9079    8.0996   -0.5332 H   0  0  0  0  0  0  0  0  0  0  0  0
   -8.8757    6.3036   -0.5332 H   0  0  0  0  0  0  0  0  0  0  0  0
   -8.6586    5.7247   -2.6578 H   0  0  0  0  0  0  0  0  0  0  0  0
   -8.5600    7.2568   -3.5903 H   0  0  0  0  0  0  0  0  0  0  0  0
   -7.1737    6.1146   -3.5903 H   0  0  0  0  0  0  0  0  0  0  0  0
   -2.3441    9.4196   -1.9207 H   0  0  0  0  0  0  0  0  0  0  0  0
   -3.6270   11.4654   -1.9713 H   0  0  0  0  0  0  0  0  0  0  0  0
   -3.5482   11.6494   -0.2058 H   0  0  0  0  0  0  0  0  0  0  0  0
   -2.0112   13.1384   -2.1008 H   0  0  0  0  0  0  0  0  0  0  0  0
   -1.6504   13.0641   -0.3784 H   0  0  0  0  0  0  0  0  0  0  0  0
   -1.0502   10.2361   -3.2564 H   0  0  0  0  0  0  0  0  0  0  0  0
   -1.3699   11.9716   -3.5919 H   0  0  0  0  0  0  0  0  0  0  0  0
    0.3164   11.3526   -3.5919 H   0  0  0  0  0  0  0  0  0  0  0  0
    0.6963   12.4942   -0.1911 H   0  0  0  0  0  0  0  0  0  0  0  0
    0.2408   14.0227   -2.2155 H   0  0  0  0  0  0  0  0  0  0  0  0
    1.8609   14.0551   -1.3420 H   0  0  0  0  0  0  0  0  0  0  0  0
    1.9540   14.1603   -3.9726 H   0  0  0  0  0  0  0  0  0  0  0  0
    1.9076   10.2057   -3.1600 H   0  0  0  0  0  0  0  0  0  0  0  0
    4.7142   11.1348   -2.2895 H   0  0  0  0  0  0  0  0  0  0  0  0
    4.0388    9.4486   -2.1808 H   0  0  0  0  0  0  0  0  0  0  0  0
    5.5869    9.7162   -4.0921 H   0  0  0  0  0  0  0  0  0  0  0  0
    3.8994    9.3152   -4.6001 H   0  0  0  0  0  0  0  0  0  0  0  0
    4.7600   11.0145   -6.0601 H   0  0  0  0  0  0  0  0  0  0  0  0
    5.7530   11.9660   -3.6610 H   0  0  0  0  0  0  0  0  0  0  0  0
    1.5213   10.4978   -5.2173 H   0  0  0  0  0  0  0  0  0  0  0  0
    1.4986   11.7090   -6.5437 H   0  0  0  0  0  0  0  0  0  0  0  0
    2.7287   10.3999   -6.5437 H   0  0  0  0  0  0  0  0  0  0  0  0
    3.3208   14.1559   -5.2058 H   0  0  0  0  0  0  0  0  0  0  0  0
    4.1353   13.2670   -6.5374 H   0  0  0  0  0  0  0  0  0  0  0  0
    2.3477   13.4440   -6.5374 H   0  0  0  0  0  0  0  0  0  0  0  0
    2.8656   11.6031    0.6982 H   0  0  0  0  0  0  0  0  0  0  0  0
    4.0965   11.2325   -0.5564 H   0  0  0  0  0  0  0  0  0  0  0  0
    3.2653   12.8249   -0.5564 H   0  0  0  0  0  0  0  0  0  0  0  0
    2.3418    9.0236   -1.0650 H   0  0  0  0  0  0  0  0  0  0  0  0
    1.6802    9.9084    0.4224 H   0  0  0  0  0  0  0  0  0  0  0  0
    0.1363    8.9829   -2.0166 H   0  0  0  0  0  0  0  0  0  0  0  0
    0.0094    8.3967   -0.3115 H   0  0  0  0  0  0  0  0  0  0  0  0
   -0.9684    9.7622    1.4567 H   0  0  0  0  0  0  0  0  0  0  0  0
    0.2625   11.0285    1.1277 H   0  0  0  0  0  0  0  0  0  0  0  0
   -1.4833   11.4514    1.1277 H   0  0  0  0  0  0  0  0  0  0  0  0
  1  2  1  0
  2  3  1  0
  3  4  1  0
  4  5  1  0
  5  6  1  0
  6  7  1  0
  7  8  1  0
  7  9  1  0
  2 10  1  0
 10 11  1  0
 11 12  1  0
 12 13  1  0
 13 14  1  6
 13 15  1  0
 15 16  1  0
 16 17  1  0
 17 18  2  0
 18 19  1  0
 19 20  1  0
 20 21  1  0
 21 22  1  0
 22 23  1  0
 22 24  1  0
 24 25  1  0
 24 26  1  0
 19 27  1  0
 27 28  1  1
 27 29  1  0
 29 30  1  0
 30 31  1  0
 31 32  1  1
  7  5  1  0
 31 10  1  0
 31 13  1  0
 27 15  1  0
 24 18  1  0
  1 33  1  0
  1 34  1  0
  1 35  1  0
  2 36  1  1
  3 37  1  0
  3 38  1  0
  4 39  1  0
  4 40  1  0
  5 41  1  6
  8 42  1  0
  8 43  1  0
  8 44  1  0
  9 45  1  0
  9 46  1  0
  9 47  1  0
 10 48  1  6
 11 49  1  0
 11 50  1  0
 12 51  1  0
 12 52  1  0
 14 53  1  0
 14 54  1  0
 14 55  1  0
 15 56  1  1
 16 57  1  0
 16 58  1  0
 17 59  1  0
 19 60  1  6
 20 61  1  0
 20 62  1  0
 21 63  1  0
 21 64  1  0
 22 65  1  6
 23 66  1  0
 25 67  1  0
 25 68  1  0
 25 69  1  0
 26 70  1  0
 26 71  1  0
 26 72  1  0
 28 73  1  0
 28 74  1  0
 28 75  1  0
 29 76  1  0
 29 77  1  0
 30 78  1  0
 30 79  1  0
 32 80  1  0
 32 81  1  0
 32 82  1  0
M  END
>  <meeko>  (17) 
{"is_sidechain": [false], "intermolecular_energy": 2.731, "internal_energy": -0.839}

$$$$
EPH_relaxed_0001_pdb2pqr_Repair_132_r2_0001_out
     RDKit          3D

 82 86  0  0  0  0  0  0  0  0999 V2000
   -0.1740    9.3320   -4.2520 C   0  0  0  0  0  0  0  0  0  0  0  0
    0.0850    9.5500   -2.7590 C   0  0  2  0  0  0  0  0  0  0  0  0
   -0.6390    8.5060   -1.8860 C   0  0  0  0  0  0  0  0  0  0  0  0
   -2.1660    8.5670   -1.9910 C   0  0  0  0  0  0  0  0  0  0  0  0
   -2.7260    7.3420   -2.6490 C   0  0  2  0  0  0  0  0  0  0  0  0
   -3.7450    7.5990   -3.6230 O   0  0  0  0  0  0  0  0  0  0  0  0
   -4.1540    6.8680   -2.4560 C   0  0  0  0  0  0  0  0  0  0  0  0
   -5.1110    7.6100   -1.5760 C   0  0  0  0  0  0  0  0  0  0  0  0
   -4.4730    5.4310   -2.7260 C   0  0  0  0  0  0  0  0  0  0  0  0
   -0.3470   10.9550   -2.3560 C   0  0  1  0  0  0  0  0  0  0  0  0
   -1.5520   10.9530   -1.3780 C   0  0  0  0  0  0  0  0  0  0  0  0
   -1.3460   12.1470   -0.4110 C   0  0  0  0  0  0  0  0  0  0  0  0
   -0.2220   12.9860   -1.0610 C   0  0  1  0  0  0  0  0  0  0  0  0
   -0.9380   13.8350   -2.1580 C   0  0  0  0  0  0  0  0  0  0  0  0
    0.6190   13.8820   -0.0950 C   0  0  2  0  0  0  0  0  0  0  0  0
   -0.1750   14.9800    0.6330 C   0  0  0  0  0  0  0  0  0  0  0  0
   -0.2430   16.2940   -0.0730 C   0  0  0  0  0  0  0  0  0  0  0  0
    0.5410   16.6710   -1.1000 C   0  0  0  0  0  0  0  0  0  0  0  0
    1.6850   15.7730   -1.5890 C   0  0  1  0  0  0  0  0  0  0  0  0
    2.9680   16.6250   -1.7790 C   0  0  0  0  0  0  0  0  0  0  0  0
    2.7410   17.8280   -2.6890 C   0  0  0  0  0  0  0  0  0  0  0  0
    1.6370   18.7270   -2.1400 C   0  0  2  0  0  0  0  0  0  0  0  0
    2.0870   19.3140   -0.9150 O   0  0  0  0  0  0  0  0  0  0  0  0
    0.2980   17.9750   -1.8980 C   0  0  0  0  0  0  0  0  0  0  0  0
   -0.3420   17.6010   -3.2580 C   0  0  0  0  0  0  0  0  0  0  0  0
   -0.6860   18.9610   -1.2120 C   0  0  0  0  0  0  0  0  0  0  0  0
    1.9470   14.4580   -0.7350 C   0  0  1  0  0  0  0  0  0  0  0  0
    2.9110   14.7750    0.4490 C   0  0  0  0  0  0  0  0  0  0  0  0
    2.6850   13.3980   -1.6370 C   0  0  0  0  0  0  0  0  0  0  0  0
    1.7960   12.4620   -2.4770 C   0  0  0  0  0  0  0  0  0  0  0  0
    0.6930   11.8350   -1.6190 C   0  0  2  0  0  0  0  0  0  0  0  0
    1.3840   10.9570   -0.5200 C   0  0  0  0  0  0  0  0  0  0  0  0
   -1.0098    8.6285   -4.3802 H   0  0  0  0  0  0  0  0  0  0  0  0
   -0.4275   10.2926   -4.7243 H   0  0  0  0  0  0  0  0  0  0  0  0
    0.7292    8.9183   -4.7243 H   0  0  0  0  0  0  0  0  0  0  0  0
    1.1653    9.4303   -2.5897 H   0  0  0  0  0  0  0  0  0  0  0  0
   -0.3093    7.5040   -2.1979 H   0  0  0  0  0  0  0  0  0  0  0  0
   -0.3799    8.7268   -0.8400 H   0  0  0  0  0  0  0  0  0  0  0  0
   -2.5897    8.6536   -0.9796 H   0  0  0  0  0  0  0  0  0  0  0  0
   -2.4328    9.4390   -2.6062 H   0  0  0  0  0  0  0  0  0  0  0  0
   -1.7590    6.8248   -2.5631 H   0  0  0  0  0  0  0  0  0  0  0  0
   -4.8636    7.4182   -0.5215 H   0  0  0  0  0  0  0  0  0  0  0  0
   -5.0360    8.6883   -1.7799 H   0  0  0  0  0  0  0  0  0  0  0  0
   -6.1367    7.2687   -1.7799 H   0  0  0  0  0  0  0  0  0  0  0  0
   -4.5917    4.8963   -1.7721 H   0  0  0  0  0  0  0  0  0  0  0  0
   -5.4077    5.3649   -3.3022 H   0  0  0  0  0  0  0  0  0  0  0  0
   -3.6541    4.9756   -3.3022 H   0  0  0  0  0  0  0  0  0  0  0  0
   -0.5579   11.3746   -3.3507 H   0  0  0  0  0  0  0  0  0  0  0  0
   -2.4924   11.0751   -1.9355 H   0  0  0  0  0  0  0  0  0  0  0  0
   -1.6106   10.0034   -0.8258 H   0  0  0  0  0  0  0  0  0  0  0  0
   -2.2694   12.7380   -0.3215 H   0  0  0  0  0  0  0  0  0  0  0  0
   -1.0868   11.8196    0.6067 H   0  0  0  0  0  0  0  0  0  0  0  0
   -1.5760   14.5915   -1.6778 H   0  0  0  0  0  0  0  0  0  0  0  0
   -0.1847   14.3349   -2.7846 H   0  0  0  0  0  0  0  0  0  0  0  0
   -1.5578   13.1768   -2.7846 H   0  0  0  0  0  0  0  0  0  0  0  0
    0.9239   13.1669    0.6832 H   0  0  0  0  0  0  0  0  0  0  0  0
   -1.2037   14.6174    0.7756 H   0  0  0  0  0  0  0  0  0  0  0  0
    0.3609   15.1686    1.5749 H   0  0  0  0  0  0  0  0  0  0  0  0
   -0.9974   17.0146    0.2756 H   0  0  0  0  0  0  0  0  0  0  0  0
    1.3599   15.3671   -2.5583 H   0  0  0  0  0  0  0  0  0  0  0  0
    3.3012   16.9853   -0.7945 H   0  0  0  0  0  0  0  0  0  0  0  0
    3.7267   15.9854   -2.2536 H   0  0  0  0  0  0  0  0  0  0  0  0
    3.6739   18.4064   -2.7604 H   0  0  0  0  0  0  0  0  0  0  0  0
    2.4365   17.4646   -3.6816 H   0  0  0  0  0  0  0  0  0  0  0  0
    1.4316   19.4973   -2.8979 H   0  0  0  0  0  0  0  0  0  0  0  0
    2.0670   20.2790   -1.0260 H   0  0  0  0  0  0  0  0  0  0  0  0
   -1.2797   17.0530   -3.0836 H   0  0  0  0  0  0  0  0  0  0  0  0
   -0.5536   18.5176   -3.8281 H   0  0  0  0  0  0  0  0  0  0  0  0
    0.3528   16.9667   -3.8281 H   0  0  0  0  0  0  0  0  0  0  0  0
   -0.5947   18.8695   -0.1196 H   0  0  0  0  0  0  0  0  0  0  0  0
   -0.4445   19.9904   -1.5152 H   0  0  0  0  0  0  0  0  0  0  0  0
   -1.7159   18.7216   -1.5152 H   0  0  0  0  0  0  0  0  0  0  0  0
    2.3896   14.6036    1.4023 H   0  0  0  0  0  0  0  0  0  0  0  0
    3.7923   14.1193    0.3900 H   0  0  0  0  0  0  0  0  0  0  0  0
    3.2311   15.8257    0.3900 H   0  0  0  0  0  0  0  0  0  0  0  0
    3.3378   13.9482   -2.3307 H   0  0  0  0  0  0  0  0  0  0  0  0
    3.2128   12.7383   -0.9326 H   0  0  0  0  0  0  0  0  0  0  0  0
    1.3337   13.0398   -3.2909 H   0  0  0  0  0  0  0  0  0  0  0  0
    2.4235   11.6557   -2.8845 H   0  0  0  0  0  0  0  0  0  0  0  0
    1.0959   11.3231    0.4765 H   0  0  0  0  0  0  0  0  0  0  0  0
    1.0648    9.9104   -0.6326 H   0  0  0  0  0  0  0  0  0  0  0  0
    2.4763   11.0213   -0.6326 H   0  0  0  0  0  0  0  0  0  0  0  0
  1  2  1  0
  2  3  1  0
  3  4  1  0
  4  5  1  0
  5  6  1  0
  6  7  1  0
  7  8  1  0
  7  9  1  0
  2 10  1  0
 10 11  1  0
 11 12  1  0
 12 13  1  0
 13 14  1  6
 13 15  1  0
 15 16  1  0
 16 17  1  0
 17 18  2  0
 18 19  1  0
 19 20  1  0
 20 21  1  0
 21 22  1  0
 22 23  1  0
 22 24  1  0
 24 25  1  0
 24 26  1  0
 19 27  1  0
 27 28  1  1
 27 29  1  0
 29 30  1  0
 30 31  1  0
 31 32  1  1
  7  5  1  0
 31 10  1  0
 31 13  1  0
 27 15  1  0
 24 18  1  0
  1 33  1  0
  1 34  1  0
  1 35  1  0
  2 36  1  6
  3 37  1  0
  3 38  1  0
  4 39  1  0
  4 40  1  0
  5 41  1  6
  8 42  1  0
  8 43  1  0
  8 44  1  0
  9 45  1  0
  9 46  1  0
  9 47  1  0
 10 48  1  6
 11 49  1  0
 11 50  1  0
 12 51  1  0
 12 52  1  0
 14 53  1  0
 14 54  1  0
 14 55  1  0
 15 56  1  1
 16 57  1  0
 16 58  1  0
 17 59  1  0
 19 60  1  6
 20 61  1  0
 20 62  1  0
 21 63  1  0
 21 64  1  0
 22 65  1  6
 23 66  1  0
 25 67  1  0
 25 68  1  0
 25 69  1  0
 26 70  1  0
 26 71  1  0
 26 72  1  0
 28 73  1  0
 28 74  1  0
 28 75  1  0
 29 76  1  0
 29 77  1  0
 30 78  1  0
 30 79  1  0
 32 80  1  0
 32 81  1  0
 32 82  1  0
M  END
>  <meeko>  (18) 
{"is_sidechain": [false], "intermolecular_energy": 2.731, "internal_energy": -0.839}

$$$$
EPH_relaxed_0001_pdb2pqr_Repair_132_r2_0001_out
     RDKit          3D

 82 86  0  0  0  0  0  0  0  0999 V2000
    0.9710    8.9900   -0.5060 C   0  0  0  0  0  0  0  0  0  0  0  0
    1.1440    9.7590   -1.8180 C   0  0  2  0  0  0  0  0  0  0  0  0
    2.6260    9.8950   -2.2200 C   0  0  0  0  0  0  0  0  0  0  0  0
    2.8330   10.4410   -3.6360 C   0  0  0  0  0  0  0  0  0  0  0  0
    1.7090   11.3420   -4.0510 C   0  0  2  0  0  0  0  0  0  0  0  0
    1.1100   11.0100   -5.3110 O   0  0  0  0  0  0  0  0  0  0  0  0
    1.7850   12.2770   -5.2440 C   0  0  0  0  0  0  0  0  0  0  0  0
    3.0130   12.3590   -6.0950 C   0  0  0  0  0  0  0  0  0  0  0  0
    0.8610   13.4550   -5.2890 C   0  0  0  0  0  0  0  0  0  0  0  0
    0.5080   11.1390   -1.7000 C   0  0  1  0  0  0  0  0  0  0  0  0
   -0.8120   11.1200   -0.8850 C   0  0  0  0  0  0  0  0  0  0  0  0
   -0.8750   12.4580   -0.1030 C   0  0  0  0  0  0  0  0  0  0  0  0
    0.2290   13.3340   -0.7410 C   0  0  1  0  0  0  0  0  0  0  0  0
   -0.4200   13.9150   -2.0370 C   0  0  0  0  0  0  0  0  0  0  0  0
    0.8240   14.4630    0.1630 C   0  0  2  0  0  0  0  0  0  0  0  0
   -0.1800   15.5410    0.6060 C   0  0  0  0  0  0  0  0  0  0  0  0
   -0.2950   16.7190   -0.3050 C   0  0  0  0  0  0  0  0  0  0  0  0
    0.5770   17.0420   -1.2780 C   0  0  0  0  0  0  0  0  0  0  0  0
    1.8700   16.2400   -1.4760 C   0  0  1  0  0  0  0  0  0  0  0  0
    3.0640   17.2160   -1.6460 C   0  0  0  0  0  0  0  0  0  0  0  0
    2.8330   18.2350   -2.7580 C   0  0  0  0  0  0  0  0  0  0  0  0
    1.5710   19.0520   -2.4950 C   0  0  2  0  0  0  0  0  0  0  0  0
    1.7800   19.8640   -1.3350 O   0  0  0  0  0  0  0  0  0  0  0  0
    0.3030   18.1750   -2.2970 C   0  0  0  0  0  0  0  0  0  0  0  0
   -0.0980   17.5290   -3.6460 C   0  0  0  0  0  0  0  0  0  0  0  0
   -0.8690   19.1130   -1.9000 C   0  0  0  0  0  0  0  0  0  0  0  0
    2.1550   15.1080   -0.3990 C   0  0  1  0  0  0  0  0  0  0  0  0
    2.9060   15.7160    0.8260 C   0  0  0  0  0  0  0  0  0  0  0  0
    3.1230   14.0350   -1.0240 C   0  0  0  0  0  0  0  0  0  0  0  0
    2.4670   12.8790   -1.8050 C   0  0  0  0  0  0  0  0  0  0  0  0
    1.3330   12.2440   -0.9940 C   0  0  2  0  0  0  0  0  0  0  0  0
    1.9590   11.6310    0.3050 C   0  0  0  0  0  0  0  0  0  0  0  0
    1.1247    9.6731    0.3424 H   0  0  0  0  0  0  0  0  0  0  0  0
   -0.0442    8.5692   -0.4587 H   0  0  0  0  0  0  0  0  0  0  0  0
    1.7082    8.1750   -0.4587 H   0  0  0  0  0  0  0  0  0  0  0  0
    0.6389    9.1833   -2.6076 H   0  0  0  0  0  0  0  0  0  0  0  0
    3.1172   10.5766   -1.5099 H   0  0  0  0  0  0  0  0  0  0  0  0
    3.0585    8.8838   -2.1993 H   0  0  0  0  0  0  0  0  0  0  0  0
    3.7747   11.0087   -3.6653 H   0  0  0  0  0  0  0  0  0  0  0  0
    2.8652    9.5893   -4.3314 H   0  0  0  0  0  0  0  0  0  0  0  0
    1.4202   11.5055   -3.0023 H   0  0  0  0  0  0  0  0  0  0  0  0
    3.9024   12.4184   -5.4505 H   0  0  0  0  0  0  0  0  0  0  0  0
    3.0795   11.4633   -6.7301 H   0  0  0  0  0  0  0  0  0  0  0  0
    2.9598   13.2556   -6.7301 H   0  0  0  0  0  0  0  0  0  0  0  0
    0.6156   13.7679   -4.2634 H   0  0  0  0  0  0  0  0  0  0  0  0
    1.3511   14.2854   -5.8183 H   0  0  0  0  0  0  0  0  0  0  0  0
   -0.0623   13.1768   -5.8183 H   0  0  0  0  0  0  0  0  0  0  0  0
    0.3911   11.3804   -2.7668 H   0  0  0  0  0  0  0  0  0  0  0  0
   -1.6744   11.0365   -1.5628 H   0  0  0  0  0  0  0  0  0  0  0  0
   -0.8402   10.2603   -0.1993 H   0  0  0  0  0  0  0  0  0  0  0  0
   -1.8616   12.9302   -0.2198 H   0  0  0  0  0  0  0  0  0  0  0  0
   -0.7243   12.3176    0.9775 H   0  0  0  0  0  0  0  0  0  0  0  0
   -1.2137   14.6255   -1.7628 H   0  0  0  0  0  0  0  0  0  0  0  0
    0.3473   14.4335   -2.6306 H   0  0  0  0  0  0  0  0  0  0  0  0
   -0.8508   13.0952   -2.6306 H   0  0  0  0  0  0  0  0  0  0  0  0
    1.0959   13.9153    1.0773 H   0  0  0  0  0  0  0  0  0  0  0  0
   -1.1719   15.0713    0.6811 H   0  0  0  0  0  0  0  0  0  0  0  0
    0.1960   15.9320    1.5629 H   0  0  0  0  0  0  0  0  0  0  0  0
   -1.1654   17.3778   -0.1693 H   0  0  0  0  0  0  0  0  0  0  0  0
    1.7293   15.6589   -2.3993 H   0  0  0  0  0  0  0  0  0  0  0  0
    3.2161   17.7554   -0.6995 H   0  0  0  0  0  0  0  0  0  0  0  0
    3.9470   16.6191   -1.9182 H   0  0  0  0  0  0  0  0  0  0  0  0
    3.6971   18.9137   -2.8096 H   0  0  0  0  0  0  0  0  0  0  0  0
    2.7105   17.6956   -3.7088 H   0  0  0  0  0  0  0  0  0  0  0  0
    1.3882   19.6712   -3.3856 H   0  0  0  0  0  0  0  0  0  0  0  0
    2.7080   19.7570   -1.0650 H   0  0  0  0  0  0  0  0  0  0  0  0
   -0.6694   16.6084   -3.4562 H   0  0  0  0  0  0  0  0  0  0  0  0
   -0.7178   18.2335   -4.2200 H   0  0  0  0  0  0  0  0  0  0  0  0
    0.8084   17.2862   -4.2200 H   0  0  0  0  0  0  0  0  0  0  0  0
   -0.9387   19.1688   -0.8036 H   0  0  0  0  0  0  0  0  0  0  0  0
   -0.6881   20.1186   -2.3076 H   0  0  0  0  0  0  0  0  0  0  0  0
   -1.8105   18.7161   -2.3076 H   0  0  0  0  0  0  0  0  0  0  0  0
    2.4496   15.3465    1.7562 H   0  0  0  0  0  0  0  0  0  0  0  0
    3.9641   15.4170    0.7927 H   0  0  0  0  0  0  0  0  0  0  0  0
    2.8338   16.8131    0.7927 H   0  0  0  0  0  0  0  0  0  0  0  0
    3.8011   14.5597   -1.7131 H   0  0  0  0  0  0  0  0  0  0  0  0
    3.6176   13.5581   -0.1650 H   0  0  0  0  0  0  0  0  0  0  0  0
    2.0596   13.2684   -2.7497 H   0  0  0  0  0  0  0  0  0  0  0  0
    3.2298   12.1114   -2.0023 H   0  0  0  0  0  0  0  0  0  0  0  0
    1.4912   12.0891    1.1889 H   0  0  0  0  0  0  0  0  0  0  0  0
    1.7843   10.5451    0.3190 H   0  0  0  0  0  0  0  0  0  0  0  0
    3.0410   11.8285    0.3190 H   0  0  0  0  0  0  0  0  0  0  0  0
  1  2  1  0
  2  3  1  0
  3  4  1  0
  4  5  1  0
  5  6  1  0
  6  7  1  0
  7  8  1  0
  7  9  1  0
  2 10  1  0
 10 11  1  0
 11 12  1  0
 12 13  1  0
 13 14  1  6
 13 15  1  0
 15 16  1  0
 16 17  1  0
 17 18  2  0
 18 19  1  0
 19 20  1  0
 20 21  1  0
 21 22  1  0
 22 23  1  0
 22 24  1  0
 24 25  1  0
 24 26  1  0
 19 27  1  0
 27 28  1  1
 27 29  1  0
 29 30  1  0
 30 31  1  0
 31 32  1  1
  7  5  1  0
 31 10  1  0
 31 13  1  0
 27 15  1  0
 24 18  1  0
  1 33  1  0
  1 34  1  0
  1 35  1  0
  2 36  1  6
  3 37  1  0
  3 38  1  0
  4 39  1  0
  4 40  1  0
  5 41  1  1
  8 42  1  0
  8 43  1  0
  8 44  1  0
  9 45  1  0
  9 46  1  0
  9 47  1  0
 10 48  1  6
 11 49  1  0
 11 50  1  0
 12 51  1  0
 12 52  1  0
 14 53  1  0
 14 54  1  0
 14 55  1  0
 15 56  1  1
 16 57  1  0
 16 58  1  0
 17 59  1  0
 19 60  1  6
 20 61  1  0
 20 62  1  0
 21 63  1  0
 21 64  1  0
 22 65  1  6
 23 66  1  0
 25 67  1  0
 25 68  1  0
 25 69  1  0
 26 70  1  0
 26 71  1  0
 26 72  1  0
 28 73  1  0
 28 74  1  0
 28 75  1  0
 29 76  1  0
 29 77  1  0
 30 78  1  0
 30 79  1  0
 32 80  1  0
 32 81  1  0
 32 82  1  0
M  END
>  <meeko>  (19) 
{"is_sidechain": [false], "intermolecular_energy": 2.731, "internal_energy": -0.839}

$$$$
EPH_relaxed_0001_pdb2pqr_Repair_132_r2_0001_out
     RDKit          3D

 82 86  0  0  0  0  0  0  0  0999 V2000
    0.7790   14.7720   -4.7260 C   0  0  0  0  0  0  0  0  0  0  0  0
    0.5690   14.1980   -3.3220 C   0  0  2  0  0  0  0  0  0  0  0  0
    1.8110   14.3810   -2.4280 C   0  0  0  0  0  0  0  0  0  0  0  0
    1.6320   15.4350   -1.3320 C   0  0  0  0  0  0  0  0  0  0  0  0
    1.2320   16.7630   -1.9010 C   0  0  2  0  0  0  0  0  0  0  0  0
    2.1590   17.3130   -2.8460 O   0  0  0  0  0  0  0  0  0  0  0  0
    1.9850   18.0510   -1.6250 C   0  0  0  0  0  0  0  0  0  0  0  0
    3.1980   18.0740   -0.7490 C   0  0  0  0  0  0  0  0  0  0  0  0
    1.2660   19.3520   -1.8050 C   0  0  0  0  0  0  0  0  0  0  0  0
    0.2050   12.7200   -3.4140 C   0  0  1  0  0  0  0  0  0  0  0  0
    1.4310   11.8220   -3.7310 C   0  0  0  0  0  0  0  0  0  0  0  0
    1.2170   10.4890   -2.9690 C   0  0  0  0  0  0  0  0  0  0  0  0
   -0.2610   10.5320   -2.5150 C   0  0  1  0  0  0  0  0  0  0  0  0
   -1.0790   10.0920   -3.7690 C   0  0  0  0  0  0  0  0  0  0  0  0
   -0.6230    9.6730   -1.2600 C   0  0  2  0  0  0  0  0  0  0  0  0
   -0.4160    8.1570   -1.4240 C   0  0  0  0  0  0  0  0  0  0  0  0
   -1.6000    7.4040   -1.9330 C   0  0  0  0  0  0  0  0  0  0  0  0
   -2.8630    7.8670   -1.9760 C   0  0  0  0  0  0  0  0  0  0  0  0
   -3.2180    9.2400   -1.3910 C   0  0  1  0  0  0  0  0  0  0  0  0
   -4.4980    9.1170   -0.5230 C   0  0  0  0  0  0  0  0  0  0  0  0
   -5.6620    8.4880   -1.2830 C   0  0  0  0  0  0  0  0  0  0  0  0
   -5.2900    7.1010   -1.8000 C   0  0  2  0  0  0  0  0  0  0  0  0
   -5.1080    6.2260   -0.6820 O   0  0  0  0  0  0  0  0  0  0  0  0
   -4.0080    7.0980   -2.6790 C   0  0  0  0  0  0  0  0  0  0  0  0
   -4.3040    7.7940   -4.0310 C   0  0  0  0  0  0  0  0  0  0  0  0
   -3.6640    5.6220   -3.0170 C   0  0  0  0  0  0  0  0  0  0  0  0
   -2.0420    9.9990   -0.6390 C   0  0  1  0  0  0  0  0  0  0  0  0
   -1.9880    9.5500    0.8540 C   0  0  0  0  0  0  0  0  0  0  0  0
   -2.3500   11.5430   -0.6280 C   0  0  0  0  0  0  0  0  0  0  0  0
   -1.8610   12.3570   -1.8410 C   0  0  0  0  0  0  0  0  0  0  0  0
   -0.3910   12.0550   -2.1480 C   0  0  2  0  0  0  0  0  0  0  0  0
    0.4590   12.5070   -0.9130 C   0  0  0  0  0  0  0  0  0  0  0  0
    1.1560   15.8025   -4.6482 H   0  0  0  0  0  0  0  0  0  0  0  0
    1.5094   14.1544   -5.2692 H   0  0  0  0  0  0  0  0  0  0  0  0
   -0.1775   14.7715   -5.2692 H   0  0  0  0  0  0  0  0  0  0  0  0
   -0.2569   14.7557   -2.8563 H   0  0  0  0  0  0  0  0  0  0  0  0
    2.0388   13.4174   -1.9489 H   0  0  0  0  0  0  0  0  0  0  0  0
    2.6263   14.7300   -3.0788 H   0  0  0  0  0  0  0  0  0  0  0  0
    0.8514   15.0959   -0.6351 H   0  0  0  0  0  0  0  0  0  0  0  0
    2.5948   15.5592   -0.8147 H   0  0  0  0  0  0  0  0  0  0  0  0
    0.1662   16.5009   -1.8271 H   0  0  0  0  0  0  0  0  0  0  0  0
    2.8882   18.0681    0.3065 H   0  0  0  0  0  0  0  0  0  0  0  0
    3.8157   17.1874   -0.9548 H   0  0  0  0  0  0  0  0  0  0  0  0
    3.7817   18.9834   -0.9548 H   0  0  0  0  0  0  0  0  0  0  0  0
    1.0296   19.7797   -0.8195 H   0  0  0  0  0  0  0  0  0  0  0  0
    1.9062   20.0505   -2.3639 H   0  0  0  0  0  0  0  0  0  0  0  0
    0.3340   19.1816   -2.3639 H   0  0  0  0  0  0  0  0  0  0  0  0
   -0.5545   12.7654   -4.2084 H   0  0  0  0  0  0  0  0  0  0  0  0
    1.4934   11.6341   -4.8130 H   0  0  0  0  0  0  0  0  0  0  0  0
    2.3678   12.3083   -3.4213 H   0  0  0  0  0  0  0  0  0  0  0  0
    1.3946    9.6297   -3.6323 H   0  0  0  0  0  0  0  0  0  0  0  0
    1.9103   10.3765   -2.1224 H   0  0  0  0  0  0  0  0  0  0  0  0
   -2.0051    9.5938   -3.4464 H   0  0  0  0  0  0  0  0  0  0  0  0
   -1.3297   10.9770   -4.3723 H   0  0  0  0  0  0  0  0  0  0  0  0
   -0.4788    9.3950   -4.3723 H   0  0  0  0  0  0  0  0  0  0  0  0
    0.1293    9.9989   -0.5266 H   0  0  0  0  0  0  0  0  0  0  0  0
    0.4144    8.0014   -2.1284 H   0  0  0  0  0  0  0  0  0  0  0  0
   -0.2168    7.7658   -0.4154 H   0  0  0  0  0  0  0  0  0  0  0  0
   -1.4254    6.3835   -2.3047 H   0  0  0  0  0  0  0  0  0  0  0  0
   -3.4117    9.8965   -2.2521 H   0  0  0  0  0  0  0  0  0  0  0  0
   -4.2709    8.4927    0.3538 H   0  0  0  0  0  0  0  0  0  0  0  0
   -4.8011   10.1328   -0.2291 H   0  0  0  0  0  0  0  0  0  0  0  0
   -6.5269    8.4009   -0.6090 H   0  0  0  0  0  0  0  0  0  0  0  0
   -5.9073    9.1290   -2.1426 H   0  0  0  0  0  0  0  0  0  0  0  0
   -6.1129    6.7576   -2.4442 H   0  0  0  0  0  0  0  0  0  0  0  0
   -5.8130    6.4180   -0.0400 H   0  0  0  0  0  0  0  0  0  0  0  0
   -4.7283    8.7916   -3.8447 H   0  0  0  0  0  0  0  0  0  0  0  0
   -3.3704    7.8938   -4.6042 H   0  0  0  0  0  0  0  0  0  0  0  0
   -5.0235    7.1908   -4.6042 H   0  0  0  0  0  0  0  0  0  0  0  0
   -3.5315    5.0536   -2.0846 H   0  0  0  0  0  0  0  0  0  0  0  0
   -4.4831    5.1795   -3.6029 H   0  0  0  0  0  0  0  0  0  0  0  0
   -2.7337    5.5873   -3.6029 H   0  0  0  0  0  0  0  0  0  0  0  0
   -2.0938   10.4299    1.5056 H   0  0  0  0  0  0  0  0  0  0  0  0
   -2.8078    8.8445    1.0546 H   0  0  0  0  0  0  0  0  0  0  0  0
   -1.0243    9.0590    1.0546 H   0  0  0  0  0  0  0  0  0  0  0  0
   -3.4414   11.6643   -0.5639 H   0  0  0  0  0  0  0  0  0  0  0  0
   -1.7908   11.9421    0.2311 H   0  0  0  0  0  0  0  0  0  0  0  0
   -2.4723   12.0980   -2.7181 H   0  0  0  0  0  0  0  0  0  0  0  0
   -1.9574   13.4274   -1.6067 H   0  0  0  0  0  0  0  0  0  0  0  0
   -0.0641   12.2288    0.0138 H   0  0  0  0  0  0  0  0  0  0  0  0
    1.4408   12.0119   -0.9426 H   0  0  0  0  0  0  0  0  0  0  0  0
    0.5974   13.5979   -0.9426 H   0  0  0  0  0  0  0  0  0  0  0  0
  1  2  1  0
  2  3  1  0
  3  4  1  0
  4  5  1  0
  5  6  1  0
  6  7  1  0
  7  8  1  0
  7  9  1  0
  2 10  1  0
 10 11  1  0
 11 12  1  0
 12 13  1  0
 13 14  1  6
 13 15  1  0
 15 16  1  0
 16 17  1  0
 17 18  2  0
 18 19  1  0
 19 20  1  0
 20 21  1  0
 21 22  1  0
 22 23  1  0
 22 24  1  0
 24 25  1  0
 24 26  1  0
 19 27  1  0
 27 28  1  1
 27 29  1  0
 29 30  1  0
 30 31  1  0
 31 32  1  1
  7  5  1  0
 31 10  1  0
 31 13  1  0
 27 15  1  0
 24 18  1  0
  1 33  1  0
  1 34  1  0
  1 35  1  0
  2 36  1  1
  3 37  1  0
  3 38  1  0
  4 39  1  0
  4 40  1  0
  5 41  1  6
  8 42  1  0
  8 43  1  0
  8 44  1  0
  9 45  1  0
  9 46  1  0
  9 47  1  0
 10 48  1  6
 11 49  1  0
 11 50  1  0
 12 51  1  0
 12 52  1  0
 14 53  1  0
 14 54  1  0
 14 55  1  0
 15 56  1  1
 16 57  1  0
 16 58  1  0
 17 59  1  0
 19 60  1  6
 20 61  1  0
 20 62  1  0
 21 63  1  0
 21 64  1  0
 22 65  1  6
 23 66  1  0
 25 67  1  0
 25 68  1  0
 25 69  1  0
 26 70  1  0
 26 71  1  0
 26 72  1  0
 28 73  1  0
 28 74  1  0
 28 75  1  0
 29 76  1  0
 29 77  1  0
 30 78  1  0
 30 79  1  0
 32 80  1  0
 32 81  1  0
 32 82  1  0
M  END
>  <meeko>  (20) 
{"is_sidechain": [false], "intermolecular_energy": 2.731, "internal_energy": -0.839}

$$$$
