EPH_relaxed_0001_pdb2pqr_Repair_166_r2_0001_out
     RDKit          3D

 82 86  0  0  0  0  0  0  0  0999 V2000
   -1.6210    8.5220   -1.8310 C   0  0  0  0  0  0  0  0  0  0  0  0
   -2.0310    9.1020   -0.4740 C   0  0  2  0  0  0  0  0  0  0  0  0
   -3.5180    9.5050   -0.4400 C   0  0  0  0  0  0  0  0  0  0  0  0
   -4.4750    8.3180   -0.2950 C   0  0  0  0  0  0  0  0  0  0  0  0
   -5.1470    7.9870   -1.5930 C   0  0  2  0  0  0  0  0  0  0  0  0
   -6.3670    8.7010   -1.8350 O   0  0  0  0  0  0  0  0  0  0  0  0
   -6.4850    7.2770   -1.6850 C   0  0  0  0  0  0  0  0  0  0  0  0
   -7.2300    6.8550   -0.4570 C   0  0  0  0  0  0  0  0  0  0  0  0
   -6.8310    6.5640   -2.9540 C   0  0  0  0  0  0  0  0  0  0  0  0
   -1.1570   10.3050   -0.1380 C   0  0  1  0  0  0  0  0  0  0  0  0
   -0.0900    9.9850    0.9420 C   0  0  0  0  0  0  0  0  0  0  0  0
    1.1710   10.8140    0.5850 C   0  0  0  0  0  0  0  0  0  0  0  0
    0.6850   11.8240   -0.4810 C   0  0  1  0  0  0  0  0  0  0  0  0
    0.0070   12.9710    0.3330 C   0  0  0  0  0  0  0  0  0  0  0  0
    1.7730   12.3750   -1.4580 C   0  0  2  0  0  0  0  0  0  0  0  0
    2.9010   13.1810   -0.7910 C   0  0  0  0  0  0  0  0  0  0  0  0
    2.6570   14.6500   -0.6820 C   0  0  0  0  0  0  0  0  0  0  0  0
    1.7130   15.3370   -1.3510 C   0  0  0  0  0  0  0  0  0  0  0  0
    0.8310   14.6480   -2.4000 C   0  0  1  0  0  0  0  0  0  0  0  0
    0.7630   15.5250   -3.6770 C   0  0  0  0  0  0  0  0  0  0  0  0
    0.3120   16.9530   -3.3830 C   0  0  0  0  0  0  0  0  0  0  0  0
    1.2470   17.6240   -2.3810 C   0  0  2  0  0  0  0  0  0  0  0  0
    2.5290   17.7980   -2.9910 O   0  0  0  0  0  0  0  0  0  0  0  0
    1.4020   16.8260   -1.0570 C   0  0  0  0  0  0  0  0  0  0  0  0
    0.0820   16.8960   -0.2490 C   0  0  0  0  0  0  0  0  0  0  0  0
    2.4770   17.5370   -0.1930 C   0  0  0  0  0  0  0  0  0  0  0  0
    1.1890   13.1320   -2.7190 C   0  0  1  0  0  0  0  0  0  0  0  0
    2.2860   13.0660   -3.8260 C   0  0  0  0  0  0  0  0  0  0  0  0
   -0.0830   12.4170   -3.3100 C   0  0  0  0  0  0  0  0  0  0  0  0
   -1.0600   11.7880   -2.2990 C   0  0  0  0  0  0  0  0  0  0  0  0
   -0.3130   10.9140   -1.2860 C   0  0  2  0  0  0  0  0  0  0  0  0
    0.3600    9.7390   -2.0730 C   0  0  0  0  0  0  0  0  0  0  0  0
   -0.9925    7.6329   -1.6749 H   0  0  0  0  0  0  0  0  0  0  0  0
   -2.5214    8.2399   -2.3963 H   0  0  0  0  0  0  0  0  0  0  0  0
   -1.0546    9.2767   -2.3963 H   0  0  0  0  0  0  0  0  0  0  0  0
   -1.8857    8.3145    0.2801 H   0  0  0  0  0  0  0  0  0  0  0  0
   -3.6745   10.1832    0.4118 H   0  0  0  0  0  0  0  0  0  0  0  0
   -3.7433    9.9833   -1.4046 H   0  0  0  0  0  0  0  0  0  0  0  0
   -3.9058    7.4406    0.0458 H   0  0  0  0  0  0  0  0  0  0  0  0
   -5.2522    8.5908    0.4341 H   0  0  0  0  0  0  0  0  0  0  0  0
   -4.1763    7.7974   -2.0744 H   0  0  0  0  0  0  0  0  0  0  0  0
   -6.6723    7.1709    0.4369 H   0  0  0  0  0  0  0  0  0  0  0  0
   -8.2252    7.3235   -0.4528 H   0  0  0  0  0  0  0  0  0  0  0  0
   -7.3399    5.7605   -0.4528 H   0  0  0  0  0  0  0  0  0  0  0  0
   -7.2998    5.5979   -2.7156 H   0  0  0  0  0  0  0  0  0  0  0  0
   -7.5318    7.1771   -3.5397 H   0  0  0  0  0  0  0  0  0  0  0  0
   -5.9157    6.3928   -3.5397 H   0  0  0  0  0  0  0  0  0  0  0  0
   -1.9354   11.0164    0.1752 H   0  0  0  0  0  0  0  0  0  0  0  0
   -0.4613   10.2700    1.9374 H   0  0  0  0  0  0  0  0  0  0  0  0
    0.1382    8.9092    0.9650 H   0  0  0  0  0  0  0  0  0  0  0  0
    1.5540   11.3398    1.4720 H   0  0  0  0  0  0  0  0  0  0  0  0
    1.9944   10.1838    0.2178 H   0  0  0  0  0  0  0  0  0  0  0  0
    0.1229   12.7749    1.4092 H   0  0  0  0  0  0  0  0  0  0  0  0
    0.4834   13.9301    0.0817 H   0  0  0  0  0  0  0  0  0  0  0  0
   -1.0630   13.0161    0.0817 H   0  0  0  0  0  0  0  0  0  0  0  0
    2.2442   11.4532   -1.8296 H   0  0  0  0  0  0  0  0  0  0  0  0
    3.0473   12.7845    0.2246 H   0  0  0  0  0  0  0  0  0  0  0  0
    3.7817   13.0662   -1.4400 H   0  0  0  0  0  0  0  0  0  0  0  0
    3.3034   15.2185    0.0029 H   0  0  0  0  0  0  0  0  0  0  0  0
   -0.1694   14.5669   -1.9498 H   0  0  0  0  0  0  0  0  0  0  0  0
    1.7623   15.5582   -4.1356 H   0  0  0  0  0  0  0  0  0  0  0  0
    0.0221   15.0734   -4.3531 H   0  0  0  0  0  0  0  0  0  0  0  0
    0.3127   17.5308   -4.3190 H   0  0  0  0  0  0  0  0  0  0  0  0
   -0.6997   16.9204   -2.9523 H   0  0  0  0  0  0  0  0  0  0  0  0
    0.8006   18.5927   -2.1120 H   0  0  0  0  0  0  0  0  0  0  0  0
    2.6080   17.1390   -3.7020 H   0  0  0  0  0  0  0  0  0  0  0  0
    0.3097   16.8839    0.8271 H   0  0  0  0  0  0  0  0  0  0  0  0
   -0.4529   17.8238   -0.5002 H   0  0  0  0  0  0  0  0  0  0  0  0
   -0.5480   16.0300   -0.5002 H   0  0  0  0  0  0  0  0  0  0  0  0
    2.2494   17.3864    0.8726 H   0  0  0  0  0  0  0  0  0  0  0  0
    3.4673   17.1152   -0.4196 H   0  0  0  0  0  0  0  0  0  0  0  0
    2.4764   18.6134   -0.4196 H   0  0  0  0  0  0  0  0  0  0  0  0
    3.2785   13.0063   -3.3555 H   0  0  0  0  0  0  0  0  0  0  0  0
    2.1226   12.1761   -4.4515 H   0  0  0  0  0  0  0  0  0  0  0  0
    2.2305   13.9691   -4.4515 H   0  0  0  0  0  0  0  0  0  0  0  0
   -0.6427   13.1628   -3.8935 H   0  0  0  0  0  0  0  0  0  0  0  0
    0.3084   11.5719   -3.8953 H   0  0  0  0  0  0  0  0  0  0  0  0
   -1.5881   12.5898   -1.7622 H   0  0  0  0  0  0  0  0  0  0  0  0
   -1.7745   11.1567   -2.8476 H   0  0  0  0  0  0  0  0  0  0  0  0
    0.7766    9.0117   -1.3606 H   0  0  0  0  0  0  0  0  0  0  0  0
   -0.3913    9.2436   -2.7056 H   0  0  0  0  0  0  0  0  0  0  0  0
    1.1674   10.1364   -2.7056 H   0  0  0  0  0  0  0  0  0  0  0  0
  1  2  1  0
  2  3  1  0
  3  4  1  0
  4  5  1  0
  5  6  1  0
  6  7  1  0
  7  8  1  0
  7  9  1  0
  2 10  1  0
 10 11  1  0
 11 12  1  0
 12 13  1  0
 13 14  1  1
 13 15  1  0
 15 16  1  0
 16 17  1  0
 17 18  2  0
 18 19  1  0
 19 20  1  0
 20 21  1  0
 21 22  1  0
 22 23  1  0
 22 24  1  0
 24 25  1  0
 24 26  1  0
 19 27  1  0
 27 28  1  6
 27 29  1  0
 29 30  1  0
 30 31  1  0
 31 32  1  6
  7  5  1  0
 31 10  1  0
 31 13  1  0
 27 15  1  0
 24 18  1  0
  1 33  1  0
  1 34  1  0
  1 35  1  0
  2 36  1  1
  3 37  1  0
  3 38  1  0
  4 39  1  0
  4 40  1  0
  5 41  1  6
  8 42  1  0
  8 43  1  0
  8 44  1  0
  9 45  1  0
  9 46  1  0
  9 47  1  0
 10 48  1  1
 11 49  1  0
 11 50  1  0
 12 51  1  0
 12 52  1  0
 14 53  1  0
 14 54  1  0
 14 55  1  0
 15 56  1  6
 16 57  1  0
 16 58  1  0
 17 59  1  0
 19 60  1  1
 20 61  1  0
 20 62  1  0
 21 63  1  0
 21 64  1  0
 22 65  1  1
 23 66  1  0
 25 67  1  0
 25 68  1  0
 25 69  1  0
 26 70  1  0
 26 71  1  0
 26 72  1  0
 28 73  1  0
 28 74  1  0
 28 75  1  0
 29 76  1  0
 29 77  1  0
 30 78  1  0
 30 79  1  0
 32 80  1  0
 32 81  1  0
 32 82  1  0
M  END
>  <meeko>  (1) 
{"is_sidechain": [false], "intermolecular_energy": 2.731, "internal_energy": -0.839}

$$$$
EPH_relaxed_0001_pdb2pqr_Repair_166_r2_0001_out
     RDKit          3D

 82 86  0  0  0  0  0  0  0  0999 V2000
    2.1160   19.5570   -0.6010 C   0  0  0  0  0  0  0  0  0  0  0  0
    2.4810   18.3430    0.2580 C   0  0  2  0  0  0  0  0  0  0  0  0
    3.9230   17.8620    0.0010 C   0  0  0  0  0  0  0  0  0  0  0  0
    4.9110   18.2620    1.1000 C   0  0  0  0  0  0  0  0  0  0  0  0
    4.2150   18.8950    2.2670 C   0  0  2  0  0  0  0  0  0  0  0  0
    4.7080   20.1920    2.6260 O   0  0  0  0  0  0  0  0  0  0  0  0
    4.8870   19.1530    3.6020 C   0  0  0  0  0  0  0  0  0  0  0  0
    6.3170   18.7810    3.8400 C   0  0  0  0  0  0  0  0  0  0  0  0
    4.0280   19.3120    4.8170 C   0  0  0  0  0  0  0  0  0  0  0  0
    1.4980   17.2080   -0.0040 C   0  0  1  0  0  0  0  0  0  0  0  0
    0.2010   17.6910   -0.7060 C   0  0  0  0  0  0  0  0  0  0  0  0
   -0.2420   16.5510   -1.6600 C   0  0  0  0  0  0  0  0  0  0  0  0
    0.6120   15.3340   -1.2360 C   0  0  1  0  0  0  0  0  0  0  0  0
   -0.1200   14.7450    0.0110 C   0  0  0  0  0  0  0  0  0  0  0  0
    0.8540   14.2440   -2.3310 C   0  0  2  0  0  0  0  0  0  0  0  0
   -0.4160   13.5410   -2.8430 C   0  0  0  0  0  0  0  0  0  0  0  0
   -0.8050   12.3070   -2.1000 C   0  0  0  0  0  0  0  0  0  0  0  0
   -0.0150   11.6230   -1.2510 C   0  0  0  0  0  0  0  0  0  0  0  0
    1.4500   12.0260   -1.0400 C   0  0  1  0  0  0  0  0  0  0  0  0
    2.3480   10.7630   -1.1000 C   0  0  0  0  0  0  0  0  0  0  0  0
    1.8960    9.6780   -0.1270 C   0  0  0  0  0  0  0  0  0  0  0  0
    0.4540    9.2620   -0.4050 C   0  0  2  0  0  0  0  0  0  0  0  0
    0.3990    8.6140   -1.6800 O   0  0  0  0  0  0  0  0  0  0  0  0
   -0.5420   10.4550   -0.3820 C   0  0  0  0  0  0  0  0  0  0  0  0
   -0.7080   10.9660    1.0710 C   0  0  0  0  0  0  0  0  0  0  0  0
   -1.9350    9.9230   -0.8160 C   0  0  0  0  0  0  0  0  0  0  0  0
    1.9860   13.2000   -1.9680 C   0  0  1  0  0  0  0  0  0  0  0  0
    2.5040   12.6170   -3.3190 C   0  0  0  0  0  0  0  0  0  0  0  0
    3.2250   13.8790   -1.2730 C   0  0  0  0  0  0  0  0  0  0  0  0
    2.9280   15.0290   -0.2920 C   0  0  0  0  0  0  0  0  0  0  0  0
    1.9740   16.0510   -0.9180 C   0  0  2  0  0  0  0  0  0  0  0  0
    2.6920   16.6770   -2.1620 C   0  0  0  0  0  0  0  0  0  0  0  0
    1.8611   20.4048    0.0519 H   0  0  0  0  0  0  0  0  0  0  0  0
    2.9725   19.8277   -1.2360 H   0  0  0  0  0  0  0  0  0  0  0  0
    1.2522   19.3105   -1.2360 H   0  0  0  0  0  0  0  0  0  0  0  0
    2.4200   18.6521    1.3119 H   0  0  0  0  0  0  0  0  0  0  0  0
    3.9145   16.7647   -0.0756 H   0  0  0  0  0  0  0  0  0  0  0  0
    4.2621   18.3452   -0.9272 H   0  0  0  0  0  0  0  0  0  0  0  0
    5.4422   17.3632    1.4463 H   0  0  0  0  0  0  0  0  0  0  0  0
    5.6131   18.9969    0.6793 H   0  0  0  0  0  0  0  0  0  0  0  0
    3.2687   18.4014    2.0007 H   0  0  0  0  0  0  0  0  0  0  0  0
    6.5077   18.7314    4.9222 H   0  0  0  0  0  0  0  0  0  0  0  0
    6.5210   17.7999    3.3864 H   0  0  0  0  0  0  0  0  0  0  0  0
    6.9733   19.5383    3.3864 H   0  0  0  0  0  0  0  0  0  0  0  0
    4.6455   19.1977    5.7201 H   0  0  0  0  0  0  0  0  0  0  0  0
    3.5670   20.3107    4.8120 H   0  0  0  0  0  0  0  0  0  0  0  0
    3.2401   18.5444    4.8120 H   0  0  0  0  0  0  0  0  0  0  0  0
    1.3605   16.8427    1.0244 H   0  0  0  0  0  0  0  0  0  0  0  0
   -0.5832   17.8869    0.0401 H   0  0  0  0  0  0  0  0  0  0  0  0
    0.3760   18.6247   -1.2606 H   0  0  0  0  0  0  0  0  0  0  0  0
   -1.3136   16.3355   -1.5363 H   0  0  0  0  0  0  0  0  0  0  0  0
   -0.0981   16.8132   -2.7186 H   0  0  0  0  0  0  0  0  0  0  0  0
    0.3534   15.1259    0.9279 H   0  0  0  0  0  0  0  0  0  0  0  0
   -1.1776   15.0468   -0.0082 H   0  0  0  0  0  0  0  0  0  0  0  0
   -0.0515   13.6473   -0.0082 H   0  0  0  0  0  0  0  0  0  0  0  0
    1.2287   14.8387   -3.1771 H   0  0  0  0  0  0  0  0  0  0  0  0
   -1.2501   14.2550   -2.7763 H   0  0  0  0  0  0  0  0  0  0  0  0
   -0.1924   13.2195   -3.8709 H   0  0  0  0  0  0  0  0  0  0  0  0
   -1.8236   11.9235   -2.2594 H   0  0  0  0  0  0  0  0  0  0  0  0
    1.5012   12.4731   -0.0363 H   0  0  0  0  0  0  0  0  0  0  0  0
    2.3167   10.3561   -2.1215 H   0  0  0  0  0  0  0  0  0  0  0  0
    3.3672   11.0637   -0.8155 H   0  0  0  0  0  0  0  0  0  0  0  0
    2.5510    8.8011   -0.2361 H   0  0  0  0  0  0  0  0  0  0  0  0
    1.9551   10.0774    0.8962 H   0  0  0  0  0  0  0  0  0  0  0  0
    0.1456    8.5798    0.4009 H   0  0  0  0  0  0  0  0  0  0  0  0
    1.1010    8.9940   -2.2340 H   0  0  0  0  0  0  0  0  0  0  0  0
   -0.4468   10.1618    1.7746 H   0  0  0  0  0  0  0  0  0  0  0  0
   -0.0434   11.8270    1.2351 H   0  0  0  0  0  0  0  0  0  0  0  0
   -1.7518   11.2720    1.2351 H   0  0  0  0  0  0  0  0  0  0  0  0
   -2.5346    9.6940    0.0773 H   0  0  0  0  0  0  0  0  0  0  0  0
   -2.4490   10.6881   -1.4164 H   0  0  0  0  0  0  0  0  0  0  0  0
   -1.8081    9.0101   -1.4164 H   0  0  0  0  0  0  0  0  0  0  0  0
    3.2223   11.8085   -3.1181 H   0  0  0  0  0  0  0  0  0  0  0  0
    1.6561   12.2191   -3.8958 H   0  0  0  0  0  0  0  0  0  0  0  0
    2.9989   13.4122   -3.8958 H   0  0  0  0  0  0  0  0  0  0  0  0
    3.7637   13.0979   -0.7166 H   0  0  0  0  0  0  0  0  0  0  0  0
    3.7970   14.3400   -2.0917 H   0  0  0  0  0  0  0  0  0  0  0  0
    2.4669   14.6162    0.6174 H   0  0  0  0  0  0  0  0  0  0  0  0
    3.8737   15.5353   -0.0484 H   0  0  0  0  0  0  0  0  0  0  0  0
    3.4807   17.3646   -1.8226 H   0  0  0  0  0  0  0  0  0  0  0  0
    3.1399   15.8760   -2.7684 H   0  0  0  0  0  0  0  0  0  0  0  0
    1.9595   17.2299   -2.7684 H   0  0  0  0  0  0  0  0  0  0  0  0
  1  2  1  0
  2  3  1  0
  3  4  1  0
  4  5  1  0
  5  6  1  0
  6  7  1  0
  7  8  1  0
  7  9  1  0
  2 10  1  0
 10 11  1  0
 11 12  1  0
 12 13  1  0
 13 14  1  1
 13 15  1  0
 15 16  1  0
 16 17  1  0
 17 18  2  0
 18 19  1  0
 19 20  1  0
 20 21  1  0
 21 22  1  0
 22 23  1  0
 22 24  1  0
 24 25  1  0
 24 26  1  0
 19 27  1  0
 27 28  1  6
 27 29  1  0
 29 30  1  0
 30 31  1  0
 31 32  1  6
  7  5  1  0
 31 10  1  0
 31 13  1  0
 27 15  1  0
 24 18  1  0
  1 33  1  0
  1 34  1  0
  1 35  1  0
  2 36  1  1
  3 37  1  0
  3 38  1  0
  4 39  1  0
  4 40  1  0
  5 41  1  1
  8 42  1  0
  8 43  1  0
  8 44  1  0
  9 45  1  0
  9 46  1  0
  9 47  1  0
 10 48  1  1
 11 49  1  0
 11 50  1  0
 12 51  1  0
 12 52  1  0
 14 53  1  0
 14 54  1  0
 14 55  1  0
 15 56  1  6
 16 57  1  0
 16 58  1  0
 17 59  1  0
 19 60  1  1
 20 61  1  0
 20 62  1  0
 21 63  1  0
 21 64  1  0
 22 65  1  1
 23 66  1  0
 25 67  1  0
 25 68  1  0
 25 69  1  0
 26 70  1  0
 26 71  1  0
 26 72  1  0
 28 73  1  0
 28 74  1  0
 28 75  1  0
 29 76  1  0
 29 77  1  0
 30 78  1  0
 30 79  1  0
 32 80  1  0
 32 81  1  0
 32 82  1  0
M  END
>  <meeko>  (2) 
{"is_sidechain": [false], "intermolecular_energy": 2.731, "internal_energy": -0.839}

$$$$
EPH_relaxed_0001_pdb2pqr_Repair_166_r2_0001_out
     RDKit          3D

 82 86  0  0  0  0  0  0  0  0999 V2000
    2.1390   18.0750   -2.6650 C   0  0  0  0  0  0  0  0  0  0  0  0
    0.6190   17.8920   -2.6510 C   0  0  2  0  0  0  0  0  0  0  0  0
   -0.0070   18.3320   -1.3130 C   0  0  0  0  0  0  0  0  0  0  0  0
    0.8080   17.9160   -0.0850 C   0  0  0  0  0  0  0  0  0  0  0  0
    1.3370   19.1050    0.6580 C   0  0  2  0  0  0  0  0  0  0  0  0
    2.2340   19.9310   -0.0960 O   0  0  0  0  0  0  0  0  0  0  0  0
    2.7950   19.2660    1.0480 C   0  0  0  0  0  0  0  0  0  0  0  0
    3.8140   18.2240    0.7070 C   0  0  0  0  0  0  0  0  0  0  0  0
    3.1360   20.1900    2.1750 C   0  0  0  0  0  0  0  0  0  0  0  0
    0.2690   16.4360   -2.9350 C   0  0  1  0  0  0  0  0  0  0  0  0
    0.3270   16.0920   -4.4480 C   0  0  0  0  0  0  0  0  0  0  0  0
    0.8360   14.6310   -4.5550 C   0  0  0  0  0  0  0  0  0  0  0  0
    0.7380   14.0770   -3.1150 C   0  0  1  0  0  0  0  0  0  0  0  0
   -0.7600   13.6740   -2.9410 C   0  0  0  0  0  0  0  0  0  0  0  0
    1.6980   12.8940   -2.7630 C   0  0  2  0  0  0  0  0  0  0  0  0
    1.4790   11.6100   -3.5810 C   0  0  0  0  0  0  0  0  0  0  0  0
    0.5160   10.6340   -2.9900 C   0  0  0  0  0  0  0  0  0  0  0  0
    0.0700   10.6460   -1.7200 C   0  0  0  0  0  0  0  0  0  0  0  0
    0.6150   11.6580   -0.7040 C   0  0  1  0  0  0  0  0  0  0  0  0
    0.9570   10.9280    0.6220 C   0  0  0  0  0  0  0  0  0  0  0  0
   -0.2210   10.1270    1.1690 C   0  0  0  0  0  0  0  0  0  0  0  0
   -0.6970    9.0930    0.1520 C   0  0  2  0  0  0  0  0  0  0  0  0
    0.3270    8.1080   -0.0170 O   0  0  0  0  0  0  0  0  0  0  0  0
   -1.0610    9.7110   -1.2260 C   0  0  0  0  0  0  0  0  0  0  0  0
   -2.3590   10.5460   -1.0960 C   0  0  0  0  0  0  0  0  0  0  0  0
   -1.3890    8.5470   -2.2000 C   0  0  0  0  0  0  0  0  0  0  0  0
    1.8030   12.5830   -1.2150 C   0  0  1  0  0  0  0  0  0  0  0  0
    3.1690   11.8640   -0.9960 C   0  0  0  0  0  0  0  0  0  0  0  0
    1.8460   13.8930   -0.3420 C   0  0  0  0  0  0  0  0  0  0  0  0
    0.9660   15.0680   -0.8090 C   0  0  0  0  0  0  0  0  0  0  0  0
    1.1730   15.3500   -2.3000 C   0  0  2  0  0  0  0  0  0  0  0  0
    2.6660   15.7790   -2.5030 C   0  0  0  0  0  0  0  0  0  0  0  0
    2.5124   18.1200   -1.6313 H   0  0  0  0  0  0  0  0  0  0  0  0
    2.6057   17.2266   -3.1869 H   0  0  0  0  0  0  0  0  0  0  0  0
    2.3910   19.0100   -3.1869 H   0  0  0  0  0  0  0  0  0  0  0  0
    0.2010   18.5363   -3.4385 H   0  0  0  0  0  0  0  0  0  0  0  0
   -0.0962   19.4284   -1.3153 H   0  0  0  0  0  0  0  0  0  0  0  0
   -0.9834   17.8313   -1.2352 H   0  0  0  0  0  0  0  0  0  0  0  0
    0.1641   17.3320    0.5890 H   0  0  0  0  0  0  0  0  0  0  0  0
    1.6646   17.3175   -0.4286 H   0  0  0  0  0  0  0  0  0  0  0  0
    0.4049   19.1891    1.2360 H   0  0  0  0  0  0  0  0  0  0  0  0
    4.2288   17.7998    1.6333 H   0  0  0  0  0  0  0  0  0  0  0  0
    3.3389   17.4252    0.1186 H   0  0  0  0  0  0  0  0  0  0  0  0
    4.6232   18.6812    0.1186 H   0  0  0  0  0  0  0  0  0  0  0  0
    2.9492   19.6837    3.1335 H   0  0  0  0  0  0  0  0  0  0  0  0
    4.1973   20.4717    2.1099 H   0  0  0  0  0  0  0  0  0  0  0  0
    2.5121   21.0936    2.1099 H   0  0  0  0  0  0  0  0  0  0  0  0
   -0.7355   16.3974   -2.4883 H   0  0  0  0  0  0  0  0  0  0  0  0
   -0.6745   16.1780   -4.8948 H   0  0  0  0  0  0  0  0  0  0  0  0
    0.9935   16.7829   -4.9851 H   0  0  0  0  0  0  0  0  0  0  0  0
    0.2019   14.0481   -5.2392 H   0  0  0  0  0  0  0  0  0  0  0  0
    1.8591   14.5741   -4.9549 H   0  0  0  0  0  0  0  0  0  0  0  0
   -1.0002   13.6094   -1.8695 H   0  0  0  0  0  0  0  0  0  0  0  0
   -1.4010   14.4316   -3.4154 H   0  0  0  0  0  0  0  0  0  0  0  0
   -0.9344   12.6970   -3.4154 H   0  0  0  0  0  0  0  0  0  0  0  0
    2.6774   13.2840   -3.0771 H   0  0  0  0  0  0  0  0  0  0  0  0
    1.1037   11.8992   -4.5737 H   0  0  0  0  0  0  0  0  0  0  0  0
    2.4521   11.0979   -3.6101 H   0  0  0  0  0  0  0  0  0  0  0  0
    0.1390    9.8375   -3.6483 H   0  0  0  0  0  0  0  0  0  0  0  0
   -0.1945   12.3829   -0.5332 H   0  0  0  0  0  0  0  0  0  0  0  0
    1.7966   10.2410    0.4400 H   0  0  0  0  0  0  0  0  0  0  0  0
    1.2154   11.6939    1.3680 H   0  0  0  0  0  0  0  0  0  0  0  0
    0.0911    9.6103    2.0886 H   0  0  0  0  0  0  0  0  0  0  0  0
   -1.0492   10.8198    1.3791 H   0  0  0  0  0  0  0  0  0  0  0  0
   -1.6200    8.6429    0.5464 H   0  0  0  0  0  0  0  0  0  0  0  0
    0.3430    7.8590   -0.9570 H   0  0  0  0  0  0  0  0  0  0  0  0
   -2.5931   10.6966   -0.0318 H   0  0  0  0  0  0  0  0  0  0  0  0
   -2.2170   11.5226   -1.5819 H   0  0  0  0  0  0  0  0  0  0  0  0
   -3.1888   10.0119   -1.5819 H   0  0  0  0  0  0  0  0  0  0  0  0
   -1.6429    7.6460   -1.6223 H   0  0  0  0  0  0  0  0  0  0  0  0
   -2.2427    8.8288   -2.8338 H   0  0  0  0  0  0  0  0  0  0  0  0
   -0.5138    8.3416   -2.8338 H   0  0  0  0  0  0  0  0  0  0  0  0
    3.3613   11.7628    0.0823 H   0  0  0  0  0  0  0  0  0  0  0  0
    3.1364   10.8662   -1.4579 H   0  0  0  0  0  0  0  0  0  0  0  0
    3.9730   12.4558   -1.4579 H   0  0  0  0  0  0  0  0  0  0  0  0
    1.5295   13.6246    0.6767 H   0  0  0  0  0  0  0  0  0  0  0  0
    2.8804   14.2585   -0.4221 H   0  0  0  0  0  0  0  0  0  0  0  0
   -0.0907   14.8179   -0.6335 H   0  0  0  0  0  0  0  0  0  0  0  0
    1.2492   15.9657   -0.2399 H   0  0  0  0  0  0  0  0  0  0  0  0
    3.1446   15.9165   -1.5222 H   0  0  0  0  0  0  0  0  0  0  0  0
    3.1989   14.9976   -3.0647 H   0  0  0  0  0  0  0  0  0  0  0  0
    2.7028   16.7241   -3.0647 H   0  0  0  0  0  0  0  0  0  0  0  0
  1  2  1  0
  2  3  1  0
  3  4  1  0
  4  5  1  0
  5  6  1  0
  6  7  1  0
  7  8  1  0
  7  9  1  0
  2 10  1  0
 10 11  1  0
 11 12  1  0
 12 13  1  0
 13 14  1  1
 13 15  1  0
 15 16  1  0
 16 17  1  0
 17 18  2  0
 18 19  1  0
 19 20  1  0
 20 21  1  0
 21 22  1  0
 22 23  1  0
 22 24  1  0
 24 25  1  0
 24 26  1  0
 19 27  1  0
 27 28  1  6
 27 29  1  0
 29 30  1  0
 30 31  1  0
 31 32  1  1
  7  5  1  0
 31 10  1  0
 31 13  1  0
 27 15  1  0
 24 18  1  0
  1 33  1  0
  1 34  1  0
  1 35  1  0
  2 36  1  6
  3 37  1  0
  3 38  1  0
  4 39  1  0
  4 40  1  0
  5 41  1  1
  8 42  1  0
  8 43  1  0
  8 44  1  0
  9 45  1  0
  9 46  1  0
  9 47  1  0
 10 48  1  1
 11 49  1  0
 11 50  1  0
 12 51  1  0
 12 52  1  0
 14 53  1  0
 14 54  1  0
 14 55  1  0
 15 56  1  6
 16 57  1  0
 16 58  1  0
 17 59  1  0
 19 60  1  1
 20 61  1  0
 20 62  1  0
 21 63  1  0
 21 64  1  0
 22 65  1  1
 23 66  1  0
 25 67  1  0
 25 68  1  0
 25 69  1  0
 26 70  1  0
 26 71  1  0
 26 72  1  0
 28 73  1  0
 28 74  1  0
 28 75  1  0
 29 76  1  0
 29 77  1  0
 30 78  1  0
 30 79  1  0
 32 80  1  0
 32 81  1  0
 32 82  1  0
M  END
>  <meeko>  (3) 
{"is_sidechain": [false], "intermolecular_energy": 2.731, "internal_energy": -0.839}

$$$$
EPH_relaxed_0001_pdb2pqr_Repair_166_r2_0001_out
     RDKit          3D

 82 86  0  0  0  0  0  0  0  0999 V2000
    2.3950   18.0440   -2.6760 C   0  0  0  0  0  0  0  0  0  0  0  0
    1.0920   17.6720   -1.9620 C   0  0  2  0  0  0  0  0  0  0  0  0
    1.2330   17.7300   -0.4280 C   0  0  0  0  0  0  0  0  0  0  0  0
    0.8750   19.0930    0.1720 C   0  0  0  0  0  0  0  0  0  0  0  0
   -0.5810   19.1810    0.5170 C   0  0  2  0  0  0  0  0  0  0  0  0
   -1.4220   18.2670   -0.1980 O   0  0  0  0  0  0  0  0  0  0  0  0
   -1.6420   19.6630   -0.4540 C   0  0  0  0  0  0  0  0  0  0  0  0
   -1.2920   20.0900   -1.8450 C   0  0  0  0  0  0  0  0  0  0  0  0
   -2.9340   20.1810    0.0970 C   0  0  0  0  0  0  0  0  0  0  0  0
    0.6420   16.2810   -2.3920 C   0  0  1  0  0  0  0  0  0  0  0  0
    0.7140   16.0780   -3.9290 C   0  0  0  0  0  0  0  0  0  0  0  0
    1.1170   14.5990   -4.1660 C   0  0  0  0  0  0  0  0  0  0  0  0
    0.9390   13.9210   -2.7870 C   0  0  1  0  0  0  0  0  0  0  0  0
   -0.5890   13.6190   -2.6830 C   0  0  0  0  0  0  0  0  0  0  0  0
    1.7990   12.6400   -2.5320 C   0  0  2  0  0  0  0  0  0  0  0  0
    1.5070   11.4590   -3.4740 C   0  0  0  0  0  0  0  0  0  0  0  0
    0.4580   10.5090   -2.9990 C   0  0  0  0  0  0  0  0  0  0  0  0
   -0.0200   10.4350   -1.7420 C   0  0  0  0  0  0  0  0  0  0  0  0
    0.5720   11.3020   -0.6230 C   0  0  1  0  0  0  0  0  0  0  0  0
    0.8220   10.4260    0.6330 C   0  0  0  0  0  0  0  0  0  0  0  0
   -0.4270    9.6700    1.0770 C   0  0  0  0  0  0  0  0  0  0  0  0
   -0.9510    8.7760   -0.0430 C   0  0  2  0  0  0  0  0  0  0  0  0
    0.0020    7.7360   -0.2860 O   0  0  0  0  0  0  0  0  0  0  0  0
   -1.2300    9.5470   -1.3630 C   0  0  0  0  0  0  0  0  0  0  0  0
   -2.4660   10.4630   -1.1790 C   0  0  0  0  0  0  0  0  0  0  0  0
   -1.6180    8.5090   -2.4500 C   0  0  0  0  0  0  0  0  0  0  0  0
    1.8380   12.1770   -1.0190 C   0  0  1  0  0  0  0  0  0  0  0  0
    3.1400   11.3380   -0.8440 C   0  0  0  0  0  0  0  0  0  0  0  0
    1.9550   13.3920   -0.0240 C   0  0  0  0  0  0  0  0  0  0  0  0
    1.1770   14.6690   -0.3930 C   0  0  0  0  0  0  0  0  0  0  0  0
    1.4450   15.0740   -1.8460 C   0  0  2  0  0  0  0  0  0  0  0  0
    2.9710   15.4040   -1.9770 C   0  0  0  0  0  0  0  0  0  0  0  0
    3.1718   18.2658   -1.9294 H   0  0  0  0  0  0  0  0  0  0  0  0
    2.7211   17.2031   -3.3057 H   0  0  0  0  0  0  0  0  0  0  0  0
    2.2279   18.9303   -3.3057 H   0  0  0  0  0  0  0  0  0  0  0  0
    0.3331   18.4138   -2.2515 H   0  0  0  0  0  0  0  0  0  0  0  0
    0.5677   16.9718    0.0108 H   0  0  0  0  0  0  0  0  0  0  0  0
    2.2919   17.5444   -0.1952 H   0  0  0  0  0  0  0  0  0  0  0  0
    1.4679   19.2473    1.0856 H   0  0  0  0  0  0  0  0  0  0  0  0
    1.0975   19.8669   -0.5773 H   0  0  0  0  0  0  0  0  0  0  0  0
   -0.3429   19.4673    1.5521 H   0  0  0  0  0  0  0  0  0  0  0  0
   -0.5952   20.9401   -1.8032 H   0  0  0  0  0  0  0  0  0  0  0  0
   -0.8172   19.2525   -2.3771 H   0  0  0  0  0  0  0  0  0  0  0  0
   -2.2064   20.3912   -2.3771 H   0  0  0  0  0  0  0  0  0  0  0  0
   -2.8961   20.1658    1.1962 H   0  0  0  0  0  0  0  0  0  0  0  0
   -3.0934   21.2125   -0.2502 H   0  0  0  0  0  0  0  0  0  0  0  0
   -3.7618   19.5453   -0.2502 H   0  0  0  0  0  0  0  0  0  0  0  0
   -0.3745   16.2776   -1.9716 H   0  0  0  0  0  0  0  0  0  0  0  0
   -0.2665   16.2812   -4.3844 H   0  0  0  0  0  0  0  0  0  0  0  0
    1.4431   16.7642   -4.3845 H   0  0  0  0  0  0  0  0  0  0  0  0
    0.4607   14.1329   -4.9156 H   0  0  0  0  0  0  0  0  0  0  0  0
    2.1435   14.5023   -4.5493 H   0  0  0  0  0  0  0  0  0  0  0  0
   -0.8801   13.5615   -1.6238 H   0  0  0  0  0  0  0  0  0  0  0  0
   -1.1559   14.4225   -3.1760 H   0  0  0  0  0  0  0  0  0  0  0  0
   -0.8077   12.6603   -3.1760 H   0  0  0  0  0  0  0  0  0  0  0  0
    2.8128   12.9816   -2.7881 H   0  0  0  0  0  0  0  0  0  0  0  0
    1.1817   11.8685   -4.4418 H   0  0  0  0  0  0  0  0  0  0  0  0
    2.4395   10.8785   -3.5324 H   0  0  0  0  0  0  0  0  0  0  0  0
    0.0399    9.8101   -3.7384 H   0  0  0  0  0  0  0  0  0  0  0  0
   -0.1849   12.0682   -0.3994 H   0  0  0  0  0  0  0  0  0  0  0  0
    1.6124    9.6966    0.4026 H   0  0  0  0  0  0  0  0  0  0  0  0
    1.1164   11.0960    1.4542 H   0  0  0  0  0  0  0  0  0  0  0  0
   -0.1795    9.0468    1.9490 H   0  0  0  0  0  0  0  0  0  0  0  0
   -1.2066   10.4017    1.3357 H   0  0  0  0  0  0  0  0  0  0  0  0
   -1.9151    8.3629    0.2884 H   0  0  0  0  0  0  0  0  0  0  0  0
   -0.0760    7.0910    0.4380 H   0  0  0  0  0  0  0  0  0  0  0  0
   -2.6595   10.6064   -0.1057 H   0  0  0  0  0  0  0  0  0  0  0  0
   -2.2732   11.4380   -1.6503 H   0  0  0  0  0  0  0  0  0  0  0  0
   -3.3427    9.9949   -1.6503 H   0  0  0  0  0  0  0  0  0  0  0  0
   -1.9639    7.5835   -1.9664 H   0  0  0  0  0  0  0  0  0  0  0  0
   -2.4238    8.9184   -3.0769 H   0  0  0  0  0  0  0  0  0  0  0  0
   -0.7412    8.2895   -3.0769 H   0  0  0  0  0  0  0  0  0  0  0  0
    3.3484   11.2037    0.2277 H   0  0  0  0  0  0  0  0  0  0  0  0
    3.0087   10.3541   -1.3181 H   0  0  0  0  0  0  0  0  0  0  0  0
    3.9817   11.8641   -1.3181 H   0  0  0  0  0  0  0  0  0  0  0  0
    1.5930   13.0539    0.9582 H   0  0  0  0  0  0  0  0  0  0  0  0
    3.0154   13.6836   -0.0491 H   0  0  0  0  0  0  0  0  0  0  0  0
    0.1003   14.4844   -0.2637 H   0  0  0  0  0  0  0  0  0  0  0  0
    1.5097   15.4849    0.2655 H   0  0  0  0  0  0  0  0  0  0  0  0
    3.4129   15.4996   -0.9742 H   0  0  0  0  0  0  0  0  0  0  0  0
    3.4756   14.5942   -2.5244 H   0  0  0  0  0  0  0  0  0  0  0  0
    3.0959   16.3499   -2.5244 H   0  0  0  0  0  0  0  0  0  0  0  0
  1  2  1  0
  2  3  1  0
  3  4  1  0
  4  5  1  0
  5  6  1  0
  6  7  1  0
  7  8  1  0
  7  9  1  0
  2 10  1  0
 10 11  1  0
 11 12  1  0
 12 13  1  0
 13 14  1  1
 13 15  1  0
 15 16  1  0
 16 17  1  0
 17 18  2  0
 18 19  1  0
 19 20  1  0
 20 21  1  0
 21 22  1  0
 22 23  1  0
 22 24  1  0
 24 25  1  0
 24 26  1  0
 19 27  1  0
 27 28  1  6
 27 29  1  0
 29 30  1  0
 30 31  1  0
 31 32  1  1
  7  5  1  0
 31 10  1  0
 31 13  1  0
 27 15  1  0
 24 18  1  0
  1 33  1  0
  1 34  1  0
  1 35  1  0
  2 36  1  6
  3 37  1  0
  3 38  1  0
  4 39  1  0
  4 40  1  0
  5 41  1  1
  8 42  1  0
  8 43  1  0
  8 44  1  0
  9 45  1  0
  9 46  1  0
  9 47  1  0
 10 48  1  1
 11 49  1  0
 11 50  1  0
 12 51  1  0
 12 52  1  0
 14 53  1  0
 14 54  1  0
 14 55  1  0
 15 56  1  6
 16 57  1  0
 16 58  1  0
 17 59  1  0
 19 60  1  1
 20 61  1  0
 20 62  1  0
 21 63  1  0
 21 64  1  0
 22 65  1  1
 23 66  1  0
 25 67  1  0
 25 68  1  0
 25 69  1  0
 26 70  1  0
 26 71  1  0
 26 72  1  0
 28 73  1  0
 28 74  1  0
 28 75  1  0
 29 76  1  0
 29 77  1  0
 30 78  1  0
 30 79  1  0
 32 80  1  0
 32 81  1  0
 32 82  1  0
M  END
>  <meeko>  (4) 
{"is_sidechain": [false], "intermolecular_energy": 2.731, "internal_energy": -0.839}

$$$$
EPH_relaxed_0001_pdb2pqr_Repair_166_r2_0001_out
     RDKit          3D

 82 86  0  0  0  0  0  0  0  0999 V2000
    3.9090   17.4970    0.5650 C   0  0  0  0  0  0  0  0  0  0  0  0
    2.7990   17.9410   -0.3920 C   0  0  2  0  0  0  0  0  0  0  0  0
    2.1610   19.2770    0.0380 C   0  0  0  0  0  0  0  0  0  0  0  0
    0.9270   19.1100    0.9290 C   0  0  0  0  0  0  0  0  0  0  0  0
   -0.2340   19.9140    0.4250 C   0  0  2  0  0  0  0  0  0  0  0  0
   -1.2400   20.1930    1.4080 O   0  0  0  0  0  0  0  0  0  0  0  0
   -1.6430   19.3640    0.3060 C   0  0  0  0  0  0  0  0  0  0  0  0
   -1.9660   17.9550    0.6910 C   0  0  0  0  0  0  0  0  0  0  0  0
   -2.5940   20.0340   -0.6360 C   0  0  0  0  0  0  0  0  0  0  0  0
    1.7300   16.8590   -0.4870 C   0  0  1  0  0  0  0  0  0  0  0  0
    0.4100   17.3770   -1.1170 C   0  0  0  0  0  0  0  0  0  0  0  0
   -0.1820   16.2060   -1.9430 C   0  0  0  0  0  0  0  0  0  0  0  0
    0.6290   14.9660   -1.4980 C   0  0  1  0  0  0  0  0  0  0  0  0
   -0.0280   14.5180   -0.1550 C   0  0  0  0  0  0  0  0  0  0  0  0
    0.7100   13.7890   -2.5230 C   0  0  2  0  0  0  0  0  0  0  0  0
   -0.6390   13.1390   -2.8770 C   0  0  0  0  0  0  0  0  0  0  0  0
   -1.0380   11.9880   -2.0130 C   0  0  0  0  0  0  0  0  0  0  0  0
   -0.2220   11.3150   -1.1810 C   0  0  0  0  0  0  0  0  0  0  0  0
    1.2770   11.6320   -1.1210 C   0  0  1  0  0  0  0  0  0  0  0  0
    2.0880   10.3100   -1.1560 C   0  0  0  0  0  0  0  0  0  0  0  0
    1.6560    9.3290   -0.0710 C   0  0  0  0  0  0  0  0  0  0  0  0
    0.1720    8.9930   -0.2000 C   0  0  2  0  0  0  0  0  0  0  0  0
   -0.0320    8.2620   -1.4130 O   0  0  0  0  0  0  0  0  0  0  0  0
   -0.7440   10.2490   -0.1860 C   0  0  0  0  0  0  0  0  0  0  0  0
   -0.7530   10.8710    1.2320 C   0  0  0  0  0  0  0  0  0  0  0  0
   -2.1980    9.7820   -0.4650 C   0  0  0  0  0  0  0  0  0  0  0  0
    1.8030   12.6990   -2.1750 C   0  0  1  0  0  0  0  0  0  0  0  0
    2.1670   11.9890   -3.5150 C   0  0  0  0  0  0  0  0  0  0  0  0
    3.1360   13.3400   -1.6360 C   0  0  0  0  0  0  0  0  0  0  0  0
    2.9950   14.5740   -0.7240 C   0  0  0  0  0  0  0  0  0  0  0  0
    2.0550   15.6110   -1.3460 C   0  0  2  0  0  0  0  0  0  0  0  0
    2.7010   16.0980   -2.6880 C   0  0  0  0  0  0  0  0  0  0  0  0
    3.5730   17.6314    1.6038 H   0  0  0  0  0  0  0  0  0  0  0  0
    4.1421   16.4364    0.3893 H   0  0  0  0  0  0  0  0  0  0  0  0
    4.8092   18.1042    0.3893 H   0  0  0  0  0  0  0  0  0  0  0  0
    3.2573   18.0975   -1.3797 H   0  0  0  0  0  0  0  0  0  0  0  0
    2.9128   19.8590    0.5912 H   0  0  0  0  0  0  0  0  0  0  0  0
    1.8293   19.7853   -0.8794 H   0  0  0  0  0  0  0  0  0  0  0  0
    0.6429   18.0475    0.9490 H   0  0  0  0  0  0  0  0  0  0  0  0
    1.1809   19.4692    1.9372 H   0  0  0  0  0  0  0  0  0  0  0  0
    0.4129   20.4462   -0.2879 H   0  0  0  0  0  0  0  0  0  0  0  0
   -1.9855   17.8698    1.7875 H   0  0  0  0  0  0  0  0  0  0  0  0
   -2.9504   17.6802    0.2843 H   0  0  0  0  0  0  0  0  0  0  0  0
   -1.1996   17.2789    0.2843 H   0  0  0  0  0  0  0  0  0  0  0  0
   -3.3605   20.5740   -0.0608 H   0  0  0  0  0  0  0  0  0  0  0  0
   -2.0429   20.7444   -1.2697 H   0  0  0  0  0  0  0  0  0  0  0  0
   -3.0775   19.2760   -1.2697 H   0  0  0  0  0  0  0  0  0  0  0  0
    1.6585   16.5773    0.5739 H   0  0  0  0  0  0  0  0  0  0  0  0
   -0.2943   17.6773   -0.3272 H   0  0  0  0  0  0  0  0  0  0  0  0
    0.5944   18.2552   -1.7533 H   0  0  0  0  0  0  0  0  0  0  0  0
   -1.2504   16.0728   -1.7175 H   0  0  0  0  0  0  0  0  0  0  0  0
   -0.1131   16.3829   -3.0265 H   0  0  0  0  0  0  0  0  0  0  0  0
    0.5549   14.9155    0.6889 H   0  0  0  0  0  0  0  0  0  0  0  0
   -1.0570   14.9034   -0.1037 H   0  0  0  0  0  0  0  0  0  0  0  0
   -0.0450   13.4193   -0.1037 H   0  0  0  0  0  0  0  0  0  0  0  0
    1.0472   14.2969   -3.4386 H   0  0  0  0  0  0  0  0  0  0  0  0
   -1.4193   13.9103   -2.7976 H   0  0  0  0  0  0  0  0  0  0  0  0
   -0.5239   12.7321   -3.8925 H   0  0  0  0  0  0  0  0  0  0  0  0
   -2.0878   11.6628   -2.0608 H   0  0  0  0  0  0  0  0  0  0  0  0
    1.4409   12.1449   -0.1618 H   0  0  0  0  0  0  0  0  0  0  0  0
    1.9454    9.8349   -2.1378 H   0  0  0  0  0  0  0  0  0  0  0  0
    3.1438   10.5616   -0.9770 H   0  0  0  0  0  0  0  0  0  0  0  0
    2.2443    8.4044   -0.1664 H   0  0  0  0  0  0  0  0  0  0  0  0
    1.8272    9.7935    0.9113 H   0  0  0  0  0  0  0  0  0  0  0  0
   -0.1073    8.3914    0.6775 H   0  0  0  0  0  0  0  0  0  0  0  0
   -0.7450    8.7030   -1.9060 H   0  0  0  0  0  0  0  0  0  0  0  0
   -0.7414   10.0687    1.9844 H   0  0  0  0  0  0  0  0  0  0  0  0
    0.1360   11.5061    1.3595 H   0  0  0  0  0  0  0  0  0  0  0  0
   -1.6601   11.4801    1.3595 H   0  0  0  0  0  0  0  0  0  0  0  0
   -2.7189    9.6147    0.4893 H   0  0  0  0  0  0  0  0  0  0  0  0
   -2.7273   10.5553   -1.0410 H   0  0  0  0  0  0  0  0  0  0  0  0
   -2.1780    8.8451   -1.0410 H   0  0  0  0  0  0  0  0  0  0  0  0
    2.6591   11.0291   -3.2995 H   0  0  0  0  0  0  0  0  0  0  0  0
    1.2501   11.8088   -4.0953 H   0  0  0  0  0  0  0  0  0  0  0  0
    2.8485   12.6283   -4.0953 H   0  0  0  0  0  0  0  0  0  0  0  0
    3.6714   12.5654   -1.0673 H   0  0  0  0  0  0  0  0  0  0  0  0
    3.6632   13.7025   -2.5308 H   0  0  0  0  0  0  0  0  0  0  0  0
    2.5894   14.2582    0.2485 H   0  0  0  0  0  0  0  0  0  0  0  0
    3.9873   15.0316   -0.5972 H   0  0  0  0  0  0  0  0  0  0  0  0
    3.5614   16.7466   -2.4666 H   0  0  0  0  0  0  0  0  0  0  0  0
    3.0382   15.2274   -3.2697 H   0  0  0  0  0  0  0  0  0  0  0  0
    1.9569   16.6618   -3.2697 H   0  0  0  0  0  0  0  0  0  0  0  0
  1  2  1  0
  2  3  1  0
  3  4  1  0
  4  5  1  0
  5  6  1  0
  6  7  1  0
  7  8  1  0
  7  9  1  0
  2 10  1  0
 10 11  1  0
 11 12  1  0
 12 13  1  0
 13 14  1  1
 13 15  1  0
 15 16  1  0
 16 17  1  0
 17 18  2  0
 18 19  1  0
 19 20  1  0
 20 21  1  0
 21 22  1  0
 22 23  1  0
 22 24  1  0
 24 25  1  0
 24 26  1  0
 19 27  1  0
 27 28  1  6
 27 29  1  0
 29 30  1  0
 30 31  1  0
 31 32  1  6
  7  5  1  0
 31 10  1  0
 31 13  1  0
 27 15  1  0
 24 18  1  0
  1 33  1  0
  1 34  1  0
  1 35  1  0
  2 36  1  6
  3 37  1  0
  3 38  1  0
  4 39  1  0
  4 40  1  0
  5 41  1  6
  8 42  1  0
  8 43  1  0
  8 44  1  0
  9 45  1  0
  9 46  1  0
  9 47  1  0
 10 48  1  1
 11 49  1  0
 11 50  1  0
 12 51  1  0
 12 52  1  0
 14 53  1  0
 14 54  1  0
 14 55  1  0
 15 56  1  6
 16 57  1  0
 16 58  1  0
 17 59  1  0
 19 60  1  1
 20 61  1  0
 20 62  1  0
 21 63  1  0
 21 64  1  0
 22 65  1  1
 23 66  1  0
 25 67  1  0
 25 68  1  0
 25 69  1  0
 26 70  1  0
 26 71  1  0
 26 72  1  0
 28 73  1  0
 28 74  1  0
 28 75  1  0
 29 76  1  0
 29 77  1  0
 30 78  1  0
 30 79  1  0
 32 80  1  0
 32 81  1  0
 32 82  1  0
M  END
>  <meeko>  (5) 
{"is_sidechain": [false], "intermolecular_energy": 2.731, "internal_energy": -0.839}

$$$$
EPH_relaxed_0001_pdb2pqr_Repair_166_r2_0001_out
     RDKit          3D

 82 86  0  0  0  0  0  0  0  0999 V2000
   -5.1040    5.9550   -1.6390 C   0  0  0  0  0  0  0  0  0  0  0  0
   -5.4140    7.4510   -1.7400 C   0  0  2  0  0  0  0  0  0  0  0  0
   -5.2000    8.1800   -0.3990 C   0  0  0  0  0  0  0  0  0  0  0  0
   -4.1200    9.2640   -0.4520 C   0  0  0  0  0  0  0  0  0  0  0  0
   -2.7870    8.6990   -0.8380 C   0  0  2  0  0  0  0  0  0  0  0  0
   -1.7310    8.9670    0.0940 O   0  0  0  0  0  0  0  0  0  0  0  0
   -1.5910    9.5560   -1.2090 C   0  0  0  0  0  0  0  0  0  0  0  0
   -1.6730   11.0510   -1.2130 C   0  0  0  0  0  0  0  0  0  0  0  0
   -0.5010    8.9450   -2.0330 C   0  0  0  0  0  0  0  0  0  0  0  0
   -6.8450    7.6540   -2.2220 C   0  0  1  0  0  0  0  0  0  0  0  0
   -7.1270    6.9480   -3.5750 C   0  0  0  0  0  0  0  0  0  0  0  0
   -8.5950    6.4530   -3.5240 C   0  0  0  0  0  0  0  0  0  0  0  0
   -9.2070    7.1720   -2.2990 C   0  0  1  0  0  0  0  0  0  0  0  0
   -9.5730    8.5990   -2.8120 C   0  0  0  0  0  0  0  0  0  0  0  0
  -10.4310    6.4690   -1.6260 C   0  0  2  0  0  0  0  0  0  0  0  0
  -11.6720    6.3210   -2.5220 C   0  0  0  0  0  0  0  0  0  0  0  0
  -12.6440    7.4520   -2.4580 C   0  0  0  0  0  0  0  0  0  0  0  0
  -12.6730    8.4050   -1.5070 C   0  0  0  0  0  0  0  0  0  0  0  0
  -11.7210    8.3480   -0.3060 C   0  0  1  0  0  0  0  0  0  0  0  0
  -12.5160    8.6220    0.9980 C   0  0  0  0  0  0  0  0  0  0  0  0
  -13.3050    9.9270    0.9390 C   0  0  0  0  0  0  0  0  0  0  0  0
  -14.2810    9.9220   -0.2340 C   0  0  2  0  0  0  0  0  0  0  0  0
  -15.2870    8.9340    0.0080 O   0  0  0  0  0  0  0  0  0  0  0  0
  -13.5950    9.6460   -1.6010 C   0  0  0  0  0  0  0  0  0  0  0  0
  -12.7290   10.8660   -2.0040 C   0  0  0  0  0  0  0  0  0  0  0  0
  -14.7070    9.5280   -2.6780 C   0  0  0  0  0  0  0  0  0  0  0  0
  -10.8100    7.0500   -0.2040 C   0  0  1  0  0  0  0  0  0  0  0  0
  -11.5770    5.9200    0.5490 C   0  0  0  0  0  0  0  0  0  0  0  0
   -9.5400    7.3800    0.6660 C   0  0  0  0  0  0  0  0  0  0  0  0
   -8.3210    7.9610   -0.0760 C   0  0  0  0  0  0  0  0  0  0  0  0
   -7.9830    7.1240   -1.3130 C   0  0  2  0  0  0  0  0  0  0  0  0
   -7.5890    5.6880   -0.8260 C   0  0  0  0  0  0  0  0  0  0  0  0
   -5.0436    5.6637   -0.5800 H   0  0  0  0  0  0  0  0  0  0  0  0
   -5.9023    5.3810   -2.1322 H   0  0  0  0  0  0  0  0  0  0  0  0
   -4.1434    5.7455   -2.1322 H   0  0  0  0  0  0  0  0  0  0  0  0
   -4.7125    7.8861   -2.4670 H   0  0  0  0  0  0  0  0  0  0  0  0
   -6.1497    8.6504   -0.1042 H   0  0  0  0  0  0  0  0  0  0  0  0
   -4.8619    7.4252    0.3263 H   0  0  0  0  0  0  0  0  0  0  0  0
   -4.4131   10.0235   -1.1917 H   0  0  0  0  0  0  0  0  0  0  0  0
   -4.0279    9.7060    0.5511 H   0  0  0  0  0  0  0  0  0  0  0  0
   -3.2671    7.8457   -1.3393 H   0  0  0  0  0  0  0  0  0  0  0  0
   -1.6932   11.4199   -0.1769 H   0  0  0  0  0  0  0  0  0  0  0  0
   -0.7962   11.4649   -1.7325 H   0  0  0  0  0  0  0  0  0  0  0  0
   -2.5898   11.3665   -1.7325 H   0  0  0  0  0  0  0  0  0  0  0  0
    0.2640    8.5162   -1.3691 H   0  0  0  0  0  0  0  0  0  0  0  0
   -0.9222    8.1515   -2.6678 H   0  0  0  0  0  0  0  0  0  0  0  0
   -0.0438    9.7184   -2.6678 H   0  0  0  0  0  0  0  0  0  0  0  0
   -6.8725    8.7530   -2.2587 H   0  0  0  0  0  0  0  0  0  0  0  0
   -6.9947    7.6560   -4.4064 H   0  0  0  0  0  0  0  0  0  0  0  0
   -6.4330    6.1097   -3.7351 H   0  0  0  0  0  0  0  0  0  0  0  0
   -9.1303    6.7299   -4.4442 H   0  0  0  0  0  0  0  0  0  0  0  0
   -8.6634    5.3582   -3.4422 H   0  0  0  0  0  0  0  0  0  0  0  0
   -9.7438    9.2648   -1.9532 H   0  0  0  0  0  0  0  0  0  0  0  0
   -8.7467    8.9924   -3.4223 H   0  0  0  0  0  0  0  0  0  0  0  0
  -10.4866    8.5461   -3.4223 H   0  0  0  0  0  0  0  0  0  0  0  0
  -10.0569    5.4473   -1.4640 H   0  0  0  0  0  0  0  0  0  0  0  0
  -11.3299    6.2255   -3.5631 H   0  0  0  0  0  0  0  0  0  0  0  0
  -12.2104    5.4361   -2.1518 H   0  0  0  0  0  0  0  0  0  0  0  0
  -13.4002    7.5121   -3.2546 H   0  0  0  0  0  0  0  0  0  0  0  0
  -10.9806    9.1455   -0.4667 H   0  0  0  0  0  0  0  0  0  0  0  0
  -13.2188    7.7922    1.1635 H   0  0  0  0  0  0  0  0  0  0  0  0
  -11.7900    8.7076    1.8200 H   0  0  0  0  0  0  0  0  0  0  0  0
  -13.8686   10.0495    1.8757 H   0  0  0  0  0  0  0  0  0  0  0  0
  -12.5980   10.7588    0.8037 H   0  0  0  0  0  0  0  0  0  0  0  0
  -14.7205   10.9281   -0.3018 H   0  0  0  0  0  0  0  0  0  0  0  0
  -15.9920    9.0640   -0.6490 H   0  0  0  0  0  0  0  0  0  0  0  0
  -12.3679   11.3747   -1.0980 H   0  0  0  0  0  0  0  0  0  0  0  0
  -11.8697   10.5249   -2.6001 H   0  0  0  0  0  0  0  0  0  0  0  0
  -13.3345   11.5646   -2.6001 H   0  0  0  0  0  0  0  0  0  0  0  0
  -15.6850    9.4242   -2.1854 H   0  0  0  0  0  0  0  0  0  0  0  0
  -14.7067   10.4312   -3.3058 H   0  0  0  0  0  0  0  0  0  0  0  0
  -14.5171    8.6450   -3.3058 H   0  0  0  0  0  0  0  0  0  0  0  0
  -11.4761    6.0686    1.6342 H   0  0  0  0  0  0  0  0  0  0  0  0
  -12.6411    5.9516    0.2719 H   0  0  0  0  0  0  0  0  0  0  0  0
  -11.1548    4.9428    0.2719 H   0  0  0  0  0  0  0  0  0  0  0  0
   -9.8419    8.1094    1.4321 H   0  0  0  0  0  0  0  0  0  0  0  0
   -9.2015    6.4105    1.0602 H   0  0  0  0  0  0  0  0  0  0  0  0
   -8.5475    8.9909   -0.3891 H   0  0  0  0  0  0  0  0  0  0  0  0
   -7.4566    7.9470    0.6042 H   0  0  0  0  0  0  0  0  0  0  0  0
   -7.5821    5.6628    0.2737 H   0  0  0  0  0  0  0  0  0  0  0  0
   -8.3203    4.9588   -1.2049 H   0  0  0  0  0  0  0  0  0  0  0  0
   -6.5880    5.4341   -1.2049 H   0  0  0  0  0  0  0  0  0  0  0  0
  1  2  1  0
  2  3  1  0
  3  4  1  0
  4  5  1  0
  5  6  1  0
  6  7  1  0
  7  8  1  0
  7  9  1  0
  2 10  1  0
 10 11  1  0
 11 12  1  0
 12 13  1  0
 13 14  1  6
 13 15  1  0
 15 16  1  0
 16 17  1  0
 17 18  2  0
 18 19  1  0
 19 20  1  0
 20 21  1  0
 21 22  1  0
 22 23  1  0
 22 24  1  0
 24 25  1  0
 24 26  1  0
 19 27  1  0
 27 28  1  1
 27 29  1  0
 29 30  1  0
 30 31  1  0
 31 32  1  1
  7  5  1  0
 31 10  1  0
 31 13  1  0
 27 15  1  0
 24 18  1  0
  1 33  1  0
  1 34  1  0
  1 35  1  0
  2 36  1  6
  3 37  1  0
  3 38  1  0
  4 39  1  0
  4 40  1  0
  5 41  1  6
  8 42  1  0
  8 43  1  0
  8 44  1  0
  9 45  1  0
  9 46  1  0
  9 47  1  0
 10 48  1  6
 11 49  1  0
 11 50  1  0
 12 51  1  0
 12 52  1  0
 14 53  1  0
 14 54  1  0
 14 55  1  0
 15 56  1  1
 16 57  1  0
 16 58  1  0
 17 59  1  0
 19 60  1  6
 20 61  1  0
 20 62  1  0
 21 63  1  0
 21 64  1  0
 22 65  1  6
 23 66  1  0
 25 67  1  0
 25 68  1  0
 25 69  1  0
 26 70  1  0
 26 71  1  0
 26 72  1  0
 28 73  1  0
 28 74  1  0
 28 75  1  0
 29 76  1  0
 29 77  1  0
 30 78  1  0
 30 79  1  0
 32 80  1  0
 32 81  1  0
 32 82  1  0
M  END
>  <meeko>  (6) 
{"is_sidechain": [false], "intermolecular_energy": 2.731, "internal_energy": -0.839}

$$$$
EPH_relaxed_0001_pdb2pqr_Repair_166_r2_0001_out
     RDKit          3D

 82 86  0  0  0  0  0  0  0  0999 V2000
   -0.2360   10.4440   -3.7710 C   0  0  0  0  0  0  0  0  0  0  0  0
    0.8970   10.2470   -2.7590 C   0  0  2  0  0  0  0  0  0  0  0  0
    0.7140    8.9630   -1.9250 C   0  0  0  0  0  0  0  0  0  0  0  0
    0.0990    9.2090   -0.5440 C   0  0  0  0  0  0  0  0  0  0  0  0
   -1.3260    8.7510   -0.4820 C   0  0  2  0  0  0  0  0  0  0  0  0
   -2.0390    8.8420   -1.7230 O   0  0  0  0  0  0  0  0  0  0  0  0
   -2.5120    9.6810   -0.6570 C   0  0  0  0  0  0  0  0  0  0  0  0
   -2.3260   11.1450   -0.9060 C   0  0  0  0  0  0  0  0  0  0  0  0
   -3.8380    9.2610   -0.1040 C   0  0  0  0  0  0  0  0  0  0  0  0
    0.9870   11.4580   -1.8380 C   0  0  1  0  0  0  0  0  0  0  0  0
    2.0590   11.2870   -0.7290 C   0  0  0  0  0  0  0  0  0  0  0  0
    2.6770   12.6870   -0.4830 C   0  0  0  0  0  0  0  0  0  0  0  0
    1.7250   13.6660   -1.2090 C   0  0  1  0  0  0  0  0  0  0  0  0
    0.5370   13.8780   -0.2190 C   0  0  0  0  0  0  0  0  0  0  0  0
    2.3470   15.0270   -1.6630 C   0  0  2  0  0  0  0  0  0  0  0  0
    2.8650   15.9200   -0.5230 C   0  0  0  0  0  0  0  0  0  0  0  0
    1.8700   16.8830    0.0350 C   0  0  0  0  0  0  0  0  0  0  0  0
    0.7040   17.2270   -0.5450 C   0  0  0  0  0  0  0  0  0  0  0  0
    0.3320   16.7010   -1.9370 C   0  0  1  0  0  0  0  0  0  0  0  0
   -0.1960   17.8710   -2.8080 C   0  0  0  0  0  0  0  0  0  0  0  0
   -1.3440   18.6240   -2.1420 C   0  0  0  0  0  0  0  0  0  0  0  0
   -0.9170   19.1820   -0.7870 C   0  0  2  0  0  0  0  0  0  0  0  0
    0.0720   20.1940   -0.9960 O   0  0  0  0  0  0  0  0  0  0  0  0
   -0.3580   18.0950    0.1740 C   0  0  0  0  0  0  0  0  0  0  0  0
   -1.5090   17.1690    0.6390 C   0  0  0  0  0  0  0  0  0  0  0  0
    0.1670   18.8100    1.4490 C   0  0  0  0  0  0  0  0  0  0  0  0
    1.4480   15.8450   -2.6760 C   0  0  1  0  0  0  0  0  0  0  0  0
    2.4090   16.7890   -3.4620 C   0  0  0  0  0  0  0  0  0  0  0  0
    0.7600   14.9190   -3.7480 C   0  0  0  0  0  0  0  0  0  0  0  0
    0.2730   13.5400   -3.2650 C   0  0  0  0  0  0  0  0  0  0  0  0
    1.3720   12.8140   -2.4820 C   0  0  2  0  0  0  0  0  0  0  0  0
    2.5720   12.5670   -3.4590 C   0  0  0  0  0  0  0  0  0  0  0  0
   -1.1822   10.6085   -3.2347 H   0  0  0  0  0  0  0  0  0  0  0  0
   -0.0158   11.3173   -4.4025 H   0  0  0  0  0  0  0  0  0  0  0  0
   -0.3235    9.5476   -4.4025 H   0  0  0  0  0  0  0  0  0  0  0  0
    1.8333   10.1410   -3.3266 H   0  0  0  0  0  0  0  0  0  0  0  0
    0.0567    8.2783   -2.4810 H   0  0  0  0  0  0  0  0  0  0  0  0
    1.7163    8.5408   -1.7603 H   0  0  0  0  0  0  0  0  0  0  0  0
    0.6830    8.6597    0.2092 H   0  0  0  0  0  0  0  0  0  0  0  0
    0.1201   10.2911   -0.3473 H   0  0  0  0  0  0  0  0  0  0  0  0
   -1.0783    8.0084    0.2908 H   0  0  0  0  0  0  0  0  0  0  0  0
   -2.2587   11.6748    0.0556 H   0  0  0  0  0  0  0  0  0  0  0  0
   -1.4003   11.3049   -1.4783 H   0  0  0  0  0  0  0  0  0  0  0  0
   -3.1823   11.5313   -1.4783 H   0  0  0  0  0  0  0  0  0  0  0  0
   -3.7976    9.2738    0.9952 H   0  0  0  0  0  0  0  0  0  0  0  0
   -4.6167    9.9565   -0.4504 H   0  0  0  0  0  0  0  0  0  0  0  0
   -4.0743    8.2440   -0.4504 H   0  0  0  0  0  0  0  0  0  0  0  0
   -0.0518   11.4931   -1.4778 H   0  0  0  0  0  0  0  0  0  0  0  0
    1.5925   10.9116    0.1938 H   0  0  0  0  0  0  0  0  0  0  0  0
    2.8297   10.5636   -1.0335 H   0  0  0  0  0  0  0  0  0  0  0  0
    2.7169   12.9103    0.5934 H   0  0  0  0  0  0  0  0  0  0  0  0
    3.7104   12.7580   -0.8532 H   0  0  0  0  0  0  0  0  0  0  0  0
    0.9055   13.8122    0.8154 H   0  0  0  0  0  0  0  0  0  0  0  0
    0.0919   14.8698   -0.3873 H   0  0  0  0  0  0  0  0  0  0  0  0
   -0.2236   13.1014   -0.3873 H   0  0  0  0  0  0  0  0  0  0  0  0
    3.2400   14.7044   -2.2184 H   0  0  0  0  0  0  0  0  0  0  0  0
    3.2009   15.2660    0.2952 H   0  0  0  0  0  0  0  0  0  0  0  0
    3.6699   16.5314   -0.9571 H   0  0  0  0  0  0  0  0  0  0  0  0
    2.1093   17.3511    1.0013 H   0  0  0  0  0  0  0  0  0  0  0  0
   -0.4677   15.9623   -1.7794 H   0  0  0  0  0  0  0  0  0  0  0  0
    0.6291   18.5753   -2.9902 H   0  0  0  0  0  0  0  0  0  0  0  0
   -0.5774   17.4429   -3.7468 H   0  0  0  0  0  0  0  0  0  0  0  0
   -1.6543   19.4553   -2.7921 H   0  0  0  0  0  0  0  0  0  0  0  0
   -2.1790   17.9250   -1.9865 H   0  0  0  0  0  0  0  0  0  0  0  0
   -1.8136   19.5972   -0.3036 H   0  0  0  0  0  0  0  0  0  0  0  0
   -0.3560   21.0560   -0.8580 H   0  0  0  0  0  0  0  0  0  0  0  0
   -1.5389   17.1450    1.7383 H   0  0  0  0  0  0  0  0  0  0  0  0
   -2.4658   17.5520    0.2545 H   0  0  0  0  0  0  0  0  0  0  0  0
   -1.3398   16.1524    0.2545 H   0  0  0  0  0  0  0  0  0  0  0  0
   -0.2129   18.2926    2.3423 H   0  0  0  0  0  0  0  0  0  0  0  0
    1.2668   18.7903    1.4538 H   0  0  0  0  0  0  0  0  0  0  0  0
   -0.1811   19.8535    1.4538 H   0  0  0  0  0  0  0  0  0  0  0  0
    3.0078   17.3772   -2.7510 H   0  0  0  0  0  0  0  0  0  0  0  0
    3.0779   16.1871   -4.0947 H   0  0  0  0  0  0  0  0  0  0  0  0
    1.8191   17.4685   -4.0947 H   0  0  0  0  0  0  0  0  0  0  0  0
   -0.1121   15.4598   -4.1442 H   0  0  0  0  0  0  0  0  0  0  0  0
    1.5446   14.7039   -4.4883 H   0  0  0  0  0  0  0  0  0  0  0  0
   -0.6032   13.6755   -2.6139 H   0  0  0  0  0  0  0  0  0  0  0  0
    0.0092   12.9334   -4.1439 H   0  0  0  0  0  0  0  0  0  0  0  0
    3.4861   12.3788   -2.8768 H   0  0  0  0  0  0  0  0  0  0  0  0
    2.3551   11.6947   -4.0930 H   0  0  0  0  0  0  0  0  0  0  0  0
    2.7172   13.4541   -4.0930 H   0  0  0  0  0  0  0  0  0  0  0  0
  1  2  1  0
  2  3  1  0
  3  4  1  0
  4  5  1  0
  5  6  1  0
  6  7  1  0
  7  8  1  0
  7  9  1  0
  2 10  1  0
 10 11  1  0
 11 12  1  0
 12 13  1  0
 13 14  1  1
 13 15  1  0
 15 16  1  0
 16 17  1  0
 17 18  2  0
 18 19  1  0
 19 20  1  0
 20 21  1  0
 21 22  1  0
 22 23  1  0
 22 24  1  0
 24 25  1  0
 24 26  1  0
 19 27  1  0
 27 28  1  6
 27 29  1  0
 29 30  1  0
 30 31  1  0
 31 32  1  6
  7  5  1  0
 31 10  1  0
 31 13  1  0
 27 15  1  0
 24 18  1  0
  1 33  1  0
  1 34  1  0
  1 35  1  0
  2 36  1  6
  3 37  1  0
  3 38  1  0
  4 39  1  0
  4 40  1  0
  5 41  1  1
  8 42  1  0
  8 43  1  0
  8 44  1  0
  9 45  1  0
  9 46  1  0
  9 47  1  0
 10 48  1  1
 11 49  1  0
 11 50  1  0
 12 51  1  0
 12 52  1  0
 14 53  1  0
 14 54  1  0
 14 55  1  0
 15 56  1  6
 16 57  1  0
 16 58  1  0
 17 59  1  0
 19 60  1  1
 20 61  1  0
 20 62  1  0
 21 63  1  0
 21 64  1  0
 22 65  1  1
 23 66  1  0
 25 67  1  0
 25 68  1  0
 25 69  1  0
 26 70  1  0
 26 71  1  0
 26 72  1  0
 28 73  1  0
 28 74  1  0
 28 75  1  0
 29 76  1  0
 29 77  1  0
 30 78  1  0
 30 79  1  0
 32 80  1  0
 32 81  1  0
 32 82  1  0
M  END
>  <meeko>  (7) 
{"is_sidechain": [false], "intermolecular_energy": 2.731, "internal_energy": -0.839}

$$$$
EPH_relaxed_0001_pdb2pqr_Repair_166_r2_0001_out
     RDKit          3D

 82 86  0  0  0  0  0  0  0  0999 V2000
    0.4230    8.8360   -2.3570 C   0  0  0  0  0  0  0  0  0  0  0  0
    1.1660    9.9780   -3.0560 C   0  0  2  0  0  0  0  0  0  0  0  0
    2.6670    9.9970   -2.7040 C   0  0  0  0  0  0  0  0  0  0  0  0
    3.5490   10.5920   -3.8040 C   0  0  0  0  0  0  0  0  0  0  0  0
    4.9520   10.8200   -3.3260 C   0  0  2  0  0  0  0  0  0  0  0  0
    5.5540   12.0340   -3.7960 O   0  0  0  0  0  0  0  0  0  0  0  0
    6.1600   10.8100   -4.2440 C   0  0  0  0  0  0  0  0  0  0  0  0
    6.0220   10.5650   -5.7140 C   0  0  0  0  0  0  0  0  0  0  0  0
    7.5090   10.5530   -3.6480 C   0  0  0  0  0  0  0  0  0  0  0  0
    0.5280   11.3140   -2.6890 C   0  0  1  0  0  0  0  0  0  0  0  0
   -0.8350   11.1470   -1.9670 C   0  0  0  0  0  0  0  0  0  0  0  0
   -0.9360   12.2950   -0.9310 C   0  0  0  0  0  0  0  0  0  0  0  0
    0.2030   13.2680   -1.3140 C   0  0  1  0  0  0  0  0  0  0  0  0
   -0.3710   14.1130   -2.4940 C   0  0  0  0  0  0  0  0  0  0  0  0
    0.7510   14.1770   -0.1660 C   0  0  2  0  0  0  0  0  0  0  0  0
   -0.2720   15.1560    0.4360 C   0  0  0  0  0  0  0  0  0  0  0  0
   -0.3320   16.4970   -0.2160 C   0  0  0  0  0  0  0  0  0  0  0  0
    0.5930   17.0020   -1.0540 C   0  0  0  0  0  0  0  0  0  0  0  0
    1.8920   16.2390   -1.3440 C   0  0  1  0  0  0  0  0  0  0  0  0
    3.0970   17.2110   -1.2450 C   0  0  0  0  0  0  0  0  0  0  0  0
    2.9310   18.4410   -2.1320 C   0  0  0  0  0  0  0  0  0  0  0  0
    1.6590   19.2050   -1.7740 C   0  0  2  0  0  0  0  0  0  0  0  0
    1.8060   19.7560   -0.4620 O   0  0  0  0  0  0  0  0  0  0  0  0
    0.3790   18.3240   -1.8300 C   0  0  0  0  0  0  0  0  0  0  0  0
    0.0520   17.9750   -3.3030 C   0  0  0  0  0  0  0  0  0  0  0  0
   -0.8100   19.1770   -1.3120 C   0  0  0  0  0  0  0  0  0  0  0  0
    2.1140   14.9050   -0.5100 C   0  0  1  0  0  0  0  0  0  0  0  0
    2.7970   15.2360    0.8520 C   0  0  0  0  0  0  0  0  0  0  0  0
    3.1110   13.9690   -1.2910 C   0  0  0  0  0  0  0  0  0  0  0  0
    2.4960   13.0090   -2.3270 C   0  0  0  0  0  0  0  0  0  0  0  0
    1.3170   12.2380   -1.7270 C   0  0  2  0  0  0  0  0  0  0  0  0
    1.8670   11.3610   -0.5510 C   0  0  0  0  0  0  0  0  0  0  0  0
    0.5033    8.9594   -1.2669 H   0  0  0  0  0  0  0  0  0  0  0  0
   -0.6368    8.8539   -2.6510 H   0  0  0  0  0  0  0  0  0  0  0  0
    0.8688    7.8743   -2.6510 H   0  0  0  0  0  0  0  0  0  0  0  0
    1.0840    9.8111   -4.1402 H   0  0  0  0  0  0  0  0  0  0  0  0
    2.8019   10.5938   -1.7898 H   0  0  0  0  0  0  0  0  0  0  0  0
    2.9796    8.9507   -2.5719 H   0  0  0  0  0  0  0  0  0  0  0  0
    3.5713    9.8984   -4.6575 H   0  0  0  0  0  0  0  0  0  0  0  0
    3.1240   11.5633   -4.0970 H   0  0  0  0  0  0  0  0  0  0  0  0
    4.7401   10.3001   -2.3801 H   0  0  0  0  0  0  0  0  0  0  0  0
    5.4883    9.6175   -5.8793 H   0  0  0  0  0  0  0  0  0  0  0  0
    5.4556   11.3895   -6.1716 H   0  0  0  0  0  0  0  0  0  0  0  0
    7.0207   10.5080   -6.1716 H   0  0  0  0  0  0  0  0  0  0  0  0
    7.4338   10.5673   -2.5507 H   0  0  0  0  0  0  0  0  0  0  0  0
    7.8741    9.5691   -3.9777 H   0  0  0  0  0  0  0  0  0  0  0  0
    8.2103   11.3337   -3.9777 H   0  0  0  0  0  0  0  0  0  0  0  0
    0.4703   11.7715   -3.6877 H   0  0  0  0  0  0  0  0  0  0  0  0
   -1.6590   11.2178   -2.6923 H   0  0  0  0  0  0  0  0  0  0  0  0
   -0.9042   10.1650   -1.4762 H   0  0  0  0  0  0  0  0  0  0  0  0
   -1.9133   12.7951   -0.9997 H   0  0  0  0  0  0  0  0  0  0  0  0
   -0.8444   11.9324    0.1035 H   0  0  0  0  0  0  0  0  0  0  0  0
   -0.9464   14.9601   -2.0924 H   0  0  0  0  0  0  0  0  0  0  0  0
    0.4574   14.4919   -3.1106 H   0  0  0  0  0  0  0  0  0  0  0  0
   -1.0285   13.4825   -3.1106 H   0  0  0  0  0  0  0  0  0  0  0  0
    0.9697   13.4477    0.6279 H   0  0  0  0  0  0  0  0  0  0  0  0
   -1.2683   14.6961    0.3594 H   0  0  0  0  0  0  0  0  0  0  0  0
    0.0522   15.3357    1.4717 H   0  0  0  0  0  0  0  0  0  0  0  0
   -1.2062   17.1264    0.0070 H   0  0  0  0  0  0  0  0  0  0  0  0
    1.7997   15.8627   -2.3735 H   0  0  0  0  0  0  0  0  0  0  0  0
    3.1992   17.5407   -0.2006 H   0  0  0  0  0  0  0  0  0  0  0  0
    3.9912   16.6701   -1.5882 H   0  0  0  0  0  0  0  0  0  0  0  0
    3.7989   19.1029   -1.9954 H   0  0  0  0  0  0  0  0  0  0  0  0
    2.8593   18.1113   -3.1790 H   0  0  0  0  0  0  0  0  0  0  0  0
    1.5278   19.9976   -2.5254 H   0  0  0  0  0  0  0  0  0  0  0  0
    1.6350   19.0440    0.1770 H   0  0  0  0  0  0  0  0  0  0  0  0
   -0.6999   17.1726   -3.3315 H   0  0  0  0  0  0  0  0  0  0  0  0
   -0.3436   18.8664   -3.8119 H   0  0  0  0  0  0  0  0  0  0  0  0
    0.9672   17.6382   -3.8119 H   0  0  0  0  0  0  0  0  0  0  0  0
   -0.8097   19.1768   -0.2120 H   0  0  0  0  0  0  0  0  0  0  0  0
   -0.7079   20.2091   -1.6785 H   0  0  0  0  0  0  0  0  0  0  0  0
   -1.7550   18.7496   -1.6785 H   0  0  0  0  0  0  0  0  0  0  0  0
    2.1424   14.9188    1.6771 H   0  0  0  0  0  0  0  0  0  0  0  0
    3.7569   14.7031    0.9199 H   0  0  0  0  0  0  0  0  0  0  0  0
    2.9735   16.3196    0.9199 H   0  0  0  0  0  0  0  0  0  0  0  0
    3.8280   14.6142   -1.8198 H   0  0  0  0  0  0  0  0  0  0  0  0
    3.5552   13.3179   -0.5237 H   0  0  0  0  0  0  0  0  0  0  0  0
    2.1432   13.5905   -3.1916 H   0  0  0  0  0  0  0  0  0  0  0  0
    3.2660   12.2872   -2.6370 H   0  0  0  0  0  0  0  0  0  0  0  0
    1.5821   11.8152    0.4095 H   0  0  0  0  0  0  0  0  0  0  0  0
    1.4416   10.3488   -0.6184 H   0  0  0  0  0  0  0  0  0  0  0  0
    2.9634   11.3032   -0.6184 H   0  0  0  0  0  0  0  0  0  0  0  0
  1  2  1  0
  2  3  1  0
  3  4  1  0
  4  5  1  0
  5  6  1  0
  6  7  1  0
  7  8  1  0
  7  9  1  0
  2 10  1  0
 10 11  1  0
 11 12  1  0
 12 13  1  0
 13 14  1  6
 13 15  1  0
 15 16  1  0
 16 17  1  0
 17 18  2  0
 18 19  1  0
 19 20  1  0
 20 21  1  0
 21 22  1  0
 22 23  1  0
 22 24  1  0
 24 25  1  0
 24 26  1  0
 19 27  1  0
 27 28  1  1
 27 29  1  0
 29 30  1  0
 30 31  1  0
 31 32  1  1
  7  5  1  0
 31 10  1  0
 31 13  1  0
 27 15  1  0
 24 18  1  0
  1 33  1  0
  1 34  1  0
  1 35  1  0
  2 36  1  6
  3 37  1  0
  3 38  1  0
  4 39  1  0
  4 40  1  0
  5 41  1  1
  8 42  1  0
  8 43  1  0
  8 44  1  0
  9 45  1  0
  9 46  1  0
  9 47  1  0
 10 48  1  6
 11 49  1  0
 11 50  1  0
 12 51  1  0
 12 52  1  0
 14 53  1  0
 14 54  1  0
 14 55  1  0
 15 56  1  1
 16 57  1  0
 16 58  1  0
 17 59  1  0
 19 60  1  6
 20 61  1  0
 20 62  1  0
 21 63  1  0
 21 64  1  0
 22 65  1  6
 23 66  1  0
 25 67  1  0
 25 68  1  0
 25 69  1  0
 26 70  1  0
 26 71  1  0
 26 72  1  0
 28 73  1  0
 28 74  1  0
 28 75  1  0
 29 76  1  0
 29 77  1  0
 30 78  1  0
 30 79  1  0
 32 80  1  0
 32 81  1  0
 32 82  1  0
M  END
>  <meeko>  (8) 
{"is_sidechain": [false], "intermolecular_energy": 2.731, "internal_energy": -0.839}

$$$$
EPH_relaxed_0001_pdb2pqr_Repair_166_r2_0001_out
     RDKit          3D

 82 86  0  0  0  0  0  0  0  0999 V2000
    3.2230   18.9030   -1.7550 C   0  0  0  0  0  0  0  0  0  0  0  0
    1.8120   18.9510   -1.1600 C   0  0  2  0  0  0  0  0  0  0  0  0
    1.7110   19.9450    0.0140 C   0  0  0  0  0  0  0  0  0  0  0  0
    2.2380   19.3890    1.3390 C   0  0  0  0  0  0  0  0  0  0  0  0
    3.7270   19.5230    1.4440 C   0  0  2  0  0  0  0  0  0  0  0  0
    4.3950   18.3750    1.9840 O   0  0  0  0  0  0  0  0  0  0  0  0
    4.4710   19.5790    2.7650 C   0  0  0  0  0  0  0  0  0  0  0  0
    3.7460   19.5030    4.0730 C   0  0  0  0  0  0  0  0  0  0  0  0
    5.8350   20.1940    2.7930 C   0  0  0  0  0  0  0  0  0  0  0  0
    1.3940   17.5590   -0.7010 C   0  0  1  0  0  0  0  0  0  0  0  0
    0.1140   17.5780    0.1760 C   0  0  0  0  0  0  0  0  0  0  0  0
   -0.6740   16.2850   -0.1550 C   0  0  0  0  0  0  0  0  0  0  0  0
    0.3240   15.4120   -0.9510 C   0  0  1  0  0  0  0  0  0  0  0  0
    1.2220   14.7380    0.1330 C   0  0  0  0  0  0  0  0  0  0  0  0
   -0.3010   14.3570   -1.9210 C   0  0  2  0  0  0  0  0  0  0  0  0
   -1.1540   13.2710   -1.2410 C   0  0  0  0  0  0  0  0  0  0  0  0
   -0.4130   12.0420   -0.8320 C   0  0  0  0  0  0  0  0  0  0  0  0
    0.8180   11.6940   -1.2510 C   0  0  0  0  0  0  0  0  0  0  0  0
    1.5550   12.5270   -2.3080 C   0  0  1  0  0  0  0  0  0  0  0  0
    2.1590   11.5840   -3.3820 C   0  0  0  0  0  0  0  0  0  0  0  0
    3.0420   10.4980   -2.7760 C   0  0  0  0  0  0  0  0  0  0  0  0
    2.2580    9.6540   -1.7740 C   0  0  2  0  0  0  0  0  0  0  0  0
    1.2540    8.9160   -2.4780 O   0  0  0  0  0  0  0  0  0  0  0  0
    1.5950   10.4970   -0.6490 C   0  0  0  0  0  0  0  0  0  0  0  0
    2.6880   11.0540    0.2970 C   0  0  0  0  0  0  0  0  0  0  0  0
    0.7210    9.5440    0.2100 C   0  0  0  0  0  0  0  0  0  0  0  0
    0.7290   13.7270   -2.9440 C   0  0  1  0  0  0  0  0  0  0  0  0
   -0.1060   13.2140   -4.1570 C   0  0  0  0  0  0  0  0  0  0  0  0
    1.7330   14.7960   -3.5170 C   0  0  0  0  0  0  0  0  0  0  0  0
    2.2220   15.8830   -2.5410 C   0  0  0  0  0  0  0  0  0  0  0  0
    1.0450   16.5230   -1.7990 C   0  0  2  0  0  0  0  0  0  0  0  0
    0.1360   17.2280   -2.8630 C   0  0  0  0  0  0  0  0  0  0  0  0
    3.9632   18.8778   -0.9417 H   0  0  0  0  0  0  0  0  0  0  0  0
    3.3289   18.0007   -2.3752 H   0  0  0  0  0  0  0  0  0  0  0  0
    3.3900   19.7960   -2.3752 H   0  0  0  0  0  0  0  0  0  0  0  0
    1.1314   19.3021   -1.9496 H   0  0  0  0  0  0  0  0  0  0  0  0
    2.2920   20.8436   -0.2410 H   0  0  0  0  0  0  0  0  0  0  0  0
    0.6426   20.1628    0.1594 H   0  0  0  0  0  0  0  0  0  0  0  0
    1.7712   19.9411    2.1680 H   0  0  0  0  0  0  0  0  0  0  0  0
    1.9861   18.3193    1.3861 H   0  0  0  0  0  0  0  0  0  0  0  0
    3.7552   20.1683    0.5536 H   0  0  0  0  0  0  0  0  0  0  0  0
    4.4694   19.5788    4.8982 H   0  0  0  0  0  0  0  0  0  0  0  0
    3.0244   20.3304    4.1408 H   0  0  0  0  0  0  0  0  0  0  0  0
    3.2116   18.5439    4.1408 H   0  0  0  0  0  0  0  0  0  0  0  0
    6.1515   20.3367    3.8368 H   0  0  0  0  0  0  0  0  0  0  0  0
    6.5472   19.5299    2.2814 H   0  0  0  0  0  0  0  0  0  0  0  0
    5.8089   21.1674    2.2814 H   0  0  0  0  0  0  0  0  0  0  0  0
    2.3113   17.2553   -0.1753 H   0  0  0  0  0  0  0  0  0  0  0  0
    0.3853   17.5939    1.2419 H   0  0  0  0  0  0  0  0  0  0  0  0
   -0.4918   18.4731   -0.0287 H   0  0  0  0  0  0  0  0  0  0  0  0
   -0.9867   15.7740    0.7676 H   0  0  0  0  0  0  0  0  0  0  0  0
   -1.5931   16.4909   -0.7232 H   0  0  0  0  0  0  0  0  0  0  0  0
    0.8569   15.0121    1.1338 H   0  0  0  0  0  0  0  0  0  0  0  0
    1.1819   13.6451    0.0146 H   0  0  0  0  0  0  0  0  0  0  0  0
    2.2602   15.0818    0.0146 H   0  0  0  0  0  0  0  0  0  0  0  0
   -1.0041   14.9644   -2.5098 H   0  0  0  0  0  0  0  0  0  0  0  0
   -1.6080   13.7098   -0.3403 H   0  0  0  0  0  0  0  0  0  0  0  0
   -1.8897   12.9472   -1.9919 H   0  0  0  0  0  0  0  0  0  0  0  0
   -0.9156   11.3624   -0.1280 H   0  0  0  0  0  0  0  0  0  0  0  0
    2.3624   13.0502   -1.7747 H   0  0  0  0  0  0  0  0  0  0  0  0
    1.3366   11.1036   -3.9323 H   0  0  0  0  0  0  0  0  0  0  0  0
    2.7883   12.1942   -4.0466 H   0  0  0  0  0  0  0  0  0  0  0  0
    3.4157    9.8473   -3.5803 H   0  0  0  0  0  0  0  0  0  0  0  0
    3.8799   10.9792   -2.2503 H   0  0  0  0  0  0  0  0  0  0  0  0
    2.9731    8.9797   -1.2802 H   0  0  0  0  0  0  0  0  0  0  0  0
    0.4650    8.8790   -1.9120 H   0  0  0  0  0  0  0  0  0  0  0  0
    2.3824   10.8983    1.3422 H   0  0  0  0  0  0  0  0  0  0  0  0
    3.6366   10.5294    0.1103 H   0  0  0  0  0  0  0  0  0  0  0  0
    2.8210   12.1298    0.1103 H   0  0  0  0  0  0  0  0  0  0  0  0
    0.9024    9.7418    1.2767 H   0  0  0  0  0  0  0  0  0  0  0  0
   -0.3413    9.7145   -0.0190 H   0  0  0  0  0  0  0  0  0  0  0  0
    0.9826    8.5004   -0.0190 H   0  0  0  0  0  0  0  0  0  0  0  0
   -0.9897   12.6711   -3.7905 H   0  0  0  0  0  0  0  0  0  0  0  0
   -0.4288   14.0698   -4.7681 H   0  0  0  0  0  0  0  0  0  0  0  0
    0.5115   12.5393   -4.7681 H   0  0  0  0  0  0  0  0  0  0  0  0
    2.6183   14.2571   -3.8856 H   0  0  0  0  0  0  0  0  0  0  0  0
    1.1674   15.3367   -4.2901 H   0  0  0  0  0  0  0  0  0  0  0  0
    2.9047   15.4280   -1.8083 H   0  0  0  0  0  0  0  0  0  0  0  0
    2.7401   16.6640   -3.1168 H   0  0  0  0  0  0  0  0  0  0  0  0
   -0.6332   17.8245   -2.3506 H   0  0  0  0  0  0  0  0  0  0  0  0
    0.7520   17.8869   -3.4927 H   0  0  0  0  0  0  0  0  0  0  0  0
   -0.3489   16.4675   -3.4927 H   0  0  0  0  0  0  0  0  0  0  0  0
  1  2  1  0
  2  3  1  0
  3  4  1  0
  4  5  1  0
  5  6  1  0
  6  7  1  0
  7  8  1  0
  7  9  1  0
  2 10  1  0
 10 11  1  0
 11 12  1  0
 12 13  1  0
 13 14  1  1
 13 15  1  0
 15 16  1  0
 16 17  1  0
 17 18  2  0
 18 19  1  0
 19 20  1  0
 20 21  1  0
 21 22  1  0
 22 23  1  0
 22 24  1  0
 24 25  1  0
 24 26  1  0
 19 27  1  0
 27 28  1  6
 27 29  1  0
 29 30  1  0
 30 31  1  0
 31 32  1  6
  7  5  1  0
 31 10  1  0
 31 13  1  0
 27 15  1  0
 24 18  1  0
  1 33  1  0
  1 34  1  0
  1 35  1  0
  2 36  1  6
  3 37  1  0
  3 38  1  0
  4 39  1  0
  4 40  1  0
  5 41  1  6
  8 42  1  0
  8 43  1  0
  8 44  1  0
  9 45  1  0
  9 46  1  0
  9 47  1  0
 10 48  1  1
 11 49  1  0
 11 50  1  0
 12 51  1  0
 12 52  1  0
 14 53  1  0
 14 54  1  0
 14 55  1  0
 15 56  1  6
 16 57  1  0
 16 58  1  0
 17 59  1  0
 19 60  1  1
 20 61  1  0
 20 62  1  0
 21 63  1  0
 21 64  1  0
 22 65  1  1
 23 66  1  0
 25 67  1  0
 25 68  1  0
 25 69  1  0
 26 70  1  0
 26 71  1  0
 26 72  1  0
 28 73  1  0
 28 74  1  0
 28 75  1  0
 29 76  1  0
 29 77  1  0
 30 78  1  0
 30 79  1  0
 32 80  1  0
 32 81  1  0
 32 82  1  0
M  END
>  <meeko>  (9) 
{"is_sidechain": [false], "intermolecular_energy": 2.731, "internal_energy": -0.839}

$$$$
EPH_relaxed_0001_pdb2pqr_Repair_166_r2_0001_out
     RDKit          3D

 82 86  0  0  0  0  0  0  0  0999 V2000
    0.1340   17.7910   -2.5280 C   0  0  0  0  0  0  0  0  0  0  0  0
   -0.1240   16.8870   -1.3190 C   0  0  2  0  0  0  0  0  0  0  0  0
   -0.1810   17.6840   -0.0000 C   0  0  0  0  0  0  0  0  0  0  0  0
    0.4450   19.0780   -0.0950 C   0  0  0  0  0  0  0  0  0  0  0  0
    1.6030   19.2300    0.8440 C   0  0  2  0  0  0  0  0  0  0  0  0
    2.5830   20.1940    0.4340 O   0  0  0  0  0  0  0  0  0  0  0  0
    3.0230   18.8270    0.4930 C   0  0  0  0  0  0  0  0  0  0  0  0
    3.3600   18.2380   -0.8410 C   0  0  0  0  0  0  0  0  0  0  0  0
    3.9840   18.5510    1.6070 C   0  0  0  0  0  0  0  0  0  0  0  0
    0.9560   15.8150   -1.2330 C   0  0  1  0  0  0  0  0  0  0  0  0
    1.1550   15.2810    0.2110 C   0  0  0  0  0  0  0  0  0  0  0  0
    1.5000   13.7750    0.0880 C   0  0  0  0  0  0  0  0  0  0  0  0
    1.8150   13.5680   -1.4120 C   0  0  1  0  0  0  0  0  0  0  0  0
    3.2900   14.0500   -1.5830 C   0  0  0  0  0  0  0  0  0  0  0  0
    1.6120   12.1210   -1.9670 C   0  0  2  0  0  0  0  0  0  0  0  0
    2.5130   11.0470   -1.3330 C   0  0  0  0  0  0  0  0  0  0  0  0
    3.8210   10.8250   -2.0200 C   0  0  0  0  0  0  0  0  0  0  0  0
    4.1370   11.2520   -3.2560 C   0  0  0  0  0  0  0  0  0  0  0  0
    3.0960   11.9540   -4.1380 C   0  0  1  0  0  0  0  0  0  0  0  0
    3.1360   11.3500   -5.5660 C   0  0  0  0  0  0  0  0  0  0  0  0
    4.5340   11.3830   -6.1760 C   0  0  0  0  0  0  0  0  0  0  0  0
    5.5290   10.6260   -5.3000 C   0  0  2  0  0  0  0  0  0  0  0  0
    5.1900    9.2360   -5.3140 O   0  0  0  0  0  0  0  0  0  0  0  0
    5.5690   11.1390   -3.8340 C   0  0  0  0  0  0  0  0  0  0  0  0
    6.2220   12.5430   -3.7920 C   0  0  0  0  0  0  0  0  0  0  0  0
    6.5050   10.2010   -3.0250 C   0  0  0  0  0  0  0  0  0  0  0  0
    1.6220   12.0250   -3.5470 C   0  0  1  0  0  0  0  0  0  0  0  0
    0.8360   10.7310   -3.9200 C   0  0  0  0  0  0  0  0  0  0  0  0
    0.8550   13.2220   -4.2240 C   0  0  0  0  0  0  0  0  0  0  0  0
    0.9990   14.6040   -3.5590 C   0  0  0  0  0  0  0  0  0  0  0  0
    0.7380   14.5180   -2.0520 C   0  0  2  0  0  0  0  0  0  0  0  0
   -0.7460   14.0570   -1.8490 C   0  0  0  0  0  0  0  0  0  0  0  0
    0.4205   18.7947   -2.1808 H   0  0  0  0  0  0  0  0  0  0  0  0
    0.9471   17.3673   -3.1358 H   0  0  0  0  0  0  0  0  0  0  0  0
   -0.7802   17.8603   -3.1358 H   0  0  0  0  0  0  0  0  0  0  0  0
   -1.1070   16.4146   -1.4621 H   0  0  0  0  0  0  0  0  0  0  0  0
   -1.2354   17.7962    0.2926 H   0  0  0  0  0  0  0  0  0  0  0  0
    0.4030   17.1195    0.7419 H   0  0  0  0  0  0  0  0  0  0  0  0
    0.7967   19.2416   -1.1243 H   0  0  0  0  0  0  0  0  0  0  0  0
   -0.3207   19.8177    0.1818 H   0  0  0  0  0  0  0  0  0  0  0  0
    0.9632   18.9995    1.7086 H   0  0  0  0  0  0  0  0  0  0  0  0
    3.9016   17.2914   -0.6976 H   0  0  0  0  0  0  0  0  0  0  0  0
    2.4335   18.0488   -1.4029 H   0  0  0  0  0  0  0  0  0  0  0  0
    3.9926   18.9409   -1.4029 H   0  0  0  0  0  0  0  0  0  0  0  0
    3.4776   18.6964    2.5726 H   0  0  0  0  0  0  0  0  0  0  0  0
    4.3424   17.5136    1.5335 H   0  0  0  0  0  0  0  0  0  0  0  0
    4.8382   19.2401    1.5335 H   0  0  0  0  0  0  0  0  0  0  0  0
    1.8077   16.3793   -1.6407 H   0  0  0  0  0  0  0  0  0  0  0  0
    1.9783   15.8191    0.7036 H   0  0  0  0  0  0  0  0  0  0  0  0
    0.2481   15.4301    0.8154 H   0  0  0  0  0  0  0  0  0  0  0  0
    2.3747   13.5252    0.7065 H   0  0  0  0  0  0  0  0  0  0  0  0
    0.6796   13.1295    0.4349 H   0  0  0  0  0  0  0  0  0  0  0  0
    3.7444   14.1985   -0.5923 H   0  0  0  0  0  0  0  0  0  0  0  0
    3.8614   13.2918   -2.1386 H   0  0  0  0  0  0  0  0  0  0  0  0
    3.3035   14.9993   -2.1386 H   0  0  0  0  0  0  0  0  0  0  0  0
    0.5889   11.8842   -1.6396 H   0  0  0  0  0  0  0  0  0  0  0  0
    2.7207   11.3468   -0.2952 H   0  0  0  0  0  0  0  0  0  0  0  0
    1.9610   10.0991   -1.4155 H   0  0  0  0  0  0  0  0  0  0  0  0
    4.5907   10.2651   -1.4686 H   0  0  0  0  0  0  0  0  0  0  0  0
    3.3905   13.0133   -4.1722 H   0  0  0  0  0  0  0  0  0  0  0  0
    2.7975   10.3046   -5.5163 H   0  0  0  0  0  0  0  0  0  0  0  0
    2.4786   11.9584   -6.2045 H   0  0  0  0  0  0  0  0  0  0  0  0
    4.5035   10.9167   -7.1718 H   0  0  0  0  0  0  0  0  0  0  0  0
    4.8594   12.4310   -6.2521 H   0  0  0  0  0  0  0  0  0  0  0  0
    6.5322   10.7950   -5.7184 H   0  0  0  0  0  0  0  0  0  0  0  0
    5.1450    8.9350   -4.3910 H   0  0  0  0  0  0  0  0  0  0  0  0
    6.3647   12.8498   -2.7453 H   0  0  0  0  0  0  0  0  0  0  0  0
    7.1969   12.5093   -4.3004 H   0  0  0  0  0  0  0  0  0  0  0  0
    5.5681   13.2669   -4.3004 H   0  0  0  0  0  0  0  0  0  0  0  0
    6.3443   10.3620   -1.9488 H   0  0  0  0  0  0  0  0  0  0  0  0
    6.2812    9.1538   -3.2765 H   0  0  0  0  0  0  0  0  0  0  0  0
    7.5527   10.4226   -3.2765 H   0  0  0  0  0  0  0  0  0  0  0  0
    0.5224   10.2147   -3.0007 H   0  0  0  0  0  0  0  0  0  0  0  0
   -0.0521   10.9990   -4.5112 H   0  0  0  0  0  0  0  0  0  0  0  0
    1.4832   10.0665   -4.5112 H   0  0  0  0  0  0  0  0  0  0  0  0
    1.2215   13.3101   -5.2574 H   0  0  0  0  0  0  0  0  0  0  0  0
   -0.2116   12.9686   -4.1332 H   0  0  0  0  0  0  0  0  0  0  0  0
    2.0194   14.9792   -3.7265 H   0  0  0  0  0  0  0  0  0  0  0  0
    0.2596   15.2859   -4.0043 H   0  0  0  0  0  0  0  0  0  0  0  0
   -0.9649   13.9890   -0.7732 H   0  0  0  0  0  0  0  0  0  0  0  0
   -1.4238   14.7869   -2.3157 H   0  0  0  0  0  0  0  0  0  0  0  0
   -0.8909   13.0715   -2.3157 H   0  0  0  0  0  0  0  0  0  0  0  0
  1  2  1  0
  2  3  1  0
  3  4  1  0
  4  5  1  0
  5  6  1  0
  6  7  1  0
  7  8  1  0
  7  9  1  0
  2 10  1  0
 10 11  1  0
 11 12  1  0
 12 13  1  0
 13 14  1  1
 13 15  1  0
 15 16  1  0
 16 17  1  0
 17 18  2  0
 18 19  1  0
 19 20  1  0
 20 21  1  0
 21 22  1  0
 22 23  1  0
 22 24  1  0
 24 25  1  0
 24 26  1  0
 19 27  1  0
 27 28  1  1
 27 29  1  0
 29 30  1  0
 30 31  1  0
 31 32  1  6
  7  5  1  0
 31 10  1  0
 31 13  1  0
 27 15  1  0
 24 18  1  0
  1 33  1  0
  1 34  1  0
  1 35  1  0
  2 36  1  6
  3 37  1  0
  3 38  1  0
  4 39  1  0
  4 40  1  0
  5 41  1  1
  8 42  1  0
  8 43  1  0
  8 44  1  0
  9 45  1  0
  9 46  1  0
  9 47  1  0
 10 48  1  6
 11 49  1  0
 11 50  1  0
 12 51  1  0
 12 52  1  0
 14 53  1  0
 14 54  1  0
 14 55  1  0
 15 56  1  1
 16 57  1  0
 16 58  1  0
 17 59  1  0
 19 60  1  6
 20 61  1  0
 20 62  1  0
 21 63  1  0
 21 64  1  0
 22 65  1  6
 23 66  1  0
 25 67  1  0
 25 68  1  0
 25 69  1  0
 26 70  1  0
 26 71  1  0
 26 72  1  0
 28 73  1  0
 28 74  1  0
 28 75  1  0
 29 76  1  0
 29 77  1  0
 30 78  1  0
 30 79  1  0
 32 80  1  0
 32 81  1  0
 32 82  1  0
M  END
>  <meeko>  (10) 
{"is_sidechain": [false], "intermolecular_energy": 2.731, "internal_energy": -0.839}

$$$$
EPH_relaxed_0001_pdb2pqr_Repair_166_r2_0001_out
     RDKit          3D

 82 86  0  0  0  0  0  0  0  0999 V2000
   -0.9230   16.3920   -5.8600 C   0  0  0  0  0  0  0  0  0  0  0  0
    0.1720   15.6950   -6.6730 C   0  0  2  0  0  0  0  0  0  0  0  0
   -0.2330   15.5040   -8.1490 C   0  0  0  0  0  0  0  0  0  0  0  0
    0.4230   16.5070   -9.1010 C   0  0  0  0  0  0  0  0  0  0  0  0
    1.8320   16.1170   -9.4310 C   0  0  2  0  0  0  0  0  0  0  0  0
    2.3400   16.6790  -10.6490 O   0  0  0  0  0  0  0  0  0  0  0  0
    2.2040   15.2490  -10.6190 C   0  0  0  0  0  0  0  0  0  0  0  0
    1.1630   14.7170  -11.5530 C   0  0  0  0  0  0  0  0  0  0  0  0
    3.5110   14.5200  -10.5920 C   0  0  0  0  0  0  0  0  0  0  0  0
    0.5060   14.3460   -6.0460 C   0  0  1  0  0  0  0  0  0  0  0  0
    1.7300   13.6650   -6.7120 C   0  0  0  0  0  0  0  0  0  0  0  0
    2.4850   12.9060   -5.5900 C   0  0  0  0  0  0  0  0  0  0  0  0
    1.5030   12.8980   -4.3950 C   0  0  1  0  0  0  0  0  0  0  0  0
    0.5160   11.7270   -4.6960 C   0  0  0  0  0  0  0  0  0  0  0  0
    2.1430   12.7640   -2.9750 C   0  0  2  0  0  0  0  0  0  0  0  0
    2.9090   11.4530   -2.7260 C   0  0  0  0  0  0  0  0  0  0  0  0
    2.0970   10.3370   -2.1580 C   0  0  0  0  0  0  0  0  0  0  0  0
    0.8810   10.4630   -1.5950 C   0  0  0  0  0  0  0  0  0  0  0  0
    0.2430   11.8450   -1.3990 C   0  0  1  0  0  0  0  0  0  0  0  0
   -0.3320   11.9500    0.0380 C   0  0  0  0  0  0  0  0  0  0  0  0
   -1.2930   10.8110    0.3690 C   0  0  0  0  0  0  0  0  0  0  0  0
   -0.6050    9.4570    0.2180 C   0  0  2  0  0  0  0  0  0  0  0  0
    0.4100    9.3410    1.2210 O   0  0  0  0  0  0  0  0  0  0  0  0
    0.0220    9.2410   -1.1870 C   0  0  0  0  0  0  0  0  0  0  0  0
   -1.1030    9.0650   -2.2370 C   0  0  0  0  0  0  0  0  0  0  0  0
    0.8040    7.9000   -1.1600 C   0  0  0  0  0  0  0  0  0  0  0  0
    1.1520   13.0890   -1.7850 C   0  0  1  0  0  0  0  0  0  0  0  0
    2.0380   13.4990   -0.5680 C   0  0  0  0  0  0  0  0  0  0  0  0
    0.2270   14.3250   -2.0960 C   0  0  0  0  0  0  0  0  0  0  0  0
   -0.2750   14.4680   -3.5460 C   0  0  0  0  0  0  0  0  0  0  0  0
    0.8800   14.3340   -4.5430 C   0  0  2  0  0  0  0  0  0  0  0  0
    1.8780   15.5120   -4.2790 C   0  0  0  0  0  0  0  0  0  0  0  0
   -0.7207   16.2633   -4.7864 H   0  0  0  0  0  0  0  0  0  0  0  0
   -0.9351   17.4643   -6.1048 H   0  0  0  0  0  0  0  0  0  0  0  0
   -1.8996   15.9490   -6.1048 H   0  0  0  0  0  0  0  0  0  0  0  0
    1.0604   16.3434   -6.6556 H   0  0  0  0  0  0  0  0  0  0  0  0
    0.0563   14.4893   -8.4601 H   0  0  0  0  0  0  0  0  0  0  0  0
   -1.3192   15.6671   -8.2083 H   0  0  0  0  0  0  0  0  0  0  0  0
   -0.1621   16.5508  -10.0314 H   0  0  0  0  0  0  0  0  0  0  0  0
    0.4459   17.4879   -8.6036 H   0  0  0  0  0  0  0  0  0  0  0  0
    2.0898   16.0564   -8.3633 H   0  0  0  0  0  0  0  0  0  0  0  0
    0.3315   14.2921  -10.9716 H   0  0  0  0  0  0  0  0  0  0  0  0
    0.7874   15.5337  -12.1870 H   0  0  0  0  0  0  0  0  0  0  0  0
    1.6048   13.9342  -12.1870 H   0  0  0  0  0  0  0  0  0  0  0  0
    3.8148   14.3505   -9.5485 H   0  0  0  0  0  0  0  0  0  0  0  0
    3.4018   13.5525  -11.1038 H   0  0  0  0  0  0  0  0  0  0  0  0
    4.2768   15.1212  -11.1038 H   0  0  0  0  0  0  0  0  0  0  0  0
   -0.4526   13.8287   -6.1992 H   0  0  0  0  0  0  0  0  0  0  0  0
    1.3958   12.9601   -7.4876 H   0  0  0  0  0  0  0  0  0  0  0  0
    2.3820   14.4085   -7.1938 H   0  0  0  0  0  0  0  0  0  0  0  0
    2.7201   11.8790   -5.9063 H   0  0  0  0  0  0  0  0  0  0  0  0
    3.4447   13.3809   -5.3380 H   0  0  0  0  0  0  0  0  0  0  0  0
    0.1552   11.2990   -3.7491 H   0  0  0  0  0  0  0  0  0  0  0  0
   -0.3382   12.1072   -5.2755 H   0  0  0  0  0  0  0  0  0  0  0  0
    1.0353   10.9495   -5.2755 H   0  0  0  0  0  0  0  0  0  0  0  0
    2.9043   13.5580   -2.9829 H   0  0  0  0  0  0  0  0  0  0  0  0
    3.3256   11.1153   -3.6864 H   0  0  0  0  0  0  0  0  0  0  0  0
    3.6741   11.6868   -1.9711 H   0  0  0  0  0  0  0  0  0  0  0  0
    2.5287    9.3263   -2.2033 H   0  0  0  0  0  0  0  0  0  0  0  0
   -0.5732   11.9106   -2.1335 H   0  0  0  0  0  0  0  0  0  0  0  0
    0.5025   11.9265    0.7542 H   0  0  0  0  0  0  0  0  0  0  0  0
   -0.8959   12.8922    0.1038 H   0  0  0  0  0  0  0  0  0  0  0  0
   -1.6420   10.9240    1.4060 H   0  0  0  0  0  0  0  0  0  0  0  0
   -2.1423   10.8536   -0.3288 H   0  0  0  0  0  0  0  0  0  0  0  0
   -1.3749    8.6809    0.3399 H   0  0  0  0  0  0  0  0  0  0  0  0
   -0.0080    8.9800    2.0210 H   0  0  0  0  0  0  0  0  0  0  0  0
   -2.0639    8.9147   -1.7231 H   0  0  0  0  0  0  0  0  0  0  0  0
   -1.1608    9.9650   -2.8668 H   0  0  0  0  0  0  0  0  0  0  0  0
   -0.8832    8.1903   -2.8668 H   0  0  0  0  0  0  0  0  0  0  0  0
    0.9796    7.5989   -0.1167 H   0  0  0  0  0  0  0  0  0  0  0  0
    0.2174    7.1231   -1.6721 H   0  0  0  0  0  0  0  0  0  0  0  0
    1.7691    8.0280   -1.6721 H   0  0  0  0  0  0  0  0  0  0  0  0
    1.5121   13.2556    0.3670 H   0  0  0  0  0  0  0  0  0  0  0  0
    2.9905   12.9501   -0.6065 H   0  0  0  0  0  0  0  0  0  0  0  0
    2.2361   14.5803   -0.6065 H   0  0  0  0  0  0  0  0  0  0  0  0
   -0.6557   14.2529   -1.4435 H   0  0  0  0  0  0  0  0  0  0  0  0
    0.8579   15.2088   -1.9207 H   0  0  0  0  0  0  0  0  0  0  0  0
   -1.0179   13.6824   -3.7485 H   0  0  0  0  0  0  0  0  0  0  0  0
   -0.7257   15.4645   -3.6639 H   0  0  0  0  0  0  0  0  0  0  0  0
    1.9986   15.6544   -3.1949 H   0  0  0  0  0  0  0  0  0  0  0  0
    2.8534   15.2739   -4.7283 H   0  0  0  0  0  0  0  0  0  0  0  0
    1.4828   16.4350   -4.7283 H   0  0  0  0  0  0  0  0  0  0  0  0
  1  2  1  0
  2  3  1  0
  3  4  1  0
  4  5  1  0
  5  6  1  0
  6  7  1  0
  7  8  1  0
  7  9  1  0
  2 10  1  0
 10 11  1  0
 11 12  1  0
 12 13  1  0
 13 14  1  6
 13 15  1  0
 15 16  1  0
 16 17  1  0
 17 18  2  0
 18 19  1  0
 19 20  1  0
 20 21  1  0
 21 22  1  0
 22 23  1  0
 22 24  1  0
 24 25  1  0
 24 26  1  0
 19 27  1  0
 27 28  1  1
 27 29  1  0
 29 30  1  0
 30 31  1  0
 31 32  1  6
  7  5  1  0
 31 10  1  0
 31 13  1  0
 27 15  1  0
 24 18  1  0
  1 33  1  0
  1 34  1  0
  1 35  1  0
  2 36  1  6
  3 37  1  0
  3 38  1  0
  4 39  1  0
  4 40  1  0
  5 41  1  1
  8 42  1  0
  8 43  1  0
  8 44  1  0
  9 45  1  0
  9 46  1  0
  9 47  1  0
 10 48  1  1
 11 49  1  0
 11 50  1  0
 12 51  1  0
 12 52  1  0
 14 53  1  0
 14 54  1  0
 14 55  1  0
 15 56  1  6
 16 57  1  0
 16 58  1  0
 17 59  1  0
 19 60  1  6
 20 61  1  0
 20 62  1  0
 21 63  1  0
 21 64  1  0
 22 65  1  1
 23 66  1  0
 25 67  1  0
 25 68  1  0
 25 69  1  0
 26 70  1  0
 26 71  1  0
 26 72  1  0
 28 73  1  0
 28 74  1  0
 28 75  1  0
 29 76  1  0
 29 77  1  0
 30 78  1  0
 30 79  1  0
 32 80  1  0
 32 81  1  0
 32 82  1  0
M  END
>  <meeko>  (11) 
{"is_sidechain": [false], "intermolecular_energy": 2.731, "internal_energy": -0.839}

$$$$
EPH_relaxed_0001_pdb2pqr_Repair_166_r2_0001_out
     RDKit          3D

 82 86  0  0  0  0  0  0  0  0999 V2000
   -4.1070    7.3580   -3.6030 C   0  0  0  0  0  0  0  0  0  0  0  0
   -3.7220    7.2510   -2.1250 C   0  0  2  0  0  0  0  0  0  0  0  0
   -4.9000    6.7740   -1.2510 C   0  0  0  0  0  0  0  0  0  0  0  0
   -6.1620    6.4360   -2.0510 C   0  0  0  0  0  0  0  0  0  0  0  0
   -7.3610    6.3020   -1.1620 C   0  0  2  0  0  0  0  0  0  0  0  0
   -8.4610    5.5900   -1.7450 O   0  0  0  0  0  0  0  0  0  0  0  0
   -8.6910    6.9770   -1.4440 C   0  0  0  0  0  0  0  0  0  0  0  0
   -8.8880    7.8370   -2.6530 C   0  0  0  0  0  0  0  0  0  0  0  0
   -9.6370    7.1980   -0.3050 C   0  0  0  0  0  0  0  0  0  0  0  0
   -3.2120    8.5960   -1.6220 C   0  0  1  0  0  0  0  0  0  0  0  0
   -3.8760    9.0260   -0.2870 C   0  0  0  0  0  0  0  0  0  0  0  0
   -2.7950    9.7810    0.5280 C   0  0  0  0  0  0  0  0  0  0  0  0
   -1.6600   10.0510   -0.4870 C   0  0  1  0  0  0  0  0  0  0  0  0
   -2.1230   11.3130   -1.2810 C   0  0  0  0  0  0  0  0  0  0  0  0
   -0.2280   10.2400    0.1120 C   0  0  2  0  0  0  0  0  0  0  0  0
   -0.0680   11.4480    1.0510 C   0  0  0  0  0  0  0  0  0  0  0  0
    0.3470   12.7200    0.3890 C   0  0  0  0  0  0  0  0  0  0  0  0
    0.8560   12.8260   -0.8530 C   0  0  0  0  0  0  0  0  0  0  0  0
    1.1510   11.5760   -1.6920 C   0  0  1  0  0  0  0  0  0  0  0  0
    2.5600   11.7020   -2.3300 C   0  0  0  0  0  0  0  0  0  0  0  0
    2.7280   12.9930   -3.1260 C   0  0  0  0  0  0  0  0  0  0  0  0
    2.4830   14.2140   -2.2430 C   0  0  2  0  0  0  0  0  0  0  0  0
    3.5210   14.2880   -1.2610 O   0  0  0  0  0  0  0  0  0  0  0  0
    1.0980   14.1930   -1.5390 C   0  0  0  0  0  0  0  0  0  0  0  0
   -0.0210   14.4160   -2.5860 C   0  0  0  0  0  0  0  0  0  0  0  0
    1.0360   15.4060   -0.5720 C   0  0  0  0  0  0  0  0  0  0  0  0
    0.9350   10.1820   -0.9590 C   0  0  1  0  0  0  0  0  0  0  0  0
    2.2300    9.7800   -0.1890 C   0  0  0  0  0  0  0  0  0  0  0  0
    0.6970    9.0640   -2.0420 C   0  0  0  0  0  0  0  0  0  0  0  0
   -0.7560    8.8440   -2.5060 C   0  0  0  0  0  0  0  0  0  0  0  0
   -1.6990    8.7100   -1.3070 C   0  0  2  0  0  0  0  0  0  0  0  0
   -1.2720    7.4370   -0.5010 C   0  0  0  0  0  0  0  0  0  0  0  0
   -5.1638    7.6517   -3.6863 H   0  0  0  0  0  0  0  0  0  0  0  0
   -3.4764    8.1149   -4.0923 H   0  0  0  0  0  0  0  0  0  0  0  0
   -3.9574    6.3842   -4.0923 H   0  0  0  0  0  0  0  0  0  0  0  0
   -2.9248    6.4974   -2.0446 H   0  0  0  0  0  0  0  0  0  0  0  0
   -4.5842    5.8737   -0.7035 H   0  0  0  0  0  0  0  0  0  0  0  0
   -5.1585    7.6048   -0.5780 H   0  0  0  0  0  0  0  0  0  0  0  0
   -6.3470    7.2378   -2.7810 H   0  0  0  0  0  0  0  0  0  0  0  0
   -6.0002    5.4728   -2.5569 H   0  0  0  0  0  0  0  0  0  0  0  0
   -6.7237    6.2735   -0.2659 H   0  0  0  0  0  0  0  0  0  0  0  0
   -9.1233    8.8643   -2.3378 H   0  0  0  0  0  0  0  0  0  0  0  0
   -7.9673    7.8399   -3.2549 H   0  0  0  0  0  0  0  0  0  0  0  0
   -9.7182    7.4388   -3.2549 H   0  0  0  0  0  0  0  0  0  0  0  0
   -9.1003    7.0726    0.6470 H   0  0  0  0  0  0  0  0  0  0  0  0
  -10.0486    8.2165   -0.3625 H   0  0  0  0  0  0  0  0  0  0  0  0
  -10.4572    6.4673   -0.3625 H   0  0  0  0  0  0  0  0  0  0  0  0
   -3.4646    9.2246   -2.4887 H   0  0  0  0  0  0  0  0  0  0  0  0
   -4.7317    9.6881   -0.4857 H   0  0  0  0  0  0  0  0  0  0  0  0
   -4.2498    8.1525    0.2673 H   0  0  0  0  0  0  0  0  0  0  0  0
   -3.1959   10.7261    0.9230 H   0  0  0  0  0  0  0  0  0  0  0  0
   -2.4486    9.2033    1.3976 H   0  0  0  0  0  0  0  0  0  0  0  0
   -2.4134   12.1045   -0.5745 H   0  0  0  0  0  0  0  0  0  0  0  0
   -1.2977   11.6712   -1.9140 H   0  0  0  0  0  0  0  0  0  0  0  0
   -2.9841   11.0525   -1.9140 H   0  0  0  0  0  0  0  0  0  0  0  0
   -0.1193    9.3501    0.7494 H   0  0  0  0  0  0  0  0  0  0  0  0
   -1.0339   11.6227    1.5476 H   0  0  0  0  0  0  0  0  0  0  0  0
    0.7441   11.1877    1.7458 H   0  0  0  0  0  0  0  0  0  0  0  0
    0.2268   13.6496    0.9647 H   0  0  0  0  0  0  0  0  0  0  0  0
    0.3848   11.5507   -2.4808 H   0  0  0  0  0  0  0  0  0  0  0  0
    3.3132   11.6812   -1.5286 H   0  0  0  0  0  0  0  0  0  0  0  0
    2.6876   10.8607   -3.0271 H   0  0  0  0  0  0  0  0  0  0  0  0
    3.7513   13.0382   -3.5270 H   0  0  0  0  0  0  0  0  0  0  0  0
    1.9935   12.9988   -3.9449 H   0  0  0  0  0  0  0  0  0  0  0  0
    2.4893   15.0996   -2.8954 H   0  0  0  0  0  0  0  0  0  0  0  0
    4.1770   14.9340   -1.5740 H   0  0  0  0  0  0  0  0  0  0  0  0
   -0.9736   14.6058   -2.0698 H   0  0  0  0  0  0  0  0  0  0  0  0
    0.2334   15.2811   -3.2160 H   0  0  0  0  0  0  0  0  0  0  0  0
   -0.1177   13.5195   -3.2160 H   0  0  0  0  0  0  0  0  0  0  0  0
    1.0543   15.0474    0.4677 H   0  0  0  0  0  0  0  0  0  0  0  0
    1.9018   16.0609   -0.7493 H   0  0  0  0  0  0  0  0  0  0  0  0
    0.1079   15.9692   -0.7493 H   0  0  0  0  0  0  0  0  0  0  0  0
    2.0454    9.8373    0.8939 H   0  0  0  0  0  0  0  0  0  0  0  0
    2.5128    8.7518   -0.4589 H   0  0  0  0  0  0  0  0  0  0  0  0
    3.0453   10.4673   -0.4589 H   0  0  0  0  0  0  0  0  0  0  0  0
    1.2931    9.3270   -2.9283 H   0  0  0  0  0  0  0  0  0  0  0  0
    0.9885    8.1228   -1.5529 H   0  0  0  0  0  0  0  0  0  0  0  0
   -1.0720    9.7013   -3.1185 H   0  0  0  0  0  0  0  0  0  0  0  0
   -0.8002    7.9148   -3.0930 H   0  0  0  0  0  0  0  0  0  0  0  0
   -1.3418    7.6450    0.5769 H   0  0  0  0  0  0  0  0  0  0  0  0
   -1.9387    6.6003   -0.7569 H   0  0  0  0  0  0  0  0  0  0  0  0
   -0.2356    7.1715   -0.7569 H   0  0  0  0  0  0  0  0  0  0  0  0
  1  2  1  0
  2  3  1  0
  3  4  1  0
  4  5  1  0
  5  6  1  0
  6  7  1  0
  7  8  1  0
  7  9  1  0
  2 10  1  0
 10 11  1  0
 11 12  1  0
 12 13  1  0
 13 14  1  6
 13 15  1  0
 15 16  1  0
 16 17  1  0
 17 18  2  0
 18 19  1  0
 19 20  1  0
 20 21  1  0
 21 22  1  0
 22 23  1  0
 22 24  1  0
 24 25  1  0
 24 26  1  0
 19 27  1  0
 27 28  1  1
 27 29  1  0
 29 30  1  0
 30 31  1  0
 31 32  1  1
  7  5  1  0
 31 10  1  0
 31 13  1  0
 27 15  1  0
 24 18  1  0
  1 33  1  0
  1 34  1  0
  1 35  1  0
  2 36  1  6
  3 37  1  0
  3 38  1  0
  4 39  1  0
  4 40  1  0
  5 41  1  1
  8 42  1  0
  8 43  1  0
  8 44  1  0
  9 45  1  0
  9 46  1  0
  9 47  1  0
 10 48  1  6
 11 49  1  0
 11 50  1  0
 12 51  1  0
 12 52  1  0
 14 53  1  0
 14 54  1  0
 14 55  1  0
 15 56  1  1
 16 57  1  0
 16 58  1  0
 17 59  1  0
 19 60  1  6
 20 61  1  0
 20 62  1  0
 21 63  1  0
 21 64  1  0
 22 65  1  6
 23 66  1  0
 25 67  1  0
 25 68  1  0
 25 69  1  0
 26 70  1  0
 26 71  1  0
 26 72  1  0
 28 73  1  0
 28 74  1  0
 28 75  1  0
 29 76  1  0
 29 77  1  0
 30 78  1  0
 30 79  1  0
 32 80  1  0
 32 81  1  0
 32 82  1  0
M  END
>  <meeko>  (12) 
{"is_sidechain": [false], "intermolecular_energy": 2.731, "internal_energy": -0.839}

$$$$
EPH_relaxed_0001_pdb2pqr_Repair_166_r2_0001_out
     RDKit          3D

 82 86  0  0  0  0  0  0  0  0999 V2000
   -0.2960   15.1200   -7.7000 C   0  0  0  0  0  0  0  0  0  0  0  0
    1.0700   15.1090   -7.0080 C   0  0  2  0  0  0  0  0  0  0  0  0
    2.2330   15.2100   -8.0160 C   0  0  0  0  0  0  0  0  0  0  0  0
    2.2460   16.5190   -8.8100 C   0  0  0  0  0  0  0  0  0  0  0  0
    1.8520   16.3030  -10.2400 C   0  0  2  0  0  0  0  0  0  0  0  0
    1.1910   15.0580  -10.4980 O   0  0  0  0  0  0  0  0  0  0  0  0
    2.4710   15.2380  -11.1270 C   0  0  0  0  0  0  0  0  0  0  0  0
    3.5350   14.3190  -10.6150 C   0  0  0  0  0  0  0  0  0  0  0  0
    2.3940   15.4100  -12.6120 C   0  0  0  0  0  0  0  0  0  0  0  0
    1.2170   13.8450   -6.1690 C   0  0  1  0  0  0  0  0  0  0  0  0
    2.6470   13.2450   -6.2390 C   0  0  0  0  0  0  0  0  0  0  0  0
    2.9470   12.6420   -4.8420 C   0  0  0  0  0  0  0  0  0  0  0  0
    1.5770   12.6170   -4.1250 C   0  0  1  0  0  0  0  0  0  0  0  0
    0.8660   11.3360   -4.6640 C   0  0  0  0  0  0  0  0  0  0  0  0
    1.6150   12.6420   -2.5620 C   0  0  2  0  0  0  0  0  0  0  0  0
    2.3050   11.4330   -1.9070 C   0  0  0  0  0  0  0  0  0  0  0  0
    1.4080   10.2830   -1.5870 C   0  0  0  0  0  0  0  0  0  0  0  0
    0.0630   10.3250   -1.5520 C   0  0  0  0  0  0  0  0  0  0  0  0
   -0.6880   11.6470   -1.7570 C   0  0  1  0  0  0  0  0  0  0  0  0
   -1.7870   11.7910   -0.6720 C   0  0  0  0  0  0  0  0  0  0  0  0
   -2.7240   10.5880   -0.6250 C   0  0  0  0  0  0  0  0  0  0  0  0
   -1.9470    9.3010   -0.3620 C   0  0  2  0  0  0  0  0  0  0  0  0
   -1.4030    9.3540    0.9610 O   0  0  0  0  0  0  0  0  0  0  0  0
   -0.8050    9.0540   -1.3870 C   0  0  0  0  0  0  0  0  0  0  0  0
   -1.4130    8.6980   -2.7670 C   0  0  0  0  0  0  0  0  0  0  0  0
   -0.0120    7.8020   -0.9260 C   0  0  0  0  0  0  0  0  0  0  0  0
    0.2170   12.9470   -1.8850 C   0  0  1  0  0  0  0  0  0  0  0  0
    0.5250   13.5220   -0.4690 C   0  0  0  0  0  0  0  0  0  0  0  0
   -0.5890   14.0610   -2.6520 C   0  0  0  0  0  0  0  0  0  0  0  0
   -0.4900   14.0570   -4.1890 C   0  0  0  0  0  0  0  0  0  0  0  0
    0.9700   13.9710   -4.6450 C   0  0  2  0  0  0  0  0  0  0  0  0
    1.7060   15.2570   -4.1360 C   0  0  0  0  0  0  0  0  0  0  0  0
   -1.0917   15.1264   -6.9405 H   0  0  0  0  0  0  0  0  0  0  0  0
   -0.3815   16.0189   -8.3283 H   0  0  0  0  0  0  0  0  0  0  0  0
   -0.3960   14.2226   -8.3283 H   0  0  0  0  0  0  0  0  0  0  0  0
    1.1187   15.9951   -6.3580 H   0  0  0  0  0  0  0  0  0  0  0  0
    3.1803   15.1298   -7.4627 H   0  0  0  0  0  0  0  0  0  0  0  0
    2.1014   14.3943   -8.7422 H   0  0  0  0  0  0  0  0  0  0  0  0
    1.5389   17.2235   -8.3478 H   0  0  0  0  0  0  0  0  0  0  0  0
    3.2699   16.9206   -8.7930 H   0  0  0  0  0  0  0  0  0  0  0  0
    1.6936   17.3820  -10.3835 H   0  0  0  0  0  0  0  0  0  0  0  0
    3.5272   14.3258   -9.5150 H   0  0  0  0  0  0  0  0  0  0  0  0
    3.3429   13.2981  -10.9768 H   0  0  0  0  0  0  0  0  0  0  0  0
    4.5171   14.6575  -10.9768 H   0  0  0  0  0  0  0  0  0  0  0  0
    1.9548   16.3912  -12.8452 H   0  0  0  0  0  0  0  0  0  0  0  0
    3.4051   15.3496  -13.0410 H   0  0  0  0  0  0  0  0  0  0  0  0
    1.7656   14.6156  -13.0410 H   0  0  0  0  0  0  0  0  0  0  0  0
    0.4315   13.2262   -6.6274 H   0  0  0  0  0  0  0  0  0  0  0  0
    2.6913   12.4598   -7.0081 H   0  0  0  0  0  0  0  0  0  0  0  0
    3.3863   14.0151   -6.5043 H   0  0  0  0  0  0  0  0  0  0  0  0
    3.3538   11.6245   -4.9376 H   0  0  0  0  0  0  0  0  0  0  0  0
    3.6969   13.2258   -4.2881 H   0  0  0  0  0  0  0  0  0  0  0  0
    0.5252   10.7220   -3.8173 H   0  0  0  0  0  0  0  0  0  0  0  0
    0.0006   11.6275   -5.2773 H   0  0  0  0  0  0  0  0  0  0  0  0
    1.5712   10.7558   -5.2773 H   0  0  0  0  0  0  0  0  0  0  0  0
    2.2651   13.5049   -2.3550 H   0  0  0  0  0  0  0  0  0  0  0  0
    3.0859   11.0742   -2.5936 H   0  0  0  0  0  0  0  0  0  0  0  0
    2.6963   11.7911   -0.9433 H   0  0  0  0  0  0  0  0  0  0  0  0
    1.8872    9.3191   -1.3605 H   0  0  0  0  0  0  0  0  0  0  0  0
   -1.1515   11.5819   -2.7524 H   0  0  0  0  0  0  0  0  0  0  0  0
   -1.3017   11.8985    0.3093 H   0  0  0  0  0  0  0  0  0  0  0  0
   -2.3911   12.6751   -0.9240 H   0  0  0  0  0  0  0  0  0  0  0  0
   -3.4591   10.7355    0.1799 H   0  0  0  0  0  0  0  0  0  0  0  0
   -3.2307   10.4996   -1.5973 H   0  0  0  0  0  0  0  0  0  0  0  0
   -2.6509    8.4626   -0.4694 H   0  0  0  0  0  0  0  0  0  0  0  0
   -0.5370    9.7930    0.9050 H   0  0  0  0  0  0  0  0  0  0  0  0
   -2.3540    8.1470   -2.6220 H   0  0  0  0  0  0  0  0  0  0  0  0
   -1.6122    9.6222   -3.3294 H   0  0  0  0  0  0  0  0  0  0  0  0
   -0.7045    8.0721   -3.3294 H   0  0  0  0  0  0  0  0  0  0  0  0
    0.0105    7.7665    0.1732 H   0  0  0  0  0  0  0  0  0  0  0  0
   -0.5010    6.8955   -1.3122 H   0  0  0  0  0  0  0  0  0  0  0  0
    1.0165    7.8567   -1.3122 H   0  0  0  0  0  0  0  0  0  0  0  0
    0.1527   12.8269    0.2979 H   0  0  0  0  0  0  0  0  0  0  0  0
    1.6115   13.6483   -0.3529 H   0  0  0  0  0  0  0  0  0  0  0  0
    0.0281   14.4965   -0.3529 H   0  0  0  0  0  0  0  0  0  0  0  0
   -1.6503   13.9458   -2.3868 H   0  0  0  0  0  0  0  0  0  0  0  0
   -0.1353   15.0123   -2.3372 H   0  0  0  0  0  0  0  0  0  0  0  0
   -1.0414   13.1904   -4.5827 H   0  0  0  0  0  0  0  0  0  0  0  0
   -0.9216   14.9942   -4.5704 H   0  0  0  0  0  0  0  0  0  0  0  0
    1.7109   15.2655   -3.0360 H   0  0  0  0  0  0  0  0  0  0  0  0
    2.7414   15.2581   -4.5073 H   0  0  0  0  0  0  0  0  0  0  0  0
    1.1824   16.1503   -4.5073 H   0  0  0  0  0  0  0  0  0  0  0  0
  1  2  1  0
  2  3  1  0
  3  4  1  0
  4  5  1  0
  5  6  1  0
  6  7  1  0
  7  8  1  0
  7  9  1  0
  2 10  1  0
 10 11  1  0
 11 12  1  0
 12 13  1  0
 13 14  1  1
 13 15  1  0
 15 16  1  0
 16 17  1  0
 17 18  2  0
 18 19  1  0
 19 20  1  0
 20 21  1  0
 21 22  1  0
 22 23  1  0
 22 24  1  0
 24 25  1  0
 24 26  1  0
 19 27  1  0
 27 28  1  1
 27 29  1  0
 29 30  1  0
 30 31  1  0
 31 32  1  1
  7  5  1  0
 31 10  1  0
 31 13  1  0
 27 15  1  0
 24 18  1  0
  1 33  1  0
  1 34  1  0
  1 35  1  0
  2 36  1  1
  3 37  1  0
  3 38  1  0
  4 39  1  0
  4 40  1  0
  5 41  1  6
  8 42  1  0
  8 43  1  0
  8 44  1  0
  9 45  1  0
  9 46  1  0
  9 47  1  0
 10 48  1  6
 11 49  1  0
 11 50  1  0
 12 51  1  0
 12 52  1  0
 14 53  1  0
 14 54  1  0
 14 55  1  0
 15 56  1  6
 16 57  1  0
 16 58  1  0
 17 59  1  0
 19 60  1  6
 20 61  1  0
 20 62  1  0
 21 63  1  0
 21 64  1  0
 22 65  1  1
 23 66  1  0
 25 67  1  0
 25 68  1  0
 25 69  1  0
 26 70  1  0
 26 71  1  0
 26 72  1  0
 28 73  1  0
 28 74  1  0
 28 75  1  0
 29 76  1  0
 29 77  1  0
 30 78  1  0
 30 79  1  0
 32 80  1  0
 32 81  1  0
 32 82  1  0
M  END
>  <meeko>  (13) 
{"is_sidechain": [false], "intermolecular_energy": 2.731, "internal_energy": -0.839}

$$$$
EPH_relaxed_0001_pdb2pqr_Repair_166_r2_0001_out
     RDKit          3D

 82 86  0  0  0  0  0  0  0  0999 V2000
   -2.1640    7.8000   -2.2800 C   0  0  0  0  0  0  0  0  0  0  0  0
   -2.1640    8.4060   -0.8740 C   0  0  2  0  0  0  0  0  0  0  0  0
   -3.5640    8.3740   -0.2280 C   0  0  0  0  0  0  0  0  0  0  0  0
   -4.7080    8.2790   -1.2410 C   0  0  0  0  0  0  0  0  0  0  0  0
   -5.7470    7.2890   -0.8120 C   0  0  2  0  0  0  0  0  0  0  0  0
   -6.0500    6.2800   -1.7850 O   0  0  0  0  0  0  0  0  0  0  0  0
   -7.1180    7.1830   -1.4550 C   0  0  0  0  0  0  0  0  0  0  0  0
   -7.5230    8.0820   -2.5810 C   0  0  0  0  0  0  0  0  0  0  0  0
   -8.2270    6.5470   -0.6760 C   0  0  0  0  0  0  0  0  0  0  0  0
   -1.6470    9.8390   -0.9250 C   0  0  1  0  0  0  0  0  0  0  0  0
   -1.2100   10.3660    0.4680 C   0  0  0  0  0  0  0  0  0  0  0  0
    0.0050   11.2990    0.2320 C   0  0  0  0  0  0  0  0  0  0  0  0
    0.0210   11.5400   -1.2960 C   0  0  1  0  0  0  0  0  0  0  0  0
   -1.0430   12.6570   -1.5370 C   0  0  0  0  0  0  0  0  0  0  0  0
    1.4040   11.9160   -1.9220 C   0  0  2  0  0  0  0  0  0  0  0  0
    2.0120   13.2350   -1.4160 C   0  0  0  0  0  0  0  0  0  0  0  0
    1.6430   14.4500   -2.2010 C   0  0  0  0  0  0  0  0  0  0  0  0
    1.0910   14.4510   -3.4280 C   0  0  0  0  0  0  0  0  0  0  0  0
    0.8720   13.1390   -4.1940 C   0  0  1  0  0  0  0  0  0  0  0  0
    1.3650   13.3050   -5.6560 C   0  0  0  0  0  0  0  0  0  0  0  0
    0.7290   14.5020   -6.3550 C   0  0  0  0  0  0  0  0  0  0  0  0
    1.0170   15.7940   -5.5960 C   0  0  2  0  0  0  0  0  0  0  0  0
    2.4190   16.0690   -5.6700 O   0  0  0  0  0  0  0  0  0  0  0  0
    0.5730   15.7430   -4.1070 C   0  0  0  0  0  0  0  0  0  0  0  0
   -0.9740   15.7480   -4.0250 C   0  0  0  0  0  0  0  0  0  0  0  0
    1.0480   17.0520   -3.4210 C   0  0  0  0  0  0  0  0  0  0  0  0
    1.4450   11.8290   -3.5020 C   0  0  1  0  0  0  0  0  0  0  0  0
    2.9400   11.6280   -3.8970 C   0  0  0  0  0  0  0  0  0  0  0  0
    0.6680   10.5750   -4.0520 C   0  0  0  0  0  0  0  0  0  0  0  0
   -0.6280   10.1830   -3.3170 C   0  0  0  0  0  0  0  0  0  0  0  0
   -0.4010   10.1140   -1.8040 C   0  0  2  0  0  0  0  0  0  0  0  0
    0.6490    8.9830   -1.5290 C   0  0  0  0  0  0  0  0  0  0  0  0
   -1.1269    7.6549   -2.6167 H   0  0  0  0  0  0  0  0  0  0  0  0
   -2.6825    6.8301   -2.2612 H   0  0  0  0  0  0  0  0  0  0  0  0
   -2.6825    8.4797   -2.9722 H   0  0  0  0  0  0  0  0  0  0  0  0
   -1.4978    7.7926   -0.2496 H   0  0  0  0  0  0  0  0  0  0  0  0
   -3.6183    7.5016    0.4398 H   0  0  0  0  0  0  0  0  0  0  0  0
   -3.6906    9.3243    0.3113 H   0  0  0  0  0  0  0  0  0  0  0  0
   -5.1782    9.2683   -1.3415 H   0  0  0  0  0  0  0  0  0  0  0  0
   -4.2891    7.9423   -2.2008 H   0  0  0  0  0  0  0  0  0  0  0  0
   -5.4289    7.3740    0.2376 H   0  0  0  0  0  0  0  0  0  0  0  0
   -7.9427    9.0136   -2.1736 H   0  0  0  0  0  0  0  0  0  0  0  0
   -6.6431    8.3155   -3.1985 H   0  0  0  0  0  0  0  0  0  0  0  0
   -8.2809    7.5776   -3.1985 H   0  0  0  0  0  0  0  0  0  0  0  0
   -8.0305    6.6597    0.4004 H   0  0  0  0  0  0  0  0  0  0  0  0
   -9.1795    7.0361   -0.9280 H   0  0  0  0  0  0  0  0  0  0  0  0
   -8.2859    5.4779   -0.9280 H   0  0  0  0  0  0  0  0  0  0  0  0
   -2.5281   10.3384   -1.3542 H   0  0  0  0  0  0  0  0  0  0  0  0
   -2.0327   10.9264    0.9362 H   0  0  0  0  0  0  0  0  0  0  0  0
   -0.9459    9.5357    1.1394 H   0  0  0  0  0  0  0  0  0  0  0  0
   -0.1231   12.2479    0.7735 H   0  0  0  0  0  0  0  0  0  0  0  0
    0.9456   10.8589    0.5947 H   0  0  0  0  0  0  0  0  0  0  0  0
   -1.4033   13.0352   -0.5689 H   0  0  0  0  0  0  0  0  0  0  0  0
   -0.5873   13.4808   -2.1059 H   0  0  0  0  0  0  0  0  0  0  0  0
   -1.8880   12.2419   -2.1059 H   0  0  0  0  0  0  0  0  0  0  0  0
    2.0601   11.1195   -1.5411 H   0  0  0  0  0  0  0  0  0  0  0  0
    1.6793   13.3867   -0.3786 H   0  0  0  0  0  0  0  0  0  0  0  0
    3.1019   13.1264   -1.5178 H   0  0  0  0  0  0  0  0  0  0  0  0
    1.8391   15.4277   -1.7367 H   0  0  0  0  0  0  0  0  0  0  0  0
   -0.2129   12.9579   -4.1841 H   0  0  0  0  0  0  0  0  0  0  0  0
    2.4565   13.4410   -5.6468 H   0  0  0  0  0  0  0  0  0  0  0  0
    1.0745   12.4009   -6.2111 H   0  0  0  0  0  0  0  0  0  0  0  0
    1.1383   14.5836   -7.3727 H   0  0  0  0  0  0  0  0  0  0  0  0
   -0.3600   14.3505   -6.3890 H   0  0  0  0  0  0  0  0  0  0  0  0
    0.4291   16.5931   -6.0711 H   0  0  0  0  0  0  0  0  0  0  0  0
    2.5610   16.9710   -5.3350 H   0  0  0  0  0  0  0  0  0  0  0  0
   -1.2853   15.7490   -2.9700 H   0  0  0  0  0  0  0  0  0  0  0  0
   -1.3647   16.6474   -4.5234 H   0  0  0  0  0  0  0  0  0  0  0  0
   -1.3705   14.8511   -4.5234 H   0  0  0  0  0  0  0  0  0  0  0  0
    1.0039   16.9304   -2.3286 H   0  0  0  0  0  0  0  0  0  0  0  0
    2.0826   17.2702   -3.7241 H   0  0  0  0  0  0  0  0  0  0  0  0
    0.3941   17.8830   -3.7241 H   0  0  0  0  0  0  0  0  0  0  0  0
    3.5519   11.5457   -2.9866 H   0  0  0  0  0  0  0  0  0  0  0  0
    3.0417   10.7081   -4.4915 H   0  0  0  0  0  0  0  0  0  0  0  0
    3.2810   12.4884   -4.4915 H   0  0  0  0  0  0  0  0  0  0  0  0
    0.4069   10.7791   -5.1009 H   0  0  0  0  0  0  0  0  0  0  0  0
    1.3510    9.7256   -3.9036 H   0  0  0  0  0  0  0  0  0  0  0  0
   -1.4037   10.9331   -3.5306 H   0  0  0  0  0  0  0  0  0  0  0  0
   -0.9446    9.1903   -3.6697 H   0  0  0  0  0  0  0  0  0  0  0  0
    0.7708    8.8518   -0.4437 H   0  0  0  0  0  0  0  0  0  0  0  0
    0.2983    8.0407   -1.9752 H   0  0  0  0  0  0  0  0  0  0  0  0
    1.6147    9.2629   -1.9752 H   0  0  0  0  0  0  0  0  0  0  0  0
  1  2  1  0
  2  3  1  0
  3  4  1  0
  4  5  1  0
  5  6  1  0
  6  7  1  0
  7  8  1  0
  7  9  1  0
  2 10  1  0
 10 11  1  0
 11 12  1  0
 12 13  1  0
 13 14  1  1
 13 15  1  0
 15 16  1  0
 16 17  1  0
 17 18  2  0
 18 19  1  0
 19 20  1  0
 20 21  1  0
 21 22  1  0
 22 23  1  0
 22 24  1  0
 24 25  1  0
 24 26  1  0
 19 27  1  0
 27 28  1  1
 27 29  1  0
 29 30  1  0
 30 31  1  0
 31 32  1  6
  7  5  1  0
 31 10  1  0
 31 13  1  0
 27 15  1  0
 24 18  1  0
  1 33  1  0
  1 34  1  0
  1 35  1  0
  2 36  1  1
  3 37  1  0
  3 38  1  0
  4 39  1  0
  4 40  1  0
  5 41  1  1
  8 42  1  0
  8 43  1  0
  8 44  1  0
  9 45  1  0
  9 46  1  0
  9 47  1  0
 10 48  1  6
 11 49  1  0
 11 50  1  0
 12 51  1  0
 12 52  1  0
 14 53  1  0
 14 54  1  0
 14 55  1  0
 15 56  1  1
 16 57  1  0
 16 58  1  0
 17 59  1  0
 19 60  1  6
 20 61  1  0
 20 62  1  0
 21 63  1  0
 21 64  1  0
 22 65  1  6
 23 66  1  0
 25 67  1  0
 25 68  1  0
 25 69  1  0
 26 70  1  0
 26 71  1  0
 26 72  1  0
 28 73  1  0
 28 74  1  0
 28 75  1  0
 29 76  1  0
 29 77  1  0
 30 78  1  0
 30 79  1  0
 32 80  1  0
 32 81  1  0
 32 82  1  0
M  END
>  <meeko>  (14) 
{"is_sidechain": [false], "intermolecular_energy": 2.731, "internal_energy": -0.839}

$$$$
EPH_relaxed_0001_pdb2pqr_Repair_166_r2_0001_out
     RDKit          3D

 82 86  0  0  0  0  0  0  0  0999 V2000
   -0.0900    9.3100   -4.1950 C   0  0  0  0  0  0  0  0  0  0  0  0
    0.0940    9.5270   -2.6910 C   0  0  2  0  0  0  0  0  0  0  0  0
   -0.6900    8.4950   -1.8550 C   0  0  0  0  0  0  0  0  0  0  0  0
   -2.2060    8.5660   -2.0530 C   0  0  0  0  0  0  0  0  0  0  0  0
   -2.7440    7.3100   -2.6680 C   0  0  2  0  0  0  0  0  0  0  0  0
   -3.7890    7.5130   -3.6280 O   0  0  0  0  0  0  0  0  0  0  0  0
   -4.1550    6.8020   -2.4350 C   0  0  0  0  0  0  0  0  0  0  0  0
   -5.1150    7.5420   -1.5560 C   0  0  0  0  0  0  0  0  0  0  0  0
   -4.4400    5.3500   -2.6610 C   0  0  0  0  0  0  0  0  0  0  0  0
   -0.3380   10.9390   -2.3130 C   0  0  1  0  0  0  0  0  0  0  0  0
   -1.5550   10.9550   -1.3500 C   0  0  0  0  0  0  0  0  0  0  0  0
   -1.3560   12.1610   -0.3970 C   0  0  0  0  0  0  0  0  0  0  0  0
   -0.2210   12.9880   -1.0460 C   0  0  1  0  0  0  0  0  0  0  0  0
   -0.9220   13.8240   -2.1630 C   0  0  0  0  0  0  0  0  0  0  0  0
    0.6110   13.8950   -0.0830 C   0  0  2  0  0  0  0  0  0  0  0  0
   -0.1880   15.0060    0.6200 C   0  0  0  0  0  0  0  0  0  0  0  0
   -0.2430   16.3090   -0.1060 C   0  0  0  0  0  0  0  0  0  0  0  0
    0.5550   16.6690   -1.1280 C   0  0  0  0  0  0  0  0  0  0  0  0
    1.7020   15.7600   -1.5900 C   0  0  1  0  0  0  0  0  0  0  0  0
    2.9890   16.6050   -1.7760 C   0  0  0  0  0  0  0  0  0  0  0  0
    2.7780   17.7960   -2.7060 C   0  0  0  0  0  0  0  0  0  0  0  0
    1.6700   18.7070   -2.1830 C   0  0  2  0  0  0  0  0  0  0  0  0
    2.1070   19.3090   -0.9610 O   0  0  0  0  0  0  0  0  0  0  0  0
    0.3250   17.9630   -1.9470 C   0  0  0  0  0  0  0  0  0  0  0  0
   -0.2990   17.5720   -3.3100 C   0  0  0  0  0  0  0  0  0  0  0  0
   -0.6630   18.9620   -1.2880 C   0  0  0  0  0  0  0  0  0  0  0  0
    1.9480   14.4570   -0.7150 C   0  0  1  0  0  0  0  0  0  0  0  0
    2.8990   14.7880    0.4760 C   0  0  0  0  0  0  0  0  0  0  0  0
    2.6930   13.3820   -1.5920 C   0  0  0  0  0  0  0  0  0  0  0  0
    1.8110   12.4370   -2.4300 C   0  0  0  0  0  0  0  0  0  0  0  0
    0.6960   11.8260   -1.5760 C   0  0  2  0  0  0  0  0  0  0  0  0
    1.3700   10.9610   -0.4570 C   0  0  0  0  0  0  0  0  0  0  0  0
   -0.7931    8.4808   -4.3625 H   0  0  0  0  0  0  0  0  0  0  0  0
   -0.4896   10.2275   -4.6517 H   0  0  0  0  0  0  0  0  0  0  0  0
    0.8805    9.0658   -4.6517 H   0  0  0  0  0  0  0  0  0  0  0  0
    1.1621    9.3918   -2.4655 H   0  0  0  0  0  0  0  0  0  0  0  0
   -0.3497    7.4881   -2.1384 H   0  0  0  0  0  0  0  0  0  0  0  0
   -0.4932    8.7226   -0.7969 H   0  0  0  0  0  0  0  0  0  0  0  0
   -2.6865    8.7183   -1.0753 H   0  0  0  0  0  0  0  0  0  0  0  0
   -2.4241    9.4019   -2.7339 H   0  0  0  0  0  0  0  0  0  0  0  0
   -1.7613    6.8222   -2.5880 H   0  0  0  0  0  0  0  0  0  0  0  0
   -4.8679    7.3515   -0.5012 H   0  0  0  0  0  0  0  0  0  0  0  0
   -5.0429    8.6204   -1.7605 H   0  0  0  0  0  0  0  0  0  0  0  0
   -6.1395    7.1977   -1.7605 H   0  0  0  0  0  0  0  0  0  0  0  0
   -4.5400    4.8407   -1.6912 H   0  0  0  0  0  0  0  0  0  0  0  0
   -5.3761    5.2441   -3.2290 H   0  0  0  0  0  0  0  0  0  0  0  0
   -3.6134    4.8982   -3.2290 H   0  0  0  0  0  0  0  0  0  0  0  0
   -0.5353   11.3451   -3.3161 H   0  0  0  0  0  0  0  0  0  0  0  0
   -2.4879   11.0732   -1.9207 H   0  0  0  0  0  0  0  0  0  0  0  0
   -1.6243   10.0133   -0.7858 H   0  0  0  0  0  0  0  0  0  0  0  0
   -2.2784   12.7562   -0.3260 H   0  0  0  0  0  0  0  0  0  0  0  0
   -1.1095   11.8466    0.6279 H   0  0  0  0  0  0  0  0  0  0  0  0
   -1.5633   14.5888   -1.7007 H   0  0  0  0  0  0  0  0  0  0  0  0
   -0.1601   14.3131   -2.7876 H   0  0  0  0  0  0  0  0  0  0  0  0
   -1.5365   13.1590   -2.7876 H   0  0  0  0  0  0  0  0  0  0  0  0
    0.9040   13.1903    0.7092 H   0  0  0  0  0  0  0  0  0  0  0  0
   -1.2195   14.6488    0.7558 H   0  0  0  0  0  0  0  0  0  0  0  0
    0.3370   15.2065    1.5656 H   0  0  0  0  0  0  0  0  0  0  0  0
   -0.9999   17.0366    0.2222 H   0  0  0  0  0  0  0  0  0  0  0  0
    1.3882   15.3410   -2.5574 H   0  0  0  0  0  0  0  0  0  0  0  0
    3.3109   16.9783   -0.7926 H   0  0  0  0  0  0  0  0  0  0  0  0
    3.7512   15.9562   -2.2322 H   0  0  0  0  0  0  0  0  0  0  0  0
    3.7139   18.3700   -2.7739 H   0  0  0  0  0  0  0  0  0  0  0  0
    2.4847   17.4199   -3.6972 H   0  0  0  0  0  0  0  0  0  0  0  0
    1.4768   19.4674   -2.9540 H   0  0  0  0  0  0  0  0  0  0  0  0
    1.3190   19.4730   -0.4150 H   0  0  0  0  0  0  0  0  0  0  0  0
   -1.2199   16.9950   -3.1396 H   0  0  0  0  0  0  0  0  0  0  0  0
   -0.5370   18.4828   -3.8791 H   0  0  0  0  0  0  0  0  0  0  0  0
    0.4168   16.9606   -3.8791 H   0  0  0  0  0  0  0  0  0  0  0  0
   -0.5868   18.8849   -0.1934 H   0  0  0  0  0  0  0  0  0  0  0  0
   -0.4127   19.9862   -1.6018 H   0  0  0  0  0  0  0  0  0  0  0  0
   -1.6899   18.7230   -1.6018 H   0  0  0  0  0  0  0  0  0  0  0  0
    2.3746   14.6055    1.4256 H   0  0  0  0  0  0  0  0  0  0  0  0
    3.7918   14.1477    0.4212 H   0  0  0  0  0  0  0  0  0  0  0  0
    3.2013   15.8442    0.4212 H   0  0  0  0  0  0  0  0  0  0  0  0
    3.3566   13.9198   -2.2851 H   0  0  0  0  0  0  0  0  0  0  0  0
    3.2094   12.7305   -0.8716 H   0  0  0  0  0  0  0  0  0  0  0  0
    1.3604   13.0048   -3.2574 H   0  0  0  0  0  0  0  0  0  0  0  0
    2.4404   11.6232   -2.8192 H   0  0  0  0  0  0  0  0  0  0  0  0
    1.0725   11.3428    0.5308 H   0  0  0  0  0  0  0  0  0  0  0  0
    1.0469    9.9144   -0.5581 H   0  0  0  0  0  0  0  0  0  0  0  0
    2.4638   11.0185   -0.5581 H   0  0  0  0  0  0  0  0  0  0  0  0
  1  2  1  0
  2  3  1  0
  3  4  1  0
  4  5  1  0
  5  6  1  0
  6  7  1  0
  7  8  1  0
  7  9  1  0
  2 10  1  0
 10 11  1  0
 11 12  1  0
 12 13  1  0
 13 14  1  6
 13 15  1  0
 15 16  1  0
 16 17  1  0
 17 18  2  0
 18 19  1  0
 19 20  1  0
 20 21  1  0
 21 22  1  0
 22 23  1  0
 22 24  1  0
 24 25  1  0
 24 26  1  0
 19 27  1  0
 27 28  1  1
 27 29  1  0
 29 30  1  0
 30 31  1  0
 31 32  1  1
  7  5  1  0
 31 10  1  0
 31 13  1  0
 27 15  1  0
 24 18  1  0
  1 33  1  0
  1 34  1  0
  1 35  1  0
  2 36  1  6
  3 37  1  0
  3 38  1  0
  4 39  1  0
  4 40  1  0
  5 41  1  6
  8 42  1  0
  8 43  1  0
  8 44  1  0
  9 45  1  0
  9 46  1  0
  9 47  1  0
 10 48  1  6
 11 49  1  0
 11 50  1  0
 12 51  1  0
 12 52  1  0
 14 53  1  0
 14 54  1  0
 14 55  1  0
 15 56  1  1
 16 57  1  0
 16 58  1  0
 17 59  1  0
 19 60  1  6
 20 61  1  0
 20 62  1  0
 21 63  1  0
 21 64  1  0
 22 65  1  6
 23 66  1  0
 25 67  1  0
 25 68  1  0
 25 69  1  0
 26 70  1  0
 26 71  1  0
 26 72  1  0
 28 73  1  0
 28 74  1  0
 28 75  1  0
 29 76  1  0
 29 77  1  0
 30 78  1  0
 30 79  1  0
 32 80  1  0
 32 81  1  0
 32 82  1  0
M  END
>  <meeko>  (15) 
{"is_sidechain": [false], "intermolecular_energy": 2.731, "internal_energy": -0.839}

$$$$
EPH_relaxed_0001_pdb2pqr_Repair_166_r2_0001_out
     RDKit          3D

 82 86  0  0  0  0  0  0  0  0999 V2000
    0.9650   14.9680   -2.6670 C   0  0  0  0  0  0  0  0  0  0  0  0
    1.1990   14.2990   -4.0250 C   0  0  2  0  0  0  0  0  0  0  0  0
    0.4660   15.0310   -5.1670 C   0  0  0  0  0  0  0  0  0  0  0  0
    0.9280   14.6110   -6.5640 C   0  0  0  0  0  0  0  0  0  0  0  0
    0.7360   15.7090   -7.5660 C   0  0  2  0  0  0  0  0  0  0  0  0
    0.4050   15.2630   -8.8870 O   0  0  0  0  0  0  0  0  0  0  0  0
    1.6640   15.9400   -8.7430 C   0  0  0  0  0  0  0  0  0  0  0  0
    2.8560   15.0660   -8.9810 C   0  0  0  0  0  0  0  0  0  0  0  0
    1.6950   17.2970   -9.3750 C   0  0  0  0  0  0  0  0  0  0  0  0
    0.7560   12.8420   -3.9700 C   0  0  1  0  0  0  0  0  0  0  0  0
    1.8840   11.8590   -4.3830 C   0  0  0  0  0  0  0  0  0  0  0  0
    1.7090   10.5870   -3.5130 C   0  0  0  0  0  0  0  0  0  0  0  0
    0.3090   10.7410   -2.8760 C   0  0  1  0  0  0  0  0  0  0  0  0
   -0.6890   10.2740   -3.9820 C   0  0  0  0  0  0  0  0  0  0  0  0
    0.0750    9.9800   -1.5300 C   0  0  2  0  0  0  0  0  0  0  0  0
    0.1850    8.4480   -1.6190 C   0  0  0  0  0  0  0  0  0  0  0  0
   -1.0910    7.7330   -1.9190 C   0  0  0  0  0  0  0  0  0  0  0  0
   -2.3250    8.2640   -1.8290 C   0  0  0  0  0  0  0  0  0  0  0  0
   -2.5330    9.6870   -1.2950 C   0  0  1  0  0  0  0  0  0  0  0  0
   -3.6910    9.6890   -0.2630 C   0  0  0  0  0  0  0  0  0  0  0  0
   -4.9740    9.0830   -0.8220 C   0  0  0  0  0  0  0  0  0  0  0  0
   -4.7410    7.6480   -1.2900 C   0  0  2  0  0  0  0  0  0  0  0  0
   -4.4540    6.8330   -0.1490 O   0  0  0  0  0  0  0  0  0  0  0  0
   -3.5890    7.5210   -2.3260 C   0  0  0  0  0  0  0  0  0  0  0  0
   -4.0270    8.1500   -3.6710 C   0  0  0  0  0  0  0  0  0  0  0  0
   -3.3650    6.0100   -2.6060 C   0  0  0  0  0  0  0  0  0  0  0  0
   -1.2310   10.4220   -0.7540 C   0  0  1  0  0  0  0  0  0  0  0  0
   -1.0020   10.0610    0.7460 C   0  0  0  0  0  0  0  0  0  0  0  0
   -1.4600   11.9790   -0.8050 C   0  0  0  0  0  0  0  0  0  0  0  0
   -1.0980   12.6910   -2.1230 C   0  0  0  0  0  0  0  0  0  0  0  0
    0.3010   12.2880   -2.5970 C   0  0  2  0  0  0  0  0  0  0  0  0
    1.3290   12.7640   -1.5140 C   0  0  0  0  0  0  0  0  0  0  0  0
    1.2125   14.2603   -1.8621 H   0  0  0  0  0  0  0  0  0  0  0  0
    1.6050   15.8586   -2.5819 H   0  0  0  0  0  0  0  0  0  0  0  0
   -0.0906   15.2655   -2.5819 H   0  0  0  0  0  0  0  0  0  0  0  0
    2.2768   14.3514   -4.2384 H   0  0  0  0  0  0  0  0  0  0  0  0
   -0.6102   14.8210   -5.0795 H   0  0  0  0  0  0  0  0  0  0  0  0
    0.6950   16.1017   -5.0613 H   0  0  0  0  0  0  0  0  0  0  0  0
    1.9956   14.3492   -6.5225 H   0  0  0  0  0  0  0  0  0  0  0  0
    0.3222   13.7490   -6.8803 H   0  0  0  0  0  0  0  0  0  0  0  0
    0.3508   16.3835   -6.7871 H   0  0  0  0  0  0  0  0  0  0  0  0
    3.2809   14.7545   -8.0154 H   0  0  0  0  0  0  0  0  0  0  0  0
    2.5504   14.1764   -9.5512 H   0  0  0  0  0  0  0  0  0  0  0  0
    3.6125   15.6250   -9.5512 H   0  0  0  0  0  0  0  0  0  0  0  0
    1.7126   18.0670   -8.5896 H   0  0  0  0  0  0  0  0  0  0  0  0
    2.5955   17.3900   -9.9999 H   0  0  0  0  0  0  0  0  0  0  0  0
    0.7997   17.4310   -9.9999 H   0  0  0  0  0  0  0  0  0  0  0  0
   -0.0993   12.8832   -4.6605 H   0  0  0  0  0  0  0  0  0  0  0  0
    1.7930   11.6043   -5.4492 H   0  0  0  0  0  0  0  0  0  0  0  0
    2.8760   12.3090   -4.2300 H   0  0  0  0  0  0  0  0  0  0  0  0
    1.7551    9.6812   -4.1355 H   0  0  0  0  0  0  0  0  0  0  0  0
    2.5024   10.4852   -2.7579 H   0  0  0  0  0  0  0  0  0  0  0  0
   -1.5888    9.8529   -3.5098 H   0  0  0  0  0  0  0  0  0  0  0  0
   -0.9713   11.1335   -4.6077 H   0  0  0  0  0  0  0  0  0  0  0  0
   -0.2100    9.5065   -4.6077 H   0  0  0  0  0  0  0  0  0  0  0  0
    0.9323   10.3060   -0.9227 H   0  0  0  0  0  0  0  0  0  0  0  0
    0.9058    8.2046   -2.4135 H   0  0  0  0  0  0  0  0  0  0  0  0
    0.4973    8.1070   -0.6209 H   0  0  0  0  0  0  0  0  0  0  0  0
   -1.0166    6.6837   -2.2407 H   0  0  0  0  0  0  0  0  0  0  0  0
   -2.8081   10.3011   -2.1651 H   0  0  0  0  0  0  0  0  0  0  0  0
   -3.3802    9.1065    0.6168 H   0  0  0  0  0  0  0  0  0  0  0  0
   -3.9030   10.7362   -0.0012 H   0  0  0  0  0  0  0  0  0  0  0  0
   -5.7448    9.0851   -0.0372 H   0  0  0  0  0  0  0  0  0  0  0  0
   -5.3003    9.6846   -1.6832 H   0  0  0  0  0  0  0  0  0  0  0  0
   -5.6575    7.3130   -1.7978 H   0  0  0  0  0  0  0  0  0  0  0  0
   -4.9310    5.9930   -0.2610 H   0  0  0  0  0  0  0  0  0  0  0  0
   -4.6456    9.0384   -3.4761 H   0  0  0  0  0  0  0  0  0  0  0  0
   -3.1362    8.4425   -4.2463 H   0  0  0  0  0  0  0  0  0  0  0  0
   -4.6103    7.4160   -4.2463 H   0  0  0  0  0  0  0  0  0  0  0  0
   -3.2847    5.4683   -1.6520 H   0  0  0  0  0  0  0  0  0  0  0  0
   -4.2143    5.6140   -3.1822 H   0  0  0  0  0  0  0  0  0  0  0  0
   -2.4374    5.8774   -3.1822 H   0  0  0  0  0  0  0  0  0  0  0  0
   -1.4824   10.8184    1.3829 H   0  0  0  0  0  0  0  0  0  0  0  0
   -1.4395    9.0739    0.9565 H   0  0  0  0  0  0  0  0  0  0  0  0
    0.0774   10.0361    0.9565 H   0  0  0  0  0  0  0  0  0  0  0  0
   -2.5260   12.1654   -0.6078 H   0  0  0  0  0  0  0  0  0  0  0  0
   -0.7729   12.3961   -0.0540 H   0  0  0  0  0  0  0  0  0  0  0  0
   -1.8325   12.4157   -2.8942 H   0  0  0  0  0  0  0  0  0  0  0  0
   -1.1104   13.7772   -1.9499 H   0  0  0  0  0  0  0  0  0  0  0  0
    0.9192   12.5742   -0.5110 H   0  0  0  0  0  0  0  0  0  0  0  0
    2.2720   12.2109   -1.6354 H   0  0  0  0  0  0  0  0  0  0  0  0
    1.5173   13.8409   -1.6354 H   0  0  0  0  0  0  0  0  0  0  0  0
  1  2  1  0
  2  3  1  0
  3  4  1  0
  4  5  1  0
  5  6  1  0
  6  7  1  0
  7  8  1  0
  7  9  1  0
  2 10  1  0
 10 11  1  0
 11 12  1  0
 12 13  1  0
 13 14  1  6
 13 15  1  0
 15 16  1  0
 16 17  1  0
 17 18  2  0
 18 19  1  0
 19 20  1  0
 20 21  1  0
 21 22  1  0
 22 23  1  0
 22 24  1  0
 24 25  1  0
 24 26  1  0
 19 27  1  0
 27 28  1  1
 27 29  1  0
 29 30  1  0
 30 31  1  0
 31 32  1  1
  7  5  1  0
 31 10  1  0
 31 13  1  0
 27 15  1  0
 24 18  1  0
  1 33  1  0
  1 34  1  0
  1 35  1  0
  2 36  1  6
  3 37  1  0
  3 38  1  0
  4 39  1  0
  4 40  1  0
  5 41  1  1
  8 42  1  0
  8 43  1  0
  8 44  1  0
  9 45  1  0
  9 46  1  0
  9 47  1  0
 10 48  1  6
 11 49  1  0
 11 50  1  0
 12 51  1  0
 12 52  1  0
 14 53  1  0
 14 54  1  0
 14 55  1  0
 15 56  1  1
 16 57  1  0
 16 58  1  0
 17 59  1  0
 19 60  1  6
 20 61  1  0
 20 62  1  0
 21 63  1  0
 21 64  1  0
 22 65  1  6
 23 66  1  0
 25 67  1  0
 25 68  1  0
 25 69  1  0
 26 70  1  0
 26 71  1  0
 26 72  1  0
 28 73  1  0
 28 74  1  0
 28 75  1  0
 29 76  1  0
 29 77  1  0
 30 78  1  0
 30 79  1  0
 32 80  1  0
 32 81  1  0
 32 82  1  0
M  END
>  <meeko>  (16) 
{"is_sidechain": [false], "intermolecular_energy": 2.731, "internal_energy": -0.839}

$$$$
EPH_relaxed_0001_pdb2pqr_Repair_166_r2_0001_out
     RDKit          3D

 82 86  0  0  0  0  0  0  0  0999 V2000
    3.1020   14.7970   -7.5500 C   0  0  0  0  0  0  0  0  0  0  0  0
    1.5810   14.8860   -7.4000 C   0  0  2  0  0  0  0  0  0  0  0  0
    1.0060   16.1570   -8.0550 C   0  0  0  0  0  0  0  0  0  0  0  0
    1.9420   16.7960   -9.0840 C   0  0  0  0  0  0  0  0  0  0  0  0
    1.5900   16.3870  -10.4830 C   0  0  2  0  0  0  0  0  0  0  0  0
    0.9990   15.0860  -10.5940 O   0  0  0  0  0  0  0  0  0  0  0  0
    2.2800   15.2550  -11.2210 C   0  0  0  0  0  0  0  0  0  0  0  0
    3.3790   14.4630  -10.5840 C   0  0  0  0  0  0  0  0  0  0  0  0
    2.2270   15.2400  -12.7170 C   0  0  0  0  0  0  0  0  0  0  0  0
    1.2010   14.8430   -5.9240 C   0  0  1  0  0  0  0  0  0  0  0  0
   -0.0580   15.6940   -5.6060 C   0  0  0  0  0  0  0  0  0  0  0  0
   -0.8290   14.9500   -4.4860 C   0  0  0  0  0  0  0  0  0  0  0  0
    0.1660   13.8850   -3.9680 C   0  0  1  0  0  0  0  0  0  0  0  0
    1.1020   14.6550   -2.9850 C   0  0  0  0  0  0  0  0  0  0  0  0
   -0.4630   12.6210   -3.2950 C   0  0  2  0  0  0  0  0  0  0  0  0
   -1.2780   12.8980   -2.0200 C   0  0  0  0  0  0  0  0  0  0  0  0
   -0.5040   12.8460   -0.7450 C   0  0  0  0  0  0  0  0  0  0  0  0
    0.7230   12.3110   -0.5950 C   0  0  0  0  0  0  0  0  0  0  0  0
    1.4170   11.5950   -1.7610 C   0  0  1  0  0  0  0  0  0  0  0  0
    2.0120   10.2520   -1.2620 C   0  0  0  0  0  0  0  0  0  0  0  0
    2.9300   10.4300   -0.0570 C   0  0  0  0  0  0  0  0  0  0  0  0
    2.1880   11.0930    1.1010 C   0  0  2  0  0  0  0  0  0  0  0  0
    1.1810   10.1940    1.5770 O   0  0  0  0  0  0  0  0  0  0  0  0
    1.5370   12.4500    0.7140 C   0  0  0  0  0  0  0  0  0  0  0  0
    2.6420   13.5120    0.4900 C   0  0  0  0  0  0  0  0  0  0  0  0
    0.7030   12.9420    1.9280 C   0  0  0  0  0  0  0  0  0  0  0  0
    0.5530   11.4260   -3.0840 C   0  0  1  0  0  0  0  0  0  0  0  0
   -0.3020   10.1250   -2.9990 C   0  0  0  0  0  0  0  0  0  0  0  0
    1.5230   11.2410   -4.3110 C   0  0  0  0  0  0  0  0  0  0  0  0
    2.0140   12.5240   -5.0080 C   0  0  0  0  0  0  0  0  0  0  0  0
    0.8440   13.4610   -5.3220 C   0  0  2  0  0  0  0  0  0  0  0  0
   -0.1040   12.7210   -6.3260 C   0  0  0  0  0  0  0  0  0  0  0  0
    3.5677   14.7697   -6.5538 H   0  0  0  0  0  0  0  0  0  0  0  0
    3.3631   13.8820   -8.1020 H   0  0  0  0  0  0  0  0  0  0  0  0
    3.4680   15.6753   -8.1020 H   0  0  0  0  0  0  0  0  0  0  0  0
    1.1460   14.0207   -7.9216 H   0  0  0  0  0  0  0  0  0  0  0  0
    0.0646   15.8926   -8.5588 H   0  0  0  0  0  0  0  0  0  0  0  0
    0.8594   16.8944   -7.2520 H   0  0  0  0  0  0  0  0  0  0  0  0
    1.8670   17.8904   -9.0030 H   0  0  0  0  0  0  0  0  0  0  0  0
    2.9664   16.4546   -8.8744 H   0  0  0  0  0  0  0  0  0  0  0  0
    1.3806   17.4303  -10.7619 H   0  0  0  0  0  0  0  0  0  0  0  0
    3.2902   14.5270   -9.4895 H   0  0  0  0  0  0  0  0  0  0  0  0
    3.3021   13.4113  -10.8972 H   0  0  0  0  0  0  0  0  0  0  0  0
    4.3523   14.8686  -10.8972 H   0  0  0  0  0  0  0  0  0  0  0  0
    1.2168   14.9541  -13.0453 H   0  0  0  0  0  0  0  0  0  0  0  0
    2.4680   16.2416  -13.1025 H   0  0  0  0  0  0  0  0  0  0  0  0
    2.9572   14.5132  -13.1025 H   0  0  0  0  0  0  0  0  0  0  0  0
    2.1365   15.2159   -5.4816 H   0  0  0  0  0  0  0  0  0  0  0  0
    0.2389   16.6953   -5.2608 H   0  0  0  0  0  0  0  0  0  0  0  0
   -0.6855   15.8207   -6.5005 H   0  0  0  0  0  0  0  0  0  0  0  0
   -1.1089   15.6444   -3.6801 H   0  0  0  0  0  0  0  0  0  0  0  0
   -1.7657   14.5032   -4.8506 H   0  0  0  0  0  0  0  0  0  0  0  0
    0.8174   14.4209   -1.9486 H   0  0  0  0  0  0  0  0  0  0  0  0
    2.1448   14.3498   -3.1568 H   0  0  0  0  0  0  0  0  0  0  0  0
    1.0036   15.7370   -3.1568 H   0  0  0  0  0  0  0  0  0  0  0  0
   -1.1923   12.2904   -4.0491 H   0  0  0  0  0  0  0  0  0  0  0  0
   -1.7185   13.9020   -2.1095 H   0  0  0  0  0  0  0  0  0  0  0  0
   -2.0252   12.0933   -1.9555 H   0  0  0  0  0  0  0  0  0  0  0  0
   -0.9757   13.2816    0.1482 H   0  0  0  0  0  0  0  0  0  0  0  0
    2.2266   12.2630   -2.0903 H   0  0  0  0  0  0  0  0  0  0  0  0
    1.1853    9.5835   -0.9796 H   0  0  0  0  0  0  0  0  0  0  0  0
    2.6136    9.8292   -2.0801 H   0  0  0  0  0  0  0  0  0  0  0  0
    3.2946    9.4439    0.2666 H   0  0  0  0  0  0  0  0  0  0  0  0
    3.7721   11.0745   -0.3493 H   0  0  0  0  0  0  0  0  0  0  0  0
    2.9275   11.3127    1.8852 H   0  0  0  0  0  0  0  0  0  0  0  0
    1.0760    9.4920    0.9130 H   0  0  0  0  0  0  0  0  0  0  0  0
    3.0117   13.8673    1.4632 H   0  0  0  0  0  0  0  0  0  0  0  0
    3.4719   13.0639   -0.0761 H   0  0  0  0  0  0  0  0  0  0  0  0
    2.2272   14.3590   -0.0761 H   0  0  0  0  0  0  0  0  0  0  0  0
    1.2044   12.6462    2.8613 H   0  0  0  0  0  0  0  0  0  0  0  0
    0.6133   14.0377    1.8913 H   0  0  0  0  0  0  0  0  0  0  0  0
   -0.2994   12.4906    1.8913 H   0  0  0  0  0  0  0  0  0  0  0  0
   -0.4720    9.8663   -1.9435 H   0  0  0  0  0  0  0  0  0  0  0  0
   -1.2692   10.2887   -3.4968 H   0  0  0  0  0  0  0  0  0  0  0  0
    0.2320    9.3021   -3.4968 H   0  0  0  0  0  0  0  0  0  0  0  0
    2.4095   10.6956   -3.9551 H   0  0  0  0  0  0  0  0  0  0  0  0
    0.9291   10.7105   -5.0699 H   0  0  0  0  0  0  0  0  0  0  0  0
    2.7233   13.0435   -4.3469 H   0  0  0  0  0  0  0  0  0  0  0  0
    2.5019   12.2441   -5.9533 H   0  0  0  0  0  0  0  0  0  0  0  0
   -0.8498   12.1388   -5.7649 H   0  0  0  0  0  0  0  0  0  0  0  0
   -0.6166   13.4603   -6.9590 H   0  0  0  0  0  0  0  0  0  0  0  0
    0.4887   12.0443   -6.9590 H   0  0  0  0  0  0  0  0  0  0  0  0
  1  2  1  0
  2  3  1  0
  3  4  1  0
  4  5  1  0
  5  6  1  0
  6  7  1  0
  7  8  1  0
  7  9  1  0
  2 10  1  0
 10 11  1  0
 11 12  1  0
 12 13  1  0
 13 14  1  1
 13 15  1  0
 15 16  1  0
 16 17  1  0
 17 18  2  0
 18 19  1  0
 19 20  1  0
 20 21  1  0
 21 22  1  0
 22 23  1  0
 22 24  1  0
 24 25  1  0
 24 26  1  0
 19 27  1  0
 27 28  1  1
 27 29  1  0
 29 30  1  0
 30 31  1  0
 31 32  1  6
  7  5  1  0
 31 10  1  0
 31 13  1  0
 27 15  1  0
 24 18  1  0
  1 33  1  0
  1 34  1  0
  1 35  1  0
  2 36  1  6
  3 37  1  0
  3 38  1  0
  4 39  1  0
  4 40  1  0
  5 41  1  6
  8 42  1  0
  8 43  1  0
  8 44  1  0
  9 45  1  0
  9 46  1  0
  9 47  1  0
 10 48  1  1
 11 49  1  0
 11 50  1  0
 12 51  1  0
 12 52  1  0
 14 53  1  0
 14 54  1  0
 14 55  1  0
 15 56  1  6
 16 57  1  0
 16 58  1  0
 17 59  1  0
 19 60  1  6
 20 61  1  0
 20 62  1  0
 21 63  1  0
 21 64  1  0
 22 65  1  1
 23 66  1  0
 25 67  1  0
 25 68  1  0
 25 69  1  0
 26 70  1  0
 26 71  1  0
 26 72  1  0
 28 73  1  0
 28 74  1  0
 28 75  1  0
 29 76  1  0
 29 77  1  0
 30 78  1  0
 30 79  1  0
 32 80  1  0
 32 81  1  0
 32 82  1  0
M  END
>  <meeko>  (17) 
{"is_sidechain": [false], "intermolecular_energy": 2.731, "internal_energy": -0.839}

$$$$
EPH_relaxed_0001_pdb2pqr_Repair_166_r2_0001_out
     RDKit          3D

 82 86  0  0  0  0  0  0  0  0999 V2000
   -2.5200    7.7980   -0.0990 C   0  0  0  0  0  0  0  0  0  0  0  0
   -3.1830    9.1770   -0.1510 C   0  0  2  0  0  0  0  0  0  0  0  0
   -4.6440    9.1020   -0.6360 C   0  0  0  0  0  0  0  0  0  0  0  0
   -5.2150    7.6810   -0.6520 C   0  0  0  0  0  0  0  0  0  0  0  0
   -6.0210    7.4220   -1.8890 C   0  0  2  0  0  0  0  0  0  0  0  0
   -6.9610    8.4520   -2.2180 O   0  0  0  0  0  0  0  0  0  0  0  0
   -7.5170    7.1720   -1.8750 C   0  0  0  0  0  0  0  0  0  0  0  0
   -8.2960    7.1700   -0.5970 C   0  0  0  0  0  0  0  0  0  0  0  0
   -8.1330    6.4530   -3.0340 C   0  0  0  0  0  0  0  0  0  0  0  0
   -2.3810   10.1050   -1.0560 C   0  0  1  0  0  0  0  0  0  0  0  0
   -2.9740   11.5380   -1.1190 C   0  0  0  0  0  0  0  0  0  0  0  0
   -1.7760   12.5140   -1.2420 C   0  0  0  0  0  0  0  0  0  0  0  0
   -0.5680   11.6080   -1.5790 C   0  0  1  0  0  0  0  0  0  0  0  0
   -0.6770   11.3480   -3.1140 C   0  0  0  0  0  0  0  0  0  0  0  0
    0.8410   12.1600   -1.1850 C   0  0  2  0  0  0  0  0  0  0  0  0
    1.2520   13.4620   -1.8930 C   0  0  0  0  0  0  0  0  0  0  0  0
    1.9910   13.2840   -3.1770 C   0  0  0  0  0  0  0  0  0  0  0  0
    2.5610   12.1400   -3.6000 C   0  0  0  0  0  0  0  0  0  0  0  0
    2.5770   10.8920   -2.7070 C   0  0  1  0  0  0  0  0  0  0  0  0
    3.9980   10.2710   -2.7110 C   0  0  0  0  0  0  0  0  0  0  0  0
    4.5090    9.9870   -4.1210 C   0  0  0  0  0  0  0  0  0  0  0  0
    4.5340   11.2630   -4.9590 C   0  0  2  0  0  0  0  0  0  0  0  0
    5.5170   12.1510   -4.4180 O   0  0  0  0  0  0  0  0  0  0  0  0
    3.1570   11.9820   -5.0200 C   0  0  0  0  0  0  0  0  0  0  0  0
    2.1700   11.1460   -5.8710 C   0  0  0  0  0  0  0  0  0  0  0  0
    3.3530   13.3240   -5.7760 C   0  0  0  0  0  0  0  0  0  0  0  0
    1.9980   11.0820   -1.2400 C   0  0  1  0  0  0  0  0  0  0  0  0
    3.1220   11.5870   -0.2850 C   0  0  0  0  0  0  0  0  0  0  0  0
    1.5380    9.6820   -0.6840 C   0  0  0  0  0  0  0  0  0  0  0  0
    0.0960    9.2460   -1.0060 C   0  0  0  0  0  0  0  0  0  0  0  0
   -0.9000   10.3620   -0.6790 C   0  0  2  0  0  0  0  0  0  0  0  0
   -0.8290   10.6300    0.8630 C   0  0  0  0  0  0  0  0  0  0  0  0
   -2.3765    7.4995    0.9499 H   0  0  0  0  0  0  0  0  0  0  0  0
   -3.1630    7.0627   -0.6048 H   0  0  0  0  0  0  0  0  0  0  0  0
   -1.5441    7.8410   -0.6048 H   0  0  0  0  0  0  0  0  0  0  0  0
   -3.1962    9.5762    0.8739 H   0  0  0  0  0  0  0  0  0  0  0  0
   -5.2638    9.7179    0.0322 H   0  0  0  0  0  0  0  0  0  0  0  0
   -4.6573    9.4656   -1.6741 H   0  0  0  0  0  0  0  0  0  0  0  0
   -4.3835    6.9621   -0.6112 H   0  0  0  0  0  0  0  0  0  0  0  0
   -5.8771    7.5673    0.2191 H   0  0  0  0  0  0  0  0  0  0  0  0
   -5.1854    6.8721   -2.3465 H   0  0  0  0  0  0  0  0  0  0  0  0
   -7.6013    7.1718    0.2559 H   0  0  0  0  0  0  0  0  0  0  0  0
   -8.9319    8.0665   -0.5538 H   0  0  0  0  0  0  0  0  0  0  0  0
   -8.9273    6.2702   -0.5538 H   0  0  0  0  0  0  0  0  0  0  0  0
   -8.8065    5.6669   -2.6618 H   0  0  0  0  0  0  0  0  0  0  0  0
   -8.7047    7.1662   -3.6460 H   0  0  0  0  0  0  0  0  0  0  0  0
   -7.3406    5.9975   -3.6460 H   0  0  0  0  0  0  0  0  0  0  0  0
   -2.4371    9.5377   -1.9967 H   0  0  0  0  0  0  0  0  0  0  0  0
   -3.6339   11.6365   -1.9935 H   0  0  0  0  0  0  0  0  0  0  0  0
   -3.5712   11.7576   -0.2217 H   0  0  0  0  0  0  0  0  0  0  0  0
   -1.9505   13.2437   -2.0464 H   0  0  0  0  0  0  0  0  0  0  0  0
   -1.6167   13.0971   -0.3230 H   0  0  0  0  0  0  0  0  0  0  0  0
   -1.0970   10.3462   -3.2873 H   0  0  0  0  0  0  0  0  0  0  0  0
   -1.3337   12.1045   -3.5683 H   0  0  0  0  0  0  0  0  0  0  0  0
    0.3229   11.4100   -3.5683 H   0  0  0  0  0  0  0  0  0  0  0  0
    0.7030   12.4259   -0.1266 H   0  0  0  0  0  0  0  0  0  0  0  0
    0.3384   14.0372   -2.1037 H   0  0  0  0  0  0  0  0  0  0  0  0
    1.9470   13.9729   -1.2105 H   0  0  0  0  0  0  0  0  0  0  0  0
    2.0774   14.1621   -3.8338 H   0  0  0  0  0  0  0  0  0  0  0  0
    1.8608   10.1878   -3.1555 H   0  0  0  0  0  0  0  0  0  0  0  0
    4.6899   10.9708   -2.2195 H   0  0  0  0  0  0  0  0  0  0  0  0
    3.9444    9.3115   -2.1758 H   0  0  0  0  0  0  0  0  0  0  0  0
    5.5278    9.5769   -4.0590 H   0  0  0  0  0  0  0  0  0  0  0  0
    3.8325    9.2646   -4.6010 H   0  0  0  0  0  0  0  0  0  0  0  0
    4.7841   10.9755   -5.9909 H   0  0  0  0  0  0  0  0  0  0  0  0
    5.0580   12.7780   -3.8350 H   0  0  0  0  0  0  0  0  0  0  0  0
    1.5013   10.5796   -5.2061 H   0  0  0  0  0  0  0  0  0  0  0  0
    1.5732   11.8176   -6.5057 H   0  0  0  0  0  0  0  0  0  0  0  0
    2.7342   10.4469   -6.5057 H   0  0  0  0  0  0  0  0  0  0  0  0
    3.4723   14.1406   -5.0487 H   0  0  0  0  0  0  0  0  0  0  0  0
    4.2515   13.2613   -6.4075 H   0  0  0  0  0  0  0  0  0  0  0  0
    2.4741   13.5209   -6.4075 H   0  0  0  0  0  0  0  0  0  0  0  0
    2.8069   11.4454    0.7593 H   0  0  0  0  0  0  0  0  0  0  0  0
    4.0442   11.0167   -0.4702 H   0  0  0  0  0  0  0  0  0  0  0  0
    3.3080   12.6552   -0.4702 H   0  0  0  0  0  0  0  0  0  0  0  0
    2.2159    8.9208   -1.0975 H   0  0  0  0  0  0  0  0  0  0  0  0
    1.5704    9.7826    0.4109 H   0  0  0  0  0  0  0  0  0  0  0  0
    0.0244    9.0020   -2.0762 H   0  0  0  0  0  0  0  0  0  0  0  0
   -0.1495    8.3662   -0.3931 H   0  0  0  0  0  0  0  0  0  0  0  0
   -1.0738    9.7060    1.4074 H   0  0  0  0  0  0  0  0  0  0  0  0
    0.1865   10.9561    1.1321 H   0  0  0  0  0  0  0  0  0  0  0  0
   -1.5499   11.4161    1.1321 H   0  0  0  0  0  0  0  0  0  0  0  0
  1  2  1  0
  2  3  1  0
  3  4  1  0
  4  5  1  0
  5  6  1  0
  6  7  1  0
  7  8  1  0
  7  9  1  0
  2 10  1  0
 10 11  1  0
 11 12  1  0
 12 13  1  0
 13 14  1  6
 13 15  1  0
 15 16  1  0
 16 17  1  0
 17 18  2  0
 18 19  1  0
 19 20  1  0
 20 21  1  0
 21 22  1  0
 22 23  1  0
 22 24  1  0
 24 25  1  0
 24 26  1  0
 19 27  1  0
 27 28  1  1
 27 29  1  0
 29 30  1  0
 30 31  1  0
 31 32  1  1
  7  5  1  0
 31 10  1  0
 31 13  1  0
 27 15  1  0
 24 18  1  0
  1 33  1  0
  1 34  1  0
  1 35  1  0
  2 36  1  1
  3 37  1  0
  3 38  1  0
  4 39  1  0
  4 40  1  0
  5 41  1  6
  8 42  1  0
  8 43  1  0
  8 44  1  0
  9 45  1  0
  9 46  1  0
  9 47  1  0
 10 48  1  6
 11 49  1  0
 11 50  1  0
 12 51  1  0
 12 52  1  0
 14 53  1  0
 14 54  1  0
 14 55  1  0
 15 56  1  1
 16 57  1  0
 16 58  1  0
 17 59  1  0
 19 60  1  6
 20 61  1  0
 20 62  1  0
 21 63  1  0
 21 64  1  0
 22 65  1  6
 23 66  1  0
 25 67  1  0
 25 68  1  0
 25 69  1  0
 26 70  1  0
 26 71  1  0
 26 72  1  0
 28 73  1  0
 28 74  1  0
 28 75  1  0
 29 76  1  0
 29 77  1  0
 30 78  1  0
 30 79  1  0
 32 80  1  0
 32 81  1  0
 32 82  1  0
M  END
>  <meeko>  (18) 
{"is_sidechain": [false], "intermolecular_energy": 2.731, "internal_energy": -0.839}

$$$$
