EPH_relaxed_0001_pdb2pqr_Repair_328_r2_0001_out
     RDKit          3D

 82 86  0  0  0  0  0  0  0  0999 V2000
    4.6590   17.3140   -0.7000 C   0  0  0  0  0  0  0  0  0  0  0  0
    3.3090   17.9630   -0.3820 C   0  0  2  0  0  0  0  0  0  0  0  0
    3.3080   18.6560    0.9950 C   0  0  0  0  0  0  0  0  0  0  0  0
    4.7050   18.8330    1.5960 C   0  0  0  0  0  0  0  0  0  0  0  0
    4.6440   19.3860    2.9880 C   0  0  2  0  0  0  0  0  0  0  0  0
    5.7670   20.1940    3.3610 O   0  0  0  0  0  0  0  0  0  0  0  0
    5.5950   18.9710    4.0950 C   0  0  0  0  0  0  0  0  0  0  0  0
    6.6750   17.9630    3.8590 C   0  0  0  0  0  0  0  0  0  0  0  0
    5.1710   19.1760    5.5160 C   0  0  0  0  0  0  0  0  0  0  0  0
    2.2020   16.9160   -0.4390 C   0  0  1  0  0  0  0  0  0  0  0  0
    0.8260   17.5220   -0.8220 C   0  0  0  0  0  0  0  0  0  0  0  0
    0.0900   16.4570   -1.6750 C   0  0  0  0  0  0  0  0  0  0  0  0
    0.9140   15.1630   -1.4780 C   0  0  1  0  0  0  0  0  0  0  0  0
    0.4320   14.5840   -0.1110 C   0  0  0  0  0  0  0  0  0  0  0  0
    0.8160   14.1010   -2.6220 C   0  0  2  0  0  0  0  0  0  0  0  0
   -0.5890   13.5160   -2.8500 C   0  0  0  0  0  0  0  0  0  0  0  0
   -0.9040   12.2870   -2.0630 C   0  0  0  0  0  0  0  0  0  0  0  0
   -0.0040   11.5140   -1.4270 C   0  0  0  0  0  0  0  0  0  0  0  0
    1.4990   11.7960   -1.5430 C   0  0  1  0  0  0  0  0  0  0  0  0
    2.2550   10.4720   -1.8280 C   0  0  0  0  0  0  0  0  0  0  0  0
    1.9420    9.3880   -0.8010 C   0  0  0  0  0  0  0  0  0  0  0  0
    0.4450    9.0940   -0.7560 C   0  0  2  0  0  0  0  0  0  0  0  0
    0.0550    8.5010   -1.9990 O   0  0  0  0  0  0  0  0  0  0  0  0
   -0.4200   10.3570   -0.4850 C   0  0  0  0  0  0  0  0  0  0  0  0
   -0.2160   10.8230    0.9770 C   0  0  0  0  0  0  0  0  0  0  0  0
   -1.9130    9.9480   -0.6060 C   0  0  0  0  0  0  0  0  0  0  0  0
    1.9110   12.9610   -2.5430 C   0  0  1  0  0  0  0  0  0  0  0  0
    2.0650   12.3920   -3.9870 C   0  0  0  0  0  0  0  0  0  0  0  0
    3.3250   13.5170   -2.1310 C   0  0  0  0  0  0  0  0  0  0  0  0
    3.3490   14.6480   -1.0850 C   0  0  0  0  0  0  0  0  0  0  0  0
    2.3670   15.7620   -1.4600 C   0  0  2  0  0  0  0  0  0  0  0  0
    2.8400   16.3780   -2.8210 C   0  0  0  0  0  0  0  0  0  0  0  0
    5.1764   17.0653    0.2383 H   0  0  0  0  0  0  0  0  0  0  0  0
    4.4961   16.3958   -1.2834 H   0  0  0  0  0  0  0  0  0  0  0  0
    5.2743   18.0147   -1.2834 H   0  0  0  0  0  0  0  0  0  0  0  0
    3.1274   18.7376   -1.1416 H   0  0  0  0  0  0  0  0  0  0  0  0
    2.8495   19.6497    0.8834 H   0  0  0  0  0  0  0  0  0  0  0  0
    2.7429   18.0076    1.6807 H   0  0  0  0  0  0  0  0  0  0  0  0
    5.2081   17.8551    1.6227 H   0  0  0  0  0  0  0  0  0  0  0  0
    5.2605   19.5452    0.9682 H   0  0  0  0  0  0  0  0  0  0  0  0
    3.5466   19.4454    2.9416 H   0  0  0  0  0  0  0  0  0  0  0  0
    7.0593   17.6043    4.8253 H   0  0  0  0  0  0  0  0  0  0  0  0
    6.2671   17.1152    3.2891 H   0  0  0  0  0  0  0  0  0  0  0  0
    7.4927   18.4284    3.2891 H   0  0  0  0  0  0  0  0  0  0  0  0
    5.9534   18.7977    6.1903 H   0  0  0  0  0  0  0  0  0  0  0  0
    5.0150   20.2491    5.7009 H   0  0  0  0  0  0  0  0  0  0  0  0
    4.2331   18.6319    5.7009 H   0  0  0  0  0  0  0  0  0  0  0  0
    2.2662   16.5233    0.5865 H   0  0  0  0  0  0  0  0  0  0  0  0
    0.2459   17.7479    0.0849 H   0  0  0  0  0  0  0  0  0  0  0  0
    0.9499   18.4603   -1.3826 H   0  0  0  0  0  0  0  0  0  0  0  0
   -0.9414   16.3188   -1.3185 H   0  0  0  0  0  0  0  0  0  0  0  0
    0.0162   16.7479   -2.7333 H   0  0  0  0  0  0  0  0  0  0  0  0
    0.8999   15.1460    0.7107 H   0  0  0  0  0  0  0  0  0  0  0  0
   -0.6621   14.6736   -0.0402 H   0  0  0  0  0  0  0  0  0  0  0  0
    0.7185   13.5243   -0.0402 H   0  0  0  0  0  0  0  0  0  0  0  0
    1.0403   14.6976   -3.5185 H   0  0  0  0  0  0  0  0  0  0  0  0
   -1.3259   14.2881   -2.5838 H   0  0  0  0  0  0  0  0  0  0  0  0
   -0.6260   13.2174   -3.9080 H   0  0  0  0  0  0  0  0  0  0  0  0
   -1.9605   11.9880   -1.9973 H   0  0  0  0  0  0  0  0  0  0  0  0
    1.8080   12.1992   -0.5673 H   0  0  0  0  0  0  0  0  0  0  0  0
    1.9653   10.1079   -2.8247 H   0  0  0  0  0  0  0  0  0  0  0  0
    3.3330   10.6839   -1.7725 H   0  0  0  0  0  0  0  0  0  0  0  0
    2.4813    8.4685   -1.0726 H   0  0  0  0  0  0  0  0  0  0  0  0
    2.2599    9.7422    0.1907 H   0  0  0  0  0  0  0  0  0  0  0  0
    0.2684    8.4073    0.0850 H   0  0  0  0  0  0  0  0  0  0  0  0
    0.8040    7.9710   -2.3200 H   0  0  0  0  0  0  0  0  0  0  0  0
   -0.5605   10.0361    1.6641 H   0  0  0  0  0  0  0  0  0  0  0  0
    0.8515   11.0218    1.1529 H   0  0  0  0  0  0  0  0  0  0  0  0
   -0.7940   11.7422    1.1529 H   0  0  0  0  0  0  0  0  0  0  0  0
   -2.3435    9.8301    0.3994 H   0  0  0  0  0  0  0  0  0  0  0  0
   -2.4639   10.7283   -1.1515 H   0  0  0  0  0  0  0  0  0  0  0  0
   -1.9893    8.9959   -1.1515 H   0  0  0  0  0  0  0  0  0  0  0  0
    2.3520   11.3314   -3.9345 H   0  0  0  0  0  0  0  0  0  0  0  0
    1.1088   12.4870   -4.5225 H   0  0  0  0  0  0  0  0  0  0  0  0
    2.8427   12.9563   -4.5225 H   0  0  0  0  0  0  0  0  0  0  0  0
    3.9079   12.6767   -1.7259 H   0  0  0  0  0  0  0  0  0  0  0  0
    3.7367   13.9641   -3.0478 H   0  0  0  0  0  0  0  0  0  0  0  0
    3.0692   14.2368   -0.1039 H   0  0  0  0  0  0  0  0  0  0  0  0
    4.3635   15.0718   -1.0496 H   0  0  0  0  0  0  0  0  0  0  0  0
    3.4993   17.2366   -2.6254 H   0  0  0  0  0  0  0  0  0  0  0  0
    3.3888   15.6179   -3.3965 H   0  0  0  0  0  0  0  0  0  0  0  0
    1.9640   16.7119   -3.3965 H   0  0  0  0  0  0  0  0  0  0  0  0
  1  2  1  0
  2  3  1  0
  3  4  1  0
  4  5  1  0
  5  6  1  0
  6  7  1  0
  7  8  1  0
  7  9  1  0
  2 10  1  0
 10 11  1  0
 11 12  1  0
 12 13  1  0
 13 14  1  1
 13 15  1  0
 15 16  1  0
 16 17  1  0
 17 18  2  0
 18 19  1  0
 19 20  1  0
 20 21  1  0
 21 22  1  0
 22 23  1  0
 22 24  1  0
 24 25  1  0
 24 26  1  0
 19 27  1  0
 27 28  1  6
 27 29  1  0
 29 30  1  0
 30 31  1  0
 31 32  1  6
  7  5  1  0
 31 10  1  0
 31 13  1  0
 27 15  1  0
 24 18  1  0
  1 33  1  0
  1 34  1  0
  1 35  1  0
  2 36  1  6
  3 37  1  0
  3 38  1  0
  4 39  1  0
  4 40  1  0
  5 41  1  1
  8 42  1  0
  8 43  1  0
  8 44  1  0
  9 45  1  0
  9 46  1  0
  9 47  1  0
 10 48  1  1
 11 49  1  0
 11 50  1  0
 12 51  1  0
 12 52  1  0
 14 53  1  0
 14 54  1  0
 14 55  1  0
 15 56  1  6
 16 57  1  0
 16 58  1  0
 17 59  1  0
 19 60  1  1
 20 61  1  0
 20 62  1  0
 21 63  1  0
 21 64  1  0
 22 65  1  1
 23 66  1  0
 25 67  1  0
 25 68  1  0
 25 69  1  0
 26 70  1  0
 26 71  1  0
 26 72  1  0
 28 73  1  0
 28 74  1  0
 28 75  1  0
 29 76  1  0
 29 77  1  0
 30 78  1  0
 30 79  1  0
 32 80  1  0
 32 81  1  0
 32 82  1  0
M  END
>  <meeko>  (1) 
{"is_sidechain": [false], "intermolecular_energy": 2.731, "internal_energy": -0.839}

$$$$
EPH_relaxed_0001_pdb2pqr_Repair_328_r2_0001_out
     RDKit          3D

 82 86  0  0  0  0  0  0  0  0999 V2000
    0.8950   18.2630   -0.2570 C   0  0  0  0  0  0  0  0  0  0  0  0
    1.8160   17.0480   -0.3990 C   0  0  2  0  0  0  0  0  0  0  0  0
    3.0810   17.3710   -1.2200 C   0  0  0  0  0  0  0  0  0  0  0  0
    4.2900   17.7560   -0.3620 C   0  0  0  0  0  0  0  0  0  0  0  0
    3.8730   18.2890    0.9750 C   0  0  2  0  0  0  0  0  0  0  0  0
    3.8280   19.7190    1.0630 O   0  0  0  0  0  0  0  0  0  0  0  0
    4.8000   19.0630    1.8940 C   0  0  0  0  0  0  0  0  0  0  0  0
    6.2180   19.3470    1.5110 C   0  0  0  0  0  0  0  0  0  0  0  0
    4.4790   19.1170    3.3550 C   0  0  0  0  0  0  0  0  0  0  0  0
    1.0580   15.8940   -1.0430 C   0  0  1  0  0  0  0  0  0  0  0  0
    0.5820   16.2210   -2.4840 C   0  0  0  0  0  0  0  0  0  0  0  0
    0.6700   14.9030   -3.2950 C   0  0  0  0  0  0  0  0  0  0  0  0
    0.8700   13.8010   -2.2280 C   0  0  1  0  0  0  0  0  0  0  0  0
   -0.5600   13.5140   -1.6740 C   0  0  0  0  0  0  0  0  0  0  0  0
    1.5770   12.4930   -2.7100 C   0  0  2  0  0  0  0  0  0  0  0  0
    0.8230   11.7070   -3.7970 C   0  0  0  0  0  0  0  0  0  0  0  0
   -0.1280   10.6730   -3.2920 C   0  0  0  0  0  0  0  0  0  0  0  0
   -0.1630   10.1880   -2.0370 C   0  0  0  0  0  0  0  0  0  0  0  0
    0.8850   10.6120   -0.9990 C   0  0  1  0  0  0  0  0  0  0  0  0
    1.4150    9.3580   -0.2570 C   0  0  0  0  0  0  0  0  0  0  0  0
    0.2950    8.5220    0.3540 C   0  0  0  0  0  0  0  0  0  0  0  0
   -0.6950    8.0700   -0.7170 C   0  0  2  0  0  0  0  0  0  0  0  0
   -0.0350    7.1550   -1.5970 O   0  0  0  0  0  0  0  0  0  0  0  0
   -1.2890    9.2490   -1.5380 C   0  0  0  0  0  0  0  0  0  0  0  0
   -2.2500   10.0730   -0.6460 C   0  0  0  0  0  0  0  0  0  0  0  0
   -2.1600    8.6480   -2.6740 C   0  0  0  0  0  0  0  0  0  0  0  0
    2.0550   11.5440   -1.5370 C   0  0  1  0  0  0  0  0  0  0  0  0
    3.2090   10.6690   -2.1140 C   0  0  0  0  0  0  0  0  0  0  0  0
    2.6680   12.3480   -0.3290 C   0  0  0  0  0  0  0  0  0  0  0  0
    1.9990   13.6900    0.0220 C   0  0  0  0  0  0  0  0  0  0  0  0
    1.8190   14.5570   -1.2280 C   0  0  2  0  0  0  0  0  0  0  0  0
    3.2440   14.8820   -1.7940 C   0  0  0  0  0  0  0  0  0  0  0  0
    0.7326   18.4773    0.8096 H   0  0  0  0  0  0  0  0  0  0  0  0
    1.3612   19.1348   -0.7393 H   0  0  0  0  0  0  0  0  0  0  0  0
   -0.0703   18.0497   -0.7393 H   0  0  0  0  0  0  0  0  0  0  0  0
    2.1426   16.7604    0.6113 H   0  0  0  0  0  0  0  0  0  0  0  0
    3.3452   16.4839   -1.8143 H   0  0  0  0  0  0  0  0  0  0  0  0
    2.8427   18.2415   -1.8488 H   0  0  0  0  0  0  0  0  0  0  0  0
    4.9180   16.8656   -0.2108 H   0  0  0  0  0  0  0  0  0  0  0  0
    4.8464   18.5458   -0.8879 H   0  0  0  0  0  0  0  0  0  0  0  0
    3.2240   17.4174    1.1454 H   0  0  0  0  0  0  0  0  0  0  0  0
    6.8259   19.4687    2.4197 H   0  0  0  0  0  0  0  0  0  0  0  0
    6.6118   18.5099    0.9159 H   0  0  0  0  0  0  0  0  0  0  0  0
    6.2590   20.2712    0.9159 H   0  0  0  0  0  0  0  0  0  0  0  0
    5.3986   18.9623    3.9384 H   0  0  0  0  0  0  0  0  0  0  0  0
    4.0502   20.0999    3.6001 H   0  0  0  0  0  0  0  0  0  0  0  0
    3.7522   18.3285    3.6001 H   0  0  0  0  0  0  0  0  0  0  0  0
    0.2522   15.7696   -0.3047 H   0  0  0  0  0  0  0  0  0  0  0  0
   -0.4555   16.5861   -2.4663 H   0  0  0  0  0  0  0  0  0  0  0  0
    1.2059   17.0055   -2.9371 H   0  0  0  0  0  0  0  0  0  0  0  0
   -0.2580   14.7322   -3.8604 H   0  0  0  0  0  0  0  0  0  0  0  0
    1.4849   14.9213   -4.0337 H   0  0  0  0  0  0  0  0  0  0  0  0
   -0.5350   13.5190   -0.5743 H   0  0  0  0  0  0  0  0  0  0  0  0
   -1.2533   14.2909   -2.0286 H   0  0  0  0  0  0  0  0  0  0  0  0
   -0.8999   12.5297   -2.0286 H   0  0  0  0  0  0  0  0  0  0  0  0
    2.4844   12.8806   -3.1962 H   0  0  0  0  0  0  0  0  0  0  0  0
    0.2526   12.4265   -4.4028 H   0  0  0  0  0  0  0  0  0  0  0  0
    1.5905   11.1624   -4.3666 H   0  0  0  0  0  0  0  0  0  0  0  0
   -0.8628   10.2734   -4.0065 H   0  0  0  0  0  0  0  0  0  0  0  0
    0.3628   11.2714   -0.2901 H   0  0  0  0  0  0  0  0  0  0  0  0
    1.9707    8.7338   -0.9723 H   0  0  0  0  0  0  0  0  0  0  0  0
    2.0592    9.7041    0.5647 H   0  0  0  0  0  0  0  0  0  0  0  0
    0.7306    7.6358    0.8386 H   0  0  0  0  0  0  0  0  0  0  0  0
   -0.2415    9.1383    1.0904 H   0  0  0  0  0  0  0  0  0  0  0  0
   -1.5402    7.5880   -0.2039 H   0  0  0  0  0  0  0  0  0  0  0  0
   -0.5110    7.1680   -2.4450 H   0  0  0  0  0  0  0  0  0  0  0  0
   -2.0240    9.8793    0.4130 H   0  0  0  0  0  0  0  0  0  0  0  0
   -2.1197   11.1443   -0.8587 H   0  0  0  0  0  0  0  0  0  0  0  0
   -3.2889    9.7807   -0.8587 H   0  0  0  0  0  0  0  0  0  0  0  0
   -2.9903    8.0751   -2.2354 H   0  0  0  0  0  0  0  0  0  0  0  0
   -2.5635    9.4608   -3.2957 H   0  0  0  0  0  0  0  0  0  0  0  0
   -1.5433    7.9823   -3.2957 H   0  0  0  0  0  0  0  0  0  0  0  0
    3.7863   10.2313   -1.2863 H   0  0  0  0  0  0  0  0  0  0  0  0
    2.7848    9.8635   -2.7314 H   0  0  0  0  0  0  0  0  0  0  0  0
    3.8701   11.2948   -2.7314 H   0  0  0  0  0  0  0  0  0  0  0  0
    2.6117   11.7049    0.5617 H   0  0  0  0  0  0  0  0  0  0  0  0
    3.6888   12.6089   -0.6450 H   0  0  0  0  0  0  0  0  0  0  0  0
    1.0132   13.4944    0.4692 H   0  0  0  0  0  0  0  0  0  0  0  0
    2.6442   14.2282    0.7319 H   0  0  0  0  0  0  0  0  0  0  0  0
    3.9425   15.0413   -0.9593 H   0  0  0  0  0  0  0  0  0  0  0  0
    3.5945   14.0407   -2.4100 H   0  0  0  0  0  0  0  0  0  0  0  0
    3.1951   15.7921   -2.4100 H   0  0  0  0  0  0  0  0  0  0  0  0
  1  2  1  0
  2  3  1  0
  3  4  1  0
  4  5  1  0
  5  6  1  0
  6  7  1  0
  7  8  1  0
  7  9  1  0
  2 10  1  0
 10 11  1  0
 11 12  1  0
 12 13  1  0
 13 14  1  1
 13 15  1  0
 15 16  1  0
 16 17  1  0
 17 18  2  0
 18 19  1  0
 19 20  1  0
 20 21  1  0
 21 22  1  0
 22 23  1  0
 22 24  1  0
 24 25  1  0
 24 26  1  0
 19 27  1  0
 27 28  1  6
 27 29  1  0
 29 30  1  0
 30 31  1  0
 31 32  1  6
  7  5  1  0
 31 10  1  0
 31 13  1  0
 27 15  1  0
 24 18  1  0
  1 33  1  0
  1 34  1  0
  1 35  1  0
  2 36  1  1
  3 37  1  0
  3 38  1  0
  4 39  1  0
  4 40  1  0
  5 41  1  1
  8 42  1  0
  8 43  1  0
  8 44  1  0
  9 45  1  0
  9 46  1  0
  9 47  1  0
 10 48  1  1
 11 49  1  0
 11 50  1  0
 12 51  1  0
 12 52  1  0
 14 53  1  0
 14 54  1  0
 14 55  1  0
 15 56  1  6
 16 57  1  0
 16 58  1  0
 17 59  1  0
 19 60  1  1
 20 61  1  0
 20 62  1  0
 21 63  1  0
 21 64  1  0
 22 65  1  1
 23 66  1  0
 25 67  1  0
 25 68  1  0
 25 69  1  0
 26 70  1  0
 26 71  1  0
 26 72  1  0
 28 73  1  0
 28 74  1  0
 28 75  1  0
 29 76  1  0
 29 77  1  0
 30 78  1  0
 30 79  1  0
 32 80  1  0
 32 81  1  0
 32 82  1  0
M  END
>  <meeko>  (2) 
{"is_sidechain": [false], "intermolecular_energy": 2.731, "internal_energy": -0.839}

$$$$
EPH_relaxed_0001_pdb2pqr_Repair_328_r2_0001_out
     RDKit          3D

 82 86  0  0  0  0  0  0  0  0999 V2000
    3.5830   16.8630   -0.9320 C   0  0  0  0  0  0  0  0  0  0  0  0
    2.1060   17.2590   -1.0020 C   0  0  2  0  0  0  0  0  0  0  0  0
    1.5700   17.7450    0.3600 C   0  0  0  0  0  0  0  0  0  0  0  0
    1.0360   19.1790    0.3360 C   0  0  0  0  0  0  0  0  0  0  0  0
   -0.4400   19.2260    0.5910 C   0  0  2  0  0  0  0  0  0  0  0  0
   -1.1740   18.1110    0.0670 O   0  0  0  0  0  0  0  0  0  0  0  0
   -1.4740   19.3940   -0.5060 C   0  0  0  0  0  0  0  0  0  0  0  0
   -1.0740   19.5280   -1.9420 C   0  0  0  0  0  0  0  0  0  0  0  0
   -2.8280   19.9160   -0.1390 C   0  0  0  0  0  0  0  0  0  0  0  0
    1.2750   16.0820   -1.4980 C   0  0  1  0  0  0  0  0  0  0  0  0
    0.6830   16.3230   -2.9120 C   0  0  0  0  0  0  0  0  0  0  0  0
    0.6770   14.9520   -3.6350 C   0  0  0  0  0  0  0  0  0  0  0  0
    0.9500   13.9200   -2.5160 C   0  0  1  0  0  0  0  0  0  0  0  0
   -0.4320   13.7020   -1.8250 C   0  0  0  0  0  0  0  0  0  0  0  0
    1.5900   12.5660   -2.9650 C   0  0  2  0  0  0  0  0  0  0  0  0
    0.7320   11.7260   -3.9280 C   0  0  0  0  0  0  0  0  0  0  0  0
   -0.1900   10.7510   -3.2740 C   0  0  0  0  0  0  0  0  0  0  0  0
   -0.1250   10.3520   -1.9900 C   0  0  0  0  0  0  0  0  0  0  0  0
    1.0150   10.8210   -1.0770 C   0  0  1  0  0  0  0  0  0  0  0  0
    1.5860    9.6070   -0.2980 C   0  0  0  0  0  0  0  0  0  0  0  0
    0.5080    8.8400    0.4620 C   0  0  0  0  0  0  0  0  0  0  0  0
   -0.5770    8.3400   -0.4880 C   0  0  2  0  0  0  0  0  0  0  0  0
   -0.0120    7.3530   -1.3560 O   0  0  0  0  0  0  0  0  0  0  0  0
   -1.2190    9.4740   -1.3350 C   0  0  0  0  0  0  0  0  0  0  0  0
   -2.0860   10.3780   -0.4230 C   0  0  0  0  0  0  0  0  0  0  0  0
   -2.1950    8.8190   -2.3490 C   0  0  0  0  0  0  0  0  0  0  0  0
    2.1510   11.6870   -1.7740 C   0  0  1  0  0  0  0  0  0  0  0  0
    3.2360   10.7490   -2.3860 C   0  0  0  0  0  0  0  0  0  0  0  0
    2.8790   12.5550   -0.6810 C   0  0  0  0  0  0  0  0  0  0  0  0
    2.2670   13.9340   -0.3670 C   0  0  0  0  0  0  0  0  0  0  0  0
    1.9950   14.7190   -1.6540 C   0  0  2  0  0  0  0  0  0  0  0  0
    3.3700   14.9720   -2.3600 C   0  0  0  0  0  0  0  0  0  0  0  0
    3.8910   16.7804    0.1208 H   0  0  0  0  0  0  0  0  0  0  0  0
    3.7271   15.8945   -1.4332 H   0  0  0  0  0  0  0  0  0  0  0  0
    4.1923   17.6295   -1.4332 H   0  0  0  0  0  0  0  0  0  0  0  0
    2.0217   18.0977   -1.7087 H   0  0  0  0  0  0  0  0  0  0  0  0
    0.7540   17.0759    0.6706 H   0  0  0  0  0  0  0  0  0  0  0  0
    2.4166   17.7295    1.0622 H   0  0  0  0  0  0  0  0  0  0  0  0
    1.5506   19.7639    1.1126 H   0  0  0  0  0  0  0  0  0  0  0  0
    1.2245   19.5980   -0.6634 H   0  0  0  0  0  0  0  0  0  0  0  0
   -0.2822   19.7540    1.5430 H   0  0  0  0  0  0  0  0  0  0  0  0
   -0.0325   19.8769   -2.0015 H   0  0  0  0  0  0  0  0  0  0  0  0
   -1.1625   18.5512   -2.4400 H   0  0  0  0  0  0  0  0  0  0  0  0
   -1.7331   20.2544   -2.4400 H   0  0  0  0  0  0  0  0  0  0  0  0
   -2.9224   19.9524    0.9563 H   0  0  0  0  0  0  0  0  0  0  0  0
   -2.9552   20.9276   -0.5518 H   0  0  0  0  0  0  0  0  0  0  0  0
   -3.6014   19.2516   -0.5518 H   0  0  0  0  0  0  0  0  0  0  0  0
    0.5331   16.0253   -0.6878 H   0  0  0  0  0  0  0  0  0  0  0  0
   -0.3423   16.7132   -2.8317 H   0  0  0  0  0  0  0  0  0  0  0  0
    1.2797   17.0603   -3.4691 H   0  0  0  0  0  0  0  0  0  0  0  0
   -0.2996   14.7654   -4.1056 H   0  0  0  0  0  0  0  0  0  0  0  0
    1.4245   14.9017   -4.4404 H   0  0  0  0  0  0  0  0  0  0  0  0
   -0.3031   13.7223   -0.7328 H   0  0  0  0  0  0  0  0  0  0  0  0
   -1.1235   14.5022   -2.1276 H   0  0  0  0  0  0  0  0  0  0  0  0
   -0.8436   12.7278   -2.1276 H   0  0  0  0  0  0  0  0  0  0  0  0
    2.4585   12.8993   -3.5520 H   0  0  0  0  0  0  0  0  0  0  0  0
    0.1245   12.4160   -4.5320 H   0  0  0  0  0  0  0  0  0  0  0  0
    1.4382   11.1266   -4.5213 H   0  0  0  0  0  0  0  0  0  0  0  0
   -0.9908   10.3220   -3.8942 H   0  0  0  0  0  0  0  0  0  0  0  0
    0.5663   11.5390   -0.3747 H   0  0  0  0  0  0  0  0  0  0  0  0
    2.0670    8.9236   -1.0133 H   0  0  0  0  0  0  0  0  0  0  0  0
    2.3049    9.9921    0.4401 H   0  0  0  0  0  0  0  0  0  0  0  0
    0.9681    7.9787    0.9684 H   0  0  0  0  0  0  0  0  0  0  0  0
    0.0472    9.5166    1.1968 H   0  0  0  0  0  0  0  0  0  0  0  0
   -1.3825    7.9129    0.1275 H   0  0  0  0  0  0  0  0  0  0  0  0
    0.8970    7.1820   -1.0550 H   0  0  0  0  0  0  0  0  0  0  0  0
   -1.8686   10.1514    0.6312 H   0  0  0  0  0  0  0  0  0  0  0  0
   -1.8542   11.4339   -0.6264 H   0  0  0  0  0  0  0  0  0  0  0  0
   -3.1507   10.1905   -0.6264 H   0  0  0  0  0  0  0  0  0  0  0  0
   -2.9880    8.2868   -1.8032 H   0  0  0  0  0  0  0  0  0  0  0  0
   -2.6448    9.5988   -2.9811 H   0  0  0  0  0  0  0  0  0  0  0  0
   -1.6438    8.1073   -2.9811 H   0  0  0  0  0  0  0  0  0  0  0  0
    3.7990   10.2622   -1.5760 H   0  0  0  0  0  0  0  0  0  0  0  0
    2.7498    9.9821   -3.0068 H   0  0  0  0  0  0  0  0  0  0  0  0
    3.9246   11.3410   -3.0068 H   0  0  0  0  0  0  0  0  0  0  0  0
    2.8879   11.9744    0.2533 H   0  0  0  0  0  0  0  0  0  0  0  0
    3.8731   12.7702   -1.0998 H   0  0  0  0  0  0  0  0  0  0  0  0
    1.3204   13.7926    0.1751 H   0  0  0  0  0  0  0  0  0  0  0  0
    2.9808   14.5030    0.2467 H   0  0  0  0  0  0  0  0  0  0  0  0
    4.1517   15.1158   -1.5995 H   0  0  0  0  0  0  0  0  0  0  0  0
    3.6245   14.1056   -2.9882 H   0  0  0  0  0  0  0  0  0  0  0  0
    3.2995   15.8722   -2.9882 H   0  0  0  0  0  0  0  0  0  0  0  0
  1  2  1  0
  2  3  1  0
  3  4  1  0
  4  5  1  0
  5  6  1  0
  6  7  1  0
  7  8  1  0
  7  9  1  0
  2 10  1  0
 10 11  1  0
 11 12  1  0
 12 13  1  0
 13 14  1  1
 13 15  1  0
 15 16  1  0
 16 17  1  0
 17 18  2  0
 18 19  1  0
 19 20  1  0
 20 21  1  0
 21 22  1  0
 22 23  1  0
 22 24  1  0
 24 25  1  0
 24 26  1  0
 19 27  1  0
 27 28  1  6
 27 29  1  0
 29 30  1  0
 30 31  1  0
 31 32  1  6
  7  5  1  0
 31 10  1  0
 31 13  1  0
 27 15  1  0
 24 18  1  0
  1 33  1  0
  1 34  1  0
  1 35  1  0
  2 36  1  6
  3 37  1  0
  3 38  1  0
  4 39  1  0
  4 40  1  0
  5 41  1  1
  8 42  1  0
  8 43  1  0
  8 44  1  0
  9 45  1  0
  9 46  1  0
  9 47  1  0
 10 48  1  1
 11 49  1  0
 11 50  1  0
 12 51  1  0
 12 52  1  0
 14 53  1  0
 14 54  1  0
 14 55  1  0
 15 56  1  6
 16 57  1  0
 16 58  1  0
 17 59  1  0
 19 60  1  1
 20 61  1  0
 20 62  1  0
 21 63  1  0
 21 64  1  0
 22 65  1  1
 23 66  1  0
 25 67  1  0
 25 68  1  0
 25 69  1  0
 26 70  1  0
 26 71  1  0
 26 72  1  0
 28 73  1  0
 28 74  1  0
 28 75  1  0
 29 76  1  0
 29 77  1  0
 30 78  1  0
 30 79  1  0
 32 80  1  0
 32 81  1  0
 32 82  1  0
M  END
>  <meeko>  (3) 
{"is_sidechain": [false], "intermolecular_energy": 2.731, "internal_energy": -0.839}

$$$$
EPH_relaxed_0001_pdb2pqr_Repair_328_r2_0001_out
     RDKit          3D

 82 86  0  0  0  0  0  0  0  0999 V2000
   -1.6870    8.4250   -1.8380 C   0  0  0  0  0  0  0  0  0  0  0  0
   -2.1230    8.9890   -0.4830 C   0  0  2  0  0  0  0  0  0  0  0  0
   -3.6190    9.3620   -0.4630 C   0  0  0  0  0  0  0  0  0  0  0  0
   -4.5530    8.1560   -0.3320 C   0  0  0  0  0  0  0  0  0  0  0  0
   -5.2520    7.8530   -1.6220 C   0  0  2  0  0  0  0  0  0  0  0  0
   -6.3910    8.6810   -1.8950 O   0  0  0  0  0  0  0  0  0  0  0  0
   -6.6560    7.2820   -1.6990 C   0  0  0  0  0  0  0  0  0  0  0  0
   -7.4440    6.9800   -0.4630 C   0  0  0  0  0  0  0  0  0  0  0  0
   -7.0700    6.5670   -2.9470 C   0  0  0  0  0  0  0  0  0  0  0  0
   -1.2780   10.2060   -0.1290 C   0  0  1  0  0  0  0  0  0  0  0  0
   -0.2880    9.9300    1.0330 C   0  0  0  0  0  0  0  0  0  0  0  0
    0.9930   10.7510    0.7360 C   0  0  0  0  0  0  0  0  0  0  0  0
    0.5800   11.7210   -0.3970 C   0  0  1  0  0  0  0  0  0  0  0  0
   -0.1550   12.8920    0.3270 C   0  0  0  0  0  0  0  0  0  0  0  0
    1.7330   12.2420   -1.3150 C   0  0  2  0  0  0  0  0  0  0  0  0
    2.8100   13.0760   -0.6000 C   0  0  0  0  0  0  0  0  0  0  0  0
    2.5560   14.5470   -0.5600 C   0  0  0  0  0  0  0  0  0  0  0  0
    1.6590   15.2060   -1.3180 C   0  0  0  0  0  0  0  0  0  0  0  0
    0.8540   14.4760   -2.4000 C   0  0  1  0  0  0  0  0  0  0  0  0
    0.8740   15.3070   -3.7100 C   0  0  0  0  0  0  0  0  0  0  0  0
    0.4000   16.7420   -3.4990 C   0  0  0  0  0  0  0  0  0  0  0  0
    1.2620   17.4530   -2.4580 C   0  0  2  0  0  0  0  0  0  0  0  0
    2.5830   17.6100   -2.9830 O   0  0  0  0  0  0  0  0  0  0  0  0
    1.3250   16.7020   -1.0990 C   0  0  0  0  0  0  0  0  0  0  0  0
   -0.0480   16.7950   -0.3880 C   0  0  0  0  0  0  0  0  0  0  0  0
    2.3370   17.4490   -0.1880 C   0  0  0  0  0  0  0  0  0  0  0  0
    1.2370   12.9520   -2.6390 C   0  0  1  0  0  0  0  0  0  0  0  0
    2.4080   12.8510   -3.6640 C   0  0  0  0  0  0  0  0  0  0  0  0
    0.0110   12.2100   -3.2920 C   0  0  0  0  0  0  0  0  0  0  0  0
   -1.0330   11.6130   -2.3290 C   0  0  0  0  0  0  0  0  0  0  0  0
   -0.3570   10.7790   -1.2370 C   0  0  2  0  0  0  0  0  0  0  0  0
    0.3720    9.5790   -1.9330 C   0  0  0  0  0  0  0  0  0  0  0  0
   -1.0212    7.5638   -1.6796 H   0  0  0  0  0  0  0  0  0  0  0  0
   -2.5738    8.1037   -2.4039 H   0  0  0  0  0  0  0  0  0  0  0  0
   -1.1527    9.2023   -2.4039 H   0  0  0  0  0  0  0  0  0  0  0  0
   -1.9696    8.1998    0.2677 H   0  0  0  0  0  0  0  0  0  0  0  0
   -3.7979   10.0338    0.3894 H   0  0  0  0  0  0  0  0  0  0  0  0
   -3.8440    9.8391   -1.4283 H   0  0  0  0  0  0  0  0  0  0  0  0
   -3.9617    7.2782   -0.0324 H   0  0  0  0  0  0  0  0  0  0  0  0
   -5.3162    8.3942    0.4235 H   0  0  0  0  0  0  0  0  0  0  0  0
   -4.3048    7.5481   -2.0908 H   0  0  0  0  0  0  0  0  0  0  0  0
   -6.8373    7.2125    0.4246 H   0  0  0  0  0  0  0  0  0  0  0  0
   -8.3584    7.5914   -0.4526 H   0  0  0  0  0  0  0  0  0  0  0  0
   -7.7155    5.9141   -0.4526 H   0  0  0  0  0  0  0  0  0  0  0  0
   -7.6047    5.6435   -2.6802 H   0  0  0  0  0  0  0  0  0  0  0  0
   -7.7320    7.2161   -3.5390 H   0  0  0  0  0  0  0  0  0  0  0  0
   -6.1775    6.3160   -3.5390 H   0  0  0  0  0  0  0  0  0  0  0  0
   -2.0783   10.9235    0.1048 H   0  0  0  0  0  0  0  0  0  0  0  0
   -0.7285   10.2486    1.9893 H   0  0  0  0  0  0  0  0  0  0  0  0
   -0.0595    8.8567    1.1097 H   0  0  0  0  0  0  0  0  0  0  0  0
    1.3121   11.3094    1.6284 H   0  0  0  0  0  0  0  0  0  0  0  0
    1.8415   10.1120    0.4499 H   0  0  0  0  0  0  0  0  0  0  0  0
   -0.0719   12.7596    1.4158 H   0  0  0  0  0  0  0  0  0  0  0  0
    0.3051   13.8483    0.0377 H   0  0  0  0  0  0  0  0  0  0  0  0
   -1.2163   12.8934    0.0377 H   0  0  0  0  0  0  0  0  0  0  0  0
    2.2307   11.3097   -1.6201 H   0  0  0  0  0  0  0  0  0  0  0  0
    2.8860   12.7160    0.4366 H   0  0  0  0  0  0  0  0  0  0  0  0
    3.7340   12.9426   -1.1818 H   0  0  0  0  0  0  0  0  0  0  0  0
    3.1515   15.1421    0.1479 H   0  0  0  0  0  0  0  0  0  0  0  0
   -0.1751   14.4062   -2.0179 H   0  0  0  0  0  0  0  0  0  0  0  0
    1.9030   15.3289   -4.0982 H   0  0  0  0  0  0  0  0  0  0  0  0
    0.1839   14.8281   -4.4202 H   0  0  0  0  0  0  0  0  0  0  0  0
    0.4644   17.2865   -4.4526 H   0  0  0  0  0  0  0  0  0  0  0  0
   -0.6391   16.7196   -3.1389 H   0  0  0  0  0  0  0  0  0  0  0  0
    0.7970   18.4290   -2.2553 H   0  0  0  0  0  0  0  0  0  0  0  0
    2.8670   16.7470   -3.3280 H   0  0  0  0  0  0  0  0  0  0  0  0
    0.1019   16.7848    0.7017 H   0  0  0  0  0  0  0  0  0  0  0  0
   -0.5498   17.7292   -0.6804 H   0  0  0  0  0  0  0  0  0  0  0  0
   -0.6712   15.9370   -0.6804 H   0  0  0  0  0  0  0  0  0  0  0  0
    2.0865   17.2641    0.8670 H   0  0  0  0  0  0  0  0  0  0  0  0
    3.3540   17.0834   -0.3929 H   0  0  0  0  0  0  0  0  0  0  0  0
    2.2873   18.5286   -0.3929 H   0  0  0  0  0  0  0  0  0  0  0  0
    3.3624   12.7687   -3.1234 H   0  0  0  0  0  0  0  0  0  0  0  0
    2.2666   11.9617   -4.2958 H   0  0  0  0  0  0  0  0  0  0  0  0
    2.4209   13.7514   -4.2958 H   0  0  0  0  0  0  0  0  0  0  0  0
   -0.5082   12.9317   -3.9398 H   0  0  0  0  0  0  0  0  0  0  0  0
    0.4441   11.3465   -3.8182 H   0  0  0  0  0  0  0  0  0  0  0  0
   -1.5984   12.4311   -1.8589 H   0  0  0  0  0  0  0  0  0  0  0  0
   -1.7068   10.9598   -2.9029 H   0  0  0  0  0  0  0  0  0  0  0  0
    0.7817    8.9046   -1.1666 H   0  0  0  0  0  0  0  0  0  0  0  0
   -0.3446    9.0287   -2.5604 H   0  0  0  0  0  0  0  0  0  0  0  0
    1.1906    9.9614   -2.5604 H   0  0  0  0  0  0  0  0  0  0  0  0
  1  2  1  0
  2  3  1  0
  3  4  1  0
  4  5  1  0
  5  6  1  0
  6  7  1  0
  7  8  1  0
  7  9  1  0
  2 10  1  0
 10 11  1  0
 11 12  1  0
 12 13  1  0
 13 14  1  1
 13 15  1  0
 15 16  1  0
 16 17  1  0
 17 18  2  0
 18 19  1  0
 19 20  1  0
 20 21  1  0
 21 22  1  0
 22 23  1  0
 22 24  1  0
 24 25  1  0
 24 26  1  0
 19 27  1  0
 27 28  1  6
 27 29  1  0
 29 30  1  0
 30 31  1  0
 31 32  1  6
  7  5  1  0
 31 10  1  0
 31 13  1  0
 27 15  1  0
 24 18  1  0
  1 33  1  0
  1 34  1  0
  1 35  1  0
  2 36  1  1
  3 37  1  0
  3 38  1  0
  4 39  1  0
  4 40  1  0
  5 41  1  6
  8 42  1  0
  8 43  1  0
  8 44  1  0
  9 45  1  0
  9 46  1  0
  9 47  1  0
 10 48  1  1
 11 49  1  0
 11 50  1  0
 12 51  1  0
 12 52  1  0
 14 53  1  0
 14 54  1  0
 14 55  1  0
 15 56  1  6
 16 57  1  0
 16 58  1  0
 17 59  1  0
 19 60  1  1
 20 61  1  0
 20 62  1  0
 21 63  1  0
 21 64  1  0
 22 65  1  1
 23 66  1  0
 25 67  1  0
 25 68  1  0
 25 69  1  0
 26 70  1  0
 26 71  1  0
 26 72  1  0
 28 73  1  0
 28 74  1  0
 28 75  1  0
 29 76  1  0
 29 77  1  0
 30 78  1  0
 30 79  1  0
 32 80  1  0
 32 81  1  0
 32 82  1  0
M  END
>  <meeko>  (4) 
{"is_sidechain": [false], "intermolecular_energy": 2.731, "internal_energy": -0.839}

$$$$
EPH_relaxed_0001_pdb2pqr_Repair_328_r2_0001_out
     RDKit          3D

 82 86  0  0  0  0  0  0  0  0999 V2000
   -2.5450    7.5860   -3.0630 C   0  0  0  0  0  0  0  0  0  0  0  0
   -2.8700    7.8810   -1.5960 C   0  0  2  0  0  0  0  0  0  0  0  0
   -4.3870    7.8600   -1.3220 C   0  0  0  0  0  0  0  0  0  0  0  0
   -5.1040    6.6460   -1.9200 C   0  0  0  0  0  0  0  0  0  0  0  0
   -6.3000    7.0510   -2.7270 C   0  0  2  0  0  0  0  0  0  0  0  0
   -6.8790    8.3080   -2.3520 O   0  0  0  0  0  0  0  0  0  0  0  0
   -7.7020    7.1470   -2.1540 C   0  0  0  0  0  0  0  0  0  0  0  0
   -7.9810    6.8360   -0.7170 C   0  0  0  0  0  0  0  0  0  0  0  0
   -8.8660    7.0670   -3.0930 C   0  0  0  0  0  0  0  0  0  0  0  0
   -2.2870    9.2310   -1.1960 C   0  0  1  0  0  0  0  0  0  0  0  0
   -2.8100    9.7240    0.1790 C   0  0  0  0  0  0  0  0  0  0  0  0
   -1.6410   10.4830    0.8570 C   0  0  0  0  0  0  0  0  0  0  0  0
   -0.6040   10.6900   -0.2720 C   0  0  1  0  0  0  0  0  0  0  0  0
   -1.1170   11.9320   -1.0650 C   0  0  0  0  0  0  0  0  0  0  0  0
    0.8830   10.8660    0.1790 C   0  0  2  0  0  0  0  0  0  0  0  0
    1.1570   12.1030    1.0520 C   0  0  0  0  0  0  0  0  0  0  0  0
    1.5310   13.3410    0.3050 C   0  0  0  0  0  0  0  0  0  0  0  0
    1.9190   13.3900   -0.9830 C   0  0  0  0  0  0  0  0  0  0  0  0
    2.1070   12.1040   -1.7990 C   0  0  1  0  0  0  0  0  0  0  0  0
    3.4490   12.1740   -2.5740 C   0  0  0  0  0  0  0  0  0  0  0  0
    3.5650   13.4310   -3.4310 C   0  0  0  0  0  0  0  0  0  0  0  0
    3.4310   14.6890   -2.5760 C   0  0  2  0  0  0  0  0  0  0  0  0
    4.5600   14.7740   -1.7010 O   0  0  0  0  0  0  0  0  0  0  0  0
    2.1200   14.7250   -1.7410 C   0  0  0  0  0  0  0  0  0  0  0  0
    0.9090   14.9370   -2.6830 C   0  0  0  0  0  0  0  0  0  0  0  0
    2.1760   15.9730   -0.8190 C   0  0  0  0  0  0  0  0  0  0  0  0
    1.9350   10.7430   -0.9970 C   0  0  1  0  0  0  0  0  0  0  0  0
    3.2910   10.3390   -0.3400 C   0  0  0  0  0  0  0  0  0  0  0  0
    1.5710    9.5930   -2.0080 C   0  0  0  0  0  0  0  0  0  0  0  0
    0.0760    9.3900   -2.3210 C   0  0  0  0  0  0  0  0  0  0  0  0
   -0.7490    9.3210   -1.0330 C   0  0  2  0  0  0  0  0  0  0  0  0
   -0.2700    8.0680   -0.2240 C   0  0  0  0  0  0  0  0  0  0  0  0
   -1.7315    6.8476   -3.1170 H   0  0  0  0  0  0  0  0  0  0  0  0
   -3.4387    7.1842   -3.5629 H   0  0  0  0  0  0  0  0  0  0  0  0
   -2.2314    8.5143   -3.5629 H   0  0  0  0  0  0  0  0  0  0  0  0
   -2.4140    7.0848   -0.9893 H   0  0  0  0  0  0  0  0  0  0  0  0
   -4.5432    7.8539   -0.2332 H   0  0  0  0  0  0  0  0  0  0  0  0
   -4.8127    8.7534   -1.8022 H   0  0  0  0  0  0  0  0  0  0  0  0
   -4.4027    6.1023   -2.5701 H   0  0  0  0  0  0  0  0  0  0  0  0
   -5.4486    6.0090   -1.0921 H   0  0  0  0  0  0  0  0  0  0  0  0
   -5.8995    6.5446   -3.6176 H   0  0  0  0  0  0  0  0  0  0  0  0
   -7.3844    7.5011   -0.0754 H   0  0  0  0  0  0  0  0  0  0  0  0
   -9.0504    6.9889   -0.5097 H   0  0  0  0  0  0  0  0  0  0  0  0
   -7.7133    5.7894   -0.5097 H   0  0  0  0  0  0  0  0  0  0  0  0
   -9.7997    7.0028   -2.5150 H   0  0  0  0  0  0  0  0  0  0  0  0
   -8.8882    7.9657   -3.7269 H   0  0  0  0  0  0  0  0  0  0  0  0
   -8.7650    6.1737   -3.7269 H   0  0  0  0  0  0  0  0  0  0  0  0
   -2.6098    9.8338   -2.0576 H   0  0  0  0  0  0  0  0  0  0  0  0
   -3.6680   10.3979    0.0383 H   0  0  0  0  0  0  0  0  0  0  0  0
   -3.1450    8.8798    0.7995 H   0  0  0  0  0  0  0  0  0  0  0  0
   -1.9835   11.4508    1.2521 H   0  0  0  0  0  0  0  0  0  0  0  0
   -1.2234    9.9294    1.7109 H   0  0  0  0  0  0  0  0  0  0  0  0
   -1.4388   12.7110   -0.3582 H   0  0  0  0  0  0  0  0  0  0  0  0
   -0.3068   12.3232   -1.6979 H   0  0  0  0  0  0  0  0  0  0  0  0
   -1.9671   11.6374   -1.6979 H   0  0  0  0  0  0  0  0  0  0  0  0
    1.0360    9.9971    0.8360 H   0  0  0  0  0  0  0  0  0  0  0  0
    0.2474   12.3178    1.6321 H   0  0  0  0  0  0  0  0  0  0  0  0
    2.0272   11.8490    1.6750 H   0  0  0  0  0  0  0  0  0  0  0  0
    1.4855   14.2933    0.8537 H   0  0  0  0  0  0  0  0  0  0  0  0
    1.2678   12.0687   -2.5092 H   0  0  0  0  0  0  0  0  0  0  0  0
    4.2759   12.1642   -1.8487 H   0  0  0  0  0  0  0  0  0  0  0  0
    3.4911   11.3055   -3.2478 H   0  0  0  0  0  0  0  0  0  0  0  0
    4.5455   13.4375   -3.9297 H   0  0  0  0  0  0  0  0  0  0  0  0
    2.7549   13.4244   -4.1751 H   0  0  0  0  0  0  0  0  0  0  0  0
    3.3920   15.5499   -3.2596 H   0  0  0  0  0  0  0  0  0  0  0  0
    5.3340   14.4450   -2.1880 H   0  0  0  0  0  0  0  0  0  0  0  0
    0.0010   15.0960   -2.0828 H   0  0  0  0  0  0  0  0  0  0  0  0
    1.0878   15.8175   -3.3176 H   0  0  0  0  0  0  0  0  0  0  0  0
    0.7781   14.0481   -3.3176 H   0  0  0  0  0  0  0  0  0  0  0  0
    2.1616   15.6525    0.2332 H   0  0  0  0  0  0  0  0  0  0  0  0
    3.1003   16.5351   -1.0185 H   0  0  0  0  0  0  0  0  0  0  0  0
    1.3058   16.6156   -1.0185 H   0  0  0  0  0  0  0  0  0  0  0  0
    3.1911   10.3688    0.7551 H   0  0  0  0  0  0  0  0  0  0  0  0
    3.5626    9.3209   -0.6559 H   0  0  0  0  0  0  0  0  0  0  0  0
    4.0755   11.0424   -0.6559 H   0  0  0  0  0  0  0  0  0  0  0  0
    2.0831    9.8099   -2.9570 H   0  0  0  0  0  0  0  0  0  0  0  0
    1.8901    8.6636   -1.5136 H   0  0  0  0  0  0  0  0  0  0  0  0
   -0.2812   10.2317   -2.9325 H   0  0  0  0  0  0  0  0  0  0  0  0
   -0.0428    8.4413   -2.8650 H   0  0  0  0  0  0  0  0  0  0  0  0
   -0.3491    8.2750    0.8534 H   0  0  0  0  0  0  0  0  0  0  0  0
   -0.9012    7.2039   -0.4787 H   0  0  0  0  0  0  0  0  0  0  0  0
    0.7767    7.8453   -0.4787 H   0  0  0  0  0  0  0  0  0  0  0  0
  1  2  1  0
  2  3  1  0
  3  4  1  0
  4  5  1  0
  5  6  1  0
  6  7  1  0
  7  8  1  0
  7  9  1  0
  2 10  1  0
 10 11  1  0
 11 12  1  0
 12 13  1  0
 13 14  1  6
 13 15  1  0
 15 16  1  0
 16 17  1  0
 17 18  2  0
 18 19  1  0
 19 20  1  0
 20 21  1  0
 21 22  1  0
 22 23  1  0
 22 24  1  0
 24 25  1  0
 24 26  1  0
 19 27  1  0
 27 28  1  1
 27 29  1  0
 29 30  1  0
 30 31  1  0
 31 32  1  1
  7  5  1  0
 31 10  1  0
 31 13  1  0
 27 15  1  0
 24 18  1  0
  1 33  1  0
  1 34  1  0
  1 35  1  0
  2 36  1  1
  3 37  1  0
  3 38  1  0
  4 39  1  0
  4 40  1  0
  5 41  1  6
  8 42  1  0
  8 43  1  0
  8 44  1  0
  9 45  1  0
  9 46  1  0
  9 47  1  0
 10 48  1  6
 11 49  1  0
 11 50  1  0
 12 51  1  0
 12 52  1  0
 14 53  1  0
 14 54  1  0
 14 55  1  0
 15 56  1  1
 16 57  1  0
 16 58  1  0
 17 59  1  0
 19 60  1  6
 20 61  1  0
 20 62  1  0
 21 63  1  0
 21 64  1  0
 22 65  1  6
 23 66  1  0
 25 67  1  0
 25 68  1  0
 25 69  1  0
 26 70  1  0
 26 71  1  0
 26 72  1  0
 28 73  1  0
 28 74  1  0
 28 75  1  0
 29 76  1  0
 29 77  1  0
 30 78  1  0
 30 79  1  0
 32 80  1  0
 32 81  1  0
 32 82  1  0
M  END
>  <meeko>  (5) 
{"is_sidechain": [false], "intermolecular_energy": 2.731, "internal_energy": -0.839}

$$$$
EPH_relaxed_0001_pdb2pqr_Repair_328_r2_0001_out
     RDKit          3D

 82 86  0  0  0  0  0  0  0  0999 V2000
   -1.2650    7.7980   -1.3120 C   0  0  0  0  0  0  0  0  0  0  0  0
   -1.3210    8.8780   -0.2280 C   0  0  2  0  0  0  0  0  0  0  0  0
   -2.6340    9.6850   -0.2790 C   0  0  0  0  0  0  0  0  0  0  0  0
   -3.8880    8.8330   -0.0680 C   0  0  0  0  0  0  0  0  0  0  0  0
   -4.5840    8.5400   -1.3620 C   0  0  2  0  0  0  0  0  0  0  0  0
   -6.0040    8.7410   -1.3370 O   0  0  0  0  0  0  0  0  0  0  0  0
   -5.5580    7.3910   -1.5480 C   0  0  0  0  0  0  0  0  0  0  0  0
   -5.8880    6.4590   -0.4240 C   0  0  0  0  0  0  0  0  0  0  0  0
   -5.8090    6.8820   -2.9330 C   0  0  0  0  0  0  0  0  0  0  0  0
   -0.1270    9.8160   -0.3680 C   0  0  1  0  0  0  0  0  0  0  0  0
    1.2250    9.0570   -0.4280 C   0  0  0  0  0  0  0  0  0  0  0  0
    2.1430    9.8550   -1.3900 C   0  0  0  0  0  0  0  0  0  0  0  0
    1.4190   11.2070   -1.5880 C   0  0  1  0  0  0  0  0  0  0  0  0
    1.7930   12.0510   -0.3290 C   0  0  0  0  0  0  0  0  0  0  0  0
    1.7380   11.9750   -2.9120 C   0  0  2  0  0  0  0  0  0  0  0  0
    3.2060   12.4070   -3.0780 C   0  0  0  0  0  0  0  0  0  0  0  0
    3.5360   13.7610   -2.5440 C   0  0  0  0  0  0  0  0  0  0  0  0
    2.6420   14.7110   -2.2130 C   0  0  0  0  0  0  0  0  0  0  0  0
    1.1420   14.5000   -2.4590 C   0  0  1  0  0  0  0  0  0  0  0  0
    0.5430   15.7690   -3.1210 C   0  0  0  0  0  0  0  0  0  0  0  0
    0.8310   17.0370   -2.3230 C   0  0  0  0  0  0  0  0  0  0  0  0
    2.3340   17.2420   -2.1500 C   0  0  2  0  0  0  0  0  0  0  0  0
    2.9120   17.5140   -3.4300 O   0  0  0  0  0  0  0  0  0  0  0  0
    3.0480   16.0240   -1.5010 C   0  0  0  0  0  0  0  0  0  0  0  0
    2.6400   15.9150   -0.0100 C   0  0  0  0  0  0  0  0  0  0  0  0
    4.5750   16.3040   -1.5130 C   0  0  0  0  0  0  0  0  0  0  0  0
    0.7460   13.1660   -3.2260 C   0  0  1  0  0  0  0  0  0  0  0  0
    0.8050   13.4010   -4.7670 C   0  0  0  0  0  0  0  0  0  0  0  0
   -0.7490   12.8040   -2.8900 C   0  0  0  0  0  0  0  0  0  0  0  0
   -0.9900   11.9440   -1.6350 C   0  0  0  0  0  0  0  0  0  0  0  0
   -0.0740   10.7160   -1.6280 C   0  0  2  0  0  0  0  0  0  0  0  0
   -0.4420    9.8370   -2.8710 C   0  0  0  0  0  0  0  0  0  0  0  0
   -1.2136    6.8062   -0.8391 H   0  0  0  0  0  0  0  0  0  0  0  0
   -2.1675    7.8595   -1.9378 H   0  0  0  0  0  0  0  0  0  0  0  0
   -0.3737    7.9525   -1.9378 H   0  0  0  0  0  0  0  0  0  0  0  0
   -1.2837    8.3707    0.7473 H   0  0  0  0  0  0  0  0  0  0  0  0
   -2.6000   10.4537    0.5071 H   0  0  0  0  0  0  0  0  0  0  0  0
   -2.7059   10.1189   -1.2872 H   0  0  0  0  0  0  0  0  0  0  0  0
   -3.5978    7.8826    0.4037 H   0  0  0  0  0  0  0  0  0  0  0  0
   -4.5811    9.3966    0.5738 H   0  0  0  0  0  0  0  0  0  0  0  0
   -3.7012    8.8587   -1.9357 H   0  0  0  0  0  0  0  0  0  0  0  0
   -5.7089    6.9648    0.5363 H   0  0  0  0  0  0  0  0  0  0  0  0
   -6.9454    6.1635   -0.4912 H   0  0  0  0  0  0  0  0  0  0  0  0
   -5.2521    5.5639   -0.4912 H   0  0  0  0  0  0  0  0  0  0  0  0
   -6.2949    5.8966   -2.8791 H   0  0  0  0  0  0  0  0  0  0  0  0
   -6.4638    7.5849   -3.4689 H   0  0  0  0  0  0  0  0  0  0  0  0
   -4.8527    6.7904   -3.4689 H   0  0  0  0  0  0  0  0  0  0  0  0
   -0.2717   10.4344    0.5301 H   0  0  0  0  0  0  0  0  0  0  0  0
    1.6770    9.0083    0.5737 H   0  0  0  0  0  0  0  0  0  0  0  0
    1.0836    8.0251   -0.7818 H   0  0  0  0  0  0  0  0  0  0  0  0
    3.1358   10.0081   -0.9417 H   0  0  0  0  0  0  0  0  0  0  0  0
    2.3096    9.3278   -2.3409 H   0  0  0  0  0  0  0  0  0  0  0  0
    1.5420   11.4846    0.5799 H   0  0  0  0  0  0  0  0  0  0  0  0
    2.8714   12.2677   -0.3399 H   0  0  0  0  0  0  0  0  0  0  0  0
    1.2291   12.9954   -0.3399 H   0  0  0  0  0  0  0  0  0  0  0  0
    1.5643   11.2054   -3.6786 H   0  0  0  0  0  0  0  0  0  0  0  0
    3.8375   11.6727   -2.5565 H   0  0  0  0  0  0  0  0  0  0  0  0
    3.3888   12.4542   -4.1617 H   0  0  0  0  0  0  0  0  0  0  0  0
    4.6006   14.0031   -2.4095 H   0  0  0  0  0  0  0  0  0  0  0  0
    0.6894   14.3468   -1.4682 H   0  0  0  0  0  0  0  0  0  0  0  0
    0.9751   15.8795   -4.1265 H   0  0  0  0  0  0  0  0  0  0  0  0
   -0.5488   15.6407   -3.1612 H   0  0  0  0  0  0  0  0  0  0  0  0
    0.4085   17.9016   -2.8558 H   0  0  0  0  0  0  0  0  0  0  0  0
    0.3729   16.9377   -1.3279 H   0  0  0  0  0  0  0  0  0  0  0  0
    2.4747   18.0893   -1.4628 H   0  0  0  0  0  0  0  0  0  0  0  0
    3.0940   16.6600   -3.8570 H   0  0  0  0  0  0  0  0  0  0  0  0
    3.5075   16.1468    0.6254 H   0  0  0  0  0  0  0  0  0  0  0  0
    1.8296   16.6281    0.2015 H   0  0  0  0  0  0  0  0  0  0  0  0
    2.2933   14.8927    0.2015 H   0  0  0  0  0  0  0  0  0  0  0  0
    4.9435   16.3716   -0.4788 H   0  0  0  0  0  0  0  0  0  0  0  0
    5.0937   15.4860   -2.0344 H   0  0  0  0  0  0  0  0  0  0  0  0
    4.7697   17.2528   -2.0344 H   0  0  0  0  0  0  0  0  0  0  0  0
    1.0683   14.4499   -4.9681 H   0  0  0  0  0  0  0  0  0  0  0  0
    1.5652   12.7407   -5.2098 H   0  0  0  0  0  0  0  0  0  0  0  0
   -0.1770   13.1781   -5.2098 H   0  0  0  0  0  0  0  0  0  0  0  0
   -1.2982   13.7478   -2.7572 H   0  0  0  0  0  0  0  0  0  0  0  0
   -1.0919   12.1859   -3.7328 H   0  0  0  0  0  0  0  0  0  0  0  0
   -0.7870   12.5495   -0.7394 H   0  0  0  0  0  0  0  0  0  0  0  0
   -2.0354   11.6019   -1.6395 H   0  0  0  0  0  0  0  0  0  0  0  0
   -0.8460    8.8720   -2.5310 H   0  0  0  0  0  0  0  0  0  0  0  0
   -1.1977   10.3577   -3.4775 H   0  0  0  0  0  0  0  0  0  0  0  0
    0.4592    9.6640   -3.4775 H   0  0  0  0  0  0  0  0  0  0  0  0
  1  2  1  0
  2  3  1  0
  3  4  1  0
  4  5  1  0
  5  6  1  0
  6  7  1  0
  7  8  1  0
  7  9  1  0
  2 10  1  0
 10 11  1  0
 11 12  1  0
 12 13  1  0
 13 14  1  1
 13 15  1  0
 15 16  1  0
 16 17  1  0
 17 18  2  0
 18 19  1  0
 19 20  1  0
 20 21  1  0
 21 22  1  0
 22 23  1  0
 22 24  1  0
 24 25  1  0
 24 26  1  0
 19 27  1  0
 27 28  1  6
 27 29  1  0
 29 30  1  0
 30 31  1  0
 31 32  1  6
  7  5  1  0
 31 10  1  0
 31 13  1  0
 27 15  1  0
 24 18  1  0
  1 33  1  0
  1 34  1  0
  1 35  1  0
  2 36  1  1
  3 37  1  0
  3 38  1  0
  4 39  1  0
  4 40  1  0
  5 41  1  6
  8 42  1  0
  8 43  1  0
  8 44  1  0
  9 45  1  0
  9 46  1  0
  9 47  1  0
 10 48  1  1
 11 49  1  0
 11 50  1  0
 12 51  1  0
 12 52  1  0
 14 53  1  0
 14 54  1  0
 14 55  1  0
 15 56  1  6
 16 57  1  0
 16 58  1  0
 17 59  1  0
 19 60  1  1
 20 61  1  0
 20 62  1  0
 21 63  1  0
 21 64  1  0
 22 65  1  1
 23 66  1  0
 25 67  1  0
 25 68  1  0
 25 69  1  0
 26 70  1  0
 26 71  1  0
 26 72  1  0
 28 73  1  0
 28 74  1  0
 28 75  1  0
 29 76  1  0
 29 77  1  0
 30 78  1  0
 30 79  1  0
 32 80  1  0
 32 81  1  0
 32 82  1  0
M  END
>  <meeko>  (6) 
{"is_sidechain": [false], "intermolecular_energy": 2.731, "internal_energy": -0.839}

$$$$
EPH_relaxed_0001_pdb2pqr_Repair_328_r2_0001_out
     RDKit          3D

 82 86  0  0  0  0  0  0  0  0999 V2000
    4.5870   17.2700   -2.6930 C   0  0  0  0  0  0  0  0  0  0  0  0
    3.1860   16.8610   -2.2270 C   0  0  2  0  0  0  0  0  0  0  0  0
    2.9090   17.2890   -0.7720 C   0  0  0  0  0  0  0  0  0  0  0  0
    4.0720   18.0420   -0.1210 C   0  0  0  0  0  0  0  0  0  0  0  0
    3.6460   18.7380    1.1370 C   0  0  2  0  0  0  0  0  0  0  0  0
    3.9390   20.1410    1.1730 O   0  0  0  0  0  0  0  0  0  0  0  0
    4.6220   19.3250    2.1390 C   0  0  0  0  0  0  0  0  0  0  0  0
    6.1010   19.2430    1.9290 C   0  0  0  0  0  0  0  0  0  0  0  0
    4.1580   19.5420    3.5460 C   0  0  0  0  0  0  0  0  0  0  0  0
    3.0120   15.3530   -2.3690 C   0  0  1  0  0  0  0  0  0  0  0  0
    4.3580   14.6150   -2.5990 C   0  0  0  0  0  0  0  0  0  0  0  0
    4.2480   13.2480   -1.8770 C   0  0  0  0  0  0  0  0  0  0  0  0
    2.7450   13.1040   -1.5420 C   0  0  1  0  0  0  0  0  0  0  0  0
    2.0860   12.6000   -2.8640 C   0  0  0  0  0  0  0  0  0  0  0  0
    2.3920   12.1780   -0.3320 C   0  0  2  0  0  0  0  0  0  0  0  0
    2.7920   10.7020   -0.5020 C   0  0  0  0  0  0  0  0  0  0  0  0
    1.7510    9.8250   -1.1150 C   0  0  0  0  0  0  0  0  0  0  0  0
    0.4480   10.1360   -1.2530 C   0  0  0  0  0  0  0  0  0  0  0  0
   -0.1140   11.4430   -0.6780 C   0  0  1  0  0  0  0  0  0  0  0  0
   -1.4340   11.1480    0.0830 C   0  0  0  0  0  0  0  0  0  0  0  0
   -2.4510   10.4030   -0.7770 C   0  0  0  0  0  0  0  0  0  0  0  0
   -1.8750    9.0820   -1.2820 C   0  0  2  0  0  0  0  0  0  0  0  0
   -1.6760    8.2090   -0.1660 O   0  0  0  0  0  0  0  0  0  0  0  0
   -0.5380    9.2530   -2.0560 C   0  0  0  0  0  0  0  0  0  0  0  0
   -0.8080    9.9410   -3.4170 C   0  0  0  0  0  0  0  0  0  0  0  0
    0.0070    7.8370   -2.3860 C   0  0  0  0  0  0  0  0  0  0  0  0
    0.9000   12.3180    0.1770 C   0  0  1  0  0  0  0  0  0  0  0  0
    0.8910   11.8430    1.6630 C   0  0  0  0  0  0  0  0  0  0  0  0
    0.4080   13.8130    0.1860 C   0  0  0  0  0  0  0  0  0  0  0  0
    0.8880   14.7090   -0.9720 C   0  0  0  0  0  0  0  0  0  0  0  0
    2.4030   14.5910   -1.1650 C   0  0  2  0  0  0  0  0  0  0  0  0
    3.0940   15.1120    0.1410 C   0  0  0  0  0  0  0  0  0  0  0  0
    5.2251   17.4563   -1.8166 H   0  0  0  0  0  0  0  0  0  0  0  0
    5.0226   16.4615   -3.2985 H   0  0  0  0  0  0  0  0  0  0  0  0
    4.5192   18.1858   -3.2985 H   0  0  0  0  0  0  0  0  0  0  0  0
    2.4588   17.3818   -2.8672 H   0  0  0  0  0  0  0  0  0  0  0  0
    2.0243   17.9426   -0.7645 H   0  0  0  0  0  0  0  0  0  0  0  0
    2.7552   16.3686   -0.1895 H   0  0  0  0  0  0  0  0  0  0  0  0
    4.8703   17.3249    0.1209 H   0  0  0  0  0  0  0  0  0  0  0  0
    4.4283   18.8032   -0.8307 H   0  0  0  0  0  0  0  0  0  0  0  0
    2.7903   18.0566    1.2529 H   0  0  0  0  0  0  0  0  0  0  0  0
    6.6088   19.2148    2.9044 H   0  0  0  0  0  0  0  0  0  0  0  0
    6.3411   18.3302    1.3641 H   0  0  0  0  0  0  0  0  0  0  0  0
    6.4405   20.1237    1.3641 H   0  0  0  0  0  0  0  0  0  0  0  0
    4.9271   19.1823    4.2453 H   0  0  0  0  0  0  0  0  0  0  0  0
    3.9835   20.6151    3.7132 H   0  0  0  0  0  0  0  0  0  0  0  0
    3.2225   18.9880    3.7132 H   0  0  0  0  0  0  0  0  0  0  0  0
    2.3173   15.3272   -3.2215 H   0  0  0  0  0  0  0  0  0  0  0  0
    4.5272   14.4624   -3.6751 H   0  0  0  0  0  0  0  0  0  0  0  0
    5.2019   15.2017   -2.2071 H   0  0  0  0  0  0  0  0  0  0  0  0
    4.5787   12.4325   -2.5370 H   0  0  0  0  0  0  0  0  0  0  0  0
    4.8822   13.1978   -0.9797 H   0  0  0  0  0  0  0  0  0  0  0  0
    1.2334   11.9480   -2.6233 H   0  0  0  0  0  0  0  0  0  0  0  0
    1.7344   13.4618   -3.4502 H   0  0  0  0  0  0  0  0  0  0  0  0
    2.8257   12.0350   -3.4502 H   0  0  0  0  0  0  0  0  0  0  0  0
    3.0394   12.5729    0.4648 H   0  0  0  0  0  0  0  0  0  0  0  0
    3.6871   10.6639   -1.1402 H   0  0  0  0  0  0  0  0  0  0  0  0
    2.9576   10.3130    0.5135 H   0  0  0  0  0  0  0  0  0  0  0  0
    2.0758    8.8414   -1.4853 H   0  0  0  0  0  0  0  0  0  0  0  0
   -0.3174   12.0923   -1.5423 H   0  0  0  0  0  0  0  0  0  0  0  0
   -1.2024   10.5346    0.9662 H   0  0  0  0  0  0  0  0  0  0  0  0
   -1.8792   12.1132    0.3661 H   0  0  0  0  0  0  0  0  0  0  0  0
   -3.3491   10.1978   -0.1760 H   0  0  0  0  0  0  0  0  0  0  0  0
   -2.7039   11.0303   -1.6445 H   0  0  0  0  0  0  0  0  0  0  0  0
   -2.5981    8.6578   -1.9942 H   0  0  0  0  0  0  0  0  0  0  0  0
   -2.2480    8.5210    0.5560 H   0  0  0  0  0  0  0  0  0  0  0  0
   -1.2049   10.9523   -3.2443 H   0  0  0  0  0  0  0  0  0  0  0  0
    0.1306   10.0078   -3.9867 H   0  0  0  0  0  0  0  0  0  0  0  0
   -1.5415    9.3516   -3.9867 H   0  0  0  0  0  0  0  0  0  0  0  0
    0.2149    7.2969   -1.4505 H   0  0  0  0  0  0  0  0  0  0  0  0
   -0.7421    7.2829   -2.9706 H   0  0  0  0  0  0  0  0  0  0  0  0
    0.9343    7.9281   -2.9706 H   0  0  0  0  0  0  0  0  0  0  0  0
    0.9076   12.7190    2.3281 H   0  0  0  0  0  0  0  0  0  0  0  0
   -0.0185   11.2545    1.8543 H   0  0  0  0  0  0  0  0  0  0  0  0
    1.7775   11.2205    1.8543 H   0  0  0  0  0  0  0  0  0  0  0  0
   -0.6917   13.8016    0.1642 H   0  0  0  0  0  0  0  0  0  0  0  0
    0.8464   14.2550    1.0929 H   0  0  0  0  0  0  0  0  0  0  0  0
    0.3821   14.4009   -1.8989 H   0  0  0  0  0  0  0  0  0  0  0  0
    0.6456   15.7544   -0.7302 H   0  0  0  0  0  0  0  0  0  0  0  0
    2.5654   14.7135    1.0195 H   0  0  0  0  0  0  0  0  0  0  0  0
    4.1416   14.7770    0.1602 H   0  0  0  0  0  0  0  0  0  0  0  0
    3.0602   16.2113    0.1602 H   0  0  0  0  0  0  0  0  0  0  0  0
  1  2  1  0
  2  3  1  0
  3  4  1  0
  4  5  1  0
  5  6  1  0
  6  7  1  0
  7  8  1  0
  7  9  1  0
  2 10  1  0
 10 11  1  0
 11 12  1  0
 12 13  1  0
 13 14  1  6
 13 15  1  0
 15 16  1  0
 16 17  1  0
 17 18  2  0
 18 19  1  0
 19 20  1  0
 20 21  1  0
 21 22  1  0
 22 23  1  0
 22 24  1  0
 24 25  1  0
 24 26  1  0
 19 27  1  0
 27 28  1  1
 27 29  1  0
 29 30  1  0
 30 31  1  0
 31 32  1  1
  7  5  1  0
 31 10  1  0
 31 13  1  0
 27 15  1  0
 24 18  1  0
  1 33  1  0
  1 34  1  0
  1 35  1  0
  2 36  1  6
  3 37  1  0
  3 38  1  0
  4 39  1  0
  4 40  1  0
  5 41  1  1
  8 42  1  0
  8 43  1  0
  8 44  1  0
  9 45  1  0
  9 46  1  0
  9 47  1  0
 10 48  1  6
 11 49  1  0
 11 50  1  0
 12 51  1  0
 12 52  1  0
 14 53  1  0
 14 54  1  0
 14 55  1  0
 15 56  1  1
 16 57  1  0
 16 58  1  0
 17 59  1  0
 19 60  1  6
 20 61  1  0
 20 62  1  0
 21 63  1  0
 21 64  1  0
 22 65  1  6
 23 66  1  0
 25 67  1  0
 25 68  1  0
 25 69  1  0
 26 70  1  0
 26 71  1  0
 26 72  1  0
 28 73  1  0
 28 74  1  0
 28 75  1  0
 29 76  1  0
 29 77  1  0
 30 78  1  0
 30 79  1  0
 32 80  1  0
 32 81  1  0
 32 82  1  0
M  END
>  <meeko>  (7) 
{"is_sidechain": [false], "intermolecular_energy": 2.731, "internal_energy": -0.839}

$$$$
EPH_relaxed_0001_pdb2pqr_Repair_328_r2_0001_out
     RDKit          3D

 82 86  0  0  0  0  0  0  0  0999 V2000
    3.5710   17.2320   -1.0210 C   0  0  0  0  0  0  0  0  0  0  0  0
    2.5920   16.8940   -2.1490 C   0  0  2  0  0  0  0  0  0  0  0  0
    1.1810   17.4540   -1.8800 C   0  0  0  0  0  0  0  0  0  0  0  0
    0.9900   17.9840   -0.4560 C   0  0  0  0  0  0  0  0  0  0  0  0
   -0.0490   19.0630   -0.4010 C   0  0  2  0  0  0  0  0  0  0  0  0
   -0.3070   19.5790    0.9120 O   0  0  0  0  0  0  0  0  0  0  0  0
   -1.3970   18.8930    0.2750 C   0  0  0  0  0  0  0  0  0  0  0  0
   -1.7800   17.6090    0.9410 C   0  0  0  0  0  0  0  0  0  0  0  0
   -2.5200   19.7950   -0.1330 C   0  0  0  0  0  0  0  0  0  0  0  0
    2.5250   15.3840   -2.3430 C   0  0  1  0  0  0  0  0  0  0  0  0
    3.9030   14.7670   -2.7050 C   0  0  0  0  0  0  0  0  0  0  0  0
    3.9550   13.3690   -2.0380 C   0  0  0  0  0  0  0  0  0  0  0  0
    2.4980   13.0910   -1.5990 C   0  0  1  0  0  0  0  0  0  0  0  0
    1.7800   12.5860   -2.8900 C   0  0  0  0  0  0  0  0  0  0  0  0
    2.3130   12.0940   -0.4090 C   0  0  2  0  0  0  0  0  0  0  0  0
    2.8130   10.6630   -0.6730 C   0  0  0  0  0  0  0  0  0  0  0  0
    1.7990    9.7290   -1.2450 C   0  0  0  0  0  0  0  0  0  0  0  0
    0.4690    9.9380   -1.2720 C   0  0  0  0  0  0  0  0  0  0  0  0
   -0.1470   11.1720   -0.6000 C   0  0  1  0  0  0  0  0  0  0  0  0
   -1.3770   10.7420    0.2420 C   0  0  0  0  0  0  0  0  0  0  0  0
   -2.3960    9.9510   -0.5720 C   0  0  0  0  0  0  0  0  0  0  0  0
   -1.7600    8.7020   -1.1760 C   0  0  2  0  0  0  0  0  0  0  0  0
   -1.4080    7.8060   -0.1170 O   0  0  0  0  0  0  0  0  0  0  0  0
   -0.5040    9.0100   -2.0390 C   0  0  0  0  0  0  0  0  0  0  0  0
   -0.9320    9.7250   -3.3440 C   0  0  0  0  0  0  0  0  0  0  0  0
    0.1220    7.6560   -2.4710 C   0  0  0  0  0  0  0  0  0  0  0  0
    0.8590   12.0930    0.2160 C   0  0  1  0  0  0  0  0  0  0  0  0
    1.0020   11.5630    1.6750 C   0  0  0  0  0  0  0  0  0  0  0  0
    0.2550   13.5420    0.3270 C   0  0  0  0  0  0  0  0  0  0  0  0
    0.5720   14.5180   -0.8230 C   0  0  0  0  0  0  0  0  0  0  0  0
    2.0720   14.5300   -1.1330 C   0  0  2  0  0  0  0  0  0  0  0  0
    2.8200   15.0550    0.1410 C   0  0  0  0  0  0  0  0  0  0  0  0
    3.0833   17.0636   -0.0495 H   0  0  0  0  0  0  0  0  0  0  0  0
    4.4596   16.5886   -1.1016 H   0  0  0  0  0  0  0  0  0  0  0  0
    3.8734   18.2866   -1.1016 H   0  0  0  0  0  0  0  0  0  0  0  0
    2.9666   17.3706   -3.0669 H   0  0  0  0  0  0  0  0  0  0  0  0
    0.9940   18.2774   -2.5850 H   0  0  0  0  0  0  0  0  0  0  0  0
    0.4744   16.6211   -2.0104 H   0  0  0  0  0  0  0  0  0  0  0  0
    0.6768   17.1540    0.1943 H   0  0  0  0  0  0  0  0  0  0  0  0
    1.9458   18.4106   -0.1177 H   0  0  0  0  0  0  0  0  0  0  0  0
    0.2345   19.4199   -1.4021 H   0  0  0  0  0  0  0  0  0  0  0  0
   -1.7419   17.7367    2.0329 H   0  0  0  0  0  0  0  0  0  0  0  0
   -2.8005   17.3299    0.6399 H   0  0  0  0  0  0  0  0  0  0  0  0
   -1.0792   16.8165    0.6399 H   0  0  0  0  0  0  0  0  0  0  0  0
   -3.0154   20.1929    0.7649 H   0  0  0  0  0  0  0  0  0  0  0  0
   -2.1224   20.6277   -0.7318 H   0  0  0  0  0  0  0  0  0  0  0  0
   -3.2473   19.2272   -0.7318 H   0  0  0  0  0  0  0  0  0  0  0  0
    1.7698   15.3343   -3.1412 H   0  0  0  0  0  0  0  0  0  0  0  0
    3.9998   14.6700   -3.7964 H   0  0  0  0  0  0  0  0  0  0  0  0
    4.7268   15.4046   -2.3515 H   0  0  0  0  0  0  0  0  0  0  0  0
    4.2959   12.6087   -2.7561 H   0  0  0  0  0  0  0  0  0  0  0  0
    4.6585   13.3361   -1.1930 H   0  0  0  0  0  0  0  0  0  0  0  0
    0.9099   11.9740   -2.6101 H   0  0  0  0  0  0  0  0  0  0  0  0
    1.4454   13.4487   -3.4848 H   0  0  0  0  0  0  0  0  0  0  0  0
    2.4788   11.9795   -3.4848 H   0  0  0  0  0  0  0  0  0  0  0  0
    2.9875   12.5097    0.3540 H   0  0  0  0  0  0  0  0  0  0  0  0
    3.6562   10.7220   -1.3770 H   0  0  0  0  0  0  0  0  0  0  0  0
    3.0872   10.2503    0.3091 H   0  0  0  0  0  0  0  0  0  0  0  0
    2.1697    8.7899   -1.6817 H   0  0  0  0  0  0  0  0  0  0  0  0
   -0.4664   11.8356   -1.4171 H   0  0  0  0  0  0  0  0  0  0  0  0
   -1.0308   10.1159    1.0776 H   0  0  0  0  0  0  0  0  0  0  0  0
   -1.8729   11.6565    0.5994 H   0  0  0  0  0  0  0  0  0  0  0  0
   -3.2262    9.6509    0.0843 H   0  0  0  0  0  0  0  0  0  0  0  0
   -2.7634   10.5885   -1.3897 H   0  0  0  0  0  0  0  0  0  0  0  0
   -2.5006    8.2482   -1.8510 H   0  0  0  0  0  0  0  0  0  0  0  0
   -0.4570    7.6180   -0.1940 H   0  0  0  0  0  0  0  0  0  0  0  0
   -1.4823   10.6443   -3.0949 H   0  0  0  0  0  0  0  0  0  0  0  0
   -0.0383    9.9806   -3.9321 H   0  0  0  0  0  0  0  0  0  0  0  0
   -1.5795    9.0580   -3.9321 H   0  0  0  0  0  0  0  0  0  0  0  0
    0.3909    7.0745   -1.5768 H   0  0  0  0  0  0  0  0  0  0  0  0
   -0.6060    7.0903   -3.0711 H   0  0  0  0  0  0  0  0  0  0  0  0
    1.0245    7.8442   -3.0711 H   0  0  0  0  0  0  0  0  0  0  0  0
    0.7828   12.3755    2.3834 H   0  0  0  0  0  0  0  0  0  0  0  0
    0.2949   10.7358    1.8356 H   0  0  0  0  0  0  0  0  0  0  0  0
    2.0292   11.2037    1.8356 H   0  0  0  0  0  0  0  0  0  0  0  0
   -0.8389   13.4427    0.3869 H   0  0  0  0  0  0  0  0  0  0  0  0
    0.7278   13.9831    1.2169 H   0  0  0  0  0  0  0  0  0  0  0  0
    0.0210   14.2057   -1.7224 H   0  0  0  0  0  0  0  0  0  0  0  0
    0.2684   15.5303   -0.5181 H   0  0  0  0  0  0  0  0  0  0  0  0
    2.3052   14.6936    1.0434 H   0  0  0  0  0  0  0  0  0  0  0  0
    3.8558   14.6847    0.1367 H   0  0  0  0  0  0  0  0  0  0  0  0
    2.8238   16.1550    0.1367 H   0  0  0  0  0  0  0  0  0  0  0  0
  1  2  1  0
  2  3  1  0
  3  4  1  0
  4  5  1  0
  5  6  1  0
  6  7  1  0
  7  8  1  0
  7  9  1  0
  2 10  1  0
 10 11  1  0
 11 12  1  0
 12 13  1  0
 13 14  1  6
 13 15  1  0
 15 16  1  0
 16 17  1  0
 17 18  2  0
 18 19  1  0
 19 20  1  0
 20 21  1  0
 21 22  1  0
 22 23  1  0
 22 24  1  0
 24 25  1  0
 24 26  1  0
 19 27  1  0
 27 28  1  1
 27 29  1  0
 29 30  1  0
 30 31  1  0
 31 32  1  1
  7  5  1  0
 31 10  1  0
 31 13  1  0
 27 15  1  0
 24 18  1  0
  1 33  1  0
  1 34  1  0
  1 35  1  0
  2 36  1  6
  3 37  1  0
  3 38  1  0
  4 39  1  0
  4 40  1  0
  5 41  1  6
  8 42  1  0
  8 43  1  0
  8 44  1  0
  9 45  1  0
  9 46  1  0
  9 47  1  0
 10 48  1  6
 11 49  1  0
 11 50  1  0
 12 51  1  0
 12 52  1  0
 14 53  1  0
 14 54  1  0
 14 55  1  0
 15 56  1  1
 16 57  1  0
 16 58  1  0
 17 59  1  0
 19 60  1  6
 20 61  1  0
 20 62  1  0
 21 63  1  0
 21 64  1  0
 22 65  1  6
 23 66  1  0
 25 67  1  0
 25 68  1  0
 25 69  1  0
 26 70  1  0
 26 71  1  0
 26 72  1  0
 28 73  1  0
 28 74  1  0
 28 75  1  0
 29 76  1  0
 29 77  1  0
 30 78  1  0
 30 79  1  0
 32 80  1  0
 32 81  1  0
 32 82  1  0
M  END
>  <meeko>  (8) 
{"is_sidechain": [false], "intermolecular_energy": 2.731, "internal_energy": -0.839}

$$$$
EPH_relaxed_0001_pdb2pqr_Repair_328_r2_0001_out
     RDKit          3D

 82 86  0  0  0  0  0  0  0  0999 V2000
    2.7880   18.7630    0.5910 C   0  0  0  0  0  0  0  0  0  0  0  0
    3.2820   17.4390    0.0000 C   0  0  2  0  0  0  0  0  0  0  0  0
    3.9700   17.6340   -1.3650 C   0  0  0  0  0  0  0  0  0  0  0  0
    5.4770   17.8870   -1.2650 C   0  0  0  0  0  0  0  0  0  0  0  0
    6.1140   17.9830   -2.6180 C   0  0  2  0  0  0  0  0  0  0  0  0
    5.2390   17.6890   -3.7150 O   0  0  0  0  0  0  0  0  0  0  0  0
    6.3410   16.7870   -3.5230 C   0  0  0  0  0  0  0  0  0  0  0  0
    5.9330   15.4080   -3.1100 C   0  0  0  0  0  0  0  0  0  0  0  0
    7.3900   16.8830   -4.5870 C   0  0  0  0  0  0  0  0  0  0  0  0
    2.1180   16.4650   -0.1370 C   0  0  1  0  0  0  0  0  0  0  0  0
    0.7970   17.1660   -0.5500 C   0  0  0  0  0  0  0  0  0  0  0  0
    0.0340   16.1770   -1.4690 C   0  0  0  0  0  0  0  0  0  0  0  0
    0.7700   14.8290   -1.2870 C   0  0  1  0  0  0  0  0  0  0  0  0
    0.1990   14.2350    0.0380 C   0  0  0  0  0  0  0  0  0  0  0  0
    0.6550   13.8140   -2.4710 C   0  0  2  0  0  0  0  0  0  0  0  0
   -0.7720   13.3240   -2.7740 C   0  0  0  0  0  0  0  0  0  0  0  0
   -1.1910   12.0910   -2.0450 C   0  0  0  0  0  0  0  0  0  0  0  0
   -0.3650   11.2430   -1.4030 C   0  0  0  0  0  0  0  0  0  0  0  0
    1.1560   11.4370   -1.4510 C   0  0  1  0  0  0  0  0  0  0  0  0
    1.8420   10.0790   -1.7540 C   0  0  0  0  0  0  0  0  0  0  0  0
    1.4240    8.9820   -0.7800 C   0  0  0  0  0  0  0  0  0  0  0  0
   -0.0890    8.7790   -0.8040 C   0  0  2  0  0  0  0  0  0  0  0  0
   -0.4640    8.2530   -2.0810 O   0  0  0  0  0  0  0  0  0  0  0  0
   -0.8870   10.0830   -0.5210 C   0  0  0  0  0  0  0  0  0  0  0  0
   -0.7150   10.4860    0.9650 C   0  0  0  0  0  0  0  0  0  0  0  0
   -2.3960    9.7700   -0.7140 C   0  0  0  0  0  0  0  0  0  0  0  0
    1.6760   12.6080   -2.3920 C   0  0  1  0  0  0  0  0  0  0  0  0
    1.8550   12.0800   -3.8480 C   0  0  0  0  0  0  0  0  0  0  0  0
    3.1030   13.0620   -1.9060 C   0  0  0  0  0  0  0  0  0  0  0  0
    3.1520   14.1530   -0.8200 C   0  0  0  0  0  0  0  0  0  0  0  0
    2.2550   15.3380   -1.1910 C   0  0  2  0  0  0  0  0  0  0  0  0
    2.8180   15.9690   -2.5100 C   0  0  0  0  0  0  0  0  0  0  0  0
    2.8096   18.7050    1.6893 H   0  0  0  0  0  0  0  0  0  0  0  0
    3.4413   19.5813    0.2541 H   0  0  0  0  0  0  0  0  0  0  0  0
    1.7583   18.9534    0.2541 H   0  0  0  0  0  0  0  0  0  0  0  0
    4.0318   17.0268    0.6913 H   0  0  0  0  0  0  0  0  0  0  0  0
    3.8094   16.7277   -1.9673 H   0  0  0  0  0  0  0  0  0  0  0  0
    3.5240   18.5283   -1.8246 H   0  0  0  0  0  0  0  0  0  0  0  0
    5.6450   18.8300   -0.7242 H   0  0  0  0  0  0  0  0  0  0  0  0
    5.9322   17.0398   -0.7311 H   0  0  0  0  0  0  0  0  0  0  0  0
    6.7842   18.7832   -2.2708 H   0  0  0  0  0  0  0  0  0  0  0  0
    5.9142   15.3446   -2.0120 H   0  0  0  0  0  0  0  0  0  0  0  0
    4.9312   15.1876   -3.5072 H   0  0  0  0  0  0  0  0  0  0  0  0
    6.6536   14.6780   -3.5072 H   0  0  0  0  0  0  0  0  0  0  0  0
    8.3808   16.9737   -4.1179 H   0  0  0  0  0  0  0  0  0  0  0  0
    7.3618   15.9785   -5.2124 H   0  0  0  0  0  0  0  0  0  0  0  0
    7.1981   17.7673   -5.2124 H   0  0  0  0  0  0  0  0  0  0  0  0
    2.1171   16.0354    0.8756 H   0  0  0  0  0  0  0  0  0  0  0  0
    0.1952   17.3956    0.3417 H   0  0  0  0  0  0  0  0  0  0  0  0
    0.9989   18.1136   -1.0709 H   0  0  0  0  0  0  0  0  0  0  0  0
   -1.0176   16.0904   -1.1581 H   0  0  0  0  0  0  0  0  0  0  0  0
    0.0214   16.5073   -2.5182 H   0  0  0  0  0  0  0  0  0  0  0  0
    0.6752   14.7303    0.8970 H   0  0  0  0  0  0  0  0  0  0  0  0
   -0.8878   14.4004    0.0755 H   0  0  0  0  0  0  0  0  0  0  0  0
    0.4071   13.1555    0.0755 H   0  0  0  0  0  0  0  0  0  0  0  0
    0.9505   14.4259   -3.3361 H   0  0  0  0  0  0  0  0  0  0  0  0
   -1.4717   14.1302   -2.5085 H   0  0  0  0  0  0  0  0  0  0  0  0
   -0.7840   13.0644   -3.8429 H   0  0  0  0  0  0  0  0  0  0  0  0
   -2.2653   11.8549   -2.0309 H   0  0  0  0  0  0  0  0  0  0  0  0
    1.4499   11.7879   -0.4508 H   0  0  0  0  0  0  0  0  0  0  0  0
    1.5715    9.7671   -2.7736 H   0  0  0  0  0  0  0  0  0  0  0  0
    2.9275   10.2227   -1.6490 H   0  0  0  0  0  0  0  0  0  0  0  0
    1.9181    8.0411   -1.0638 H   0  0  0  0  0  0  0  0  0  0  0  0
    1.7221    9.2817    0.2355 H   0  0  0  0  0  0  0  0  0  0  0  0
   -0.3400    8.0761    0.0041 H   0  0  0  0  0  0  0  0  0  0  0  0
   -1.3830    7.9450   -2.0140 H   0  0  0  0  0  0  0  0  0  0  0  0
   -1.0648    9.6665    1.6100 H   0  0  0  0  0  0  0  0  0  0  0  0
    0.3470   10.6863    1.1700 H   0  0  0  0  0  0  0  0  0  0  0  0
   -1.3051   11.3914    1.1700 H   0  0  0  0  0  0  0  0  0  0  0  0
   -2.8784    9.6699    0.2695 H   0  0  0  0  0  0  0  0  0  0  0  0
   -2.8716   10.5886   -1.2741 H   0  0  0  0  0  0  0  0  0  0  0  0
   -2.5067    8.8298   -1.2741 H   0  0  0  0  0  0  0  0  0  0  0  0
    2.2081   11.0386   -3.8196 H   0  0  0  0  0  0  0  0  0  0  0  0
    0.8910   12.1261   -4.3759 H   0  0  0  0  0  0  0  0  0  0  0  0
    2.5922   12.7028   -4.3759 H   0  0  0  0  0  0  0  0  0  0  0  0
    3.6175   12.1743   -1.5094 H   0  0  0  0  0  0  0  0  0  0  0  0
    3.5778   13.5137   -2.7895 H   0  0  0  0  0  0  0  0  0  0  0  0
    2.8083   13.7266    0.1340 H   0  0  0  0  0  0  0  0  0  0  0  0
    4.1879   14.5122   -0.7308 H   0  0  0  0  0  0  0  0  0  0  0  0
    3.5310   16.7681   -2.2589 H   0  0  0  0  0  0  0  0  0  0  0  0
    3.3293   15.1930   -3.0986 H   0  0  0  0  0  0  0  0  0  0  0  0
    1.9890   16.3889   -3.0986 H   0  0  0  0  0  0  0  0  0  0  0  0
  1  2  1  0
  2  3  1  0
  3  4  1  0
  4  5  1  0
  5  6  1  0
  6  7  1  0
  7  8  1  0
  7  9  1  0
  2 10  1  0
 10 11  1  0
 11 12  1  0
 12 13  1  0
 13 14  1  1
 13 15  1  0
 15 16  1  0
 16 17  1  0
 17 18  2  0
 18 19  1  0
 19 20  1  0
 20 21  1  0
 21 22  1  0
 22 23  1  0
 22 24  1  0
 24 25  1  0
 24 26  1  0
 19 27  1  0
 27 28  1  6
 27 29  1  0
 29 30  1  0
 30 31  1  0
 31 32  1  6
  7  5  1  0
 31 10  1  0
 31 13  1  0
 27 15  1  0
 24 18  1  0
  1 33  1  0
  1 34  1  0
  1 35  1  0
  2 36  1  1
  3 37  1  0
  3 38  1  0
  4 39  1  0
  4 40  1  0
  5 41  1  6
  8 42  1  0
  8 43  1  0
  8 44  1  0
  9 45  1  0
  9 46  1  0
  9 47  1  0
 10 48  1  1
 11 49  1  0
 11 50  1  0
 12 51  1  0
 12 52  1  0
 14 53  1  0
 14 54  1  0
 14 55  1  0
 15 56  1  6
 16 57  1  0
 16 58  1  0
 17 59  1  0
 19 60  1  1
 20 61  1  0
 20 62  1  0
 21 63  1  0
 21 64  1  0
 22 65  1  1
 23 66  1  0
 25 67  1  0
 25 68  1  0
 25 69  1  0
 26 70  1  0
 26 71  1  0
 26 72  1  0
 28 73  1  0
 28 74  1  0
 28 75  1  0
 29 76  1  0
 29 77  1  0
 30 78  1  0
 30 79  1  0
 32 80  1  0
 32 81  1  0
 32 82  1  0
M  END
>  <meeko>  (9) 
{"is_sidechain": [false], "intermolecular_energy": 2.731, "internal_energy": -0.839}

$$$$
EPH_relaxed_0001_pdb2pqr_Repair_328_r2_0001_out
     RDKit          3D

 82 86  0  0  0  0  0  0  0  0999 V2000
    1.2600   18.0340   -0.0320 C   0  0  0  0  0  0  0  0  0  0  0  0
    2.1530   16.9160   -0.5770 C   0  0  2  0  0  0  0  0  0  0  0  0
    3.1250   17.4260   -1.6610 C   0  0  0  0  0  0  0  0  0  0  0  0
    4.6000   17.3110   -1.2680 C   0  0  0  0  0  0  0  0  0  0  0  0
    5.5040   17.7970   -2.3610 C   0  0  2  0  0  0  0  0  0  0  0  0
    4.9710   17.6590   -3.6850 O   0  0  0  0  0  0  0  0  0  0  0  0
    6.1410   16.8810   -3.3890 C   0  0  0  0  0  0  0  0  0  0  0  0
    5.9020   15.4040   -3.3720 C   0  0  0  0  0  0  0  0  0  0  0  0
    7.3730   17.3500   -4.0990 C   0  0  0  0  0  0  0  0  0  0  0  0
    1.2930   15.7890   -1.1370 C   0  0  1  0  0  0  0  0  0  0  0  0
    0.6950   16.1290   -2.5280 C   0  0  0  0  0  0  0  0  0  0  0  0
    0.6540   14.8050   -3.3330 C   0  0  0  0  0  0  0  0  0  0  0  0
    0.9140   13.7010   -2.2820 C   0  0  1  0  0  0  0  0  0  0  0  0
   -0.4670   13.4710   -1.5920 C   0  0  0  0  0  0  0  0  0  0  0  0
    1.5210   12.3640   -2.8190 C   0  0  2  0  0  0  0  0  0  0  0  0
    0.6370   11.6030   -3.8230 C   0  0  0  0  0  0  0  0  0  0  0  0
   -0.3010   10.6090   -3.2210 C   0  0  0  0  0  0  0  0  0  0  0  0
   -0.2330   10.1310   -1.9650 C   0  0  0  0  0  0  0  0  0  0  0  0
    0.9240   10.5190   -1.0360 C   0  0  1  0  0  0  0  0  0  0  0  0
    1.4760    9.2480   -0.3380 C   0  0  0  0  0  0  0  0  0  0  0  0
    0.3880    8.4580    0.3840 C   0  0  0  0  0  0  0  0  0  0  0  0
   -0.7160    8.0410   -0.5840 C   0  0  2  0  0  0  0  0  0  0  0  0
   -0.1790    7.0970   -1.5160 O   0  0  0  0  0  0  0  0  0  0  0  0
   -1.3410    9.2380   -1.3540 C   0  0  0  0  0  0  0  0  0  0  0  0
   -2.1800   10.1020   -0.3800 C   0  0  0  0  0  0  0  0  0  0  0  0
   -2.3390    8.6660   -2.3970 C   0  0  0  0  0  0  0  0  0  0  0  0
    2.0720   11.4020   -1.6900 C   0  0  1  0  0  0  0  0  0  0  0  0
    3.1320   10.4810   -2.3680 C   0  0  0  0  0  0  0  0  0  0  0  0
    2.8280   12.1870   -0.5530 C   0  0  0  0  0  0  0  0  0  0  0  0
    2.2480   13.5560   -0.1490 C   0  0  0  0  0  0  0  0  0  0  0  0
    1.9820   14.4240   -1.3830 C   0  0  2  0  0  0  0  0  0  0  0  0
    3.3570   14.6910   -2.0850 C   0  0  0  0  0  0  0  0  0  0  0  0
    1.2765   18.0133    1.0677 H   0  0  0  0  0  0  0  0  0  0  0  0
    1.6327   19.0065   -0.3861 H   0  0  0  0  0  0  0  0  0  0  0  0
    0.2292   17.8854   -0.3861 H   0  0  0  0  0  0  0  0  0  0  0  0
    2.7594   16.5393    0.2599 H   0  0  0  0  0  0  0  0  0  0  0  0
    2.9628   16.8388   -2.5769 H   0  0  0  0  0  0  0  0  0  0  0  0
    2.9131   18.4957   -1.8053 H   0  0  0  0  0  0  0  0  0  0  0  0
    4.7764   17.9137   -0.3649 H   0  0  0  0  0  0  0  0  0  0  0  0
    4.8243   16.2500   -1.0835 H   0  0  0  0  0  0  0  0  0  0  0  0
    5.9234   18.5713   -1.7018 H   0  0  0  0  0  0  0  0  0  0  0  0
    5.8453   15.0537   -2.3308 H   0  0  0  0  0  0  0  0  0  0  0  0
    4.9559   15.1797   -3.8863 H   0  0  0  0  0  0  0  0  0  0  0  0
    6.7291   14.8928   -3.8863 H   0  0  0  0  0  0  0  0  0  0  0  0
    8.1343   17.6398   -3.3598 H   0  0  0  0  0  0  0  0  0  0  0  0
    7.7644   16.5380   -4.7294 H   0  0  0  0  0  0  0  0  0  0  0  0
    7.1254   18.2168   -4.7294 H   0  0  0  0  0  0  0  0  0  0  0  0
    0.5566   15.6980   -0.3249 H   0  0  0  0  0  0  0  0  0  0  0  0
   -0.3210   16.5349   -2.4145 H   0  0  0  0  0  0  0  0  0  0  0  0
    1.3026   16.8866   -3.0446 H   0  0  0  0  0  0  0  0  0  0  0  0
   -0.3301   14.6678   -3.8049 H   0  0  0  0  0  0  0  0  0  0  0  0
    1.3939   14.7886   -4.1468 H   0  0  0  0  0  0  0  0  0  0  0  0
   -0.3392   13.4923   -0.4997 H   0  0  0  0  0  0  0  0  0  0  0  0
   -1.1651   14.2653   -1.8950 H   0  0  0  0  0  0  0  0  0  0  0  0
   -0.8700   12.4934   -1.8950 H   0  0  0  0  0  0  0  0  0  0  0  0
    2.3918   12.7145   -3.3925 H   0  0  0  0  0  0  0  0  0  0  0  0
    0.0396   12.3414   -4.3779 H   0  0  0  0  0  0  0  0  0  0  0  0
    1.3251   11.0262   -4.4584 H   0  0  0  0  0  0  0  0  0  0  0  0
   -1.1164   10.2361   -3.8582 H   0  0  0  0  0  0  0  0  0  0  0  0
    0.4963   11.2012   -0.2866 H   0  0  0  0  0  0  0  0  0  0  0  0
    1.9367    8.6001   -1.0982 H   0  0  0  0  0  0  0  0  0  0  0  0
    2.2090    9.5723    0.4153 H   0  0  0  0  0  0  0  0  0  0  0  0
    0.8337    7.5574    0.8314 H   0  0  0  0  0  0  0  0  0  0  0  0
   -0.0515    9.0973    1.1638 H   0  0  0  0  0  0  0  0  0  0  0  0
   -1.5259    7.5949    0.0119 H   0  0  0  0  0  0  0  0  0  0  0  0
    0.2410    7.6000   -2.2350 H   0  0  0  0  0  0  0  0  0  0  0  0
   -1.9243    9.8387    0.6569 H   0  0  0  0  0  0  0  0  0  0  0  0
   -1.9614   11.1662   -0.5526 H   0  0  0  0  0  0  0  0  0  0  0  0
   -3.2501    9.9148   -0.5526 H   0  0  0  0  0  0  0  0  0  0  0  0
   -3.1791    8.1845   -1.8750 H   0  0  0  0  0  0  0  0  0  0  0  0
   -2.7191    9.4834   -3.0274 H   0  0  0  0  0  0  0  0  0  0  0  0
   -1.8259    7.9249   -3.0274 H   0  0  0  0  0  0  0  0  0  0  0  0
    3.7216    9.9687   -1.5935 H   0  0  0  0  0  0  0  0  0  0  0  0
    2.6220    9.7343   -2.9944 H   0  0  0  0  0  0  0  0  0  0  0  0
    3.8001   11.0903   -2.9944 H   0  0  0  0  0  0  0  0  0  0  0  0
    2.8332   11.5502    0.3439 H   0  0  0  0  0  0  0  0  0  0  0  0
    3.8225   12.4074   -0.9683 H   0  0  0  0  0  0  0  0  0  0  0  0
    1.3031   13.4010    0.3925 H   0  0  0  0  0  0  0  0  0  0  0  0
    2.9786   14.0714    0.4918 H   0  0  0  0  0  0  0  0  0  0  0  0
    4.1349   14.8421   -1.3221 H   0  0  0  0  0  0  0  0  0  0  0  0
    3.6219   13.8275   -2.7129 H   0  0  0  0  0  0  0  0  0  0  0  0
    3.2795   15.5909   -2.7129 H   0  0  0  0  0  0  0  0  0  0  0  0
  1  2  1  0
  2  3  1  0
  3  4  1  0
  4  5  1  0
  5  6  1  0
  6  7  1  0
  7  8  1  0
  7  9  1  0
  2 10  1  0
 10 11  1  0
 11 12  1  0
 12 13  1  0
 13 14  1  1
 13 15  1  0
 15 16  1  0
 16 17  1  0
 17 18  2  0
 18 19  1  0
 19 20  1  0
 20 21  1  0
 21 22  1  0
 22 23  1  0
 22 24  1  0
 24 25  1  0
 24 26  1  0
 19 27  1  0
 27 28  1  6
 27 29  1  0
 29 30  1  0
 30 31  1  0
 31 32  1  6
  7  5  1  0
 31 10  1  0
 31 13  1  0
 27 15  1  0
 24 18  1  0
  1 33  1  0
  1 34  1  0
  1 35  1  0
  2 36  1  1
  3 37  1  0
  3 38  1  0
  4 39  1  0
  4 40  1  0
  5 41  1  1
  8 42  1  0
  8 43  1  0
  8 44  1  0
  9 45  1  0
  9 46  1  0
  9 47  1  0
 10 48  1  1
 11 49  1  0
 11 50  1  0
 12 51  1  0
 12 52  1  0
 14 53  1  0
 14 54  1  0
 14 55  1  0
 15 56  1  6
 16 57  1  0
 16 58  1  0
 17 59  1  0
 19 60  1  1
 20 61  1  0
 20 62  1  0
 21 63  1  0
 21 64  1  0
 22 65  1  1
 23 66  1  0
 25 67  1  0
 25 68  1  0
 25 69  1  0
 26 70  1  0
 26 71  1  0
 26 72  1  0
 28 73  1  0
 28 74  1  0
 28 75  1  0
 29 76  1  0
 29 77  1  0
 30 78  1  0
 30 79  1  0
 32 80  1  0
 32 81  1  0
 32 82  1  0
M  END
>  <meeko>  (10) 
{"is_sidechain": [false], "intermolecular_energy": 2.731, "internal_energy": -0.839}

$$$$
EPH_relaxed_0001_pdb2pqr_Repair_328_r2_0001_out
     RDKit          3D

 82 86  0  0  0  0  0  0  0  0999 V2000
    3.9170   17.8070    1.0190 C   0  0  0  0  0  0  0  0  0  0  0  0
    2.9570   18.3190   -0.0590 C   0  0  2  0  0  0  0  0  0  0  0  0
    2.2130   19.5940    0.3850 C   0  0  0  0  0  0  0  0  0  0  0  0
    0.9160   19.3170    1.1490 C   0  0  0  0  0  0  0  0  0  0  0  0
   -0.2610   19.9850    0.5050 C   0  0  2  0  0  0  0  0  0  0  0  0
   -1.3810   20.1950    1.3760 O   0  0  0  0  0  0  0  0  0  0  0  0
   -1.5930   19.2950    0.2750 C   0  0  0  0  0  0  0  0  0  0  0  0
   -1.8160   17.8730    0.6860 C   0  0  0  0  0  0  0  0  0  0  0  0
   -2.5070   19.8370   -0.7790 C   0  0  0  0  0  0  0  0  0  0  0  0
    1.9530   17.2300   -0.4200 C   0  0  1  0  0  0  0  0  0  0  0  0
    0.8150   17.7470   -1.3400 C   0  0  0  0  0  0  0  0  0  0  0  0
    0.4510   16.5850   -2.2980 C   0  0  0  0  0  0  0  0  0  0  0  0
    1.1470   15.3450   -1.6890 C   0  0  1  0  0  0  0  0  0  0  0  0
    0.1940   14.8700   -0.5480 C   0  0  0  0  0  0  0  0  0  0  0  0
    1.4820   14.1840   -2.6810 C   0  0  2  0  0  0  0  0  0  0  0  0
    0.2640   13.5290   -3.3550 C   0  0  0  0  0  0  0  0  0  0  0  0
   -0.3160   12.3620   -2.6270 C   0  0  0  0  0  0  0  0  0  0  0  0
    0.2850   11.6820   -1.6330 C   0  0  0  0  0  0  0  0  0  0  0  0
    1.7240   12.0100   -1.2130 C   0  0  1  0  0  0  0  0  0  0  0  0
    2.5350   10.6950   -1.0710 C   0  0  0  0  0  0  0  0  0  0  0  0
    1.8670    9.6940   -0.1340 C   0  0  0  0  0  0  0  0  0  0  0  0
    0.4600    9.3480   -0.6170 C   0  0  2  0  0  0  0  0  0  0  0  0
    0.5600    8.6350   -1.8530 O   0  0  0  0  0  0  0  0  0  0  0  0
   -0.4460   10.5970   -0.8060 C   0  0  0  0  0  0  0  0  0  0  0  0
   -0.8010   11.1960    0.5770 C   0  0  0  0  0  0  0  0  0  0  0  0
   -1.7870   10.1230   -1.4300 C   0  0  0  0  0  0  0  0  0  0  0  0
    2.4730   13.0970   -2.0970 C   0  0  1  0  0  0  0  0  0  0  0  0
    3.1540   12.4110   -3.3200 C   0  0  0  0  0  0  0  0  0  0  0  0
    3.6320   13.7410   -1.2470 C   0  0  0  0  0  0  0  0  0  0  0  0
    3.2640   14.9590   -0.3780 C   0  0  0  0  0  0  0  0  0  0  0  0
    2.4880   15.9980   -1.1930 C   0  0  2  0  0  0  0  0  0  0  0  0
    3.4300   16.5100   -2.3350 C   0  0  0  0  0  0  0  0  0  0  0  0
    3.5028   18.0279    2.0138 H   0  0  0  0  0  0  0  0  0  0  0  0
    4.0462   16.7202    0.9087 H   0  0  0  0  0  0  0  0  0  0  0  0
    4.8915   18.3052    0.9087 H   0  0  0  0  0  0  0  0  0  0  0  0
    3.5589   18.5782   -0.9425 H   0  0  0  0  0  0  0  0  0  0  0  0
    2.8813   20.1768    1.0359 H   0  0  0  0  0  0  0  0  0  0  0  0
    1.9363   20.1388   -0.5297 H   0  0  0  0  0  0  0  0  0  0  0  0
    0.7409   18.2313    1.1721 H   0  0  0  0  0  0  0  0  0  0  0  0
    1.0248   19.7208    2.1664 H   0  0  0  0  0  0  0  0  0  0  0  0
    0.3995   20.5553   -0.1647 H   0  0  0  0  0  0  0  0  0  0  0  0
   -1.8265   17.8060    1.7839 H   0  0  0  0  0  0  0  0  0  0  0  0
   -2.7800   17.5232    0.2881 H   0  0  0  0  0  0  0  0  0  0  0  0
   -1.0054   17.2449    0.2881 H   0  0  0  0  0  0  0  0  0  0  0  0
   -3.3591   20.3423   -0.3009 H   0  0  0  0  0  0  0  0  0  0  0  0
   -1.9587   20.5561   -1.4054 H   0  0  0  0  0  0  0  0  0  0  0  0
   -2.8749   19.0110   -1.4054 H   0  0  0  0  0  0  0  0  0  0  0  0
    1.6335   16.9319    0.5895 H   0  0  0  0  0  0  0  0  0  0  0  0
   -0.0607   18.0291   -0.7371 H   0  0  0  0  0  0  0  0  0  0  0  0
    1.1354   18.6365   -1.9023 H   0  0  0  0  0  0  0  0  0  0  0  0
   -0.6387   16.4394   -2.3355 H   0  0  0  0  0  0  0  0  0  0  0  0
    0.7741   16.7794   -3.3314 H   0  0  0  0  0  0  0  0  0  0  0  0
    0.6487   15.0966    0.4276 H   0  0  0  0  0  0  0  0  0  0  0  0
   -0.7698   15.3931   -0.6337 H   0  0  0  0  0  0  0  0  0  0  0  0
    0.0315   13.7855   -0.6337 H   0  0  0  0  0  0  0  0  0  0  0  0
    2.0210   14.7090   -3.4834 H   0  0  0  0  0  0  0  0  0  0  0  0
   -0.5215   14.2927   -3.4537 H   0  0  0  0  0  0  0  0  0  0  0  0
    0.6225   13.1390   -4.3190 H   0  0  0  0  0  0  0  0  0  0  0  0
   -1.3202   12.0294   -2.9286 H   0  0  0  0  0  0  0  0  0  0  0  0
    1.6493   12.5091   -0.2356 H   0  0  0  0  0  0  0  0  0  0  0  0
    2.6365   10.2343   -2.0647 H   0  0  0  0  0  0  0  0  0  0  0  0
    3.5147   10.9517   -0.6417 H   0  0  0  0  0  0  0  0  0  0  0  0
    2.4713    8.7756   -0.0986 H   0  0  0  0  0  0  0  0  0  0  0  0
    1.7934   10.1452    0.8665 H   0  0  0  0  0  0  0  0  0  0  0  0
   -0.0141    8.7308    0.1603 H   0  0  0  0  0  0  0  0  0  0  0  0
    0.2680    7.7220   -1.6910 H   0  0  0  0  0  0  0  0  0  0  0  0
   -0.4128   10.5410    1.3709 H   0  0  0  0  0  0  0  0  0  0  0  0
   -0.3486   12.1942    0.6713 H   0  0  0  0  0  0  0  0  0  0  0  0
   -1.8938   11.2784    0.6713 H   0  0  0  0  0  0  0  0  0  0  0  0
   -2.4964    9.8722   -0.6276 H   0  0  0  0  0  0  0  0  0  0  0  0
   -2.2065   10.9273   -2.0522 H   0  0  0  0  0  0  0  0  0  0  0  0
   -1.6078    9.2337   -2.0522 H   0  0  0  0  0  0  0  0  0  0  0  0
    3.8874   11.6722   -2.9646 H   0  0  0  0  0  0  0  0  0  0  0  0
    2.3902   11.9056   -3.9292 H   0  0  0  0  0  0  0  0  0  0  0  0
    3.6650   13.1711   -3.9292 H   0  0  0  0  0  0  0  0  0  0  0  0
    4.0259   12.9619   -0.5778 H   0  0  0  0  0  0  0  0  0  0  0  0
    4.3521   14.1225   -1.9859 H   0  0  0  0  0  0  0  0  0  0  0  0
    2.6417   14.6248    0.4652 H   0  0  0  0  0  0  0  0  0  0  0  0
    4.1919   15.4220   -0.0112 H   0  0  0  0  0  0  0  0  0  0  0  0
    4.3148   16.9909   -1.8925 H   0  0  0  0  0  0  0  0  0  0  0  0
    3.7473   15.6602   -2.9572 H   0  0  0  0  0  0  0  0  0  0  0  0
    2.8894   17.2384   -2.9572 H   0  0  0  0  0  0  0  0  0  0  0  0
  1  2  1  0
  2  3  1  0
  3  4  1  0
  4  5  1  0
  5  6  1  0
  6  7  1  0
  7  8  1  0
  7  9  1  0
  2 10  1  0
 10 11  1  0
 11 12  1  0
 12 13  1  0
 13 14  1  1
 13 15  1  0
 15 16  1  0
 16 17  1  0
 17 18  2  0
 18 19  1  0
 19 20  1  0
 20 21  1  0
 21 22  1  0
 22 23  1  0
 22 24  1  0
 24 25  1  0
 24 26  1  0
 19 27  1  0
 27 28  1  6
 27 29  1  0
 29 30  1  0
 30 31  1  0
 31 32  1  6
  7  5  1  0
 31 10  1  0
 31 13  1  0
 27 15  1  0
 24 18  1  0
  1 33  1  0
  1 34  1  0
  1 35  1  0
  2 36  1  6
  3 37  1  0
  3 38  1  0
  4 39  1  0
  4 40  1  0
  5 41  1  6
  8 42  1  0
  8 43  1  0
  8 44  1  0
  9 45  1  0
  9 46  1  0
  9 47  1  0
 10 48  1  1
 11 49  1  0
 11 50  1  0
 12 51  1  0
 12 52  1  0
 14 53  1  0
 14 54  1  0
 14 55  1  0
 15 56  1  6
 16 57  1  0
 16 58  1  0
 17 59  1  0
 19 60  1  1
 20 61  1  0
 20 62  1  0
 21 63  1  0
 21 64  1  0
 22 65  1  1
 23 66  1  0
 25 67  1  0
 25 68  1  0
 25 69  1  0
 26 70  1  0
 26 71  1  0
 26 72  1  0
 28 73  1  0
 28 74  1  0
 28 75  1  0
 29 76  1  0
 29 77  1  0
 30 78  1  0
 30 79  1  0
 32 80  1  0
 32 81  1  0
 32 82  1  0
M  END
>  <meeko>  (11) 
{"is_sidechain": [false], "intermolecular_energy": 2.731, "internal_energy": -0.839}

$$$$
EPH_relaxed_0001_pdb2pqr_Repair_328_r2_0001_out
     RDKit          3D

 82 86  0  0  0  0  0  0  0  0999 V2000
    0.3750   10.4240   -3.6000 C   0  0  0  0  0  0  0  0  0  0  0  0
    1.3690   10.2510   -2.4480 C   0  0  2  0  0  0  0  0  0  0  0  0
    1.0710    8.9930   -1.6080 C   0  0  0  0  0  0  0  0  0  0  0  0
    0.3180    9.2870   -0.3070 C   0  0  0  0  0  0  0  0  0  0  0  0
   -1.1040    8.8160   -0.3720 C   0  0  2  0  0  0  0  0  0  0  0  0
   -1.6940    8.8710   -1.6770 O   0  0  0  0  0  0  0  0  0  0  0  0
   -2.2740    9.7300   -0.6830 C   0  0  0  0  0  0  0  0  0  0  0  0
   -2.0760   11.1890   -0.9490 C   0  0  0  0  0  0  0  0  0  0  0  0
   -3.6450    9.3110   -0.2490 C   0  0  0  0  0  0  0  0  0  0  0  0
    1.3540   11.4880   -1.5580 C   0  0  1  0  0  0  0  0  0  0  0  0
    2.3650   11.3920   -0.3840 C   0  0  0  0  0  0  0  0  0  0  0  0
    2.9070   12.8240   -0.1430 C   0  0  0  0  0  0  0  0  0  0  0  0
    1.9590   13.7420   -0.9500 C   0  0  1  0  0  0  0  0  0  0  0  0
    0.7070   13.9270   -0.0360 C   0  0  0  0  0  0  0  0  0  0  0  0
    2.5480   15.1160   -1.4050 C   0  0  2  0  0  0  0  0  0  0  0  0
    2.9600   16.0610   -0.2630 C   0  0  0  0  0  0  0  0  0  0  0  0
    1.8940   16.9930    0.2090 C   0  0  0  0  0  0  0  0  0  0  0  0
    0.7510   17.2700   -0.4450 C   0  0  0  0  0  0  0  0  0  0  0  0
    0.4830   16.6930   -1.8410 C   0  0  1  0  0  0  0  0  0  0  0  0
   -0.0420   17.8160   -2.7740 C   0  0  0  0  0  0  0  0  0  0  0  0
   -1.2580   18.5350   -2.1970 C   0  0  0  0  0  0  0  0  0  0  0  0
   -0.9350   19.1450   -0.8350 C   0  0  2  0  0  0  0  0  0  0  0  0
    0.0210   20.1940   -1.0150 O   0  0  0  0  0  0  0  0  0  0  0  0
   -0.3870   18.1090    0.1860 C   0  0  0  0  0  0  0  0  0  0  0  0
   -1.5230   17.1450    0.6100 C   0  0  0  0  0  0  0  0  0  0  0  0
    0.0310   18.8780    1.4680 C   0  0  0  0  0  0  0  0  0  0  0  0
    1.6760   15.8680   -2.4910 C   0  0  1  0  0  0  0  0  0  0  0  0
    2.6410   16.8330   -3.2460 C   0  0  0  0  0  0  0  0  0  0  0  0
    1.0920   14.8860   -3.5740 C   0  0  0  0  0  0  0  0  0  0  0  0
    0.6370   13.4990   -3.0810 C   0  0  0  0  0  0  0  0  0  0  0  0
    1.7180   12.8430   -2.2160 C   0  0  2  0  0  0  0  0  0  0  0  0
    2.9820   12.6240   -3.1150 C   0  0  0  0  0  0  0  0  0  0  0  0
   -0.6316   10.5992   -3.1925 H   0  0  0  0  0  0  0  0  0  0  0  0
    0.6753   11.2834   -4.2175 H   0  0  0  0  0  0  0  0  0  0  0  0
    0.3673    9.5137   -4.2175 H   0  0  0  0  0  0  0  0  0  0  0  0
    2.3684   10.1235   -2.8896 H   0  0  0  0  0  0  0  0  0  0  0  0
    0.4620    8.3064   -2.2144 H   0  0  0  0  0  0  0  0  0  0  0  0
    2.0407    8.5562   -1.3271 H   0  0  0  0  0  0  0  0  0  0  0  0
    0.8261    8.7740    0.5229 H   0  0  0  0  0  0  0  0  0  0  0  0
    0.3123   10.3760   -0.1521 H   0  0  0  0  0  0  0  0  0  0  0  0
   -0.9266    8.0939    0.4387 H   0  0  0  0  0  0  0  0  0  0  0  0
   -2.0027   11.7292    0.0064 H   0  0  0  0  0  0  0  0  0  0  0  0
   -1.1499   11.3344   -1.5245 H   0  0  0  0  0  0  0  0  0  0  0  0
   -2.9299   11.5760   -1.5245 H   0  0  0  0  0  0  0  0  0  0  0  0
   -3.6932    9.2963    0.8498 H   0  0  0  0  0  0  0  0  0  0  0  0
   -4.3868   10.0234   -0.6391 H   0  0  0  0  0  0  0  0  0  0  0  0
   -3.8618    8.3056   -0.6391 H   0  0  0  0  0  0  0  0  0  0  0  0
    0.2952   11.4870   -1.2599 H   0  0  0  0  0  0  0  0  0  0  0  0
    1.8612   11.0204    0.5205 H   0  0  0  0  0  0  0  0  0  0  0  0
    3.1821   10.6951   -0.6222 H   0  0  0  0  0  0  0  0  0  0  0  0
    2.8740   13.0766    0.9271 H   0  0  0  0  0  0  0  0  0  0  0  0
    3.9563   12.9306   -0.4555 H   0  0  0  0  0  0  0  0  0  0  0  0
    1.0136   13.8817    1.0194 H   0  0  0  0  0  0  0  0  0  0  0  0
    0.2439   14.9033   -0.2417 H   0  0  0  0  0  0  0  0  0  0  0  0
   -0.0187   13.1263   -0.2417 H   0  0  0  0  0  0  0  0  0  0  0  0
    3.4850   14.8178   -1.8981 H   0  0  0  0  0  0  0  0  0  0  0  0
    3.2751   15.4443    0.5916 H   0  0  0  0  0  0  0  0  0  0  0  0
    3.7621   16.6958   -0.6676 H   0  0  0  0  0  0  0  0  0  0  0  0
    2.0565   17.4963    1.1735 H   0  0  0  0  0  0  0  0  0  0  0  0
   -0.2931   15.9249   -1.7083 H   0  0  0  0  0  0  0  0  0  0  0  0
    0.7619   18.5509   -2.9283 H   0  0  0  0  0  0  0  0  0  0  0  0
   -0.3491   17.3474   -3.7206 H   0  0  0  0  0  0  0  0  0  0  0  0
   -1.5639   19.3355   -2.8867 H   0  0  0  0  0  0  0  0  0  0  0  0
   -2.0710   17.8048   -2.0711 H   0  0  0  0  0  0  0  0  0  0  0  0
   -1.8755   19.5317   -0.4155 H   0  0  0  0  0  0  0  0  0  0  0  0
    0.3210   20.1630   -1.9400 H   0  0  0  0  0  0  0  0  0  0  0  0
   -1.5755   17.1005    1.7078 H   0  0  0  0  0  0  0  0  0  0  0  0
   -2.4812   17.5098    0.2116 H   0  0  0  0  0  0  0  0  0  0  0  0
   -1.3190   16.1402    0.2116 H   0  0  0  0  0  0  0  0  0  0  0  0
   -0.2793   18.3071    2.3556 H   0  0  0  0  0  0  0  0  0  0  0  0
    1.1234   19.0070    1.4784 H   0  0  0  0  0  0  0  0  0  0  0  0
   -0.4548   19.8648    1.4784 H   0  0  0  0  0  0  0  0  0  0  0  0
    3.2229   17.4149   -2.5160 H   0  0  0  0  0  0  0  0  0  0  0  0
    3.3255   16.2473   -3.8772 H   0  0  0  0  0  0  0  0  0  0  0  0
    2.0553   17.5175   -3.8772 H   0  0  0  0  0  0  0  0  0  0  0  0
    0.2221   15.3774   -4.0342 H   0  0  0  0  0  0  0  0  0  0  0  0
    1.9268   14.6872   -4.2622 H   0  0  0  0  0  0  0  0  0  0  0  0
   -0.2810   13.6120   -2.4855 H   0  0  0  0  0  0  0  0  0  0  0  0
    0.4517   12.8590   -3.9562 H   0  0  0  0  0  0  0  0  0  0  0  0
    3.8643   12.4711   -2.4761 H   0  0  0  0  0  0  0  0  0  0  0  0
    2.8313   11.7386   -3.7501 H   0  0  0  0  0  0  0  0  0  0  0  0
    3.1380   13.5085   -3.7501 H   0  0  0  0  0  0  0  0  0  0  0  0
  1  2  1  0
  2  3  1  0
  3  4  1  0
  4  5  1  0
  5  6  1  0
  6  7  1  0
  7  8  1  0
  7  9  1  0
  2 10  1  0
 10 11  1  0
 11 12  1  0
 12 13  1  0
 13 14  1  1
 13 15  1  0
 15 16  1  0
 16 17  1  0
 17 18  2  0
 18 19  1  0
 19 20  1  0
 20 21  1  0
 21 22  1  0
 22 23  1  0
 22 24  1  0
 24 25  1  0
 24 26  1  0
 19 27  1  0
 27 28  1  6
 27 29  1  0
 29 30  1  0
 30 31  1  0
 31 32  1  6
  7  5  1  0
 31 10  1  0
 31 13  1  0
 27 15  1  0
 24 18  1  0
  1 33  1  0
  1 34  1  0
  1 35  1  0
  2 36  1  6
  3 37  1  0
  3 38  1  0
  4 39  1  0
  4 40  1  0
  5 41  1  1
  8 42  1  0
  8 43  1  0
  8 44  1  0
  9 45  1  0
  9 46  1  0
  9 47  1  0
 10 48  1  1
 11 49  1  0
 11 50  1  0
 12 51  1  0
 12 52  1  0
 14 53  1  0
 14 54  1  0
 14 55  1  0
 15 56  1  6
 16 57  1  0
 16 58  1  0
 17 59  1  0
 19 60  1  1
 20 61  1  0
 20 62  1  0
 21 63  1  0
 21 64  1  0
 22 65  1  1
 23 66  1  0
 25 67  1  0
 25 68  1  0
 25 69  1  0
 26 70  1  0
 26 71  1  0
 26 72  1  0
 28 73  1  0
 28 74  1  0
 28 75  1  0
 29 76  1  0
 29 77  1  0
 30 78  1  0
 30 79  1  0
 32 80  1  0
 32 81  1  0
 32 82  1  0
M  END
>  <meeko>  (12) 
{"is_sidechain": [false], "intermolecular_energy": 2.731, "internal_energy": -0.839}

$$$$
EPH_relaxed_0001_pdb2pqr_Repair_328_r2_0001_out
     RDKit          3D

 82 86  0  0  0  0  0  0  0  0999 V2000
   -5.2230    5.8260   -1.6980 C   0  0  0  0  0  0  0  0  0  0  0  0
   -5.4780    7.3260   -1.8720 C   0  0  2  0  0  0  0  0  0  0  0  0
   -5.1990    8.1170   -0.5790 C   0  0  0  0  0  0  0  0  0  0  0  0
   -4.2170    9.2770   -0.7660 C   0  0  0  0  0  0  0  0  0  0  0  0
   -2.8240    8.8930   -0.3700 C   0  0  2  0  0  0  0  0  0  0  0  0
   -2.2690    9.6700    0.6990 O   0  0  0  0  0  0  0  0  0  0  0  0
   -1.6180    9.7910   -0.5760 C   0  0  0  0  0  0  0  0  0  0  0  0
   -1.7510   11.1440   -1.2010 C   0  0  0  0  0  0  0  0  0  0  0  0
   -0.2590    9.1650   -0.6200 C   0  0  0  0  0  0  0  0  0  0  0  0
   -6.9140    7.5600   -2.3270 C   0  0  1  0  0  0  0  0  0  0  0  0
   -7.2330    6.8660   -3.6780 C   0  0  0  0  0  0  0  0  0  0  0  0
   -8.7100    6.4010   -3.6030 C   0  0  0  0  0  0  0  0  0  0  0  0
   -9.2850    7.1250   -2.3640 C   0  0  1  0  0  0  0  0  0  0  0  0
   -9.6320    8.5620   -2.8630 C   0  0  0  0  0  0  0  0  0  0  0  0
  -10.5110    6.4430   -1.6720 C   0  0  2  0  0  0  0  0  0  0  0  0
  -11.7710    6.3240   -2.5460 C   0  0  0  0  0  0  0  0  0  0  0  0
  -12.7190    7.4740   -2.4590 C   0  0  0  0  0  0  0  0  0  0  0  0
  -12.7110    8.4230   -1.5040 C   0  0  0  0  0  0  0  0  0  0  0  0
  -11.7390    8.3410   -0.3200 C   0  0  1  0  0  0  0  0  0  0  0  0
  -12.5050    8.6240    0.9990 C   0  0  0  0  0  0  0  0  0  0  0  0
  -13.2680    9.9440    0.9610 C   0  0  0  0  0  0  0  0  0  0  0  0
  -14.2660    9.9650   -0.1940 C   0  0  2  0  0  0  0  0  0  0  0  0
  -15.2870    8.9950    0.0610 O   0  0  0  0  0  0  0  0  0  0  0  0
  -13.6100    9.6820   -1.5750 C   0  0  0  0  0  0  0  0  0  0  0  0
  -12.7280   10.8860   -1.9880 C   0  0  0  0  0  0  0  0  0  0  0  0
  -14.7430    9.5910   -2.6320 C   0  0  0  0  0  0  0  0  0  0  0  0
  -10.8530    7.0240   -0.2400 C   0  0  1  0  0  0  0  0  0  0  0  0
  -11.6280    5.9060    0.5210 C   0  0  0  0  0  0  0  0  0  0  0  0
   -9.5610    7.3250    0.6080 C   0  0  0  0  0  0  0  0  0  0  0  0
   -8.3450    7.8850   -0.1530 C   0  0  0  0  0  0  0  0  0  0  0  0
   -8.0450    7.0480   -1.4000 C   0  0  2  0  0  0  0  0  0  0  0  0
   -7.6710    5.6020   -0.9280 C   0  0  0  0  0  0  0  0  0  0  0  0
   -5.1817    5.5830   -0.6260 H   0  0  0  0  0  0  0  0  0  0  0  0
   -6.0375    5.2583   -2.1715 H   0  0  0  0  0  0  0  0  0  0  0  0
   -4.2666    5.5593   -2.1715 H   0  0  0  0  0  0  0  0  0  0  0  0
   -4.7805    7.6929   -2.6394 H   0  0  0  0  0  0  0  0  0  0  0  0
   -6.1514    8.5246   -0.2091 H   0  0  0  0  0  0  0  0  0  0  0  0
   -4.7371    7.4167    0.1326 H   0  0  0  0  0  0  0  0  0  0  0  0
   -4.2169    9.5769   -1.8243 H   0  0  0  0  0  0  0  0  0  0  0  0
   -4.5403   10.1074   -0.1210 H   0  0  0  0  0  0  0  0  0  0  0  0
   -3.0147    7.8417   -0.6315 H   0  0  0  0  0  0  0  0  0  0  0  0
   -1.8260   11.9067   -0.4119 H   0  0  0  0  0  0  0  0  0  0  0  0
   -0.8686   11.3479   -1.8253 H   0  0  0  0  0  0  0  0  0  0  0  0
   -2.6562   11.1721   -1.8253 H   0  0  0  0  0  0  0  0  0  0  0  0
    0.1016    8.9989    0.4059 H   0  0  0  0  0  0  0  0  0  0  0  0
   -0.3157    8.2023   -1.1491 H   0  0  0  0  0  0  0  0  0  0  0  0
    0.4358    9.8338   -1.1491 H   0  0  0  0  0  0  0  0  0  0  0  0
   -6.9217    8.6595   -2.3580 H   0  0  0  0  0  0  0  0  0  0  0  0
   -7.1006    7.5748   -4.5087 H   0  0  0  0  0  0  0  0  0  0  0  0
   -6.5590    6.0147   -3.8540 H   0  0  0  0  0  0  0  0  0  0  0  0
   -9.2559    6.6940   -4.5119 H   0  0  0  0  0  0  0  0  0  0  0  0
   -8.7994    5.3074   -3.5256 H   0  0  0  0  0  0  0  0  0  0  0  0
   -9.7914    9.2221   -1.9976 H   0  0  0  0  0  0  0  0  0  0  0  0
   -8.8016    8.9493   -3.4716 H   0  0  0  0  0  0  0  0  0  0  0  0
  -10.5477    8.5277   -3.4716 H   0  0  0  0  0  0  0  0  0  0  0  0
  -10.1541    5.4134   -1.5218 H   0  0  0  0  0  0  0  0  0  0  0  0
  -11.4499    6.2268   -3.5936 H   0  0  0  0  0  0  0  0  0  0  0  0
  -12.3202    5.4481   -2.1701 H   0  0  0  0  0  0  0  0  0  0  0  0
  -13.4887    7.5526   -3.2409 H   0  0  0  0  0  0  0  0  0  0  0  0
  -10.9858    9.1244   -0.4902 H   0  0  0  0  0  0  0  0  0  0  0  0
  -13.2214    7.8076    1.1727 H   0  0  0  0  0  0  0  0  0  0  0  0
  -11.7628    8.6907    1.8082 H   0  0  0  0  0  0  0  0  0  0  0  0
  -13.8115   10.0729    1.9086 H   0  0  0  0  0  0  0  0  0  0  0  0
  -12.5469   10.7620    0.8165 H   0  0  0  0  0  0  0  0  0  0  0  0
  -14.6869   10.9799   -0.2481 H   0  0  0  0  0  0  0  0  0  0  0  0
  -15.6260    9.1540    0.9580 H   0  0  0  0  0  0  0  0  0  0  0  0
  -12.3557   11.3942   -1.0863 H   0  0  0  0  0  0  0  0  0  0  0  0
  -11.8764   10.5288   -2.5856 H   0  0  0  0  0  0  0  0  0  0  0  0
  -13.3254   11.5903   -2.5856 H   0  0  0  0  0  0  0  0  0  0  0  0
  -15.7146    9.5130   -2.1222 H   0  0  0  0  0  0  0  0  0  0  0  0
  -14.7306   10.4930   -3.2614 H   0  0  0  0  0  0  0  0  0  0  0  0
  -14.5868    8.7025   -3.2614 H   0  0  0  0  0  0  0  0  0  0  0  0
  -11.5218    6.0591    1.6051 H   0  0  0  0  0  0  0  0  0  0  0  0
  -12.6927    5.9466    0.2475 H   0  0  0  0  0  0  0  0  0  0  0  0
  -11.2164    4.9233    0.2475 H   0  0  0  0  0  0  0  0  0  0  0  0
   -9.8345    8.0566    1.3825 H   0  0  0  0  0  0  0  0  0  0  0  0
   -9.2346    6.3471    0.9917 H   0  0  0  0  0  0  0  0  0  0  0  0
   -8.5568    8.9206   -0.4573 H   0  0  0  0  0  0  0  0  0  0  0  0
   -7.4692    7.8501    0.5116 H   0  0  0  0  0  0  0  0  0  0  0  0
   -7.6617    5.5661    0.1714 H   0  0  0  0  0  0  0  0  0  0  0  0
   -8.4139    4.8873   -1.3120 H   0  0  0  0  0  0  0  0  0  0  0  0
   -6.6748    5.3371   -1.3120 H   0  0  0  0  0  0  0  0  0  0  0  0
  1  2  1  0
  2  3  1  0
  3  4  1  0
  4  5  1  0
  5  6  1  0
  6  7  1  0
  7  8  1  0
  7  9  1  0
  2 10  1  0
 10 11  1  0
 11 12  1  0
 12 13  1  0
 13 14  1  6
 13 15  1  0
 15 16  1  0
 16 17  1  0
 17 18  2  0
 18 19  1  0
 19 20  1  0
 20 21  1  0
 21 22  1  0
 22 23  1  0
 22 24  1  0
 24 25  1  0
 24 26  1  0
 19 27  1  0
 27 28  1  1
 27 29  1  0
 29 30  1  0
 30 31  1  0
 31 32  1  1
  7  5  1  0
 31 10  1  0
 31 13  1  0
 27 15  1  0
 24 18  1  0
  1 33  1  0
  1 34  1  0
  1 35  1  0
  2 36  1  6
  3 37  1  0
  3 38  1  0
  4 39  1  0
  4 40  1  0
  5 41  1  1
  8 42  1  0
  8 43  1  0
  8 44  1  0
  9 45  1  0
  9 46  1  0
  9 47  1  0
 10 48  1  6
 11 49  1  0
 11 50  1  0
 12 51  1  0
 12 52  1  0
 14 53  1  0
 14 54  1  0
 14 55  1  0
 15 56  1  1
 16 57  1  0
 16 58  1  0
 17 59  1  0
 19 60  1  6
 20 61  1  0
 20 62  1  0
 21 63  1  0
 21 64  1  0
 22 65  1  6
 23 66  1  0
 25 67  1  0
 25 68  1  0
 25 69  1  0
 26 70  1  0
 26 71  1  0
 26 72  1  0
 28 73  1  0
 28 74  1  0
 28 75  1  0
 29 76  1  0
 29 77  1  0
 30 78  1  0
 30 79  1  0
 32 80  1  0
 32 81  1  0
 32 82  1  0
M  END
>  <meeko>  (13) 
{"is_sidechain": [false], "intermolecular_energy": 2.731, "internal_energy": -0.839}

$$$$
EPH_relaxed_0001_pdb2pqr_Repair_328_r2_0001_out
     RDKit          3D

 82 86  0  0  0  0  0  0  0  0999 V2000
    4.6240   16.8660   -1.5620 C   0  0  0  0  0  0  0  0  0  0  0  0
    4.6950   15.3380   -1.6230 C   0  0  2  0  0  0  0  0  0  0  0  0
    5.0650   14.8300   -3.0310 C   0  0  0  0  0  0  0  0  0  0  0  0
    6.0030   13.6200   -3.0220 C   0  0  0  0  0  0  0  0  0  0  0  0
    5.5910   12.5920   -4.0320 C   0  0  2  0  0  0  0  0  0  0  0  0
    5.1380   11.3520   -3.4740 O   0  0  0  0  0  0  0  0  0  0  0  0
    6.3420   11.2930   -4.2570 C   0  0  0  0  0  0  0  0  0  0  0  0
    7.5660   10.9520   -3.4670 C   0  0  0  0  0  0  0  0  0  0  0  0
    6.1750   10.5870   -5.5670 C   0  0  0  0  0  0  0  0  0  0  0  0
    3.3640   14.7380   -1.1870 C   0  0  1  0  0  0  0  0  0  0  0  0
    2.3480   15.8140   -0.7180 C   0  0  0  0  0  0  0  0  0  0  0  0
    0.9430   15.3210   -1.1490 C   0  0  0  0  0  0  0  0  0  0  0  0
    1.1540   13.8420   -1.5490 C   0  0  1  0  0  0  0  0  0  0  0  0
    1.1530   13.0580   -0.2000 C   0  0  0  0  0  0  0  0  0  0  0  0
    0.1240   13.2470   -2.5630 C   0  0  2  0  0  0  0  0  0  0  0  0
   -1.3320   13.2060   -2.0670 C   0  0  0  0  0  0  0  0  0  0  0  0
   -1.7290   11.9530   -1.3590 C   0  0  0  0  0  0  0  0  0  0  0  0
   -1.0450   10.7940   -1.3780 C   0  0  0  0  0  0  0  0  0  0  0  0
    0.2090   10.6330   -2.2470 C   0  0  1  0  0  0  0  0  0  0  0  0
    0.1350    9.2890   -3.0180 C   0  0  0  0  0  0  0  0  0  0  0  0
   -0.0920    8.0960   -2.0950 C   0  0  0  0  0  0  0  0  0  0  0  0
   -1.3780    8.2660   -1.2910 C   0  0  2  0  0  0  0  0  0  0  0  0
   -2.4920    8.2130   -2.1870 O   0  0  0  0  0  0  0  0  0  0  0  0
   -1.4230    9.5900   -0.4790 C   0  0  0  0  0  0  0  0  0  0  0  0
   -0.4090    9.5190    0.6890 C   0  0  0  0  0  0  0  0  0  0  0  0
   -2.8280    9.7040    0.1720 C   0  0  0  0  0  0  0  0  0  0  0  0
    0.5600   11.8620   -3.1920 C   0  0  1  0  0  0  0  0  0  0  0  0
   -0.2040   11.7270   -4.5450 C   0  0  0  0  0  0  0  0  0  0  0  0
    2.0940   11.8190   -3.5420 C   0  0  0  0  0  0  0  0  0  0  0  0
    3.0500   12.5280   -2.5630 C   0  0  0  0  0  0  0  0  0  0  0  0
    2.5590   13.9440   -2.2470 C   0  0  2  0  0  0  0  0  0  0  0  0
    2.5710   14.7640   -3.5820 C   0  0  0  0  0  0  0  0  0  0  0  0
    4.6089   17.1907   -0.5111 H   0  0  0  0  0  0  0  0  0  0  0  0
    5.5032   17.2943   -2.0655 H   0  0  0  0  0  0  0  0  0  0  0  0
    3.7089   17.2109   -2.0655 H   0  0  0  0  0  0  0  0  0  0  0  0
    5.4911   15.0162   -0.9355 H   0  0  0  0  0  0  0  0  0  0  0  0
    4.1387   14.5475   -3.5528 H   0  0  0  0  0  0  0  0  0  0  0  0
    5.5995   15.6473   -3.5374 H   0  0  0  0  0  0  0  0  0  0  0  0
    7.0237   13.9584   -3.2537 H   0  0  0  0  0  0  0  0  0  0  0  0
    5.9578   13.1583   -2.0246 H   0  0  0  0  0  0  0  0  0  0  0  0
    5.2478   13.3752   -4.7240 H   0  0  0  0  0  0  0  0  0  0  0  0
    7.3385   11.0154   -2.3927 H   0  0  0  0  0  0  0  0  0  0  0  0
    7.8887    9.9298   -3.7138 H   0  0  0  0  0  0  0  0  0  0  0  0
    8.3708   11.6601   -3.7138 H   0  0  0  0  0  0  0  0  0  0  0  0
    5.9253    9.5312   -5.3853 H   0  0  0  0  0  0  0  0  0  0  0  0
    5.3645   11.0623   -6.1390 H   0  0  0  0  0  0  0  0  0  0  0  0
    7.1126   10.6488   -6.1390 H   0  0  0  0  0  0  0  0  0  0  0  0
    3.7189   14.0590   -0.3977 H   0  0  0  0  0  0  0  0  0  0  0  0
    2.3915   15.9248    0.3755 H   0  0  0  0  0  0  0  0  0  0  0  0
    2.5765   16.7935   -1.1634 H   0  0  0  0  0  0  0  0  0  0  0  0
    0.2309   15.3997   -0.3143 H   0  0  0  0  0  0  0  0  0  0  0  0
    0.5250   15.9199   -1.9715 H   0  0  0  0  0  0  0  0  0  0  0  0
    1.1539   13.7704    0.6381 H   0  0  0  0  0  0  0  0  0  0  0  0
    0.2540   12.4266   -0.1435 H   0  0  0  0  0  0  0  0  0  0  0  0
    2.0503   12.4243   -0.1435 H   0  0  0  0  0  0  0  0  0  0  0  0
    0.1407   13.9867   -3.3770 H   0  0  0  0  0  0  0  0  0  0  0  0
   -1.4794   14.0486   -1.3754 H   0  0  0  0  0  0  0  0  0  0  0  0
   -1.9620   13.2598   -2.9671 H   0  0  0  0  0  0  0  0  0  0  0  0
   -2.6591   11.9792   -0.7723 H   0  0  0  0  0  0  0  0  0  0  0  0
    1.0616   10.6175   -1.5521 H   0  0  0  0  0  0  0  0  0  0  0  0
   -0.6952    9.3408   -3.7377 H   0  0  0  0  0  0  0  0  0  0  0  0
    1.1007    9.1407   -3.5233 H   0  0  0  0  0  0  0  0  0  0  0  0
   -0.1644    7.1807   -2.7008 H   0  0  0  0  0  0  0  0  0  0  0  0
    0.7536    8.0276   -1.3948 H   0  0  0  0  0  0  0  0  0  0  0  0
   -1.4187    7.4473   -0.5574 H   0  0  0  0  0  0  0  0  0  0  0  0
   -3.2290    7.7870   -1.7170 H   0  0  0  0  0  0  0  0  0  0  0  0
   -0.9493    9.5568    1.6464 H   0  0  0  0  0  0  0  0  0  0  0  0
    0.1586    8.5789    0.6252 H   0  0  0  0  0  0  0  0  0  0  0  0
    0.2841   10.3708    0.6252 H   0  0  0  0  0  0  0  0  0  0  0  0
   -2.7264    9.6958    1.2673 H   0  0  0  0  0  0  0  0  0  0  0  0
   -3.3039   10.6437   -0.1450 H   0  0  0  0  0  0  0  0  0  0  0  0
   -3.4491    8.8533   -0.1450 H   0  0  0  0  0  0  0  0  0  0  0  0
   -1.2696   11.5387   -4.3472 H   0  0  0  0  0  0  0  0  0  0  0  0
   -0.0969   12.6580   -5.1210 H   0  0  0  0  0  0  0  0  0  0  0  0
    0.2156   10.8891   -5.1210 H   0  0  0  0  0  0  0  0  0  0  0  0
    2.3941   10.7620   -3.5935 H   0  0  0  0  0  0  0  0  0  0  0  0
    2.1890   12.3717   -4.4883 H   0  0  0  0  0  0  0  0  0  0  0  0
    3.1036   11.9489   -1.6293 H   0  0  0  0  0  0  0  0  0  0  0  0
    4.0433   12.5971   -3.0305 H   0  0  0  0  0  0  0  0  0  0  0  0
    2.5867   15.8395   -3.3516 H   0  0  0  0  0  0  0  0  0  0  0  0
    3.4654   14.5010   -4.1658 H   0  0  0  0  0  0  0  0  0  0  0  0
    1.6693   14.5273   -4.1658 H   0  0  0  0  0  0  0  0  0  0  0  0
  1  2  1  0
  2  3  1  0
  3  4  1  0
  4  5  1  0
  5  6  1  0
  6  7  1  0
  7  8  1  0
  7  9  1  0
  2 10  1  0
 10 11  1  0
 11 12  1  0
 12 13  1  0
 13 14  1  1
 13 15  1  0
 15 16  1  0
 16 17  1  0
 17 18  2  0
 18 19  1  0
 19 20  1  0
 20 21  1  0
 21 22  1  0
 22 23  1  0
 22 24  1  0
 24 25  1  0
 24 26  1  0
 19 27  1  0
 27 28  1  6
 27 29  1  0
 29 30  1  0
 30 31  1  0
 31 32  1  6
  7  5  1  0
 31 10  1  0
 31 13  1  0
 27 15  1  0
 24 18  1  0
  1 33  1  0
  1 34  1  0
  1 35  1  0
  2 36  1  1
  3 37  1  0
  3 38  1  0
  4 39  1  0
  4 40  1  0
  5 41  1  6
  8 42  1  0
  8 43  1  0
  8 44  1  0
  9 45  1  0
  9 46  1  0
  9 47  1  0
 10 48  1  1
 11 49  1  0
 11 50  1  0
 12 51  1  0
 12 52  1  0
 14 53  1  0
 14 54  1  0
 14 55  1  0
 15 56  1  6
 16 57  1  0
 16 58  1  0
 17 59  1  0
 19 60  1  1
 20 61  1  0
 20 62  1  0
 21 63  1  0
 21 64  1  0
 22 65  1  1
 23 66  1  0
 25 67  1  0
 25 68  1  0
 25 69  1  0
 26 70  1  0
 26 71  1  0
 26 72  1  0
 28 73  1  0
 28 74  1  0
 28 75  1  0
 29 76  1  0
 29 77  1  0
 30 78  1  0
 30 79  1  0
 32 80  1  0
 32 81  1  0
 32 82  1  0
M  END
>  <meeko>  (14) 
{"is_sidechain": [false], "intermolecular_energy": 2.731, "internal_energy": -0.839}

$$$$
EPH_relaxed_0001_pdb2pqr_Repair_328_r2_0001_out
     RDKit          3D

 82 86  0  0  0  0  0  0  0  0999 V2000
   -1.3960   10.3400    1.5070 C   0  0  0  0  0  0  0  0  0  0  0  0
   -1.9920   10.0520    0.1270 C   0  0  2  0  0  0  0  0  0  0  0  0
   -2.7680    8.7200    0.0950 C   0  0  0  0  0  0  0  0  0  0  0  0
   -4.2150    8.8610   -0.3850 C   0  0  0  0  0  0  0  0  0  0  0  0
   -4.8000    7.5380   -0.7760 C   0  0  2  0  0  0  0  0  0  0  0  0
   -4.8610    7.3040   -2.1890 O   0  0  0  0  0  0  0  0  0  0  0  0
   -6.1220    7.3910   -1.5070 C   0  0  0  0  0  0  0  0  0  0  0  0
   -6.9400    8.5860   -1.8880 C   0  0  0  0  0  0  0  0  0  0  0  0
   -6.8490    6.0860   -1.4150 C   0  0  0  0  0  0  0  0  0  0  0  0
   -0.8880   10.0370   -0.9240 C   0  0  1  0  0  0  0  0  0  0  0  0
   -1.2570    9.1840   -2.1670 C   0  0  0  0  0  0  0  0  0  0  0  0
   -0.6240    9.8870   -3.3950 C   0  0  0  0  0  0  0  0  0  0  0  0
    0.3550   10.9210   -2.7910 C   0  0  1  0  0  0  0  0  0  0  0  0
    1.6370   10.1020   -2.4410 C   0  0  0  0  0  0  0  0  0  0  0  0
    0.6880   12.1610   -3.6840 C   0  0  2  0  0  0  0  0  0  0  0  0
    1.3930   11.8380   -5.0130 C   0  0  0  0  0  0  0  0  0  0  0  0
    2.8850   11.8310   -4.9570 C   0  0  0  0  0  0  0  0  0  0  0  0
    3.6330   12.3480   -3.9650 C   0  0  0  0  0  0  0  0  0  0  0  0
    2.9830   13.1060   -2.8010 C   0  0  1  0  0  0  0  0  0  0  0  0
    3.7620   14.4220   -2.5400 C   0  0  0  0  0  0  0  0  0  0  0  0
    5.2530   14.1850   -2.3220 C   0  0  0  0  0  0  0  0  0  0  0  0
    5.8760   13.4820   -3.5250 C   0  0  2  0  0  0  0  0  0  0  0  0
    5.8380   14.3680   -4.6480 O   0  0  0  0  0  0  0  0  0  0  0  0
    5.1670   12.1470   -3.8890 C   0  0  0  0  0  0  0  0  0  0  0  0
    5.4650   11.0860   -2.8010 C   0  0  0  0  0  0  0  0  0  0  0  0
    5.8010   11.6120   -5.2020 C   0  0  0  0  0  0  0  0  0  0  0  0
    1.4150   13.3370   -2.9140 C   0  0  1  0  0  0  0  0  0  0  0  0
    1.1260   14.6410   -3.7190 C   0  0  0  0  0  0  0  0  0  0  0  0
    0.8230   13.5650   -1.4730 C   0  0  0  0  0  0  0  0  0  0  0  0
    0.4020   12.3080   -0.6880 C   0  0  0  0  0  0  0  0  0  0  0  0
   -0.4790   11.3950   -1.5460 C   0  0  2  0  0  0  0  0  0  0  0  0
   -1.7870   12.1840   -1.8950 C   0  0  0  0  0  0  0  0  0  0  0  0
   -2.0952   10.0022    2.2861 H   0  0  0  0  0  0  0  0  0  0  0  0
   -0.4415    9.8037    1.6133 H   0  0  0  0  0  0  0  0  0  0  0  0
   -1.2230   11.4211    1.6133 H   0  0  0  0  0  0  0  0  0  0  0  0
   -2.7081   10.8563   -0.0976 H   0  0  0  0  0  0  0  0  0  0  0  0
   -2.2437    8.0290   -0.5815 H   0  0  0  0  0  0  0  0  0  0  0  0
   -2.8077    8.3466    1.1289 H   0  0  0  0  0  0  0  0  0  0  0  0
   -4.8195    9.2923    0.4265 H   0  0  0  0  0  0  0  0  0  0  0  0
   -4.2208    9.5139   -1.2703 H   0  0  0  0  0  0  0  0  0  0  0  0
   -4.4045    7.0671    0.1361 H   0  0  0  0  0  0  0  0  0  0  0  0
   -7.2893    9.0964   -0.9783 H   0  0  0  0  0  0  0  0  0  0  0  0
   -6.3246    9.2771   -2.4828 H   0  0  0  0  0  0  0  0  0  0  0  0
   -7.8069    8.2624   -2.4828 H   0  0  0  0  0  0  0  0  0  0  0  0
   -6.9961    5.8220   -0.3573 H   0  0  0  0  0  0  0  0  0  0  0  0
   -7.8272    6.1755   -1.9100 H   0  0  0  0  0  0  0  0  0  0  0  0
   -6.2580    5.3013   -1.9100 H   0  0  0  0  0  0  0  0  0  0  0  0
   -0.0621    9.6380   -0.3168 H   0  0  0  0  0  0  0  0  0  0  0  0
   -0.8519    8.1667   -2.0623 H   0  0  0  0  0  0  0  0  0  0  0  0
   -2.3481    9.0998   -2.2788 H   0  0  0  0  0  0  0  0  0  0  0  0
   -0.0847    9.1619   -4.0223 H   0  0  0  0  0  0  0  0  0  0  0  0
   -1.3795   10.3564   -4.0423 H   0  0  0  0  0  0  0  0  0  0  0  0
    1.7422   10.0348   -1.3481 H   0  0  0  0  0  0  0  0  0  0  0  0
    1.5526    9.0902   -2.8641 H   0  0  0  0  0  0  0  0  0  0  0  0
    2.5196   10.6039   -2.8641 H   0  0  0  0  0  0  0  0  0  0  0  0
   -0.3114   12.5293   -3.9589 H   0  0  0  0  0  0  0  0  0  0  0  0
    1.0603   10.8422   -5.3412 H   0  0  0  0  0  0  0  0  0  0  0  0
    1.1179   12.6450   -5.7080 H   0  0  0  0  0  0  0  0  0  0  0  0
    3.4180   11.3635   -5.7980 H   0  0  0  0  0  0  0  0  0  0  0  0
    3.0635   12.4452   -1.9253 H   0  0  0  0  0  0  0  0  0  0  0  0
    3.6335   15.0859   -3.4076 H   0  0  0  0  0  0  0  0  0  0  0  0
    3.3576   14.8732   -1.6219 H   0  0  0  0  0  0  0  0  0  0  0  0
    5.7531   15.1532   -2.1722 H   0  0  0  0  0  0  0  0  0  0  0  0
    5.3806   13.5447   -1.4367 H   0  0  0  0  0  0  0  0  0  0  0  0
    6.9114   13.2250   -3.2568 H   0  0  0  0  0  0  0  0  0  0  0  0
    4.9250   14.3810   -4.9820 H   0  0  0  0  0  0  0  0  0  0  0  0
    5.3385   11.5363   -1.8054 H   0  0  0  0  0  0  0  0  0  0  0  0
    4.7694   10.2412   -2.9124 H   0  0  0  0  0  0  0  0  0  0  0  0
    6.4988   10.7269   -2.9124 H   0  0  0  0  0  0  0  0  0  0  0  0
    6.6207   10.9203   -4.9580 H   0  0  0  0  0  0  0  0  0  0  0  0
    5.0364   11.0820   -5.7890 H   0  0  0  0  0  0  0  0  0  0  0  0
    6.1949   12.4548   -5.7890 H   0  0  0  0  0  0  0  0  0  0  0  0
    0.9422   15.4703   -3.0200 H   0  0  0  0  0  0  0  0  0  0  0  0
    1.9928   14.8806   -4.3524 H   0  0  0  0  0  0  0  0  0  0  0  0
    0.2391   14.4919   -4.3524 H   0  0  0  0  0  0  0  0  0  0  0  0
    1.5864   14.0884   -0.8786 H   0  0  0  0  0  0  0  0  0  0  0  0
   -0.1070   14.1310   -1.6302 H   0  0  0  0  0  0  0  0  0  0  0  0
    1.3031   11.7556   -0.3832 H   0  0  0  0  0  0  0  0  0  0  0  0
   -0.1741   12.6225    0.1948 H   0  0  0  0  0  0  0  0  0  0  0  0
   -2.2909   12.4879   -0.9656 H   0  0  0  0  0  0  0  0  0  0  0  0
   -1.5303   13.0780   -2.4822 H   0  0  0  0  0  0  0  0  0  0  0  0
   -2.4581   11.5399   -2.4822 H   0  0  0  0  0  0  0  0  0  0  0  0
  1  2  1  0
  2  3  1  0
  3  4  1  0
  4  5  1  0
  5  6  1  0
  6  7  1  0
  7  8  1  0
  7  9  1  0
  2 10  1  0
 10 11  1  0
 11 12  1  0
 12 13  1  0
 13 14  1  1
 13 15  1  0
 15 16  1  0
 16 17  1  0
 17 18  2  0
 18 19  1  0
 19 20  1  0
 20 21  1  0
 21 22  1  0
 22 23  1  0
 22 24  1  0
 24 25  1  0
 24 26  1  0
 19 27  1  0
 27 28  1  6
 27 29  1  0
 29 30  1  0
 30 31  1  0
 31 32  1  6
  7  5  1  0
 31 10  1  0
 31 13  1  0
 27 15  1  0
 24 18  1  0
  1 33  1  0
  1 34  1  0
  1 35  1  0
  2 36  1  6
  3 37  1  0
  3 38  1  0
  4 39  1  0
  4 40  1  0
  5 41  1  1
  8 42  1  0
  8 43  1  0
  8 44  1  0
  9 45  1  0
  9 46  1  0
  9 47  1  0
 10 48  1  1
 11 49  1  0
 11 50  1  0
 12 51  1  0
 12 52  1  0
 14 53  1  0
 14 54  1  0
 14 55  1  0
 15 56  1  6
 16 57  1  0
 16 58  1  0
 17 59  1  0
 19 60  1  1
 20 61  1  0
 20 62  1  0
 21 63  1  0
 21 64  1  0
 22 65  1  1
 23 66  1  0
 25 67  1  0
 25 68  1  0
 25 69  1  0
 26 70  1  0
 26 71  1  0
 26 72  1  0
 28 73  1  0
 28 74  1  0
 28 75  1  0
 29 76  1  0
 29 77  1  0
 30 78  1  0
 30 79  1  0
 32 80  1  0
 32 81  1  0
 32 82  1  0
M  END
>  <meeko>  (15) 
{"is_sidechain": [false], "intermolecular_energy": 2.731, "internal_energy": -0.839}

$$$$
EPH_relaxed_0001_pdb2pqr_Repair_328_r2_0001_out
     RDKit          3D

 82 86  0  0  0  0  0  0  0  0999 V2000
   -0.0160    7.7410   -2.5660 C   0  0  0  0  0  0  0  0  0  0  0  0
   -1.3460    8.1920   -1.9550 C   0  0  2  0  0  0  0  0  0  0  0  0
   -2.5570    7.7100   -2.7790 C   0  0  0  0  0  0  0  0  0  0  0  0
   -3.6680    7.0850   -1.9320 C   0  0  0  0  0  0  0  0  0  0  0  0
   -4.7760    6.5440   -2.7840 C   0  0  2  0  0  0  0  0  0  0  0  0
   -5.3490    7.4910   -3.6950 O   0  0  0  0  0  0  0  0  0  0  0  0
   -6.2200    6.9960   -2.6650 C   0  0  0  0  0  0  0  0  0  0  0  0
   -6.6340    8.0320   -1.6680 C   0  0  0  0  0  0  0  0  0  0  0  0
   -7.2980    6.0890   -3.1720 C   0  0  0  0  0  0  0  0  0  0  0  0
   -1.3710    9.7110   -1.8310 C   0  0  1  0  0  0  0  0  0  0  0  0
   -2.6640   10.2330   -1.1470 C   0  0  0  0  0  0  0  0  0  0  0  0
   -2.2570   11.4730   -0.3110 C   0  0  0  0  0  0  0  0  0  0  0  0
   -0.8310   11.8210   -0.7970 C   0  0  1  0  0  0  0  0  0  0  0  0
   -1.0420   12.6250   -2.1180 C   0  0  0  0  0  0  0  0  0  0  0  0
    0.0730   12.6000    0.2140 C   0  0  2  0  0  0  0  0  0  0  0  0
   -0.4440   13.9940    0.6120 C   0  0  0  0  0  0  0  0  0  0  0  0
    0.0300   15.1190   -0.2470 C   0  0  0  0  0  0  0  0  0  0  0  0
    1.0570   15.0610   -1.1150 C   0  0  0  0  0  0  0  0  0  0  0  0
    1.9230   13.7990   -1.2280 C   0  0  1  0  0  0  0  0  0  0  0  0
    3.4220   14.1980   -1.2350 C   0  0  0  0  0  0  0  0  0  0  0  0
    3.7480   15.2280   -2.3120 C   0  0  0  0  0  0  0  0  0  0  0  0
    2.9100   16.4910   -2.1310 C   0  0  2  0  0  0  0  0  0  0  0  0
    3.3060   17.1370   -0.9180 O   0  0  0  0  0  0  0  0  0  0  0  0
    1.3810   16.2120   -2.0990 C   0  0  0  0  0  0  0  0  0  0  0  0
    0.8980   15.7940   -3.5110 C   0  0  0  0  0  0  0  0  0  0  0  0
    0.6590   17.5460   -1.7710 C   0  0  0  0  0  0  0  0  0  0  0  0
    1.6030   12.6430   -0.1850 C   0  0  1  0  0  0  0  0  0  0  0  0
    2.4010   12.8820    1.1340 C   0  0  0  0  0  0  0  0  0  0  0  0
    2.1090   11.2710   -0.7670 C   0  0  0  0  0  0  0  0  0  0  0  0
    1.1260   10.4920   -1.6620 C   0  0  0  0  0  0  0  0  0  0  0  0
   -0.2480   10.3750   -0.9960 C   0  0  2  0  0  0  0  0  0  0  0  0
   -0.0710    9.5520    0.3250 C   0  0  0  0  0  0  0  0  0  0  0  0
    0.6942    7.5002   -1.7613 H   0  0  0  0  0  0  0  0  0  0  0  0
   -0.1819    6.8489   -3.1878 H   0  0  0  0  0  0  0  0  0  0  0  0
    0.3949    8.5500   -3.1878 H   0  0  0  0  0  0  0  0  0  0  0  0
   -1.4241    7.7358   -0.9571 H   0  0  0  0  0  0  0  0  0  0  0  0
   -2.9752    8.5724   -3.3187 H   0  0  0  0  0  0  0  0  0  0  0  0
   -2.1917    6.9263   -3.4590 H   0  0  0  0  0  0  0  0  0  0  0  0
   -3.2430    6.2639   -1.3361 H   0  0  0  0  0  0  0  0  0  0  0  0
   -4.0858    7.8680   -1.2822 H   0  0  0  0  0  0  0  0  0  0  0  0
   -4.3133    5.5461   -2.7926 H   0  0  0  0  0  0  0  0  0  0  0  0
   -6.4790    7.6442   -0.6504 H   0  0  0  0  0  0  0  0  0  0  0  0
   -6.0297    8.9400   -1.8103 H   0  0  0  0  0  0  0  0  0  0  0  0
   -7.6977    8.2735   -1.8103 H   0  0  0  0  0  0  0  0  0  0  0  0
   -7.8307    5.6408   -2.3203 H   0  0  0  0  0  0  0  0  0  0  0  0
   -8.0059    6.6672   -3.7841 H   0  0  0  0  0  0  0  0  0  0  0  0
   -6.8494    5.2927   -3.7841 H   0  0  0  0  0  0  0  0  0  0  0  0
   -1.2635    9.9846   -2.8910 H   0  0  0  0  0  0  0  0  0  0  0  0
   -3.4072   10.5157   -1.9071 H   0  0  0  0  0  0  0  0  0  0  0  0
   -3.1151    9.4577   -0.5103 H   0  0  0  0  0  0  0  0  0  0  0  0
   -2.9458   12.3101   -0.4976 H   0  0  0  0  0  0  0  0  0  0  0  0
   -2.2924   11.2764    0.7707 H   0  0  0  0  0  0  0  0  0  0  0  0
   -1.3144   13.6629   -1.8760 H   0  0  0  0  0  0  0  0  0  0  0  0
   -0.1114   12.6174   -2.7045 H   0  0  0  0  0  0  0  0  0  0  0  0
   -1.8489   12.1614   -2.7045 H   0  0  0  0  0  0  0  0  0  0  0  0
   -0.0027   11.9833    1.1217 H   0  0  0  0  0  0  0  0  0  0  0  0
   -1.5430   13.9738    0.5697 H   0  0  0  0  0  0  0  0  0  0  0  0
   -0.0454   14.1906    1.6182 H   0  0  0  0  0  0  0  0  0  0  0  0
   -0.5053   16.0763   -0.1636 H   0  0  0  0  0  0  0  0  0  0  0  0
    1.6572   13.3327   -2.1882 H   0  0  0  0  0  0  0  0  0  0  0  0
    3.6788   14.6215   -0.2528 H   0  0  0  0  0  0  0  0  0  0  0  0
    4.0077   13.2923   -1.4509 H   0  0  0  0  0  0  0  0  0  0  0  0
    4.8141   15.4911   -2.2475 H   0  0  0  0  0  0  0  0  0  0  0  0
    3.5180   14.7922   -3.2955 H   0  0  0  0  0  0  0  0  0  0  0  0
    3.0933   17.1362   -3.0028 H   0  0  0  0  0  0  0  0  0  0  0  0
    3.3190   16.4650   -0.2170 H   0  0  0  0  0  0  0  0  0  0  0  0
    0.0692   15.0768   -3.4176 H   0  0  0  0  0  0  0  0  0  0  0  0
    0.5532   16.6834   -4.0588 H   0  0  0  0  0  0  0  0  0  0  0  0
    1.7287   15.3251   -4.0588 H   0  0  0  0  0  0  0  0  0  0  0  0
    0.5927   17.6684   -0.6798 H   0  0  0  0  0  0  0  0  0  0  0  0
    1.2261   18.3851   -2.2003 H   0  0  0  0  0  0  0  0  0  0  0  0
   -0.3536   17.5301   -2.2003 H   0  0  0  0  0  0  0  0  0  0  0  0
    1.7486   12.6866    1.9978 H   0  0  0  0  0  0  0  0  0  0  0  0
    3.2662   12.2036    1.1671 H   0  0  0  0  0  0  0  0  0  0  0  0
    2.7509   13.9243    1.1671 H   0  0  0  0  0  0  0  0  0  0  0  0
    3.0115   11.4744   -1.3621 H   0  0  0  0  0  0  0  0  0  0  0  0
    2.2712   10.6280    0.1106 H   0  0  0  0  0  0  0  0  0  0  0  0
    1.0171   11.0197   -2.6210 H   0  0  0  0  0  0  0  0  0  0  0  0
    1.5250    9.4796   -1.8223 H   0  0  0  0  0  0  0  0  0  0  0  0
   -0.2135   10.2144    1.1916 H   0  0  0  0  0  0  0  0  0  0  0  0
   -0.8157    8.7430    0.3555 H   0  0  0  0  0  0  0  0  0  0  0  0
    0.9404    9.1207    0.3555 H   0  0  0  0  0  0  0  0  0  0  0  0
  1  2  1  0
  2  3  1  0
  3  4  1  0
  4  5  1  0
  5  6  1  0
  6  7  1  0
  7  8  1  0
  7  9  1  0
  2 10  1  0
 10 11  1  0
 11 12  1  0
 12 13  1  0
 13 14  1  6
 13 15  1  0
 15 16  1  0
 16 17  1  0
 17 18  2  0
 18 19  1  0
 19 20  1  0
 20 21  1  0
 21 22  1  0
 22 23  1  0
 22 24  1  0
 24 25  1  0
 24 26  1  0
 19 27  1  0
 27 28  1  1
 27 29  1  0
 29 30  1  0
 30 31  1  0
 31 32  1  1
  7  5  1  0
 31 10  1  0
 31 13  1  0
 27 15  1  0
 24 18  1  0
  1 33  1  0
  1 34  1  0
  1 35  1  0
  2 36  1  1
  3 37  1  0
  3 38  1  0
  4 39  1  0
  4 40  1  0
  5 41  1  6
  8 42  1  0
  8 43  1  0
  8 44  1  0
  9 45  1  0
  9 46  1  0
  9 47  1  0
 10 48  1  6
 11 49  1  0
 11 50  1  0
 12 51  1  0
 12 52  1  0
 14 53  1  0
 14 54  1  0
 14 55  1  0
 15 56  1  1
 16 57  1  0
 16 58  1  0
 17 59  1  0
 19 60  1  6
 20 61  1  0
 20 62  1  0
 21 63  1  0
 21 64  1  0
 22 65  1  6
 23 66  1  0
 25 67  1  0
 25 68  1  0
 25 69  1  0
 26 70  1  0
 26 71  1  0
 26 72  1  0
 28 73  1  0
 28 74  1  0
 28 75  1  0
 29 76  1  0
 29 77  1  0
 30 78  1  0
 30 79  1  0
 32 80  1  0
 32 81  1  0
 32 82  1  0
M  END
>  <meeko>  (16) 
{"is_sidechain": [false], "intermolecular_energy": 2.731, "internal_energy": -0.839}

$$$$
EPH_relaxed_0001_pdb2pqr_Repair_328_r2_0001_out
     RDKit          3D

 82 86  0  0  0  0  0  0  0  0999 V2000
   -1.1640   11.3050   -1.6130 C   0  0  0  0  0  0  0  0  0  0  0  0
    0.1150   10.6520   -1.0810 C   0  0  2  0  0  0  0  0  0  0  0  0
   -0.1000    9.9880    0.2940 C   0  0  0  0  0  0  0  0  0  0  0  0
    0.7180   10.6250    1.4200 C   0  0  0  0  0  0  0  0  0  0  0  0
   -0.0940   11.6070    2.2090 C   0  0  2  0  0  0  0  0  0  0  0  0
    0.3360   12.9700    2.0940 O   0  0  0  0  0  0  0  0  0  0  0  0
    0.4480   12.3770    3.3980 C   0  0  0  0  0  0  0  0  0  0  0  0
    1.8580   12.1990    3.8660 C   0  0  0  0  0  0  0  0  0  0  0  0
   -0.5220   12.9290    4.3960 C   0  0  0  0  0  0  0  0  0  0  0  0
    1.2290   11.6880   -0.9910 C   0  0  1  0  0  0  0  0  0  0  0  0
    2.4860   11.2870   -1.8080 C   0  0  0  0  0  0  0  0  0  0  0  0
    3.0880   12.5980   -2.3750 C   0  0  0  0  0  0  0  0  0  0  0  0
    2.3640   13.7250   -1.6030 C   0  0  1  0  0  0  0  0  0  0  0  0
    3.1160   13.8230   -0.2380 C   0  0  0  0  0  0  0  0  0  0  0  0
    2.2860   15.1130   -2.3190 C   0  0  2  0  0  0  0  0  0  0  0  0
    3.6430   15.7810   -2.5980 C   0  0  0  0  0  0  0  0  0  0  0  0
    4.1450   16.6810   -1.5180 C   0  0  0  0  0  0  0  0  0  0  0  0
    3.4110   17.1680   -0.5010 C   0  0  0  0  0  0  0  0  0  0  0  0
    1.9030   16.8980   -0.4190 C   0  0  1  0  0  0  0  0  0  0  0  0
    1.1570   18.2190   -0.0930 C   0  0  0  0  0  0  0  0  0  0  0  0
    1.6960   18.9010    1.1600 C   0  0  0  0  0  0  0  0  0  0  0  0
    3.1850   19.2060    1.0170 C   0  0  2  0  0  0  0  0  0  0  0  0
    3.3580   20.1940   -0.0040 O   0  0  0  0  0  0  0  0  0  0  0  0
    4.0380   17.9510    0.6780 C   0  0  0  0  0  0  0  0  0  0  0  0
    4.0950   17.0130    1.9090 C   0  0  0  0  0  0  0  0  0  0  0  0
    5.4960   18.4200    0.4220 C   0  0  0  0  0  0  0  0  0  0  0  0
    1.2680   16.1280   -1.6560 C   0  0  1  0  0  0  0  0  0  0  0  0
    0.8660   17.1450   -2.7670 C   0  0  0  0  0  0  0  0  0  0  0  0
   -0.0630   15.4250   -1.1960 C   0  0  0  0  0  0  0  0  0  0  0  0
    0.0670   14.0070   -0.6070 C   0  0  0  0  0  0  0  0  0  0  0  0
    0.9190   13.1130   -1.5130 C   0  0  2  0  0  0  0  0  0  0  0  0
    0.1770   12.9790   -2.8860 C   0  0  0  0  0  0  0  0  0  0  0  0
   -1.7911   11.6252   -0.7679 H   0  0  0  0  0  0  0  0  0  0  0  0
   -0.9014   12.1794   -2.2266 H   0  0  0  0  0  0  0  0  0  0  0  0
   -1.7182   10.5795   -2.2266 H   0  0  0  0  0  0  0  0  0  0  0  0
    0.4007    9.8597   -1.7886 H   0  0  0  0  0  0  0  0  0  0  0  0
   -1.1662   10.0643    0.5535 H   0  0  0  0  0  0  0  0  0  0  0  0
    0.2365    8.9447    0.2031 H   0  0  0  0  0  0  0  0  0  0  0  0
    1.0729    9.8323    2.0950 H   0  0  0  0  0  0  0  0  0  0  0  0
    1.5625   11.1647    0.9668 H   0  0  0  0  0  0  0  0  0  0  0  0
   -1.0011   10.9995    2.0749 H   0  0  0  0  0  0  0  0  0  0  0  0
    1.8817   12.1960    4.9657 H   0  0  0  0  0  0  0  0  0  0  0  0
    2.2520   11.2440    3.4882 H   0  0  0  0  0  0  0  0  0  0  0  0
    2.4769   13.0261    3.4882 H   0  0  0  0  0  0  0  0  0  0  0  0
   -0.1587   12.7223    5.4135 H   0  0  0  0  0  0  0  0  0  0  0  0
   -0.6158   14.0157    4.2539 H   0  0  0  0  0  0  0  0  0  0  0  0
   -1.5042   12.4545    4.2539 H   0  0  0  0  0  0  0  0  0  0  0  0
    1.3722   11.7095    0.0994 H   0  0  0  0  0  0  0  0  0  0  0  0
    3.2168   10.7852   -1.1568 H   0  0  0  0  0  0  0  0  0  0  0  0
    2.2248   10.5898   -2.6178 H   0  0  0  0  0  0  0  0  0  0  0  0
    4.1723   12.6377   -2.1939 H   0  0  0  0  0  0  0  0  0  0  0  0
    2.9517   12.6834   -3.4632 H   0  0  0  0  0  0  0  0  0  0  0  0
    2.3936   13.7289    0.5862 H   0  0  0  0  0  0  0  0  0  0  0  0
    3.8581   13.0140   -0.1693 H   0  0  0  0  0  0  0  0  0  0  0  0
    3.6260   14.7952   -0.1693 H   0  0  0  0  0  0  0  0  0  0  0  0
    1.8762   14.8467   -3.3045 H   0  0  0  0  0  0  0  0  0  0  0  0
    4.3878   14.9862   -2.7516 H   0  0  0  0  0  0  0  0  0  0  0  0
    3.4918   16.4199   -3.4806 H   0  0  0  0  0  0  0  0  0  0  0  0
    5.2054   16.9707   -1.5570 H   0  0  0  0  0  0  0  0  0  0  0  0
    1.7672   16.1800    0.4032 H   0  0  0  0  0  0  0  0  0  0  0  0
    1.2688   18.9064   -0.9444 H   0  0  0  0  0  0  0  0  0  0  0  0
    0.1014   17.9699    0.0903 H   0  0  0  0  0  0  0  0  0  0  0  0
    1.1496   19.8420    1.3211 H   0  0  0  0  0  0  0  0  0  0  0  0
    1.5567   18.2242    2.0159 H   0  0  0  0  0  0  0  0  0  0  0  0
    3.5405   19.5740    1.9907 H   0  0  0  0  0  0  0  0  0  0  0  0
    3.9840   20.8580    0.3320 H   0  0  0  0  0  0  0  0  0  0  0  0
    4.0585   17.6138    2.8297 H   0  0  0  0  0  0  0  0  0  0  0  0
    3.2370   16.3250    1.8858 H   0  0  0  0  0  0  0  0  0  0  0  0
    5.0300   16.4340    1.8858 H   0  0  0  0  0  0  0  0  0  0  0  0
    6.0030   18.5831    1.3845 H   0  0  0  0  0  0  0  0  0  0  0  0
    6.0339   17.6496   -0.1499 H   0  0  0  0  0  0  0  0  0  0  0  0
    5.4839   19.3596   -0.1499 H   0  0  0  0  0  0  0  0  0  0  0  0
    0.4997   18.0716   -2.3008 H   0  0  0  0  0  0  0  0  0  0  0  0
    1.7426   17.3707   -3.3921 H   0  0  0  0  0  0  0  0  0  0  0  0
    0.0720   16.7104   -3.3921 H   0  0  0  0  0  0  0  0  0  0  0  0
   -0.5280   16.0623   -0.4294 H   0  0  0  0  0  0  0  0  0  0  0  0
   -0.6552   15.3015   -2.1147 H   0  0  0  0  0  0  0  0  0  0  0  0
    0.5407   14.0709    0.3837 H   0  0  0  0  0  0  0  0  0  0  0  0
   -0.9381   13.5675   -0.5256 H   0  0  0  0  0  0  0  0  0  0  0  0
   -0.8913   12.7861   -2.7082 H   0  0  0  0  0  0  0  0  0  0  0  0
    0.2910   13.9123   -3.4570 H   0  0  0  0  0  0  0  0  0  0  0  0
    0.6102   12.1446   -3.4570 H   0  0  0  0  0  0  0  0  0  0  0  0
  1  2  1  0
  2  3  1  0
  3  4  1  0
  4  5  1  0
  5  6  1  0
  6  7  1  0
  7  8  1  0
  7  9  1  0
  2 10  1  0
 10 11  1  0
 11 12  1  0
 12 13  1  0
 13 14  1  1
 13 15  1  0
 15 16  1  0
 16 17  1  0
 17 18  2  0
 18 19  1  0
 19 20  1  0
 20 21  1  0
 21 22  1  0
 22 23  1  0
 22 24  1  0
 24 25  1  0
 24 26  1  0
 19 27  1  0
 27 28  1  6
 27 29  1  0
 29 30  1  0
 30 31  1  0
 31 32  1  6
  7  5  1  0
 31 10  1  0
 31 13  1  0
 27 15  1  0
 24 18  1  0
  1 33  1  0
  1 34  1  0
  1 35  1  0
  2 36  1  6
  3 37  1  0
  3 38  1  0
  4 39  1  0
  4 40  1  0
  5 41  1  1
  8 42  1  0
  8 43  1  0
  8 44  1  0
  9 45  1  0
  9 46  1  0
  9 47  1  0
 10 48  1  1
 11 49  1  0
 11 50  1  0
 12 51  1  0
 12 52  1  0
 14 53  1  0
 14 54  1  0
 14 55  1  0
 15 56  1  6
 16 57  1  0
 16 58  1  0
 17 59  1  0
 19 60  1  1
 20 61  1  0
 20 62  1  0
 21 63  1  0
 21 64  1  0
 22 65  1  1
 23 66  1  0
 25 67  1  0
 25 68  1  0
 25 69  1  0
 26 70  1  0
 26 71  1  0
 26 72  1  0
 28 73  1  0
 28 74  1  0
 28 75  1  0
 29 76  1  0
 29 77  1  0
 30 78  1  0
 30 79  1  0
 32 80  1  0
 32 81  1  0
 32 82  1  0
M  END
>  <meeko>  (17) 
{"is_sidechain": [false], "intermolecular_energy": 2.731, "internal_energy": -0.839}

$$$$
EPH_relaxed_0001_pdb2pqr_Repair_328_r2_0001_out
     RDKit          3D

 82 86  0  0  0  0  0  0  0  0999 V2000
    0.7180    8.7560   -0.4400 C   0  0  0  0  0  0  0  0  0  0  0  0
   -0.2890    9.6020   -1.2250 C   0  0  2  0  0  0  0  0  0  0  0  0
   -1.0490    8.7720   -2.2780 C   0  0  0  0  0  0  0  0  0  0  0  0
   -2.4790    8.4140   -1.8650 C   0  0  0  0  0  0  0  0  0  0  0  0
   -2.9870    7.2140   -2.6070 C   0  0  2  0  0  0  0  0  0  0  0  0
   -4.0180    7.4930   -3.5630 O   0  0  0  0  0  0  0  0  0  0  0  0
   -4.3930    6.6660   -2.4490 C   0  0  0  0  0  0  0  0  0  0  0  0
   -5.3790    7.3040   -1.5220 C   0  0  0  0  0  0  0  0  0  0  0  0
   -4.6490    5.2380   -2.8180 C   0  0  0  0  0  0  0  0  0  0  0  0
    0.4250   10.7690   -1.8970 C   0  0  1  0  0  0  0  0  0  0  0  0
    0.0470   10.9170   -3.3950 C   0  0  0  0  0  0  0  0  0  0  0  0
    0.0420   12.4360   -3.7060 C   0  0  0  0  0  0  0  0  0  0  0  0
    0.7330   13.0870   -2.4850 C   0  0  1  0  0  0  0  0  0  0  0  0
    2.2610   12.9110   -2.7470 C   0  0  0  0  0  0  0  0  0  0  0  0
    0.3650   14.5790   -2.1980 C   0  0  2  0  0  0  0  0  0  0  0  0
    0.7490   15.5720   -3.3090 C   0  0  0  0  0  0  0  0  0  0  0  0
    2.1090   16.1760   -3.1820 C   0  0  0  0  0  0  0  0  0  0  0  0
    2.8740   16.1540   -2.0750 C   0  0  0  0  0  0  0  0  0  0  0  0
    2.3450   15.5600   -0.7630 C   0  0  1  0  0  0  0  0  0  0  0  0
    2.6660   16.5240    0.4090 C   0  0  0  0  0  0  0  0  0  0  0  0
    4.1470   16.8800    0.4850 C   0  0  0  0  0  0  0  0  0  0  0  0
    4.6220   17.5220   -0.8170 C   0  0  2  0  0  0  0  0  0  0  0  0
    3.9790   18.7920   -0.9660 O   0  0  0  0  0  0  0  0  0  0  0  0
    4.3430   16.6450   -2.0690 C   0  0  0  0  0  0  0  0  0  0  0  0
    5.2700   15.4040   -2.0530 C   0  0  0  0  0  0  0  0  0  0  0  0
    4.7400   17.4670   -3.3250 C   0  0  0  0  0  0  0  0  0  0  0  0
    0.8250   15.0980   -0.7750 C   0  0  1  0  0  0  0  0  0  0  0  0
   -0.1000   16.3020   -0.4190 C   0  0  0  0  0  0  0  0  0  0  0  0
    0.6060   14.0220    0.3540 C   0  0  0  0  0  0  0  0  0  0  0  0
    0.8710   12.5520   -0.0270 C   0  0  0  0  0  0  0  0  0  0  0  0
    0.1570   12.1870   -1.3320 C   0  0  2  0  0  0  0  0  0  0  0  0
   -1.3840   12.3330   -1.0920 C   0  0  0  0  0  0  0  0  0  0  0  0
    0.5521    8.8954    0.6384 H   0  0  0  0  0  0  0  0  0  0  0  0
    0.5848    7.6948   -0.6973 H   0  0  0  0  0  0  0  0  0  0  0  0
    1.7403    9.0702   -0.6973 H   0  0  0  0  0  0  0  0  0  0  0  0
   -1.0309    9.9833   -0.5079 H   0  0  0  0  0  0  0  0  0  0  0  0
   -1.0921    9.3516   -3.2119 H   0  0  0  0  0  0  0  0  0  0  0  0
   -0.5022    7.8249   -2.3964 H   0  0  0  0  0  0  0  0  0  0  0  0
   -2.4953    8.1993   -0.7863 H   0  0  0  0  0  0  0  0  0  0  0  0
   -3.1295    9.2674   -2.1071 H   0  0  0  0  0  0  0  0  0  0  0  0
   -1.9983    6.7347   -2.5556 H   0  0  0  0  0  0  0  0  0  0  0  0
   -5.0812    7.1113   -0.4808 H   0  0  0  0  0  0  0  0  0  0  0  0
   -5.4025    8.3889   -1.7018 H   0  0  0  0  0  0  0  0  0  0  0  0
   -6.3783    6.8808   -1.7018 H   0  0  0  0  0  0  0  0  0  0  0  0
   -4.7568    4.6366   -1.9033 H   0  0  0  0  0  0  0  0  0  0  0  0
   -5.5732    5.1725   -3.4109 H   0  0  0  0  0  0  0  0  0  0  0  0
   -3.8051    4.8556   -3.4109 H   0  0  0  0  0  0  0  0  0  0  0  0
    1.4695   10.4802   -1.7085 H   0  0  0  0  0  0  0  0  0  0  0  0
    0.7880   10.4035   -4.0253 H   0  0  0  0  0  0  0  0  0  0  0  0
   -0.9358   10.4680   -3.6010 H   0  0  0  0  0  0  0  0  0  0  0  0
    0.6045   12.6454   -4.6278 H   0  0  0  0  0  0  0  0  0  0  0  0
   -0.9742   12.8254   -3.8667 H   0  0  0  0  0  0  0  0  0  0  0  0
    2.7931   12.8497   -1.7862 H   0  0  0  0  0  0  0  0  0  0  0  0
    2.4308   11.9874   -3.3198 H   0  0  0  0  0  0  0  0  0  0  0  0
    2.6364   13.7718   -3.3198 H   0  0  0  0  0  0  0  0  0  0  0  0
   -0.7346   14.5524   -2.1885 H   0  0  0  0  0  0  0  0  0  0  0  0
    0.7014   15.0409   -4.2711 H   0  0  0  0  0  0  0  0  0  0  0  0
    0.0367   16.4066   -3.2311 H   0  0  0  0  0  0  0  0  0  0  0  0
    2.5201   16.6816   -4.0682 H   0  0  0  0  0  0  0  0  0  0  0  0
    2.8810   14.6100   -0.6213 H   0  0  0  0  0  0  0  0  0  0  0  0
    2.0875   17.4496    0.2727 H   0  0  0  0  0  0  0  0  0  0  0  0
    2.3973   16.0125    1.3450 H   0  0  0  0  0  0  0  0  0  0  0  0
    4.3054   17.5863    1.3133 H   0  0  0  0  0  0  0  0  0  0  0  0
    4.7217   15.9569    0.6512 H   0  0  0  0  0  0  0  0  0  0  0  0
    5.7141   17.6352   -0.7503 H   0  0  0  0  0  0  0  0  0  0  0  0
    4.5050   19.4470   -0.4760 H   0  0  0  0  0  0  0  0  0  0  0  0
    5.4830   15.1188   -1.0122 H   0  0  0  0  0  0  0  0  0  0  0  0
    4.7731   14.5685   -2.5677 H   0  0  0  0  0  0  0  0  0  0  0  0
    6.2122   15.6435   -2.5677 H   0  0  0  0  0  0  0  0  0  0  0  0
    5.1986   18.4165   -3.0119 H   0  0  0  0  0  0  0  0  0  0  0  0
    5.4601   16.8928   -3.9265 H   0  0  0  0  0  0  0  0  0  0  0  0
    3.8426   17.6740   -3.9265 H   0  0  0  0  0  0  0  0  0  0  0  0
   -0.1732   16.3973    0.6744 H   0  0  0  0  0  0  0  0  0  0  0  0
    0.3226   17.2261   -0.8402 H   0  0  0  0  0  0  0  0  0  0  0  0
   -1.1018   16.1318   -0.8402 H   0  0  0  0  0  0  0  0  0  0  0  0
    1.2752   14.2752    1.1895 H   0  0  0  0  0  0  0  0  0  0  0  0
   -0.4668   14.0689    0.5926 H   0  0  0  0  0  0  0  0  0  0  0  0
    1.9533   12.4029   -0.1550 H   0  0  0  0  0  0  0  0  0  0  0  0
    0.4859   11.9065    0.7761 H   0  0  0  0  0  0  0  0  0  0  0  0
   -1.5865   12.3522   -0.0110 H   0  0  0  0  0  0  0  0  0  0  0  0
   -1.7391   13.2688   -1.5482 H   0  0  0  0  0  0  0  0  0  0  0  0
   -1.9085   11.4805   -1.5482 H   0  0  0  0  0  0  0  0  0  0  0  0
  1  2  1  0
  2  3  1  0
  3  4  1  0
  4  5  1  0
  5  6  1  0
  6  7  1  0
  7  8  1  0
  7  9  1  0
  2 10  1  0
 10 11  1  0
 11 12  1  0
 12 13  1  0
 13 14  1  6
 13 15  1  0
 15 16  1  0
 16 17  1  0
 17 18  2  0
 18 19  1  0
 19 20  1  0
 20 21  1  0
 21 22  1  0
 22 23  1  0
 22 24  1  0
 24 25  1  0
 24 26  1  0
 19 27  1  0
 27 28  1  1
 27 29  1  0
 29 30  1  0
 30 31  1  0
 31 32  1  1
  7  5  1  0
 31 10  1  0
 31 13  1  0
 27 15  1  0
 24 18  1  0
  1 33  1  0
  1 34  1  0
  1 35  1  0
  2 36  1  1
  3 37  1  0
  3 38  1  0
  4 39  1  0
  4 40  1  0
  5 41  1  6
  8 42  1  0
  8 43  1  0
  8 44  1  0
  9 45  1  0
  9 46  1  0
  9 47  1  0
 10 48  1  6
 11 49  1  0
 11 50  1  0
 12 51  1  0
 12 52  1  0
 14 53  1  0
 14 54  1  0
 14 55  1  0
 15 56  1  1
 16 57  1  0
 16 58  1  0
 17 59  1  0
 19 60  1  1
 20 61  1  0
 20 62  1  0
 21 63  1  0
 21 64  1  0
 22 65  1  1
 23 66  1  0
 25 67  1  0
 25 68  1  0
 25 69  1  0
 26 70  1  0
 26 71  1  0
 26 72  1  0
 28 73  1  0
 28 74  1  0
 28 75  1  0
 29 76  1  0
 29 77  1  0
 30 78  1  0
 30 79  1  0
 32 80  1  0
 32 81  1  0
 32 82  1  0
M  END
>  <meeko>  (18) 
{"is_sidechain": [false], "intermolecular_energy": 2.731, "internal_energy": -0.839}

$$$$
EPH_relaxed_0001_pdb2pqr_Repair_328_r2_0001_out
     RDKit          3D

 82 86  0  0  0  0  0  0  0  0999 V2000
    0.5580   10.6830   -3.0100 C   0  0  0  0  0  0  0  0  0  0  0  0
    1.8170   10.3550   -2.2020 C   0  0  2  0  0  0  0  0  0  0  0  0
    1.4850    9.6560   -0.8680 C   0  0  0  0  0  0  0  0  0  0  0  0
    0.3610   10.3350   -0.0800 C   0  0  0  0  0  0  0  0  0  0  0  0
   -0.8880    9.5070   -0.0720 C   0  0  2  0  0  0  0  0  0  0  0  0
   -1.4020    9.1850   -1.3710 O   0  0  0  0  0  0  0  0  0  0  0  0
   -2.2340   10.0200   -0.5490 C   0  0  0  0  0  0  0  0  0  0  0  0
   -2.3990   11.4140   -1.0680 C   0  0  0  0  0  0  0  0  0  0  0  0
   -3.4740    9.3390   -0.0590 C   0  0  0  0  0  0  0  0  0  0  0  0
    2.6120   11.6280   -1.9380 C   0  0  1  0  0  0  0  0  0  0  0  0
    3.9370   11.6820   -2.7450 C   0  0  0  0  0  0  0  0  0  0  0  0
    4.1700   13.1680   -3.1220 C   0  0  0  0  0  0  0  0  0  0  0  0
    3.1650   13.9550   -2.2490 C   0  0  1  0  0  0  0  0  0  0  0  0
    3.8520   14.0700   -0.8520 C   0  0  0  0  0  0  0  0  0  0  0  0
    2.7230   15.3520   -2.7920 C   0  0  2  0  0  0  0  0  0  0  0  0
    3.8550   16.3860   -2.9310 C   0  0  0  0  0  0  0  0  0  0  0  0
    4.0890   17.2400   -1.7290 C   0  0  0  0  0  0  0  0  0  0  0  0
    3.2420   17.3790   -0.6920 C   0  0  0  0  0  0  0  0  0  0  0  0
    1.8610   16.7120   -0.7070 C   0  0  1  0  0  0  0  0  0  0  0  0
    0.7870   17.7350   -0.2540 C   0  0  0  0  0  0  0  0  0  0  0  0
    1.1140   18.3680    1.0950 C   0  0  0  0  0  0  0  0  0  0  0  0
    2.4680   19.0720    1.0530 C   0  0  2  0  0  0  0  0  0  0  0  0
    2.3770   20.1930    0.1690 O   0  0  0  0  0  0  0  0  0  0  0  0
    3.6280   18.1420    0.6000 C   0  0  0  0  0  0  0  0  0  0  0  0
    3.9240   17.1020    1.7080 C   0  0  0  0  0  0  0  0  0  0  0  0
    4.9090   19.0080    0.4640 C   0  0  0  0  0  0  0  0  0  0  0  0
    1.4660   15.9670   -2.0540 C   0  0  1  0  0  0  0  0  0  0  0  0
    0.8150   16.9770   -3.0480 C   0  0  0  0  0  0  0  0  0  0  0  0
    0.3680   14.8840   -1.7390 C   0  0  0  0  0  0  0  0  0  0  0  0
    0.8680   13.4880   -1.3230 C   0  0  0  0  0  0  0  0  0  0  0  0
    1.9360   12.9750   -2.2950 C   0  0  2  0  0  0  0  0  0  0  0  0
    1.2680   12.8280   -3.7050 C   0  0  0  0  0  0  0  0  0  0  0  0
   -0.2729   10.8995   -2.3224 H   0  0  0  0  0  0  0  0  0  0  0  0
    0.7477   11.5617   -3.6440 H   0  0  0  0  0  0  0  0  0  0  0  0
    0.2949    9.8234   -3.6440 H   0  0  0  0  0  0  0  0  0  0  0  0
    2.4209    9.6567   -2.8000 H   0  0  0  0  0  0  0  0  0  0  0  0
    1.1812    8.6212   -1.0844 H   0  0  0  0  0  0  0  0  0  0  0  0
    2.3901    9.7063   -0.2449 H   0  0  0  0  0  0  0  0  0  0  0  0
    0.6944   10.4875    0.9571 H   0  0  0  0  0  0  0  0  0  0  0  0
    0.1330   11.2953   -0.5657 H   0  0  0  0  0  0  0  0  0  0  0  0
   -0.5764    9.0034    0.8549 H   0  0  0  0  0  0  0  0  0  0  0  0
   -2.4817   12.1127   -0.2224 H   0  0  0  0  0  0  0  0  0  0  0  0
   -1.5264   11.6825   -1.6815 H   0  0  0  0  0  0  0  0  0  0  0  0
   -3.3102   11.4714   -1.6815 H   0  0  0  0  0  0  0  0  0  0  0  0
   -3.4802    9.3356    1.0410 H   0  0  0  0  0  0  0  0  0  0  0  0
   -4.3588    9.8778   -0.4290 H   0  0  0  0  0  0  0  0  0  0  0  0
   -3.4941    8.3033   -0.4290 H   0  0  0  0  0  0  0  0  0  0  0  0
    2.7355   11.5464   -0.8480 H   0  0  0  0  0  0  0  0  0  0  0  0
    4.7706   11.3119   -2.1301 H   0  0  0  0  0  0  0  0  0  0  0  0
    3.8784   11.0507   -3.6439 H   0  0  0  0  0  0  0  0  0  0  0  0
    5.2027   13.4694   -2.8925 H   0  0  0  0  0  0  0  0  0  0  0  0
    4.0234   13.3534   -4.1963 H   0  0  0  0  0  0  0  0  0  0  0  0
    3.0980   13.9438   -0.0611 H   0  0  0  0  0  0  0  0  0  0  0  0
    4.6193   13.2878   -0.7552 H   0  0  0  0  0  0  0  0  0  0  0  0
    4.3228   15.0594   -0.7552 H   0  0  0  0  0  0  0  0  0  0  0  0
    2.4058   15.1160   -3.8185 H   0  0  0  0  0  0  0  0  0  0  0  0
    4.7865   15.8431   -3.1489 H   0  0  0  0  0  0  0  0  0  0  0  0
    3.5457   17.0700   -3.7350 H   0  0  0  0  0  0  0  0  0  0  0  0
    5.0330   17.8031   -1.6872 H   0  0  0  0  0  0  0  0  0  0  0  0
    1.9148   15.8840    0.0152 H   0  0  0  0  0  0  0  0  0  0  0  0
    0.7177   18.5314   -1.0096 H   0  0  0  0  0  0  0  0  0  0  0  0
   -0.1650   17.1943   -0.1471 H   0  0  0  0  0  0  0  0  0  0  0  0
    0.3343   19.1019    1.3469 H   0  0  0  0  0  0  0  0  0  0  0  0
    1.1544   17.5739    1.8551 H   0  0  0  0  0  0  0  0  0  0  0  0
    2.7053   19.3927    2.0781 H   0  0  0  0  0  0  0  0  0  0  0  0
    1.4910   20.5800    0.2750 H   0  0  0  0  0  0  0  0  0  0  0  0
    3.7909   17.5696    2.6947 H   0  0  0  0  0  0  0  0  0  0  0  0
    3.2319   16.2529    1.6082 H   0  0  0  0  0  0  0  0  0  0  0  0
    4.9595   16.7446    1.6082 H   0  0  0  0  0  0  0  0  0  0  0  0
    5.2869   19.2635    1.4650 H   0  0  0  0  0  0  0  0  0  0  0  0
    5.6770   18.4431   -0.0847 H   0  0  0  0  0  0  0  0  0  0  0  0
    4.6709   19.9312   -0.0847 H   0  0  0  0  0  0  0  0  0  0  0  0
    0.3038   17.7701   -2.4826 H   0  0  0  0  0  0  0  0  0  0  0  0
    1.5959   17.4232   -3.6813 H   0  0  0  0  0  0  0  0  0  0  0  0
    0.0861   16.4501   -3.6813 H   0  0  0  0  0  0  0  0  0  0  0  0
   -0.2562   15.2714   -0.9203 H   0  0  0  0  0  0  0  0  0  0  0  0
   -0.1629   14.7278   -2.6896 H   0  0  0  0  0  0  0  0  0  0  0  0
    1.2994   13.5467   -0.3128 H   0  0  0  0  0  0  0  0  0  0  0  0
    0.0165   12.7918   -1.3386 H   0  0  0  0  0  0  0  0  0  0  0  0
    0.2004   12.5931   -3.5823 H   0  0  0  0  0  0  0  0  0  0  0  0
    1.3743   13.7710   -4.2612 H   0  0  0  0  0  0  0  0  0  0  0  0
    1.7604   12.0167   -4.2612 H   0  0  0  0  0  0  0  0  0  0  0  0
  1  2  1  0
  2  3  1  0
  3  4  1  0
  4  5  1  0
  5  6  1  0
  6  7  1  0
  7  8  1  0
  7  9  1  0
  2 10  1  0
 10 11  1  0
 11 12  1  0
 12 13  1  0
 13 14  1  1
 13 15  1  0
 15 16  1  0
 16 17  1  0
 17 18  2  0
 18 19  1  0
 19 20  1  0
 20 21  1  0
 21 22  1  0
 22 23  1  0
 22 24  1  0
 24 25  1  0
 24 26  1  0
 19 27  1  0
 27 28  1  6
 27 29  1  0
 29 30  1  0
 30 31  1  0
 31 32  1  6
  7  5  1  0
 31 10  1  0
 31 13  1  0
 27 15  1  0
 24 18  1  0
  1 33  1  0
  1 34  1  0
  1 35  1  0
  2 36  1  6
  3 37  1  0
  3 38  1  0
  4 39  1  0
  4 40  1  0
  5 41  1  1
  8 42  1  0
  8 43  1  0
  8 44  1  0
  9 45  1  0
  9 46  1  0
  9 47  1  0
 10 48  1  1
 11 49  1  0
 11 50  1  0
 12 51  1  0
 12 52  1  0
 14 53  1  0
 14 54  1  0
 14 55  1  0
 15 56  1  6
 16 57  1  0
 16 58  1  0
 17 59  1  0
 19 60  1  1
 20 61  1  0
 20 62  1  0
 21 63  1  0
 21 64  1  0
 22 65  1  1
 23 66  1  0
 25 67  1  0
 25 68  1  0
 25 69  1  0
 26 70  1  0
 26 71  1  0
 26 72  1  0
 28 73  1  0
 28 74  1  0
 28 75  1  0
 29 76  1  0
 29 77  1  0
 30 78  1  0
 30 79  1  0
 32 80  1  0
 32 81  1  0
 32 82  1  0
M  END
>  <meeko>  (19) 
{"is_sidechain": [false], "intermolecular_energy": 2.731, "internal_energy": -0.839}

$$$$
EPH_relaxed_0001_pdb2pqr_Repair_328_r2_0001_out
     RDKit          3D

 82 86  0  0  0  0  0  0  0  0999 V2000
   -3.0150    9.6740    0.3270 C   0  0  0  0  0  0  0  0  0  0  0  0
   -2.8940    9.6050   -1.1980 C   0  0  2  0  0  0  0  0  0  0  0  0
   -2.5610    8.1820   -1.6900 C   0  0  0  0  0  0  0  0  0  0  0  0
   -3.7360    7.4740   -2.3680 C   0  0  0  0  0  0  0  0  0  0  0  0
   -4.9960    7.5970   -1.5650 C   0  0  2  0  0  0  0  0  0  0  0  0
   -5.5060    6.3580   -1.0570 O   0  0  0  0  0  0  0  0  0  0  0  0
   -6.3330    7.0390   -2.0140 C   0  0  0  0  0  0  0  0  0  0  0  0
   -6.4790    6.3160   -3.3160 C   0  0  0  0  0  0  0  0  0  0  0  0
   -7.5830    7.6170   -1.4280 C   0  0  0  0  0  0  0  0  0  0  0  0
   -1.8310   10.5850   -1.6800 C   0  0  1  0  0  0  0  0  0  0  0  0
   -2.1380   12.0490   -1.2670 C   0  0  0  0  0  0  0  0  0  0  0  0
   -0.7740   12.7290   -0.9830 C   0  0  0  0  0  0  0  0  0  0  0  0
    0.2770   11.7490   -1.5550 C   0  0  1  0  0  0  0  0  0  0  0  0
    0.3080   12.0430   -3.0870 C   0  0  0  0  0  0  0  0  0  0  0  0
    1.7060   11.8220   -0.9240 C   0  0  2  0  0  0  0  0  0  0  0  0
    2.4330   13.1650   -1.1100 C   0  0  0  0  0  0  0  0  0  0  0  0
    3.2760   13.2690   -2.3380 C   0  0  0  0  0  0  0  0  0  0  0  0
    3.6710   12.2360   -3.1050 C   0  0  0  0  0  0  0  0  0  0  0  0
    3.3480   10.7900   -2.7070 C   0  0  1  0  0  0  0  0  0  0  0  0
    4.6210    9.9150   -2.8580 C   0  0  0  0  0  0  0  0  0  0  0  0
    5.2360   10.0130   -4.2500 C   0  0  0  0  0  0  0  0  0  0  0  0
    5.5960   11.4580   -4.5870 C   0  0  2  0  0  0  0  0  0  0  0  0
    6.6550   11.8820   -3.7220 O   0  0  0  0  0  0  0  0  0  0  0  0
    4.3940   12.4350   -4.4600 C   0  0  0  0  0  0  0  0  0  0  0  0
    3.3790   12.1620   -5.5980 C   0  0  0  0  0  0  0  0  0  0  0  0
    4.9240   13.8760   -4.6880 C   0  0  0  0  0  0  0  0  0  0  0  0
    2.6420   10.6010   -1.2960 C   0  0  1  0  0  0  0  0  0  0  0  0
    3.7170   10.5060   -0.1710 C   0  0  0  0  0  0  0  0  0  0  0  0
    1.8680    9.2300   -1.2880 C   0  0  0  0  0  0  0  0  0  0  0  0
    0.4200    9.2460   -1.8120 C   0  0  0  0  0  0  0  0  0  0  0  0
   -0.3850   10.3770   -1.1650 C   0  0  2  0  0  0  0  0  0  0  0  0
   -0.4520   10.0960    0.3750 C   0  0  0  0  0  0  0  0  0  0  0  0
   -2.1468    9.1789    0.7865 H   0  0  0  0  0  0  0  0  0  0  0  0
   -3.0476   10.7265    0.6450 H   0  0  0  0  0  0  0  0  0  0  0  0
   -3.9375    9.1661    0.6450 H   0  0  0  0  0  0  0  0  0  0  0  0
   -3.8717    9.8800   -1.6204 H   0  0  0  0  0  0  0  0  0  0  0  0
   -1.7331    8.2489   -2.4112 H   0  0  0  0  0  0  0  0  0  0  0  0
   -2.2977    7.5886   -0.8020 H   0  0  0  0  0  0  0  0  0  0  0  0
   -3.8994    7.9234   -3.3586 H   0  0  0  0  0  0  0  0  0  0  0  0
   -3.4882    6.4058   -2.4556 H   0  0  0  0  0  0  0  0  0  0  0  0
   -4.6956    8.5917   -1.2040 H   0  0  0  0  0  0  0  0  0  0  0  0
   -6.6934    5.2543   -3.1238 H   0  0  0  0  0  0  0  0  0  0  0  0
   -7.3058    6.7589   -3.8906 H   0  0  0  0  0  0  0  0  0  0  0  0
   -5.5451    6.4033   -3.8906 H   0  0  0  0  0  0  0  0  0  0  0  0
   -7.5207    7.5882   -0.3301 H   0  0  0  0  0  0  0  0  0  0  0  0
   -7.6966    8.6590   -1.7616 H   0  0  0  0  0  0  0  0  0  0  0  0
   -8.4505    7.0286   -1.7616 H   0  0  0  0  0  0  0  0  0  0  0  0
   -1.8761   10.3887   -2.7614 H   0  0  0  0  0  0  0  0  0  0  0  0
   -2.6591   12.5714   -2.0828 H   0  0  0  0  0  0  0  0  0  0  0  0
   -2.7877   12.0812   -0.3799 H   0  0  0  0  0  0  0  0  0  0  0  0
   -0.7128   13.7033   -1.4899 H   0  0  0  0  0  0  0  0  0  0  0  0
   -0.6211   12.9261    0.0884 H   0  0  0  0  0  0  0  0  0  0  0  0
    0.4221   13.1248   -3.2505 H   0  0  0  0  0  0  0  0  0  0  0  0
    1.1551   11.5116   -3.5453 H   0  0  0  0  0  0  0  0  0  0  0  0
   -0.6313   11.6999   -3.5453 H   0  0  0  0  0  0  0  0  0  0  0  0
    1.4932   11.7442    0.1524 H   0  0  0  0  0  0  0  0  0  0  0  0
    1.6736   13.9598   -1.1507 H   0  0  0  0  0  0  0  0  0  0  0  0
    3.1230   13.2581   -0.2584 H   0  0  0  0  0  0  0  0  0  0  0  0
    3.6017   14.2749   -2.6414 H   0  0  0  0  0  0  0  0  0  0  0  0
    2.5735   10.4468   -3.4086 H   0  0  0  0  0  0  0  0  0  0  0  0
    5.3659   10.2457   -2.1193 H   0  0  0  0  0  0  0  0  0  0  0  0
    4.3274    8.8674   -2.6956 H   0  0  0  0  0  0  0  0  0  0  0  0
    6.1470    9.3975   -4.2852 H   0  0  0  0  0  0  0  0  0  0  0  0
    4.5005    9.6539   -4.9849 H   0  0  0  0  0  0  0  0  0  0  0  0
    5.9093   11.4831   -5.6411 H   0  0  0  0  0  0  0  0  0  0  0  0
    6.9920   11.0950   -3.2620 H   0  0  0  0  0  0  0  0  0  0  0  0
    2.4031   11.8995   -5.1637 H   0  0  0  0  0  0  0  0  0  0  0  0
    3.2733   13.0636   -6.2192 H   0  0  0  0  0  0  0  0  0  0  0  0
    3.7399   11.3290   -6.2192 H   0  0  0  0  0  0  0  0  0  0  0  0
    5.1018   14.3594   -3.7160 H   0  0  0  0  0  0  0  0  0  0  0  0
    5.8658   13.8349   -5.2548 H   0  0  0  0  0  0  0  0  0  0  0  0
    4.1800   14.4549   -5.2548 H   0  0  0  0  0  0  0  0  0  0  0  0
    3.2243   10.5495    0.8115 H   0  0  0  0  0  0  0  0  0  0  0  0
    4.2635    9.5561   -0.2654 H   0  0  0  0  0  0  0  0  0  0  0  0
    4.4217   11.3454   -0.2654 H   0  0  0  0  0  0  0  0  0  0  0  0
    2.4382    8.5225   -1.9079 H   0  0  0  0  0  0  0  0  0  0  0  0
    1.7866    8.9521   -0.2268 H   0  0  0  0  0  0  0  0  0  0  0  0
    0.4335    9.3920   -2.9022 H   0  0  0  0  0  0  0  0  0  0  0  0
   -0.0555    8.2873   -1.5576 H   0  0  0  0  0  0  0  0  0  0  0  0
   -0.2313   11.0218    0.9266 H   0  0  0  0  0  0  0  0  0  0  0  0
   -1.4595    9.7428    0.6398 H   0  0  0  0  0  0  0  0  0  0  0  0
    0.2878    9.3262    0.6398 H   0  0  0  0  0  0  0  0  0  0  0  0
  1  2  1  0
  2  3  1  0
  3  4  1  0
  4  5  1  0
  5  6  1  0
  6  7  1  0
  7  8  1  0
  7  9  1  0
  2 10  1  0
 10 11  1  0
 11 12  1  0
 12 13  1  0
 13 14  1  6
 13 15  1  0
 15 16  1  0
 16 17  1  0
 17 18  2  0
 18 19  1  0
 19 20  1  0
 20 21  1  0
 21 22  1  0
 22 23  1  0
 22 24  1  0
 24 25  1  0
 24 26  1  0
 19 27  1  0
 27 28  1  1
 27 29  1  0
 29 30  1  0
 30 31  1  0
 31 32  1  1
  7  5  1  0
 31 10  1  0
 31 13  1  0
 27 15  1  0
 24 18  1  0
  1 33  1  0
  1 34  1  0
  1 35  1  0
  2 36  1  6
  3 37  1  0
  3 38  1  0
  4 39  1  0
  4 40  1  0
  5 41  1  1
  8 42  1  0
  8 43  1  0
  8 44  1  0
  9 45  1  0
  9 46  1  0
  9 47  1  0
 10 48  1  6
 11 49  1  0
 11 50  1  0
 12 51  1  0
 12 52  1  0
 14 53  1  0
 14 54  1  0
 14 55  1  0
 15 56  1  1
 16 57  1  0
 16 58  1  0
 17 59  1  0
 19 60  1  6
 20 61  1  0
 20 62  1  0
 21 63  1  0
 21 64  1  0
 22 65  1  6
 23 66  1  0
 25 67  1  0
 25 68  1  0
 25 69  1  0
 26 70  1  0
 26 71  1  0
 26 72  1  0
 28 73  1  0
 28 74  1  0
 28 75  1  0
 29 76  1  0
 29 77  1  0
 30 78  1  0
 30 79  1  0
 32 80  1  0
 32 81  1  0
 32 82  1  0
M  END
>  <meeko>  (20) 
{"is_sidechain": [false], "intermolecular_energy": 2.731, "internal_energy": -0.839}

$$$$
