EPH_relaxed_0001_pdb2pqr_Repair_295_r2_0001_out
     RDKit          3D

 82 86  0  0  0  0  0  0  0  0999 V2000
   -1.5790    8.5620   -1.7790 C   0  0  0  0  0  0  0  0  0  0  0  0
   -1.9790    9.1570   -0.4260 C   0  0  2  0  0  0  0  0  0  0  0  0
   -3.4760    9.5230   -0.3720 C   0  0  0  0  0  0  0  0  0  0  0  0
   -4.4030    8.3100   -0.2700 C   0  0  0  0  0  0  0  0  0  0  0  0
   -5.0810    8.0190   -1.5740 C   0  0  2  0  0  0  0  0  0  0  0  0
   -6.3620    8.6420   -1.7350 O   0  0  0  0  0  0  0  0  0  0  0  0
   -6.3580    7.2060   -1.6910 C   0  0  0  0  0  0  0  0  0  0  0  0
   -7.0300    6.6330   -0.4830 C   0  0  0  0  0  0  0  0  0  0  0  0
   -6.6780    6.5610   -3.0030 C   0  0  0  0  0  0  0  0  0  0  0  0
   -1.1300   10.3880   -0.1290 C   0  0  1  0  0  0  0  0  0  0  0  0
   -0.0740   10.1320    0.9790 C   0  0  0  0  0  0  0  0  0  0  0  0
    1.1780   10.9670    0.6050 C   0  0  0  0  0  0  0  0  0  0  0  0
    0.6910   11.9220   -0.5100 C   0  0  1  0  0  0  0  0  0  0  0  0
   -0.0180   13.0910    0.2450 C   0  0  0  0  0  0  0  0  0  0  0  0
    1.7850   12.4500   -1.4940 C   0  0  2  0  0  0  0  0  0  0  0  0
    2.8890   13.3030   -0.8460 C   0  0  0  0  0  0  0  0  0  0  0  0
    2.6190   14.7710   -0.8030 C   0  0  0  0  0  0  0  0  0  0  0  0
    1.6740   15.4130   -1.5140 C   0  0  0  0  0  0  0  0  0  0  0  0
    0.8190   14.6650   -2.5450 C   0  0  1  0  0  0  0  0  0  0  0  0
    0.7560   15.4860   -3.8590 C   0  0  0  0  0  0  0  0  0  0  0  0
    0.2770   16.9170   -3.6330 C   0  0  0  0  0  0  0  0  0  0  0  0
    1.1850   17.6460   -2.6460 C   0  0  2  0  0  0  0  0  0  0  0  0
    2.4740   17.8150   -3.2450 O   0  0  0  0  0  0  0  0  0  0  0  0
    1.3340   16.9070   -1.2870 C   0  0  0  0  0  0  0  0  0  0  0  0
    0.0010   16.9880   -0.5020 C   0  0  0  0  0  0  0  0  0  0  0  0
    2.3840   17.6730   -0.4390 C   0  0  0  0  0  0  0  0  0  0  0  0
    1.2070   13.1440   -2.7940 C   0  0  1  0  0  0  0  0  0  0  0  0
    2.3210   13.0500   -3.8810 C   0  0  0  0  0  0  0  0  0  0  0  0
   -0.0440   12.3820   -3.3720 C   0  0  0  0  0  0  0  0  0  0  0  0
   -1.0260   11.7800   -2.3490 C   0  0  0  0  0  0  0  0  0  0  0  0
   -0.2800   10.9630   -1.2900 C   0  0  2  0  0  0  0  0  0  0  0  0
    0.4240    9.7670   -2.0160 C   0  0  0  0  0  0  0  0  0  0  0  0
   -0.9720    7.6590   -1.6174 H   0  0  0  0  0  0  0  0  0  0  0  0
   -2.4842    8.2987   -2.3458 H   0  0  0  0  0  0  0  0  0  0  0  0
   -0.9935    9.3009   -2.3458 H   0  0  0  0  0  0  0  0  0  0  0  0
   -1.8001    8.3881    0.3400 H   0  0  0  0  0  0  0  0  0  0  0  0
   -3.6452   10.1641    0.5057 H   0  0  0  0  0  0  0  0  0  0  0  0
   -3.7164   10.0325   -1.3168 H   0  0  0  0  0  0  0  0  0  0  0  0
   -3.8102    7.4324    0.0271 H   0  0  0  0  0  0  0  0  0  0  0  0
   -5.1787    8.5333    0.4773 H   0  0  0  0  0  0  0  0  0  0  0  0
   -4.1115    7.9484   -2.0889 H   0  0  0  0  0  0  0  0  0  0  0  0
   -6.5576    7.0358    0.4251 H   0  0  0  0  0  0  0  0  0  0  0  0
   -8.0959    6.9044   -0.4930 H   0  0  0  0  0  0  0  0  0  0  0  0
   -6.9305    5.5376   -0.4930 H   0  0  0  0  0  0  0  0  0  0  0  0
   -7.1605    5.5885   -2.8255 H   0  0  0  0  0  0  0  0  0  0  0  0
   -7.3589    7.2094   -3.5739 H   0  0  0  0  0  0  0  0  0  0  0  0
   -5.7498    6.4110   -3.5739 H   0  0  0  0  0  0  0  0  0  0  0  0
   -1.9244   11.0987    0.1429 H   0  0  0  0  0  0  0  0  0  0  0  0
   -0.4649   10.4522    1.9561 H   0  0  0  0  0  0  0  0  0  0  0  0
    0.1717    9.0622    1.0510 H   0  0  0  0  0  0  0  0  0  0  0  0
    1.5387   11.5367    1.4741 H   0  0  0  0  0  0  0  0  0  0  0  0
    2.0174   10.3363    0.2770 H   0  0  0  0  0  0  0  0  0  0  0  0
    0.0755   12.9368    1.3301 H   0  0  0  0  0  0  0  0  0  0  0  0
    0.4535   14.0455   -0.0317 H   0  0  0  0  0  0  0  0  0  0  0  0
   -1.0824   13.1140   -0.0317 H   0  0  0  0  0  0  0  0  0  0  0  0
    2.2771   11.5215   -1.8191 H   0  0  0  0  0  0  0  0  0  0  0  0
    3.0267   12.9524    0.1875 H   0  0  0  0  0  0  0  0  0  0  0  0
    3.7810   13.1763   -1.4771 H   0  0  0  0  0  0  0  0  0  0  0  0
    3.2455   15.3789   -0.1336 H   0  0  0  0  0  0  0  0  0  0  0  0
   -0.1866   14.5857   -2.1062 H   0  0  0  0  0  0  0  0  0  0  0  0
    1.7615   15.5170   -4.3039 H   0  0  0  0  0  0  0  0  0  0  0  0
    0.0330   14.9935   -4.5258 H   0  0  0  0  0  0  0  0  0  0  0  0
    0.2831   17.4546   -4.5927 H   0  0  0  0  0  0  0  0  0  0  0  0
   -0.7407   16.8853   -3.2168 H   0  0  0  0  0  0  0  0  0  0  0  0
    0.7181   18.6170   -2.4244 H   0  0  0  0  0  0  0  0  0  0  0  0
    3.1350   17.4630   -2.6260 H   0  0  0  0  0  0  0  0  0  0  0  0
    0.2101   16.9753    0.5779 H   0  0  0  0  0  0  0  0  0  0  0  0
   -0.5223   17.9196   -0.7632 H   0  0  0  0  0  0  0  0  0  0  0  0
   -0.6313   16.1266   -0.7632 H   0  0  0  0  0  0  0  0  0  0  0  0
    2.1743   17.5200    0.6299 H   0  0  0  0  0  0  0  0  0  0  0  0
    3.3903   17.2954   -0.6729 H   0  0  0  0  0  0  0  0  0  0  0  0
    2.3317   18.7466   -0.6729 H   0  0  0  0  0  0  0  0  0  0  0  0
    3.3034   12.9671   -3.3930 H   0  0  0  0  0  0  0  0  0  0  0  0
    2.1472   12.1633   -4.5084 H   0  0  0  0  0  0  0  0  0  0  0  0
    2.2983   13.9533   -4.5084 H   0  0  0  0  0  0  0  0  0  0  0  0
   -0.6071   13.0922   -3.9954 H   0  0  0  0  0  0  0  0  0  0  0  0
    0.3705   11.5194   -3.9143 H   0  0  0  0  0  0  0  0  0  0  0  0
   -1.5750   12.5948   -1.8544 H   0  0  0  0  0  0  0  0  0  0  0  0
   -1.7222   11.1143   -2.8801 H   0  0  0  0  0  0  0  0  0  0  0  0
    0.8327    9.0727   -1.2670 H   0  0  0  0  0  0  0  0  0  0  0  0
   -0.3071    9.2385   -2.6454 H   0  0  0  0  0  0  0  0  0  0  0  0
    1.2409   10.1498   -2.6454 H   0  0  0  0  0  0  0  0  0  0  0  0
  1  2  1  0
  2  3  1  0
  3  4  1  0
  4  5  1  0
  5  6  1  0
  6  7  1  0
  7  8  1  0
  7  9  1  0
  2 10  1  0
 10 11  1  0
 11 12  1  0
 12 13  1  0
 13 14  1  1
 13 15  1  0
 15 16  1  0
 16 17  1  0
 17 18  2  0
 18 19  1  0
 19 20  1  0
 20 21  1  0
 21 22  1  0
 22 23  1  0
 22 24  1  0
 24 25  1  0
 24 26  1  0
 19 27  1  0
 27 28  1  6
 27 29  1  0
 29 30  1  0
 30 31  1  0
 31 32  1  6
  7  5  1  0
 31 10  1  0
 31 13  1  0
 27 15  1  0
 24 18  1  0
  1 33  1  0
  1 34  1  0
  1 35  1  0
  2 36  1  1
  3 37  1  0
  3 38  1  0
  4 39  1  0
  4 40  1  0
  5 41  1  6
  8 42  1  0
  8 43  1  0
  8 44  1  0
  9 45  1  0
  9 46  1  0
  9 47  1  0
 10 48  1  1
 11 49  1  0
 11 50  1  0
 12 51  1  0
 12 52  1  0
 14 53  1  0
 14 54  1  0
 14 55  1  0
 15 56  1  6
 16 57  1  0
 16 58  1  0
 17 59  1  0
 19 60  1  1
 20 61  1  0
 20 62  1  0
 21 63  1  0
 21 64  1  0
 22 65  1  1
 23 66  1  0
 25 67  1  0
 25 68  1  0
 25 69  1  0
 26 70  1  0
 26 71  1  0
 26 72  1  0
 28 73  1  0
 28 74  1  0
 28 75  1  0
 29 76  1  0
 29 77  1  0
 30 78  1  0
 30 79  1  0
 32 80  1  0
 32 81  1  0
 32 82  1  0
M  END
>  <meeko>  (1) 
{"is_sidechain": [false], "intermolecular_energy": 2.731, "internal_energy": -0.839}

$$$$
EPH_relaxed_0001_pdb2pqr_Repair_295_r2_0001_out
     RDKit          3D

 82 86  0  0  0  0  0  0  0  0999 V2000
    0.6870   19.1750   -3.8550 C   0  0  0  0  0  0  0  0  0  0  0  0
    0.4550   18.4040   -2.5530 C   0  0  2  0  0  0  0  0  0  0  0  0
    1.6490   18.5270   -1.5840 C   0  0  0  0  0  0  0  0  0  0  0  0
    1.2700   19.0810   -0.2080 C   0  0  0  0  0  0  0  0  0  0  0  0
    0.0030   19.8790   -0.2610 C   0  0  2  0  0  0  0  0  0  0  0  0
   -0.5600   20.1940    1.0190 O   0  0  0  0  0  0  0  0  0  0  0  0
   -1.3460   19.3380    0.1740 C   0  0  0  0  0  0  0  0  0  0  0  0
   -1.4960   17.9420    0.6930 C   0  0  0  0  0  0  0  0  0  0  0  0
   -2.5840   19.9890   -0.3600 C   0  0  0  0  0  0  0  0  0  0  0  0
    0.1830   16.9360   -2.8600 C   0  0  1  0  0  0  0  0  0  0  0  0
    0.2550   16.6200   -4.3780 C   0  0  0  0  0  0  0  0  0  0  0  0
    0.8420   15.1910   -4.5090 C   0  0  0  0  0  0  0  0  0  0  0  0
    0.7760   14.6090   -3.0780 C   0  0  1  0  0  0  0  0  0  0  0  0
   -0.6980   14.1250   -2.9080 C   0  0  0  0  0  0  0  0  0  0  0  0
    1.7990   13.4740   -2.7460 C   0  0  2  0  0  0  0  0  0  0  0  0
    1.6460   12.1930   -3.5840 C   0  0  0  0  0  0  0  0  0  0  0  0
    0.7380   11.1580   -3.0080 C   0  0  0  0  0  0  0  0  0  0  0  0
    0.2940   11.1260   -1.7370 C   0  0  0  0  0  0  0  0  0  0  0  0
    0.7870   12.1490   -0.7060 C   0  0  1  0  0  0  0  0  0  0  0  0
    1.1700   11.4170    0.6070 C   0  0  0  0  0  0  0  0  0  0  0  0
    0.0370   10.5460    1.1430 C   0  0  0  0  0  0  0  0  0  0  0  0
   -0.3850    9.5040    0.1110 C   0  0  2  0  0  0  0  0  0  0  0  0
    0.6890    8.5780   -0.0760 O   0  0  0  0  0  0  0  0  0  0  0  0
   -0.7850   10.1240   -1.2570 C   0  0  0  0  0  0  0  0  0  0  0  0
   -2.1250   10.8860   -1.1120 C   0  0  0  0  0  0  0  0  0  0  0  0
   -1.0520    8.9600   -2.2490 C   0  0  0  0  0  0  0  0  0  0  0  0
    1.9220   13.1440   -1.2030 C   0  0  1  0  0  0  0  0  0  0  0  0
    3.3250   12.4950   -0.9980 C   0  0  0  0  0  0  0  0  0  0  0  0
    1.8980   14.4400   -0.3100 C   0  0  0  0  0  0  0  0  0  0  0  0
    0.9550   15.5740   -0.7570 C   0  0  0  0  0  0  0  0  0  0  0  0
    1.1450   15.8900   -2.2430 C   0  0  2  0  0  0  0  0  0  0  0  0
    2.6120   16.4010   -2.4410 C   0  0  0  0  0  0  0  0  0  0  0  0
    0.9967   20.2043   -3.6214 H   0  0  0  0  0  0  0  0  0  0  0  0
    1.4755   18.6785   -4.4396 H   0  0  0  0  0  0  0  0  0  0  0  0
   -0.2446   19.1961   -4.4396 H   0  0  0  0  0  0  0  0  0  0  0  0
   -0.4201   18.8488   -2.0566 H   0  0  0  0  0  0  0  0  0  0  0  0
    2.0895   17.5284   -1.4471 H   0  0  0  0  0  0  0  0  0  0  0  0
    2.3562   19.2394   -2.0339 H   0  0  0  0  0  0  0  0  0  0  0  0
    1.1332   18.2411    0.4890 H   0  0  0  0  0  0  0  0  0  0  0  0
    2.0795   19.7453    0.1287 H   0  0  0  0  0  0  0  0  0  0  0  0
    0.3330   20.3853   -1.1801 H   0  0  0  0  0  0  0  0  0  0  0  0
   -1.4943   17.9576    1.7929 H   0  0  0  0  0  0  0  0  0  0  0  0
   -2.4450   17.5172    0.3338 H   0  0  0  0  0  0  0  0  0  0  0  0
   -0.6589   17.3253    0.3338 H   0  0  0  0  0  0  0  0  0  0  0  0
   -3.2146   20.3206    0.4781 H   0  0  0  0  0  0  0  0  0  0  0  0
   -2.3055   20.8573   -0.9752 H   0  0  0  0  0  0  0  0  0  0  0  0
   -3.1415   19.2674   -0.9752 H   0  0  0  0  0  0  0  0  0  0  0  0
   -0.8170   16.8362   -2.4127 H   0  0  0  0  0  0  0  0  0  0  0  0
   -0.7510   16.6586   -4.8213 H   0  0  0  0  0  0  0  0  0  0  0  0
    0.8812   17.3546   -4.9055 H   0  0  0  0  0  0  0  0  0  0  0  0
    0.2395   14.5859   -5.2024 H   0  0  0  0  0  0  0  0  0  0  0  0
    1.8662   15.1961   -4.9102 H   0  0  0  0  0  0  0  0  0  0  0  0
   -0.9370   14.0465   -1.8371 H   0  0  0  0  0  0  0  0  0  0  0  0
   -1.3782   14.8470   -3.3835 H   0  0  0  0  0  0  0  0  0  0  0  0
   -0.8178   13.1403   -3.3835 H   0  0  0  0  0  0  0  0  0  0  0  0
    2.7559   13.9204   -3.0544 H   0  0  0  0  0  0  0  0  0  0  0  0
    1.2534   12.4778   -4.5713 H   0  0  0  0  0  0  0  0  0  0  0  0
    2.6448   11.7337   -3.6222 H   0  0  0  0  0  0  0  0  0  0  0  0
    0.4030   10.3530   -3.6786 H   0  0  0  0  0  0  0  0  0  0  0  0
   -0.0593   12.8273   -0.5227 H   0  0  0  0  0  0  0  0  0  0  0  0
    2.0442   10.7782    0.4126 H   0  0  0  0  0  0  0  0  0  0  0  0
    1.3894   12.1834    1.3649 H   0  0  0  0  0  0  0  0  0  0  0  0
    0.3778   10.0327    2.0543 H   0  0  0  0  0  0  0  0  0  0  0  0
   -0.8265   11.1904    1.3646 H   0  0  0  0  0  0  0  0  0  0  0  0
   -1.2811    8.9986    0.5004 H   0  0  0  0  0  0  0  0  0  0  0  0
    0.3200    7.7770   -0.4850 H   0  0  0  0  0  0  0  0  0  0  0  0
   -2.3579   11.0184   -0.0451 H   0  0  0  0  0  0  0  0  0  0  0  0
   -2.0406   11.8712   -1.5939 H   0  0  0  0  0  0  0  0  0  0  0  0
   -2.9285   10.3097   -1.5939 H   0  0  0  0  0  0  0  0  0  0  0  0
   -1.2632    8.0392   -1.6855 H   0  0  0  0  0  0  0  0  0  0  0  0
   -1.9164    9.2088   -2.8822 H   0  0  0  0  0  0  0  0  0  0  0  0
   -0.1656    8.8072   -2.8822 H   0  0  0  0  0  0  0  0  0  0  0  0
    3.5312   12.3996    0.0783 H   0  0  0  0  0  0  0  0  0  0  0  0
    3.3397   11.4986   -1.4638 H   0  0  0  0  0  0  0  0  0  0  0  0
    4.0938   13.1289   -1.4638 H   0  0  0  0  0  0  0  0  0  0  0  0
    1.5992   14.1393    0.7051 H   0  0  0  0  0  0  0  0  0  0  0  0
    2.9113   14.8612   -0.3863 H   0  0  0  0  0  0  0  0  0  0  0  0
   -0.0866   15.2649   -0.5850 H   0  0  0  0  0  0  0  0  0  0  0  0
    1.1898   16.4764   -0.1734 H   0  0  0  0  0  0  0  0  0  0  0  0
    3.0793   16.5638   -1.4586 H   0  0  0  0  0  0  0  0  0  0  0  0
    3.1890   15.6509   -3.0017 H   0  0  0  0  0  0  0  0  0  0  0  0
    2.5981   17.3472   -3.0017 H   0  0  0  0  0  0  0  0  0  0  0  0
  1  2  1  0
  2  3  1  0
  3  4  1  0
  4  5  1  0
  5  6  1  0
  6  7  1  0
  7  8  1  0
  7  9  1  0
  2 10  1  0
 10 11  1  0
 11 12  1  0
 12 13  1  0
 13 14  1  1
 13 15  1  0
 15 16  1  0
 16 17  1  0
 17 18  2  0
 18 19  1  0
 19 20  1  0
 20 21  1  0
 21 22  1  0
 22 23  1  0
 22 24  1  0
 24 25  1  0
 24 26  1  0
 19 27  1  0
 27 28  1  6
 27 29  1  0
 29 30  1  0
 30 31  1  0
 31 32  1  1
  7  5  1  0
 31 10  1  0
 31 13  1  0
 27 15  1  0
 24 18  1  0
  1 33  1  0
  1 34  1  0
  1 35  1  0
  2 36  1  1
  3 37  1  0
  3 38  1  0
  4 39  1  0
  4 40  1  0
  5 41  1  6
  8 42  1  0
  8 43  1  0
  8 44  1  0
  9 45  1  0
  9 46  1  0
  9 47  1  0
 10 48  1  1
 11 49  1  0
 11 50  1  0
 12 51  1  0
 12 52  1  0
 14 53  1  0
 14 54  1  0
 14 55  1  0
 15 56  1  6
 16 57  1  0
 16 58  1  0
 17 59  1  0
 19 60  1  1
 20 61  1  0
 20 62  1  0
 21 63  1  0
 21 64  1  0
 22 65  1  1
 23 66  1  0
 25 67  1  0
 25 68  1  0
 25 69  1  0
 26 70  1  0
 26 71  1  0
 26 72  1  0
 28 73  1  0
 28 74  1  0
 28 75  1  0
 29 76  1  0
 29 77  1  0
 30 78  1  0
 30 79  1  0
 32 80  1  0
 32 81  1  0
 32 82  1  0
M  END
>  <meeko>  (2) 
{"is_sidechain": [false], "intermolecular_energy": 2.731, "internal_energy": -0.839}

$$$$
EPH_relaxed_0001_pdb2pqr_Repair_295_r2_0001_out
     RDKit          3D

 82 86  0  0  0  0  0  0  0  0999 V2000
    0.4200   18.4180   -0.0330 C   0  0  0  0  0  0  0  0  0  0  0  0
    1.4890   17.3400   -0.2310 C   0  0  2  0  0  0  0  0  0  0  0  0
    2.7220   17.8760   -0.9860 C   0  0  0  0  0  0  0  0  0  0  0  0
    3.9580   18.0540   -0.0990 C   0  0  0  0  0  0  0  0  0  0  0  0
    3.5920   18.5410    1.2700 C   0  0  2  0  0  0  0  0  0  0  0  0
    3.7940   19.9440    1.4810 O   0  0  0  0  0  0  0  0  0  0  0  0
    4.6060   19.0620    2.2720 C   0  0  0  0  0  0  0  0  0  0  0  0
    6.0650   19.1200    1.9460 C   0  0  0  0  0  0  0  0  0  0  0  0
    4.2460   19.0520    3.7250 C   0  0  0  0  0  0  0  0  0  0  0  0
    0.8970   16.1520   -0.9800 C   0  0  1  0  0  0  0  0  0  0  0  0
    0.7350   16.4230   -2.4990 C   0  0  0  0  0  0  0  0  0  0  0  0
    1.0060   15.0800   -3.2250 C   0  0  0  0  0  0  0  0  0  0  0  0
    0.9860   14.0180   -2.1010 C   0  0  1  0  0  0  0  0  0  0  0  0
   -0.5270   13.7250   -1.8540 C   0  0  0  0  0  0  0  0  0  0  0  0
    1.7920   12.7070   -2.3740 C   0  0  2  0  0  0  0  0  0  0  0  0
    1.2940   11.8720   -3.5670 C   0  0  0  0  0  0  0  0  0  0  0  0
    0.2670   10.8400   -3.2390 C   0  0  0  0  0  0  0  0  0  0  0  0
   -0.0290   10.3960   -2.0040 C   0  0  0  0  0  0  0  0  0  0  0  0
    0.7690   10.8720   -0.7830 C   0  0  1  0  0  0  0  0  0  0  0  0
    1.1420    9.6530    0.1000 C   0  0  0  0  0  0  0  0  0  0  0  0
   -0.0750    8.8180    0.4880 C   0  0  0  0  0  0  0  0  0  0  0  0
   -0.8090    8.3150   -0.7520 C   0  0  2  0  0  0  0  0  0  0  0  0
    0.0320    7.3820   -1.4380 O   0  0  0  0  0  0  0  0  0  0  0  0
   -1.2260    9.4550   -1.7220 C   0  0  0  0  0  0  0  0  0  0  0  0
   -2.3630   10.2910   -1.0850 C   0  0  0  0  0  0  0  0  0  0  0  0
   -1.8290    8.8020   -2.9950 C   0  0  0  0  0  0  0  0  0  0  0  0
    2.0180   11.8060   -1.0930 C   0  0  1  0  0  0  0  0  0  0  0  0
    3.2770   10.9320   -1.3800 C   0  0  0  0  0  0  0  0  0  0  0  0
    2.3520   12.6590    0.1870 C   0  0  0  0  0  0  0  0  0  0  0  0
    1.6110   14.0010    0.3400 C   0  0  0  0  0  0  0  0  0  0  0  0
    1.6930   14.8230   -0.9500 C   0  0  2  0  0  0  0  0  0  0  0  0
    3.2020   15.1530   -1.2120 C   0  0  0  0  0  0  0  0  0  0  0  0
    0.2584   18.5809    1.0428 H   0  0  0  0  0  0  0  0  0  0  0  0
    0.7545   19.3562   -0.4998 H   0  0  0  0  0  0  0  0  0  0  0  0
   -0.5210   18.0914   -0.4998 H   0  0  0  0  0  0  0  0  0  0  0  0
    1.8252   17.0211    0.7667 H   0  0  0  0  0  0  0  0  0  0  0  0
    2.9710   17.1686   -1.7907 H   0  0  0  0  0  0  0  0  0  0  0  0
    2.4559   18.8719   -1.3700 H   0  0  0  0  0  0  0  0  0  0  0  0
    4.4733   17.0865   -0.0073 H   0  0  0  0  0  0  0  0  0  0  0  0
    4.6108   18.8054   -0.5672 H   0  0  0  0  0  0  0  0  0  0  0  0
    2.7954   17.7867    1.3503 H   0  0  0  0  0  0  0  0  0  0  0  0
    6.6484   19.1432    2.8783 H   0  0  0  0  0  0  0  0  0  0  0  0
    6.3454   18.2323    1.3600 H   0  0  0  0  0  0  0  0  0  0  0  0
    6.2740   20.0272    1.3600 H   0  0  0  0  0  0  0  0  0  0  0  0
    5.1641   19.0775    4.3304 H   0  0  0  0  0  0  0  0  0  0  0  0
    3.6298   19.9334    3.9561 H   0  0  0  0  0  0  0  0  0  0  0  0
    3.6796   18.1378    3.9561 H   0  0  0  0  0  0  0  0  0  0  0  0
   -0.0465   16.0379   -0.4262 H   0  0  0  0  0  0  0  0  0  0  0  0
   -0.2860   16.7709   -2.7148 H   0  0  0  0  0  0  0  0  0  0  0  0
    1.4333   17.2026   -2.8375 H   0  0  0  0  0  0  0  0  0  0  0  0
    0.2207   14.8745   -3.9674 H   0  0  0  0  0  0  0  0  0  0  0  0
    1.9588   15.0878   -3.7747 H   0  0  0  0  0  0  0  0  0  0  0  0
   -0.7213   13.6874   -0.7720 H   0  0  0  0  0  0  0  0  0  0  0  0
   -1.1338   14.5223   -2.3080 H   0  0  0  0  0  0  0  0  0  0  0  0
   -0.7923   12.7588   -2.3080 H   0  0  0  0  0  0  0  0  0  0  0  0
    2.7783   13.0939   -2.6700 H   0  0  0  0  0  0  0  0  0  0  0  0
    0.8593   12.5610   -4.3061 H   0  0  0  0  0  0  0  0  0  0  0  0
    2.1703   11.3213   -3.9396 H   0  0  0  0  0  0  0  0  0  0  0  0
   -0.2958   10.4055   -4.0783 H   0  0  0  0  0  0  0  0  0  0  0  0
    0.1002   11.5447   -0.2261 H   0  0  0  0  0  0  0  0  0  0  0  0
    1.8441    9.0154   -0.4573 H   0  0  0  0  0  0  0  0  0  0  0  0
    1.5929   10.0373    1.0269 H   0  0  0  0  0  0  0  0  0  0  0  0
    0.2557    7.9555    1.0852 H   0  0  0  0  0  0  0  0  0  0  0  0
   -0.7622    9.4487    1.0711 H   0  0  0  0  0  0  0  0  0  0  0  0
   -1.7398    7.8365   -0.4134 H   0  0  0  0  0  0  0  0  0  0  0  0
   -0.1690    6.4960   -1.0930 H   0  0  0  0  0  0  0  0  0  0  0  0
   -2.2885   10.2362    0.0111 H   0  0  0  0  0  0  0  0  0  0  0  0
   -2.2721   11.3389   -1.4068 H   0  0  0  0  0  0  0  0  0  0  0  0
   -3.3362    9.8917   -1.4068 H   0  0  0  0  0  0  0  0  0  0  0  0
   -2.5483    8.0231   -2.7019 H   0  0  0  0  0  0  0  0  0  0  0  0
   -2.3428    9.5695   -3.5925 H   0  0  0  0  0  0  0  0  0  0  0  0
   -1.0231    8.3508   -3.5925 H   0  0  0  0  0  0  0  0  0  0  0  0
    3.7299   10.6176   -0.4281 H   0  0  0  0  0  0  0  0  0  0  0  0
    2.9825   10.0431   -1.9572 H   0  0  0  0  0  0  0  0  0  0  0  0
    4.0068   11.5187   -1.9572 H   0  0  0  0  0  0  0  0  0  0  0  0
    2.1134   12.0448    1.0678 H   0  0  0  0  0  0  0  0  0  0  0  0
    3.4141   12.9265    0.0856 H   0  0  0  0  0  0  0  0  0  0  0  0
    0.5545   13.8040    0.5745 H   0  0  0  0  0  0  0  0  0  0  0  0
    2.0854   14.5730    1.1510 H   0  0  0  0  0  0  0  0  0  0  0  0
    3.7246   15.2673   -0.2508 H   0  0  0  0  0  0  0  0  0  0  0  0
    3.6623   14.3343   -1.7846 H   0  0  0  0  0  0  0  0  0  0  0  0
    3.2786   16.0891   -1.7846 H   0  0  0  0  0  0  0  0  0  0  0  0
  1  2  1  0
  2  3  1  0
  3  4  1  0
  4  5  1  0
  5  6  1  0
  6  7  1  0
  7  8  1  0
  7  9  1  0
  2 10  1  0
 10 11  1  0
 11 12  1  0
 12 13  1  0
 13 14  1  1
 13 15  1  0
 15 16  1  0
 16 17  1  0
 17 18  2  0
 18 19  1  0
 19 20  1  0
 20 21  1  0
 21 22  1  0
 22 23  1  0
 22 24  1  0
 24 25  1  0
 24 26  1  0
 19 27  1  0
 27 28  1  6
 27 29  1  0
 29 30  1  0
 30 31  1  0
 31 32  1  6
  7  5  1  0
 31 10  1  0
 31 13  1  0
 27 15  1  0
 24 18  1  0
  1 33  1  0
  1 34  1  0
  1 35  1  0
  2 36  1  1
  3 37  1  0
  3 38  1  0
  4 39  1  0
  4 40  1  0
  5 41  1  1
  8 42  1  0
  8 43  1  0
  8 44  1  0
  9 45  1  0
  9 46  1  0
  9 47  1  0
 10 48  1  1
 11 49  1  0
 11 50  1  0
 12 51  1  0
 12 52  1  0
 14 53  1  0
 14 54  1  0
 14 55  1  0
 15 56  1  6
 16 57  1  0
 16 58  1  0
 17 59  1  0
 19 60  1  1
 20 61  1  0
 20 62  1  0
 21 63  1  0
 21 64  1  0
 22 65  1  1
 23 66  1  0
 25 67  1  0
 25 68  1  0
 25 69  1  0
 26 70  1  0
 26 71  1  0
 26 72  1  0
 28 73  1  0
 28 74  1  0
 28 75  1  0
 29 76  1  0
 29 77  1  0
 30 78  1  0
 30 79  1  0
 32 80  1  0
 32 81  1  0
 32 82  1  0
M  END
>  <meeko>  (3) 
{"is_sidechain": [false], "intermolecular_energy": 2.731, "internal_energy": -0.839}

$$$$
EPH_relaxed_0001_pdb2pqr_Repair_295_r2_0001_out
     RDKit          3D

 82 86  0  0  0  0  0  0  0  0999 V2000
    1.2430   18.5560   -4.1680 C   0  0  0  0  0  0  0  0  0  0  0  0
    0.1570   18.0360   -3.2220 C   0  0  2  0  0  0  0  0  0  0  0  0
    0.4610   18.3710   -1.7480 C   0  0  0  0  0  0  0  0  0  0  0  0
    1.2110   19.6920   -1.5600 C   0  0  0  0  0  0  0  0  0  0  0  0
    2.3210   19.5620   -0.5610 C   0  0  2  0  0  0  0  0  0  0  0  0
    2.1670   18.4790    0.3670 O   0  0  0  0  0  0  0  0  0  0  0  0
    2.1400   19.8020    0.9260 C   0  0  0  0  0  0  0  0  0  0  0  0
    0.8140   20.1940    1.4980 C   0  0  0  0  0  0  0  0  0  0  0  0
    3.3460   20.1340    1.7490 C   0  0  0  0  0  0  0  0  0  0  0  0
   -0.0030   16.5290   -3.3920 C   0  0  1  0  0  0  0  0  0  0  0  0
    0.2150   16.0670   -4.8570 C   0  0  0  0  0  0  0  0  0  0  0  0
    0.8930   14.6750   -4.7910 C   0  0  0  0  0  0  0  0  0  0  0  0
    0.7430   14.2370   -3.3150 C   0  0  1  0  0  0  0  0  0  0  0  0
   -0.7090   13.6750   -3.2090 C   0  0  0  0  0  0  0  0  0  0  0  0
    1.7990   13.2130   -2.7870 C   0  0  2  0  0  0  0  0  0  0  0  0
    1.7930   11.8460   -3.4940 C   0  0  0  0  0  0  0  0  0  0  0  0
    0.9020   10.8160   -2.8830 C   0  0  0  0  0  0  0  0  0  0  0  0
    0.3570   10.8830   -1.6540 C   0  0  0  0  0  0  0  0  0  0  0  0
    0.7010   12.0360   -0.7020 C   0  0  1  0  0  0  0  0  0  0  0  0
    1.0150   11.4680    0.7070 C   0  0  0  0  0  0  0  0  0  0  0  0
   -0.1050   10.5820    1.2440 C   0  0  0  0  0  0  0  0  0  0  0  0
   -0.3780    9.4150    0.2990 C   0  0  2  0  0  0  0  0  0  0  0  0
    0.7610    8.5490    0.2950 O   0  0  0  0  0  0  0  0  0  0  0  0
   -0.6980    9.8650   -1.1540 C   0  0  0  0  0  0  0  0  0  0  0  0
   -2.0880   10.5460   -1.1940 C   0  0  0  0  0  0  0  0  0  0  0  0
   -0.8130    8.5910   -2.0340 C   0  0  0  0  0  0  0  0  0  0  0  0
    1.8130   13.0490   -1.2130 C   0  0  1  0  0  0  0  0  0  0  0  0
    3.2300   12.5200   -0.8330 C   0  0  0  0  0  0  0  0  0  0  0  0
    1.6380   14.4250   -0.4670 C   0  0  0  0  0  0  0  0  0  0  0  0
    0.6710   15.4420   -1.1030 C   0  0  0  0  0  0  0  0  0  0  0  0
    0.9640   15.6180   -2.5960 C   0  0  2  0  0  0  0  0  0  0  0  0
    2.4110   16.2040   -2.7330 C   0  0  0  0  0  0  0  0  0  0  0  0
    2.0809   18.9572   -3.5790 H   0  0  0  0  0  0  0  0  0  0  0  0
    1.6020   17.7321   -4.8023 H   0  0  0  0  0  0  0  0  0  0  0  0
    0.8262   19.3522   -4.8023 H   0  0  0  0  0  0  0  0  0  0  0  0
   -0.7829   18.5419   -3.4879 H   0  0  0  0  0  0  0  0  0  0  0  0
   -0.4919   18.4318   -1.2019 H   0  0  0  0  0  0  0  0  0  0  0  0
    1.1139   17.5730   -1.3647 H   0  0  0  0  0  0  0  0  0  0  0  0
    1.6356   20.0015   -2.5264 H   0  0  0  0  0  0  0  0  0  0  0  0
    0.4979   20.4408   -1.1848 H   0  0  0  0  0  0  0  0  0  0  0  0
    3.0520   19.9475   -1.2870 H   0  0  0  0  0  0  0  0  0  0  0  0
    0.8693   20.1777    2.5965 H   0  0  0  0  0  0  0  0  0  0  0  0
    0.5536   21.2075    1.1590 H   0  0  0  0  0  0  0  0  0  0  0  0
    0.0444   19.4850    1.1590 H   0  0  0  0  0  0  0  0  0  0  0  0
    3.0917   20.0640    2.8169 H   0  0  0  0  0  0  0  0  0  0  0  0
    4.1545   19.4250    1.5173 H   0  0  0  0  0  0  0  0  0  0  0  0
    3.6777   21.1569    1.5173 H   0  0  0  0  0  0  0  0  0  0  0  0
   -1.0296   16.4084   -3.0157 H   0  0  0  0  0  0  0  0  0  0  0  0
   -0.7507   15.9936   -5.3786 H   0  0  0  0  0  0  0  0  0  0  0  0
    0.8400   16.7848   -5.4085 H   0  0  0  0  0  0  0  0  0  0  0  0
    0.3863   13.9642   -5.4603 H   0  0  0  0  0  0  0  0  0  0  0  0
    1.9448   14.7079   -5.1114 H   0  0  0  0  0  0  0  0  0  0  0  0
   -0.9845   13.5684   -2.1494 H   0  0  0  0  0  0  0  0  0  0  0  0
   -1.4072   14.3678   -3.7014 H   0  0  0  0  0  0  0  0  0  0  0  0
   -0.7588   12.6926   -3.7014 H   0  0  0  0  0  0  0  0  0  0  0  0
    2.7498   13.6902   -3.0667 H   0  0  0  0  0  0  0  0  0  0  0  0
    1.4688   12.0024   -4.5335 H   0  0  0  0  0  0  0  0  0  0  0  0
    2.8168   11.4535   -3.4061 H   0  0  0  0  0  0  0  0  0  0  0  0
    0.6712    9.9270   -3.4883 H   0  0  0  0  0  0  0  0  0  0  0  0
   -0.1961   12.6710   -0.6572 H   0  0  0  0  0  0  0  0  0  0  0  0
    1.9384   10.8730    0.6495 H   0  0  0  0  0  0  0  0  0  0  0  0
    1.1245   12.3204    1.3936 H   0  0  0  0  0  0  0  0  0  0  0  0
    0.1885   10.1874    2.2279 H   0  0  0  0  0  0  0  0  0  0  0  0
   -1.0203   11.1862    1.3293 H   0  0  0  0  0  0  0  0  0  0  0  0
   -1.2725    8.8929    0.6694 H   0  0  0  0  0  0  0  0  0  0  0  0
    0.5490    7.7870   -0.2700 H   0  0  0  0  0  0  0  0  0  0  0  0
   -2.4412   10.7191   -0.1667 H   0  0  0  0  0  0  0  0  0  0  0  0
   -2.0100   11.5079   -1.7218 H   0  0  0  0  0  0  0  0  0  0  0  0
   -2.8003    9.8948   -1.7218 H   0  0  0  0  0  0  0  0  0  0  0  0
   -0.8930    7.7047   -1.3874 H   0  0  0  0  0  0  0  0  0  0  0  0
   -1.7082    8.6636   -2.6690 H   0  0  0  0  0  0  0  0  0  0  0  0
    0.0808    8.5021   -2.6690 H   0  0  0  0  0  0  0  0  0  0  0  0
    3.3264   12.4840    0.2622 H   0  0  0  0  0  0  0  0  0  0  0  0
    3.3674   11.5100   -1.2466 H   0  0  0  0  0  0  0  0  0  0  0  0
    3.9957   13.1929   -1.2466 H   0  0  0  0  0  0  0  0  0  0  0  0
    1.2735   14.2092    0.5482 H   0  0  0  0  0  0  0  0  0  0  0  0
    2.6276   14.9033   -0.5095 H   0  0  0  0  0  0  0  0  0  0  0  0
   -0.3614   15.0831   -0.9788 H   0  0  0  0  0  0  0  0  0  0  0  0
    0.8042   16.4126   -0.6028 H   0  0  0  0  0  0  0  0  0  0  0  0
    2.8336   16.3751   -1.7319 H   0  0  0  0  0  0  0  0  0  0  0  0
    3.0447   15.4916   -3.2816 H   0  0  0  0  0  0  0  0  0  0  0  0
    2.3704   17.1566   -3.2816 H   0  0  0  0  0  0  0  0  0  0  0  0
  1  2  1  0
  2  3  1  0
  3  4  1  0
  4  5  1  0
  5  6  1  0
  6  7  1  0
  7  8  1  0
  7  9  1  0
  2 10  1  0
 10 11  1  0
 11 12  1  0
 12 13  1  0
 13 14  1  6
 13 15  1  0
 15 16  1  0
 16 17  1  0
 17 18  2  0
 18 19  1  0
 19 20  1  0
 20 21  1  0
 21 22  1  0
 22 23  1  0
 22 24  1  0
 24 25  1  0
 24 26  1  0
 19 27  1  0
 27 28  1  1
 27 29  1  0
 29 30  1  0
 30 31  1  0
 31 32  1  1
  7  5  1  0
 31 10  1  0
 31 13  1  0
 27 15  1  0
 24 18  1  0
  1 33  1  0
  1 34  1  0
  1 35  1  0
  2 36  1  6
  3 37  1  0
  3 38  1  0
  4 39  1  0
  4 40  1  0
  5 41  1  6
  8 42  1  0
  8 43  1  0
  8 44  1  0
  9 45  1  0
  9 46  1  0
  9 47  1  0
 10 48  1  1
 11 49  1  0
 11 50  1  0
 12 51  1  0
 12 52  1  0
 14 53  1  0
 14 54  1  0
 14 55  1  0
 15 56  1  6
 16 57  1  0
 16 58  1  0
 17 59  1  0
 19 60  1  1
 20 61  1  0
 20 62  1  0
 21 63  1  0
 21 64  1  0
 22 65  1  1
 23 66  1  0
 25 67  1  0
 25 68  1  0
 25 69  1  0
 26 70  1  0
 26 71  1  0
 26 72  1  0
 28 73  1  0
 28 74  1  0
 28 75  1  0
 29 76  1  0
 29 77  1  0
 30 78  1  0
 30 79  1  0
 32 80  1  0
 32 81  1  0
 32 82  1  0
M  END
>  <meeko>  (4) 
{"is_sidechain": [false], "intermolecular_energy": 2.731, "internal_energy": -0.839}

$$$$
EPH_relaxed_0001_pdb2pqr_Repair_295_r2_0001_out
     RDKit          3D

 82 86  0  0  0  0  0  0  0  0999 V2000
    4.2380   17.3410   -0.5740 C   0  0  0  0  0  0  0  0  0  0  0  0
    2.8760   17.9500   -0.2270 C   0  0  2  0  0  0  0  0  0  0  0  0
    2.8980   18.6900    1.1250 C   0  0  0  0  0  0  0  0  0  0  0  0
    4.2750   18.7060    1.7950 C   0  0  0  0  0  0  0  0  0  0  0  0
    4.2040   19.2400    3.1940 C   0  0  2  0  0  0  0  0  0  0  0  0
    5.2240   20.1910    3.5250 O   0  0  0  0  0  0  0  0  0  0  0  0
    5.2520   18.9530    4.2530 C   0  0  0  0  0  0  0  0  0  0  0  0
    6.4460   18.1000    3.9590 C   0  0  0  0  0  0  0  0  0  0  0  0
    4.8700   19.0930    5.6940 C   0  0  0  0  0  0  0  0  0  0  0  0
    1.8100   16.8610   -0.2080 C   0  0  1  0  0  0  0  0  0  0  0  0
    0.3900   17.4100   -0.5100 C   0  0  0  0  0  0  0  0  0  0  0  0
   -0.3550   16.3090   -1.3070 C   0  0  0  0  0  0  0  0  0  0  0  0
    0.5290   15.0490   -1.1510 C   0  0  1  0  0  0  0  0  0  0  0  0
    0.1540   14.4670    0.2470 C   0  0  0  0  0  0  0  0  0  0  0  0
    0.4020   13.9720   -2.2780 C   0  0  2  0  0  0  0  0  0  0  0  0
   -0.9910   13.3320   -2.4140 C   0  0  0  0  0  0  0  0  0  0  0  0
   -1.2090   12.1000   -1.6000 C   0  0  0  0  0  0  0  0  0  0  0  0
   -0.2430   11.3690   -1.0140 C   0  0  0  0  0  0  0  0  0  0  0  0
    1.2390   11.7070   -1.2250 C   0  0  1  0  0  0  0  0  0  0  0  0
    2.0260   10.4090   -1.5450 C   0  0  0  0  0  0  0  0  0  0  0  0
    1.8190    9.3250   -0.4920 C   0  0  0  0  0  0  0  0  0  0  0  0
    0.3400    8.9750   -0.3530 C   0  0  2  0  0  0  0  0  0  0  0  0
   -0.1030    8.3540   -1.5640 O   0  0  0  0  0  0  0  0  0  0  0  0
   -0.5550   10.2060   -0.0390 C   0  0  0  0  0  0  0  0  0  0  0  0
   -0.2800   10.6950    1.4040 C   0  0  0  0  0  0  0  0  0  0  0  0
   -2.0350    9.7400   -0.0650 C   0  0  0  0  0  0  0  0  0  0  0  0
    1.5430   12.8760   -2.2580 C   0  0  1  0  0  0  0  0  0  0  0  0
    1.6310   12.2980   -3.7040 C   0  0  0  0  0  0  0  0  0  0  0  0
    2.9570   13.4900   -1.9380 C   0  0  0  0  0  0  0  0  0  0  0  0
    3.0010   14.6320   -0.9050 C   0  0  0  0  0  0  0  0  0  0  0  0
    1.9560   15.7040   -1.2270 C   0  0  2  0  0  0  0  0  0  0  0  0
    2.3200   16.3230   -2.6190 C   0  0  0  0  0  0  0  0  0  0  0  0
    4.7785   17.0993    0.3531 H   0  0  0  0  0  0  0  0  0  0  0  0
    4.0902   16.4233   -1.1621 H   0  0  0  0  0  0  0  0  0  0  0  0
    4.8234   18.0631   -1.1621 H   0  0  0  0  0  0  0  0  0  0  0  0
    2.6369   18.6908   -1.0042 H   0  0  0  0  0  0  0  0  0  0  0  0
    2.5813   19.7299    0.9570 H   0  0  0  0  0  0  0  0  0  0  0  0
    2.2184   18.1484    1.7993 H   0  0  0  0  0  0  0  0  0  0  0  0
    4.6691   17.6794    1.8247 H   0  0  0  0  0  0  0  0  0  0  0  0
    4.9339   19.3640    1.2095 H   0  0  0  0  0  0  0  0  0  0  0  0
    3.1076   19.1507    3.1973 H   0  0  0  0  0  0  0  0  0  0  0  0
    6.9043   17.7726    4.9039 H   0  0  0  0  0  0  0  0  0  0  0  0
    6.1336   17.2194    3.3785 H   0  0  0  0  0  0  0  0  0  0  0  0
    7.1777   18.6810    3.3785 H   0  0  0  0  0  0  0  0  0  0  0  0
    5.7136   18.7838    6.3287 H   0  0  0  0  0  0  0  0  0  0  0  0
    4.6170   20.1423    5.9060 H   0  0  0  0  0  0  0  0  0  0  0  0
    3.9988   18.4557    5.9060 H   0  0  0  0  0  0  0  0  0  0  0  0
    1.9532   16.4814    0.8144 H   0  0  0  0  0  0  0  0  0  0  0  0
   -0.1415   17.6229    0.4293 H   0  0  0  0  0  0  0  0  0  0  0  0
    0.4426   18.3464   -1.0847 H   0  0  0  0  0  0  0  0  0  0  0  0
   -1.3564   16.1354   -0.8863 H   0  0  0  0  0  0  0  0  0  0  0  0
   -0.5047   16.5858   -2.3610 H   0  0  0  0  0  0  0  0  0  0  0  0
    0.5692   15.1114    1.0358 H   0  0  0  0  0  0  0  0  0  0  0  0
   -0.9408   14.4261    0.3455 H   0  0  0  0  0  0  0  0  0  0  0  0
    0.5692   13.4531    0.3455 H   0  0  0  0  0  0  0  0  0  0  0  0
    0.5477   14.5670   -3.1917 H   0  0  0  0  0  0  0  0  0  0  0  0
   -1.7392   14.0782   -2.1082 H   0  0  0  0  0  0  0  0  0  0  0  0
   -1.0820   13.0220   -3.4655 H   0  0  0  0  0  0  0  0  0  0  0  0
   -2.2471   11.7609   -1.4680 H   0  0  0  0  0  0  0  0  0  0  0  0
    1.5924   12.1323   -0.2741 H   0  0  0  0  0  0  0  0  0  0  0  0
    1.6895   10.0236   -2.5188 H   0  0  0  0  0  0  0  0  0  0  0  0
    3.0964   10.6621   -1.5578 H   0  0  0  0  0  0  0  0  0  0  0  0
    2.3758    8.4239   -0.7886 H   0  0  0  0  0  0  0  0  0  0  0  0
    2.1832    9.7011    0.4754 H   0  0  0  0  0  0  0  0  0  0  0  0
    0.2426    8.2909    0.5029 H   0  0  0  0  0  0  0  0  0  0  0  0
   -0.7460    8.9510   -1.9820 H   0  0  0  0  0  0  0  0  0  0  0  0
   -0.6887    9.9683    2.1215 H   0  0  0  0  0  0  0  0  0  0  0  0
    0.8049   10.7918    1.5578 H   0  0  0  0  0  0  0  0  0  0  0  0
   -0.7608   11.6723    1.5578 H   0  0  0  0  0  0  0  0  0  0  0  0
   -2.4013    9.6247    0.9658 H   0  0  0  0  0  0  0  0  0  0  0  0
   -2.6461   10.4892   -0.5896 H   0  0  0  0  0  0  0  0  0  0  0  0
   -2.1067    8.7758   -0.5896 H   0  0  0  0  0  0  0  0  0  0  0  0
    1.7964   11.2116   -3.6552 H   0  0  0  0  0  0  0  0  0  0  0  0
    0.6914   12.5022   -4.2383 H   0  0  0  0  0  0  0  0  0  0  0  0
    2.4672   12.7726   -4.2383 H   0  0  0  0  0  0  0  0  0  0  0  0
    3.5956   12.6769   -1.5625 H   0  0  0  0  0  0  0  0  0  0  0  0
    3.2944   13.9428   -2.8820 H   0  0  0  0  0  0  0  0  0  0  0  0
    2.7980   14.2207    0.0948 H   0  0  0  0  0  0  0  0  0  0  0  0
    3.9985   15.0945   -0.9363 H   0  0  0  0  0  0  0  0  0  0  0  0
    2.8724   17.2624   -2.4694 H   0  0  0  0  0  0  0  0  0  0  0  0
    2.9458   15.6154   -3.1826 H   0  0  0  0  0  0  0  0  0  0  0  0
    1.3974   16.5259   -3.1826 H   0  0  0  0  0  0  0  0  0  0  0  0
  1  2  1  0
  2  3  1  0
  3  4  1  0
  4  5  1  0
  5  6  1  0
  6  7  1  0
  7  8  1  0
  7  9  1  0
  2 10  1  0
 10 11  1  0
 11 12  1  0
 12 13  1  0
 13 14  1  1
 13 15  1  0
 15 16  1  0
 16 17  1  0
 17 18  2  0
 18 19  1  0
 19 20  1  0
 20 21  1  0
 21 22  1  0
 22 23  1  0
 22 24  1  0
 24 25  1  0
 24 26  1  0
 19 27  1  0
 27 28  1  6
 27 29  1  0
 29 30  1  0
 30 31  1  0
 31 32  1  6
  7  5  1  0
 31 10  1  0
 31 13  1  0
 27 15  1  0
 24 18  1  0
  1 33  1  0
  1 34  1  0
  1 35  1  0
  2 36  1  6
  3 37  1  0
  3 38  1  0
  4 39  1  0
  4 40  1  0
  5 41  1  1
  8 42  1  0
  8 43  1  0
  8 44  1  0
  9 45  1  0
  9 46  1  0
  9 47  1  0
 10 48  1  1
 11 49  1  0
 11 50  1  0
 12 51  1  0
 12 52  1  0
 14 53  1  0
 14 54  1  0
 14 55  1  0
 15 56  1  6
 16 57  1  0
 16 58  1  0
 17 59  1  0
 19 60  1  1
 20 61  1  0
 20 62  1  0
 21 63  1  0
 21 64  1  0
 22 65  1  1
 23 66  1  0
 25 67  1  0
 25 68  1  0
 25 69  1  0
 26 70  1  0
 26 71  1  0
 26 72  1  0
 28 73  1  0
 28 74  1  0
 28 75  1  0
 29 76  1  0
 29 77  1  0
 30 78  1  0
 30 79  1  0
 32 80  1  0
 32 81  1  0
 32 82  1  0
M  END
>  <meeko>  (5) 
{"is_sidechain": [false], "intermolecular_energy": 2.731, "internal_energy": -0.839}

$$$$
EPH_relaxed_0001_pdb2pqr_Repair_295_r2_0001_out
     RDKit          3D

 82 86  0  0  0  0  0  0  0  0999 V2000
    3.7350   17.6190    0.7260 C   0  0  0  0  0  0  0  0  0  0  0  0
    2.5980   17.8830   -0.2660 C   0  0  2  0  0  0  0  0  0  0  0  0
    1.8910   19.2260    0.0070 C   0  0  0  0  0  0  0  0  0  0  0  0
    1.8150   20.1410   -1.2180 C   0  0  0  0  0  0  0  0  0  0  0  0
    1.4630   19.3780   -2.4590 C   0  0  2  0  0  0  0  0  0  0  0  0
    1.1630   20.1940   -3.5990 O   0  0  0  0  0  0  0  0  0  0  0  0
    0.0830   19.3960   -3.0890 C   0  0  0  0  0  0  0  0  0  0  0  0
   -1.0360   20.1930   -2.4960 C   0  0  0  0  0  0  0  0  0  0  0  0
   -0.3070   18.2650   -3.9890 C   0  0  0  0  0  0  0  0  0  0  0  0
    1.5880   16.7430   -0.2150 C   0  0  1  0  0  0  0  0  0  0  0  0
    0.1300   17.2250   -0.4420 C   0  0  0  0  0  0  0  0  0  0  0  0
   -0.5970   16.1000   -1.2220 C   0  0  0  0  0  0  0  0  0  0  0  0
    0.3540   14.8840   -1.1290 C   0  0  1  0  0  0  0  0  0  0  0  0
    0.0740   14.2630    0.2760 C   0  0  0  0  0  0  0  0  0  0  0  0
    0.2270   13.8180   -2.2660 C   0  0  2  0  0  0  0  0  0  0  0  0
   -1.1380   13.1120   -2.3490 C   0  0  0  0  0  0  0  0  0  0  0  0
   -1.2570   11.8590   -1.5460 C   0  0  0  0  0  0  0  0  0  0  0  0
   -0.2290   11.1680   -1.0180 C   0  0  0  0  0  0  0  0  0  0  0  0
    1.2220   11.5820   -1.2910 C   0  0  1  0  0  0  0  0  0  0  0  0
    2.0560   10.3300   -1.6690 C   0  0  0  0  0  0  0  0  0  0  0  0
    1.9520    9.2210   -0.6260 C   0  0  0  0  0  0  0  0  0  0  0  0
    0.5000    8.7960   -0.4250 C   0  0  2  0  0  0  0  0  0  0  0  0
    0.0320    8.1720   -1.6240 O   0  0  0  0  0  0  0  0  0  0  0  0
   -0.4380    9.9770   -0.0490 C   0  0  0  0  0  0  0  0  0  0  0  0
   -0.1200   10.4580    1.3880 C   0  0  0  0  0  0  0  0  0  0  0  0
   -1.8940    9.4390   -0.0140 C   0  0  0  0  0  0  0  0  0  0  0  0
    1.4200   12.7800   -2.3170 C   0  0  1  0  0  0  0  0  0  0  0  0
    1.4670   12.2280   -3.7750 C   0  0  0  0  0  0  0  0  0  0  0  0
    2.8160   13.4580   -2.0530 C   0  0  0  0  0  0  0  0  0  0  0  0
    2.8530   14.5850   -1.0040 C   0  0  0  0  0  0  0  0  0  0  0  0
    1.7420   15.6090   -1.2590 C   0  0  2  0  0  0  0  0  0  0  0  0
    2.0100   16.2660   -2.6560 C   0  0  0  0  0  0  0  0  0  0  0  0
    3.3529   17.7077    1.7537 H   0  0  0  0  0  0  0  0  0  0  0  0
    4.1311   16.6050    0.5683 H   0  0  0  0  0  0  0  0  0  0  0  0
    4.5374   18.3547    0.5683 H   0  0  0  0  0  0  0  0  0  0  0  0
    3.0418   17.9410   -1.2708 H   0  0  0  0  0  0  0  0  0  0  0  0
    0.8664   19.0162    0.3480 H   0  0  0  0  0  0  0  0  0  0  0  0
    2.4860   19.7542    0.7666 H   0  0  0  0  0  0  0  0  0  0  0  0
    1.0475   20.9091   -1.0421 H   0  0  0  0  0  0  0  0  0  0  0  0
    2.8043   20.5987   -1.3660 H   0  0  0  0  0  0  0  0  0  0  0  0
    2.1315   18.5537   -2.1699 H   0  0  0  0  0  0  0  0  0  0  0  0
   -0.9754   20.1499   -1.3985 H   0  0  0  0  0  0  0  0  0  0  0  0
   -0.9565   21.2391   -2.8268 H   0  0  0  0  0  0  0  0  0  0  0  0
   -1.9986   19.7760   -2.8268 H   0  0  0  0  0  0  0  0  0  0  0  0
   -0.6058   17.3986   -3.3807 H   0  0  0  0  0  0  0  0  0  0  0  0
   -1.1500   18.5755   -4.6238 H   0  0  0  0  0  0  0  0  0  0  0  0
    0.5482   17.9899   -4.6238 H   0  0  0  0  0  0  0  0  0  0  0  0
    1.7972   16.3572    0.7936 H   0  0  0  0  0  0  0  0  0  0  0  0
   -0.3665   17.3978    0.5242 H   0  0  0  0  0  0  0  0  0  0  0  0
    0.1097   18.1710   -1.0030 H   0  0  0  0  0  0  0  0  0  0  0  0
   -1.5676   15.8704   -0.7580 H   0  0  0  0  0  0  0  0  0  0  0  0
   -0.8101   16.3845   -2.2630 H   0  0  0  0  0  0  0  0  0  0  0  0
    0.3918   14.9679    1.0584 H   0  0  0  0  0  0  0  0  0  0  0  0
   -1.0023   14.0610    0.3797 H   0  0  0  0  0  0  0  0  0  0  0  0
    0.6352   13.3226    0.3797 H   0  0  0  0  0  0  0  0  0  0  0  0
    0.3003   14.4325   -3.1754 H   0  0  0  0  0  0  0  0  0  0  0  0
   -1.9067   13.8157   -1.9971 H   0  0  0  0  0  0  0  0  0  0  0  0
   -1.2630   12.8131   -3.4002 H   0  0  0  0  0  0  0  0  0  0  0  0
   -2.2699   11.4673   -1.3709 H   0  0  0  0  0  0  0  0  0  0  0  0
    1.5979   12.0101   -0.3500 H   0  0  0  0  0  0  0  0  0  0  0  0
    1.6937    9.9428   -2.6328 H   0  0  0  0  0  0  0  0  0  0  0  0
    3.1109   10.6364   -1.7266 H   0  0  0  0  0  0  0  0  0  0  0  0
    2.5377    8.3532   -0.9635 H   0  0  0  0  0  0  0  0  0  0  0  0
    2.3425    9.6002    0.3299 H   0  0  0  0  0  0  0  0  0  0  0  0
    0.4759    8.0952    0.4225 H   0  0  0  0  0  0  0  0  0  0  0  0
   -0.1890    8.8780   -2.2560 H   0  0  0  0  0  0  0  0  0  0  0  0
   -0.5755    9.7690    2.1145 H   0  0  0  0  0  0  0  0  0  0  0  0
    0.9699   10.4780    1.5352 H   0  0  0  0  0  0  0  0  0  0  0  0
   -0.5285   11.4687    1.5352 H   0  0  0  0  0  0  0  0  0  0  0  0
   -2.2159    9.3200    1.0311 H   0  0  0  0  0  0  0  0  0  0  0  0
   -2.5601   10.1504   -0.5241 H   0  0  0  0  0  0  0  0  0  0  0  0
   -1.9375    8.4654   -0.5241 H   0  0  0  0  0  0  0  0  0  0  0  0
    1.5603   11.1323   -3.7494 H   0  0  0  0  0  0  0  0  0  0  0  0
    0.5420   12.5050   -4.3019 H   0  0  0  0  0  0  0  0  0  0  0  0
    2.3318   12.6574   -4.3019 H   0  0  0  0  0  0  0  0  0  0  0  0
    3.5104   12.6719   -1.7216 H   0  0  0  0  0  0  0  0  0  0  0  0
    3.0861   13.9406   -3.0038 H   0  0  0  0  0  0  0  0  0  0  0  0
    2.7179   14.1494   -0.0030 H   0  0  0  0  0  0  0  0  0  0  0  0
    3.8242   15.0969   -1.0735 H   0  0  0  0  0  0  0  0  0  0  0  0
    2.4220   17.2759   -2.5133 H   0  0  0  0  0  0  0  0  0  0  0  0
    2.7297   15.6524   -3.2177 H   0  0  0  0  0  0  0  0  0  0  0  0
    1.0665   16.3309   -3.2177 H   0  0  0  0  0  0  0  0  0  0  0  0
  1  2  1  0
  2  3  1  0
  3  4  1  0
  4  5  1  0
  5  6  1  0
  6  7  1  0
  7  8  1  0
  7  9  1  0
  2 10  1  0
 10 11  1  0
 11 12  1  0
 12 13  1  0
 13 14  1  1
 13 15  1  0
 15 16  1  0
 16 17  1  0
 17 18  2  0
 18 19  1  0
 19 20  1  0
 20 21  1  0
 21 22  1  0
 22 23  1  0
 22 24  1  0
 24 25  1  0
 24 26  1  0
 19 27  1  0
 27 28  1  6
 27 29  1  0
 29 30  1  0
 30 31  1  0
 31 32  1  6
  7  5  1  0
 31 10  1  0
 31 13  1  0
 27 15  1  0
 24 18  1  0
  1 33  1  0
  1 34  1  0
  1 35  1  0
  2 36  1  6
  3 37  1  0
  3 38  1  0
  4 39  1  0
  4 40  1  0
  5 41  1  6
  8 42  1  0
  8 43  1  0
  8 44  1  0
  9 45  1  0
  9 46  1  0
  9 47  1  0
 10 48  1  1
 11 49  1  0
 11 50  1  0
 12 51  1  0
 12 52  1  0
 14 53  1  0
 14 54  1  0
 14 55  1  0
 15 56  1  6
 16 57  1  0
 16 58  1  0
 17 59  1  0
 19 60  1  1
 20 61  1  0
 20 62  1  0
 21 63  1  0
 21 64  1  0
 22 65  1  1
 23 66  1  0
 25 67  1  0
 25 68  1  0
 25 69  1  0
 26 70  1  0
 26 71  1  0
 26 72  1  0
 28 73  1  0
 28 74  1  0
 28 75  1  0
 29 76  1  0
 29 77  1  0
 30 78  1  0
 30 79  1  0
 32 80  1  0
 32 81  1  0
 32 82  1  0
M  END
>  <meeko>  (6) 
{"is_sidechain": [false], "intermolecular_energy": 2.731, "internal_energy": -0.839}

$$$$
EPH_relaxed_0001_pdb2pqr_Repair_295_r2_0001_out
     RDKit          3D

 82 86  0  0  0  0  0  0  0  0999 V2000
    0.1950   18.2410    0.3900 C   0  0  0  0  0  0  0  0  0  0  0  0
    1.3600   17.3760   -0.1000 C   0  0  2  0  0  0  0  0  0  0  0  0
    2.3470   18.1740   -0.9760 C   0  0  0  0  0  0  0  0  0  0  0  0
    1.7200   19.3950   -1.6540 C   0  0  0  0  0  0  0  0  0  0  0  0
    1.1610   19.0560   -3.0020 C   0  0  2  0  0  0  0  0  0  0  0  0
    0.9080   20.1860   -3.8470 O   0  0  0  0  0  0  0  0  0  0  0  0
   -0.2430   19.4260   -3.4430 C   0  0  0  0  0  0  0  0  0  0  0  0
   -1.1750   20.1680   -2.5380 C   0  0  0  0  0  0  0  0  0  0  0  0
   -0.8720   18.6470   -4.5560 C   0  0  0  0  0  0  0  0  0  0  0  0
    0.8270   16.1770   -0.8750 C   0  0  1  0  0  0  0  0  0  0  0  0
    0.7720   16.4310   -2.4050 C   0  0  0  0  0  0  0  0  0  0  0  0
    1.0990   15.0820   -3.0950 C   0  0  0  0  0  0  0  0  0  0  0  0
    1.0040   14.0320   -1.9630 C   0  0  1  0  0  0  0  0  0  0  0  0
   -0.5220   13.7340   -1.8210 C   0  0  0  0  0  0  0  0  0  0  0  0
    1.8320   12.7220   -2.1650 C   0  0  2  0  0  0  0  0  0  0  0  0
    1.4240   11.8720   -3.3810 C   0  0  0  0  0  0  0  0  0  0  0  0
    0.3800   10.8380   -3.1140 C   0  0  0  0  0  0  0  0  0  0  0  0
   -0.0010   10.4060   -1.8980 C   0  0  0  0  0  0  0  0  0  0  0  0
    0.7080   10.9000   -0.6290 C   0  0  1  0  0  0  0  0  0  0  0  0
    1.0220    9.6920    0.2920 C   0  0  0  0  0  0  0  0  0  0  0  0
   -0.2160    8.8550    0.6020 C   0  0  0  0  0  0  0  0  0  0  0  0
   -0.8580    8.3350   -0.6810 C   0  0  2  0  0  0  0  0  0  0  0  0
    0.0330    7.3990   -1.2950 O   0  0  0  0  0  0  0  0  0  0  0  0
   -1.2110    9.4620   -1.6910 C   0  0  0  0  0  0  0  0  0  0  0  0
   -2.3930   10.3000   -1.1440 C   0  0  0  0  0  0  0  0  0  0  0  0
   -1.7200    8.7920   -2.9960 C   0  0  0  0  0  0  0  0  0  0  0  0
    1.9710   11.8360   -0.8610 C   0  0  1  0  0  0  0  0  0  0  0  0
    3.2510   10.9650   -1.0480 C   0  0  0  0  0  0  0  0  0  0  0  0
    2.2100   12.7050    0.4300 C   0  0  0  0  0  0  0  0  0  0  0  0
    1.4550   14.0450    0.5160 C   0  0  0  0  0  0  0  0  0  0  0  0
    1.6240   14.8530   -0.7740 C   0  0  2  0  0  0  0  0  0  0  0  0
    3.1470   15.1870   -0.9330 C   0  0  0  0  0  0  0  0  0  0  0  0
    0.1825   18.2503    1.4899 H   0  0  0  0  0  0  0  0  0  0  0  0
    0.3183   19.2681    0.0160 H   0  0  0  0  0  0  0  0  0  0  0  0
   -0.7525   17.8259    0.0160 H   0  0  0  0  0  0  0  0  0  0  0  0
    1.9113   17.0298    0.7867 H   0  0  0  0  0  0  0  0  0  0  0  0
    3.1762   18.5176   -0.3401 H   0  0  0  0  0  0  0  0  0  0  0  0
    2.6838   17.4993   -1.7769 H   0  0  0  0  0  0  0  0  0  0  0  0
    0.9084   19.7781   -1.0179 H   0  0  0  0  0  0  0  0  0  0  0  0
    2.5061   20.1523   -1.7901 H   0  0  0  0  0  0  0  0  0  0  0  0
    1.7121   18.1041   -3.0169 H   0  0  0  0  0  0  0  0  0  0  0  0
   -0.9126   19.9591   -1.4904 H   0  0  0  0  0  0  0  0  0  0  0  0
   -1.0894   21.2479   -2.7291 H   0  0  0  0  0  0  0  0  0  0  0  0
   -2.2082   19.8426   -2.7291 H   0  0  0  0  0  0  0  0  0  0  0  0
   -1.5104   17.8563   -4.1350 H   0  0  0  0  0  0  0  0  0  0  0  0
   -1.4827   19.3204   -5.1754 H   0  0  0  0  0  0  0  0  0  0  0  0
   -0.0851   18.1919   -5.1754 H   0  0  0  0  0  0  0  0  0  0  0  0
   -0.1528   16.0641   -0.3879 H   0  0  0  0  0  0  0  0  0  0  0  0
   -0.2325   16.7717   -2.6964 H   0  0  0  0  0  0  0  0  0  0  0  0
    1.4894   17.2102   -2.7018 H   0  0  0  0  0  0  0  0  0  0  0  0
    0.3690   14.8647   -3.8886 H   0  0  0  0  0  0  0  0  0  0  0  0
    2.0881   15.0884   -3.5763 H   0  0  0  0  0  0  0  0  0  0  0  0
   -0.7878   13.6821   -0.7549 H   0  0  0  0  0  0  0  0  0  0  0  0
   -1.0988   14.5365   -2.3040 H   0  0  0  0  0  0  0  0  0  0  0  0
   -0.7545   12.7735   -2.3040 H   0  0  0  0  0  0  0  0  0  0  0  0
    2.8348   13.1106   -2.3960 H   0  0  0  0  0  0  0  0  0  0  0  0
    1.0399   12.5506   -4.1568 H   0  0  0  0  0  0  0  0  0  0  0  0
    2.3268   11.3220   -3.6851 H   0  0  0  0  0  0  0  0  0  0  0  0
   -0.1202   10.3914   -3.9860 H   0  0  0  0  0  0  0  0  0  0  0  0
   -0.0001   11.5765   -0.1280 H   0  0  0  0  0  0  0  0  0  0  0  0
    1.7645    9.0519   -0.2069 H   0  0  0  0  0  0  0  0  0  0  0  0
    1.4039   10.0886    1.2443 H   0  0  0  0  0  0  0  0  0  0  0  0
    0.0752    8.0007    1.2307 H   0  0  0  0  0  0  0  0  0  0  0  0
   -0.9455    9.4885    1.1279 H   0  0  0  0  0  0  0  0  0  0  0  0
   -1.8084    7.8556   -0.4035 H   0  0  0  0  0  0  0  0  0  0  0  0
    0.4290    6.8620   -0.5890 H   0  0  0  0  0  0  0  0  0  0  0  0
   -2.3740   10.2865   -0.0442 H   0  0  0  0  0  0  0  0  0  0  0  0
   -2.3028   11.3370   -1.4996 H   0  0  0  0  0  0  0  0  0  0  0  0
   -3.3417    9.8716   -1.4996 H   0  0  0  0  0  0  0  0  0  0  0  0
   -2.3675    7.9397   -2.7422 H   0  0  0  0  0  0  0  0  0  0  0  0
   -2.2917    9.5241   -3.5852 H   0  0  0  0  0  0  0  0  0  0  0  0
   -0.8614    8.4375   -3.5852 H   0  0  0  0  0  0  0  0  0  0  0  0
    3.6548   10.6903   -0.0624 H   0  0  0  0  0  0  0  0  0  0  0  0
    2.9953   10.0527   -1.6068 H   0  0  0  0  0  0  0  0  0  0  0  0
    4.0058   11.5377   -1.6068 H   0  0  0  0  0  0  0  0  0  0  0  0
    1.9123   12.0992    1.2985 H   0  0  0  0  0  0  0  0  0  0  0  0
    3.2755   12.9768    0.4003 H   0  0  0  0  0  0  0  0  0  0  0  0
    0.3855   13.8457    0.6783 H   0  0  0  0  0  0  0  0  0  0  0  0
    1.8691   14.6280    1.3519 H   0  0  0  0  0  0  0  0  0  0  0  0
    3.6061   15.2877    0.0615 H   0  0  0  0  0  0  0  0  0  0  0  0
    3.6443   14.3766   -1.4861 H   0  0  0  0  0  0  0  0  0  0  0  0
    3.2595   16.1312   -1.4861 H   0  0  0  0  0  0  0  0  0  0  0  0
  1  2  1  0
  2  3  1  0
  3  4  1  0
  4  5  1  0
  5  6  1  0
  6  7  1  0
  7  8  1  0
  7  9  1  0
  2 10  1  0
 10 11  1  0
 11 12  1  0
 12 13  1  0
 13 14  1  1
 13 15  1  0
 15 16  1  0
 16 17  1  0
 17 18  2  0
 18 19  1  0
 19 20  1  0
 20 21  1  0
 21 22  1  0
 22 23  1  0
 22 24  1  0
 24 25  1  0
 24 26  1  0
 19 27  1  0
 27 28  1  6
 27 29  1  0
 29 30  1  0
 30 31  1  0
 31 32  1  6
  7  5  1  0
 31 10  1  0
 31 13  1  0
 27 15  1  0
 24 18  1  0
  1 33  1  0
  1 34  1  0
  1 35  1  0
  2 36  1  1
  3 37  1  0
  3 38  1  0
  4 39  1  0
  4 40  1  0
  5 41  1  6
  8 42  1  0
  8 43  1  0
  8 44  1  0
  9 45  1  0
  9 46  1  0
  9 47  1  0
 10 48  1  1
 11 49  1  0
 11 50  1  0
 12 51  1  0
 12 52  1  0
 14 53  1  0
 14 54  1  0
 14 55  1  0
 15 56  1  6
 16 57  1  0
 16 58  1  0
 17 59  1  0
 19 60  1  1
 20 61  1  0
 20 62  1  0
 21 63  1  0
 21 64  1  0
 22 65  1  1
 23 66  1  0
 25 67  1  0
 25 68  1  0
 25 69  1  0
 26 70  1  0
 26 71  1  0
 26 72  1  0
 28 73  1  0
 28 74  1  0
 28 75  1  0
 29 76  1  0
 29 77  1  0
 30 78  1  0
 30 79  1  0
 32 80  1  0
 32 81  1  0
 32 82  1  0
M  END
>  <meeko>  (7) 
{"is_sidechain": [false], "intermolecular_energy": 2.731, "internal_energy": -0.839}

$$$$
EPH_relaxed_0001_pdb2pqr_Repair_295_r2_0001_out
     RDKit          3D

 82 86  0  0  0  0  0  0  0  0999 V2000
    3.7190   17.4680    0.3720 C   0  0  0  0  0  0  0  0  0  0  0  0
    2.7360   17.7180   -0.7750 C   0  0  2  0  0  0  0  0  0  0  0  0
    2.0880   19.1150   -0.6900 C   0  0  0  0  0  0  0  0  0  0  0  0
    1.3120   19.3550    0.6080 C   0  0  0  0  0  0  0  0  0  0  0  0
    0.0140   20.0610    0.3550 C   0  0  2  0  0  0  0  0  0  0  0  0
   -0.8300   20.1940    1.5060 O   0  0  0  0  0  0  0  0  0  0  0  0
   -1.3390   19.3800    0.4380 C   0  0  0  0  0  0  0  0  0  0  0  0
   -1.4630   17.9290    0.7840 C   0  0  0  0  0  0  0  0  0  0  0  0
   -2.4950   19.9940   -0.2890 C   0  0  0  0  0  0  0  0  0  0  0  0
    1.6570   16.6420   -0.7780 C   0  0  1  0  0  0  0  0  0  0  0  0
    0.3200   17.1390   -1.3890 C   0  0  0  0  0  0  0  0  0  0  0  0
   -0.3070   15.9320   -2.1340 C   0  0  0  0  0  0  0  0  0  0  0  0
    0.5100   14.7100   -1.6530 C   0  0  1  0  0  0  0  0  0  0  0  0
   -0.1050   14.3360   -0.2680 C   0  0  0  0  0  0  0  0  0  0  0  0
    0.5470   13.4810   -2.6180 C   0  0  2  0  0  0  0  0  0  0  0  0
   -0.8180   12.8250   -2.8930 C   0  0  0  0  0  0  0  0  0  0  0  0
   -1.1950   11.7240   -1.9590 C   0  0  0  0  0  0  0  0  0  0  0  0
   -0.3570   11.0870   -1.1200 C   0  0  0  0  0  0  0  0  0  0  0  0
    1.1460   11.3940   -1.1260 C   0  0  1  0  0  0  0  0  0  0  0  0
    1.9460   10.0650   -1.1210 C   0  0  0  0  0  0  0  0  0  0  0  0
    1.5430    9.1440    0.0270 C   0  0  0  0  0  0  0  0  0  0  0  0
    0.0540    8.8150   -0.0350 C   0  0  2  0  0  0  0  0  0  0  0  0
   -0.1950    8.0250   -1.2010 O   0  0  0  0  0  0  0  0  0  0  0  0
   -0.8520   10.0780   -0.0550 C   0  0  0  0  0  0  0  0  0  0  0  0
   -0.8090   10.7720    1.3290 C   0  0  0  0  0  0  0  0  0  0  0  0
   -2.3180    9.6100   -0.2610 C   0  0  0  0  0  0  0  0  0  0  0  0
    1.6440   12.4010   -2.2510 C   0  0  1  0  0  0  0  0  0  0  0  0
    1.9570   11.6200   -3.5640 C   0  0  0  0  0  0  0  0  0  0  0  0
    2.9990   13.0570   -1.7900 C   0  0  0  0  0  0  0  0  0  0  0  0
    2.8970   14.3370   -0.9390 C   0  0  0  0  0  0  0  0  0  0  0  0
    1.9440   15.3490   -1.5820 C   0  0  2  0  0  0  0  0  0  0  0  0
    2.5480   15.7610   -2.9680 C   0  0  0  0  0  0  0  0  0  0  0  0
    3.2015   17.5996    1.3337 H   0  0  0  0  0  0  0  0  0  0  0  0
    4.1095   16.4420    0.3032 H   0  0  0  0  0  0  0  0  0  0  0  0
    4.5522   18.1828    0.3032 H   0  0  0  0  0  0  0  0  0  0  0  0
    3.3057   17.6754   -1.7150 H   0  0  0  0  0  0  0  0  0  0  0  0
    2.8828   19.8717   -0.7645 H   0  0  0  0  0  0  0  0  0  0  0  0
    1.3640   19.1846   -1.5152 H   0  0  0  0  0  0  0  0  0  0  0  0
    1.1036   18.3852    1.0834 H   0  0  0  0  0  0  0  0  0  0  0  0
    1.9264   19.9907    1.2625 H   0  0  0  0  0  0  0  0  0  0  0  0
    0.4790   20.6865   -0.4213 H   0  0  0  0  0  0  0  0  0  0  0  0
   -1.4730   17.8124    1.8778 H   0  0  0  0  0  0  0  0  0  0  0  0
   -2.3985   17.5306    0.3643 H   0  0  0  0  0  0  0  0  0  0  0  0
   -0.6087   17.3777    0.3643 H   0  0  0  0  0  0  0  0  0  0  0  0
   -3.2228   20.3806    0.4396 H   0  0  0  0  0  0  0  0  0  0  0  0
   -2.1344   20.8195   -0.9204 H   0  0  0  0  0  0  0  0  0  0  0  0
   -2.9770   19.2331   -0.9204 H   0  0  0  0  0  0  0  0  0  0  0  0
    1.6195   16.4153    0.2977 H   0  0  0  0  0  0  0  0  0  0  0  0
   -0.3552   17.4849   -0.5924 H   0  0  0  0  0  0  0  0  0  0  0  0
    0.4883   17.9825   -2.0747 H   0  0  0  0  0  0  0  0  0  0  0  0
   -1.3681   15.8193   -1.8669 H   0  0  0  0  0  0  0  0  0  0  0  0
   -0.2731   16.0527   -3.2268 H   0  0  0  0  0  0  0  0  0  0  0  0
    0.5368   14.7263    0.5356 H   0  0  0  0  0  0  0  0  0  0  0  0
   -1.1093   14.7765   -0.1818 H   0  0  0  0  0  0  0  0  0  0  0  0
   -0.1759   13.2417   -0.1818 H   0  0  0  0  0  0  0  0  0  0  0  0
    0.8554   13.9384   -3.5697 H   0  0  0  0  0  0  0  0  0  0  0  0
   -1.5899   13.6059   -2.8273 H   0  0  0  0  0  0  0  0  0  0  0  0
   -0.7401   12.3658   -3.8895 H   0  0  0  0  0  0  0  0  0  0  0  0
   -2.2479   11.4057   -1.9558 H   0  0  0  0  0  0  0  0  0  0  0  0
    1.3453   11.9537   -0.2002 H   0  0  0  0  0  0  0  0  0  0  0  0
    1.7671    9.5421   -2.0721 H   0  0  0  0  0  0  0  0  0  0  0  0
    3.0091   10.3156   -0.9907 H   0  0  0  0  0  0  0  0  0  0  0  0
    2.1211    8.2106   -0.0403 H   0  0  0  0  0  0  0  0  0  0  0  0
    1.7501    9.6568    0.9779 H   0  0  0  0  0  0  0  0  0  0  0  0
   -0.2004    8.2616    0.8810 H   0  0  0  0  0  0  0  0  0  0  0  0
   -0.1800    7.0910   -0.9320 H   0  0  0  0  0  0  0  0  0  0  0  0
   -0.8561   10.0114    2.1222 H   0  0  0  0  0  0  0  0  0  0  0  0
    0.1263   11.3432    1.4238 H   0  0  0  0  0  0  0  0  0  0  0  0
   -1.6666   11.4543    1.4238 H   0  0  0  0  0  0  0  0  0  0  0  0
   -2.7953    9.4576    0.7183 H   0  0  0  0  0  0  0  0  0  0  0  0
   -2.8718   10.3760   -0.8236 H   0  0  0  0  0  0  0  0  0  0  0  0
   -2.3255    8.6648   -0.8236 H   0  0  0  0  0  0  0  0  0  0  0  0
    2.3554   10.6258   -3.3132 H   0  0  0  0  0  0  0  0  0  0  0  0
    1.0345   11.5075   -4.1525 H   0  0  0  0  0  0  0  0  0  0  0  0
    2.7019   12.1757   -4.1525 H   0  0  0  0  0  0  0  0  0  0  0  0
    3.5475   12.3080   -1.2000 H   0  0  0  0  0  0  0  0  0  0  0  0
    3.4988   13.3683   -2.7192 H   0  0  0  0  0  0  0  0  0  0  0  0
    2.5220   14.0750    0.0613 H   0  0  0  0  0  0  0  0  0  0  0  0
    3.8961   14.7919   -0.8690 H   0  0  0  0  0  0  0  0  0  0  0  0
    3.4471   16.3743   -2.8084 H   0  0  0  0  0  0  0  0  0  0  0  0
    2.8166   14.8570   -3.5343 H   0  0  0  0  0  0  0  0  0  0  0  0
    1.8043   16.3409   -3.5343 H   0  0  0  0  0  0  0  0  0  0  0  0
  1  2  1  0
  2  3  1  0
  3  4  1  0
  4  5  1  0
  5  6  1  0
  6  7  1  0
  7  8  1  0
  7  9  1  0
  2 10  1  0
 10 11  1  0
 11 12  1  0
 12 13  1  0
 13 14  1  1
 13 15  1  0
 15 16  1  0
 16 17  1  0
 17 18  2  0
 18 19  1  0
 19 20  1  0
 20 21  1  0
 21 22  1  0
 22 23  1  0
 22 24  1  0
 24 25  1  0
 24 26  1  0
 19 27  1  0
 27 28  1  6
 27 29  1  0
 29 30  1  0
 30 31  1  0
 31 32  1  6
  7  5  1  0
 31 10  1  0
 31 13  1  0
 27 15  1  0
 24 18  1  0
  1 33  1  0
  1 34  1  0
  1 35  1  0
  2 36  1  6
  3 37  1  0
  3 38  1  0
  4 39  1  0
  4 40  1  0
  5 41  1  6
  8 42  1  0
  8 43  1  0
  8 44  1  0
  9 45  1  0
  9 46  1  0
  9 47  1  0
 10 48  1  1
 11 49  1  0
 11 50  1  0
 12 51  1  0
 12 52  1  0
 14 53  1  0
 14 54  1  0
 14 55  1  0
 15 56  1  6
 16 57  1  0
 16 58  1  0
 17 59  1  0
 19 60  1  1
 20 61  1  0
 20 62  1  0
 21 63  1  0
 21 64  1  0
 22 65  1  1
 23 66  1  0
 25 67  1  0
 25 68  1  0
 25 69  1  0
 26 70  1  0
 26 71  1  0
 26 72  1  0
 28 73  1  0
 28 74  1  0
 28 75  1  0
 29 76  1  0
 29 77  1  0
 30 78  1  0
 30 79  1  0
 32 80  1  0
 32 81  1  0
 32 82  1  0
M  END
>  <meeko>  (8) 
{"is_sidechain": [false], "intermolecular_energy": 2.731, "internal_energy": -0.839}

$$$$
EPH_relaxed_0001_pdb2pqr_Repair_295_r2_0001_out
     RDKit          3D

 82 86  0  0  0  0  0  0  0  0999 V2000
    0.4380    8.9670   -2.2850 C   0  0  0  0  0  0  0  0  0  0  0  0
    1.1940   10.0690   -3.0320 C   0  0  2  0  0  0  0  0  0  0  0  0
    2.6880   10.1090   -2.6500 C   0  0  0  0  0  0  0  0  0  0  0  0
    3.5990   10.5950   -3.7800 C   0  0  0  0  0  0  0  0  0  0  0  0
    4.9970   10.8400   -3.2970 C   0  0  2  0  0  0  0  0  0  0  0  0
    5.5860   12.0610   -3.7650 O   0  0  0  0  0  0  0  0  0  0  0  0
    6.2080   10.8460   -4.2110 C   0  0  0  0  0  0  0  0  0  0  0  0
    6.0780   10.6000   -5.6810 C   0  0  0  0  0  0  0  0  0  0  0  0
    7.5580   10.6050   -3.6110 C   0  0  0  0  0  0  0  0  0  0  0  0
    0.5490   11.4210   -2.7560 C   0  0  1  0  0  0  0  0  0  0  0  0
   -0.8490   11.2920   -2.0950 C   0  0  0  0  0  0  0  0  0  0  0  0
   -0.9930   12.4860   -1.1160 C   0  0  0  0  0  0  0  0  0  0  0  0
    0.1700   13.4360   -1.4850 C   0  0  1  0  0  0  0  0  0  0  0  0
   -0.3410   14.2300   -2.7280 C   0  0  0  0  0  0  0  0  0  0  0  0
    0.6670   14.3920   -0.3530 C   0  0  2  0  0  0  0  0  0  0  0  0
   -0.3780   15.4010    0.1550 C   0  0  0  0  0  0  0  0  0  0  0  0
   -0.3980   16.7120   -0.5580 C   0  0  0  0  0  0  0  0  0  0  0  0
    0.5700   17.1750   -1.3700 C   0  0  0  0  0  0  0  0  0  0  0  0
    1.8770   16.3950   -1.5630 C   0  0  1  0  0  0  0  0  0  0  0  0
    3.0820   17.3660   -1.4470 C   0  0  0  0  0  0  0  0  0  0  0  0
    2.9670   18.5560   -2.3950 C   0  0  0  0  0  0  0  0  0  0  0  0
    1.6840   19.3400   -2.1330 C   0  0  2  0  0  0  0  0  0  0  0  0
    1.7710   19.9480   -0.8410 O   0  0  0  0  0  0  0  0  0  0  0  0
    0.4030   18.4630   -2.2130 C   0  0  0  0  0  0  0  0  0  0  0  0
    0.1450   18.0510   -3.6840 C   0  0  0  0  0  0  0  0  0  0  0  0
   -0.8040   19.3430   -1.7910 C   0  0  0  0  0  0  0  0  0  0  0  0
    2.0500   15.0980   -0.6610 C   0  0  1  0  0  0  0  0  0  0  0  0
    2.6680   15.4860    0.7160 C   0  0  0  0  0  0  0  0  0  0  0  0
    3.0770   14.1250   -1.3510 C   0  0  0  0  0  0  0  0  0  0  0  0
    2.5070   13.1230   -2.3730 C   0  0  0  0  0  0  0  0  0  0  0  0
    1.2950   12.3830   -1.7980 C   0  0  2  0  0  0  0  0  0  0  0  0
    1.7830   11.5570   -0.5590 C   0  0  0  0  0  0  0  0  0  0  0  0
    0.5432    9.1203   -1.2008 H   0  0  0  0  0  0  0  0  0  0  0  0
   -0.6268    9.0025   -2.5587 H   0  0  0  0  0  0  0  0  0  0  0  0
    0.8544    7.9864   -2.5587 H   0  0  0  0  0  0  0  0  0  0  0  0
    1.1339    9.8419   -4.1066 H   0  0  0  0  0  0  0  0  0  0  0  0
    2.8089   10.7855   -1.7911 H   0  0  0  0  0  0  0  0  0  0  0  0
    2.9880    9.0768   -2.4165 H   0  0  0  0  0  0  0  0  0  0  0  0
    3.6237    9.8316   -4.5716 H   0  0  0  0  0  0  0  0  0  0  0  0
    3.1961   11.5447   -4.1616 H   0  0  0  0  0  0  0  0  0  0  0  0
    4.7882   10.3173   -2.3519 H   0  0  0  0  0  0  0  0  0  0  0  0
    5.5700    9.6388   -5.8484 H   0  0  0  0  0  0  0  0  0  0  0  0
    5.4901   11.4098   -6.1377 H   0  0  0  0  0  0  0  0  0  0  0  0
    7.0783   10.5705   -6.1377 H   0  0  0  0  0  0  0  0  0  0  0  0
    7.4795   10.6190   -2.5139 H   0  0  0  0  0  0  0  0  0  0  0  0
    7.9355    9.6253   -3.9391 H   0  0  0  0  0  0  0  0  0  0  0  0
    8.2512   11.3936   -3.9391 H   0  0  0  0  0  0  0  0  0  0  0  0
    0.5441   11.8341   -3.7755 H   0  0  0  0  0  0  0  0  0  0  0  0
   -1.6361   11.3342   -2.8623 H   0  0  0  0  0  0  0  0  0  0  0  0
   -0.9485   10.3330   -1.5655 H   0  0  0  0  0  0  0  0  0  0  0  0
   -1.9624   12.9870   -1.2546 H   0  0  0  0  0  0  0  0  0  0  0  0
   -0.9546   12.1691   -0.0633 H   0  0  0  0  0  0  0  0  0  0  0  0
   -0.9080   15.1110   -2.3926 H   0  0  0  0  0  0  0  0  0  0  0  0
    0.5177   14.5553   -3.3336 H   0  0  0  0  0  0  0  0  0  0  0  0
   -0.9928   13.5832   -3.3336 H   0  0  0  0  0  0  0  0  0  0  0  0
    0.8420   13.6974    0.4818 H   0  0  0  0  0  0  0  0  0  0  0  0
   -1.3723   14.9422    0.0506 H   0  0  0  0  0  0  0  0  0  0  0  0
   -0.1033   15.6252    1.1963 H   0  0  0  0  0  0  0  0  0  0  0  0
   -1.2784   17.3540   -0.4070 H   0  0  0  0  0  0  0  0  0  0  0  0
    1.8328   15.9746   -2.5785 H   0  0  0  0  0  0  0  0  0  0  0  0
    3.1344   17.7414   -0.4144 H   0  0  0  0  0  0  0  0  0  0  0  0
    3.9891   16.8071   -1.7207 H   0  0  0  0  0  0  0  0  0  0  0  0
    3.8313   19.2198   -2.2460 H   0  0  0  0  0  0  0  0  0  0  0  0
    2.9442   18.1805   -3.4287 H   0  0  0  0  0  0  0  0  0  0  0  0
    1.5940   20.0992   -2.9239 H   0  0  0  0  0  0  0  0  0  0  0  0
    2.4440   20.6480   -0.8900 H   0  0  0  0  0  0  0  0  0  0  0  0
   -0.4387   17.1189   -3.7067 H   0  0  0  0  0  0  0  0  0  0  0  0
   -0.4160   18.8475   -4.1949 H   0  0  0  0  0  0  0  0  0  0  0  0
    1.1065   17.8941   -4.1949 H   0  0  0  0  0  0  0  0  0  0  0  0
   -0.8613   19.3848   -0.6933 H   0  0  0  0  0  0  0  0  0  0  0  0
   -0.6739   20.3597   -2.1903 H   0  0  0  0  0  0  0  0  0  0  0  0
   -1.7322   18.9082   -2.1903 H   0  0  0  0  0  0  0  0  0  0  0  0
    2.0373   15.0900    1.5256 H   0  0  0  0  0  0  0  0  0  0  0  0
    3.6790   15.0603    0.7972 H   0  0  0  0  0  0  0  0  0  0  0  0
    2.7239   16.5816    0.7972 H   0  0  0  0  0  0  0  0  0  0  0  0
    3.8227   14.7435   -1.8719 H   0  0  0  0  0  0  0  0  0  0  0  0
    3.4792   13.5062   -0.5354 H   0  0  0  0  0  0  0  0  0  0  0  0
    2.2000   13.6675   -3.2781 H   0  0  0  0  0  0  0  0  0  0  0  0
    3.2868   12.3853   -2.6134 H   0  0  0  0  0  0  0  0  0  0  0  0
    1.4801   12.0697    0.3659 H   0  0  0  0  0  0  0  0  0  0  0  0
    1.3325   10.5539   -0.5866 H   0  0  0  0  0  0  0  0  0  0  0  0
    2.8790   11.4676   -0.5866 H   0  0  0  0  0  0  0  0  0  0  0  0
  1  2  1  0
  2  3  1  0
  3  4  1  0
  4  5  1  0
  5  6  1  0
  6  7  1  0
  7  8  1  0
  7  9  1  0
  2 10  1  0
 10 11  1  0
 11 12  1  0
 12 13  1  0
 13 14  1  6
 13 15  1  0
 15 16  1  0
 16 17  1  0
 17 18  2  0
 18 19  1  0
 19 20  1  0
 20 21  1  0
 21 22  1  0
 22 23  1  0
 22 24  1  0
 24 25  1  0
 24 26  1  0
 19 27  1  0
 27 28  1  1
 27 29  1  0
 29 30  1  0
 30 31  1  0
 31 32  1  1
  7  5  1  0
 31 10  1  0
 31 13  1  0
 27 15  1  0
 24 18  1  0
  1 33  1  0
  1 34  1  0
  1 35  1  0
  2 36  1  6
  3 37  1  0
  3 38  1  0
  4 39  1  0
  4 40  1  0
  5 41  1  1
  8 42  1  0
  8 43  1  0
  8 44  1  0
  9 45  1  0
  9 46  1  0
  9 47  1  0
 10 48  1  6
 11 49  1  0
 11 50  1  0
 12 51  1  0
 12 52  1  0
 14 53  1  0
 14 54  1  0
 14 55  1  0
 15 56  1  1
 16 57  1  0
 16 58  1  0
 17 59  1  0
 19 60  1  6
 20 61  1  0
 20 62  1  0
 21 63  1  0
 21 64  1  0
 22 65  1  6
 23 66  1  0
 25 67  1  0
 25 68  1  0
 25 69  1  0
 26 70  1  0
 26 71  1  0
 26 72  1  0
 28 73  1  0
 28 74  1  0
 28 75  1  0
 29 76  1  0
 29 77  1  0
 30 78  1  0
 30 79  1  0
 32 80  1  0
 32 81  1  0
 32 82  1  0
M  END
>  <meeko>  (9) 
{"is_sidechain": [false], "intermolecular_energy": 2.731, "internal_energy": -0.839}

$$$$
EPH_relaxed_0001_pdb2pqr_Repair_295_r2_0001_out
     RDKit          3D

 82 86  0  0  0  0  0  0  0  0999 V2000
   -5.1800    5.7990   -1.6250 C   0  0  0  0  0  0  0  0  0  0  0  0
   -5.4480    7.3030   -1.7220 C   0  0  2  0  0  0  0  0  0  0  0  0
   -5.2170    8.0220   -0.3770 C   0  0  0  0  0  0  0  0  0  0  0  0
   -4.1780    9.1440   -0.4500 C   0  0  0  0  0  0  0  0  0  0  0  0
   -2.8160    8.6180   -0.7900 C   0  0  2  0  0  0  0  0  0  0  0  0
   -1.7960    8.9360    0.1650 O   0  0  0  0  0  0  0  0  0  0  0  0
   -1.6400    9.5080   -1.1440 C   0  0  0  0  0  0  0  0  0  0  0  0
   -1.7710   10.9980   -1.1760 C   0  0  0  0  0  0  0  0  0  0  0  0
   -0.5080    8.9200   -1.9280 C   0  0  0  0  0  0  0  0  0  0  0  0
   -6.8730    7.5470   -2.2040 C   0  0  1  0  0  0  0  0  0  0  0  0
   -7.1690    6.8620   -3.5650 C   0  0  0  0  0  0  0  0  0  0  0  0
   -8.6490    6.4040   -3.5240 C   0  0  0  0  0  0  0  0  0  0  0  0
   -9.2460    7.1250   -2.2920 C   0  0  1  0  0  0  0  0  0  0  0  0
   -9.5750    8.5670   -2.7920 C   0  0  0  0  0  0  0  0  0  0  0  0
  -10.4890    6.4470   -1.6290 C   0  0  2  0  0  0  0  0  0  0  0  0
  -11.7310    6.3390   -2.5300 C   0  0  0  0  0  0  0  0  0  0  0  0
  -12.6740    7.4940   -2.4560 C   0  0  0  0  0  0  0  0  0  0  0  0
  -12.6820    8.4380   -1.4970 C   0  0  0  0  0  0  0  0  0  0  0  0
  -11.7350    8.3450   -0.2930 C   0  0  1  0  0  0  0  0  0  0  0  0
  -12.5270    8.6250    1.0110 C   0  0  0  0  0  0  0  0  0  0  0  0
  -13.2820    9.9500    0.9640 C   0  0  0  0  0  0  0  0  0  0  0  0
  -14.2550    9.9820   -0.2120 C   0  0  2  0  0  0  0  0  0  0  0  0
  -15.2860    9.0160    0.0170 O   0  0  0  0  0  0  0  0  0  0  0  0
  -13.5720    9.7020   -1.5800 C   0  0  0  0  0  0  0  0  0  0  0  0
  -12.6750   10.9040   -1.9690 C   0  0  0  0  0  0  0  0  0  0  0  0
  -14.6830    9.6230   -2.6610 C   0  0  0  0  0  0  0  0  0  0  0  0
  -10.8570    7.0230   -0.2020 C   0  0  1  0  0  0  0  0  0  0  0  0
  -11.6540    5.9050    0.5370 C   0  0  0  0  0  0  0  0  0  0  0  0
   -9.5820    7.3120    0.6740 C   0  0  0  0  0  0  0  0  0  0  0  0
   -8.3470    7.8690   -0.0590 C   0  0  0  0  0  0  0  0  0  0  0  0
   -8.0260    7.0360   -1.3040 C   0  0  2  0  0  0  0  0  0  0  0  0
   -7.6700    5.5860   -0.8310 C   0  0  0  0  0  0  0  0  0  0  0  0
   -5.1273    5.5034   -0.5668 H   0  0  0  0  0  0  0  0  0  0  0  0
   -5.9943    5.2488   -2.1193 H   0  0  0  0  0  0  0  0  0  0  0  0
   -4.2258    5.5640   -2.1193 H   0  0  0  0  0  0  0  0  0  0  0  0
   -4.7335    7.7202   -2.4469 H   0  0  0  0  0  0  0  0  0  0  0  0
   -6.1726    8.4545   -0.0457 H   0  0  0  0  0  0  0  0  0  0  0  0
   -4.8301    7.2706    0.3271 H   0  0  0  0  0  0  0  0  0  0  0  0
   -4.4850    9.8642   -1.2227 H   0  0  0  0  0  0  0  0  0  0  0  0
   -4.1229    9.6247    0.5379 H   0  0  0  0  0  0  0  0  0  0  0  0
   -3.2537    7.7409   -1.2891 H   0  0  0  0  0  0  0  0  0  0  0  0
   -1.8050   11.3853   -0.1470 H   0  0  0  0  0  0  0  0  0  0  0  0
   -0.9074   11.4308   -1.7023 H   0  0  0  0  0  0  0  0  0  0  0  0
   -2.6968   11.2735   -1.7023 H   0  0  0  0  0  0  0  0  0  0  0  0
    0.2511    8.5257   -1.2364 H   0  0  0  0  0  0  0  0  0  0  0  0
   -0.8857    8.1041   -2.5618 H   0  0  0  0  0  0  0  0  0  0  0  0
   -0.0577    9.6982   -2.5618 H   0  0  0  0  0  0  0  0  0  0  0  0
   -6.8732    8.6467   -2.2280 H   0  0  0  0  0  0  0  0  0  0  0  0
   -7.0160    7.5747   -4.3888 H   0  0  0  0  0  0  0  0  0  0  0  0
   -6.4962    6.0078   -3.7312 H   0  0  0  0  0  0  0  0  0  0  0  0
   -9.1743    6.7048   -4.4425 H   0  0  0  0  0  0  0  0  0  0  0  0
   -8.7458    5.3104   -3.4551 H   0  0  0  0  0  0  0  0  0  0  0  0
   -9.7261    9.2295   -1.9270 H   0  0  0  0  0  0  0  0  0  0  0  0
   -8.7397    8.9435   -3.4007 H   0  0  0  0  0  0  0  0  0  0  0  0
  -10.4910    8.5440   -3.4007 H   0  0  0  0  0  0  0  0  0  0  0  0
  -10.1414    5.4147   -1.4758 H   0  0  0  0  0  0  0  0  0  0  0  0
  -11.3887    6.2457   -3.5712 H   0  0  0  0  0  0  0  0  0  0  0  0
  -12.2925    5.4638   -2.1712 H   0  0  0  0  0  0  0  0  0  0  0  0
  -13.4266    7.5808   -3.2535 H   0  0  0  0  0  0  0  0  0  0  0  0
  -10.9745    9.1255   -0.4428 H   0  0  0  0  0  0  0  0  0  0  0  0
  -13.2514    7.8117    1.1651 H   0  0  0  0  0  0  0  0  0  0  0  0
  -11.8018    8.6830    1.8361 H   0  0  0  0  0  0  0  0  0  0  0  0
  -13.8448   10.0771    1.9005 H   0  0  0  0  0  0  0  0  0  0  0  0
  -12.5537   10.7649    0.8394 H   0  0  0  0  0  0  0  0  0  0  0  0
  -14.6689   10.9995   -0.2704 H   0  0  0  0  0  0  0  0  0  0  0  0
  -16.1280    9.4970    0.0920 H   0  0  0  0  0  0  0  0  0  0  0  0
  -12.3070   11.3971   -1.0572 H   0  0  0  0  0  0  0  0  0  0  0  0
  -11.8208   10.5470   -2.5630 H   0  0  0  0  0  0  0  0  0  0  0  0
  -13.2604   11.6213   -2.5630 H   0  0  0  0  0  0  0  0  0  0  0  0
  -15.6659    9.5531   -2.1722 H   0  0  0  0  0  0  0  0  0  0  0  0
  -14.6489   10.5258   -3.2885 H   0  0  0  0  0  0  0  0  0  0  0  0
  -14.5215    8.7341   -3.2885 H   0  0  0  0  0  0  0  0  0  0  0  0
  -11.5561    6.0423    1.6240 H   0  0  0  0  0  0  0  0  0  0  0  0
  -12.7154    5.9633    0.2542 H   0  0  0  0  0  0  0  0  0  0  0  0
  -11.2527    4.9206    0.2542 H   0  0  0  0  0  0  0  0  0  0  0  0
   -9.8674    8.0413    1.4465 H   0  0  0  0  0  0  0  0  0  0  0  0
   -9.2693    6.3304    1.0595 H   0  0  0  0  0  0  0  0  0  0  0  0
   -8.5466    8.9073   -0.3624 H   0  0  0  0  0  0  0  0  0  0  0  0
   -7.4853    7.8260    0.6234 H   0  0  0  0  0  0  0  0  0  0  0  0
   -7.6613    5.5507    0.2684 H   0  0  0  0  0  0  0  0  0  0  0  0
   -8.4216    4.8803   -1.2146 H   0  0  0  0  0  0  0  0  0  0  0  0
   -6.6771    5.3086   -1.2146 H   0  0  0  0  0  0  0  0  0  0  0  0
  1  2  1  0
  2  3  1  0
  3  4  1  0
  4  5  1  0
  5  6  1  0
  6  7  1  0
  7  8  1  0
  7  9  1  0
  2 10  1  0
 10 11  1  0
 11 12  1  0
 12 13  1  0
 13 14  1  6
 13 15  1  0
 15 16  1  0
 16 17  1  0
 17 18  2  0
 18 19  1  0
 19 20  1  0
 20 21  1  0
 21 22  1  0
 22 23  1  0
 22 24  1  0
 24 25  1  0
 24 26  1  0
 19 27  1  0
 27 28  1  1
 27 29  1  0
 29 30  1  0
 30 31  1  0
 31 32  1  1
  7  5  1  0
 31 10  1  0
 31 13  1  0
 27 15  1  0
 24 18  1  0
  1 33  1  0
  1 34  1  0
  1 35  1  0
  2 36  1  6
  3 37  1  0
  3 38  1  0
  4 39  1  0
  4 40  1  0
  5 41  1  6
  8 42  1  0
  8 43  1  0
  8 44  1  0
  9 45  1  0
  9 46  1  0
  9 47  1  0
 10 48  1  6
 11 49  1  0
 11 50  1  0
 12 51  1  0
 12 52  1  0
 14 53  1  0
 14 54  1  0
 14 55  1  0
 15 56  1  1
 16 57  1  0
 16 58  1  0
 17 59  1  0
 19 60  1  6
 20 61  1  0
 20 62  1  0
 21 63  1  0
 21 64  1  0
 22 65  1  6
 23 66  1  0
 25 67  1  0
 25 68  1  0
 25 69  1  0
 26 70  1  0
 26 71  1  0
 26 72  1  0
 28 73  1  0
 28 74  1  0
 28 75  1  0
 29 76  1  0
 29 77  1  0
 30 78  1  0
 30 79  1  0
 32 80  1  0
 32 81  1  0
 32 82  1  0
M  END
>  <meeko>  (10) 
{"is_sidechain": [false], "intermolecular_energy": 2.731, "internal_energy": -0.839}

$$$$
EPH_relaxed_0001_pdb2pqr_Repair_295_r2_0001_out
     RDKit          3D

 82 86  0  0  0  0  0  0  0  0999 V2000
   -0.4120   10.5970   -4.2200 C   0  0  0  0  0  0  0  0  0  0  0  0
    0.7390   10.3380   -3.2440 C   0  0  2  0  0  0  0  0  0  0  0  0
    0.5600    9.0130   -2.4750 C   0  0  0  0  0  0  0  0  0  0  0  0
   -0.8400    8.8280   -1.8840 C   0  0  0  0  0  0  0  0  0  0  0  0
   -0.8680    9.1360   -0.4180 C   0  0  2  0  0  0  0  0  0  0  0  0
   -2.1800    9.1890    0.1580 O   0  0  0  0  0  0  0  0  0  0  0  0
   -1.4370   10.4190    0.1580 C   0  0  0  0  0  0  0  0  0  0  0  0
   -2.0170   11.4800   -0.7250 C   0  0  0  0  0  0  0  0  0  0  0  0
   -0.9900   10.8530    1.5190 C   0  0  0  0  0  0  0  0  0  0  0  0
    0.8590   11.4970   -2.2620 C   0  0  1  0  0  0  0  0  0  0  0  0
    1.9380   11.2500   -1.1750 C   0  0  0  0  0  0  0  0  0  0  0  0
    2.5830   12.6250   -0.8630 C   0  0  0  0  0  0  0  0  0  0  0  0
    1.6400   13.6570   -1.5270 C   0  0  1  0  0  0  0  0  0  0  0  0
    0.4660   13.8370   -0.5140 C   0  0  0  0  0  0  0  0  0  0  0  0
    2.2820   15.0290   -1.9160 C   0  0  2  0  0  0  0  0  0  0  0  0
    2.8260   15.8530   -0.7360 C   0  0  0  0  0  0  0  0  0  0  0  0
    1.8530   16.8020   -0.1190 C   0  0  0  0  0  0  0  0  0  0  0  0
    0.6880   17.1940   -0.6670 C   0  0  0  0  0  0  0  0  0  0  0  0
    0.2930   16.7480   -2.0800 C   0  0  1  0  0  0  0  0  0  0  0  0
   -0.2240   17.9710   -2.8830 C   0  0  0  0  0  0  0  0  0  0  0  0
   -1.3520   18.7070   -2.1670 C   0  0  0  0  0  0  0  0  0  0  0  0
   -0.9020   19.1860   -0.7890 C   0  0  2  0  0  0  0  0  0  0  0  0
    0.1020   20.1920   -0.9560 O   0  0  0  0  0  0  0  0  0  0  0  0
   -0.3520   18.0420    0.1070 C   0  0  0  0  0  0  0  0  0  0  0  0
   -1.5140   17.1120    0.5360 C   0  0  0  0  0  0  0  0  0  0  0  0
    0.1980   18.6790    1.4120 C   0  0  0  0  0  0  0  0  0  0  0  0
    1.3870   15.9140   -2.8750 C   0  0  1  0  0  0  0  0  0  0  0  0
    2.3560   16.8810   -3.6210 C   0  0  0  0  0  0  0  0  0  0  0  0
    0.6720   15.0570   -3.9860 C   0  0  0  0  0  0  0  0  0  0  0  0
    0.1670   13.6620   -3.5700 C   0  0  0  0  0  0  0  0  0  0  0  0
    1.2600   12.8780   -2.8380 C   0  0  2  0  0  0  0  0  0  0  0  0
    2.4460   12.6630   -3.8400 C   0  0  0  0  0  0  0  0  0  0  0  0
   -1.3326   10.8041   -3.6546 H   0  0  0  0  0  0  0  0  0  0  0  0
   -0.1680   11.4627   -4.8533 H   0  0  0  0  0  0  0  0  0  0  0  0
   -0.5623    9.7102   -4.8533 H   0  0  0  0  0  0  0  0  0  0  0  0
    1.6625   10.2552   -3.8358 H   0  0  0  0  0  0  0  0  0  0  0  0
    0.7576    8.1808   -3.1666 H   0  0  0  0  0  0  0  0  0  0  0  0
    1.2648    9.0339   -1.6307 H   0  0  0  0  0  0  0  0  0  0  0  0
   -1.5379    9.5014   -2.4031 H   0  0  0  0  0  0  0  0  0  0  0  0
   -1.1329    7.7763   -2.0190 H   0  0  0  0  0  0  0  0  0  0  0  0
    0.0939    8.6237   -0.2689 H   0  0  0  0  0  0  0  0  0  0  0  0
   -2.4524   12.2765   -0.1037 H   0  0  0  0  0  0  0  0  0  0  0  0
   -1.2243   11.9023   -1.3600 H   0  0  0  0  0  0  0  0  0  0  0  0
   -2.8004   11.0407   -1.3600 H   0  0  0  0  0  0  0  0  0  0  0  0
   -1.5571   10.3024    2.2841 H   0  0  0  0  0  0  0  0  0  0  0  0
    0.0834   10.6434    1.6366 H   0  0  0  0  0  0  0  0  0  0  0  0
   -1.1679   11.9321    1.6366 H   0  0  0  0  0  0  0  0  0  0  0  0
   -0.1754   11.5305   -1.8892 H   0  0  0  0  0  0  0  0  0  0  0  0
    1.4738   10.8350   -0.2682 H   0  0  0  0  0  0  0  0  0  0  0  0
    2.6928   10.5303   -1.5247 H   0  0  0  0  0  0  0  0  0  0  0  0
    2.6376   12.7910    0.2230 H   0  0  0  0  0  0  0  0  0  0  0  0
    3.6137   12.6979   -1.2402 H   0  0  0  0  0  0  0  0  0  0  0  0
    0.8555   13.7773    0.5130 H   0  0  0  0  0  0  0  0  0  0  0  0
   -0.0063   14.8180   -0.6706 H   0  0  0  0  0  0  0  0  0  0  0  0
   -0.2785   13.0425   -0.6706 H   0  0  0  0  0  0  0  0  0  0  0  0
    3.1641   14.7207   -2.4964 H   0  0  0  0  0  0  0  0  0  0  0  0
    3.1581   15.1518    0.0438 H   0  0  0  0  0  0  0  0  0  0  0  0
    3.6373   16.4725   -1.1458 H   0  0  0  0  0  0  0  0  0  0  0  0
    2.1099   17.2160    0.8672 H   0  0  0  0  0  0  0  0  0  0  0  0
   -0.5175   16.0153   -1.9525 H   0  0  0  0  0  0  0  0  0  0  0  0
    0.6111   18.6702   -3.0370 H   0  0  0  0  0  0  0  0  0  0  0  0
   -0.6221   17.5987   -3.8385 H   0  0  0  0  0  0  0  0  0  0  0  0
   -1.6541   19.5764   -2.7695 H   0  0  0  0  0  0  0  0  0  0  0  0
   -2.1976   18.0151   -2.0395 H   0  0  0  0  0  0  0  0  0  0  0  0
   -1.7865   19.5895   -0.2744 H   0  0  0  0  0  0  0  0  0  0  0  0
    0.6680   20.1770   -0.1650 H   0  0  0  0  0  0  0  0  0  0  0  0
   -1.5648   17.0713    1.6341 H   0  0  0  0  0  0  0  0  0  0  0  0
   -2.4624   17.5033    0.1393 H   0  0  0  0  0  0  0  0  0  0  0  0
   -1.3400   16.1009    0.1393 H   0  0  0  0  0  0  0  0  0  0  0  0
   -0.2417   18.1697    2.2822 H   0  0  0  0  0  0  0  0  0  0  0  0
    1.2925   18.5723    1.4391 H   0  0  0  0  0  0  0  0  0  0  0  0
   -0.0671   19.7462    1.4391 H   0  0  0  0  0  0  0  0  0  0  0  0
    2.9352   17.4590   -2.8858 H   0  0  0  0  0  0  0  0  0  0  0  0
    3.0427   16.2974   -4.2518 H   0  0  0  0  0  0  0  0  0  0  0  0
    1.7738   17.5689   -4.2518 H   0  0  0  0  0  0  0  0  0  0  0  0
   -0.1951   15.6319   -4.3431 H   0  0  0  0  0  0  0  0  0  0  0  0
    1.4448   14.8685   -4.7458 H   0  0  0  0  0  0  0  0  0  0  0  0
   -0.7004   13.7775   -2.9035 H   0  0  0  0  0  0  0  0  0  0  0  0
   -0.1148   13.1067   -4.4768 H   0  0  0  0  0  0  0  0  0  0  0  0
    3.3758   12.4944   -3.2769 H   0  0  0  0  0  0  0  0  0  0  0  0
    2.2371   11.7881   -4.4732 H   0  0  0  0  0  0  0  0  0  0  0  0
    2.5575   13.5556   -4.4732 H   0  0  0  0  0  0  0  0  0  0  0  0
  1  2  1  0
  2  3  1  0
  3  4  1  0
  4  5  1  0
  5  6  1  0
  6  7  1  0
  7  8  1  0
  7  9  1  0
  2 10  1  0
 10 11  1  0
 11 12  1  0
 12 13  1  0
 13 14  1  1
 13 15  1  0
 15 16  1  0
 16 17  1  0
 17 18  2  0
 18 19  1  0
 19 20  1  0
 20 21  1  0
 21 22  1  0
 22 23  1  0
 22 24  1  0
 24 25  1  0
 24 26  1  0
 19 27  1  0
 27 28  1  6
 27 29  1  0
 29 30  1  0
 30 31  1  0
 31 32  1  6
  7  5  1  0
 31 10  1  0
 31 13  1  0
 27 15  1  0
 24 18  1  0
  1 33  1  0
  1 34  1  0
  1 35  1  0
  2 36  1  6
  3 37  1  0
  3 38  1  0
  4 39  1  0
  4 40  1  0
  5 41  1  1
  8 42  1  0
  8 43  1  0
  8 44  1  0
  9 45  1  0
  9 46  1  0
  9 47  1  0
 10 48  1  1
 11 49  1  0
 11 50  1  0
 12 51  1  0
 12 52  1  0
 14 53  1  0
 14 54  1  0
 14 55  1  0
 15 56  1  6
 16 57  1  0
 16 58  1  0
 17 59  1  0
 19 60  1  1
 20 61  1  0
 20 62  1  0
 21 63  1  0
 21 64  1  0
 22 65  1  1
 23 66  1  0
 25 67  1  0
 25 68  1  0
 25 69  1  0
 26 70  1  0
 26 71  1  0
 26 72  1  0
 28 73  1  0
 28 74  1  0
 28 75  1  0
 29 76  1  0
 29 77  1  0
 30 78  1  0
 30 79  1  0
 32 80  1  0
 32 81  1  0
 32 82  1  0
M  END
>  <meeko>  (11) 
{"is_sidechain": [false], "intermolecular_energy": 2.731, "internal_energy": -0.839}

$$$$
EPH_relaxed_0001_pdb2pqr_Repair_295_r2_0001_out
     RDKit          3D

 82 86  0  0  0  0  0  0  0  0999 V2000
    2.5950   18.7680   -1.8240 C   0  0  0  0  0  0  0  0  0  0  0  0
    2.2470   17.6120   -2.7660 C   0  0  2  0  0  0  0  0  0  0  0  0
    0.8220   17.7400   -3.3410 C   0  0  0  0  0  0  0  0  0  0  0  0
    0.1630   19.0930   -3.0570 C   0  0  0  0  0  0  0  0  0  0  0  0
   -1.0160   18.9550   -2.1430 C   0  0  2  0  0  0  0  0  0  0  0  0
   -1.6630   20.1900   -1.8080 O   0  0  0  0  0  0  0  0  0  0  0  0
   -1.0400   19.4850   -0.7220 C   0  0  0  0  0  0  0  0  0  0  0  0
    0.1390   20.1940   -0.1340 C   0  0  0  0  0  0  0  0  0  0  0  0
   -2.0130   18.8910    0.2480 C   0  0  0  0  0  0  0  0  0  0  0  0
    2.3960   16.2830   -2.0340 C   0  0  1  0  0  0  0  0  0  0  0  0
    2.9790   16.4500   -0.6060 C   0  0  0  0  0  0  0  0  0  0  0  0
    2.3020   15.3740    0.2820 C   0  0  0  0  0  0  0  0  0  0  0  0
    1.6110   14.4200   -0.7200 C   0  0  1  0  0  0  0  0  0  0  0  0
    2.7450   13.4730   -1.2200 C   0  0  0  0  0  0  0  0  0  0  0  0
    0.3860   13.6160   -0.1740 C   0  0  2  0  0  0  0  0  0  0  0  0
    0.7030   12.6450    0.9760 C   0  0  0  0  0  0  0  0  0  0  0  0
    1.0700   11.2590    0.5590 C   0  0  0  0  0  0  0  0  0  0  0  0
    0.8690   10.7320   -0.6630 C   0  0  0  0  0  0  0  0  0  0  0  0
    0.1250   11.5200   -1.7490 C   0  0  1  0  0  0  0  0  0  0  0  0
   -0.9280   10.6030   -2.4250 C   0  0  0  0  0  0  0  0  0  0  0  0
   -0.3210    9.3080   -2.9570 C   0  0  0  0  0  0  0  0  0  0  0  0
    0.3590    8.5250   -1.8370 C   0  0  2  0  0  0  0  0  0  0  0  0
   -0.6400    8.0730   -0.9180 O   0  0  0  0  0  0  0  0  0  0  0  0
    1.4340    9.3500   -1.0760 C   0  0  0  0  0  0  0  0  0  0  0  0
    2.6590    9.5820   -1.9950 C   0  0  0  0  0  0  0  0  0  0  0  0
    1.9400    8.4930    0.1150 C   0  0  0  0  0  0  0  0  0  0  0  0
   -0.4830   12.9170   -1.2980 C   0  0  1  0  0  0  0  0  0  0  0  0
   -1.9060   12.7090   -0.6950 C   0  0  0  0  0  0  0  0  0  0  0  0
   -0.6680   13.8320   -2.5660 C   0  0  0  0  0  0  0  0  0  0  0  0
    0.5400   14.6920   -2.9840 C   0  0  0  0  0  0  0  0  0  0  0  0
    1.1070   15.4600   -1.7860 C   0  0  2  0  0  0  0  0  0  0  0  0
   -0.0050   16.4380   -1.2740 C   0  0  0  0  0  0  0  0  0  0  0  0
    2.4944   18.4339   -0.7808 H   0  0  0  0  0  0  0  0  0  0  0  0
    3.6303   19.0914   -2.0073 H   0  0  0  0  0  0  0  0  0  0  0  0
    1.9103   19.6092   -2.0073 H   0  0  0  0  0  0  0  0  0  0  0  0
    2.9488   17.6516   -3.6121 H   0  0  0  0  0  0  0  0  0  0  0  0
    0.8735   17.6007   -4.4309 H   0  0  0  0  0  0  0  0  0  0  0  0
    0.2064   16.9728   -2.8485 H   0  0  0  0  0  0  0  0  0  0  0  0
    0.9025   19.7578   -2.5868 H   0  0  0  0  0  0  0  0  0  0  0  0
   -0.1907   19.5089   -4.0119 H   0  0  0  0  0  0  0  0  0  0  0  0
   -1.2581   17.9693   -2.5670 H   0  0  0  0  0  0  0  0  0  0  0  0
    0.0786   20.1577    0.9637 H   0  0  0  0  0  0  0  0  0  0  0  0
    1.0654   19.7031   -0.4667 H   0  0  0  0  0  0  0  0  0  0  0  0
    0.1397   21.2425   -0.4667 H   0  0  0  0  0  0  0  0  0  0  0  0
   -1.6777   19.0957    1.2755 H   0  0  0  0  0  0  0  0  0  0  0  0
   -3.0062   19.3370    0.0907 H   0  0  0  0  0  0  0  0  0  0  0  0
   -2.0702   17.8038    0.0907 H   0  0  0  0  0  0  0  0  0  0  0  0
    3.0500   15.7539   -2.7428 H   0  0  0  0  0  0  0  0  0  0  0  0
    4.0683   16.2979   -0.6214 H   0  0  0  0  0  0  0  0  0  0  0  0
    2.7876   17.4609   -0.2169 H   0  0  0  0  0  0  0  0  0  0  0  0
    3.0525   14.8340    0.8780 H   0  0  0  0  0  0  0  0  0  0  0  0
    1.5919   15.8114    0.9992 H   0  0  0  0  0  0  0  0  0  0  0  0
    3.2668   13.0373   -0.3552 H   0  0  0  0  0  0  0  0  0  0  0  0
    2.3083   12.6675   -1.8287 H   0  0  0  0  0  0  0  0  0  0  0  0
    3.4597   14.0463   -1.8287 H   0  0  0  0  0  0  0  0  0  0  0  0
   -0.2382   14.4072    0.2670 H   0  0  0  0  0  0  0  0  0  0  0  0
    1.5442   13.0611    1.5498 H   0  0  0  0  0  0  0  0  0  0  0  0
   -0.2251   12.5512    1.5590 H   0  0  0  0  0  0  0  0  0  0  0  0
    1.5444   10.6147    1.3138 H   0  0  0  0  0  0  0  0  0  0  0  0
    0.8872   11.8181   -2.4840 H   0  0  0  0  0  0  0  0  0  0  0  0
   -1.7030   10.3516   -1.6859 H   0  0  0  0  0  0  0  0  0  0  0  0
   -1.3477   11.1514   -3.2812 H   0  0  0  0  0  0  0  0  0  0  0  0
   -1.1183    8.6901   -3.3957 H   0  0  0  0  0  0  0  0  0  0  0  0
    0.4326    9.5596   -3.7178 H   0  0  0  0  0  0  0  0  0  0  0  0
    0.8853    7.6776   -2.3006 H   0  0  0  0  0  0  0  0  0  0  0  0
   -0.6120    7.1020   -0.9060 H   0  0  0  0  0  0  0  0  0  0  0  0
    3.5536    9.7514   -1.3777 H   0  0  0  0  0  0  0  0  0  0  0  0
    2.8138    8.6972   -2.6300 H   0  0  0  0  0  0  0  0  0  0  0  0
    2.4796   10.4621   -2.6300 H   0  0  0  0  0  0  0  0  0  0  0  0
    1.6549    8.9758    1.0614 H   0  0  0  0  0  0  0  0  0  0  0  0
    1.4884    7.4913    0.0639 H   0  0  0  0  0  0  0  0  0  0  0  0
    3.0352    8.4045    0.0639 H   0  0  0  0  0  0  0  0  0  0  0  0
   -1.8438   12.7181    0.4032 H   0  0  0  0  0  0  0  0  0  0  0  0
   -2.5689   13.5198   -1.0314 H   0  0  0  0  0  0  0  0  0  0  0  0
   -2.3091   11.7424   -1.0314 H   0  0  0  0  0  0  0  0  0  0  0  0
   -0.9206   13.1785   -3.4140 H   0  0  0  0  0  0  0  0  0  0  0  0
   -1.4522   14.5521   -2.2895 H   0  0  0  0  0  0  0  0  0  0  0  0
    1.3227   14.0374   -3.3950 H   0  0  0  0  0  0  0  0  0  0  0  0
    0.2085   15.4180   -3.7410 H   0  0  0  0  0  0  0  0  0  0  0  0
   -0.0107   16.4431   -0.1740 H   0  0  0  0  0  0  0  0  0  0  0  0
    0.2007   17.4532   -1.6443 H   0  0  0  0  0  0  0  0  0  0  0  0
   -0.9856   16.1043   -1.6443 H   0  0  0  0  0  0  0  0  0  0  0  0
  1  2  1  0
  2  3  1  0
  3  4  1  0
  4  5  1  0
  5  6  1  0
  6  7  1  0
  7  8  1  0
  7  9  1  0
  2 10  1  0
 10 11  1  0
 11 12  1  0
 12 13  1  0
 13 14  1  6
 13 15  1  0
 15 16  1  0
 16 17  1  0
 17 18  2  0
 18 19  1  0
 19 20  1  0
 20 21  1  0
 21 22  1  0
 22 23  1  0
 22 24  1  0
 24 25  1  0
 24 26  1  0
 19 27  1  0
 27 28  1  1
 27 29  1  0
 29 30  1  0
 30 31  1  0
 31 32  1  1
  7  5  1  0
 31 10  1  0
 31 13  1  0
 27 15  1  0
 24 18  1  0
  1 33  1  0
  1 34  1  0
  1 35  1  0
  2 36  1  6
  3 37  1  0
  3 38  1  0
  4 39  1  0
  4 40  1  0
  5 41  1  1
  8 42  1  0
  8 43  1  0
  8 44  1  0
  9 45  1  0
  9 46  1  0
  9 47  1  0
 10 48  1  6
 11 49  1  0
 11 50  1  0
 12 51  1  0
 12 52  1  0
 14 53  1  0
 14 54  1  0
 14 55  1  0
 15 56  1  1
 16 57  1  0
 16 58  1  0
 17 59  1  0
 19 60  1  6
 20 61  1  0
 20 62  1  0
 21 63  1  0
 21 64  1  0
 22 65  1  6
 23 66  1  0
 25 67  1  0
 25 68  1  0
 25 69  1  0
 26 70  1  0
 26 71  1  0
 26 72  1  0
 28 73  1  0
 28 74  1  0
 28 75  1  0
 29 76  1  0
 29 77  1  0
 30 78  1  0
 30 79  1  0
 32 80  1  0
 32 81  1  0
 32 82  1  0
M  END
>  <meeko>  (12) 
{"is_sidechain": [false], "intermolecular_energy": 2.731, "internal_energy": -0.839}

$$$$
EPH_relaxed_0001_pdb2pqr_Repair_295_r2_0001_out
     RDKit          3D

 82 86  0  0  0  0  0  0  0  0999 V2000
    0.6300   20.0370    0.8450 C   0  0  0  0  0  0  0  0  0  0  0  0
    0.4250   19.9220   -0.6680 C   0  0  2  0  0  0  0  0  0  0  0  0
   -1.0680   19.8860   -1.0510 C   0  0  0  0  0  0  0  0  0  0  0  0
   -1.3320   20.1790   -2.5300 C   0  0  0  0  0  0  0  0  0  0  0  0
   -0.0630   20.1830   -3.3290 C   0  0  2  0  0  0  0  0  0  0  0  0
   -0.2510   20.1880   -4.7500 O   0  0  0  0  0  0  0  0  0  0  0  0
    0.3810   19.0220   -4.1990 C   0  0  0  0  0  0  0  0  0  0  0  0
   -0.4370   17.7740   -4.3130 C   0  0  0  0  0  0  0  0  0  0  0  0
    1.8330   18.9030   -4.5450 C   0  0  0  0  0  0  0  0  0  0  0  0
    1.1290   18.6770   -1.1950 C   0  0  1  0  0  0  0  0  0  0  0  0
    2.6750   18.7940   -1.1360 C   0  0  0  0  0  0  0  0  0  0  0  0
    3.2190   17.3780   -0.8170 C   0  0  0  0  0  0  0  0  0  0  0  0
    2.0090   16.4380   -1.0300 C   0  0  1  0  0  0  0  0  0  0  0  0
    1.9500   16.2050   -2.5720 C   0  0  0  0  0  0  0  0  0  0  0  0
    2.0360   15.0880   -0.2420 C   0  0  2  0  0  0  0  0  0  0  0  0
    3.1990   14.1460   -0.6010 C   0  0  0  0  0  0  0  0  0  0  0  0
    2.9180   13.1760   -1.7000 C   0  0  0  0  0  0  0  0  0  0  0  0
    1.6990   12.8680   -2.1790 C   0  0  0  0  0  0  0  0  0  0  0  0
    0.4310   13.4500   -1.5390 C   0  0  1  0  0  0  0  0  0  0  0  0
   -0.6120   12.3200   -1.3360 C   0  0  0  0  0  0  0  0  0  0  0  0
   -0.9060   11.5570   -2.6240 C   0  0  0  0  0  0  0  0  0  0  0  0
    0.3690   10.9440   -3.1990 C   0  0  2  0  0  0  0  0  0  0  0  0
    0.8350    9.9280   -2.3060 O   0  0  0  0  0  0  0  0  0  0  0  0
    1.4960   11.9880   -3.4370 C   0  0  0  0  0  0  0  0  0  0  0  0
    1.1100   12.9100   -4.6190 C   0  0  0  0  0  0  0  0  0  0  0  0
    2.7700   11.2200   -3.8830 C   0  0  0  0  0  0  0  0  0  0  0  0
    0.6530   14.3190   -0.2270 C   0  0  1  0  0  0  0  0  0  0  0  0
    0.6730   13.3930    1.0270 C   0  0  0  0  0  0  0  0  0  0  0  0
   -0.5700   15.2920   -0.0420 C   0  0  0  0  0  0  0  0  0  0  0  0
   -0.4850   16.6590   -0.7470 C   0  0  0  0  0  0  0  0  0  0  0  0
    0.8560   17.3410   -0.4590 C   0  0  2  0  0  0  0  0  0  0  0  0
    0.9350   17.6090    1.0830 C   0  0  0  0  0  0  0  0  0  0  0  0
   -0.2147   19.5632    1.3665 H   0  0  0  0  0  0  0  0  0  0  0  0
    1.5654   19.5319    1.1277 H   0  0  0  0  0  0  0  0  0  0  0  0
    0.6866   21.0985    1.1277 H   0  0  0  0  0  0  0  0  0  0  0  0
    0.8621   20.8194   -1.1302 H   0  0  0  0  0  0  0  0  0  0  0  0
   -1.4616   18.8852   -0.8198 H   0  0  0  0  0  0  0  0  0  0  0  0
   -1.5670   20.6777   -0.4728 H   0  0  0  0  0  0  0  0  0  0  0  0
   -2.0042   19.4067   -2.9321 H   0  0  0  0  0  0  0  0  0  0  0  0
   -1.7886   21.1769   -2.6060 H   0  0  0  0  0  0  0  0  0  0  0  0
    0.4545   20.7607   -2.5490 H   0  0  0  0  0  0  0  0  0  0  0  0
   -0.6807   17.4022   -3.3069 H   0  0  0  0  0  0  0  0  0  0  0  0
   -1.3669   17.9936   -4.8580 H   0  0  0  0  0  0  0  0  0  0  0  0
    0.1354   17.0089   -4.8580 H   0  0  0  0  0  0  0  0  0  0  0  0
    2.4274   18.8543   -3.6207 H   0  0  0  0  0  0  0  0  0  0  0  0
    1.9958   17.9885   -5.1342 H   0  0  0  0  0  0  0  0  0  0  0  0
    2.1425   19.7788   -5.1342 H   0  0  0  0  0  0  0  0  0  0  0  0
    0.7056   18.6415   -2.2096 H   0  0  0  0  0  0  0  0  0  0  0  0
    3.0658   19.1407   -2.1040 H   0  0  0  0  0  0  0  0  0  0  0  0
    2.9872   19.5188   -0.3697 H   0  0  0  0  0  0  0  0  0  0  0  0
    4.0403   17.1146   -1.4997 H   0  0  0  0  0  0  0  0  0  0  0  0
    3.6275   17.3078    0.2019 H   0  0  0  0  0  0  0  0  0  0  0  0
    1.6846   15.1569   -2.7746 H   0  0  0  0  0  0  0  0  0  0  0  0
    1.1912   16.8674   -3.0142 H   0  0  0  0  0  0  0  0  0  0  0  0
    2.9326   16.4265   -3.0142 H   0  0  0  0  0  0  0  0  0  0  0  0
    2.2280   15.4201    0.7889 H   0  0  0  0  0  0  0  0  0  0  0  0
    4.0562   14.7648   -0.9048 H   0  0  0  0  0  0  0  0  0  0  0  0
    3.3889   13.5408    0.2977 H   0  0  0  0  0  0  0  0  0  0  0  0
    3.7810   12.6698   -2.1573 H   0  0  0  0  0  0  0  0  0  0  0  0
    0.0430   14.1919   -2.2525 H   0  0  0  0  0  0  0  0  0  0  0  0
   -0.2246   11.6128   -0.5878 H   0  0  0  0  0  0  0  0  0  0  0  0
   -1.5504   12.7876   -1.0033 H   0  0  0  0  0  0  0  0  0  0  0  0
   -1.6267   10.7540   -2.4101 H   0  0  0  0  0  0  0  0  0  0  0  0
   -1.3208   12.2600   -3.3614 H   0  0  0  0  0  0  0  0  0  0  0  0
    0.1184   10.5225   -4.1836 H   0  0  0  0  0  0  0  0  0  0  0  0
    0.9330    9.1080   -2.8190 H   0  0  0  0  0  0  0  0  0  0  0  0
    0.7128   13.8589   -4.2293 H   0  0  0  0  0  0  0  0  0  0  0  0
    1.9999   13.1100   -5.2338 H   0  0  0  0  0  0  0  0  0  0  0  0
    0.3430   12.4163   -5.2338 H   0  0  0  0  0  0  0  0  0  0  0  0
    3.3259   10.8849   -2.9949 H   0  0  0  0  0  0  0  0  0  0  0  0
    2.4796   10.3464   -4.4850 H   0  0  0  0  0  0  0  0  0  0  0  0
    3.4069   11.8847   -4.4850 H   0  0  0  0  0  0  0  0  0  0  0  0
    0.6597   14.0092    1.9381 H   0  0  0  0  0  0  0  0  0  0  0  0
   -0.2112   12.7388    1.0139 H   0  0  0  0  0  0  0  0  0  0  0  0
    1.5846   12.7776    1.0139 H   0  0  0  0  0  0  0  0  0  0  0  0
   -1.4648   14.7772   -0.4218 H   0  0  0  0  0  0  0  0  0  0  0  0
   -0.5920   15.5243    1.0330 H   0  0  0  0  0  0  0  0  0  0  0  0
   -0.5881   16.5114   -1.8322 H   0  0  0  0  0  0  0  0  0  0  0  0
   -1.2939   17.3007   -0.3675 H   0  0  0  0  0  0  0  0  0  0  0  0
    0.6649   16.6929    1.6287 H   0  0  0  0  0  0  0  0  0  0  0  0
    1.9592   17.9072    1.3513 H   0  0  0  0  0  0  0  0  0  0  0  0
    0.2363   18.4151    1.3513 H   0  0  0  0  0  0  0  0  0  0  0  0
  1  2  1  0
  2  3  1  0
  3  4  1  0
  4  5  1  0
  5  6  1  0
  6  7  1  0
  7  8  1  0
  7  9  1  0
  2 10  1  0
 10 11  1  0
 11 12  1  0
 12 13  1  0
 13 14  1  6
 13 15  1  0
 15 16  1  0
 16 17  1  0
 17 18  2  0
 18 19  1  0
 19 20  1  0
 20 21  1  0
 21 22  1  0
 22 23  1  0
 22 24  1  0
 24 25  1  0
 24 26  1  0
 19 27  1  0
 27 28  1  1
 27 29  1  0
 29 30  1  0
 30 31  1  0
 31 32  1  1
  7  5  1  0
 31 10  1  0
 31 13  1  0
 27 15  1  0
 24 18  1  0
  1 33  1  0
  1 34  1  0
  1 35  1  0
  2 36  1  6
  3 37  1  0
  3 38  1  0
  4 39  1  0
  4 40  1  0
  5 41  1  1
  8 42  1  0
  8 43  1  0
  8 44  1  0
  9 45  1  0
  9 46  1  0
  9 47  1  0
 10 48  1  6
 11 49  1  0
 11 50  1  0
 12 51  1  0
 12 52  1  0
 14 53  1  0
 14 54  1  0
 14 55  1  0
 15 56  1  1
 16 57  1  0
 16 58  1  0
 17 59  1  0
 19 60  1  6
 20 61  1  0
 20 62  1  0
 21 63  1  0
 21 64  1  0
 22 65  1  6
 23 66  1  0
 25 67  1  0
 25 68  1  0
 25 69  1  0
 26 70  1  0
 26 71  1  0
 26 72  1  0
 28 73  1  0
 28 74  1  0
 28 75  1  0
 29 76  1  0
 29 77  1  0
 30 78  1  0
 30 79  1  0
 32 80  1  0
 32 81  1  0
 32 82  1  0
M  END
>  <meeko>  (13) 
{"is_sidechain": [false], "intermolecular_energy": 2.731, "internal_energy": -0.839}

$$$$
EPH_relaxed_0001_pdb2pqr_Repair_295_r2_0001_out
     RDKit          3D

 82 86  0  0  0  0  0  0  0  0999 V2000
   -3.7540    7.2560   -3.4480 C   0  0  0  0  0  0  0  0  0  0  0  0
   -3.7660    7.3120   -1.9180 C   0  0  2  0  0  0  0  0  0  0  0  0
   -5.1770    7.0820   -1.3390 C   0  0  0  0  0  0  0  0  0  0  0  0
   -6.3020    7.3130   -2.3510 C   0  0  0  0  0  0  0  0  0  0  0  0
   -7.6270    7.4950   -1.6750 C   0  0  2  0  0  0  0  0  0  0  0  0
   -8.1960    6.2930   -1.1390 O   0  0  0  0  0  0  0  0  0  0  0  0
   -8.9250    6.9180   -2.2080 C   0  0  0  0  0  0  0  0  0  0  0  0
   -8.9610    6.1150   -3.4710 C   0  0  0  0  0  0  0  0  0  0  0  0
  -10.2160    7.5390   -1.7740 C   0  0  0  0  0  0  0  0  0  0  0  0
   -3.2210    8.6540   -1.4430 C   0  0  1  0  0  0  0  0  0  0  0  0
   -3.8280    9.0990   -0.0850 C   0  0  0  0  0  0  0  0  0  0  0  0
   -2.7070    9.8460    0.6830 C   0  0  0  0  0  0  0  0  0  0  0  0
   -1.6090   10.0960   -0.3770 C   0  0  1  0  0  0  0  0  0  0  0  0
   -2.0870   11.3590   -1.1600 C   0  0  0  0  0  0  0  0  0  0  0  0
   -0.1530   10.2710    0.1650 C   0  0  2  0  0  0  0  0  0  0  0  0
    0.0580   11.4820    1.0910 C   0  0  0  0  0  0  0  0  0  0  0  0
    0.4620   12.7450    0.4060 C   0  0  0  0  0  0  0  0  0  0  0  0
    0.9240   12.8380   -0.8550 C   0  0  0  0  0  0  0  0  0  0  0  0
    1.1720   11.5810   -1.6980 C   0  0  1  0  0  0  0  0  0  0  0  0
    2.5560   11.6860   -2.3900 C   0  0  0  0  0  0  0  0  0  0  0  0
    2.7090   12.9700   -3.2000 C   0  0  0  0  0  0  0  0  0  0  0  0
    2.5130   14.1990   -2.3150 C   0  0  2  0  0  0  0  0  0  0  0  0
    3.5890   14.2660   -1.3740 O   0  0  0  0  0  0  0  0  0  0  0  0
    1.1550   14.1980   -1.5580 C   0  0  0  0  0  0  0  0  0  0  0  0
   -0.0010   14.4300   -2.5630 C   0  0  0  0  0  0  0  0  0  0  0  0
    1.1450   15.4170   -0.5970 C   0  0  0  0  0  0  0  0  0  0  0  0
    0.9680   10.1930   -0.9490 C   0  0  1  0  0  0  0  0  0  0  0  0
    2.2860    9.7790   -0.2270 C   0  0  0  0  0  0  0  0  0  0  0  0
    0.6740    9.0720   -2.0150 C   0  0  0  0  0  0  0  0  0  0  0  0
   -0.7980    8.8680   -2.4220 C   0  0  0  0  0  0  0  0  0  0  0  0
   -1.6960    8.7520   -1.1860 C   0  0  2  0  0  0  0  0  0  0  0  0
   -1.2530    7.4770   -0.3900 C   0  0  0  0  0  0  0  0  0  0  0  0
   -3.5340    6.2292   -3.7756 H   0  0  0  0  0  0  0  0  0  0  0  0
   -4.7379    7.5611   -3.8338 H   0  0  0  0  0  0  0  0  0  0  0  0
   -2.9815    7.9375   -3.8338 H   0  0  0  0  0  0  0  0  0  0  0  0
   -3.1225    6.4983   -1.5522 H   0  0  0  0  0  0  0  0  0  0  0  0
   -5.2403    6.0441   -0.9801 H   0  0  0  0  0  0  0  0  0  0  0  0
   -5.3163    7.8146   -0.5304 H   0  0  0  0  0  0  0  0  0  0  0  0
   -6.0741    8.2153   -2.9375 H   0  0  0  0  0  0  0  0  0  0  0  0
   -6.3669    6.4270   -2.9997 H   0  0  0  0  0  0  0  0  0  0  0  0
   -7.3485    8.5086   -1.3508 H   0  0  0  0  0  0  0  0  0  0  0  0
   -9.0090    5.0443   -3.2235 H   0  0  0  0  0  0  0  0  0  0  0  0
   -9.8475    6.3956   -4.0587 H   0  0  0  0  0  0  0  0  0  0  0  0
   -8.0530    6.3151   -4.0587 H   0  0  0  0  0  0  0  0  0  0  0  0
  -10.2613    7.5608   -0.6751 H   0  0  0  0  0  0  0  0  0  0  0  0
  -10.2784    8.5657   -2.1640 H   0  0  0  0  0  0  0  0  0  0  0  0
  -11.0570    6.9469   -2.1640 H   0  0  0  0  0  0  0  0  0  0  0  0
   -3.4992    9.2803   -2.3035 H   0  0  0  0  0  0  0  0  0  0  0  0
   -4.6832    9.7699   -0.2540 H   0  0  0  0  0  0  0  0  0  0  0  0
   -4.1900    8.2329    0.4885 H   0  0  0  0  0  0  0  0  0  0  0  0
   -3.0810   10.7983    1.0870 H   0  0  0  0  0  0  0  0  0  0  0  0
   -2.3341    9.2695    1.5424 H   0  0  0  0  0  0  0  0  0  0  0  0
   -2.3834   12.1422   -0.4467 H   0  0  0  0  0  0  0  0  0  0  0  0
   -1.2672   11.7303   -1.7925 H   0  0  0  0  0  0  0  0  0  0  0  0
   -2.9472   11.0945   -1.7925 H   0  0  0  0  0  0  0  0  0  0  0  0
   -0.0313    9.3828    0.8024 H   0  0  0  0  0  0  0  0  0  0  0  0
   -0.8856   11.6710    1.6238 H   0  0  0  0  0  0  0  0  0  0  0  0
    0.8931   11.2154    1.7555 H   0  0  0  0  0  0  0  0  0  0  0  0
    0.3748   13.6791    0.9803 H   0  0  0  0  0  0  0  0  0  0  0  0
    0.3760   11.5618   -2.4570 H   0  0  0  0  0  0  0  0  0  0  0  0
    3.3391   11.6606   -1.6180 H   0  0  0  0  0  0  0  0  0  0  0  0
    2.6464   10.8392   -3.0862 H   0  0  0  0  0  0  0  0  0  0  0  0
    3.7166   13.0002   -3.6403 H   0  0  0  0  0  0  0  0  0  0  0  0
    1.9440   12.9803   -3.9903 H   0  0  0  0  0  0  0  0  0  0  0  0
    2.5051   15.0812   -2.9720 H   0  0  0  0  0  0  0  0  0  0  0  0
    4.3260   13.7420   -1.7320 H   0  0  0  0  0  0  0  0  0  0  0  0
   -0.9342   14.6173   -2.0116 H   0  0  0  0  0  0  0  0  0  0  0  0
    0.2319   15.2993   -3.1955 H   0  0  0  0  0  0  0  0  0  0  0  0
   -0.1215   13.5381   -3.1955 H   0  0  0  0  0  0  0  0  0  0  0  0
    1.1479   15.0629    0.4444 H   0  0  0  0  0  0  0  0  0  0  0  0
    2.0381   16.0333   -0.7772 H   0  0  0  0  0  0  0  0  0  0  0  0
    0.2419   16.0186   -0.7772 H   0  0  0  0  0  0  0  0  0  0  0  0
    2.1377    9.8256    0.8620 H   0  0  0  0  0  0  0  0  0  0  0  0
    2.5560    8.7528   -0.5167 H   0  0  0  0  0  0  0  0  0  0  0  0
    3.0943   10.4665   -0.5167 H   0  0  0  0  0  0  0  0  0  0  0  0
    1.2391    9.3220   -2.9250 H   0  0  0  0  0  0  0  0  0  0  0  0
    0.9716    8.1301   -1.5311 H   0  0  0  0  0  0  0  0  0  0  0  0
   -1.1267    9.7261   -3.0267 H   0  0  0  0  0  0  0  0  0  0  0  0
   -0.8764    7.9366   -3.0020 H   0  0  0  0  0  0  0  0  0  0  0  0
   -1.3222    7.6763    0.6896 H   0  0  0  0  0  0  0  0  0  0  0  0
   -1.9113    6.6351   -0.6504 H   0  0  0  0  0  0  0  0  0  0  0  0
   -0.2145    7.2246   -0.6504 H   0  0  0  0  0  0  0  0  0  0  0  0
  1  2  1  0
  2  3  1  0
  3  4  1  0
  4  5  1  0
  5  6  1  0
  6  7  1  0
  7  8  1  0
  7  9  1  0
  2 10  1  0
 10 11  1  0
 11 12  1  0
 12 13  1  0
 13 14  1  6
 13 15  1  0
 15 16  1  0
 16 17  1  0
 17 18  2  0
 18 19  1  0
 19 20  1  0
 20 21  1  0
 21 22  1  0
 22 23  1  0
 22 24  1  0
 24 25  1  0
 24 26  1  0
 19 27  1  0
 27 28  1  1
 27 29  1  0
 29 30  1  0
 30 31  1  0
 31 32  1  1
  7  5  1  0
 31 10  1  0
 31 13  1  0
 27 15  1  0
 24 18  1  0
  1 33  1  0
  1 34  1  0
  1 35  1  0
  2 36  1  1
  3 37  1  0
  3 38  1  0
  4 39  1  0
  4 40  1  0
  5 41  1  1
  8 42  1  0
  8 43  1  0
  8 44  1  0
  9 45  1  0
  9 46  1  0
  9 47  1  0
 10 48  1  6
 11 49  1  0
 11 50  1  0
 12 51  1  0
 12 52  1  0
 14 53  1  0
 14 54  1  0
 14 55  1  0
 15 56  1  1
 16 57  1  0
 16 58  1  0
 17 59  1  0
 19 60  1  6
 20 61  1  0
 20 62  1  0
 21 63  1  0
 21 64  1  0
 22 65  1  6
 23 66  1  0
 25 67  1  0
 25 68  1  0
 25 69  1  0
 26 70  1  0
 26 71  1  0
 26 72  1  0
 28 73  1  0
 28 74  1  0
 28 75  1  0
 29 76  1  0
 29 77  1  0
 30 78  1  0
 30 79  1  0
 32 80  1  0
 32 81  1  0
 32 82  1  0
M  END
>  <meeko>  (14) 
{"is_sidechain": [false], "intermolecular_energy": 2.731, "internal_energy": -0.839}

$$$$
EPH_relaxed_0001_pdb2pqr_Repair_295_r2_0001_out
     RDKit          3D

 82 86  0  0  0  0  0  0  0  0999 V2000
    0.0220    9.3540   -2.2760 C   0  0  0  0  0  0  0  0  0  0  0  0
    1.0930   10.3330   -2.7640 C   0  0  2  0  0  0  0  0  0  0  0  0
    2.4820    9.6710   -2.8660 C   0  0  0  0  0  0  0  0  0  0  0  0
    3.4230   10.3630   -3.8550 C   0  0  0  0  0  0  0  0  0  0  0  0
    4.8020   10.5200   -3.2910 C   0  0  2  0  0  0  0  0  0  0  0  0
    5.3780   11.8200   -3.4710 O   0  0  0  0  0  0  0  0  0  0  0  0
    6.0360   10.7360   -4.1470 C   0  0  0  0  0  0  0  0  0  0  0  0
    5.9490   10.8060   -5.6390 C   0  0  0  0  0  0  0  0  0  0  0  0
    7.3750   10.3920   -3.5720 C   0  0  0  0  0  0  0  0  0  0  0  0
    1.1580   11.5380   -1.8330 C   0  0  1  0  0  0  0  0  0  0  0  0
    2.2930   11.4210   -0.7810 C   0  0  0  0  0  0  0  0  0  0  0  0
    2.8380   12.8540   -0.5500 C   0  0  0  0  0  0  0  0  0  0  0  0
    1.7930   13.7810   -1.2130 C   0  0  1  0  0  0  0  0  0  0  0  0
    0.6470   13.9110   -0.1620 C   0  0  0  0  0  0  0  0  0  0  0  0
    2.3090   15.1800   -1.6810 C   0  0  2  0  0  0  0  0  0  0  0  0
    2.8300   16.0930   -0.5570 C   0  0  0  0  0  0  0  0  0  0  0  0
    1.8090   16.9880    0.0630 C   0  0  0  0  0  0  0  0  0  0  0  0
    0.5970   17.2660   -0.4520 C   0  0  0  0  0  0  0  0  0  0  0  0
    0.1850   16.7330   -1.8300 C   0  0  1  0  0  0  0  0  0  0  0  0
   -0.4560   17.8770   -2.6590 C   0  0  0  0  0  0  0  0  0  0  0  0
   -1.6110   18.5530   -1.9260 C   0  0  0  0  0  0  0  0  0  0  0  0
   -1.1490   19.1220   -0.5870 C   0  0  2  0  0  0  0  0  0  0  0  0
   -0.2340   20.1940   -0.8330 O   0  0  0  0  0  0  0  0  0  0  0  0
   -0.4770   18.0620    0.3300 C   0  0  0  0  0  0  0  0  0  0  0  0
   -1.5450   17.0630    0.8410 C   0  0  0  0  0  0  0  0  0  0  0  0
    0.0690   18.7940    1.5860 C   0  0  0  0  0  0  0  0  0  0  0  0
    1.3120   15.9530   -2.6360 C   0  0  1  0  0  0  0  0  0  0  0  0
    2.1720   16.9610   -3.4580 C   0  0  0  0  0  0  0  0  0  0  0  0
    0.6260   14.9980   -3.6840 C   0  0  0  0  0  0  0  0  0  0  0  0
    0.2480   13.5870   -3.1940 C   0  0  0  0  0  0  0  0  0  0  0  0
    1.4270   12.9210   -2.4780 C   0  0  2  0  0  0  0  0  0  0  0  0
    2.5880   12.7570   -3.5170 C   0  0  0  0  0  0  0  0  0  0  0  0
    0.0095    9.3426   -1.1761 H   0  0  0  0  0  0  0  0  0  0  0  0
   -0.9625    9.6709   -2.6506 H   0  0  0  0  0  0  0  0  0  0  0  0
    0.2494    8.3451   -2.6506 H   0  0  0  0  0  0  0  0  0  0  0  0
    0.8075   10.6588   -3.7751 H   0  0  0  0  0  0  0  0  0  0  0  0
    2.9496    9.6901   -1.8705 H   0  0  0  0  0  0  0  0  0  0  0  0
    2.3235    8.6473   -3.2361 H   0  0  0  0  0  0  0  0  0  0  0  0
    3.4801    9.7607   -4.7737 H   0  0  0  0  0  0  0  0  0  0  0  0
    3.0224   11.3657   -4.0651 H   0  0  0  0  0  0  0  0  0  0  0  0
    4.5791    9.8057   -2.4847 H   0  0  0  0  0  0  0  0  0  0  0  0
    5.1219   11.4715   -5.9272 H   0  0  0  0  0  0  0  0  0  0  0  0
    6.8936   11.1988   -6.0433 H   0  0  0  0  0  0  0  0  0  0  0  0
    5.7675    9.7992   -6.0433 H   0  0  0  0  0  0  0  0  0  0  0  0
    7.3172   10.4069   -2.4736 H   0  0  0  0  0  0  0  0  0  0  0  0
    7.6723    9.3883   -3.9100 H   0  0  0  0  0  0  0  0  0  0  0  0
    8.1193   11.1281   -3.9100 H   0  0  0  0  0  0  0  0  0  0  0  0
    0.1389   11.5066   -1.4202 H   0  0  0  0  0  0  0  0  0  0  0  0
    1.8970   11.0101    0.1594 H   0  0  0  0  0  0  0  0  0  0  0  0
    3.0888   10.7475   -1.1317 H   0  0  0  0  0  0  0  0  0  0  0  0
    2.9209   13.0691    0.5256 H   0  0  0  0  0  0  0  0  0  0  0  0
    3.8443   12.9905   -0.9728 H   0  0  0  0  0  0  0  0  0  0  0  0
    1.0718   13.8628    0.8515 H   0  0  0  0  0  0  0  0  0  0  0  0
    0.1319   14.8733   -0.2983 H   0  0  0  0  0  0  0  0  0  0  0  0
   -0.0706   13.0885   -0.2983 H   0  0  0  0  0  0  0  0  0  0  0  0
    3.1897   14.9156   -2.2848 H   0  0  0  0  0  0  0  0  0  0  0  0
    3.2467   15.4531    0.2348 H   0  0  0  0  0  0  0  0  0  0  0  0
    3.5726   16.7566   -1.0240 H   0  0  0  0  0  0  0  0  0  0  0  0
    2.0691   17.4603    1.0218 H   0  0  0  0  0  0  0  0  0  0  0  0
   -0.5611   15.9471   -1.6411 H   0  0  0  0  0  0  0  0  0  0  0  0
    0.3150   18.6314   -2.8743 H   0  0  0  0  0  0  0  0  0  0  0  0
   -0.8587   17.4355   -3.5825 H   0  0  0  0  0  0  0  0  0  0  0  0
   -2.0031   19.3707   -2.5486 H   0  0  0  0  0  0  0  0  0  0  0  0
   -2.3939   17.8036   -1.7376 H   0  0  0  0  0  0  0  0  0  0  0  0
   -2.0430   19.4770   -0.0533 H   0  0  0  0  0  0  0  0  0  0  0  0
    0.1770   20.4310    0.0160 H   0  0  0  0  0  0  0  0  0  0  0  0
   -1.5479   17.0602    1.9410 H   0  0  0  0  0  0  0  0  0  0  0  0
   -2.5363   17.3656    0.4724 H   0  0  0  0  0  0  0  0  0  0  0  0
   -1.3092   16.0538    0.4724 H   0  0  0  0  0  0  0  0  0  0  0  0
   -0.3036   18.2945    2.4924 H   0  0  0  0  0  0  0  0  0  0  0  0
    1.1686   18.7660    1.5776 H   0  0  0  0  0  0  0  0  0  0  0  0
   -0.2712   19.8400    1.5776 H   0  0  0  0  0  0  0  0  0  0  0  0
    2.7291   17.6139   -2.7700 H   0  0  0  0  0  0  0  0  0  0  0  0
    2.8801   16.4071   -4.0919 H   0  0  0  0  0  0  0  0  0  0  0  0
    1.5135   17.5730   -4.0919 H   0  0  0  0  0  0  0  0  0  0  0  0
   -0.2962   15.4890   -4.0281 H   0  0  0  0  0  0  0  0  0  0  0  0
    1.3824   14.8382   -4.4665 H   0  0  0  0  0  0  0  0  0  0  0  0
   -0.5997   13.6632   -2.4971 H   0  0  0  0  0  0  0  0  0  0  0  0
   -0.0242   12.9742   -4.0660 H   0  0  0  0  0  0  0  0  0  0  0  0
    3.5408   12.6224   -2.9840 H   0  0  0  0  0  0  0  0  0  0  0  0
    2.3936   11.8774   -4.1483 H   0  0  0  0  0  0  0  0  0  0  0  0
    2.6448   13.6560   -4.1483 H   0  0  0  0  0  0  0  0  0  0  0  0
  1  2  1  0
  2  3  1  0
  3  4  1  0
  4  5  1  0
  5  6  1  0
  6  7  1  0
  7  8  1  0
  7  9  1  0
  2 10  1  0
 10 11  1  0
 11 12  1  0
 12 13  1  0
 13 14  1  1
 13 15  1  0
 15 16  1  0
 16 17  1  0
 17 18  2  0
 18 19  1  0
 19 20  1  0
 20 21  1  0
 21 22  1  0
 22 23  1  0
 22 24  1  0
 24 25  1  0
 24 26  1  0
 19 27  1  0
 27 28  1  6
 27 29  1  0
 29 30  1  0
 30 31  1  0
 31 32  1  6
  7  5  1  0
 31 10  1  0
 31 13  1  0
 27 15  1  0
 24 18  1  0
  1 33  1  0
  1 34  1  0
  1 35  1  0
  2 36  1  6
  3 37  1  0
  3 38  1  0
  4 39  1  0
  4 40  1  0
  5 41  1  1
  8 42  1  0
  8 43  1  0
  8 44  1  0
  9 45  1  0
  9 46  1  0
  9 47  1  0
 10 48  1  1
 11 49  1  0
 11 50  1  0
 12 51  1  0
 12 52  1  0
 14 53  1  0
 14 54  1  0
 14 55  1  0
 15 56  1  6
 16 57  1  0
 16 58  1  0
 17 59  1  0
 19 60  1  1
 20 61  1  0
 20 62  1  0
 21 63  1  0
 21 64  1  0
 22 65  1  1
 23 66  1  0
 25 67  1  0
 25 68  1  0
 25 69  1  0
 26 70  1  0
 26 71  1  0
 26 72  1  0
 28 73  1  0
 28 74  1  0
 28 75  1  0
 29 76  1  0
 29 77  1  0
 30 78  1  0
 30 79  1  0
 32 80  1  0
 32 81  1  0
 32 82  1  0
M  END
>  <meeko>  (15) 
{"is_sidechain": [false], "intermolecular_energy": 2.731, "internal_energy": -0.839}

$$$$
EPH_relaxed_0001_pdb2pqr_Repair_295_r2_0001_out
     RDKit          3D

 82 86  0  0  0  0  0  0  0  0999 V2000
    0.1690    9.7230   -4.3320 C   0  0  0  0  0  0  0  0  0  0  0  0
    1.1600   10.5470   -3.5060 C   0  0  2  0  0  0  0  0  0  0  0  0
    1.6480    9.7860   -2.2570 C   0  0  0  0  0  0  0  0  0  0  0  0
    0.7450    8.6180   -1.8550 C   0  0  0  0  0  0  0  0  0  0  0  0
   -0.2200    9.0080   -0.7770 C   0  0  2  0  0  0  0  0  0  0  0  0
   -0.8820    7.9080   -0.1390 O   0  0  0  0  0  0  0  0  0  0  0  0
   -1.7210    8.8060   -0.8840 C   0  0  0  0  0  0  0  0  0  0  0  0
   -2.3410    8.1920   -2.0990 C   0  0  0  0  0  0  0  0  0  0  0  0
   -2.6180    9.6440   -0.0270 C   0  0  0  0  0  0  0  0  0  0  0  0
    0.5210   11.8680   -3.0940 C   0  0  1  0  0  0  0  0  0  0  0  0
   -0.8600   11.6770   -2.4120 C   0  0  0  0  0  0  0  0  0  0  0  0
   -0.9800   12.7780   -1.3280 C   0  0  0  0  0  0  0  0  0  0  0  0
    0.1730   13.7610   -1.6400 C   0  0  1  0  0  0  0  0  0  0  0  0
   -0.3680   14.6620   -2.7940 C   0  0  0  0  0  0  0  0  0  0  0  0
    0.6990   14.6140   -0.4390 C   0  0  2  0  0  0  0  0  0  0  0  0
   -0.3340   15.5700    0.1820 C   0  0  0  0  0  0  0  0  0  0  0  0
   -0.3720   16.9400   -0.4100 C   0  0  0  0  0  0  0  0  0  0  0  0
    0.5760   17.4760   -1.2020 C   0  0  0  0  0  0  0  0  0  0  0  0
    1.8770   16.7190   -1.4960 C   0  0  1  0  0  0  0  0  0  0  0  0
    3.0840   17.6790   -1.3240 C   0  0  0  0  0  0  0  0  0  0  0  0
    2.9460   18.9480   -2.1590 C   0  0  0  0  0  0  0  0  0  0  0  0
    1.6690   19.7030   -1.7970 C   0  0  2  0  0  0  0  0  0  0  0  0
    1.7880   20.1940   -0.4580 O   0  0  0  0  0  0  0  0  0  0  0  0
    0.3870   18.8340   -1.9220 C   0  0  0  0  0  0  0  0  0  0  0  0
    0.0920   18.5540   -3.4170 C   0  0  0  0  0  0  0  0  0  0  0  0
   -0.8100   19.6690   -1.3940 C   0  0  0  0  0  0  0  0  0  0  0  0
    2.0730   15.3480   -0.7180 C   0  0  1  0  0  0  0  0  0  0  0  0
    2.7250   15.6130    0.6730 C   0  0  0  0  0  0  0  0  0  0  0  0
    3.0830   14.4430   -1.5170 C   0  0  0  0  0  0  0  0  0  0  0  0
    2.4880   13.5340   -2.6100 C   0  0  0  0  0  0  0  0  0  0  0  0
    1.2910   12.7430   -2.0730 C   0  0  2  0  0  0  0  0  0  0  0  0
    1.8090   11.8110   -0.9250 C   0  0  0  0  0  0  0  0  0  0  0  0
   -0.4987    9.1679   -3.6567 H   0  0  0  0  0  0  0  0  0  0  0  0
   -0.4275   10.3951   -4.9664 H   0  0  0  0  0  0  0  0  0  0  0  0
    0.7210    9.0139   -4.9664 H   0  0  0  0  0  0  0  0  0  0  0  0
    2.0384   10.7404   -4.1393 H   0  0  0  0  0  0  0  0  0  0  0  0
    2.6544    9.3921   -2.4618 H   0  0  0  0  0  0  0  0  0  0  0  0
    1.6386   10.5013   -1.4214 H   0  0  0  0  0  0  0  0  0  0  0  0
    0.1784    8.2856   -2.7373 H   0  0  0  0  0  0  0  0  0  0  0  0
    1.3826    7.8095   -1.4679 H   0  0  0  0  0  0  0  0  0  0  0  0
    0.3898    9.8856   -0.5162 H   0  0  0  0  0  0  0  0  0  0  0  0
   -3.0915    7.4488   -1.7919 H   0  0  0  0  0  0  0  0  0  0  0  0
   -2.8257    8.9760   -2.6993 H   0  0  0  0  0  0  0  0  0  0  0  0
   -1.5617    7.6997   -2.6993 H   0  0  0  0  0  0  0  0  0  0  0  0
   -2.4039    9.4440    1.0333 H   0  0  0  0  0  0  0  0  0  0  0  0
   -2.4415   10.7082   -0.2423 H   0  0  0  0  0  0  0  0  0  0  0  0
   -3.6677    9.3956   -0.2423 H   0  0  0  0  0  0  0  0  0  0  0  0
    0.4899   12.3702   -4.0722 H   0  0  0  0  0  0  0  0  0  0  0  0
   -1.6662   11.7851   -3.1525 H   0  0  0  0  0  0  0  0  0  0  0  0
   -0.9455   10.6744   -1.9675 H   0  0  0  0  0  0  0  0  0  0  0  0
   -1.9530   13.2864   -1.3971 H   0  0  0  0  0  0  0  0  0  0  0  0
   -0.9147   12.3687   -0.3091 H   0  0  0  0  0  0  0  0  0  0  0  0
   -0.8898   15.5310   -2.3668 H   0  0  0  0  0  0  0  0  0  0  0  0
    0.4723   15.0073   -3.4142 H   0  0  0  0  0  0  0  0  0  0  0  0
   -1.0677   14.0826   -3.4142 H   0  0  0  0  0  0  0  0  0  0  0  0
    0.8967   13.8492    0.3265 H   0  0  0  0  0  0  0  0  0  0  0  0
   -1.3301   15.1195    0.0604 H   0  0  0  0  0  0  0  0  0  0  0  0
   -0.0347   15.7007    1.2324 H   0  0  0  0  0  0  0  0  0  0  0  0
   -1.2481   17.5641   -0.1799 H   0  0  0  0  0  0  0  0  0  0  0  0
    1.8071   16.3897   -2.5432 H   0  0  0  0  0  0  0  0  0  0  0  0
    3.1616   17.9613   -0.2637 H   0  0  0  0  0  0  0  0  0  0  0  0
    3.9840   17.1488   -1.6688 H   0  0  0  0  0  0  0  0  0  0  0  0
    3.8137   19.5979   -1.9724 H   0  0  0  0  0  0  0  0  0  0  0  0
    2.8981   18.6660   -3.2212 H   0  0  0  0  0  0  0  0  0  0  0  0
    1.5594   20.5288   -2.5153 H   0  0  0  0  0  0  0  0  0  0  0  0
    1.5290   19.4750    0.1430 H   0  0  0  0  0  0  0  0  0  0  0  0
   -0.7036   17.7988   -3.4986 H   0  0  0  0  0  0  0  0  0  0  0  0
   -0.2332   19.4836   -3.9069 H   0  0  0  0  0  0  0  0  0  0  0  0
    1.0034   18.1808   -3.9069 H   0  0  0  0  0  0  0  0  0  0  0  0
   -0.8034   19.6644   -0.2940 H   0  0  0  0  0  0  0  0  0  0  0  0
   -0.7236   20.7038   -1.7569 H   0  0  0  0  0  0  0  0  0  0  0  0
   -1.7513   19.2306   -1.7569 H   0  0  0  0  0  0  0  0  0  0  0  0
    2.0211   15.3269    1.4684 H   0  0  0  0  0  0  0  0  0  0  0  0
    3.6452   15.0175    0.7661 H   0  0  0  0  0  0  0  0  0  0  0  0
    2.9688   16.6816    0.7661 H   0  0  0  0  0  0  0  0  0  0  0  0
    3.8152   15.1074   -1.9992 H   0  0  0  0  0  0  0  0  0  0  0  0
    3.5058   13.7552   -0.7699 H   0  0  0  0  0  0  0  0  0  0  0  0
    2.1584   14.1559   -3.4553 H   0  0  0  0  0  0  0  0  0  0  0  0
    3.2617   12.8226   -2.9344 H   0  0  0  0  0  0  0  0  0  0  0  0
    1.5611   12.2571    0.0494 H   0  0  0  0  0  0  0  0  0  0  0  0
    1.3298   10.8245   -1.0092 H   0  0  0  0  0  0  0  0  0  0  0  0
    2.8998   11.6971   -1.0092 H   0  0  0  0  0  0  0  0  0  0  0  0
  1  2  1  0
  2  3  1  0
  3  4  1  0
  4  5  1  0
  5  6  1  0
  6  7  1  0
  7  8  1  0
  7  9  1  0
  2 10  1  0
 10 11  1  0
 11 12  1  0
 12 13  1  0
 13 14  1  6
 13 15  1  0
 15 16  1  0
 16 17  1  0
 17 18  2  0
 18 19  1  0
 19 20  1  0
 20 21  1  0
 21 22  1  0
 22 23  1  0
 22 24  1  0
 24 25  1  0
 24 26  1  0
 19 27  1  0
 27 28  1  1
 27 29  1  0
 29 30  1  0
 30 31  1  0
 31 32  1  1
  7  5  1  0
 31 10  1  0
 31 13  1  0
 27 15  1  0
 24 18  1  0
  1 33  1  0
  1 34  1  0
  1 35  1  0
  2 36  1  6
  3 37  1  0
  3 38  1  0
  4 39  1  0
  4 40  1  0
  5 41  1  1
  8 42  1  0
  8 43  1  0
  8 44  1  0
  9 45  1  0
  9 46  1  0
  9 47  1  0
 10 48  1  6
 11 49  1  0
 11 50  1  0
 12 51  1  0
 12 52  1  0
 14 53  1  0
 14 54  1  0
 14 55  1  0
 15 56  1  1
 16 57  1  0
 16 58  1  0
 17 59  1  0
 19 60  1  6
 20 61  1  0
 20 62  1  0
 21 63  1  0
 21 64  1  0
 22 65  1  6
 23 66  1  0
 25 67  1  0
 25 68  1  0
 25 69  1  0
 26 70  1  0
 26 71  1  0
 26 72  1  0
 28 73  1  0
 28 74  1  0
 28 75  1  0
 29 76  1  0
 29 77  1  0
 30 78  1  0
 30 79  1  0
 32 80  1  0
 32 81  1  0
 32 82  1  0
M  END
>  <meeko>  (16) 
{"is_sidechain": [false], "intermolecular_energy": 2.731, "internal_energy": -0.839}

$$$$
EPH_relaxed_0001_pdb2pqr_Repair_295_r2_0001_out
     RDKit          3D

 82 86  0  0  0  0  0  0  0  0999 V2000
   -2.5340    7.9260   -2.4730 C   0  0  0  0  0  0  0  0  0  0  0  0
   -2.2940    8.3440   -1.0200 C   0  0  2  0  0  0  0  0  0  0  0  0
   -3.5690    8.2180   -0.1610 C   0  0  0  0  0  0  0  0  0  0  0  0
   -4.8660    8.3800   -0.9580 C   0  0  0  0  0  0  0  0  0  0  0  0
   -5.6980    7.1340   -0.9220 C   0  0  2  0  0  0  0  0  0  0  0  0
   -5.7680    6.4250   -2.1660 O   0  0  0  0  0  0  0  0  0  0  0  0
   -7.0030    6.9770   -1.6800 C   0  0  0  0  0  0  0  0  0  0  0  0
   -7.5500    8.0820   -2.5280 C   0  0  0  0  0  0  0  0  0  0  0  0
   -7.9820    5.9450   -1.2140 C   0  0  0  0  0  0  0  0  0  0  0  0
   -1.7720    9.7750   -0.9700 C   0  0  1  0  0  0  0  0  0  0  0  0
   -1.3850   10.2200    0.4650 C   0  0  0  0  0  0  0  0  0  0  0  0
   -0.1590   11.1600    0.3270 C   0  0  0  0  0  0  0  0  0  0  0  0
   -0.0880   11.4880   -1.1830 C   0  0  1  0  0  0  0  0  0  0  0  0
   -1.1400   12.6210   -1.3970 C   0  0  0  0  0  0  0  0  0  0  0  0
    1.3170   11.8920   -1.7360 C   0  0  2  0  0  0  0  0  0  0  0  0
    1.9110   13.1780   -1.1340 C   0  0  0  0  0  0  0  0  0  0  0  0
    1.5730   14.4380   -1.8610 C   0  0  0  0  0  0  0  0  0  0  0  0
    1.0650   14.5100   -3.1050 C   0  0  0  0  0  0  0  0  0  0  0  0
    0.8720   13.2460   -3.9520 C   0  0  1  0  0  0  0  0  0  0  0  0
    1.4170   13.4920   -5.3830 C   0  0  0  0  0  0  0  0  0  0  0  0
    0.8090   14.7300   -6.0360 C   0  0  0  0  0  0  0  0  0  0  0  0
    1.0730   15.9760   -5.1930 C   0  0  2  0  0  0  0  0  0  0  0  0
    2.4780   16.2480   -5.2010 O   0  0  0  0  0  0  0  0  0  0  0  0
    0.5750   15.8410   -3.7270 C   0  0  0  0  0  0  0  0  0  0  0  0
   -0.9730   15.8480   -3.7010 C   0  0  0  0  0  0  0  0  0  0  0  0
    1.0280   17.1070   -2.9510 C   0  0  0  0  0  0  0  0  0  0  0  0
    1.4160   11.8950   -3.3160 C   0  0  1  0  0  0  0  0  0  0  0  0
    2.9240   11.7110   -3.6680 C   0  0  0  0  0  0  0  0  0  0  0  0
    0.6560   10.6780   -3.9640 C   0  0  0  0  0  0  0  0  0  0  0  0
   -0.6670   10.2510   -3.3000 C   0  0  0  0  0  0  0  0  0  0  0  0
   -0.4940   10.0940   -1.7860 C   0  0  2  0  0  0  0  0  0  0  0  0
    0.5420    8.9450   -1.5390 C   0  0  0  0  0  0  0  0  0  0  0  0
   -3.0816    6.9722   -2.4945 H   0  0  0  0  0  0  0  0  0  0  0  0
   -3.1253    8.6999   -2.9843 H   0  0  0  0  0  0  0  0  0  0  0  0
   -1.5675    7.8055   -2.9843 H   0  0  0  0  0  0  0  0  0  0  0  0
   -1.5431    7.6594   -0.5988 H   0  0  0  0  0  0  0  0  0  0  0  0
   -3.5731    7.2244    0.3109 H   0  0  0  0  0  0  0  0  0  0  0  0
   -3.5412    9.0329    0.5773 H   0  0  0  0  0  0  0  0  0  0  0  0
   -5.4472    9.2093   -0.5284 H   0  0  0  0  0  0  0  0  0  0  0  0
   -4.6013    8.5854   -2.0057 H   0  0  0  0  0  0  0  0  0  0  0  0
   -5.4305    6.9575    0.1303 H   0  0  0  0  0  0  0  0  0  0  0  0
   -7.9448    8.8794   -1.8813 H   0  0  0  0  0  0  0  0  0  0  0  0
   -6.7487    8.4879   -3.1630 H   0  0  0  0  0  0  0  0  0  0  0  0
   -8.3586    7.6910   -3.1630 H   0  0  0  0  0  0  0  0  0  0  0  0
   -7.9996    5.9264   -0.1143 H   0  0  0  0  0  0  0  0  0  0  0  0
   -8.9845    6.1932   -1.5926 H   0  0  0  0  0  0  0  0  0  0  0  0
   -7.6813    4.9570   -1.5926 H   0  0  0  0  0  0  0  0  0  0  0  0
   -2.6359   10.3018   -1.4015 H   0  0  0  0  0  0  0  0  0  0  0  0
   -2.2229   10.7567    0.9340 H   0  0  0  0  0  0  0  0  0  0  0  0
   -1.1476    9.3516    1.0971 H   0  0  0  0  0  0  0  0  0  0  0  0
   -0.3040   12.0768    0.9173 H   0  0  0  0  0  0  0  0  0  0  0  0
    0.7669   10.6957    0.6974 H   0  0  0  0  0  0  0  0  0  0  0  0
   -1.4839   12.9914   -0.4200 H   0  0  0  0  0  0  0  0  0  0  0  0
   -0.6806   13.4462   -1.9609 H   0  0  0  0  0  0  0  0  0  0  0  0
   -1.9969   12.2239   -1.9609 H   0  0  0  0  0  0  0  0  0  0  0  0
    1.9555   11.0713   -1.3772 H   0  0  0  0  0  0  0  0  0  0  0  0
    1.5425   13.2718   -0.1018 H   0  0  0  0  0  0  0  0  0  0  0  0
    3.0035   13.0702   -1.2037 H   0  0  0  0  0  0  0  0  0  0  0  0
    1.7546   15.3871   -1.3353 H   0  0  0  0  0  0  0  0  0  0  0  0
   -0.2132   13.0704   -3.9914 H   0  0  0  0  0  0  0  0  0  0  0  0
    2.5078   13.6225   -5.3273 H   0  0  0  0  0  0  0  0  0  0  0  0
    1.1442   12.6219   -5.9983 H   0  0  0  0  0  0  0  0  0  0  0  0
    1.2552   14.8678   -7.0319 H   0  0  0  0  0  0  0  0  0  0  0  0
   -0.2783   14.5856   -6.1189 H   0  0  0  0  0  0  0  0  0  0  0  0
    0.5051   16.8045   -5.6415 H   0  0  0  0  0  0  0  0  0  0  0  0
    2.5910   17.2130   -5.1640 H   0  0  0  0  0  0  0  0  0  0  0  0
   -1.3222   15.8496   -2.6579 H   0  0  0  0  0  0  0  0  0  0  0  0
   -1.3443   16.7478   -4.2133 H   0  0  0  0  0  0  0  0  0  0  0  0
   -1.3524   14.9516   -4.2133 H   0  0  0  0  0  0  0  0  0  0  0  0
    0.9603   16.9179   -1.8695 H   0  0  0  0  0  0  0  0  0  0  0  0
    2.0680   17.3475   -3.2168 H   0  0  0  0  0  0  0  0  0  0  0  0
    0.3767   17.9526   -3.2168 H   0  0  0  0  0  0  0  0  0  0  0  0
    3.5109   11.6394   -2.7404 H   0  0  0  0  0  0  0  0  0  0  0  0
    3.0536   10.7904   -4.2559 H   0  0  0  0  0  0  0  0  0  0  0  0
    3.2712   12.5734   -4.2559 H   0  0  0  0  0  0  0  0  0  0  0  0
    0.4338   10.9425   -5.0083 H   0  0  0  0  0  0  0  0  0  0  0  0
    1.3308    9.8183   -3.8393 H   0  0  0  0  0  0  0  0  0  0  0  0
   -1.4323   11.0161   -3.4975 H   0  0  0  0  0  0  0  0  0  0  0  0
   -0.9743    9.2821   -3.7206 H   0  0  0  0  0  0  0  0  0  0  0  0
    0.6750    8.7975   -0.4571 H   0  0  0  0  0  0  0  0  0  0  0  0
    0.1722    8.0139   -1.9933 H   0  0  0  0  0  0  0  0  0  0  0  0
    1.5062    9.2168   -1.9933 H   0  0  0  0  0  0  0  0  0  0  0  0
  1  2  1  0
  2  3  1  0
  3  4  1  0
  4  5  1  0
  5  6  1  0
  6  7  1  0
  7  8  1  0
  7  9  1  0
  2 10  1  0
 10 11  1  0
 11 12  1  0
 12 13  1  0
 13 14  1  1
 13 15  1  0
 15 16  1  0
 16 17  1  0
 17 18  2  0
 18 19  1  0
 19 20  1  0
 20 21  1  0
 21 22  1  0
 22 23  1  0
 22 24  1  0
 24 25  1  0
 24 26  1  0
 19 27  1  0
 27 28  1  1
 27 29  1  0
 29 30  1  0
 30 31  1  0
 31 32  1  6
  7  5  1  0
 31 10  1  0
 31 13  1  0
 27 15  1  0
 24 18  1  0
  1 33  1  0
  1 34  1  0
  1 35  1  0
  2 36  1  1
  3 37  1  0
  3 38  1  0
  4 39  1  0
  4 40  1  0
  5 41  1  1
  8 42  1  0
  8 43  1  0
  8 44  1  0
  9 45  1  0
  9 46  1  0
  9 47  1  0
 10 48  1  6
 11 49  1  0
 11 50  1  0
 12 51  1  0
 12 52  1  0
 14 53  1  0
 14 54  1  0
 14 55  1  0
 15 56  1  1
 16 57  1  0
 16 58  1  0
 17 59  1  0
 19 60  1  6
 20 61  1  0
 20 62  1  0
 21 63  1  0
 21 64  1  0
 22 65  1  6
 23 66  1  0
 25 67  1  0
 25 68  1  0
 25 69  1  0
 26 70  1  0
 26 71  1  0
 26 72  1  0
 28 73  1  0
 28 74  1  0
 28 75  1  0
 29 76  1  0
 29 77  1  0
 30 78  1  0
 30 79  1  0
 32 80  1  0
 32 81  1  0
 32 82  1  0
M  END
>  <meeko>  (17) 
{"is_sidechain": [false], "intermolecular_energy": 2.731, "internal_energy": -0.839}

$$$$
EPH_relaxed_0001_pdb2pqr_Repair_295_r2_0001_out
     RDKit          3D

 82 86  0  0  0  0  0  0  0  0999 V2000
   -2.4010    9.8300   -0.4710 C   0  0  0  0  0  0  0  0  0  0  0  0
   -1.5800   10.5570   -1.5390 C   0  0  2  0  0  0  0  0  0  0  0  0
   -0.5500    9.6290   -2.2130 C   0  0  0  0  0  0  0  0  0  0  0  0
    0.8650    9.7620   -1.6430 C   0  0  0  0  0  0  0  0  0  0  0  0
    1.8900    9.8930   -2.7290 C   0  0  2  0  0  0  0  0  0  0  0  0
    3.1030    9.1660   -2.4970 O   0  0  0  0  0  0  0  0  0  0  0  0
    3.2210   10.5980   -2.5430 C   0  0  0  0  0  0  0  0  0  0  0  0
    3.5980   11.2190   -1.2350 C   0  0  0  0  0  0  0  0  0  0  0  0
    3.9370   11.1060   -3.7550 C   0  0  0  0  0  0  0  0  0  0  0  0
   -0.8730   11.7590   -0.9220 C   0  0  1  0  0  0  0  0  0  0  0  0
    0.2820   11.3480    0.0300 C   0  0  0  0  0  0  0  0  0  0  0  0
    1.3900   12.4210   -0.1230 C   0  0  0  0  0  0  0  0  0  0  0  0
    0.7110   13.5770   -0.8950 C   0  0  1  0  0  0  0  0  0  0  0  0
   -0.0830   14.3710    0.1890 C   0  0  0  0  0  0  0  0  0  0  0  0
    1.6590   14.5100   -1.7160 C   0  0  2  0  0  0  0  0  0  0  0  0
    2.6910   15.2890   -0.8810 C   0  0  0  0  0  0  0  0  0  0  0  0
    2.2440   16.6310   -0.4040 C   0  0  0  0  0  0  0  0  0  0  0  0
    1.1780   17.3100   -0.8680 C   0  0  0  0  0  0  0  0  0  0  0  0
    0.3540   16.7750   -2.0450 C   0  0  1  0  0  0  0  0  0  0  0  0
    0.0970   17.9190   -3.0610 C   0  0  0  0  0  0  0  0  0  0  0  0
   -0.5400   19.1440   -2.4120 C   0  0  0  0  0  0  0  0  0  0  0  0
    0.3370   19.6830   -1.2850 C   0  0  2  0  0  0  0  0  0  0  0  0
    1.5490   20.1930   -1.8470 O   0  0  0  0  0  0  0  0  0  0  0  0
    0.6710   18.6150   -0.2050 C   0  0  0  0  0  0  0  0  0  0  0  0
   -0.6030   18.2830    0.6100 C   0  0  0  0  0  0  0  0  0  0  0  0
    1.6750   19.2470    0.7970 C   0  0  0  0  0  0  0  0  0  0  0  0
    0.9100   15.4570   -2.7390 C   0  0  1  0  0  0  0  0  0  0  0  0
    1.9480   15.8330   -3.8400 C   0  0  0  0  0  0  0  0  0  0  0  0
   -0.2730   14.7250   -3.4750 C   0  0  0  0  0  0  0  0  0  0  0  0
   -1.0980   13.7260   -2.6420 C   0  0  0  0  0  0  0  0  0  0  0  0
   -0.1840   12.7530   -1.8910 C   0  0  2  0  0  0  0  0  0  0  0  0
    0.6120   11.9240   -2.9560 C   0  0  0  0  0  0  0  0  0  0  0  0
   -2.0559   10.1356    0.5278 H   0  0  0  0  0  0  0  0  0  0  0  0
   -3.4639   10.0884   -0.5867 H   0  0  0  0  0  0  0  0  0  0  0  0
   -2.2731    8.7436   -0.5867 H   0  0  0  0  0  0  0  0  0  0  0  0
   -2.2781   10.8955   -2.3188 H   0  0  0  0  0  0  0  0  0  0  0  0
   -0.8812    8.5885   -2.0805 H   0  0  0  0  0  0  0  0  0  0  0  0
   -0.4985    9.9218   -3.2721 H   0  0  0  0  0  0  0  0  0  0  0  0
    0.9087   10.6549   -1.0020 H   0  0  0  0  0  0  0  0  0  0  0  0
    1.0897    8.8521   -1.0672 H   0  0  0  0  0  0  0  0  0  0  0  0
    1.1037    9.9914   -3.4920 H   0  0  0  0  0  0  0  0  0  0  0  0
    3.2199   10.5962   -0.4109 H   0  0  0  0  0  0  0  0  0  0  0  0
    4.6934   11.2926   -1.1662 H   0  0  0  0  0  0  0  0  0  0  0  0
    3.1579   12.2248   -1.1662 H   0  0  0  0  0  0  0  0  0  0  0  0
    4.7974   11.7165   -3.4436 H   0  0  0  0  0  0  0  0  0  0  0  0
    4.2896   10.2550   -4.3561 H   0  0  0  0  0  0  0  0  0  0  0  0
    3.2502   11.7200   -4.3561 H   0  0  0  0  0  0  0  0  0  0  0  0
   -1.7287   12.2448   -0.4304 H   0  0  0  0  0  0  0  0  0  0  0  0
   -0.0761   11.3187    1.0697 H   0  0  0  0  0  0  0  0  0  0  0  0
    0.6637   10.3473   -0.2207 H   0  0  0  0  0  0  0  0  0  0  0  0
    1.7372   12.7638    0.8629 H   0  0  0  0  0  0  0  0  0  0  0  0
    2.2760   12.0335   -0.6473 H   0  0  0  0  0  0  0  0  0  0  0  0
    0.2398   14.0482    1.1898 H   0  0  0  0  0  0  0  0  0  0  0  0
    0.1109   15.4473    0.0706 H   0  0  0  0  0  0  0  0  0  0  0  0
   -1.1593   14.1771    0.0706 H   0  0  0  0  0  0  0  0  0  0  0  0
    2.2389   13.7907   -2.3129 H   0  0  0  0  0  0  0  0  0  0  0  0
    2.9428   14.6815    0.0008 H   0  0  0  0  0  0  0  0  0  0  0  0
    3.5458   15.4728   -1.5485 H   0  0  0  0  0  0  0  0  0  0  0  0
    2.8351   17.1049    0.3935 H   0  0  0  0  0  0  0  0  0  0  0  0
   -0.6004   16.4346   -1.6169 H   0  0  0  0  0  0  0  0  0  0  0  0
    1.0571   18.2158   -3.5084 H   0  0  0  0  0  0  0  0  0  0  0  0
   -0.6031   17.5408   -3.8205 H   0  0  0  0  0  0  0  0  0  0  0  0
   -0.6702   19.9276   -3.1729 H   0  0  0  0  0  0  0  0  0  0  0  0
   -1.5129   18.8516   -1.9902 H   0  0  0  0  0  0  0  0  0  0  0  0
   -0.2299   20.4771   -0.7772 H   0  0  0  0  0  0  0  0  0  0  0  0
    2.0410   19.4410   -2.2180 H   0  0  0  0  0  0  0  0  0  0  0  0
   -0.3765   18.3420    1.6848 H   0  0  0  0  0  0  0  0  0  0  0  0
   -1.3953   19.0047    0.3621 H   0  0  0  0  0  0  0  0  0  0  0  0
   -0.9423   17.2664    0.3621 H   0  0  0  0  0  0  0  0  0  0  0  0
    1.3457   19.0397    1.8259 H   0  0  0  0  0  0  0  0  0  0  0  0
    2.6737   18.8144    0.6374 H   0  0  0  0  0  0  0  0  0  0  0  0
    1.7168   20.3346    0.6374 H   0  0  0  0  0  0  0  0  0  0  0  0
    2.8807   16.1708   -3.3646 H   0  0  0  0  0  0  0  0  0  0  0  0
    2.1537   14.9523   -4.4661 H   0  0  0  0  0  0  0  0  0  0  0  0
    1.5419   16.6412   -4.4661 H   0  0  0  0  0  0  0  0  0  0  0  0
   -0.9624   15.4975   -3.8465 H   0  0  0  0  0  0  0  0  0  0  0  0
    0.2065   14.1193   -4.2581 H   0  0  0  0  0  0  0  0  0  0  0  0
   -1.7078   14.2814   -1.9143 H   0  0  0  0  0  0  0  0  0  0  0  0
   -1.7415   13.1489   -3.3224 H   0  0  0  0  0  0  0  0  0  0  0  0
    1.2865   11.2215   -2.4445 H   0  0  0  0  0  0  0  0  0  0  0  0
   -0.0937   11.3622   -3.5856 H   0  0  0  0  0  0  0  0  0  0  0  0
    1.2020   12.6063   -3.5856 H   0  0  0  0  0  0  0  0  0  0  0  0
  1  2  1  0
  2  3  1  0
  3  4  1  0
  4  5  1  0
  5  6  1  0
  6  7  1  0
  7  8  1  0
  7  9  1  0
  2 10  1  0
 10 11  1  0
 11 12  1  0
 12 13  1  0
 13 14  1  1
 13 15  1  0
 15 16  1  0
 16 17  1  0
 17 18  2  0
 18 19  1  0
 19 20  1  0
 20 21  1  0
 21 22  1  0
 22 23  1  0
 22 24  1  0
 24 25  1  0
 24 26  1  0
 19 27  1  0
 27 28  1  6
 27 29  1  0
 29 30  1  0
 30 31  1  0
 31 32  1  6
  7  5  1  0
 31 10  1  0
 31 13  1  0
 27 15  1  0
 24 18  1  0
  1 33  1  0
  1 34  1  0
  1 35  1  0
  2 36  1  6
  3 37  1  0
  3 38  1  0
  4 39  1  0
  4 40  1  0
  5 41  1  6
  8 42  1  0
  8 43  1  0
  8 44  1  0
  9 45  1  0
  9 46  1  0
  9 47  1  0
 10 48  1  1
 11 49  1  0
 11 50  1  0
 12 51  1  0
 12 52  1  0
 14 53  1  0
 14 54  1  0
 14 55  1  0
 15 56  1  6
 16 57  1  0
 16 58  1  0
 17 59  1  0
 19 60  1  1
 20 61  1  0
 20 62  1  0
 21 63  1  0
 21 64  1  0
 22 65  1  1
 23 66  1  0
 25 67  1  0
 25 68  1  0
 25 69  1  0
 26 70  1  0
 26 71  1  0
 26 72  1  0
 28 73  1  0
 28 74  1  0
 28 75  1  0
 29 76  1  0
 29 77  1  0
 30 78  1  0
 30 79  1  0
 32 80  1  0
 32 81  1  0
 32 82  1  0
M  END
>  <meeko>  (18) 
{"is_sidechain": [false], "intermolecular_energy": 2.731, "internal_energy": -0.839}

$$$$
EPH_relaxed_0001_pdb2pqr_Repair_295_r2_0001_out
     RDKit          3D

 82 86  0  0  0  0  0  0  0  0999 V2000
   -1.8370   14.6600    0.3430 C   0  0  0  0  0  0  0  0  0  0  0  0
   -0.4760   15.3630    0.3610 C   0  0  2  0  0  0  0  0  0  0  0  0
   -0.4060   16.5200   -0.6550 C   0  0  0  0  0  0  0  0  0  0  0  0
    0.8220   17.4180   -0.4820 C   0  0  0  0  0  0  0  0  0  0  0  0
    1.6820   17.4230   -1.7090 C   0  0  2  0  0  0  0  0  0  0  0  0
    2.4230   18.6330   -1.9160 O   0  0  0  0  0  0  0  0  0  0  0  0
    1.4280   18.3220   -2.9050 C   0  0  0  0  0  0  0  0  0  0  0  0
    0.2770   19.2780   -2.9320 C   0  0  0  0  0  0  0  0  0  0  0  0
    2.0000   17.9270   -4.2310 C   0  0  0  0  0  0  0  0  0  0  0  0
    0.6320   14.3550    0.0800 C   0  0  1  0  0  0  0  0  0  0  0  0
    0.7860   13.3050    1.2130 C   0  0  0  0  0  0  0  0  0  0  0  0
    1.1850   11.9700    0.5330 C   0  0  0  0  0  0  0  0  0  0  0  0
    1.5690   12.3660   -0.9110 C   0  0  1  0  0  0  0  0  0  0  0  0
    3.0340   12.8950   -0.8060 C   0  0  0  0  0  0  0  0  0  0  0  0
    1.4360   11.2460   -1.9940 C   0  0  2  0  0  0  0  0  0  0  0  0
    2.3430   10.0220   -1.7810 C   0  0  0  0  0  0  0  0  0  0  0  0
    3.6850   10.1010   -2.4310 C   0  0  0  0  0  0  0  0  0  0  0  0
    4.0400   10.9790   -3.3880 C   0  0  0  0  0  0  0  0  0  0  0  0
    3.0150   11.9550   -3.9800 C   0  0  1  0  0  0  0  0  0  0  0  0
    3.1340   11.9550   -5.5270 C   0  0  0  0  0  0  0  0  0  0  0  0
    4.5550   12.2400   -6.0040 C   0  0  0  0  0  0  0  0  0  0  0  0
    5.5360   11.2150   -5.4410 C   0  0  2  0  0  0  0  0  0  0  0  0
    5.2420    9.9350   -6.0090 O   0  0  0  0  0  0  0  0  0  0  0  0
    5.4980   11.1190   -3.8900 C   0  0  0  0  0  0  0  0  0  0  0  0
    6.1030   12.4040   -3.2730 C   0  0  0  0  0  0  0  0  0  0  0  0
    6.4280    9.9520   -3.4610 C   0  0  0  0  0  0  0  0  0  0  0  0
    1.5160   11.7720   -3.4840 C   0  0  1  0  0  0  0  0  0  0  0  0
    0.7880   10.7150   -4.3690 C   0  0  0  0  0  0  0  0  0  0  0  0
    0.7400   13.1280   -3.6830 C   0  0  0  0  0  0  0  0  0  0  0  0
    0.8110   14.1450   -2.5280 C   0  0  0  0  0  0  0  0  0  0  0  0
    0.4900   13.4760   -1.1880 C   0  0  2  0  0  0  0  0  0  0  0  0
   -0.9850   12.9530   -1.2550 C   0  0  0  0  0  0  0  0  0  0  0  0
   -2.1736   14.4861    1.3757 H   0  0  0  0  0  0  0  0  0  0  0  0
   -2.5695   15.2925   -0.1798 H   0  0  0  0  0  0  0  0  0  0  0  0
   -1.7452   13.6966   -0.1798 H   0  0  0  0  0  0  0  0  0  0  0  0
   -0.3401   15.7961    1.3630 H   0  0  0  0  0  0  0  0  0  0  0  0
   -0.3830   16.0917   -1.6679 H   0  0  0  0  0  0  0  0  0  0  0  0
   -1.2914   17.1503   -0.4857 H   0  0  0  0  0  0  0  0  0  0  0  0
    0.4864   18.4454   -0.2777 H   0  0  0  0  0  0  0  0  0  0  0  0
    1.4193   17.0249    0.3539 H   0  0  0  0  0  0  0  0  0  0  0  0
    1.8518   16.3396   -1.6231 H   0  0  0  0  0  0  0  0  0  0  0  0
   -0.0194   19.5242   -1.9017 H   0  0  0  0  0  0  0  0  0  0  0  0
    0.5760   20.1972   -3.4571 H   0  0  0  0  0  0  0  0  0  0  0  0
   -0.5717   18.8154   -3.4571 H   0  0  0  0  0  0  0  0  0  0  0  0
    2.8959   17.3083   -4.0742 H   0  0  0  0  0  0  0  0  0  0  0  0
    1.2518   17.3522   -4.7965 H   0  0  0  0  0  0  0  0  0  0  0  0
    2.2725   18.8303   -4.7965 H   0  0  0  0  0  0  0  0  0  0  0  0
    1.4825   15.0433   -0.0333 H   0  0  0  0  0  0  0  0  0  0  0  0
    1.5694   13.6202    1.9179 H   0  0  0  0  0  0  0  0  0  0  0  0
   -0.1500   13.1954    1.7804 H   0  0  0  0  0  0  0  0  0  0  0  0
    2.0407   11.5115    1.0503 H   0  0  0  0  0  0  0  0  0  0  0  0
    0.3720   11.2295    0.5598 H   0  0  0  0  0  0  0  0  0  0  0  0
    3.3125   12.9956    0.2534 H   0  0  0  0  0  0  0  0  0  0  0  0
    3.7159   12.1863   -1.2987 H   0  0  0  0  0  0  0  0  0  0  0  0
    3.1059   13.8759   -1.2987 H   0  0  0  0  0  0  0  0  0  0  0  0
    0.4080   10.8874   -1.8371 H   0  0  0  0  0  0  0  0  0  0  0  0
    2.4964    9.8970   -0.6989 H   0  0  0  0  0  0  0  0  0  0  0  0
    1.8256    9.1742   -2.2538 H   0  0  0  0  0  0  0  0  0  0  0  0
    4.4480    9.3811   -2.1000 H   0  0  0  0  0  0  0  0  0  0  0  0
    3.2769   12.9476   -3.5848 H   0  0  0  0  0  0  0  0  0  0  0  0
    2.8264   10.9686   -5.9044 H   0  0  0  0  0  0  0  0  0  0  0  0
    2.4854   12.7557   -5.9120 H   0  0  0  0  0  0  0  0  0  0  0  0
    4.5811   12.1973   -7.1029 H   0  0  0  0  0  0  0  0  0  0  0  0
    4.8500   13.2390   -5.6504 H   0  0  0  0  0  0  0  0  0  0  0  0
    6.5498   11.5459   -5.7106 H   0  0  0  0  0  0  0  0  0  0  0  0
    6.0770    9.4420   -6.0710 H   0  0  0  0  0  0  0  0  0  0  0  0
    6.0702   12.3344   -2.1757 H   0  0  0  0  0  0  0  0  0  0  0  0
    7.1469   12.5126   -3.6025 H   0  0  0  0  0  0  0  0  0  0  0  0
    5.5217   13.2778   -3.6025 H   0  0  0  0  0  0  0  0  0  0  0  0
    6.4690    9.9005   -2.3630 H   0  0  0  0  0  0  0  0  0  0  0  0
    6.0345    9.0046   -3.8581 H   0  0  0  0  0  0  0  0  0  0  0  0
    7.4393   10.1241   -3.8581 H   0  0  0  0  0  0  0  0  0  0  0  0
    0.2828    9.9815   -3.7234 H   0  0  0  0  0  0  0  0  0  0  0  0
    0.0441   11.2183   -5.0040 H   0  0  0  0  0  0  0  0  0  0  0  0
    1.5234   10.1994   -5.0040 H   0  0  0  0  0  0  0  0  0  0  0  0
    1.1469   13.6156   -4.5812 H   0  0  0  0  0  0  0  0  0  0  0  0
   -0.3207   12.8451   -3.7525 H   0  0  0  0  0  0  0  0  0  0  0  0
    1.8247   14.5698   -2.4844 H   0  0  0  0  0  0  0  0  0  0  0  0
    0.0694   14.9365   -2.7115 H   0  0  0  0  0  0  0  0  0  0  0  0
   -1.3721   12.8158   -0.2345 H   0  0  0  0  0  0  0  0  0  0  0  0
   -1.6095   13.6845   -1.7888 H   0  0  0  0  0  0  0  0  0  0  0  0
   -1.0092   11.9915   -1.7888 H   0  0  0  0  0  0  0  0  0  0  0  0
  1  2  1  0
  2  3  1  0
  3  4  1  0
  4  5  1  0
  5  6  1  0
  6  7  1  0
  7  8  1  0
  7  9  1  0
  2 10  1  0
 10 11  1  0
 11 12  1  0
 12 13  1  0
 13 14  1  1
 13 15  1  0
 15 16  1  0
 16 17  1  0
 17 18  2  0
 18 19  1  0
 19 20  1  0
 20 21  1  0
 21 22  1  0
 22 23  1  0
 22 24  1  0
 24 25  1  0
 24 26  1  0
 19 27  1  0
 27 28  1  6
 27 29  1  0
 29 30  1  0
 30 31  1  0
 31 32  1  6
  7  5  1  0
 31 10  1  0
 31 13  1  0
 27 15  1  0
 24 18  1  0
  1 33  1  0
  1 34  1  0
  1 35  1  0
  2 36  1  1
  3 37  1  0
  3 38  1  0
  4 39  1  0
  4 40  1  0
  5 41  1  6
  8 42  1  0
  8 43  1  0
  8 44  1  0
  9 45  1  0
  9 46  1  0
  9 47  1  0
 10 48  1  6
 11 49  1  0
 11 50  1  0
 12 51  1  0
 12 52  1  0
 14 53  1  0
 14 54  1  0
 14 55  1  0
 15 56  1  6
 16 57  1  0
 16 58  1  0
 17 59  1  0
 19 60  1  1
 20 61  1  0
 20 62  1  0
 21 63  1  0
 21 64  1  0
 22 65  1  1
 23 66  1  0
 25 67  1  0
 25 68  1  0
 25 69  1  0
 26 70  1  0
 26 71  1  0
 26 72  1  0
 28 73  1  0
 28 74  1  0
 28 75  1  0
 29 76  1  0
 29 77  1  0
 30 78  1  0
 30 79  1  0
 32 80  1  0
 32 81  1  0
 32 82  1  0
M  END
>  <meeko>  (19) 
{"is_sidechain": [false], "intermolecular_energy": 2.731, "internal_energy": -0.839}

$$$$
